data_functionalizedCrystal
_audit_creation_method	'MofGen! by Chris Wilmer'
_symmetry_space_group_name_H-M	'P1'
_symmetry_Int_Tables_number	1
_symmetry_cell_setting	triclinic
loop_
_symmetry_equiv_pos_as_xyz
  x,y,z
_cell_length_a	19.851628
_cell_length_b	14.628931
_cell_length_c	14.628931
_cell_angle_alpha	60.000000
_cell_angle_beta	90.003599
_cell_angle_gamma	59.998289
loop_
_atom_site_label
_atom_site_type_symbol
_atom_site_fract_x
_atom_site_fract_y
_atom_site_fract_z
Zr1	Zr	0.648978	1.000475	-0.119855
O2	O	0.541412	1.191197	-0.265834
O3	O	0.681953	0.809764	-0.075105
O4	O	0.681953	1.000469	-0.265810
O5	O	0.541411	1.000492	0.075304
O6	O	0.792815	1.000451	-0.265792
O7	O	0.541411	1.000492	-0.075128
O8	O	0.792815	0.659315	0.075346
O9	O	0.541412	1.341629	-0.265834
O10	O	0.778751	0.888189	-0.056006
O11	O	0.696016	0.888202	0.056246
O12	O	0.696017	1.112733	-0.168285
O13	O	0.613282	1.112746	-0.056033
Zr14	Zr	0.825790	1.000447	0.120095
Zr15	Zr	0.825790	1.000447	-0.119826
Zr16	Zr	0.648978	1.000475	0.120066
Zr17	Zr	0.648979	1.240396	-0.119855
Zr18	Zr	0.825790	0.760526	0.120096
O19	O	0.792815	1.191158	0.075345
O20	O	0.792815	1.191157	-0.265792
O21	O	0.541412	1.191198	0.075303
O22	O	0.933356	0.809725	0.266074
O23	O	0.933357	0.809724	-0.075063
O24	O	0.681953	0.809765	0.266032
O25	O	0.933357	1.000429	-0.075063
O26	O	0.792815	1.000453	0.266050
O27	O	0.681953	1.000471	0.266032
O28	O	0.933357	1.000430	0.075368
O29	O	0.681954	1.341607	-0.265811
O30	O	0.792814	0.659315	0.266051
O31	O	0.933356	0.659293	0.266074
O32	O	0.933356	0.659292	0.075369
O33	O	0.541412	1.341629	-0.075128
O34	O	0.681954	1.341607	-0.075105
O35	O	0.778751	0.888189	0.168525
O36	O	0.861486	0.888176	0.056274
O37	O	0.778752	1.112720	-0.056006
O38	O	0.696017	1.112733	0.056246
C39	C	0.737384	0.700356	0.000121
C40	C	0.737384	0.598503	0.000121
C41	C	0.696342	0.447835	0.055804
C42	C	0.696342	0.553105	0.055805
C43	C	0.516220	1.000496	0.000084
C44	C	0.441158	1.000508	0.000071
C45	C	0.214703	1.122910	-0.061111
C46	C	0.192342	1.061711	-0.105469
C47	C	0.303752	1.000475	0.000103
C48	C	0.192372	1.061682	0.044441
C49	C	0.171020	1.000451	0.000134
C50	C	0.282379	0.939274	-0.044317
C51	C	0.282407	0.939264	0.105652
C52	C	0.260099	0.877974	0.061320
C53	C	0.380214	1.000492	0.000083
C54	C	0.094562	1.000425	0.000152
C55	C	0.958549	1.000426	0.000157
C56	C	1.033610	1.000414	0.000169
C57	C	0.737384	1.000460	-0.299985
C58	C	0.737384	1.000460	-0.401837
C59	C	0.737384	1.300566	0.000120
C60	C	0.737384	1.402419	0.000120
C61	C	0.696343	1.111849	-0.502945
C62	C	0.696342	1.111851	-0.608216
C63	C	0.737384	1.000462	0.300225
C64	C	0.737384	1.000462	0.402078
C65	C	0.958548	0.700320	0.000157
C66	C	1.033609	0.598456	0.000170
C67	C	0.737383	0.700357	0.300225
C68	C	0.737383	0.598504	0.402078
C69	C	0.958548	0.700321	0.300262
C70	C	1.033609	0.598457	0.402127
C71	C	0.516220	1.300601	-0.300022
C72	C	0.441159	1.402465	-0.401887
C73	C	0.516220	1.300601	0.000083
C74	C	0.441159	1.402466	0.000071
C75	C	0.737385	1.300565	-0.299985
C76	C	0.737385	1.402418	-0.401838
C77	C	1.025672	0.550625	-0.058443
C78	C	1.096193	0.454926	-0.058454
C79	C	1.174651	0.407051	0.000156
C80	C	1.182586	0.454891	0.058770
C81	C	1.112066	0.550595	0.058773
C82	C	1.112053	0.550613	0.391370
C83	C	1.182587	0.454914	0.487074
C84	C	1.174676	0.407053	0.593534
C85	C	1.096224	0.454906	0.604290
C86	C	1.025692	0.550611	0.508586
C87	C	0.362715	1.450321	-0.391130
C88	C	0.292181	1.546050	-0.486834
C89	C	0.300092	1.593915	-0.593294
C90	C	0.378544	1.546056	-0.604049
C91	C	0.449077	1.450335	-0.508346
C92	C	0.449096	1.450307	0.058673
C93	C	0.378575	1.546033	0.058658
C94	C	0.300117	1.593910	0.000045
C95	C	0.292182	1.546066	-0.058565
C96	C	0.362702	1.450348	-0.058555
C97	C	0.778425	0.553088	0.503186
C98	C	0.778426	0.447818	0.608457
H99	H	0.661200	0.592167	0.103473
Br100	Br	0.637765	1.270808	-0.752781
Br101	Br	0.204418	1.723815	0.000043
Br102	Br	1.085502	0.389940	0.748781
H103	H	0.321215	0.887562	0.194883
Br104	Br	0.185697	1.611054	-0.138102
H105	H	0.961822	0.589553	0.517361
H106	H	0.772525	0.441466	-0.047548
Br107	Br	1.122812	0.615552	0.246900
Br108	Br	0.795946	0.533429	-0.079357
Br109	Br	0.185721	1.610979	-0.472211
Br110	Br	0.351956	1.385378	-0.246660
Br111	Br	0.637792	0.382731	0.135291
H112	H	0.702249	0.441465	0.511431
H113	H	0.196252	1.226435	-0.112951
Br114	Br	0.389364	1.610940	0.138208
H115	H	0.512974	1.411332	0.106410
Br116	Br	0.555533	1.385393	-0.522966
Br117	Br	1.270409	0.277168	0.723408
Br118	Br	0.204359	1.723824	-0.723168
H119	H	0.961794	0.589604	-0.106184
H120	H	0.702243	0.559456	0.393452
H121	H	1.089716	0.415986	-0.106184
Br122	Br	0.836984	0.618181	0.517578
H123	H	1.232066	0.329122	0.000145
H124	H	0.153532	1.113457	-0.194718
H125	H	0.153571	1.113453	0.081926
Br126	Br	0.351915	1.385428	-0.138090
Br127	Br	0.346855	0.853122	-0.106999
Br128	Br	0.291023	0.705334	0.147530
Br129	Br	1.289071	0.389901	0.138310
Br130	Br	0.637783	1.270803	-0.517337
H131	H	0.772519	0.905093	-0.511190
Br132	Br	0.837003	0.382718	0.753022
Br133	Br	0.795960	0.841506	-0.387445
H134	H	1.118540	0.589526	0.106509
H135	H	1.246460	0.415961	0.478297
H136	H	0.384975	1.585040	-0.690741
