data_functionalizedCrystal
_audit_creation_method	'MofGen! by Chris Wilmer'
_symmetry_space_group_name_H-M	'P1'
_symmetry_Int_Tables_number	1
_symmetry_cell_setting	triclinic
loop_
_symmetry_equiv_pos_as_xyz
  x,y,z
_cell_length_a	12.594517
_cell_length_b	10.685976
_cell_length_c	10.686551
_cell_angle_alpha	90.348485
_cell_angle_beta	85.599114
_cell_angle_gamma	94.357070
loop_
_atom_site_label
_atom_site_type_symbol
_atom_site_fract_x
_atom_site_fract_y
_atom_site_fract_z
Zn1	Zn	0.514686	1.972298	0.561933
Zn2	Zn	0.705237	1.956104	0.352197
Zn3	Zn	0.512687	1.746426	0.368308
Zn4	Zn	0.678034	1.762537	0.578022
O5	O	0.602661	1.859341	0.465115
O6	O	0.552184	2.145687	0.520636
O7	O	0.690243	1.914769	0.178794
O8	O	0.364009	1.776423	0.394002
O9	O	0.692181	2.133789	0.366544
O10	O	0.365477	1.942370	0.536257
O11	O	0.548778	1.760720	0.190630
O12	O	0.522400	1.573026	0.409603
O13	O	0.645817	1.803882	0.751429
O14	O	0.643879	1.584863	0.563678
O15	O	0.525807	1.957993	0.739608
O16	O	0.850572	1.930392	0.382144
O17	O	0.830587	1.788179	0.548057
C18	C	0.579972	1.533430	0.490135
C19	C	0.570289	1.394006	0.500869
C20	C	0.325043	1.859406	0.465132
C21	C	0.206739	1.859433	0.465139
C22	C	0.138284	1.949683	0.542518
C23	C	0.076506	1.971548	0.425722
C24	C	0.057721	1.837609	0.581939
C25	C	0.146527	1.881353	0.348278
C26	C	0.127740	1.747367	0.504576
C27	C	0.065996	1.769182	0.387704
C28	C	0.879200	1.859313	0.465123
C29	C	0.997510	1.859419	0.465159
C30	C	0.583001	1.884541	0.792307
C31	C	0.574622	1.895280	0.931737
C32	C	0.625440	2.186525	0.439998
C33	C	0.635147	2.325951	0.429294
C34	C	0.622173	1.834311	0.139191
C35	C	0.630269	1.823815	-0.000257
H36	H	0.698094	1.374357	0.359804
H37	H	0.520573	1.964689	0.980187
H38	H	0.507355	1.345608	0.570366
H39	H	0.185114	1.899924	0.249476
H40	H	0.170010	2.026058	0.607854
H41	H	0.053679	2.066313	0.392366
H42	H	0.034479	1.692848	0.322195
H43	H	0.150589	1.652630	0.537962
H44	H	0.684322	1.754419	0.951298
H45	H	0.019011	1.819156	0.680706
