data_functionalizedCrystal
_audit_creation_method	'MofGen! by Chris Wilmer'
_symmetry_space_group_name_H-M	'P1'
_symmetry_Int_Tables_number	1
_symmetry_cell_setting	triclinic
loop_
_symmetry_equiv_pos_as_xyz
  x,y,z
_cell_length_a	10.540510
_cell_length_b	10.540514
_cell_length_c	13.448316
_cell_angle_alpha	89.992743
_cell_angle_beta	90.007118
_cell_angle_gamma	95.485765
loop_
_atom_site_label
_atom_site_type_symbol
_atom_site_fract_x
_atom_site_fract_y
_atom_site_fract_z
O1	O	-0.178753	1.685891	-0.082706
O2	O	-0.195643	1.316472	-0.082705
O3	O	-0.002488	1.509629	-0.082698
O4	O	-0.371908	1.492733	-0.082713
O5	O	-0.002476	1.509604	0.082686
O6	O	-0.195630	1.316447	0.082679
O7	O	-0.178741	1.685866	0.082678
Cu8	Cu	-0.187185	1.501154	0.097779
Cu9	Cu	-0.187199	1.501183	-0.097806
O10	O	-0.371895	1.492709	0.082670
C11	C	-0.194377	1.269156	-0.000013
C12	C	-0.190608	1.128207	-0.000013
C13	C	-0.328749	1.057486	-0.000021
C14	C	-0.324875	0.910874	-0.000401
C15	C	-0.115486	0.935891	-0.094274
C16	C	-0.120340	1.082430	-0.094348
C17	C	-0.118282	1.082805	0.093731
C18	C	-0.116949	0.935826	0.094965
C19	C	-0.419205	1.493980	-0.000024
C20	C	-0.560155	1.497747	-0.000030
C21	C	-0.777622	1.363561	0.000362
C22	C	-0.631027	1.359543	-0.000026
C23	C	-0.604931	1.568508	-0.094466
C24	C	-0.751692	1.571548	-0.094530
C25	C	-0.751451	1.574397	0.093542
C26	C	-0.605111	1.567842	0.094775
C27	C	0.044821	1.508358	-0.000006
C28	C	0.185771	1.504591	-0.000006
C29	C	-0.180007	1.733182	-0.000016
C30	C	-0.183776	1.874131	-0.000023
N31	N	-0.187174	1.501143	0.235343
N32	N	-0.187200	1.501205	-0.235371
C33	C	-0.101681	1.586700	0.287387
C34	C	-0.101680	1.586708	0.391490
C35	C	-0.187179	1.501164	0.443548
C36	C	-0.272676	1.415598	0.391497
C37	C	-0.272670	1.415585	0.287396
C38	C	-0.272685	1.415633	0.608477
C39	C	-0.272693	1.415648	0.712586
C40	C	-0.101695	1.586757	0.712572
C41	C	-0.101688	1.586744	0.608471
C42	C	-0.187188	1.501179	0.556427
H43	H	-0.162307	0.893290	-0.164687
Cl44	Cl	-0.193994	0.872508	0.202623
H45	H	-0.342303	1.345953	0.566106
Cl46	Cl	-0.529404	1.723654	0.103545
H47	H	-0.378588	0.868194	0.067146
H48	H	-0.032075	1.656406	0.566085
Cl49	Cl	-0.380157	1.308049	0.456939
Cl50	Cl	-0.813823	1.496915	-0.203519
H51	H	-0.342285	1.345914	0.245023
H52	H	-0.384784	1.086010	0.067557
H53	H	-0.821146	1.310041	-0.066982
Cl54	Cl	0.005786	1.694324	0.778002
Cl55	Cl	-0.189270	1.131403	0.204063
H56	H	-0.032064	1.656374	0.433864
H57	H	-0.018866	1.130447	-0.098368
Cl58	Cl	-0.197361	1.126020	-0.203545
Cl59	Cl	-0.380180	1.308098	0.778022
Cl60	Cl	-0.787189	1.731138	-0.101121
H61	H	-0.014101	0.911652	0.100941
H62	H	-0.383973	1.087718	-0.067514
Cl63	Cl	-0.585698	1.274057	0.104486
Cl64	Cl	-0.407460	0.846441	-0.105336
H65	H	-0.016388	1.130072	0.094645
Cl66	Cl	0.044516	0.901459	-0.099274
Cl67	Cl	-0.785634	1.734599	0.094530
Cl68	Cl	-0.842394	1.280402	0.104925
H69	H	-0.032063	1.656365	0.245009
Cl70	Cl	-0.531757	1.725594	-0.099898
Cl71	Cl	-0.587196	1.273607	-0.104735
H72	H	-0.574100	1.519386	-0.164751
Cl73	Cl	-0.816956	1.506941	0.204065
Cl74	Cl	-0.560916	1.488351	0.202643
