data_functionalizedCrystal
_audit_creation_method	'MofGen! by Chris Wilmer'
_symmetry_space_group_name_H-M	'P1'
_symmetry_Int_Tables_number	1
_symmetry_cell_setting	triclinic
loop_
_symmetry_equiv_pos_as_xyz
  x,y,z
_cell_length_a	16.625547
_cell_length_b	25.639240
_cell_length_c	16.625539
_cell_angle_alpha	89.963426
_cell_angle_beta	89.978691
_cell_angle_gamma	90.032694
loop_
_atom_site_label
_atom_site_type_symbol
_atom_site_fract_x
_atom_site_fract_y
_atom_site_fract_z
Zn1	Zn	1.232595	-0.208160	-0.455944
Zn2	Zn	1.732595	0.291840	0.044056
Zn3	Zn	1.232482	-0.295595	-0.321087
Zn4	Zn	1.732482	0.204405	0.178913
Zn5	Zn	1.097765	-0.208176	-0.321115
Zn6	Zn	1.597765	0.291824	0.178885
Zn7	Zn	1.097703	-0.295566	-0.455867
Zn8	Zn	1.597703	0.204434	0.044133
O9	O	1.165136	-0.251874	-0.388503
O10	O	1.665136	0.248126	0.111497
O11	O	1.345412	-0.219764	-0.438076
O12	O	1.845412	0.280236	0.061924
O13	O	1.214590	-0.284017	-0.208259
O14	O	1.714590	0.215983	0.291741
O15	O	1.115724	-0.135008	-0.339043
O16	O	1.615724	0.364992	0.160957
O17	O	1.345329	-0.284003	-0.338997
O18	O	1.845329	0.215997	0.161003
O19	O	1.214783	-0.134997	-0.438102
O20	O	1.714783	0.365003	0.061898
O21	O	1.115614	-0.219791	-0.208279
O22	O	1.615614	0.280209	0.291721
O23	O	0.984924	-0.219763	-0.338969
O24	O	1.484924	0.280237	0.161031
O25	O	1.115618	-0.283953	-0.568710
O26	O	1.615618	0.216047	-0.068710
O27	O	0.984879	-0.283968	-0.437971
O28	O	1.484879	0.216032	0.062029
O29	O	1.214722	-0.219736	-0.568766
O30	O	1.714722	0.280264	-0.068766
O31	O	1.214530	-0.368757	-0.338923
O32	O	1.714530	0.131243	0.161077
O33	O	1.115508	-0.368736	-0.437945
O34	O	1.615508	0.131264	0.062055
C35	C	0.955645	-0.251864	-0.388465
C36	C	1.455645	0.248136	0.111535
C37	C	0.866024	-0.251873	-0.388468
C38	C	1.366024	0.248127	0.111532
C39	C	0.793242	-0.251874	-0.388478
C40	C	1.293242	0.248126	0.111522
C41	C	0.701933	-0.251876	-0.388498
C42	C	1.201933	0.248124	0.111502
C43	C	0.629157	-0.251881	-0.388519
C44	C	1.129157	0.248119	0.111481
C45	C	0.537843	-0.251885	-0.388538
C46	C	1.037843	0.248115	0.111462
C47	C	1.165022	-0.387717	-0.388440
C48	C	1.665022	0.112283	0.111560
C49	C	1.165047	-0.445831	-0.388440
C50	C	1.665047	0.054169	0.111560
C51	C	1.216742	-0.806150	-0.440176
C52	C	1.716742	-0.306150	0.059824
C53	C	1.216766	-0.860754	-0.440193
C54	C	1.716766	-0.360754	0.059807
O55	O	1.260583	-0.888953	-0.484116
O56	O	1.760583	-0.388953	0.015884
N57	N	1.165248	-0.888113	-0.388581
N58	N	1.665248	-0.388113	0.111419
C59	C	1.113698	-0.860866	-0.336956
C60	C	1.613698	-0.360866	0.163044
O61	O	1.069880	-0.889151	-0.293059
O62	O	1.569880	-0.389151	0.206941
C63	C	1.113670	-0.806262	-0.336944
C64	C	1.613670	-0.306262	0.163056
C65	C	1.165197	-0.778906	-0.388553
C66	C	1.665197	-0.278906	0.111447
C67	C	1.268264	-0.778793	-0.491782
C68	C	1.768264	-0.278793	0.008218
C69	C	1.268241	-0.724193	-0.491764
C70	C	1.768241	-0.224193	0.008236
C71	C	1.216696	-0.696949	-0.440141
C72	C	1.716696	-0.196949	0.059859
C73	C	1.165174	-0.724305	-0.388536
C74	C	1.665174	-0.224305	0.111464
C75	C	1.062116	-0.779016	-0.285324
C76	C	1.562116	-0.279016	0.214676
C77	C	1.062093	-0.724409	-0.285317
C78	C	1.562093	-0.224409	0.214683
C79	C	1.113620	-0.697052	-0.336926
C80	C	1.613620	-0.197052	0.163074
C81	C	1.113606	-0.642461	-0.336895
C82	C	1.613606	-0.142461	0.163105
N83	N	1.165124	-0.615102	-0.388506
N84	N	1.665124	-0.115102	0.111494
C85	C	1.216669	-0.642345	-0.440129
C86	C	1.716669	-0.142345	0.059871
C87	C	1.113758	-0.975536	-0.336986
C88	C	1.613758	-0.475536	0.163014
C89	C	1.113789	-1.030139	-0.336993
C90	C	1.613789	-0.530139	0.163007
C91	C	1.216856	-1.030023	-0.440230
C92	C	1.716856	-0.530023	0.059770
C93	C	1.216828	-0.975420	-0.440219
C94	C	1.716828	-0.475420	0.059781
C95	C	1.165275	-0.948177	-0.388597
C96	C	1.665275	-0.448177	0.111403
C97	C	1.216617	-0.527680	-0.440088
C98	C	1.716617	-0.027680	0.059912
C99	C	1.216592	-0.473075	-0.440063
C100	C	1.716592	0.026925	0.059937
C101	C	1.113522	-0.473195	-0.336829
C102	C	1.613522	0.026805	0.163171
C103	C	1.113550	-0.527796	-0.336850
C104	C	1.613550	-0.027796	0.163150
C105	C	1.165100	-0.555037	-0.388486
C106	C	1.665100	-0.055037	0.111514
O107	O	1.069809	-0.614227	-0.292997
O108	O	1.569809	-0.114227	0.207003
O109	O	1.260472	-0.614053	-0.484027
O110	O	1.760472	-0.114053	0.015973
C111	C	1.375445	-0.251885	-0.388542
C112	C	1.875445	0.248115	0.111458
C113	C	1.465066	-0.251890	-0.388559
C114	C	1.965066	0.248110	0.111441
C115	C	1.165176	-0.251840	-0.598812
C116	C	1.665176	0.248160	-0.098812
C117	C	1.165193	-0.251825	-0.688434
C118	C	1.665193	0.248175	-0.188434
C119	C	1.165273	-0.115501	-0.388584
C120	C	1.665273	0.384499	0.111416
C121	C	1.165331	-0.057387	-0.388619
C122	C	1.665331	0.442613	0.111381
C123	C	1.165206	-0.251814	-0.761216
C124	C	1.665206	0.248186	-0.261216
C125	C	1.165225	-0.251794	-0.852525
C126	C	1.665225	0.248206	-0.352525
C127	C	1.165244	-0.251776	-0.925301
C128	C	1.665244	0.248224	-0.425301
C129	C	1.165264	-0.251757	-1.016615
C130	C	1.665264	0.248243	-0.516615
C131	C	1.165143	-0.251871	-0.179013
C132	C	1.665143	0.248129	0.320987
C133	C	1.165283	-0.251739	-0.089392
C134	C	1.665283	0.248261	0.410608
H135	H	1.258554	-0.450803	-0.482089
H136	H	1.758554	0.049197	0.017911
H137	H	1.258589	-0.549854	-0.482140
H138	H	1.758589	-0.049854	0.017860
N139	N	1.060887	-0.445352	-0.284095
N140	N	1.560887	0.054648	0.215905
N141	N	1.060881	-0.396600	-0.284093
N142	N	1.560881	0.103400	0.215907
H143	H	1.023706	-0.376934	-0.246851
H144	H	1.523706	0.123066	0.253149
N145	N	1.269502	-1.057850	-0.492981
N146	N	1.769502	-0.557850	0.007019
N147	N	1.315498	-1.033423	-0.539065
N148	N	1.815498	-0.533423	-0.039065
H149	H	1.352677	-1.053076	-0.576319
H150	H	1.852677	-0.553076	-0.076319
H151	H	1.310196	-0.701922	-0.533791
H152	H	1.810196	-0.201922	-0.033791
H153	H	1.310237	-0.800969	-0.533824
H154	H	1.810237	-0.300969	-0.033824
H155	H	1.258785	-0.953149	-0.482244
H156	H	1.758785	-0.453149	0.017756
H157	H	1.071839	-1.052408	-0.294959
H158	H	1.571839	-0.552408	0.205041
N159	N	1.061091	-0.947719	-0.284243
N160	N	1.561091	-0.447719	0.215757
N161	N	1.015101	-0.972158	-0.238170
N162	N	1.515101	-0.472158	0.261830
H163	H	0.977903	-0.952515	-0.200921
H164	H	1.477903	-0.452515	0.299079
N165	N	1.009467	-0.806943	-0.232610
N166	N	1.509467	-0.306943	0.267390
N167	N	0.963442	-0.782601	-0.186539
N168	N	1.463442	-0.282601	0.313461
H169	H	0.926250	-0.802323	-0.149311
H170	H	1.426250	-0.302323	0.350689
N171	N	1.009421	-0.696590	-0.232584
N172	N	1.509421	-0.196590	0.267416
N173	N	0.963422	-0.721026	-0.186515
N174	N	1.463422	-0.221026	0.313485
H175	H	0.926223	-0.701381	-0.149272
H176	H	1.426223	-0.201381	0.350728
N177	N	1.060945	-0.555760	-0.284128
N178	N	1.560945	-0.055760	0.215872
N179	N	1.089373	-0.586245	-0.232799
N180	N	1.589373	-0.086245	0.267201
H181	H	1.052220	-0.605996	-0.195568
H182	H	1.552220	-0.105996	0.304432
