data_functionalizedCrystal
_audit_creation_method	'MofGen! by Chris Wilmer'
_symmetry_space_group_name_H-M	'P1'
_symmetry_Int_Tables_number	1
_symmetry_cell_setting	triclinic
loop_
_symmetry_equiv_pos_as_xyz
  x,y,z
_cell_length_a	13.897449
_cell_length_b	13.897448
_cell_length_c	13.897441
_cell_angle_alpha	89.969401
_cell_angle_beta	90.014047
_cell_angle_gamma	89.977982
loop_
_atom_site_label
_atom_site_type_symbol
_atom_site_fract_x
_atom_site_fract_y
_atom_site_fract_z
Zn1	Zn	1.474703	0.383873	0.545209
Zn2	Zn	1.474597	0.545195	0.383911
Zn3	Zn	1.313392	0.383927	0.383946
Zn4	Zn	1.313373	0.545140	0.545182
O5	O	1.394016	0.464534	0.464562
O6	O	1.609670	0.405273	0.523809
O7	O	1.453176	0.523848	0.248934
O8	O	1.334842	0.248938	0.405365
O9	O	1.609592	0.523795	0.405304
O10	O	1.453356	0.248898	0.523844
O11	O	1.334739	0.405366	0.248960
O12	O	1.178408	0.405312	0.405338
O13	O	1.334811	0.523702	0.680167
O14	O	1.178394	0.523754	0.523797
O15	O	1.453339	0.405220	0.680187
O16	O	1.453158	0.680169	0.405277
O17	O	1.334708	0.680129	0.523763
C18	C	1.143402	0.464534	0.464569
C19	C	1.036188	0.464558	0.464595
C20	C	1.393946	0.715148	0.464534
C21	C	1.394004	0.822362	0.464554
C22	C	1.394085	0.464448	0.716155
C23	C	1.394114	0.464412	0.823369
C24	C	1.645609	0.464534	0.464555
C25	C	1.752823	0.464534	0.464552
C26	C	1.839893	0.464544	0.464559
C27	C	1.949125	0.464554	0.464576
C28	C	1.394113	0.212941	0.464611
C29	C	1.394154	0.105727	0.464632
C30	C	1.394105	1.018657	0.464615
C31	C	1.394046	0.909424	0.464584
C32	C	1.394003	0.464549	0.213948
C33	C	1.394161	0.464314	0.106734
C34	C	1.394140	0.464347	1.019664
C35	C	1.394122	0.464386	0.910432
