data_functionalizedCrystal
_audit_creation_method	'MofGen! by Chris Wilmer'
_symmetry_space_group_name_H-M	'P1'
_symmetry_Int_Tables_number	1
_symmetry_cell_setting	triclinic
loop_
_symmetry_equiv_pos_as_xyz
  x,y,z
_cell_length_a	16.120530
_cell_length_b	18.050590
_cell_length_c	18.050571
_cell_angle_alpha	89.911758
_cell_angle_beta	87.036394
_cell_angle_gamma	87.114013
loop_
_atom_site_label
_atom_site_type_symbol
_atom_site_fract_x
_atom_site_fract_y
_atom_site_fract_z
Zn1	Zn	1.274992	-0.352840	-0.477429
Zn2	Zn	1.774992	0.147160	0.022571
Zn3	Zn	1.274797	-0.477155	-0.353228
Zn4	Zn	1.774797	0.022845	0.146772
Zn5	Zn	1.135462	-0.346688	-0.346958
Zn6	Zn	1.635462	0.153312	0.153042
Zn7	Zn	1.135546	-0.470692	-0.471095
Zn8	Zn	1.635546	0.029308	0.028905
O9	O	1.205199	-0.411844	-0.412178
O10	O	1.705199	0.088156	0.087822
O11	O	1.391637	-0.374610	-0.466229
O12	O	1.891637	0.125390	0.033771
O13	O	1.256197	-0.459979	-0.248466
O14	O	1.756197	0.040021	0.251534
O15	O	1.154018	-0.243582	-0.364292
O16	O	1.654018	0.256418	0.135708
O17	O	1.391494	-0.465944	-0.374979
O18	O	1.891494	0.034056	0.125021
O19	O	1.256530	-0.248102	-0.460149
O20	O	1.756530	0.251898	0.039851
O21	O	1.153828	-0.364125	-0.243860
O22	O	1.653828	0.135875	0.256140
O23	O	1.018802	-0.357858	-0.358150
O24	O	1.518802	0.142142	0.141850
O25	O	1.154161	-0.454929	-0.575865
O26	O	1.654161	0.045071	-0.075865
O27	O	1.018864	-0.448963	-0.449353
O28	O	1.518864	0.051037	0.050647
O29	O	1.256611	-0.368343	-0.580519
O30	O	1.756611	0.131657	-0.080519
O31	O	1.256278	-0.580221	-0.368837
O32	O	1.756278	-0.080221	0.131163
O33	O	1.153971	-0.575472	-0.455433
O34	O	1.653971	-0.075472	0.044567
C35	C	0.988582	-0.402042	-0.402384
C36	C	1.488582	0.097958	0.097616
C37	C	0.895912	-0.397867	-0.398212
C38	C	1.395912	0.102133	0.101788
C39	C	0.726243	-0.390226	-0.390602
C40	C	1.226243	0.109774	0.109398
C41	C	0.684996	-0.433516	-0.433808
C42	C	1.184996	0.066484	0.066192
C43	C	0.590587	-0.429265	-0.429573
C44	C	1.090587	0.070735	0.070427
C45	C	0.820661	-0.394476	-0.394835
C46	C	1.320661	0.105524	0.105165
C47	C	1.205135	-0.604793	-0.412145
C48	C	1.705135	-0.104793	0.087855
C49	C	1.205184	-0.687341	-0.412160
C50	C	1.705184	-0.187341	0.087840
C51	C	1.260934	-0.889352	-0.365143
C52	C	1.760934	-0.389352	0.134857
C53	C	1.281359	-0.939537	-0.433845
C54	C	1.781359	-0.439537	0.066155
C55	C	1.205231	-0.838474	-0.412191
C56	C	1.705231	-0.338474	0.087809
C57	C	1.184892	-0.935374	-0.343524
C58	C	1.684892	-0.435374	0.156476
C59	C	1.205279	-0.984461	-0.412216
C60	C	1.705279	-0.484461	0.087784
C61	C	1.225695	-0.887573	-0.480930
C62	C	1.725695	-0.387573	0.019070
C63	C	1.129192	-0.883404	-0.390562
C64	C	1.629192	-0.383404	0.109438
C65	C	1.149588	-0.933565	-0.459309
C66	C	1.649588	-0.433565	0.040691
C67	C	1.205206	-0.754374	-0.412176
C68	C	1.705206	-0.254374	0.087824
C69	C	1.205304	-1.068558	-0.412239
C70	C	1.705304	-0.568558	0.087761
C71	C	1.422663	-0.421685	-0.422010
C72	C	1.922663	0.078315	0.077990
C73	C	1.515333	-0.425878	-0.426199
C74	C	2.015333	0.074122	0.073801
C75	C	1.205417	-0.411601	-0.605894
C76	C	1.705417	0.088399	-0.105894
C77	C	1.205510	-0.411498	-0.688444
C78	C	1.705510	0.088502	-0.188444
C79	C	1.205286	-0.218142	-0.412228
C80	C	1.705286	0.281858	0.087772
C81	C	1.205324	-0.135598	-0.412249
C82	C	1.705324	0.364402	0.087751
C83	C	1.205030	-0.412034	-0.219217
C84	C	1.705030	0.087966	0.280783
C85	C	1.205099	-0.411936	-0.136675
C86	C	1.705099	0.088064	0.363325
C87	C	1.149201	-0.359951	0.065253
C88	C	1.649201	0.140049	0.565253
C89	C	1.225169	-0.344680	0.111037
C90	C	1.725169	0.155320	0.611037
C91	C	1.205239	-0.411788	0.014449
C92	C	1.705239	0.088212	0.514449
C93	C	1.129410	-0.426880	0.115739
C94	C	1.629410	0.073120	0.615739
C95	C	1.205368	-0.411643	0.160428
C96	C	1.705368	0.088357	0.660428
C97	C	1.281246	-0.396484	0.059144
C98	C	1.781246	0.103516	0.559144
C99	C	1.185436	-0.478714	0.063844
C100	C	1.685436	0.021286	0.563844
C101	C	1.261456	-0.463471	0.109604
C102	C	1.761456	0.036529	0.609604
C103	C	1.205164	-0.411869	-0.069646
C104	C	1.705164	0.088131	0.430354
C105	C	1.205452	-0.411563	0.244520
C106	C	1.705452	0.088437	0.744520
H107	H	1.308057	-0.869857	-0.325400
H108	H	1.808057	-0.369857	0.174600
N109	N	0.681614	-0.339724	-0.340209
N110	N	1.181614	0.160276	0.159791
N111	N	0.691282	-0.271623	-0.345675
N112	N	1.191282	0.228377	0.154325
H113	H	0.659756	-0.235956	-0.310084
H114	H	1.159756	0.264044	0.189916
N115	N	1.321051	-0.518378	0.133968
N116	N	1.821051	-0.018378	0.633968
N117	N	1.379545	-0.499693	0.171567
N118	N	1.879545	0.000307	0.671567
H119	H	1.421637	-0.538467	0.188776
H120	H	1.921637	-0.038467	0.688776
N121	N	1.163283	-0.961736	-0.270657
N122	N	1.663283	-0.461736	0.229343
N123	N	1.148441	-0.916726	-0.218521
N124	N	1.648441	-0.416726	0.281479
H125	H	1.133185	-0.935341	-0.167057
H126	H	1.633185	-0.435341	0.332943
N127	N	1.089768	-0.305001	0.040695
N128	N	1.589768	0.194999	0.540695
N129	N	1.079764	-0.296619	-0.027069
N130	N	1.579764	0.203381	0.472931
H131	H	1.037793	-0.257809	-0.044416
H132	H	1.537793	0.242191	0.455584
H133	H	1.345446	-0.383592	0.034493
H134	H	1.845446	0.116408	0.534493
H135	H	1.242854	-0.866636	-0.539058
H136	H	1.742854	-0.366636	-0.039058
N137	N	1.164312	-0.549773	0.037780
N138	N	1.664312	-0.049773	0.537780
N139	N	1.095508	-0.574743	0.056870
N140	N	1.595508	-0.074743	0.556870
H141	H	1.080581	-0.624929	0.038463
H142	H	1.580581	-0.124929	0.538463
N143	N	1.362048	-0.970362	-0.456782
N144	N	1.862048	-0.470362	0.043218
N145	N	1.423447	-0.957381	-0.420184
N146	N	1.923447	-0.457381	0.079816
H147	H	1.480433	-0.979163	-0.436369
H148	H	1.980433	-0.479163	0.063631
N149	N	1.048893	-0.442960	0.146780
N150	N	1.548893	0.057040	0.646780
N151	N	0.987172	-0.401168	0.133751
N152	N	1.487172	0.098832	0.633751
H153	H	0.930306	-0.412517	0.155673
H154	H	1.430306	0.087483	0.655673
H155	H	0.720588	-0.473770	-0.473979
H156	H	1.220588	0.026230	0.026021
H157	H	1.064886	-0.858844	-0.372234
H158	H	1.564886	-0.358844	0.127766
N159	N	1.090521	-0.957847	-0.509300
N160	N	1.590521	-0.457847	-0.009300
N161	N	1.098163	-0.942089	-0.576683
N162	N	1.598163	-0.442089	-0.076683
H163	H	1.056450	-0.959239	-0.611991
H164	H	1.556450	-0.459239	-0.111991
H165	H	1.241981	-0.288020	0.131802
H166	H	1.741981	0.211980	0.631802
