data_functionalizedCrystal
_audit_creation_method	'MofGen! by Chris Wilmer'
_symmetry_space_group_name_H-M	'P1'
_symmetry_Int_Tables_number	1
_symmetry_cell_setting	triclinic
loop_
_symmetry_equiv_pos_as_xyz
  x,y,z
_cell_length_a	12.827892
_cell_length_b	12.827893
_cell_length_c	19.076919
_cell_angle_alpha	92.281103
_cell_angle_beta	87.724465
_cell_angle_gamma	89.986399
loop_
_atom_site_label
_atom_site_type_symbol
_atom_site_fract_x
_atom_site_fract_y
_atom_site_fract_z
Zn1	Zn	-0.439844	-1.573889	0.397970
Zn2	Zn	-0.607580	-1.580815	0.280283
Zn3	Zn	-0.432848	-1.406162	0.280288
Zn4	Zn	-0.614537	-1.399117	0.397939
O5	O	-0.523702	-1.489996	0.339120
O6	O	-0.462111	-1.721043	0.382369
O7	O	-0.578562	-1.563494	0.181795
O8	O	-0.287541	-1.428461	0.295914
O9	O	-0.585346	-1.726132	0.295905
O10	O	-0.292681	-1.551689	0.382374
O11	O	-0.450188	-1.435178	0.181798
O12	O	-0.456933	-1.258992	0.295884
O13	O	-0.597202	-1.416454	0.496432
O14	O	-0.590419	-1.253817	0.382322
O15	O	-0.468857	-1.544858	0.496455
O16	O	-0.754738	-1.556663	0.295876
O17	O	-0.759849	-1.423170	0.382317
C18	C	-0.523673	-1.218487	0.339101
C19	C	-0.523686	-1.102334	0.339109
C20	C	-0.462820	-1.048027	0.381959
C21	C	-0.462833	-0.927976	0.381969
C22	C	-0.795211	-1.489931	0.339108
C23	C	-0.911366	-1.489998	0.339126
C24	C	-0.960590	-1.556127	0.296400
C25	C	-1.080641	-1.556197	0.296417
C26	C	-0.251134	-1.490088	0.339148
C27	C	-0.134981	-1.490128	0.339160
C28	C	-0.534586	-1.479098	0.522695
C29	C	-0.539224	-1.474453	0.600923
C30	C	-0.523724	-0.762565	0.339134
C31	C	-0.523710	-0.878719	0.339126
C32	C	-0.512786	-1.500912	0.156259
C33	C	-0.507853	-1.505759	0.078031
C34	C	-0.474583	-1.539121	0.637688
C35	C	-0.478937	-1.534745	0.711192
C36	C	-0.547937	-1.465705	0.747930
C37	C	-0.612581	-1.401030	0.711160
C38	C	-0.608221	-1.405402	0.637657
C39	C	-0.568137	-1.445456	0.967759
C40	C	-0.572494	-1.441091	1.041266
C41	C	-0.438848	-1.574805	1.041293
C42	C	-0.434499	-1.579175	0.967789
C43	C	-0.499138	-1.514496	0.931026
N44	N	-0.552392	-1.461232	0.823063
N45	N	-0.494678	-1.518965	0.855894
H46	H	-0.410698	-1.090410	0.418635
Cl47	Cl	-0.357589	-1.656106	1.087515
H48	H	-1.122982	-1.612810	0.259836
Cl49	Cl	-0.382382	-0.855891	0.438616
Cl50	Cl	-0.659239	-1.354286	1.087450
Cl51	Cl	-0.397716	-1.616092	0.757408
H52	H	-0.620786	-1.392805	0.937834
Cl53	Cl	-0.347752	-1.665972	0.921610
Cl54	Cl	-0.699321	-1.314233	0.757345
Cl55	Cl	-0.604176	-0.950797	0.282485
H56	H	-0.660848	-1.352732	0.607724
Cl57	Cl	-0.604152	-1.036907	0.282473
H58	H	-0.913857	-1.612695	0.259809
Cl59	Cl	-0.387840	-1.625924	0.591511
Cl60	Cl	-1.069623	-1.402704	0.395637
Cl61	Cl	-0.983513	-1.402669	0.395629
