data_functionalizedCrystal
_audit_creation_method	'MofGen! by Chris Wilmer'
_symmetry_space_group_name_H-M	'P1'
_symmetry_Int_Tables_number	1
_symmetry_cell_setting	triclinic
loop_
_symmetry_equiv_pos_as_xyz
  x,y,z
_cell_length_a	10.968094
_cell_length_b	10.967829
_cell_length_c	18.366186
_cell_angle_alpha	77.865925
_cell_angle_beta	102.118419
_cell_angle_gamma	87.247546
loop_
_atom_site_label
_atom_site_type_symbol
_atom_site_fract_x
_atom_site_fract_y
_atom_site_fract_z
O1	O	1.657106	0.174982	0.125399
O2	O	1.293975	0.191747	0.077736
O3	O	1.483911	0.001785	0.125404
O4	O	1.467170	0.364944	0.077731
O5	O	1.483878	0.001775	0.246501
O6	O	1.293942	0.191737	0.198832
O7	O	1.657073	0.174973	0.246496
Zn8	Zn	1.475502	0.183353	0.241891
Zn9	Zn	1.475545	0.183366	0.082341
O10	O	1.467137	0.364935	0.198827
C11	C	1.247462	0.190524	0.132603
C12	C	1.108915	0.186881	0.115677
C13	C	1.482674	-0.044721	0.191633
C14	C	1.479022	-0.183277	0.208558
C15	C	0.903929	0.181472	0.153367
C16	C	1.047122	0.185247	0.170866
C17	C	1.477411	-0.245039	0.153371
C18	C	1.473637	-0.388245	0.170862
C19	C	1.703586	0.176195	0.191627
C20	C	1.842132	0.179839	0.208548
C21	C	1.468374	0.411440	0.132597
C22	C	1.472026	0.549997	0.115667
N23	N	1.475482	0.183344	0.350781
N24	N	1.475575	0.183366	-0.026546
C25	C	1.559614	0.099271	0.409987
C26	C	1.559622	0.099265	0.486216
C27	C	1.475510	0.183354	0.503235
C28	C	1.391362	0.267434	0.444017
C29	C	1.391348	0.267429	0.367790
C30	C	1.460138	0.296870	0.607822
C31	C	1.460160	0.296877	0.684049
C32	C	1.475545	0.183371	0.738345
C33	C	1.490935	0.069852	0.716410
C34	C	1.490921	0.069847	0.640182
C35	C	1.475515	0.183369	0.585889
C36	C	1.559690	0.099284	0.880210
C37	C	1.559690	0.099277	0.956440
C38	C	1.391436	0.267457	0.914239
C39	C	1.391431	0.267453	0.838011
C40	C	1.475565	0.183368	0.821002
H41	H	0.850825	0.180069	0.093170
H42	H	1.503462	-0.022576	0.760618
C43	C	1.443220	0.421748	0.708169
N44	N	1.430452	0.515804	0.726334
H45	H	1.478820	-0.191896	0.093174
H46	H	1.472214	-0.441382	0.231062
C47	C	1.298833	0.359927	0.462740
N48	N	1.229133	0.429591	0.476841
C49	C	1.652152	0.006762	0.391282
N50	N	1.721848	-0.062920	0.377192
H51	H	1.473426	-0.396865	0.055464
C52	C	1.477107	-0.255064	0.289882
N53	N	1.475666	-0.309133	0.351138
C54	C	1.118851	0.187153	0.252194
N55	N	1.172878	0.188599	0.313448
H56	H	1.628134	0.030800	0.534431
C57	C	1.507832	-0.055020	0.616053
N58	N	1.520562	-0.149073	0.597879
H59	H	1.628194	0.030813	0.866361
C60	C	0.913866	0.181745	0.289872
N61	N	0.967892	0.183191	0.351125
H62	H	1.628196	0.030808	1.004649
H63	H	1.322946	0.335919	0.928095
H64	H	1.447587	0.389306	0.563615
C65	C	1.298847	0.359975	0.302659
N66	N	1.229195	0.429703	0.253601
H67	H	1.055817	0.185486	0.055475
C68	C	1.298969	0.360033	0.772880
N69	N	1.229350	0.429796	0.723823
