data_functionalizedCrystal
_audit_creation_method	'MofGen! by Chris Wilmer'
_symmetry_space_group_name_H-M	'P1'
_symmetry_Int_Tables_number	1
_symmetry_cell_setting	triclinic
loop_
_symmetry_equiv_pos_as_xyz
  x,y,z
_cell_length_a	13.033293
_cell_length_b	18.101395
_cell_length_c	13.032268
_cell_angle_alpha	97.146252
_cell_angle_beta	89.079182
_cell_angle_gamma	97.200663
loop_
_atom_site_label
_atom_site_type_symbol
_atom_site_fract_x
_atom_site_fract_y
_atom_site_fract_z
Zn1	Zn	1.498387	-0.230407	-0.781470
Zn2	Zn	1.831721	0.102926	-0.448137
Zn3	Zn	2.165054	0.436259	-0.114803
Zn4	Zn	1.520095	-0.336834	-0.609491
Zn5	Zn	1.853429	-0.003501	-0.276158
Zn6	Zn	2.186762	0.329832	0.057175
Zn7	Zn	1.348249	-0.226497	-0.587646
Zn8	Zn	1.681582	0.106837	-0.254313
Zn9	Zn	2.014915	0.440170	0.079021
Zn10	Zn	1.326336	-0.367707	-0.759530
Zn11	Zn	1.659669	-0.034374	-0.426196
Zn12	Zn	1.993003	0.298960	-0.092863
O13	O	1.423267	-0.290361	-0.684534
O14	O	1.756600	0.042972	-0.351201
O15	O	2.089934	0.376305	-0.017868
O16	O	1.645189	-0.233242	-0.776981
O17	O	1.978523	0.100092	-0.443648
O18	O	2.311856	0.433425	-0.110315
O19	O	1.515555	-0.307641	-0.462686
O20	O	1.848888	0.025693	-0.129353
O21	O	2.182222	0.359026	0.203981
O22	O	1.368250	-0.123378	-0.613397
O23	O	1.701584	0.209955	-0.280064
O24	O	2.034917	0.543288	0.053270
O25	O	1.661138	-0.311433	-0.650629
O26	O	1.994472	0.021900	-0.317296
O27	O	2.327805	0.355234	0.016037
O28	O	1.478557	-0.126252	-0.755799
O29	O	1.811890	0.207082	-0.422465
O30	O	2.145223	0.540415	-0.089132
O31	O	1.389300	-0.226576	-0.446636
O32	O	1.722633	0.106757	-0.113303
O33	O	2.055967	0.440091	0.220031
O34	O	1.201420	-0.256512	-0.592122
O35	O	1.534753	0.076821	-0.258789
O36	O	1.868086	0.410155	0.074544
O37	O	1.330904	-0.364051	-0.906348
O38	O	1.664237	-0.030718	-0.573015
O39	O	1.997570	0.302616	-0.239681
O40	O	1.185321	-0.360259	-0.718405
O41	O	1.518654	-0.026925	-0.385071
O42	O	1.851987	0.306408	-0.051738
O43	O	1.457309	-0.263177	-0.922467
O44	O	1.790642	0.070156	-0.589134
O45	O	2.123975	0.403489	-0.255801
O46	O	1.494307	-0.444567	-0.629355
O47	O	1.827641	-0.111233	-0.296021
O48	O	2.160974	0.222100	0.037312
O49	O	1.351953	-0.467249	-0.739587
O50	O	1.685287	-0.133915	-0.406254
O51	O	2.018620	0.199418	-0.072921
C52	C	1.156053	-0.311312	-0.650513
C53	C	1.489386	0.022022	-0.317179
C54	C	1.822719	0.355355	0.016154
C55	C	1.041734	-0.320295	-0.635982
C56	C	1.375067	0.013039	-0.302649
C57	C	1.708401	0.346372	0.030684
C58	C	0.982863	-0.285692	-0.692118
C59	C	1.316197	0.047642	-0.358784
C60	C	1.649530	0.380975	-0.025451
C61	C	0.864709	-0.294975	-0.677101
C62	C	1.198042	0.038358	-0.343768
C63	C	1.531376	0.371692	-0.010435
C64	C	1.423133	-0.482780	-0.684487
C65	C	1.756466	-0.149446	-0.351153
C66	C	2.089800	0.183887	-0.017820
C67	C	1.423166	-0.565093	-0.684513
C68	C	1.756499	-0.231760	-0.351179
C69	C	2.089832	0.101574	-0.017846
C70	C	1.423384	-0.864172	-0.684597
C71	C	1.756718	-0.530839	-0.351263
C72	C	2.090051	-0.197505	-0.017930
C73	C	1.333978	-0.847154	-0.754173
C74	C	1.667311	-0.513821	-0.420839
C75	C	2.000645	-0.180487	-0.087506
C76	C	1.333633	-0.761540	-0.753876
C77	C	1.666966	-0.428207	-0.420542
C78	C	2.000300	-0.094874	-0.087209
C79	C	1.423276	-0.715795	-0.684556
C80	C	1.756609	-0.382462	-0.351222
C81	C	2.089942	-0.049129	-0.017889
C82	C	1.407704	-0.738262	-0.572444
C83	C	1.741038	-0.404929	-0.239111
C84	C	2.074371	-0.071596	0.094222
C85	C	1.407133	-0.823996	-0.572856
C86	C	1.740466	-0.490662	-0.239523
C87	C	2.073799	-0.157329	0.093811
C88	C	1.528656	-0.826793	-0.726200
C89	C	1.861990	-0.493460	-0.392867
C90	C	2.195323	-0.160126	-0.059534
C91	C	1.527715	-0.741433	-0.728496
C92	C	1.861048	-0.408100	-0.395162
C93	C	2.194381	-0.074766	-0.061829
C94	C	1.423217	-0.631939	-0.684526
C95	C	1.756550	-0.298605	-0.351193
C96	C	2.089884	0.034728	-0.017860
C97	C	1.423441	-0.948028	-0.684619
C98	C	1.756775	-0.614695	-0.351285
C99	C	2.090108	-0.281361	-0.017952
C100	C	1.691525	-0.269330	-0.718689
C101	C	2.024858	0.064004	-0.385356
C102	C	2.358191	0.397337	-0.052023
C103	C	1.805840	-0.260367	-0.733244
C104	C	2.139173	0.072966	-0.399911
C105	C	2.472507	0.406299	-0.066578
C106	C	1.389240	-0.317494	-0.952765
C107	C	1.722574	0.015839	-0.619431
C108	C	2.055907	0.349172	-0.286098
C109	C	1.374740	-0.329057	-1.067068
C110	C	1.708074	0.004277	-0.733735
C111	C	2.041407	0.337610	-0.400402
C112	C	1.423426	-0.097192	-0.684608
C113	C	1.756760	0.236142	-0.351275
C114	C	2.090093	0.569475	-0.017942
C115	C	1.423494	-0.014874	-0.684640
C116	C	1.756828	0.318459	-0.351307
C117	C	2.090161	0.651792	-0.017973
C118	C	1.430819	-0.284301	-1.126004
C119	C	1.764152	0.049032	-0.792671
C120	C	2.097485	0.382365	-0.459337
C121	C	1.415833	-0.296251	-1.244143
C122	C	1.749167	0.037083	-0.910810
C123	C	2.082500	0.370416	-0.577477
C124	C	1.457220	-0.263276	-0.417355
C125	C	1.790554	0.070058	-0.084022
C126	C	2.123887	0.403391	0.249312
C127	C	1.471919	-0.251489	-0.303077
C128	C	1.805253	0.081844	0.030256
C129	C	2.138586	0.415178	0.363589
H130	H	0.842907	-0.223862	-0.792420
H131	H	1.176240	0.109471	-0.459087
H132	H	1.509573	0.442804	-0.125753
H133	H	0.827642	-0.331474	-0.617919
H134	H	1.160975	0.001860	-0.284585
H135	H	1.494308	0.335193	0.048748
H136	H	1.531023	-0.204319	-1.266078
H137	H	1.864356	0.129014	-0.932745
H138	H	2.197689	0.462348	-0.599411
H139	H	1.256131	-0.873189	-0.725817
H140	H	1.589464	-0.539856	-0.392484
H141	H	1.922797	-0.206522	-0.059151
H142	H	1.004662	-0.356790	-0.576804
H143	H	1.337996	-0.023457	-0.243471
H144	H	1.671329	0.309876	0.089863
N145	N	1.307497	-0.714916	-0.527464
N146	N	1.640830	-0.381583	-0.194131
N147	N	1.974163	-0.048250	0.139202
H148	H	1.322369	-0.678669	-0.462497
H149	H	1.655702	-0.345336	-0.129164
H150	H	1.989036	-0.012003	0.204169
H151	H	1.272104	-0.689820	-0.579590
H152	H	1.605438	-0.356486	-0.246257
H153	H	1.938771	-0.023153	0.087076
N154	N	1.344469	-0.883315	-0.864028
N155	N	1.677803	-0.549982	-0.530695
N156	N	2.011136	-0.216649	-0.197361
H157	H	1.286348	-0.871705	-0.907360
H158	H	1.619681	-0.538372	-0.574027
H159	H	1.953014	-0.205038	-0.240693
H160	H	1.413007	-0.863014	-0.893289
H161	H	1.746340	-0.529681	-0.559956
H162	H	2.079673	-0.196348	-0.226623
H163	H	1.596745	-0.709687	-0.682615
H164	H	1.930078	-0.376354	-0.349282
H165	H	2.263412	-0.043021	-0.015948
N166	N	1.344416	-0.742514	-0.863414
N167	N	1.677749	-0.409181	-0.530081
N168	N	2.011083	-0.075848	-0.196747
H169	H	1.349437	-0.789796	-0.912328
H170	H	1.682770	-0.456462	-0.578995
H171	H	2.016103	-0.123129	-0.245662
H172	H	1.282050	-0.718895	-0.881829
H173	H	1.615383	-0.385561	-0.548495
H174	H	1.948716	-0.052228	-0.215162
H175	H	1.356718	-0.343413	-1.281143
H176	H	1.690052	-0.010079	-0.947809
H177	H	2.023385	0.323254	-0.614476
H178	H	1.255325	-0.745581	-0.725226
H179	H	1.588658	-0.412247	-0.391893
H180	H	1.921991	-0.078914	-0.058560
H181	H	1.330589	-0.847895	-0.539220
H182	H	1.663922	-0.514562	-0.205887
H183	H	1.997256	-0.181228	0.127446
N184	N	1.551027	-0.862983	-0.833606
N185	N	1.884360	-0.529650	-0.500273
N186	N	2.217694	-0.196316	-0.166940
H187	H	1.493140	-0.903981	-0.856384
H188	H	1.826473	-0.570648	-0.523051
H189	H	2.159807	-0.237314	-0.189718
H190	H	1.556636	-0.823945	-0.883118
H191	H	1.889969	-0.490611	-0.549785
H192	H	2.223302	-0.157278	-0.216451
N193	N	1.490629	-0.837463	-0.500862
N194	N	1.823963	-0.504130	-0.167529
N195	N	2.157296	-0.170797	0.165805
H196	H	1.527641	-0.787732	-0.468995
H197	H	1.860974	-0.454399	-0.135662
H198	H	2.194308	-0.121065	0.197671
H199	H	1.458369	-0.866272	-0.444435
H200	H	1.791702	-0.532939	-0.111101
H201	H	2.125036	-0.199605	0.222232
N202	N	1.492047	-0.697284	-0.501095
N203	N	1.825380	-0.363951	-0.167761
N204	N	2.158714	-0.030617	0.165572
H205	H	1.541279	-0.663680	-0.540854
H206	H	1.874612	-0.330347	-0.207521
H207	H	2.207946	0.002986	0.125812
H208	H	1.460221	-0.665886	-0.442450
H209	H	1.793555	-0.332553	-0.109117
H210	H	2.126888	0.000781	0.224216
N211	N	1.296439	-0.391522	-1.116083
N212	N	1.629772	-0.058189	-0.782749
N213	N	1.963105	0.275145	-0.449416
H214	H	1.332589	-0.427041	-1.165966
H215	H	1.665923	-0.093708	-0.832632
H216	H	1.999256	0.239625	-0.499299
H217	H	1.261088	-0.419693	-1.060464
H218	H	1.594422	-0.086360	-0.727131
H219	H	1.927755	0.246974	-0.393798
H220	H	1.539707	-0.727420	-0.811071
H221	H	1.873040	-0.394086	-0.477738
H222	H	2.206374	-0.060753	-0.144405
H223	H	1.595098	-0.836526	-0.675694
H224	H	1.928431	-0.503193	-0.342360
H225	H	2.261765	-0.169859	-0.009027
N226	N	1.509136	-0.221841	-1.077004
N227	N	1.842469	0.111492	-0.743671
N228	N	2.175802	0.444826	-0.410338
H229	H	1.508751	-0.222166	-0.999557
H230	H	1.842085	0.111167	-0.666223
H231	H	2.175418	0.444500	-0.332890
H232	H	1.580209	-0.229513	-1.105088
H233	H	1.913543	0.103820	-0.771755
H234	H	2.246876	0.437154	-0.438421
H235	H	1.019936	-0.249191	-0.751290
H236	H	1.353269	0.084142	-0.417957
H237	H	1.686602	0.417476	-0.084624
