data_functionalizedCrystal
_audit_creation_method	'MofGen! by Chris Wilmer'
_symmetry_space_group_name_H-M	'P1'
_symmetry_Int_Tables_number	1
_symmetry_cell_setting	triclinic
loop_
_symmetry_equiv_pos_as_xyz
  x,y,z
_cell_length_a	12.759401
_cell_length_b	29.839131
_cell_length_c	12.759393
_cell_angle_alpha	89.963184
_cell_angle_beta	89.980324
_cell_angle_gamma	90.041847
loop_
_atom_site_label
_atom_site_type_symbol
_atom_site_fract_x
_atom_site_fract_y
_atom_site_fract_z
Zn1	Zn	1.606071	-0.178827	-0.593939
Zn2	Zn	1.605880	-0.253964	-0.418239
Zn3	Zn	1.430370	-0.178849	-0.418278
Zn4	Zn	1.430280	-0.253931	-0.593880
O5	O	1.518150	-0.216392	-0.506084
O6	O	1.753067	-0.188798	-0.570640
O7	O	1.582556	-0.244023	-0.271223
O8	O	1.453795	-0.115979	-0.441620
O9	O	1.752927	-0.244001	-0.441554
O10	O	1.582882	-0.115962	-0.570677
O11	O	1.453610	-0.188836	-0.271251
O12	O	1.283337	-0.188804	-0.441563
O13	O	1.453641	-0.243945	-0.740909
O14	O	1.283271	-0.243967	-0.570578
O15	O	1.582794	-0.188766	-0.740952
O16	O	1.582469	-0.316826	-0.441498
O17	O	1.453456	-0.316802	-0.570541
C18	C	1.245183	-0.216385	-0.506069
C19	C	1.128406	-0.216392	-0.506088
C20	C	1.073618	-0.187700	-0.573406
C21	C	0.963894	-0.187705	-0.573413
C22	C	0.963756	-0.245097	-0.438780
C23	C	1.073478	-0.245090	-0.438769
C24	C	1.517961	-0.333115	-0.506032
C25	C	1.517976	-0.383049	-0.506045
C26	C	1.585450	-0.692693	-0.438990
C27	C	1.585579	-0.880366	-0.439030
O28	O	1.642798	-0.904630	-0.381978
N29	N	1.518368	-0.903834	-0.506163
C30	C	1.451125	-0.880382	-0.573295
O31	O	1.393968	-0.904650	-0.630405
C32	C	1.451001	-0.692710	-0.573259
C33	C	1.518209	-0.669244	-0.506114
C34	C	1.652653	-0.669226	-0.371851
C35	C	1.652616	-0.622311	-0.371838
C36	C	1.585375	-0.598862	-0.438962
C37	C	1.518172	-0.622328	-0.506101
C38	C	1.383764	-0.669258	-0.640396
C39	C	1.383741	-0.622337	-0.640383
C40	C	1.450949	-0.598871	-0.573238
C41	C	1.450895	-0.551964	-0.573212
N42	N	1.518106	-0.528495	-0.506079
C43	C	1.585346	-0.551944	-0.438954
C44	C	1.451193	-0.978913	-0.573308
C45	C	1.451223	-1.025830	-0.573316
C46	C	1.585679	-1.025811	-0.439052
C47	C	1.585643	-0.978892	-0.439040
C48	C	1.518404	-0.955444	-0.506175
C49	C	1.585262	-0.453418	-0.438930
C50	C	1.585216	-0.406499	-0.438920
C51	C	1.450764	-0.406522	-0.573187
C52	C	1.450806	-0.453438	-0.573194
C53	C	1.518064	-0.476885	-0.506063
O54	O	1.393715	-0.527670	-0.630243
O55	O	1.642510	-0.527668	-0.381870
C56	C	1.585487	-0.739608	-0.439003
C57	C	1.518283	-0.763075	-0.506142
C58	C	1.451043	-0.739625	-0.573266
C59	C	1.518313	-0.809992	-0.506149
C60	C	1.585553	-0.833441	-0.439025
C61	C	1.652764	-0.809973	-0.371892
C62	C	1.652727	-0.763057	-0.371878
C63	C	1.383832	-0.763094	-0.640399
C64	C	1.383874	-0.810010	-0.640407
C65	C	1.451114	-0.833459	-0.573282
C66	C	1.792184	-0.216401	-0.506099
C67	C	1.908960	-0.216404	-0.506106
C68	C	1.518229	-0.216349	-0.780117
C69	C	1.518263	-0.216331	-0.896894
C70	C	1.518370	-0.099214	-0.506159
C71	C	1.518463	-0.049280	-0.506191
C72	C	1.585518	-0.187595	-0.951780
C73	C	1.585535	-0.187575	-1.061504
C74	C	1.451040	-0.245032	-1.061447
C75	C	1.451018	-0.245049	-0.951725
C76	C	1.518133	-0.216403	-0.233117
C77	C	1.518303	-0.216295	-0.116340
H78	H	0.919021	-0.268463	-0.383973
C79	C	1.309842	-0.695061	-0.714264
H80	H	1.269809	-0.674370	-0.754244
H81	H	1.264088	-0.713398	-0.674057
H82	H	1.350030	-0.713329	-0.760086
H83	H	1.118088	-0.268455	-0.383944
H84	H	1.396436	-0.959824	-0.627980
C85	C	1.134041	-0.156132	-0.647445
H86	H	1.207235	-0.160239	-0.637807
H87	H	1.116093	-0.125940	-0.632203
H88	H	1.116079	-0.162748	-0.718013
H89	H	1.328988	-0.603248	-0.695056
C90	C	0.903631	-0.156145	-0.647469
H91	H	0.952062	-0.139057	-0.687562
H92	H	0.860837	-0.136551	-0.607373
H93	H	0.860827	-0.173361	-0.693177
C94	C	1.659152	-0.380688	-0.365063
H95	H	1.699210	-0.401376	-0.325098
H96	H	1.618979	-0.362418	-0.319243
H97	H	1.704899	-0.362353	-0.405294
H98	H	1.640032	-0.472503	-0.384268
H99	H	1.707414	-0.688314	-0.317190
C100	C	1.659521	-0.155968	-1.121874
H101	H	1.699568	-0.138870	-1.073501
H102	H	1.619383	-0.136383	-1.164684
H103	H	1.705275	-0.173152	-1.164671
H104	H	1.396294	-0.268415	-1.106103
H105	H	1.707345	-0.603207	-0.317166
C106	C	1.659579	-0.953083	-0.365190
H107	H	1.699630	-0.973773	-0.325222
H108	H	1.619410	-0.934810	-0.319373
H109	H	1.705332	-0.934752	-0.405423
C110	C	1.376811	-0.380722	-0.647024
H111	H	1.386430	-0.349419	-0.637403
H112	H	1.306229	-0.388444	-0.631602
H113	H	1.392170	-0.388381	-0.717632
H114	H	1.329136	-0.829112	-0.695083
H115	H	1.640429	-1.044911	-0.384397
C116	C	1.377041	-0.276663	-0.891346
H117	H	1.337008	-0.293770	-0.939714
H118	H	1.331289	-0.259484	-0.848545
H119	H	1.417197	-0.296246	-0.848540
H120	H	1.707454	-0.743954	-0.317203
C121	C	1.659474	-0.156004	-0.891465
H122	H	1.649837	-0.160132	-0.818257
H123	H	1.644159	-0.125816	-0.909465
H124	H	1.730059	-0.162582	-0.909454
C125	C	1.377289	-1.051640	-0.647166
H126	H	1.386926	-1.082942	-0.637560
H127	H	1.392626	-1.043920	-0.717766
H128	H	1.306698	-1.043985	-0.631722
C129	C	1.376879	-0.479252	-0.647050
H130	H	1.336832	-0.458565	-0.687028
H131	H	1.331137	-0.497592	-0.606836
H132	H	1.417072	-0.497517	-0.692873
H133	H	1.707511	-0.829073	-0.317233
H134	H	1.329078	-0.744005	-0.695062
