data_functionalizedCrystal
_audit_creation_method	'MofGen! by Chris Wilmer'
_symmetry_space_group_name_H-M	'P1'
_symmetry_Int_Tables_number	1
_symmetry_cell_setting	triclinic
loop_
_symmetry_equiv_pos_as_xyz
  x,y,z
_cell_length_a	14.560438
_cell_length_b	23.196402
_cell_length_c	14.560438
_cell_angle_alpha	60.000861
_cell_angle_beta	90.000977
_cell_angle_gamma	60.002032
loop_
_atom_site_label
_atom_site_type_symbol
_atom_site_fract_x
_atom_site_fract_y
_atom_site_fract_z
Zr1	Zr	0.884780	0.631009	-0.120469
O2	O	0.738139	0.751274	-0.267111
O3	O	0.929730	0.510743	-0.075521
O4	O	0.929735	0.631011	-0.267117
O5	O	0.738134	0.631005	0.075625
O6	O	1.080873	0.631012	-0.267114
O7	O	0.738134	0.631007	-0.075515
O8	O	1.080864	0.415876	0.075616
O9	O	0.738143	0.846141	-0.267105
O10	O	1.061697	0.560211	-0.056342
O11	O	0.948905	0.560209	0.056451
O12	O	0.948911	0.701808	-0.169129
O13	O	0.836118	0.701806	-0.056336
Zr14	Zr	1.125828	0.631009	0.120587
Zr15	Zr	1.125828	0.631011	-0.120465
Zr16	Zr	0.884780	0.631006	0.120583
Zr17	Zr	0.884787	0.782311	-0.120458
Zr18	Zr	1.125822	0.479706	0.120577
O19	O	1.080879	0.751274	0.075639
O20	O	1.080878	0.751277	-0.267106
O21	O	0.738139	0.751270	0.075634
O22	O	1.272469	0.510743	0.267230
O23	O	1.272469	0.510747	-0.075515
O24	O	0.929730	0.510740	0.267225
O25	O	1.272474	0.631012	-0.075507
O26	O	1.080874	0.631007	0.267235
O27	O	0.929735	0.631005	0.267233
O28	O	1.272474	0.631011	0.075634
O29	O	0.929744	0.846143	-0.267102
O30	O	1.080864	0.415874	0.267221
O31	O	1.272465	0.415876	0.267224
O32	O	1.272465	0.415878	0.075619
O33	O	0.738143	0.846139	-0.075501
O34	O	0.929744	0.846141	-0.075498
O35	O	1.061698	0.560209	0.169247
O36	O	1.174490	0.560211	0.056455
O37	O	1.061704	0.701808	-0.056332
O38	O	0.948911	0.701806	0.056461
C39	C	1.005296	0.441752	0.000046
C40	C	1.005293	0.377520	0.000042
C41	C	1.064162	0.347351	-0.058839
C42	C	1.064173	0.286990	-0.058830
C43	C	1.005293	0.256812	0.000045
C44	C	0.946421	0.286985	0.058939
C45	C	0.946422	0.347340	0.058937
C46	C	0.906673	0.194782	-0.008359
C47	C	0.906670	0.134433	-0.008366
C48	C	1.005294	0.070657	0.000056
C49	C	1.103921	0.067247	0.008462
C50	C	1.103921	0.127601	0.008461
C51	C	1.005287	0.191368	0.000054
C52	C	1.064180	-0.024963	-0.058817
C53	C	1.064194	-0.085328	-0.058800
C54	C	0.946432	-0.085326	0.058961
C55	C	0.946429	-0.024968	0.058951
C56	C	1.005300	0.005213	0.000056
C57	C	0.703790	0.631005	0.000054
C58	C	0.601459	0.631004	0.000053
C59	C	0.612254	0.557094	0.058926
C60	C	0.516099	0.557097	0.058936
C61	C	0.398357	0.704929	-0.058809
C62	C	0.494511	0.704925	-0.058812
C63	C	0.680230	0.471744	0.126902
C64	C	0.584075	0.471748	0.126912
C65	C	1.306819	0.631012	0.000064
C66	C	1.409150	0.631013	0.000066
C67	C	1.005304	0.631012	-0.301460
C68	C	1.005304	0.631013	-0.403793
C69	C	1.005312	0.820265	0.000072
C70	C	1.005315	0.884497	0.000077
C71	C	0.946426	0.704924	-0.510743
C72	C	0.946429	0.704920	-0.606892
C73	C	1.064190	0.557088	-0.489127
C74	C	1.064193	0.557093	-0.392981
C75	C	0.878433	0.790273	-0.578734
C76	C	0.878437	0.790269	-0.674883
C77	C	1.005305	0.631005	0.301579
C78	C	1.005305	0.631004	0.403912
C79	C	1.306810	0.441756	0.000051
C80	C	1.409139	0.377525	0.000048
C81	C	1.005296	0.441749	0.301566
C82	C	1.005294	0.377516	0.403894
C83	C	1.306811	0.441752	0.301571
C84	C	1.409139	0.377520	0.403901
C85	C	0.703798	0.820265	-0.301452
C86	C	0.601469	0.884497	-0.403782
C87	C	0.703798	0.820262	0.000067
C88	C	0.601470	0.884492	0.000070
C89	C	1.005312	0.820268	-0.301447
C90	C	1.005315	0.884501	-0.403776
C91	C	1.398316	0.347361	-0.058842
C92	C	1.494456	0.287018	-0.058867
C93	C	1.601416	0.256835	0.000006
C94	C	1.612236	0.287005	0.058897
C95	C	1.516098	0.347351	0.058915
C96	C	1.064169	0.347352	0.510838
C97	C	1.064162	0.287006	0.606996
C98	C	1.005286	0.256823	0.596208
C99	C	0.946403	0.286993	0.489253
C100	C	0.946404	0.347341	0.393098
C101	C	1.516080	0.347358	0.393080
C102	C	1.612238	0.287014	0.489220
C103	C	1.601452	0.256829	0.596182
C104	C	1.494500	0.286998	0.607001
C105	C	1.398344	0.347345	0.510861
C106	C	0.494528	0.914667	-0.392961
C107	C	0.398370	0.975030	-0.489102
C108	C	0.409156	1.005217	-0.596063
C109	C	0.516109	0.975045	-0.606882
C110	C	0.612264	0.914687	-0.510742
C111	C	0.612292	0.914662	0.058950
C112	C	0.516153	0.975022	0.058949
C113	C	0.409192	1.005207	0.000073
C114	C	0.398372	0.975035	-0.058814
C115	C	0.494511	0.914680	-0.058819
C116	C	1.064203	0.914666	-0.392952
C117	C	1.064227	0.975011	-0.489091
C118	C	1.005357	1.005195	-0.596053
C119	C	0.946467	0.975025	-0.606875
C120	C	0.946450	0.914676	-0.510737
H121	H	1.112121	-0.000391	-0.106770
H122	H	0.485683	0.890117	-0.106763
H123	H	1.524925	0.371902	0.106877
H124	H	0.898536	0.999610	-0.693977
H125	H	1.005380	1.054335	-0.674326
H126	H	1.699315	0.262456	0.480391
H127	H	0.699376	0.890090	0.106901
H128	H	0.898491	0.890123	-0.519566
H129	H	0.732386	0.439027	0.216920
H130	H	1.112150	0.496907	-0.305900
H131	H	0.898487	-0.000401	0.106894
H132	H	1.112142	0.890099	-0.305866
H133	H	1.112180	0.999570	-0.480258
H134	H	0.791386	0.816758	-0.570006
H135	H	0.898464	0.371893	0.306023
H136	H	1.112135	0.496905	-0.480337
H137	H	0.330920	1.054352	0.000086
H138	H	1.112102	0.371921	-0.106792
H139	H	0.524985	0.999578	0.106906
H140	H	0.916250	0.823049	-0.578754
H141	H	1.112139	-0.109896	-0.106743
H142	H	0.330851	1.054364	-0.674337
H143	H	1.112113	0.262422	-0.106779
H144	H	1.184227	0.124819	0.015309
H145	H	1.184235	0.015314	0.015334
H146	H	1.485734	0.262412	0.694101
H147	H	0.898491	-0.109897	0.106898
H148	H	0.311271	0.765113	-0.106736
H149	H	1.311271	0.371896	0.519688
H150	H	0.826361	0.137218	-0.015216
H151	H	0.584068	0.438985	0.089083
H152	H	1.679689	0.207697	-0.000017
H153	H	0.826349	0.246718	-0.015241
H154	H	0.898482	0.262410	0.106876
H155	H	1.524884	0.371925	0.305995
H156	H	0.311272	0.999621	-0.106749
H157	H	0.485724	0.890091	-0.305876
H158	H	1.112113	0.371921	0.519643
H159	H	0.788410	0.823034	-0.727077
H160	H	0.898481	0.371904	0.106885
H161	H	1.311233	0.371936	-0.106796
H162	H	0.731136	0.445265	0.082034
H163	H	0.485712	0.765110	-0.106748
H164	H	0.575357	0.445260	0.213968
H165	H	0.524878	0.999632	-0.693981
H166	H	1.112115	0.262449	0.694073
H167	H	0.923297	0.816753	-0.725804
H168	H	1.485624	0.262462	-0.106823
H169	H	1.699336	0.262421	0.106829
H170	H	0.898468	0.262408	0.480486
H171	H	1.005294	0.207683	0.674513
H172	H	1.679757	0.207690	0.674456
H173	H	0.311295	0.999586	-0.480271
H174	H	0.699338	0.890123	-0.519567
