data_functionalizedCrystal
_audit_creation_method	'MofGen! by Chris Wilmer'
_symmetry_space_group_name_H-M	'P1'
_symmetry_Int_Tables_number	1
_symmetry_cell_setting	triclinic
loop_
_symmetry_equiv_pos_as_xyz
  x,y,z
_cell_length_a	17.699083
_cell_length_b	19.188930
_cell_length_c	16.176319
_cell_angle_alpha	89.988074
_cell_angle_beta	89.998611
_cell_angle_gamma	83.213899
loop_
_atom_site_label
_atom_site_type_symbol
_atom_site_fract_x
_atom_site_fract_y
_atom_site_fract_z
O1	O	1.003963	0.088294	-0.068640
O2	O	0.783569	0.099782	-0.068668
O3	O	0.900126	-0.007610	-0.068637
O4	O	0.887406	0.195687	-0.068671
O5	O	0.900110	-0.007617	0.068856
O6	O	0.783553	0.099775	0.068825
O7	O	1.003947	0.088288	0.068853
Cu8	Cu	0.893748	0.094031	0.081393
Cu9	Cu	0.893767	0.094039	-0.081208
O10	O	0.887390	0.195680	0.068822
C11	C	0.755365	0.099367	0.000075
C12	C	0.671348	0.098132	0.000065
C13	C	0.622644	0.161169	0.000055
C14	C	0.543702	0.160004	0.000065
C15	C	0.513466	0.095802	0.000081
C16	C	0.562176	0.032761	0.000093
C17	C	0.641117	0.033926	0.000088
C18	C	0.243819	0.028060	0.000115
C19	C	0.164873	0.026900	0.000117
C20	C	0.146405	0.154139	0.000092
C21	C	0.225345	0.155304	0.000087
C22	C	0.274049	0.092263	0.000104
C23	C	0.359646	0.093526	0.000094
C24	C	0.427870	0.094538	0.000085
C25	C	0.899706	-0.033625	0.000112
C26	C	0.898469	-0.111131	0.000119
C27	C	0.966861	-0.155978	0.000131
C28	C	0.965699	-0.228804	0.000118
C29	C	0.896142	-0.256778	0.000108
C30	C	0.827741	-0.211921	0.000091
C31	C	0.828905	-0.139098	0.000096
N32	N	0.842968	-0.364845	0.046893
N33	N	0.841868	-0.434025	0.046890
C34	C	0.892632	-0.476191	0.000091
N35	N	0.944550	-0.446565	-0.046694
N36	N	0.945653	-0.377379	-0.046687
C37	C	0.894873	-0.335742	0.000102
C38	C	0.959769	-0.600004	0.000088
C39	C	0.958604	-0.672830	0.000070
C40	C	0.820644	-0.655946	0.000051
C41	C	0.821811	-0.583121	0.000061
C42	C	0.891375	-0.555155	0.000084
C43	C	1.032151	0.088703	0.000108
C44	C	1.116167	0.089938	0.000113
C45	C	0.887810	0.221695	0.000071
C46	C	0.889046	0.299201	0.000059
N47	N	0.893741	0.094025	0.195758
N48	N	0.893781	0.094039	-0.195574
C49	C	0.945367	0.046491	0.239036
C50	C	0.945371	0.046490	0.325584
C51	C	0.893751	0.094027	0.368851
C52	C	0.842119	0.141563	0.325567
C53	C	0.842112	0.141560	0.239022
C54	C	0.842145	0.141576	0.674595
C55	C	0.842157	0.141577	0.761147
C56	C	0.945404	0.046506	0.761157
C57	C	0.945397	0.046503	0.674612
C58	C	0.893763	0.094036	0.631335
C59	C	0.893758	0.094036	0.537491
C60	C	0.893759	0.094031	0.462694
H61	H	0.504050	0.211335	0.000056
H62	H	0.987446	0.007800	0.796402
O63	O	0.257960	0.224550	0.000069
H64	H	0.293490	0.228114	0.056104
O65	O	0.755136	-0.090720	0.000087
H66	H	0.752365	-0.057150	0.056128
H67	H	0.106741	0.205470	0.000082
H68	H	0.764009	-0.678722	0.000039
O69	O	0.786480	0.192850	0.807822
H70	H	0.818237	0.226749	0.847227
H71	H	1.016412	-0.577233	0.000103
O72	O	1.032374	-0.721206	0.000080
H73	H	1.035127	-0.754806	0.056112
H74	H	0.800085	0.180266	0.360800
O75	O	0.655249	0.230419	0.000037
H76	H	0.718324	0.220642	0.000028
O77	O	0.752717	-0.242089	0.000081
H78	H	0.719856	-0.224068	0.056113
H79	H	0.766119	-0.546605	0.000056
O80	O	0.529570	-0.036489	0.000117
H81	H	0.494050	-0.040067	-0.055923
H82	H	0.987405	0.007784	0.203814
H83	H	0.987409	0.007784	0.360820
O84	O	1.039470	-0.277183	0.000143
H85	H	1.026972	-0.332520	0.000135
H86	H	0.140258	-0.025384	0.000131
H87	H	0.987433	0.007796	0.639386
O88	O	0.786463	0.192848	0.627922
H89	H	0.750579	0.225908	0.672552
O90	O	0.786430	0.192823	0.192329
H91	H	0.795889	0.247246	0.208907
O92	O	0.296342	-0.039933	0.000135
H93	H	0.285623	-0.070660	-0.055901
O94	O	0.693653	-0.034063	0.000097
H95	H	0.659368	-0.078903	0.000101
H96	H	1.023506	-0.133213	0.000147
