data_functionalizedCrystal
_audit_creation_method	'MofGen! by Chris Wilmer'
_symmetry_space_group_name_H-M	'P1'
_symmetry_Int_Tables_number	1
_symmetry_cell_setting	triclinic
loop_
_symmetry_equiv_pos_as_xyz
  x,y,z
_cell_length_a	16.992694
_cell_length_b	9.016244
_cell_length_c	16.992695
_cell_angle_alpha	90.007158
_cell_angle_beta	90.668223
_cell_angle_gamma	89.996559
loop_
_atom_site_label
_atom_site_type_symbol
_atom_site_fract_x
_atom_site_fract_y
_atom_site_fract_z
O1	O	1.050848	0.123156	0.166919
O2	O	1.550848	0.623156	0.666919
O3	O	0.822448	0.123199	0.165088
O4	O	1.322448	0.623199	0.665088
O5	O	0.935732	0.123166	0.051803
O6	O	1.435732	0.623166	0.551803
O7	O	0.937564	0.123189	0.280203
O8	O	1.437564	0.623189	0.780203
O9	O	0.935727	-0.123515	0.051794
O10	O	1.435727	0.376485	0.551794
O11	O	0.822442	-0.123481	0.165079
O12	O	1.322442	0.376519	0.665079
O13	O	1.050842	-0.123525	0.166910
O14	O	1.550842	0.376475	0.666910
Cu15	Cu	0.936642	-0.146027	0.165993
Cu16	Cu	1.436642	0.353973	0.665993
Cu17	Cu	0.936649	0.145702	0.166004
Cu18	Cu	1.436649	0.645702	0.666004
O19	O	0.937558	-0.123492	0.280194
O20	O	1.437558	0.376508	0.780194
C21	C	0.793085	-0.000135	0.162727
C22	C	1.293085	0.499865	0.662727
C23	C	0.705600	-0.000119	0.155699
C24	C	1.205600	0.499881	0.655699
C25	C	0.659610	-0.000113	0.223517
C26	C	1.159610	0.499887	0.723517
C27	C	0.577409	-0.000134	0.216908
C28	C	1.077409	0.499866	0.716908
C29	C	0.541201	-0.000151	0.142480
C30	C	1.041201	0.499849	0.642480
C31	C	0.587198	-0.000161	0.074657
C32	C	1.087198	0.499839	0.574657
C33	C	0.669397	-0.000150	0.081267
C34	C	1.169397	0.499850	0.581267
C35	C	0.295886	-0.000193	0.115086
C36	C	0.795886	0.499807	0.615086
C37	C	0.213681	-0.000199	0.108481
C38	C	0.713681	0.499801	0.608481
C39	C	0.203898	-0.000176	0.250732
C40	C	0.703898	0.499824	0.750732
C41	C	0.286099	-0.000156	0.257335
C42	C	0.786099	0.499844	0.757335
C43	C	0.332089	-0.000174	0.189512
C44	C	0.832089	0.499826	0.689512
N45	N	0.457178	-0.000168	0.135723
N46	N	0.957178	0.499832	0.635723
N47	N	0.416110	-0.000168	0.196270
N48	N	0.916110	0.499832	0.696270
N49	N	0.936643	-0.351213	0.165985
N50	N	1.436643	0.148787	0.665985
C51	C	0.997494	-0.586218	0.105619
C52	C	1.497494	-0.086218	0.605619
C53	C	0.997307	-0.414327	0.105367
C54	C	1.497307	0.085673	0.605367
C55	C	0.853392	-0.413625	0.142900
C56	C	1.353392	0.086375	0.642900
C57	C	0.853750	-0.585569	0.142472
C58	C	1.353750	-0.085569	0.642472
C59	C	0.958335	-0.585713	0.249621
C60	C	1.458335	-0.085713	0.749621
C61	C	0.960162	-0.413757	0.249180
C62	C	1.460162	0.086243	0.749180
C63	C	1.080205	-0.000187	0.169270
C64	C	1.580205	0.499813	0.669270
C65	C	1.167690	-0.000193	0.176299
C66	C	1.667690	0.499807	0.676299
C67	C	0.933374	-0.000174	0.022439
C68	C	1.433374	0.499826	0.522439
C69	C	0.926345	-0.000172	-0.065046
C70	C	1.426345	0.499828	0.434954
N71	N	0.936653	0.350888	0.166006
N72	N	1.436653	0.850888	0.666006
C73	C	0.994163	-0.000187	-0.111037
C74	C	1.494163	0.499813	0.388963
C75	C	0.987554	-0.000171	-0.193238
C76	C	1.487554	0.499829	0.306762
C77	C	0.913127	-0.000152	-0.229446
C78	C	1.413127	0.499848	0.270554
C79	C	0.845303	-0.000133	-0.183449
C80	C	1.345303	0.499867	0.316551
C81	C	0.851913	-0.000138	-0.101250
C82	C	1.351913	0.499862	0.398750
C83	C	0.885732	-0.000126	-0.474760
C84	C	1.385732	0.499874	0.025240
C85	C	0.879127	-0.000126	-0.556966
C86	C	1.379127	0.499874	-0.056966
C87	C	1.021379	-0.000161	-0.566749
C88	C	1.521379	0.499839	-0.066749
C89	C	1.027982	-0.000175	-0.484547
C90	C	1.527982	0.499825	0.015453
C91	C	0.960159	-0.000148	-0.438558
C92	C	1.460159	0.499852	0.061442
N93	N	0.906369	-0.000141	-0.313468
N94	N	1.406369	0.499859	0.186532
N95	N	0.966917	-0.000149	-0.354537
N96	N	1.466917	0.499851	0.145463
C97	C	0.939917	-0.000149	0.309559
C98	C	1.439917	0.499851	0.809559
C99	C	0.946945	-0.000141	0.397044
C100	C	1.446945	0.499859	0.897044
H101	H	0.539966	-0.000128	0.272133
H102	H	1.039966	0.499872	0.772133
H103	H	0.333322	-0.000209	0.059859
H104	H	0.833322	0.499791	0.559859
H105	H	0.919115	-0.370791	0.296618
H106	H	1.419115	0.129209	0.796618
C107	C	0.153312	-0.000163	0.325333
C108	C	0.653312	0.499837	0.825333
H109	H	0.186649	-0.000141	0.370605
H110	H	0.686649	0.499859	0.870605
H111	H	0.121046	-0.086187	0.325712
H112	H	0.621046	0.413813	0.825712
H113	H	0.121040	0.085870	0.325713
H114	H	0.621040	0.585870	0.825713
H115	H	0.557710	-0.000195	0.014056
H116	H	1.057710	0.499805	0.514056
C117	C	0.898486	-0.640664	0.310413
C118	C	1.398486	-0.140664	0.810413
H119	H	0.860468	-0.701948	0.285004
H120	H	1.360468	-0.201948	0.785004
H121	H	0.872972	-0.557984	0.333568
H122	H	1.372972	-0.057984	0.833568
H123	H	0.925096	-0.695996	0.350161
H124	H	1.425096	-0.195996	0.850161
H125	H	0.834753	-0.370579	0.082424
H126	H	1.334753	0.129421	0.582424
C127	C	1.062152	-0.000172	-0.243828
C128	C	1.562152	0.499828	0.256172
H129	H	1.047558	-0.000143	-0.297968
H130	H	1.547558	0.499857	0.202032
H131	H	1.092461	-0.086199	-0.232380
H132	H	1.592461	0.413801	0.267620
H133	H	1.092455	0.085858	-0.232353
H134	H	1.592455	0.585858	0.267647
C135	C	0.325923	-0.000160	0.339206
C136	C	0.825923	0.499840	0.839206
H137	H	0.286758	-0.000176	0.378650
H138	H	0.786758	0.499824	0.878650
H139	H	0.357783	0.085863	0.344748
H140	H	0.857783	0.585863	0.844748
H141	H	0.357787	-0.086194	0.344732
H142	H	0.857787	0.413806	0.844732
H143	H	1.021431	-0.372967	0.266579
H144	H	1.521431	0.127033	0.766579
H145	H	1.059026	-0.372129	0.119875
H146	H	1.559026	0.127871	0.619875
H147	H	1.076596	-0.000180	-0.604202
H148	H	1.576596	0.499820	-0.104202
H149	H	1.059407	-0.627568	0.119970
H150	H	1.559407	-0.127568	0.619970
H151	H	0.796688	-0.000126	-0.063804
H152	H	1.296688	0.499874	0.436196
C153	C	0.719987	-0.000142	0.006667
C154	C	1.219987	0.499858	0.506667
H155	H	0.686651	-0.000137	-0.038606
H156	H	1.186651	0.499863	0.461394
H157	H	0.752264	-0.086158	0.006283
H158	H	1.252264	0.413842	0.506283
H159	H	0.752248	0.085899	0.006295
H160	H	1.252248	0.585899	0.506295
C161	C	0.977862	-0.358772	0.021686
C162	C	1.477862	0.141228	0.521686
H163	H	0.970038	-0.441291	-0.012285
H164	H	1.470038	0.058709	0.487715
H165	H	1.020230	-0.300272	0.003036
H166	H	1.520230	0.199728	0.503036
H167	H	0.931304	-0.300497	0.022679
H168	H	1.431304	0.199503	0.522679
H169	H	0.830505	-0.000105	-0.437325
H170	H	1.330505	0.499895	0.062675
H171	H	1.054770	-0.000211	-0.081563
H172	H	1.554770	0.499789	0.418437
H173	H	0.835426	-0.625693	0.081335
H174	H	1.335426	-0.125693	0.581335
C175	C	1.038968	-0.644284	0.277880
C176	C	1.538968	-0.144284	0.777880
H177	H	1.060166	-0.707956	0.238941
H178	H	1.560166	-0.207956	0.738941
H179	H	1.032793	-0.697824	0.325552
H180	H	1.532793	-0.197824	0.825552
H181	H	1.073698	-0.563199	0.286559
H182	H	1.573698	-0.063199	0.786559
H183	H	0.983283	-0.629448	0.044032
H184	H	1.483283	-0.129448	0.544032
H185	H	0.806851	-0.627175	0.184515
H186	H	1.306851	-0.127175	0.684515
H187	H	0.806812	-0.372744	0.185493
H188	H	1.306812	0.127256	0.685493
C189	C	0.173849	-0.000228	0.026609
C190	C	0.673849	0.499772	0.526609
H191	H	0.118308	-0.000216	0.032389
H192	H	0.618308	0.499784	0.532389
H193	H	0.189332	-0.086259	-0.001532
H194	H	0.689332	0.413741	0.498468
H195	H	0.189326	0.085798	-0.001533
H196	H	0.689326	0.585798	0.498467
C197	C	0.699432	-0.000095	0.305388
C198	C	1.199432	0.499905	0.805388
H199	H	0.660265	-0.000108	0.344830
H200	H	1.160265	0.499892	0.844830
H201	H	0.731289	0.085932	0.310928
H202	H	1.231289	0.585932	0.810928
H203	H	0.731298	-0.086125	0.310920
H204	H	1.231298	0.413875	0.810920
C205	C	1.109852	-0.000177	-0.444724
C206	C	1.609852	0.499823	0.055276
H207	H	1.149297	-0.000168	-0.483888
H208	H	1.649297	0.499832	0.016112
H209	H	1.115389	-0.086198	-0.412865
H210	H	1.615389	0.413802	0.087135
H211	H	1.115384	0.085859	-0.412858
H212	H	1.615384	0.585859	0.087142
C213	C	0.797254	-0.000080	-0.596793
C214	C	1.297254	0.499920	-0.096793
H215	H	0.757807	-0.000046	-0.557631
H216	H	1.257807	0.499954	-0.057631
H217	H	0.791708	-0.086097	-0.628664
H218	H	1.291708	0.413903	-0.128664
H219	H	0.791734	0.085960	-0.628648
H220	H	1.291734	0.585960	-0.128648
C221	C	0.763435	-0.000116	-0.223276
C222	C	1.263435	0.499884	0.276724
H223	H	0.769210	-0.000132	-0.278818
H224	H	1.269210	0.499868	0.221182
H225	H	0.735294	0.085910	-0.207789
H226	H	1.235294	0.585910	0.292211
H227	H	0.735296	-0.086146	-0.207798
H228	H	1.235296	0.413854	0.292202
