data_functionalizedCrystal
_audit_creation_method	'MofGen! by Chris Wilmer'
_symmetry_space_group_name_H-M	'P1'
_symmetry_Int_Tables_number	1
_symmetry_cell_setting	triclinic
loop_
_symmetry_equiv_pos_as_xyz
  x,y,z
_cell_length_a	12.759401
_cell_length_b	14.908178
_cell_length_c	12.759393
_cell_angle_alpha	86.668487
_cell_angle_beta	89.982932
_cell_angle_gamma	93.314230
loop_
_atom_site_label
_atom_site_type_symbol
_atom_site_fract_x
_atom_site_fract_y
_atom_site_fract_z
Zn1	Zn	1.582083	-0.359141	-0.569812
Zn2	Zn	1.571831	-0.510038	-0.383977
Zn3	Zn	1.406386	-0.359185	-0.394148
Zn4	Zn	1.396228	-0.509971	-0.559623
O5	O	1.489132	-0.434584	-0.476890
O6	O	1.727743	-0.379167	-0.545168
O7	O	1.549846	-0.490073	-0.238302
O8	O	1.438234	-0.232924	-0.425971
O9	O	1.720211	-0.490030	-0.408636
O10	O	1.567318	-0.232891	-0.555031
O11	O	1.428294	-0.379243	-0.245775
O12	O	1.258018	-0.379178	-0.416091
O13	O	1.420921	-0.489916	-0.707999
O14	O	1.250555	-0.489960	-0.537665
O15	O	1.557467	-0.379102	-0.715484
O16	O	1.539995	-0.636284	-0.398756
O17	O	1.410980	-0.636235	-0.527802
C18	C	1.216166	-0.434567	-0.476877
C19	C	1.099388	-0.434582	-0.476895
C20	C	1.040661	-0.492358	-0.540081
C21	C	0.930936	-0.492369	-0.540091
C22	C	0.938675	-0.376826	-0.413721
C23	C	1.048398	-0.376810	-0.413717
C24	C	1.036192	-0.559069	-0.613036
C25	C	0.926467	-0.559080	-0.613047
C26	C	1.473301	-0.668996	-0.461092
C27	C	1.466625	-0.769279	-0.454369
C28	C	1.588393	-0.957536	-0.576269
C29	C	1.582124	-1.051761	-0.569956
C30	C	1.447813	-1.051954	-0.435435
C31	C	1.454082	-0.957729	-0.441748
C32	C	1.524376	-0.910524	-0.512167
C33	C	1.530649	-0.816298	-0.518474
C34	C	1.396334	-0.816493	-0.383959
C35	C	1.390065	-0.910717	-0.377646
C36	C	1.763164	-0.434601	-0.476904
C37	C	1.879940	-0.434608	-0.476909
C38	C	1.489204	-0.434497	-0.750929
C39	C	1.489235	-0.434460	-0.867708
C40	C	1.505053	-0.199256	-0.492772
C41	C	1.511837	-0.098973	-0.499540
C42	C	1.552582	-0.492107	-1.028404
C43	C	1.552540	-0.492145	-0.918678
C44	C	1.425961	-0.376738	-0.926471
C45	C	1.425998	-0.376705	-1.036196
C46	C	1.625664	-0.558734	-1.023904
C47	C	1.625623	-0.558772	-0.914177
C48	C	1.489124	-0.434605	-0.203921
C49	C	1.489314	-0.434388	-0.087160
H50	H	1.067252	-0.540436	-0.695697
H51	H	1.704662	-0.533698	-1.059625
H52	H	1.708247	-0.540065	-0.885659
N53	N	1.606450	-0.765375	-0.594429
H54	H	1.657770	-0.726272	-0.554403
H55	H	1.645977	-0.809512	-0.634067
N56	N	0.883674	-0.314529	-0.345571
H57	H	0.937530	-0.277927	-0.305541
H58	H	0.840976	-0.272825	-0.391231
N59	N	1.111728	-0.314471	-0.345584
H60	H	1.091671	-0.328394	-0.269550
H61	H	1.188957	-0.323242	-0.355252
H62	H	1.065744	-0.625409	-0.579287
N63	N	1.357754	-0.314447	-1.099556
H64	H	1.403291	-0.272621	-1.147900
H65	H	1.306609	-0.351157	-1.142543
H66	H	0.894145	-0.534140	-0.692077
H67	H	0.891973	-0.628940	-0.586413
H68	H	1.645636	-0.919101	-0.633600
N69	N	1.357671	-0.314527	-0.871503
H70	H	1.367244	-0.323306	-0.793077
H71	H	1.378387	-0.250084	-0.895029
H72	H	1.634248	-1.090035	-0.622160
H73	H	1.592000	-0.625169	-0.875666
H74	H	1.599158	-0.628601	-1.048964
H75	H	1.390579	-1.090405	-0.378109
N76	N	1.314257	-0.961633	-0.301694
H77	H	1.319999	-1.028459	-0.307418
H78	H	1.331763	-0.945199	-0.227779
H79	H	1.344210	-0.778204	-0.331759
