data_functionalizedCrystal
_audit_creation_method	'MofGen! by Chris Wilmer'
_symmetry_space_group_name_H-M	'P1'
_symmetry_Int_Tables_number	1
_symmetry_cell_setting	triclinic
loop_
_symmetry_equiv_pos_as_xyz
  x,y,z
_cell_length_a	23.532407
_cell_length_b	10.723024
_cell_length_c	9.198806
_cell_angle_alpha	89.997988
_cell_angle_beta	90.001405
_cell_angle_gamma	83.658273
loop_
_atom_site_label
_atom_site_type_symbol
_atom_site_fract_x
_atom_site_fract_y
_atom_site_fract_z
O1	O	0.756242	0.151465	-0.120708
O2	O	0.590521	0.173381	-0.120750
O3	O	0.677204	-0.019272	-0.120722
O4	O	0.669559	0.344118	-0.120735
O5	O	0.677197	-0.019273	0.121063
O6	O	0.590514	0.173381	0.121035
O7	O	0.756235	0.151465	0.121077
Cu8	Cu	0.673374	0.162423	0.143133
Cu9	Cu	0.673382	0.162423	-0.142806
O10	O	0.669552	0.344118	0.121050
C11	C	0.569298	0.172823	0.000137
C12	C	0.506070	0.171145	0.000121
C13	C	0.676644	-0.065755	0.000168
C14	C	0.674980	-0.204257	0.000163
C15	C	0.623273	-0.394404	0.000142
C16	C	0.624992	-0.251254	0.000148
C17	C	0.107638	0.274629	0.000183
C18	C	0.048228	0.273070	0.000192
O19	O	0.012106	0.369001	0.000242
N20	N	0.024859	0.158538	0.000194
C21	C	0.060903	0.045557	0.000201
O22	O	0.035570	-0.052005	0.000205
C23	C	0.120312	0.047117	0.000203
C24	C	0.143678	0.161656	0.000187
C25	C	0.131005	0.389159	0.000169
C26	C	0.190411	0.390717	0.000157
C27	C	0.226451	0.277745	0.000160
C28	C	0.203084	0.163215	0.000175
C29	C	0.156356	-0.065863	0.000221
C30	C	0.215768	-0.064293	0.000223
C31	C	0.239134	0.050247	0.000207
C32	C	0.298530	0.051801	0.000166
N33	N	0.321900	0.166333	0.000165
C34	C	0.285860	0.279305	0.000162
C35	C	-0.063861	0.042289	0.000201
C36	C	-0.123269	0.040728	0.000189
C37	C	-0.135940	0.268242	0.000183
C38	C	-0.076531	0.269802	0.000184
C39	C	-0.040491	0.156821	0.000199
C40	C	0.410618	0.282569	0.000136
C41	C	0.470030	0.284117	0.000118
C42	C	0.482696	0.056604	0.000132
C43	C	0.423289	0.055055	0.000142
C44	C	0.387251	0.168048	0.000149
O45	O	0.334687	-0.044080	0.000123
O46	O	0.311201	0.376851	0.000177
C47	C	0.777458	0.152023	0.000187
C48	C	0.840686	0.153701	0.000194
C49	C	0.670112	0.390600	0.000156
C50	C	0.671776	0.529103	0.000152
N51	N	0.673372	0.162421	0.344247
N52	N	0.673388	0.162414	-0.343920
C53	C	0.709768	0.081180	0.416456
C54	C	0.709777	0.081176	0.583868
H55	H	0.580475	-0.434892	0.000121
H56	H	0.381282	0.374578	0.000146
H57	H	0.740939	0.011626	0.645964
H58	H	0.642229	0.231976	0.593994
H59	H	0.714575	-0.430408	0.000113
F60	F	0.632649	0.253326	0.425435
F61	F	-0.025509	-0.077968	0.000203
H62	H	0.583470	-0.185528	0.000149
H63	H	0.137342	-0.159133	0.000235
F64	F	0.729257	-0.290155	0.000185
F65	F	0.254121	-0.184546	0.000243
H66	H	-0.142288	-0.052542	0.000180
H67	H	0.209430	0.483987	0.000143
H68	H	0.489051	0.377393	0.000104
H69	H	0.101666	0.481160	0.000172
F70	F	-0.174307	0.388478	0.000185
F71	F	0.398420	-0.066850	0.000160
F72	F	-0.051669	0.391709	0.000170
F73	F	0.521062	-0.063623	0.000138
H74	H	0.740920	0.011624	0.354339
