data_functionalizedCrystal
_audit_creation_method	'MofGen! by Chris Wilmer'
_symmetry_space_group_name_H-M	'P1'
_symmetry_Int_Tables_number	1
_symmetry_cell_setting	triclinic
loop_
_symmetry_equiv_pos_as_xyz
  x,y,z
_cell_length_a	17.019282
_cell_length_b	17.038272
_cell_length_c	14.185569
_cell_angle_alpha	75.875097
_cell_angle_beta	106.880242
_cell_angle_gamma	87.241387
loop_
_atom_site_label
_atom_site_type_symbol
_atom_site_fract_x
_atom_site_fract_y
_atom_site_fract_z
O1	O	1.054911	0.097899	0.007740
O2	O	0.822070	0.114893	-0.012383
O3	O	0.937108	-0.007394	-0.002433
O4	O	0.939873	0.220186	-0.002210
O5	O	0.971092	-0.043515	0.167341
O6	O	0.856053	0.078772	0.157391
O7	O	1.088895	0.061778	0.177514
Cu8	Cu	0.975577	0.066977	0.182954
Cu9	Cu	0.935387	0.109694	-0.017823
O10	O	0.973856	0.184065	0.167564
C11	C	0.809122	0.096903	0.069917
C12	C	0.719911	0.097103	0.062207
C13	C	0.696529	0.077505	0.151131
C14	C	0.612708	0.077681	0.143890
C15	C	0.552269	0.097459	0.047724
C16	C	0.575655	0.117056	-0.041207
C17	C	0.659476	0.116875	-0.033965
C18	C	0.298258	0.098986	0.021227
C19	C	0.214433	0.099168	0.013991
C20	C	0.251492	0.059790	0.199089
C21	C	0.335312	0.059616	0.206323
C22	C	0.358691	0.079208	0.117392
C23	C	0.466589	0.097641	0.040320
C24	C	0.444370	0.079021	0.124797
C25	C	0.951583	-0.054535	0.082237
C26	C	0.944072	-0.141183	0.081587
C27	C	1.013026	-0.192626	0.087547
C28	C	1.005962	-0.274039	0.086927
C29	C	0.929946	-0.304007	0.080354
C30	C	0.860987	-0.252556	0.074391
C31	C	0.868050	-0.171144	0.075003
C32	C	0.904994	-0.549281	0.078184
C33	C	0.897937	-0.630701	0.077575
C34	C	1.042912	-0.652177	0.090110
C35	C	1.049970	-0.570764	0.090728
C36	C	0.981009	-0.519319	0.084759
C37	C	0.922725	-0.387224	0.079724
C38	C	0.988230	-0.436102	0.085382
C39	C	1.101842	0.079769	0.095212
C40	C	1.191051	0.079570	0.102915
C41	C	0.959381	0.231206	0.082893
C42	C	0.966890	0.317856	0.083535
N43	N	1.003850	0.036931	0.324171
N44	N	0.907120	0.139733	-0.159039
C45	C	0.824052	0.227973	0.676269
C46	C	0.845474	0.205219	0.783144
C47	C	0.947365	0.096973	0.791918
C48	C	0.925949	0.119715	0.685042
C49	C	0.864292	0.185217	0.627226
C50	C	0.966189	0.076959	0.635998
C51	C	0.944777	0.099702	0.529132
C52	C	0.883125	0.165202	0.471309
C53	C	0.842880	0.207960	0.520359
C54	C	1.027850	0.011461	0.693816
C55	C	1.068090	-0.031295	0.644773
C56	C	1.046674	-0.008556	0.537904
C57	C	0.985022	0.056945	0.480081
C58	C	1.086919	-0.051313	0.488853
C59	C	1.065507	-0.028570	0.381987
C60	C	0.963610	0.079688	0.373214
H61	H	0.678510	0.132835	-0.106377
C62	C	0.777370	-0.285526	0.067169
N63	N	0.714389	-0.310360	0.061737
C64	C	1.015184	0.024920	0.855527
N65	N	1.066263	-0.029353	0.903436
H66	H	1.098276	-0.063387	0.342055
C67	C	0.775019	0.279984	0.456753
N68	N	0.723899	0.334222	0.408843
C69	C	0.510853	0.057286	0.230577
N70	N	0.560935	0.040927	0.310251
C71	C	0.756191	0.299997	0.612663
N72	N	0.705071	0.354235	0.564753
H73	H	0.913396	0.133020	0.326138
H74	H	1.045284	-0.007051	0.780834
C75	C	0.147950	0.120926	-0.091804
N76	N	0.097875	0.137315	-0.171484
C77	C	0.792196	-0.114556	0.068449
N78	N	0.735059	-0.071934	0.063509
H79	H	1.118294	-0.084625	0.691859
C80	C	1.096650	-0.159670	0.094778
N81	N	1.159637	-0.134848	0.100220
H82	H	1.137126	-0.104640	0.535941
H83	H	0.745734	0.061406	0.229440
H84	H	0.836036	-0.655100	0.072239
C85	C	0.323965	0.120532	-0.076601
N86	N	0.343329	0.136758	-0.150289
H87	H	0.417371	0.113745	-0.037979
C88	C	1.118762	-0.708770	0.096666
N89	N	1.175893	-0.751396	0.101600
C90	C	0.829133	-0.492701	0.071612
N91	N	0.771991	-0.450080	0.066659
H92	H	1.062112	-0.315922	0.091783
H93	H	1.111870	-0.546370	0.096081
H94	H	1.050117	-0.411693	0.090712
H95	H	0.812701	0.240044	0.823069
C96	C	0.225767	0.038232	0.296906
N97	N	0.206391	0.021989	0.370586
C98	C	0.401790	0.037853	0.312113
N99	N	0.451862	0.021463	0.391796
H100	H	0.593677	0.061709	0.216302
C101	C	0.859570	0.190220	0.353751
N102	N	0.841827	0.209062	0.265207
H103	H	0.526439	0.133155	-0.119508
H104	H	0.860833	-0.411634	0.074374
