data_functionalizedCrystal
_audit_creation_method	'MofGen! by Chris Wilmer'
_symmetry_space_group_name_H-M	'P1'
_symmetry_Int_Tables_number	1
_symmetry_cell_setting	triclinic
loop_
_symmetry_equiv_pos_as_xyz
  x,y,z
_cell_length_a	35.282881
_cell_length_b	35.288076
_cell_length_c	35.277682
_cell_angle_alpha	89.997174
_cell_angle_beta	60.004231
_cell_angle_gamma	59.985448
loop_
_atom_site_label
_atom_site_type_symbol
_atom_site_fract_x
_atom_site_fract_y
_atom_site_fract_z
O1	O	-0.271309	-0.322916	0.011273
O2	O	-0.193688	-0.267831	-0.011225
O3	O	-0.271308	-0.267807	0.066395
O4	O	-0.193690	-0.322939	-0.066346
O5	O	-0.334351	-0.204763	0.066390
O6	O	-0.256732	-0.204786	-0.011230
O7	O	-0.334353	-0.259871	0.011268
Cu8	Cu	-0.301299	-0.226572	0.000019
Cu9	Cu	-0.226742	-0.301130	0.000025
O10	O	-0.256733	-0.259895	-0.066351
C11	C	-0.139961	-0.094771	-0.023515
C12	C	-0.166574	-0.044775	-0.020291
C13	C	-0.162557	-0.117781	-0.023839
C14	C	-0.071315	-0.163416	-0.023521
C15	C	-0.024531	-0.186815	-0.020303
C16	C	-0.094015	-0.186321	-0.023845
C17	C	-0.139956	-0.163396	-0.023523
C18	C	-0.166564	-0.186774	-0.020308
C19	C	-0.094019	-0.117801	-0.023837
C20	C	-0.188062	-0.205661	-0.017709
C21	C	-0.188076	-0.004383	-0.017686
C22	C	0.013265	-0.205719	-0.017702
C23	C	-0.215031	-0.229356	-0.014449
C24	C	-0.215050	0.046291	-0.014418
C25	C	0.060682	-0.229435	-0.014441
C26	C	-0.534537	-0.431740	0.034177
C27	C	-0.511834	-0.408835	0.034496
C28	C	-0.465898	-0.500380	0.034182
C29	C	-0.443299	-0.477372	0.034501
C30	C	-0.465894	-0.431760	0.034177
C31	C	-0.511838	-0.477352	0.034501
C32	C	-0.687639	-0.389793	0.021747
C33	C	-0.731001	-0.368182	0.018231
C34	C	-0.752750	-0.322983	0.016464
C35	C	-0.799760	-0.299551	0.012644
C36	C	-0.731138	-0.299395	0.018216
C37	C	-0.687784	-0.321004	0.021737
C38	C	-0.666034	-0.366205	0.023503
C39	C	-0.411545	-0.320623	0.021741
C40	C	-0.386425	-0.298879	0.018225
C41	C	-0.339455	-0.322339	0.016461
C42	C	-0.312210	-0.298771	0.012642
C43	C	-0.317609	-0.367544	0.018218
C44	C	-0.342734	-0.389284	0.021742
C45	C	-0.389704	-0.365818	0.023500
C46	C	-0.411563	-0.665875	0.021768
C47	C	-0.386442	-0.712747	0.018252
C48	C	-0.339472	-0.736268	0.016490
C49	C	-0.312230	-0.787090	0.012676
C50	C	-0.317623	-0.712919	0.018240
C51	C	-0.342744	-0.666049	0.021754
C52	C	-0.389718	-0.642530	0.023522
C53	C	-0.619020	-0.389634	0.027317
C54	C	-0.581547	-0.408310	0.030359
C55	C	-0.438661	-0.551200	0.030370
C56	C	-0.416951	-0.591708	0.027333
C57	C	-0.438653	-0.408187	0.030359
C58	C	-0.416941	-0.389396	0.027316
C59	C	-0.061866	-0.431877	-0.438498
C60	C	-0.015926	-0.477496	-0.461414
C61	C	-0.061865	-0.431878	-0.369855
C62	C	-0.015926	-0.477497	-0.392876
C63	C	0.006775	-0.500519	-0.438494
C64	C	-0.084462	-0.408960	-0.392879
C65	C	-0.185478	-0.320687	-0.480419
C66	C	-0.210749	-0.298929	-0.502026
C67	C	-0.189058	-0.322383	-0.547232
C68	C	-0.216462	-0.298796	-0.570658
C69	C	-0.142093	-0.367596	-0.570831
C70	C	-0.116822	-0.389348	-0.549227
C71	C	-0.138516	-0.365892	-0.504019
C72	C	0.159873	-0.666042	-0.549674
C73	C	0.203234	-0.712917	-0.571429
C74	C	0.224985	-0.736434	-0.547974
C75	C	0.271995	-0.787259	-0.571555
C76	C	0.203375	-0.713070	-0.502762
C77	C	0.160022	-0.666195	-0.481011
C78	C	0.138270	-0.642684	-0.504472
C79	C	-0.185476	-0.320689	-0.204330
C80	C	-0.210750	-0.298933	-0.157452
C81	C	-0.189059	-0.322388	-0.133935
C82	C	-0.216462	-0.298802	-0.083107
C83	C	-0.142098	-0.367598	-0.157296
C84	C	-0.116827	-0.389353	-0.204172
C85	C	-0.138518	-0.365892	-0.227687
C86	C	-0.111113	-0.389485	-0.480594
C87	C	-0.089269	-0.408289	-0.461922
C88	C	-0.089268	-0.408290	-0.319029
C89	C	-0.111111	-0.389486	-0.278515
C90	C	0.053784	-0.551344	-0.462079
C91	C	0.091257	-0.591857	-0.480881
O92	O	0.184848	-0.260027	0.011276
O93	O	0.074595	-0.204880	-0.011214
O94	O	0.074600	-0.204893	0.066402
O95	O	0.184843	-0.260014	-0.066340
O96	O	0.074604	-0.267923	0.066394
O97	O	0.074599	-0.267910	-0.011222
O98	O	0.184852	-0.323057	0.011268
Cu99	Cu	0.129726	-0.301238	0.000023
Cu100	Cu	0.129721	-0.226698	0.000031
O101	O	0.184847	-0.323044	-0.066348
O102	O	-0.334379	0.196163	0.011311
O103	O	-0.256754	0.063435	-0.011194
O104	O	-0.334371	0.141043	0.066428
O105	O	-0.256761	0.118555	-0.066311
O106	O	-0.271326	0.141026	0.066430
O107	O	-0.193709	0.063417	-0.011192
O108	O	-0.271334	0.196145	0.011313
Cu109	Cu	-0.226765	0.129780	0.000061
Cu110	Cu	-0.301323	0.129801	0.000058
O111	O	-0.193716	0.118537	-0.066309
O112	O	0.397630	-0.936754	-0.602533
O113	O	0.287385	-0.804020	-0.547414
O114	O	0.287381	-0.881614	-0.547409
O115	O	0.397633	-0.859160	-0.602537
O116	O	0.287380	-0.881613	-0.610455
O117	O	0.287383	-0.804019	-0.610460
O118	O	0.397628	-0.936753	-0.665579
Cu119	Cu	0.342506	-0.870386	-0.643776
Cu120	Cu	0.342507	-0.870387	-0.569217
O121	O	0.397632	-0.859159	-0.665583
O122	O	-0.271308	-0.267807	-0.665316
O123	O	-0.193693	-0.322936	-0.610187
O124	O	-0.271311	-0.322914	-0.610187
O125	O	-0.193690	-0.267829	-0.665317
O126	O	-0.334356	-0.259869	-0.547144
O127	O	-0.256737	-0.259891	-0.547145
O128	O	-0.334353	-0.204762	-0.602274
Cu129	Cu	-0.301302	-0.226570	-0.568953
Cu130	Cu	-0.226744	-0.301128	-0.643508
O131	O	-0.256735	-0.204784	-0.602274
C132	C	-0.456729	-0.094687	0.293242
C133	C	-0.503510	-0.044688	0.316630
C134	C	-0.434028	-0.117709	0.316162
C135	C	-0.388089	-0.163329	0.224603
C136	C	-0.361479	-0.186720	0.174603
C137	C	-0.365492	-0.186246	0.247628
C138	C	-0.388089	-0.163328	0.293246
C139	C	-0.361479	-0.186720	0.316639
C140	C	-0.434028	-0.117709	0.247623
C141	C	-0.339981	-0.205618	0.335538
C142	C	-0.541303	-0.004292	0.335526
C143	C	-0.339980	-0.205618	0.134207
C144	C	-0.313011	-0.229326	0.359247
C145	C	-0.588718	0.046385	0.359230
C146	C	-0.313010	-0.229327	0.083529
C147	C	-0.139954	-0.163437	0.293243
C148	C	-0.166562	-0.186818	0.316629
C149	C	-0.162555	-0.117825	0.316165
C150	C	-0.071312	-0.163449	0.224608
C151	C	-0.024527	-0.186842	0.174608
C152	C	-0.094017	-0.117837	0.247633
C153	C	-0.139959	-0.094813	0.293251
C154	C	-0.166572	-0.044819	0.316645
C155	C	-0.094012	-0.186358	0.247625
C156	C	-0.188074	-0.004429	0.335545
C157	C	-0.188060	-0.205707	0.335522
C158	C	0.013269	-0.205740	0.134213
C159	C	-0.215048	0.046242	0.359256
C160	C	-0.215029	-0.229404	0.359225
C161	C	0.060687	-0.229450	0.083535
C162	C	-0.388092	0.153327	0.293278
C163	C	-0.361480	0.150097	0.316669
C164	C	-0.434030	0.153657	0.316195
C165	C	-0.388097	0.153338	0.224638
C166	C	-0.361491	0.150120	0.174638
C167	C	-0.434036	0.153668	0.247659
C168	C	-0.456734	0.153346	0.293277
C169	C	-0.503514	0.150138	0.316666
C170	C	-0.365498	0.153648	0.247660
C171	C	-0.541306	0.147544	0.335562
C172	C	-0.339979	0.147487	0.335566
C173	C	-0.339995	0.147519	0.134243
C174	C	-0.588720	0.144292	0.359268
C175	C	-0.313006	0.144213	0.359273
C176	C	-0.313028	0.144257	0.083566
C177	C	0.534122	-0.500336	-0.438491
C178	C	0.556718	-0.477323	-0.461404
C179	C	0.465475	-0.431699	-0.369847
C180	C	0.488176	-0.408791	-0.392865
C181	C	0.534118	-0.431711	-0.438483
C182	C	0.488180	-0.477311	-0.392873
C183	C	0.588475	-0.665834	-0.480420
C184	C	0.613596	-0.712703	-0.502028
C185	C	0.660569	-0.736221	-0.547233
C186	C	0.687815	-0.787042	-0.570661
C187	C	0.682415	-0.712865	-0.570830
C188	C	0.657290	-0.665998	-0.549224
C189	C	0.610317	-0.642482	-0.504017
C190	C	0.657729	-0.389828	-0.549653
C191	C	0.682999	-0.368233	-0.571406
C192	C	0.661308	-0.323036	-0.547949
C193	C	0.688707	-0.299619	-0.571527
C194	C	0.614340	-0.299432	-0.502738
C195	C	0.589066	-0.321023	-0.480989
C196	C	0.610769	-0.366226	-0.504452
C197	C	0.312368	-0.389770	-0.204326
C198	C	0.269007	-0.368165	-0.157449
C199	C	0.247252	-0.322966	-0.133930
C200	C	0.200240	-0.299539	-0.083102
C201	C	0.268863	-0.299376	-0.157288
C202	C	0.312223	-0.320982	-0.204164
C203	C	0.333970	-0.366179	-0.227680
C204	C	0.583079	-0.591663	-0.480590
C205	C	0.561365	-0.551155	-0.461917
C206	C	0.418462	-0.408274	-0.319021
C207	C	0.380987	-0.389602	-0.278508
C208	C	0.561520	-0.408299	-0.462065
C209	C	0.583363	-0.389636	-0.480864
O210	O	-0.271348	0.196101	0.389818
O211	O	-0.193713	0.063374	0.334690
O212	O	-0.271345	0.140986	0.334698
O213	O	-0.193716	0.118489	0.389810
O214	O	-0.334378	0.140992	0.397745
O215	O	-0.256746	0.063380	0.397738
O216	O	-0.334382	0.196106	0.452866
Cu217	Cu	-0.301319	0.129744	0.431059
Cu218	Cu	-0.226775	0.129737	0.356497
O219	O	-0.256749	0.118494	0.452858
C220	C	0.006426	0.095650	-0.438452
C221	C	-0.016277	0.095340	-0.461370
C222	C	-0.062210	0.095659	-0.369813
C223	C	-0.084809	0.095348	-0.392834
C224	C	-0.062216	0.095670	-0.438452
C225	C	-0.016271	0.095329	-0.392834
C226	C	0.159525	0.108037	-0.480364
C227	C	0.202885	0.111541	-0.501968
C228	C	0.224633	0.113306	-0.547173
C229	C	0.271641	0.117113	-0.570597
C230	C	0.203020	0.111562	-0.570774
C231	C	0.159667	0.108052	-0.549172
C232	C	0.137919	0.106290	-0.503965
C233	C	-0.116570	0.108127	-0.549635
C234	C	-0.141691	0.111650	-0.571391
C235	C	-0.188660	0.113425	-0.547939
C236	C	-0.215906	0.117252	-0.571521
C237	C	-0.210503	0.111671	-0.502728
C238	C	-0.185378	0.108140	-0.480975
C239	C	-0.138409	0.106371	-0.504434
C240	C	-0.116539	0.108072	-0.204288
C241	C	-0.141658	0.111591	-0.157411
C242	C	-0.188626	0.113364	-0.133896
C243	C	-0.215866	0.117181	-0.083069
C244	C	-0.210476	0.111623	-0.157259
C245	C	-0.185357	0.108106	-0.204134
C246	C	-0.138384	0.106327	-0.227646
C247	C	0.090907	0.102488	-0.480543
C248	C	0.053435	0.099456	-0.461874
C249	C	-0.089445	0.099474	-0.318987
C250	C	-0.111153	0.102514	-0.278474
C251	C	-0.089458	0.099497	-0.462039
C252	C	-0.111171	0.102546	-0.480841
H253	H	-0.406330	-0.495863	0.035015
H254	H	-0.199520	-0.099344	0.353648
H255	H	0.593684	-0.495809	-0.498887
H256	H	-0.404233	-0.731756	0.016824
C257	C	0.008926	0.094734	-0.511321
C258	C	-0.028347	0.134243	-0.513775
C259	C	-0.005162	0.133701	-0.559779
H260	H	0.039584	0.094612	-0.521795
H261	H	0.019273	0.067687	-0.530389
H262	H	-0.038687	0.161282	-0.494713
H263	H	-0.059006	0.134373	-0.503310
H264	H	0.005185	0.106655	-0.578848
H265	H	0.025495	0.133579	-0.570250
H266	H	-0.030450	0.160506	-0.561451
H267	H	-0.075009	-0.223801	-0.024367
C268	C	-0.459416	0.154461	0.223029
C269	C	-0.474662	0.194391	0.210286
C270	C	-0.498052	0.195139	0.187605
H271	H	-0.434263	0.127713	0.196038
H272	H	-0.490104	0.154638	0.243285
H273	H	-0.443979	0.194209	0.190031
H274	H	-0.499821	0.221145	0.237269
H275	H	-0.528740	0.195317	0.207861
H276	H	-0.472896	0.168390	0.160616
H277	H	-0.508404	0.222234	0.178960
C278	C	-0.316248	-0.236246	0.223057
C279	C	-0.328184	-0.264225	0.247754
C280	C	-0.282831	-0.310283	0.225134
H281	H	-0.305943	-0.246713	0.192534
H282	H	-0.287692	-0.238043	0.221490
H283	H	-0.356731	-0.262431	0.249316
H284	H	-0.338482	-0.253773	0.278276
H285	H	-0.254275	-0.312080	0.223567
H286	H	-0.272530	-0.320746	0.194612
H287	H	-0.290922	-0.329272	0.241890
H288	H	0.220732	0.112996	-0.607580
C289	C	-0.211831	-0.093217	-0.024552
C290	C	-0.226834	-0.123158	-0.024783
C291	C	-0.272217	-0.100550	-0.025446
H292	H	-0.240434	-0.066254	0.002223
H293	H	-0.203831	-0.084542	-0.051628
H294	H	-0.234837	-0.131826	0.002291
H295	H	-0.198245	-0.150121	-0.051556
H296	H	-0.264217	-0.091875	-0.052523
H297	H	-0.300816	-0.073588	0.001329
H298	H	-0.282399	-0.120863	-0.025607
H299	H	-0.453030	-0.099224	0.353645
H300	H	0.251420	-0.387378	-0.138432
C301	C	-0.209118	-0.295147	-0.229776
C302	C	-0.255659	-0.250903	-0.199284
C303	C	-0.277451	-0.227364	-0.222710
H304	H	-0.183752	-0.292295	-0.255176
H305	H	-0.217705	-0.312044	-0.240944
H306	H	-0.247071	-0.234010	-0.188122
H307	H	-0.281037	-0.253741	-0.173883
H308	H	-0.286038	-0.244260	-0.233878
H309	H	-0.252082	-0.224515	-0.248109
H310	H	-0.309034	-0.197343	-0.202023
H311	H	-0.279368	-0.386644	0.016788
H312	H	-0.453019	-0.099219	0.229135
C313	C	0.136260	0.106190	-0.574862
C314	C	0.164573	0.108498	-0.619069
C315	C	0.143020	0.106791	-0.642744
H316	H	0.139083	0.077977	-0.577786
H317	H	0.099608	0.131688	-0.558011
H318	H	0.201216	0.083002	-0.635915
H319	H	0.161753	0.136709	-0.616158
H320	H	0.106369	0.132290	-0.625894
H321	H	0.145844	0.078578	-0.645665
H322	H	0.162224	0.108361	-0.672739
H323	H	-0.449791	-0.301513	0.023175
H324	H	-0.203151	0.106687	-0.223153
C325	C	-0.208993	0.106205	-0.431904
C326	C	-0.176930	0.102725	-0.417880
C327	C	-0.198664	0.100936	-0.372680
H328	H	-0.244229	0.133627	-0.411439
H329	H	-0.210242	0.079921	-0.431225
H330	H	-0.175687	0.129006	-0.418555
H331	H	-0.141694	0.075303	-0.438333
H332	H	-0.199913	0.074652	-0.372001
H333	H	-0.233899	0.128359	-0.352219
H334	H	-0.176910	0.098570	-0.363160
H335	H	-0.075013	-0.223834	0.229140
H336	H	-0.248743	0.113110	-0.483634
H337	H	0.141823	0.106602	-0.443556
C338	C	0.336033	-0.438878	-0.229810
C339	C	0.354669	-0.468942	-0.207966
C340	C	0.376483	-0.514185	-0.231434
H341	H	0.309259	-0.439663	-0.229288
H342	H	0.364972	-0.448392	-0.261069
H343	H	0.325733	-0.459430	-0.176714
H344	H	0.381449	-0.468171	-0.208487
H345	H	0.405422	-0.523699	-0.262693
H346	H	0.349706	-0.514965	-0.230911
H347	H	0.389134	-0.534589	-0.216619
H348	H	-0.124437	-0.386697	-0.138146
C349	C	-0.537266	-0.501897	0.035216
C350	C	-0.582443	-0.471951	0.035430
C351	C	-0.605883	-0.494544	0.036095
H352	H	-0.512124	-0.528866	0.008447
H353	H	-0.547672	-0.510561	0.062299
H354	H	-0.572035	-0.463294	0.008350
H355	H	-0.607596	-0.444981	0.062197
H356	H	-0.616289	-0.503207	0.063177
H357	H	-0.580737	-0.521512	0.009326
H358	H	-0.636540	-0.474227	0.036244
C359	C	-0.068749	-0.093100	-0.024546
C360	C	-0.098479	-0.048140	-0.024757
C361	C	-0.075211	-0.025377	-0.025416
H362	H	-0.068548	-0.091477	0.002224
H363	H	-0.032999	-0.109777	-0.051627
H364	H	-0.134219	-0.031467	0.002321
H365	H	-0.098681	-0.049750	-0.051525
H366	H	-0.039461	-0.042054	-0.052497
H367	H	-0.075012	-0.023757	0.001355
H368	H	-0.095376	0.005129	-0.025564
H369	H	-0.670191	-0.301795	0.023164
C370	C	-0.068589	-0.093288	0.222926
C371	C	-0.023408	-0.123232	0.177965
C372	C	0.000033	-0.100636	0.155196
H373	H	-0.093729	-0.066318	0.221296
H374	H	-0.058187	-0.084626	0.239607
H375	H	-0.033811	-0.131887	0.161288
H376	H	0.001744	-0.150202	0.179581
H377	H	0.010435	-0.091975	0.171877
H378	H	-0.025111	-0.073667	0.153569
H379	H	0.030694	-0.120951	0.124689
H380	H	-0.279375	-0.732074	0.016803
H381	H	-0.530828	-0.371361	0.035000
C382	C	-0.462541	-0.640427	0.023654
C383	C	-0.476290	-0.670909	0.021353
C384	C	-0.523242	-0.647483	0.023083
H385	H	-0.490807	-0.615023	0.051875
H386	H	-0.456794	-0.629268	-0.001841
H387	H	-0.482040	-0.682061	0.046847
H388	H	-0.448037	-0.696313	-0.006865
H389	H	-0.517496	-0.636324	-0.002413
H390	H	-0.551504	-0.622080	0.051304
H391	H	-0.532574	-0.668162	0.021517
H392	H	-0.453021	0.154166	0.353675
H393	H	0.002708	0.094842	-0.374340
C394	C	-0.316223	0.154346	0.223100
C395	C	-0.301199	0.154550	0.253041
C396	C	-0.255814	0.155197	0.230433
H397	H	-0.287628	0.127576	0.196130
H398	H	-0.324227	0.181422	0.214431
H399	H	-0.293192	0.127476	0.261703
H400	H	-0.329781	0.181318	0.280011
H401	H	-0.263819	0.182274	0.221764
H402	H	-0.227223	0.128427	0.203464
H403	H	-0.245618	0.155340	0.250746
H404	H	0.550227	-0.646691	-0.443611
C405	C	0.462913	-0.502017	-0.368315
C406	C	0.492644	-0.546974	-0.398259
C407	C	0.469382	-0.569742	-0.375655
H408	H	0.462715	-0.503645	-0.341346
H409	H	0.427162	-0.485340	-0.359645
H410	H	0.528386	-0.563647	-0.406923
H411	H	0.492844	-0.545359	-0.425229
H412	H	0.433631	-0.553065	-0.366985
H413	H	0.469185	-0.571367	-0.348686
H414	H	0.489548	-0.600246	-0.395969
H415	H	-0.248722	0.113066	-0.138110
H416	H	-0.123871	0.113020	-0.138389
C417	C	-0.209098	-0.295132	-0.431346
C418	C	-0.255624	-0.250879	-0.415310
C419	C	-0.277391	-0.227325	-0.370109
H420	H	-0.217702	-0.311997	-0.411563
H421	H	-0.183698	-0.292301	-0.431348
H422	H	-0.281018	-0.253712	-0.415305
H423	H	-0.247033	-0.234002	-0.435080
H424	H	-0.251991	-0.224494	-0.370111
H425	H	-0.285992	-0.244194	-0.350330
H426	H	-0.308958	-0.197295	-0.359224
H427	H	-0.078293	0.106626	-0.223429
H428	H	-0.248988	-0.262118	-0.482808
C429	C	0.226253	0.113457	-0.476258
C430	C	0.197919	0.111175	-0.432042
C431	C	0.219424	0.112946	-0.408342
H432	H	0.262902	0.087980	-0.493071
H433	H	0.223402	0.141689	-0.473356
H434	H	0.200775	0.082946	-0.434946
H435	H	0.161270	0.136650	-0.415217
H436	H	0.216573	0.141178	-0.405440
H437	H	0.256073	0.087468	-0.425158
H438	H	0.200200	0.111402	-0.378337
C439	C	-0.065563	0.106182	-0.575189
C440	C	-0.051802	0.108459	-0.619441
C441	C	-0.004816	0.106663	-0.642995
H442	H	-0.071258	0.131651	-0.558315
H443	H	-0.037324	0.077943	-0.578032
H444	H	-0.080035	0.136694	-0.616597
H445	H	-0.046096	0.082991	-0.636328
H446	H	0.023424	0.078424	-0.645837
H447	H	-0.010516	0.132132	-0.626116
H448	H	0.004530	0.108203	-0.673023
H449	H	0.469173	-0.371314	-0.374376
C450	C	-0.410071	-0.249799	0.016330
C451	C	-0.378023	-0.235778	0.012882
C452	C	-0.399792	-0.190566	0.011140
H453	H	-0.411341	-0.249075	-0.009946
H454	H	-0.445308	-0.229361	0.043771
H455	H	-0.342795	-0.256210	-0.014557
H456	H	-0.376750	-0.236491	0.039155
H457	H	-0.435029	-0.170128	0.038582
H458	H	-0.401062	-0.189846	-0.015136
H459	H	-0.378054	-0.181045	0.008805
H460	H	0.220826	-0.731936	-0.608240
H461	H	-0.669936	-0.426596	0.023186
C462	C	0.589815	-0.737985	-0.476322
C463	C	0.543312	-0.707364	-0.432104
C464	C	0.521394	-0.730638	-0.408408
H465	H	0.581153	-0.749153	-0.493136
H466	H	0.615154	-0.763375	-0.473422
H467	H	0.517977	-0.681982	-0.435007
H468	H	0.551959	-0.696194	-0.415279
H469	H	0.546733	-0.756028	-0.405508
H470	H	0.512735	-0.741805	-0.425225
H471	H	0.489842	-0.709867	-0.378402
H472	H	0.251148	-0.262571	-0.138136
C473	C	-0.754371	-0.393876	0.016311
C474	C	-0.726036	-0.438088	0.018600
C475	C	-0.747545	-0.461773	0.016827
H476	H	-0.791019	-0.377057	0.041787
H477	H	-0.751523	-0.396777	-0.011927
H478	H	-0.728888	-0.435185	0.046834
H479	H	-0.689388	-0.454918	-0.006874
H480	H	-0.744697	-0.464674	-0.011412
H481	H	-0.784193	-0.444951	0.042303
H482	H	-0.728320	-0.491775	0.018375
H483	H	0.720658	-0.732016	-0.607637
C484	C	-0.754808	-0.250335	0.016268
C485	C	-0.797395	-0.236462	0.012798
C486	C	-0.819207	-0.191272	0.010996
H487	H	-0.767518	-0.229821	0.043686
H488	H	-0.728005	-0.249608	-0.010027
H489	H	-0.824193	-0.237185	0.039090
H490	H	-0.784698	-0.256963	-0.014619
H491	H	-0.792403	-0.190545	-0.015299
H492	H	-0.831913	-0.170762	0.038414
H493	H	-0.848100	-0.181855	0.008637
C494	C	-0.118088	0.113639	-0.620442
C495	C	-0.155576	0.155277	-0.620362
C496	C	-0.133857	0.157124	-0.665540
H497	H	-0.086530	0.112109	-0.631344
H498	H	-0.109492	0.088180	-0.640241
H499	H	-0.164165	0.180729	-0.600571
H500	H	-0.187136	0.156816	-0.609469
H501	H	-0.125260	0.131665	-0.685339
H502	H	-0.102299	0.155592	-0.676438
H503	H	-0.159290	0.185373	-0.665493
H504	H	0.675078	-0.646985	-0.568440
H505	H	0.675402	-0.426632	-0.568760
C506	C	-0.318919	-0.438371	0.023618
C507	C	-0.272401	-0.454271	0.021309
C508	C	-0.250442	-0.499491	0.023028
H509	H	-0.344217	-0.438465	0.051839
H510	H	-0.310271	-0.458169	-0.001878
H511	H	-0.281050	-0.434477	0.046803
H512	H	-0.247091	-0.454188	-0.006909
H513	H	-0.241795	-0.519289	-0.002468
H514	H	-0.275744	-0.499580	0.051249
H515	H	-0.218875	-0.510286	0.021458
H516	H	-0.124434	-0.386687	-0.607639
H517	H	0.721240	-0.387454	-0.608215
H518	H	-0.324951	-0.647041	0.023180
H519	H	0.596674	-0.262628	-0.483641
H520	H	0.003071	-0.495979	-0.374389
C521	C	0.538096	-0.295331	-0.431896
C522	C	0.524512	-0.251131	-0.416001
C523	C	0.477567	-0.227453	-0.370776
H524	H	0.509777	-0.292402	-0.431799
H525	H	0.543790	-0.312179	-0.412094
H526	H	0.518815	-0.234287	-0.435798
H527	H	0.552817	-0.254046	-0.416087
H528	H	0.483260	-0.244301	-0.350973
H529	H	0.449252	-0.224528	-0.370683
H530	H	0.468346	-0.197463	-0.359983
C531	C	0.335773	-0.295454	-0.229599
C532	C	0.378411	-0.324054	-0.275680
C533	C	0.400122	-0.300555	-0.299123
H534	H	0.308952	-0.267908	-0.229054
H535	H	0.348409	-0.287667	-0.214791
H536	H	0.365774	-0.331835	-0.290484
H537	H	0.405242	-0.351601	-0.276239
H538	H	0.412758	-0.292768	-0.284315
H539	H	0.373298	-0.273010	-0.298574
H540	H	0.429057	-0.319958	-0.330390
H541	H	-0.121775	0.094840	-0.374350
H542	H	-0.121427	-0.371477	-0.374400
C543	C	0.009343	-0.502058	-0.511399
C544	C	-0.020385	-0.472116	-0.526635
C545	C	0.002886	-0.494721	-0.572680
H546	H	0.045088	-0.510734	-0.530480
H547	H	0.009541	-0.529024	-0.513214
H548	H	-0.020576	-0.445158	-0.524823
H549	H	-0.056129	-0.463438	-0.507566
H550	H	0.003084	-0.521688	-0.574496
H551	H	0.038630	-0.503397	-0.591758
H552	H	-0.017283	-0.474411	-0.583023
H553	H	-0.078582	-0.426158	-0.568445
C554	C	-0.261692	-0.249823	-0.132052
C555	C	-0.253146	-0.220784	-0.115634
C556	C	-0.300062	-0.175540	-0.092230
H557	H	-0.271034	-0.238904	-0.152727
H558	H	-0.289974	-0.249749	-0.106632
H559	H	-0.224873	-0.220856	-0.141051
H560	H	-0.243811	-0.231687	-0.094954
H561	H	-0.328343	-0.175467	-0.066809
H562	H	-0.309399	-0.164626	-0.112907
H563	H	-0.294271	-0.155833	-0.081083
C564	C	0.136355	-0.640590	-0.575231
C565	C	0.164569	-0.671077	-0.619483
C566	C	0.142922	-0.647644	-0.643039
H567	H	0.099700	-0.629404	-0.558358
H568	H	0.139197	-0.615201	-0.578072
H569	H	0.161722	-0.696458	-0.616640
H570	H	0.201223	-0.682264	-0.636368
H571	H	0.145764	-0.622254	-0.645880
H572	H	0.106268	-0.636459	-0.626163
H573	H	0.162065	-0.668324	-0.673068
H574	H	0.142432	-0.647175	-0.444202
C575	C	0.227049	-0.738683	-0.477364
C576	C	0.269635	-0.784737	-0.506084
C577	C	0.291450	-0.808349	-0.482700
H578	H	0.239760	-0.723982	-0.469560
H579	H	0.200247	-0.738168	-0.449825
H580	H	0.296431	-0.785250	-0.533614
H581	H	0.256938	-0.799452	-0.513889
H582	H	0.264649	-0.807833	-0.455161
H583	H	0.304158	-0.793643	-0.474897
H584	H	0.320344	-0.839599	-0.502181
H585	H	-0.078589	-0.426164	-0.223190
