data_functionalizedCrystal
_audit_creation_method	'MofGen! by Chris Wilmer'
_symmetry_space_group_name_H-M	'P1'
_symmetry_Int_Tables_number	1
_symmetry_cell_setting	triclinic
loop_
_symmetry_equiv_pos_as_xyz
  x,y,z
_cell_length_a	9.065218
_cell_length_b	11.892095
_cell_length_c	9.065215
_cell_angle_alpha	86.052098
_cell_angle_beta	85.015291
_cell_angle_gamma	93.956904
loop_
_atom_site_label
_atom_site_type_symbol
_atom_site_fract_x
_atom_site_fract_y
_atom_site_fract_z
O1	O	1.969708	0.094004	0.207050
O2	O	1.540423	0.094005	0.224796
O3	O	1.763940	0.094000	0.001281
O4	O	1.746190	0.094009	0.430565
O5	O	1.745304	-0.094007	0.019888
O6	O	1.521786	-0.094002	0.243403
O7	O	1.951071	-0.094003	0.225657
Zn8	Zn	1.733470	-0.123853	0.237485
Zn9	Zn	1.758024	0.123855	0.212969
O10	O	1.727554	-0.093998	0.449172
C11	C	1.476118	0.000002	0.232394
C12	C	1.312275	0.000002	0.227294
N13	N	1.716722	-0.292906	0.254215
C14	C	1.891317	-0.529559	0.079723
C15	C	1.879622	-0.647900	0.091428
C16	C	1.681630	-0.647933	0.289323
C17	C	1.693325	-0.529592	0.277618
C18	C	1.798174	-0.470408	0.172816
C19	C	1.809876	-0.352065	0.161118
C20	C	1.611877	-0.352100	0.359005
C21	C	1.600182	-0.470442	0.370711
C22	C	2.015376	0.000003	0.218059
C23	C	2.179220	0.000010	0.223158
C24	C	1.752917	-0.000003	-0.044402
C25	C	1.747820	0.000001	-0.208246
N26	N	1.774783	0.292908	0.196227
C27	C	1.738577	0.000007	0.494855
C28	C	1.743676	0.000011	0.658698
H29	H	1.976699	-0.481371	-0.005602
H30	H	1.536038	-0.303927	0.434812
H31	H	1.596255	-0.696136	0.374641
H32	H	1.955467	-0.696057	0.015621
C33	C	1.484815	-0.535544	0.485945
H34	H	1.431000	-0.483363	0.539693
H35	H	1.534106	-0.581721	0.552686
H36	H	1.418131	-0.581697	0.436526
C37	C	1.925197	-0.286964	0.045837
H38	H	1.978982	-0.339146	-0.007939
H39	H	1.991895	-0.240786	0.095194
H40	H	1.875846	-0.240812	-0.020892
