data_functionalizedCrystal
_audit_creation_method	'MofGen! by Chris Wilmer'
_symmetry_space_group_name_H-M	'P1'
_symmetry_Int_Tables_number	1
_symmetry_cell_setting	triclinic
loop_
_symmetry_equiv_pos_as_xyz
  x,y,z
_cell_length_a	10.540510
_cell_length_b	10.540539
_cell_length_c	12.996460
_cell_angle_alpha	89.996006
_cell_angle_beta	89.994188
_cell_angle_gamma	84.519401
loop_
_atom_site_label
_atom_site_type_symbol
_atom_site_fract_x
_atom_site_fract_y
_atom_site_fract_z
O1	O	1.685911	0.178723	-0.085568
O2	O	1.316493	0.195618	-0.085568
O3	O	1.509630	0.002463	-0.085567
O4	O	1.492774	0.371878	-0.085569
O5	O	1.509610	0.002452	0.085567
O6	O	1.316473	0.195607	0.085566
O7	O	1.685891	0.178712	0.085566
Cu8	Cu	1.501180	0.187159	0.101192
Cu9	Cu	1.501204	0.187171	-0.101194
O10	O	1.492754	0.371867	0.085564
C11	C	1.269179	0.194354	-0.000001
C12	C	1.128229	0.190587	-0.000002
C13	C	0.910774	0.324771	-0.000396
C14	C	1.057370	0.328789	-0.000004
C15	C	1.083458	0.119834	0.097722
C16	C	0.936697	0.116795	0.097798
C17	C	0.936914	0.113930	-0.096813
C18	C	1.083255	0.120485	-0.098099
C19	C	1.508356	-0.044845	-0.000002
C20	C	1.504574	-0.185793	-0.000007
C21	C	1.359655	-0.369204	-0.000391
C22	C	1.363489	-0.222587	-0.000006
C23	C	1.572459	-0.247464	0.097719
C24	C	1.567644	-0.394008	0.097801
C25	C	1.570536	-0.394514	-0.096810
C26	C	1.571836	-0.247532	-0.098102
C27	C	1.733204	0.179976	-0.000003
C28	C	1.874154	0.183743	-0.000010
C29	C	1.494028	0.419175	-0.000003
C30	C	1.497810	0.560123	-0.000004
N31	N	1.501172	0.187149	0.243539
N32	N	1.501222	0.187171	-0.243541
C33	C	1.501202	0.187173	0.663353
C34	C	1.501190	0.187170	0.546548
C35	C	1.501188	0.187162	0.453450
C36	C	1.501174	0.187157	0.336637
H37	H	0.896472	0.165139	0.170847
H38	H	1.309681	-0.180829	0.070164
H39	H	1.111882	0.171964	-0.170394
H40	H	0.868829	0.378617	-0.070479
N41	N	1.124292	0.184933	0.194051
H42	H	1.046594	0.215389	0.235956
H43	H	1.181880	0.122749	0.236049
H44	H	1.303931	-0.397794	-0.070472
H45	H	0.867259	0.378298	0.069290
H46	H	1.517456	-0.422207	0.170853
H47	H	1.676067	-0.225121	0.101352
N48	N	1.702038	-0.457575	0.103681
H49	H	1.764144	-0.390365	0.106213
H50	H	1.711694	-0.511894	0.167735
N51	N	1.509998	-0.191028	0.194056
H52	H	1.437741	-0.125530	0.174619
H53	H	1.475664	-0.260864	0.235946
H54	H	1.524883	-0.426057	-0.170880
N55	N	1.708094	-0.215478	-0.105920
H56	H	1.748809	-0.256405	-0.169612
H57	H	1.709622	-0.119967	-0.110236
H58	H	1.132324	0.019587	-0.103999
H59	H	1.522165	-0.206664	-0.170397
H60	H	1.085765	0.384467	0.070166
N61	N	1.705522	-0.457076	-0.097688
H62	H	1.719553	-0.514528	-0.035718
H63	H	1.720221	-0.509157	-0.162562
H64	H	1.310073	-0.179973	-0.070060
N65	N	1.096266	0.402104	-0.092796
H66	H	1.018117	0.432100	-0.134323
H67	H	1.140091	0.478191	-0.069381
H68	H	0.914760	0.010168	-0.097473
H69	H	0.894375	0.157517	-0.170883
N70	N	0.906222	-0.020118	0.103678
H71	H	0.988096	-0.078232	0.106215
H72	H	0.854599	-0.032621	0.167731
N73	N	1.146232	-0.014931	0.102554
H74	H	1.204436	-0.031456	0.041295
H75	H	1.197553	-0.026781	0.168053
H76	H	1.304141	-0.399410	0.069297
