data_functionalizedCrystal
_audit_creation_method	'MofGen! by Chris Wilmer'
_symmetry_space_group_name_H-M	'P1'
_symmetry_Int_Tables_number	1
_symmetry_cell_setting	triclinic
loop_
_symmetry_equiv_pos_as_xyz
  x,y,z
_cell_length_a	16.956984
_cell_length_b	10.654550
_cell_length_c	16.053802
_cell_angle_alpha	92.591674
_cell_angle_beta	87.610701
_cell_angle_gamma	80.269161
loop_
_atom_site_label
_atom_site_type_symbol
_atom_site_fract_x
_atom_site_fract_y
_atom_site_fract_z
O1	O	1.061660	0.046369	-0.069432
O2	O	1.561660	0.546369	0.430568
O3	O	0.829746	0.090434	-0.069433
O4	O	1.329746	0.590434	0.430567
O5	O	0.951035	-0.114964	-0.069429
O6	O	1.451035	0.385036	0.430571
O7	O	0.940371	0.251767	-0.069436
O8	O	1.440371	0.751767	0.430564
O9	O	0.944359	-0.103702	0.069429
O10	O	1.444359	0.396298	0.569429
O11	O	0.823070	0.101696	0.069426
O12	O	1.323070	0.601696	0.569426
O13	O	1.054984	0.057631	0.069426
O14	O	1.554984	0.557631	0.569426
Zn15	Zn	0.937967	0.081451	0.091473
Zn16	Zn	1.437967	0.581451	0.591473
Zn17	Zn	0.946763	0.066613	-0.091479
Zn18	Zn	1.446763	0.566613	0.408521
O19	O	0.933695	0.263029	0.069423
O20	O	1.433695	0.763029	0.569423
C21	C	0.796712	0.098321	-0.000003
C22	C	1.296712	0.598321	0.499997
C23	C	0.708229	0.105030	-0.000004
C24	C	1.208229	0.605030	0.499996
C25	C	0.675524	-0.007136	-0.000000
C26	C	1.175524	0.492864	0.500000
C27	C	0.592384	-0.000826	-0.000006
C28	C	1.092384	0.499174	0.499994
C29	C	0.541950	0.117653	-0.000010
C30	C	1.041950	0.617653	0.499990
C31	C	0.574660	0.229827	-0.000016
C32	C	1.074660	0.729827	0.499984
C33	C	0.657799	0.223515	-0.000016
C34	C	1.157799	0.723515	0.499984
C35	C	0.292350	0.148896	-0.000016
C36	C	0.792350	0.648896	0.499984
C37	C	0.209206	0.155200	-0.000014
C38	C	0.709206	0.655200	0.499986
C39	C	0.226936	-0.075454	-0.000006
C40	C	0.726936	0.424546	0.499994
C41	C	0.310076	-0.081755	-0.000001
C42	C	0.810076	0.418245	0.499999
C43	C	0.342779	0.030419	-0.000011
C44	C	0.842779	0.530419	0.499989
N45	N	0.456967	0.124106	-0.000013
N46	N	0.956967	0.624106	0.499987
N47	N	0.427760	0.023964	-0.000013
N48	N	0.927760	0.523964	0.499987
C49	C	0.946914	-0.156039	-0.000001
C50	C	1.446914	0.343961	0.499999
C51	C	0.944571	-0.295208	-0.000004
C52	C	1.444571	0.204792	0.499996
C53	C	1.015984	-0.383087	-0.000001
C54	C	1.515984	0.116913	0.499999
C55	C	1.013779	-0.513849	-0.000007
C56	C	1.513779	-0.013849	0.499993
C57	C	0.868740	-0.468838	-0.000015
C58	C	1.368740	0.031162	0.499985
C59	C	0.870947	-0.338079	-0.000015
C60	C	1.370947	0.161921	0.499985
C61	C	1.089608	-0.340215	0.000009
C62	C	1.589608	0.159785	0.500009
C63	C	1.161027	-0.428097	0.000013
C64	C	1.661027	0.071903	0.500013
C65	C	1.158821	-0.558859	0.000007
C66	C	1.658821	-0.058859	0.500007
C67	C	1.085197	-0.601739	-0.000002
C68	C	1.585197	-0.101739	0.499998
C69	C	1.088018	0.049743	-0.000005
C70	C	1.588018	0.549743	0.499995
C71	C	1.176501	0.043034	-0.000010
C72	C	1.676501	0.543034	0.499990
C73	C	0.937816	0.304104	-0.000007
C74	C	1.437816	0.804104	0.499993
C75	C	0.940159	0.443272	-0.000010
C76	C	1.440159	0.943272	0.499990
N77	N	0.931969	0.091577	0.216333
N78	N	1.431969	0.591577	0.716333
N79	N	0.952767	0.056477	-0.216340
N80	N	1.452767	0.556477	0.283660
C81	C	0.983597	0.004206	0.260028
C82	C	1.483597	0.504206	0.760028
C83	C	0.979409	0.011300	0.347435
C84	C	1.479409	0.511300	0.847435
C85	C	0.923597	0.105771	0.391145
C86	C	1.423597	0.605771	0.891145
C87	C	0.871964	0.193145	0.347443
C88	C	1.371964	0.693145	0.847443
C89	C	0.876148	0.186045	0.260038
C90	C	1.376148	0.686045	0.760038
C91	C	0.905318	0.136751	0.652554
C92	C	1.405318	0.636751	1.152554
C93	C	0.901139	0.143847	0.739965
C94	C	1.401139	0.643847	1.239965
C95	C	1.008584	-0.038000	0.739951
C96	C	1.508584	0.462000	1.239951
C97	C	1.012767	-0.045087	0.652544
C98	C	1.512767	0.454913	1.152544
C99	C	0.961131	0.042283	0.608850
C100	C	1.461131	0.542283	1.108850
N101	N	0.919317	0.113027	0.480488
N102	N	1.419317	0.613027	0.980488
N103	N	0.965408	0.035020	0.519508
N104	N	1.465408	0.535020	1.019508
H105	H	0.200300	-0.166780	-0.000007
H106	H	0.700300	0.333220	0.499993
H107	H	0.826516	0.270062	0.383037
H108	H	1.326516	0.770062	0.883037
H109	H	1.216974	-0.630410	0.000002
H110	H	1.716974	-0.130410	0.500002
H111	H	0.168143	0.251685	-0.000013
H112	H	0.668143	0.751685	0.499987
H113	H	0.716582	-0.103614	0.000006
H114	H	1.216582	0.396386	0.500006
H115	H	0.812796	-0.266525	-0.000016
H116	H	1.312796	0.233475	0.499984
H117	H	1.220971	-0.393175	-0.000000
H118	H	1.720971	0.106825	0.500000
H119	H	0.351134	-0.178232	0.000006
H120	H	0.851134	0.321768	0.500006
H121	H	1.083407	-0.708217	-0.000016
H122	H	1.583407	-0.208217	0.499984
H123	H	0.863275	0.207894	0.616985
H124	H	1.363275	0.707894	1.116985
H125	H	1.021448	-0.059844	0.383011
H126	H	1.521448	0.440156	0.883011
H127	H	0.684425	0.314853	-0.000014
H128	H	1.184425	0.814853	0.499986
H129	H	0.318967	0.240236	-0.000030
H130	H	0.818967	0.740236	0.499970
H131	H	0.808799	-0.503763	-0.000021
H132	H	1.308799	-0.003763	0.499979
H133	H	0.834106	0.257189	0.224462
H134	H	1.334106	0.757189	0.724462
H135	H	1.029049	-0.072717	0.224446
H136	H	1.529049	0.427283	0.724446
H137	H	0.533590	0.326294	-0.000024
H138	H	1.033590	0.826294	0.499976
H139	H	1.091412	-0.233745	0.000017
H140	H	1.591412	0.266255	0.500017
H141	H	1.058214	-0.122013	0.616957
H142	H	1.558214	0.377987	1.116957
H143	H	1.050623	-0.109134	0.775534
H144	H	1.550623	0.390866	1.275534
H145	H	0.565760	-0.092164	-0.000004
H146	H	1.065760	0.407836	0.499996
H147	H	0.855687	0.220782	0.775550
H148	H	1.355687	0.720782	1.275550
