data_functionalizedCrystal
_audit_creation_method	'MofGen! by Chris Wilmer'
_symmetry_space_group_name_H-M	'P1'
_symmetry_Int_Tables_number	1
_symmetry_cell_setting	triclinic
loop_
_symmetry_equiv_pos_as_xyz
  x,y,z
_cell_length_a	11.792241
_cell_length_b	10.654562
_cell_length_c	9.730223
_cell_angle_alpha	89.997803
_cell_angle_beta	89.996745
_cell_angle_gamma	95.658240
loop_
_atom_site_label
_atom_site_type_symbol
_atom_site_fract_x
_atom_site_fract_y
_atom_site_fract_z
O1	O	-0.159484	1.667372	-0.114364
O2	O	-0.174658	1.301853	-0.114345
O3	O	-0.001921	1.493482	-0.114363
O4	O	-0.332221	1.475742	-0.114346
O5	O	-0.001924	1.493483	0.114217
O6	O	-0.174661	1.301854	0.114235
O7	O	-0.159487	1.667373	0.114216
Zn8	Zn	-0.167074	1.484613	0.150518
Zn9	Zn	-0.167071	1.484612	-0.150646
O10	O	-0.332223	1.475743	0.114234
C11	C	-0.173542	1.255059	-0.000053
C12	C	-0.170200	1.115626	-0.000047
C13	C	-0.168642	1.050100	0.124542
C14	C	-0.165511	0.919086	0.124518
C15	C	-0.165499	0.919135	-0.124692
C16	C	-0.168623	1.050148	-0.124667
C17	C	-0.168654	1.050070	0.268421
C18	C	-0.165523	0.919056	0.268398
C19	C	-0.374516	1.476857	-0.000054
C20	C	-0.500537	1.480192	-0.000048
C21	C	-0.731264	1.486326	-0.000083
C22	C	-0.602871	1.482918	-0.000064
C23	C	0.040371	1.492369	-0.000078
C24	C	0.166392	1.489033	-0.000093
C25	C	-0.160603	1.714167	-0.000079
C26	C	-0.163945	1.853600	-0.000094
N27	N	-0.167076	1.484624	0.356054
C28	C	-0.236554	1.561249	0.571888
C29	C	-0.236560	1.561251	0.428005
C30	C	-0.097591	1.407980	0.427993
C31	C	-0.097592	1.407973	0.571874
C32	C	-0.316783	1.649743	0.571893
C33	C	-0.316789	1.649744	0.428010
N34	N	-0.167072	1.484615	0.643817
H35	H	-0.243965	0.872549	0.323638
F36	F	-0.023656	1.326390	0.648422
F37	F	-0.057417	0.880669	0.326979
F38	F	-0.023651	1.326417	0.351414
H39	H	-0.288894	1.748878	0.388960
H40	H	-0.090215	1.096552	0.323670
F41	F	-0.433771	1.608987	0.622942
H42	H	-0.402258	1.609991	0.383392
H43	H	-0.169873	1.103496	-0.226119
F44	F	-0.163810	0.849440	-0.257315
F45	F	-0.276851	1.088427	0.326780
F46	F	-0.270170	1.773496	0.630231
