data_functionalizedCrystal
_audit_creation_method	'MofGen! by Chris Wilmer'
_symmetry_space_group_name_H-M	'P1'
_symmetry_Int_Tables_number	1
_symmetry_cell_setting	triclinic
loop_
_symmetry_equiv_pos_as_xyz
  x,y,z
_cell_length_a	19.077105
_cell_length_b	21.295417
_cell_length_c	19.076919
_cell_angle_alpha	92.266620
_cell_angle_beta	90.076224
_cell_angle_gamma	87.726672
loop_
_atom_site_label
_atom_site_type_symbol
_atom_site_fract_x
_atom_site_fract_y
_atom_site_fract_z
Zn1	Zn	1.058236	-0.304534	-0.440387
Zn2	Zn	1.558236	0.195466	0.059613
Zn3	Zn	1.062864	-0.405747	-0.322870
Zn4	Zn	1.562864	0.094253	0.177130
Zn5	Zn	0.945454	-0.296102	-0.318181
Zn6	Zn	1.445454	0.203898	0.181819
Zn7	Zn	0.940686	-0.405368	-0.435623
Zn8	Zn	1.440686	0.094632	0.064377
O9	O	1.001810	-0.352938	-0.379265
O10	O	1.501810	0.147062	0.120735
O11	O	1.157181	-0.321649	-0.428754
O12	O	1.657181	0.178351	0.071246
O13	O	1.051222	-0.387832	-0.223917
O14	O	1.551222	0.112168	0.276083
O15	O	0.960474	-0.209134	-0.334424
O16	O	1.460474	0.290866	0.165576
O17	O	1.160581	-0.396009	-0.342415
O18	O	1.660581	0.103991	0.157585
O19	O	1.043334	-0.215330	-0.424208
O20	O	1.543334	0.284670	0.075792
O21	O	0.964962	-0.307276	-0.220472
O22	O	1.464962	0.192724	0.279528
O23	O	0.846490	-0.306908	-0.329804
O24	O	1.346490	0.193092	0.170196
O25	O	0.952346	-0.395362	-0.534586
O26	O	1.452346	0.104638	-0.034586
O27	O	0.842987	-0.387185	-0.416088
O28	O	1.342987	0.112815	0.083912
O29	O	1.038710	-0.321280	-0.538086
O30	O	1.538710	0.178720	-0.038086
O31	O	1.046598	-0.493783	-0.337795
O32	O	1.546598	0.006217	0.162205
O33	O	0.956834	-0.493504	-0.420634
O34	O	1.456834	0.006496	0.079366
C35	C	0.819242	-0.346091	-0.371921
C36	C	1.319242	0.153909	0.128079
C37	C	0.741139	-0.343178	-0.368795
C38	C	1.241139	0.156822	0.131205
C39	C	0.702642	-0.383663	-0.412179
C40	C	1.202642	0.116337	0.087821
C41	C	0.629255	-0.380918	-0.409246
C42	C	1.129255	0.119082	0.090754
C43	C	0.594366	-0.337689	-0.362924
C44	C	1.094366	0.162311	0.137076
C45	C	0.632868	-0.297199	-0.319538
C46	C	1.132868	0.202801	0.180462
C47	C	0.706253	-0.299942	-0.322476
C48	C	1.206253	0.200058	0.177524
C49	C	0.375080	-0.324994	-0.349333
C50	C	0.875080	0.175006	0.150667
C51	C	0.301690	-0.322256	-0.346397
C52	C	0.801690	0.177744	0.153603
C53	C	0.298082	-0.405974	-0.436106
C54	C	0.798082	0.094026	0.063894
C55	C	0.371470	-0.408715	-0.439037
C56	C	0.871470	0.091285	0.060963
C57	C	0.409965	-0.368223	-0.395653
C58	C	0.909965	0.131777	0.104347
N59	N	0.519353	-0.334883	-0.359923
N60	N	1.019353	0.165117	0.140077
N61	N	0.484976	-0.371027	-0.398658
N62	N	0.984976	0.128973	0.101342
C63	C	1.001719	-0.516485	-0.379223
C64	C	1.501719	-0.016485	0.120777
C65	C	1.001744	-0.586454	-0.379231
C66	C	1.501744	-0.086454	0.120769
C67	C	1.048522	-0.619448	-0.336144
C68	C	1.548522	-0.119448	0.163856
C69	C	1.048554	-0.685192	-0.336161
C70	C	1.548554	-0.185192	0.163839
C71	C	1.001796	-0.717939	-0.379257
C72	C	1.501796	-0.217939	0.120743
C73	C	0.955015	-0.684937	-0.422352
C74	C	1.455015	-0.184937	0.077648
C75	C	0.954989	-0.619195	-0.422339
C76	C	1.454989	-0.119195	0.077661
N77	N	0.940111	-0.819089	-0.382141
N78	N	1.440111	-0.319089	0.117859
N79	N	0.940138	-0.881541	-0.382149
N80	N	1.440138	-0.381541	0.117851
C81	C	1.001873	-0.916018	-0.379300
C82	C	1.501873	-0.416018	0.120700
N83	N	1.063583	-0.885683	-0.376429
N84	N	1.563583	-0.385683	0.123571
N85	N	1.063555	-0.823224	-0.376417
N86	N	1.563555	-0.323224	0.123583
C87	C	1.001820	-0.789226	-0.379276
C88	C	1.501820	-0.289226	0.120724
C89	C	1.048690	-1.020300	-0.336230
C90	C	1.548690	-0.520300	0.163770
C91	C	1.048724	-1.086046	-0.336252
C92	C	1.548724	-0.586046	0.163748
C93	C	0.955178	-1.085789	-0.422439
C94	C	1.455178	-0.585789	0.077561
C95	C	0.955151	-1.020045	-0.422421
C96	C	1.455151	-0.520045	0.077579
C97	C	1.001906	-0.987304	-0.379313
C98	C	1.501906	-0.487304	0.120687
C99	C	1.185090	-0.359812	-0.386639
C100	C	1.685090	0.140188	0.113361
C101	C	1.263193	-0.362741	-0.389782
C102	C	1.763193	0.137259	0.110218
C103	C	0.994480	-0.359220	-0.562545
C104	C	1.494480	0.140780	-0.062545
C105	C	0.991356	-0.361897	-0.640648
C106	C	1.491356	0.138103	-0.140648
C107	C	1.001919	-0.188754	-0.379324
C108	C	1.501919	0.311246	0.120676
C109	C	1.001966	-0.118788	-0.379349
C110	C	1.501966	0.381212	0.120651
C111	C	1.034851	-0.324586	-0.679164
C112	C	1.534851	0.175414	-0.179164
C113	C	1.031907	-0.327098	-0.752550
C114	C	1.531907	0.172902	-0.252550
C115	C	0.985472	-0.366925	-0.787418
C116	C	1.485472	0.133075	-0.287418
C117	C	0.941972	-0.404238	-0.748896
C118	C	1.441972	0.095762	-0.248896
C119	C	0.944913	-0.401722	-0.675512
C120	C	1.444913	0.098278	-0.175512
C121	C	0.971853	-0.378584	-1.006698
C122	C	1.471853	0.121416	-0.506698
C123	C	0.968917	-0.381099	-1.080087
C124	C	1.468917	0.118901	-0.580087
C125	C	1.058852	-0.303958	-1.083736
C126	C	1.558852	0.196042	-0.583736
C127	C	1.061791	-0.301448	-1.010350
C128	C	1.561791	0.198552	-0.510350
C129	C	1.018289	-0.338758	-0.971835
C130	C	1.518289	0.161242	-0.471835
N131	N	0.982464	-0.369496	-0.862429
N132	N	1.482464	0.130504	-0.362429
N133	N	1.021294	-0.336183	-0.896824
N134	N	1.521294	0.163817	-0.396824
C135	C	1.009152	-0.346637	-0.196700
C136	C	1.509152	0.153363	0.303300
C137	C	1.012412	-0.343787	-0.118604
C138	C	1.512412	0.156213	0.381396
H139	H	0.597915	-0.413886	-0.444573
H140	H	1.097915	0.086114	0.055427
C141	C	0.903704	-0.983751	-0.469835
C142	C	1.403704	-0.483751	0.030165
N143	N	0.864960	-0.956415	-0.505558
N144	N	1.364960	-0.456415	-0.005558
H145	H	1.072666	-0.292156	-0.650780
H146	H	1.572666	0.207844	-0.150780
C147	C	1.079757	-0.286054	-0.794915
C148	C	1.579757	0.213946	-0.294915
N149	N	1.115799	-0.255137	-0.826823
N150	N	1.615799	0.244863	-0.326823
H151	H	1.086820	-1.112908	-0.301168
H152	H	1.586820	-0.612908	0.198832
H153	H	1.086764	-0.993641	-0.301131
H154	H	1.586764	-0.493641	0.198869
C155	C	0.923996	-0.419624	-0.964340
C156	C	1.423996	0.080376	-0.464340
N157	N	0.887947	-0.450537	-0.932434
N158	N	1.387947	0.049463	-0.432434
C159	C	1.106692	-0.262911	-1.126108
C160	C	1.606692	0.237089	-0.626108
N161	N	1.142724	-0.231990	-1.158023
N162	N	1.642724	0.268010	-0.658023
H163	H	0.917110	-1.112451	-0.457532
H164	H	1.417110	-0.612451	0.042468
H165	H	1.099606	-0.269018	-0.981966
H166	H	1.599606	0.230982	-0.481966
H167	H	0.916895	-0.592330	-0.457426
H168	H	1.416895	-0.092330	0.042574
C169	C	0.741014	-0.431219	-0.463137
C170	C	1.241014	0.068781	0.036863
N171	N	0.769913	-0.467037	-0.501522
N172	N	1.269913	0.032963	-0.001522
C173	C	0.748599	-0.255406	-0.274748
C174	C	1.248599	0.244594	0.225252
N175	N	0.780493	-0.221859	-0.238799
N176	N	1.280493	0.278141	0.261201
C177	C	0.890886	-0.448042	-0.787253
C178	C	1.390886	0.051958	-0.287253
N179	N	0.852406	-0.481036	-0.816143
N180	N	1.352406	0.018964	-0.316143
C181	C	0.917830	-0.424912	-1.118440
C182	C	1.417830	0.075088	-0.618440
N183	N	0.879353	-0.457910	-1.147328
N184	N	1.379353	0.042090	-0.647328
C185	C	0.255732	-0.450508	-0.483830
C186	C	0.755732	0.049492	0.016170
N187	N	0.223833	-0.484050	-0.519780
N188	N	0.723833	0.015950	-0.019780
H189	H	0.399871	-0.443918	-0.476755
H190	H	0.899871	0.056082	0.023245
C191	C	0.897066	-0.442768	-0.633144
C192	C	1.397066	0.057232	-0.133144
N193	N	0.861025	-0.473684	-0.601233
N194	N	1.361025	0.026316	-0.101233
C195	C	0.417415	-0.280455	-0.301605
C196	C	0.917415	0.219545	0.198395
N197	N	0.449305	-0.246907	-0.265653
N198	N	0.949305	0.253093	0.234347
C199	C	0.263313	-0.274698	-0.295439
C200	C	0.763313	0.225302	0.204561
N201	N	0.234408	-0.238880	-0.257057
N202	N	0.734408	0.261120	0.242943
H203	H	1.086595	-0.592792	-0.301045
H204	H	1.586595	-0.092792	0.198955
C205	C	0.594487	-0.249646	-0.268585
C206	C	1.094487	0.250354	0.231415
N207	N	0.565579	-0.213829	-0.230205
N208	N	1.065579	0.286171	0.269795
C209	C	1.100012	-0.721493	-0.288757
C210	C	1.600012	-0.221493	0.211243
N211	N	1.138769	-0.748832	-0.253050
N212	N	1.638769	-0.248832	0.246950
C213	C	0.903578	-0.720960	-0.469755
C214	C	1.403578	-0.220960	0.030245
N215	N	0.864835	-0.748093	-0.505461
N216	N	1.364835	-0.248093	-0.005461
