data_functionalizedCrystal
_audit_creation_method	'MofGen! by Chris Wilmer'
_symmetry_space_group_name_H-M	'P1'
_symmetry_Int_Tables_number	1
_symmetry_cell_setting	triclinic
loop_
_symmetry_equiv_pos_as_xyz
  x,y,z
_cell_length_a	10.489741
_cell_length_b	10.654550
_cell_length_c	9.730223
_cell_angle_alpha	90.003749
_cell_angle_beta	89.998920
_cell_angle_gamma	95.487962
loop_
_atom_site_label
_atom_site_type_symbol
_atom_site_fract_x
_atom_site_fract_y
_atom_site_fract_z
O1	O	0.179156	-1.667918	-0.114402
O2	O	0.196226	-1.302447	-0.114380
O3	O	0.002089	-1.493499	-0.114383
O4	O	0.373293	-1.476867	-0.114399
O5	O	0.002094	-1.493497	0.114196
O6	O	0.196231	-1.302445	0.114200
O7	O	0.179161	-1.667916	0.114178
Zn8	Zn	0.187697	-1.485180	0.150481
Zn9	Zn	0.187690	-1.485183	-0.150683
O10	O	0.373298	-1.476864	0.114181
C11	C	0.194975	-1.255648	-0.000087
C12	C	0.191225	-1.116203	-0.000079
C13	C	-0.045439	-1.492241	-0.000094
C14	C	-0.187067	-1.488483	-0.000096
C15	C	0.180412	-1.714715	-0.000118
C16	C	0.184162	-1.854160	-0.000136
C17	C	-0.255148	-1.366923	-0.000099
C18	C	-0.347296	-1.424346	0.112599
C19	C	-0.347276	-1.424377	-0.112763
C20	C	-0.277350	-1.545956	0.112695
C21	C	-0.277319	-1.545970	-0.112768
C22	C	-0.369440	-1.603481	-0.000043
C23	C	0.420826	-1.478122	-0.000111
C24	C	0.562454	-1.481880	-0.000118
N25	N	0.187700	-1.485187	0.356017
C26	C	0.305530	-1.036771	-0.000103
C27	C	0.301999	-0.905748	-0.000127
C28	C	0.069849	-0.933603	-0.000107
C29	C	0.073381	-1.064623	-0.000073
C30	C	0.423374	-1.088351	-0.000109
C31	C	0.537688	-1.008917	-0.000135
C32	C	0.534157	-0.877895	-0.000159
C33	C	0.416312	-0.826306	-0.000156
N34	N	0.187677	-1.485186	-0.356220
C35	C	0.101766	-1.569807	0.427942
C36	C	0.101751	-1.569803	0.571825
C37	C	0.273615	-1.400557	0.571846
C38	C	0.273623	-1.400555	0.427966
C39	C	0.015843	-1.654439	0.355993
C40	C	-0.070097	-1.739066	0.427918
C41	C	-0.070113	-1.739063	0.571801
C42	C	0.015812	-1.654432	0.643759
H43	H	-0.205449	-1.266977	0.000020
H44	H	-0.378281	-1.372910	0.207883
H45	H	0.343573	-1.331655	0.630444
H46	H	-0.246540	-1.597345	0.208079
H47	H	-0.019696	-1.129299	-0.000057
H48	H	-0.246302	-1.597362	-0.208058
O49	O	0.645313	-0.800912	-0.000238
C50	C	0.750075	-0.874540	-0.000199
H51	H	0.718559	-0.972029	-0.043450
H52	H	0.786150	-0.884167	0.109461
C53	C	0.897063	-0.690535	-0.036741
C54	C	0.858357	-0.810269	-0.089874
H55	H	0.963860	-0.650889	-0.092051
H56	H	0.826484	-0.640930	-0.036762
H57	H	0.927117	-0.698574	0.054642
H58	H	0.828289	-0.802228	-0.181248
H59	H	0.928933	-0.859873	-0.089870
O60	O	0.357226	-1.318316	0.358302
C61	C	0.433049	-1.243606	0.452655
H62	H	0.434976	-1.295104	0.555216
H63	H	0.390746	-1.149940	0.467960
C64	C	0.568049	-1.155705	0.270534
C65	C	0.570424	-1.218961	0.396499
H66	H	0.652787	-1.140497	0.235894
H67	H	0.516963	-1.206035	0.206966
H68	H	0.532791	-1.077657	0.283306
H69	H	0.605666	-1.297013	0.383723
H70	H	0.621519	-1.168644	0.460064
H71	H	0.015784	-1.654428	0.760919
H72	H	-0.140097	-1.807961	0.630361
H73	H	0.633633	-1.050930	-0.000126
O74	O	-0.153761	-1.821142	0.358113
C75	C	-0.280217	-1.799588	0.393323
H76	H	-0.281767	-1.699024	0.432861
H77	H	-0.317018	-1.868839	0.476859
C78	C	-0.364637	-1.941853	0.216973
C79	C	-0.366543	-1.818336	0.265522
H80	H	-0.417890	-1.953424	0.138142
H81	H	-0.279442	-1.956380	0.193253
H82	H	-0.395302	-1.999549	0.286598
H83	H	-0.335863	-1.760644	0.195904
H84	H	-0.451735	-1.803801	0.289227
H85	H	-0.418912	-1.703518	0.000014
H86	H	-0.378217	-1.372927	-0.208049
H87	H	0.426262	-1.195034	-0.000096
H88	H	-0.026095	-0.891588	-0.000127
H89	H	0.015851	-1.654452	0.238837
H90	H	0.413446	-0.719617	-0.000154
