data_functionalizedCrystal
_audit_creation_method	'MofGen! by Chris Wilmer'
_symmetry_space_group_name_H-M	'P1'
_symmetry_Int_Tables_number	1
_symmetry_cell_setting	triclinic
loop_
_symmetry_equiv_pos_as_xyz
  x,y,z
_cell_length_a	8.634740
_cell_length_b	17.019294
_cell_length_c	7.088929
_cell_angle_alpha	79.934307
_cell_angle_beta	97.174953
_cell_angle_gamma	91.962533
loop_
_atom_site_label
_atom_site_type_symbol
_atom_site_fract_x
_atom_site_fract_y
_atom_site_fract_z
O1	O	2.025288	0.265954	-0.202764
O2	O	1.576739	0.244236	-0.199193
O3	O	1.815419	0.140393	-0.182086
O4	O	1.786608	0.369796	-0.219871
O5	O	1.847317	0.126479	0.138182
O6	O	1.608637	0.230322	0.121074
O7	O	2.057186	0.252040	0.117504
Cu8	Cu	1.835824	0.239910	0.148532
Cu9	Cu	1.798101	0.256365	-0.230221
O10	O	1.818506	0.355882	0.100396
C11	C	1.535329	0.232359	-0.038250
C12	C	1.364419	0.217689	-0.035837
C13	C	1.830905	0.103763	-0.017068
C14	C	1.829506	0.015344	-0.002517
C15	C	1.811465	-0.018606	-0.170257
C16	C	1.810141	-0.101686	-0.156578
C17	C	1.826870	-0.150813	0.024842
C18	C	1.844908	-0.116858	0.192595
C19	C	1.846220	-0.033780	0.178915
C20	C	1.823767	-0.402035	0.074883
C21	C	1.822458	-0.485118	0.088551
C22	C	1.787689	-0.469939	-0.260625
C23	C	1.789012	-0.386860	-0.274289
C24	C	1.807041	-0.352912	-0.106536
C25	C	1.825522	-0.235734	0.038829
C26	C	1.808378	-0.267993	-0.120524
C27	C	2.098595	0.263917	-0.043444
C28	C	2.269505	0.278587	-0.045870
C29	C	1.803020	0.392513	-0.064625
C30	C	1.804417	0.480932	-0.079189
N31	N	1.862367	0.228337	0.414927
N32	N	1.771570	0.267934	-0.496615
H33	H	1.319005	0.341950	-0.056294
N34	N	1.839539	-0.535291	0.273894
N35	N	1.855626	-0.504972	0.423657
H36	H	1.867686	-0.540406	0.554550
H37	H	1.314922	0.154332	-0.025451
N38	N	1.794395	0.031562	-0.355592
N39	N	1.778289	0.001234	-0.505344
H40	H	1.766232	0.036663	-0.636245
N41	N	1.791700	-0.136351	-0.327941
N42	N	1.776770	-0.092479	-0.489911
H43	H	1.763742	-0.116960	-0.610946
N44	N	1.771925	-0.336692	-0.459623
N45	N	1.755815	-0.367015	-0.609380
H46	H	1.743750	-0.331584	-0.740277
H47	H	1.858519	-0.156865	0.340312
N48	N	1.769278	-0.504630	-0.431950
N49	N	1.768111	-0.578806	-0.419721
H50	H	1.755105	-0.603308	-0.540726
N51	N	1.980408	0.176850	0.525850
N52	N	1.943459	0.118962	0.647123
H53	H	2.026819	0.082597	0.725464
N54	N	1.842190	-0.367377	0.246251
N55	N	1.857133	-0.411253	0.408217
H56	H	1.870148	-0.386775	0.529257
H57	H	1.860889	-0.006140	0.315507
H58	H	1.794747	-0.227990	-0.268236
N59	N	1.842628	-0.285907	0.224157
N60	N	1.858744	-0.255590	0.373924
H61	H	1.870819	-0.291025	0.504814
N62	N	1.653531	0.319411	0.392463
N63	N	1.635736	0.327167	0.212481
H64	H	1.552370	0.363525	0.134128
