data_functionalizedCrystal
_audit_creation_method	'MofGen! by Chris Wilmer'
_symmetry_space_group_name_H-M	'P1'
_symmetry_Int_Tables_number	1
_symmetry_cell_setting	triclinic
loop_
_symmetry_equiv_pos_as_xyz
  x,y,z
_cell_length_a	16.120490
_cell_length_b	16.120484
_cell_length_c	16.120297
_cell_angle_alpha	95.614431
_cell_angle_beta	89.870317
_cell_angle_gamma	89.835900
loop_
_atom_site_label
_atom_site_type_symbol
_atom_site_fract_x
_atom_site_fract_y
_atom_site_fract_z
Zn1	Zn	1.224990	0.422331	0.554787
Zn2	Zn	1.724990	0.922331	1.054787
Zn3	Zn	1.224886	0.555015	0.422092
Zn4	Zn	1.724886	1.055015	0.922092
Zn5	Zn	1.093729	0.408239	0.408032
Zn6	Zn	1.593729	0.908239	0.908032
Zn7	Zn	1.078882	0.554239	0.554027
Zn8	Zn	1.578882	1.054239	1.054027
O9	O	1.155622	0.484956	0.484735
O10	O	1.655622	0.984956	0.984735
O11	O	1.341012	0.446153	0.543386
O12	O	1.841012	0.946153	1.043386
O13	O	1.213657	0.529972	0.303594
O14	O	1.713657	1.029972	0.803594
O15	O	1.117398	0.293478	0.421933
O16	O	1.617398	0.793478	0.921933
O17	O	1.340936	0.543636	0.445896
O18	O	1.840936	1.043636	0.945896
O19	O	1.213835	0.303831	0.529753
O20	O	1.713835	0.803831	1.029753
O21	O	1.117297	0.422137	0.293264
O22	O	1.617297	0.922137	0.793264
O23	O	0.975724	0.421385	0.421197
O24	O	1.475724	0.921385	0.921197
O25	O	1.092094	0.542314	0.670761
O26	O	1.592094	1.042314	1.170761
O27	O	0.964816	0.528650	0.528459
O28	O	1.464816	1.028650	1.028459
O29	O	1.199439	0.445401	0.671319
O30	O	1.699439	0.945401	1.171319
O31	O	1.199261	0.671542	0.445159
O32	O	1.699261	1.171542	0.945159
O33	O	1.091993	0.670972	0.542092
O34	O	1.591993	1.170972	1.042092
C35	C	0.940183	0.473405	0.473221
C36	C	1.440183	0.973405	0.973221
C37	C	0.848015	0.468484	0.468316
C38	C	1.348015	0.968484	0.968316
C39	C	0.632820	0.510474	0.510179
C40	C	1.132820	1.010474	1.010179
C41	C	0.679267	0.459508	0.459359
C42	C	1.179267	0.959508	0.959359
C43	C	0.773167	0.464504	0.464344
C44	C	1.273167	0.964504	0.964344
C45	C	0.538912	0.505479	0.505195
C46	C	1.038912	1.005479	1.005195
C47	C	1.144026	0.701500	0.495088
C48	C	1.644026	1.201500	0.995088
C49	C	1.139140	0.794144	0.499550
C50	C	1.639140	1.294144	0.999550
C51	C	1.144122	0.495343	0.702127
C52	C	1.644122	0.995343	1.202127
C53	C	1.139222	0.499770	0.794767
C54	C	1.639222	0.999770	1.294767
C55	C	1.371902	0.496553	0.496294
C56	C	1.871902	0.996553	0.996294
C57	C	1.464068	0.501495	0.501220
C58	C	1.964068	1.001495	1.001220
C59	C	1.167284	0.267568	0.474360
C60	C	1.667284	0.767568	0.974360
C61	C	1.172254	0.174931	0.469939
C62	C	1.672254	0.674931	0.969939
C63	C	1.130223	0.963767	0.507712
C64	C	1.630223	1.463767	1.007712
C65	C	1.181169	1.005313	0.461779
C66	C	1.681169	1.505313	0.961779
C67	C	1.176207	1.099697	0.466320
C68	C	1.676207	1.599697	0.966320
C69	C	1.135183	0.869375	0.503171
C70	C	1.635183	1.369375	1.003171
C71	C	1.167128	0.474552	0.268187
C72	C	1.667128	0.974552	0.768187
C73	C	1.172201	0.469899	0.175545
C74	C	1.672201	0.969899	0.675545
C75	C	1.130245	0.507831	0.964378
C76	C	1.630245	1.007831	1.464378
C77	C	1.181175	0.461840	1.005939
C78	C	1.681175	0.961840	1.505939
C79	C	1.176180	0.466326	1.100317
C80	C	1.676180	0.966326	1.600317
C81	C	1.135239	0.503346	0.869992
C82	C	1.635239	1.003346	1.369992
H83	H	0.663575	0.557856	0.557426
H84	H	1.163575	1.057856	1.057426
C85	C	1.244206	0.958077	0.404805
C86	C	1.744206	1.458077	0.904805
C87	C	1.236634	0.872493	0.411543
C88	C	1.736634	1.372493	0.911543
C89	C	1.294676	0.828949	0.359063
C90	C	1.794676	1.328949	0.859063
H91	H	1.298578	0.975700	0.420629
H92	H	1.798578	1.475700	0.920629
H93	H	1.234330	0.968960	0.348803
H94	H	1.734330	1.468960	0.848803
H95	H	1.246516	0.861615	0.467533
H96	H	1.746516	1.361615	0.967533
H97	H	1.182275	0.854846	0.395713
H98	H	1.682275	1.354846	0.895713
H99	H	1.284801	0.839832	0.303061
H100	H	1.784801	1.339832	0.803061
H101	H	1.349044	0.846579	0.374891
H102	H	1.849044	1.346579	0.874891
H103	H	1.289542	0.770876	0.363622
H104	H	1.789542	1.270876	0.863622
C105	C	1.067244	0.564939	1.011494
C106	C	1.567244	1.064939	1.511494
C107	C	1.108748	0.623211	1.066528
C108	C	1.608748	1.123211	1.566528
C109	C	1.050742	0.675840	1.109948
C110	C	1.550742	1.175840	1.609948
H111	H	1.031038	0.532803	1.042067
H112	H	1.531038	1.032803	1.542067
H113	H	1.035955	0.593261	0.973040
H114	H	1.535955	1.093261	1.473040
H115	H	1.140022	0.594892	1.104978
H116	H	1.640022	1.094892	1.604978
H117	H	1.144949	0.655366	1.035977
H118	H	1.644949	1.155366	1.535977
H119	H	1.019454	0.704162	1.071493
H120	H	1.519454	1.204162	1.571493
H121	H	1.014540	0.643698	1.140516
H122	H	1.514540	1.143698	1.640516
H123	H	1.078894	0.715389	1.147288
H124	H	1.578894	1.215389	1.647288
H125	H	1.228527	0.419097	0.970641
H126	H	1.728527	0.919097	1.470641
H127	H	1.082883	0.999080	0.550444
H128	H	1.582883	1.499080	1.050444
H129	H	0.648511	0.412123	0.412108
H130	H	1.148511	0.912123	0.912108
