data_functionalizedCrystal
_audit_creation_method	'MofGen! by Chris Wilmer'
_symmetry_space_group_name_H-M	'P1'
_symmetry_Int_Tables_number	1
_symmetry_cell_setting	triclinic
loop_
_symmetry_equiv_pos_as_xyz
  x,y,z
_cell_length_a	18.101398
_cell_length_b	18.050589
_cell_length_c	18.050583
_cell_angle_alpha	90.028091
_cell_angle_beta	90.023549
_cell_angle_gamma	90.023488
loop_
_atom_site_label
_atom_site_type_symbol
_atom_site_fract_x
_atom_site_fract_y
_atom_site_fract_z
Zn1	Zn	1.132130	-0.295728	0.420040
Zn2	Zn	1.132034	-0.419933	0.295860
Zn3	Zn	1.008291	-0.295751	0.295853
Zn4	Zn	1.008246	-0.419870	0.419997
O5	O	1.070175	-0.357820	0.357937
O6	O	1.235750	-0.312220	0.403589
O7	O	1.115598	-0.403495	0.191934
O8	O	1.024777	-0.191823	0.312342
O9	O	1.235680	-0.403473	0.312354
O10	O	1.115762	-0.191806	0.403582
O11	O	1.024684	-0.312259	0.191929
O12	O	0.904652	-0.312199	0.312300
O13	O	1.024701	-0.403367	0.523927
O14	O	0.904619	-0.403389	0.403508
O15	O	1.115718	-0.312160	0.523959
O16	O	1.115554	-0.523849	0.312311
O17	O	1.024608	-0.523803	0.403514
C18	C	0.877765	-0.357790	0.357899
C19	C	0.795451	-0.357795	0.357900
C20	C	0.496360	-0.357842	0.357962
C21	C	0.527681	-0.300180	0.300857
C22	C	0.613299	-0.300335	0.300613
C23	C	0.644742	-0.357818	0.357931
C24	C	0.613628	-0.436051	0.336553
C25	C	0.527983	-0.435730	0.336156
C26	C	0.527972	-0.337950	0.436581
C27	C	0.613623	-0.336208	0.436152
C28	C	0.728602	-0.357809	0.357915
C29	C	0.412500	-0.357855	0.357977
C30	C	1.070086	-0.550773	0.357925
C31	C	1.070115	-0.633318	0.357945
C32	C	1.020707	-0.832771	0.407524
C33	C	1.002656	-0.882215	0.339755
C34	C	1.070188	-0.784449	0.357954
C35	C	1.088275	-0.882086	0.425731
C36	C	1.070257	-0.930434	0.357970
C37	C	1.052102	-0.832806	0.290150
C38	C	1.137752	-0.832672	0.376172
C39	C	1.119727	-0.882094	0.308356
C40	C	1.070147	-0.700350	0.357947
C41	C	1.070299	-1.014530	0.357970
C42	C	1.263337	-0.357851	0.357977
C43	C	1.345651	-0.357864	0.357994
C44	C	1.070215	-0.357754	0.551643
C45	C	1.070233	-0.357726	0.634189
C46	C	1.070285	-0.164115	0.357966
C47	C	1.070332	-0.081569	0.357978
C48	C	1.070178	-0.357833	0.164985
C49	C	1.070304	-0.357652	0.082440
C50	C	1.119774	-0.308077	0.883032
C51	C	1.137845	-0.375842	0.833625
C52	C	1.070280	-0.357679	0.931310
C53	C	1.052221	-0.289941	0.833635
C54	C	1.070259	-0.357698	0.785324
C55	C	1.088386	-0.425479	0.882990
C56	C	1.002731	-0.339532	0.883004
C57	C	1.020776	-0.407344	0.833619
C58	C	1.070295	-0.357666	1.015408
C59	C	1.070244	-0.357718	0.701228
H60	H	0.633754	-0.313485	0.242357
N61	N	1.172329	-0.255519	0.910268
N62	N	1.180387	-0.246706	0.978484
H63	H	1.217504	-0.209590	0.997722
N64	N	1.107619	-0.497380	0.910053
N65	N	1.068634	-0.552177	0.893703
H66	H	1.082218	-0.602957	0.912816
H67	H	0.633994	-0.480164	0.376844
H68	H	0.635045	-0.453212	0.279700
H69	H	0.507263	-0.480147	0.375935
H70	H	0.978912	-0.449347	0.812061
H71	H	1.103546	-0.903733	0.483043
H72	H	0.945632	-0.324150	0.904711
H73	H	1.194960	-0.391203	0.811933
H74	H	0.635029	-0.375145	0.480979
N75	N	1.033076	-0.218066	0.806439
N76	N	1.072409	-0.163372	0.822290
H77	H	1.058895	-0.112608	0.803085
H78	H	0.634336	-0.242322	0.314013
H79	H	0.507107	-0.241990	0.314109
N80	N	0.502862	-0.456874	0.264057
N81	N	0.435186	-0.460456	0.250726
H82	H	0.417446	-0.475386	0.199804
N83	N	0.500900	-0.267637	0.460978
N84	N	0.432999	-0.257545	0.468460
H85	H	0.413877	-0.207884	0.485685
N86	N	0.500632	-0.316474	0.228204
N87	N	0.432689	-0.316292	0.215807
H88	H	0.413582	-0.327802	0.164497
N89	N	0.639139	-0.263984	0.456366
N90	N	0.680093	-0.228516	0.413366
H91	H	0.698118	-0.177507	0.427640
N92	N	0.502576	-0.390651	0.489948
N93	N	0.461374	-0.442655	0.470269
H94	H	0.443440	-0.479882	0.507953
N95	N	0.968134	-0.805607	0.460034
N96	N	0.901269	-0.821519	0.453141
H97	H	0.864137	-0.802334	0.490224
N98	N	1.172267	-0.909099	0.255732
N99	N	1.238969	-0.892258	0.261968
H100	H	1.276075	-0.911332	0.224802
N101	N	0.931012	-0.909507	0.320431
N102	N	0.876427	-0.893717	0.359772
H103	H	0.825826	-0.912989	0.346130
H104	H	1.194844	-0.810896	0.391599
N105	N	1.032852	-0.805757	0.218238
N106	N	1.029684	-0.737568	0.206634
H107	H	1.016082	-0.718462	0.155850
