data_functionalizedCrystal
_audit_creation_method	'MofGen! by Chris Wilmer'
_symmetry_space_group_name_H-M	'P1'
_symmetry_Int_Tables_number	1
_symmetry_cell_setting	triclinic
loop_
_symmetry_equiv_pos_as_xyz
  x,y,z
_cell_length_a	17.038272
_cell_length_b	19.188930
_cell_length_c	16.098538
_cell_angle_alpha	92.708456
_cell_angle_beta	87.069734
_cell_angle_gamma	87.128169
loop_
_atom_site_label
_atom_site_type_symbol
_atom_site_fract_x
_atom_site_fract_y
_atom_site_fract_z
O1	O	1.040399	0.148677	-0.069168
O2	O	1.540399	0.648677	0.430832
O3	O	0.812777	0.146269	-0.069192
O4	O	1.312777	0.646269	0.430808
O5	O	0.933156	0.046226	-0.069163
O6	O	1.433156	0.546226	0.430837
O7	O	0.920020	0.248720	-0.069197
O8	O	1.420020	0.748720	0.430803
O9	O	0.926124	0.052046	0.069348
O10	O	1.426124	0.552046	0.569348
O11	O	0.805745	0.152089	0.069319
O12	O	1.305745	0.652089	0.569319
O13	O	1.033367	0.154497	0.069343
O14	O	1.533367	0.654497	0.569343
Zn15	Zn	0.918440	0.154217	0.091323
Zn16	Zn	1.418440	0.654217	0.591323
Zn17	Zn	0.927705	0.146549	-0.091172
Zn18	Zn	1.427705	0.646549	0.408828
O19	O	0.912989	0.254540	0.069314
O20	O	1.412989	0.754540	0.569314
C21	C	0.780140	0.146990	0.000061
C22	C	1.280140	0.646990	0.500061
C23	C	0.693368	0.140458	0.000052
C24	C	1.193368	0.640458	0.500052
C25	C	0.643067	0.200424	0.000043
C26	C	1.143067	0.700424	0.500043
C27	C	0.561535	0.194283	0.000055
C28	C	1.061535	0.694283	0.500055
C29	C	0.530306	0.128176	0.000071
C30	C	1.030306	0.628176	0.500071
C31	C	0.580613	0.068205	0.000083
C32	C	1.080613	0.568205	0.500083
C33	C	0.662144	0.074347	0.000077
C34	C	1.162144	0.574347	0.500077
C35	C	0.284615	0.106479	0.000097
C36	C	0.784615	0.606479	0.500097
C37	C	0.203078	0.100342	0.000101
C38	C	0.703078	0.600342	0.500101
C39	C	0.184005	0.226420	0.000075
C40	C	0.684005	0.726420	0.500075
C41	C	0.265538	0.232556	0.000063
C42	C	0.765538	0.732556	0.500063
C43	C	0.315838	0.172586	0.000080
C44	C	0.815838	0.672586	0.500080
C45	C	0.446968	0.121897	0.000081
C46	C	0.946968	0.621897	0.500081
C47	C	0.399175	0.178865	0.000075
C48	C	0.899175	0.678865	0.500075
C49	C	0.929215	0.023099	0.000095
C50	C	1.429215	0.523099	0.500095
C51	C	0.927937	-0.054485	0.000102
C52	C	1.427937	0.445515	0.500102
C53	C	0.998572	-0.095020	0.000113
C54	C	1.498572	0.404980	0.500113
C55	C	0.997373	-0.167919	0.000100
C56	C	1.497373	0.332081	0.500100
C57	C	0.925534	-0.200279	0.000092
C58	C	1.425534	0.299721	0.500092
C59	C	0.854890	-0.159735	0.000076
C60	C	1.354890	0.340265	0.500076
C61	C	0.856092	-0.086838	0.000081
C62	C	1.356092	0.413162	0.500081
N63	N	0.868229	-0.309715	0.047224
N64	N	1.368229	0.190285	0.547224
N65	N	0.867092	-0.378964	0.047221
N66	N	1.367092	0.121036	0.547221
C67	C	0.921910	-0.419913	0.000075
C68	C	1.421910	0.080087	0.500075
N69	N	0.977918	-0.388997	-0.047058
N70	N	1.477918	0.111003	0.452942
N71	N	0.979057	-0.319742	-0.047051
N72	N	1.479057	0.180258	0.452949
C73	C	0.924223	-0.279323	0.000086
C74	C	1.424223	0.220677	0.500086
C75	C	0.991249	-0.539494	0.000070
C76	C	1.491249	-0.039494	0.500070
C77	C	0.990047	-0.612395	0.000052
C78	C	1.490047	-0.112395	0.500052
C79	C	0.847562	-0.604208	0.000036
C80	C	1.347562	-0.104208	0.500036
C81	C	0.848767	-0.531310	0.000046
C82	C	1.348767	-0.031310	0.500046
C83	C	0.920612	-0.498957	0.000067
C84	C	1.420612	0.001043	0.500067
C85	C	1.066005	0.153776	0.000089
C86	C	1.566005	0.653776	0.500089
C87	C	1.152777	0.160308	0.000092
C88	C	1.652777	0.660308	0.500092
C89	C	0.916930	0.277667	0.000054
C90	C	1.416930	0.777667	0.500054
C91	C	0.918208	0.355250	0.000042
C92	C	1.418208	0.855250	0.500042
N93	N	0.912123	0.159449	0.215871
N94	N	1.412123	0.659449	0.715871
N95	N	0.934028	0.141311	-0.215719
N96	N	1.434028	0.641311	0.284281
C97	C	0.963235	0.117004	0.259468
C98	C	1.463235	0.617004	0.759468
C99	C	0.958823	0.120672	0.346656
C100	C	1.458823	0.620672	0.846656
C101	C	0.903302	0.166789	0.390245
C102	C	1.403302	0.666789	0.890245
C103	C	0.852184	0.209235	0.346641
C104	C	1.352184	0.709235	0.846641
C105	C	0.856593	0.205564	0.259455
C106	C	1.356593	0.705564	0.759455
C107	C	0.887319	0.180086	0.653491
C108	C	1.387319	0.680086	1.153491
C109	C	0.882916	0.183756	0.740683
C110	C	1.382916	0.683756	1.240683
C111	C	0.989554	0.095192	0.740692
C112	C	1.489554	0.595192	1.240692
C113	C	0.993961	0.091527	0.653504
C114	C	1.493961	0.591527	1.153504
C115	C	0.942841	0.133971	0.609908
C116	C	1.442841	0.633971	1.109908
C117	C	0.898792	0.170540	0.479365
C118	C	1.398792	0.670540	0.979365
C119	C	0.947347	0.130216	0.520790
C120	C	1.447347	0.630216	1.020790
H121	H	0.424604	0.232690	0.000067
H122	H	0.924604	0.732690	0.500067
H123	H	0.806974	0.246782	0.382136
H124	H	1.306974	0.746782	0.882136
O125	O	1.065934	-0.207373	0.000228
O126	O	1.565934	0.292627	0.500228
C127	C	1.065856	-0.246765	0.071975
C128	C	1.565856	0.253235	0.571975
H129	H	1.002606	-0.253129	0.095875
H130	H	1.502606	0.246871	0.595875
H131	H	1.095981	-0.300435	0.055849
H132	H	1.595981	0.199565	0.555849
H133	H	1.098919	-0.218587	0.122217
H134	H	1.598919	0.281413	0.622217
O135	O	0.844829	0.215246	0.521804
O136	O	1.344829	0.715246	1.021804
C137	C	0.794176	0.177091	0.572237
C138	C	1.294176	0.677091	1.072237
H139	H	0.824836	0.124879	0.585298
H140	H	1.324836	0.624879	1.085298
H141	H	0.778618	0.208061	0.633546
H142	H	1.278618	0.708061	1.133546
H143	H	0.738117	0.167480	0.538651
H144	H	1.238117	0.667480	1.038651
H145	H	0.845697	0.214647	0.618002
H146	H	1.345697	0.714647	1.118002
H147	H	0.325560	0.057646	0.000111
H148	H	0.825560	0.557646	0.500111
H149	H	0.421531	0.068073	0.000118
H150	H	0.921531	0.568073	0.500118
H151	H	0.791248	-0.498305	0.000041
H152	H	1.291248	0.001695	0.500041
O153	O	0.295972	0.296734	0.000139
O154	O	0.795972	0.796734	0.500139
C155	C	0.338930	0.307093	0.071868
C156	C	0.838930	0.807093	0.571868
H157	H	0.358200	0.254291	0.095816
H158	H	0.858200	0.754291	0.595816
H159	H	0.393051	0.337392	0.055698
H160	H	0.893051	0.837392	0.555698
H161	H	0.300276	0.337972	0.122090
H162	H	0.800276	0.837972	0.622090
H163	H	1.057074	-0.068683	0.000128
H164	H	1.557074	0.431317	0.500128
H165	H	0.668487	0.254256	0.000029
H166	H	1.168487	0.754256	0.500029
H167	H	1.008449	0.079455	0.223984
H168	H	1.508449	0.579455	0.723984
H169	H	0.520582	0.243114	0.000047
H170	H	1.020582	0.743114	0.500047
H171	H	0.555180	0.014379	0.000108
H172	H	1.055180	0.514379	0.500108
O173	O	0.787548	-0.047356	0.000037
O174	O	1.287548	0.452644	0.500037
C175	C	0.804012	0.023924	0.000070
C176	C	1.304012	0.523924	0.500070
H177	H	0.866733	0.029266	-0.026143
H178	H	1.366733	0.529266	0.473857
H179	H	0.761015	0.052562	-0.040146
H180	H	1.261015	0.552562	0.459854
H181	H	0.797602	0.047583	0.066523
H182	H	1.297602	0.547583	0.566523
O183	O	0.785161	-0.191250	-0.000042
O184	O	1.285161	0.308750	0.499958
C185	C	0.783839	-0.236164	-0.071790
C186	C	1.283839	0.263836	0.428210
H187	H	0.846727	-0.251638	-0.095698
H188	H	1.346727	0.248362	0.404302
H189	H	0.752025	-0.285018	-0.055663
H190	H	1.252025	0.214982	0.444337
H191	H	0.751698	-0.208155	-0.122027
H192	H	1.251698	0.291845	0.377973
H193	H	1.000442	0.086110	0.382152
H194	H	1.500442	0.586110	0.882152
H195	H	0.177655	0.046506	0.000113
H196	H	0.677655	0.546506	0.500113
O197	O	0.829047	0.228539	0.783156
O198	O	1.329047	0.728539	1.283156
C199	C	0.836111	0.222666	0.869457
C200	C	1.336111	0.722666	1.369457
H201	H	0.897747	0.200804	0.881357
H202	H	1.397747	0.700804	1.381357
H203	H	0.825556	0.276403	0.902579
H204	H	1.325556	0.776403	1.402579
H205	H	0.790743	0.186043	0.894221
H206	H	1.290743	0.686043	1.394221
H207	H	1.049750	-0.513152	0.000084
H208	H	1.549750	-0.013152	0.500084
H209	H	1.047569	-0.645398	0.000056
H210	H	1.547569	-0.145398	0.500056
O211	O	0.135030	0.284602	0.000103
O212	O	0.635030	0.784602	0.500103
C213	C	0.056374	0.265010	0.000091
C214	C	0.556374	0.765010	0.500091
H215	H	0.052107	0.211096	0.026323
H216	H	0.552107	0.711096	0.526323
H217	H	0.017262	0.304625	0.040301
H218	H	0.517262	0.804625	0.540301
H219	H	0.036148	0.263464	-0.066358
H220	H	0.536148	0.763464	0.433642
O221	O	0.806909	0.246868	0.217231
O222	O	1.306909	0.746868	0.717231
C223	C	0.756946	0.288347	0.274397
C224	C	1.256946	0.788347	0.774397
H225	H	0.785848	0.293675	0.336541
H226	H	1.285848	0.793675	0.836541
H227	H	0.746100	0.342319	0.249189
H228	H	1.246100	0.842319	0.749189
H229	H	0.698490	0.262592	0.283686
H230	H	1.198490	0.762592	0.783686
H231	H	1.039171	0.053976	0.618016
H232	H	1.539171	0.553976	1.118016
H233	H	0.703099	0.025516	0.000084
H234	H	1.203099	0.525516	0.500084
H235	H	0.789070	-0.630555	0.000025
H236	H	1.289070	-0.130555	0.500025
O237	O	1.039122	0.053987	0.783171
O238	O	1.539122	0.553987	1.283171
C239	C	1.023342	0.067126	0.869470
C240	C	1.523342	0.567126	1.369470
H241	H	0.960506	0.089996	0.881381
H242	H	1.460506	0.589996	1.381381
H243	H	1.030545	0.016177	0.902619
H244	H	1.530545	0.516177	1.402619
H245	H	1.066215	0.105828	0.894195
H246	H	1.566215	0.605828	1.394195
H247	H	0.992550	0.092665	0.485297
H248	H	1.492550	0.592665	0.985297
