data_functionalizedCrystal
_audit_creation_method	'MofGen! by Chris Wilmer'
_symmetry_space_group_name_H-M	'P1'
_symmetry_Int_Tables_number	1
_symmetry_cell_setting	triclinic
loop_
_symmetry_equiv_pos_as_xyz
  x,y,z
_cell_length_a	16.992694
_cell_length_b	14.044190
_cell_length_c	16.053802
_cell_angle_alpha	92.795827
_cell_angle_beta	87.249047
_cell_angle_gamma	91.930000
loop_
_atom_site_label
_atom_site_type_symbol
_atom_site_fract_x
_atom_site_fract_y
_atom_site_fract_z
O1	O	1.057569	0.198305	-0.069339
O2	O	0.829130	0.196087	-0.069363
O3	O	0.939917	0.058952	-0.069335
O4	O	0.946782	0.335440	-0.069367
O5	O	0.933817	0.066468	0.069522
O6	O	0.823029	0.203602	0.069494
O7	O	1.051469	0.205821	0.069519
Zn8	Zn	0.936281	0.205905	0.091553
Zn9	Zn	0.944318	0.196003	-0.091398
O10	O	0.940682	0.342955	0.069490
C11	C	0.796668	0.196993	0.000063
C12	C	0.709029	0.188484	0.000054
C13	C	0.933864	0.027168	0.000096
C14	C	0.924907	-0.078736	0.000102
C15	C	0.664532	0.270580	0.000045
C16	C	0.582185	0.262581	0.000058
C17	C	0.544337	0.172483	0.000073
C18	C	0.588839	0.090381	0.000084
C19	C	0.671184	0.098382	0.000078
C20	C	0.298418	0.139322	0.000099
C21	C	0.216067	0.131327	0.000103
C22	C	0.209419	0.303528	0.000078
C23	C	0.291766	0.311521	0.000066
C24	C	0.336261	0.229419	0.000082
N25	N	0.460165	0.164304	0.000083
N26	N	0.420431	0.237599	0.000078
C27	C	0.972055	-0.325452	0.000075
C28	C	0.908547	-0.272634	0.000074
C29	C	0.917652	-0.164739	0.000090
C30	C	0.962951	-0.433357	0.000059
C31	C	1.083931	0.204915	0.000091
C32	C	1.171570	0.213424	0.000094
C33	C	0.946735	0.374740	0.000058
C34	C	0.955691	0.480643	0.000046
N35	N	0.930801	0.212662	0.216412
N36	N	0.949803	0.189239	-0.216256
C37	C	0.977961	0.154334	0.260118
C38	C	0.974136	0.159071	0.347524
C39	C	0.923154	0.222140	0.391222
C40	C	0.875989	0.280470	0.347510
C41	C	0.879810	0.275728	0.260106
C42	C	0.906459	0.242827	0.652627
C43	C	0.902643	0.247566	0.740038
C44	C	1.000790	0.126165	0.740045
C45	C	1.004610	0.121433	0.652640
C46	C	0.957442	0.179759	0.608935
N47	N	0.919245	0.226985	0.480565
N48	N	0.961348	0.174909	0.519594
H49	H	0.695343	0.343947	0.000032
O50	O	0.860617	0.299584	0.610310
C51	C	0.762834	0.420461	0.619534
C52	C	0.814722	0.356249	0.667567
H53	H	0.725703	0.466276	0.665805
H54	H	0.801945	0.468513	0.578619
H55	H	0.722399	0.374072	0.578607
H56	H	0.855165	0.402563	0.708538
H57	H	0.775565	0.308191	0.708429
O58	O	0.826418	0.341607	0.390050
C59	C	0.715840	0.359008	0.488709
C60	C	0.771934	0.289664	0.440601
H61	H	0.671765	0.317038	0.529578
H62	H	0.751368	0.411422	0.529669
H63	H	0.682824	0.399903	0.442441
H64	H	0.804963	0.248704	0.486809
H65	H	0.736362	0.237312	0.399628
O66	O	0.552168	0.002802	-0.000013
C67	C	0.535773	-0.150697	-0.071961
C68	C	0.577369	-0.051556	-0.071940
H69	H	0.556120	-0.194666	-0.130116
H70	H	0.551077	-0.188504	-0.013884
H71	H	0.469277	-0.142287	-0.071920
H72	H	0.643874	-0.059879	-0.072009
H73	H	0.562001	-0.013783	-0.130011
H74	H	0.334635	0.072468	0.000113
O75	O	0.833972	0.332487	0.217776
C76	C	0.736187	0.453360	0.226987
C77	C	0.788073	0.389153	0.275027
H78	H	0.699052	0.499176	0.273254
H79	H	0.775299	0.501411	0.186073
H80	H	0.695755	0.406968	0.186060
H81	H	0.828511	0.435470	0.316000
H82	H	0.748913	0.341096	0.315889
O83	O	1.053772	0.059843	0.610065
C84	C	1.102318	-0.002246	0.475422
C85	C	1.046845	0.067825	0.523532
H86	H	1.096725	0.004170	0.405452
H87	H	1.165754	0.015359	0.492263
H88	H	1.085501	-0.078198	0.492945
H89	H	1.063591	0.143801	0.506035
H90	H	0.983424	0.050138	0.506687
H91	H	0.847339	-0.308447	0.000062
H92	H	0.545960	0.329433	0.000049
O93	O	1.046559	0.069364	0.782411
C94	C	1.079943	-0.091359	0.809221
C95	C	1.028077	-0.027134	0.761175
H96	H	1.065007	-0.169390	0.792083
H97	H	1.144713	-0.075134	0.792012
H98	H	1.068467	-0.077089	0.879192
H99	H	1.039484	-0.041367	0.691193
H100	H	0.963323	-0.043371	0.778453
O101	O	0.714500	0.018696	-0.000028
C102	C	0.814450	-0.076131	-0.071983
C103	C	0.765461	0.014158	-0.071961
H104	H	0.855651	-0.079840	-0.130143
H105	H	0.850678	-0.073553	-0.013912
H106	H	0.773239	-0.141886	-0.071932
H107	H	0.806614	0.079959	-0.072042
H108	H	0.729223	0.011496	-0.130027
O109	O	1.045014	-0.282582	0.000134
C110	C	1.120722	-0.134385	0.000127
C111	C	1.038052	-0.182826	0.000075
H112	H	1.115122	-0.053726	0.000063
H113	H	1.151576	-0.153603	0.058258
H114	H	1.156677	-0.159977	-0.057966
H115	H	1.002032	-0.157260	0.058129
H116	H	1.007259	-0.163610	-0.058093
H117	H	1.019480	0.102981	0.224545
H118	H	1.012537	0.111576	0.383109
H119	H	0.861125	0.298929	0.775613
H120	H	0.173182	0.370371	0.000067
O121	O	0.328403	0.399118	0.000093
C122	C	0.313118	0.569070	0.000023
C123	C	0.271526	0.469928	0.000016
H124	H	0.267153	0.626346	-0.000057
H125	H	0.348935	0.580329	0.058145
H126	H	0.354071	0.573924	-0.058078
H127	H	0.230535	0.465003	0.058078
H128	H	0.235759	0.458711	-0.058144
H129	H	0.185253	0.057955	0.000115
