data_functionalizedCrystal
_audit_creation_method	'MofGen! by Chris Wilmer'
_symmetry_space_group_name_H-M	'P1'
_symmetry_Int_Tables_number	1
_symmetry_cell_setting	triclinic
loop_
_symmetry_equiv_pos_as_xyz
  x,y,z
_cell_length_a	21.395364
_cell_length_b	17.641079
_cell_length_c	21.395355
_cell_angle_alpha	101.198684
_cell_angle_beta	89.975273
_cell_angle_gamma	78.821123
loop_
_atom_site_label
_atom_site_type_symbol
_atom_site_fract_x
_atom_site_fract_y
_atom_site_fract_z
Zn1	Zn	1.008318	-0.314732	-0.404766
Zn2	Zn	1.508318	0.185268	0.095234
Zn3	Zn	1.029404	-0.446861	-0.321190
Zn4	Zn	1.529404	0.053139	0.178810
Zn5	Zn	0.903533	-0.314728	-0.300002
Zn6	Zn	1.403533	0.185272	0.199998
Zn7	Zn	0.924682	-0.446837	-0.425925
Zn8	Zn	1.424682	0.053163	0.074075
O9	O	0.966484	-0.380790	-0.362971
O10	O	1.466484	0.119210	0.137029
O11	O	1.098795	-0.332271	-0.393691
O12	O	1.598795	0.167729	0.106309
O13	O	1.012681	-0.429342	-0.230702
O14	O	1.512681	0.070658	0.269298
O15	O	0.899757	-0.204145	-0.296176
O16	O	1.399757	0.295855	0.203824
O17	O	1.114287	-0.429345	-0.332288
O18	O	1.614287	0.070655	0.167712
O19	O	0.976743	-0.204148	-0.373146
O20	O	1.476743	0.295852	0.126854
O21	O	0.920203	-0.332265	-0.215136
O22	O	1.420203	0.167735	0.284864
O23	O	0.818658	-0.332241	-0.316694
O24	O	1.318658	0.167759	0.183306
O25	O	0.935803	-0.429304	-0.510795
O26	O	1.435803	0.070696	-0.010795
O27	O	0.834197	-0.429301	-0.409210
O28	O	1.334197	0.070699	0.090790
O29	O	0.997250	-0.332248	-0.495249
O30	O	1.497250	0.167752	0.004751
O31	O	1.033188	-0.557442	-0.352806
O32	O	1.533188	-0.057442	0.147194
O33	O	0.956249	-0.557424	-0.429755
O34	O	1.456249	-0.057424	0.070245
C35	C	0.803693	-0.380768	-0.362949
C36	C	1.303693	0.119232	0.137051
C37	C	0.734054	-0.380778	-0.362958
C38	C	1.234054	0.119222	0.137042
C39	C	0.240381	-0.431421	-0.411120
C40	C	0.740381	0.068579	0.088880
C41	C	0.305817	-0.431421	-0.411113
C42	C	0.805817	0.068579	0.088887
C43	C	0.330420	-0.380807	-0.362993
C44	C	0.830420	0.119193	0.137007
C45	C	0.289584	-0.330203	-0.314867
C46	C	0.789584	0.169797	0.185133
C47	C	0.224151	-0.330210	-0.314872
C48	C	0.724151	0.169790	0.185128
C49	C	0.422691	-0.309590	-0.346715
C50	C	0.922691	0.190410	0.153285
C51	C	0.488123	-0.309582	-0.346714
C52	C	0.988123	0.190418	0.153286
C53	C	0.532237	-0.380786	-0.362976
C54	C	1.032237	0.119214	0.137024
C55	C	0.510913	-0.452001	-0.379252
C56	C	1.010913	0.047999	0.120748
C57	C	0.445480	-0.452008	-0.379256
C58	C	0.945480	0.047992	0.120744
C59	C	0.401370	-0.380794	-0.362983
C60	C	0.901370	0.119206	0.137017
C61	C	0.644018	-0.431391	-0.411090
C62	C	1.144018	0.068609	0.088910
C63	C	0.709455	-0.431392	-0.411079
C64	C	1.209455	0.068608	0.088921
C65	C	0.693220	-0.330167	-0.314835
C66	C	1.193220	0.169833	0.185165
C67	C	0.627785	-0.330173	-0.314844
C68	C	1.127785	0.169827	0.185156
C69	C	0.603188	-0.380783	-0.362974
C70	C	1.103188	0.119217	0.137026
C71	C	0.999319	-0.586106	-0.395889
C72	C	1.499319	-0.086106	0.104111
C73	C	1.013423	-0.673942	-0.409993
C74	C	1.513423	-0.173942	0.090007
C75	C	1.073337	-0.797678	-0.469964
C76	C	1.573337	-0.297678	0.030036
C77	C	1.060079	-0.715143	-0.456707
C78	C	1.560079	-0.215143	0.043293
C79	C	0.980003	-0.715265	-0.376520
C80	C	1.480003	-0.215265	0.123480
C81	C	0.993252	-0.797801	-0.389772
C82	C	1.493252	-0.297801	0.110228
C83	C	1.039920	-0.839001	-0.436495
C84	C	1.539920	-0.339001	0.063505
C85	C	0.959834	-0.839125	-0.356303
C86	C	1.459834	-0.339125	0.143697
C87	C	0.973084	-0.921654	-0.369553
C88	C	1.473084	-0.421654	0.130447
C89	C	1.019752	-0.962860	-0.416272
C90	C	1.519752	-0.462860	0.083728
C91	C	1.053170	-0.921530	-0.449744
C92	C	1.553170	-0.421530	0.050256
C93	C	0.913170	-0.797923	-0.309578
C94	C	1.413170	-0.297923	0.190422
C95	C	0.879753	-0.839247	-0.276109
C96	C	1.379753	-0.339247	0.223891
C97	C	0.892999	-0.921778	-0.289361
C98	C	1.392999	-0.421778	0.210639
C99	C	0.939666	-0.962983	-0.336080
C100	C	1.439666	-0.462983	0.163920
C101	C	0.859581	-0.963107	-0.255889
C102	C	1.359581	-0.463107	0.244111
C103	C	0.872831	-1.045636	-0.269138
C104	C	1.372831	-0.545636	0.230862
C105	C	0.952916	-1.045512	-0.349330
C106	C	1.452916	-0.545512	0.150670
C107	C	1.129911	-0.380811	-0.362993
C108	C	1.629911	0.119189	0.137007
C109	C	1.199554	-0.380821	-0.363002
C110	C	1.699554	0.119179	0.136998
C111	C	0.966534	-0.380774	-0.526391
C112	C	1.466534	0.119226	-0.026391
C113	C	0.966555	-0.380767	-0.596032
C114	C	1.466555	0.119233	-0.096032
C115	C	0.933539	-0.174671	-0.329937
C116	C	1.433539	0.325329	0.170063
C117	C	0.919499	-0.086836	-0.315860
C118	C	1.419499	0.413164	0.184140
C119	C	0.998548	-0.330227	-0.620651
C120	C	1.498548	0.169773	-0.120651
C121	C	0.998542	-0.330193	-0.686081
C122	C	1.498542	0.169807	-0.186081
C123	C	0.966551	-0.380713	-0.726891
C124	C	1.466551	0.119287	-0.226891
C125	C	0.934550	-0.431256	-0.702265
C126	C	1.434550	0.068744	-0.202265
C127	C	0.934552	-0.431283	-0.636835
C128	C	1.434552	0.068717	-0.136835
C129	C	0.972983	-0.451867	-0.841974
C130	C	1.472983	0.048133	-0.341974
C131	C	0.972986	-0.451841	-0.907403
C132	C	1.472986	0.048159	-0.407403
C133	C	0.966542	-0.380629	-0.928699
C134	C	1.466542	0.119371	-0.428699
C135	C	0.960108	-0.309441	-0.884557
C136	C	1.460108	0.190559	-0.384557
C137	C	0.960110	-0.309468	-0.819127
C138	C	1.460110	0.190532	-0.319127
C139	C	0.966545	-0.380689	-0.797840
C140	C	1.466545	0.119311	-0.297840
C141	C	0.998530	-0.330049	-1.024264
C142	C	1.498530	0.169951	-0.524264
C143	C	0.998519	-0.330013	-1.089695
C144	C	1.498519	0.169987	-0.589695
C145	C	0.934532	-0.431083	-1.105879
C146	C	1.434532	0.068917	-0.605879
C147	C	0.934538	-0.431112	-1.040448
C148	C	1.434538	0.068888	-0.540448
C149	C	0.966541	-0.380595	-0.999645
C150	C	1.466541	0.119405	-0.499645
C151	C	0.966462	-0.380749	-0.200176
C152	C	1.466462	0.119251	0.299824
C153	C	0.966527	-0.380533	-0.130501
C154	C	1.466527	0.119467	0.369499
H155	H	0.742698	-0.472603	-0.450261
H156	H	1.242698	0.027397	0.049739
H157	H	0.821588	-0.929551	-0.217843
H158	H	1.321588	-0.429551	0.282157
H159	H	1.111326	-0.831225	-0.508022
H160	H	1.611326	-0.331225	-0.008022
H161	H	0.845619	-1.079282	-0.241885
H162	H	1.345619	-0.579282	0.258115
F163	F	1.102837	-0.965383	-0.499474
F164	F	1.602837	-0.465383	0.000526
F165	F	0.953251	-0.233646	-0.907215
F166	F	1.453251	0.266354	-0.407215
F167	F	1.033962	-1.050695	-0.430265
F168	F	1.533962	-0.550695	0.069735
F169	F	1.002584	-1.089365	-0.399059
F170	F	1.502584	-0.589365	0.100941
H171	H	0.908501	-0.472387	-0.735497
H172	H	1.408501	0.027613	-0.235497
F173	F	1.032605	-0.276460	-0.577227
F174	F	1.532605	0.223540	-0.077227
H175	H	0.713251	-0.288959	-0.275653
H176	H	1.213251	0.211041	0.224347
H177	H	1.024584	-0.288911	-0.991039
H178	H	1.524584	0.211089	-0.491039
H179	H	0.428120	-0.509993	-0.392507
H180	H	0.928120	-0.009993	0.107493
F181	F	1.032581	-0.276228	-1.115896
F182	F	1.532581	0.223772	-0.615896
F183	F	0.584331	-0.276311	-0.263633
F184	F	1.084331	0.223689	0.236367
H185	H	0.942007	-0.681711	-0.338476
H186	H	1.442007	-0.181711	0.161524
H187	H	0.190908	-0.289003	-0.275688
H188	H	0.690908	0.210997	0.224312
F189	F	0.510812	-0.233789	-0.329401
F190	F	1.010812	0.266211	0.170599
F191	F	0.315769	-0.276338	-0.263653
F192	F	0.815769	0.223662	0.236347
H193	H	1.087297	-0.681502	-0.483965
H194	H	1.587297	-0.181502	0.016035
H195	H	0.386776	-0.251604	-0.333461
H196	H	0.886776	0.248396	0.166539
F197	F	1.032583	-0.276387	-0.712286
F198	F	1.532583	0.223613	-0.212286
H199	H	0.902386	-0.730723	-0.298789
H200	H	1.402386	-0.230723	0.201211
F201	F	0.953259	-0.233706	-0.772152
F202	F	1.453259	0.266294	-0.272152
H203	H	0.841757	-0.805693	-0.238066
H204	H	1.341757	-0.305693	0.261934
F205	F	0.900479	-0.484845	-1.149308
F206	F	1.400479	0.015155	-0.649308
H207	H	0.908490	-0.472271	-1.020405
H208	H	1.408490	0.027729	-0.520405
F209	F	0.979839	-0.527606	-0.954376
F210	F	1.479839	-0.027606	-0.454376
F211	F	0.900499	-0.485076	-0.610634
F212	F	1.400499	0.014924	-0.110634
F213	F	0.214208	-0.485289	-0.462342
F214	F	0.714208	0.014711	0.037658
F215	F	0.349276	-0.485279	-0.462329
F216	F	0.849276	0.014721	0.037671
F217	F	0.979857	-0.527667	-0.819318
F218	F	1.479857	-0.027667	-0.319318
H219	H	0.546831	-0.509982	-0.392498
H220	H	1.046831	-0.009982	0.107502
H221	H	0.623991	-0.472602	-0.450280
H222	H	1.123991	0.027398	0.049720
