data_functionalizedCrystal
_audit_creation_method	'MofGen! by Chris Wilmer'
_symmetry_space_group_name_H-M	'P1'
_symmetry_Int_Tables_number	1
_symmetry_cell_setting	triclinic
loop_
_symmetry_equiv_pos_as_xyz
  x,y,z
_cell_length_a	12.594516
_cell_length_b	12.759401
_cell_length_c	12.594510
_cell_angle_alpha	89.980715
_cell_angle_beta	90.031906
_cell_angle_gamma	89.983786
loop_
_atom_site_label
_atom_site_type_symbol
_atom_site_fract_x
_atom_site_fract_y
_atom_site_fract_z
Zn1	Zn	-0.423646	-1.606254	0.601776
Zn2	Zn	0.076354	-1.106254	1.101776
Zn3	Zn	-0.601674	-1.606141	0.423803
Zn4	Zn	-0.101674	-1.106141	0.923803
Zn5	Zn	-0.423710	-1.430553	0.423815
Zn6	Zn	0.076290	-0.930553	0.923815
Zn7	Zn	-0.601583	-1.430540	0.601744
Zn8	Zn	-0.101583	-0.930540	1.101744
O9	O	-0.512653	-1.518372	0.512785
O10	O	-0.012653	-1.018372	1.012785
O11	O	-0.447272	-1.753260	0.578175
O12	O	0.052728	-1.253260	1.078175
O13	O	-0.578131	-1.582808	0.274859
O14	O	-0.078131	-1.082808	0.774859
O15	O	-0.274756	-1.453913	0.447440
O16	O	0.225244	-0.953913	0.947440
O17	O	-0.578069	-1.753177	0.447420
O18	O	-0.078069	-1.253177	0.947420
O19	O	-0.274708	-1.582999	0.578187
O20	O	0.225292	-1.082999	1.078187
O21	O	-0.447382	-1.453804	0.274868
O22	O	0.052618	-0.953804	0.774868
O23	O	-0.447294	-1.283531	0.447410
O24	O	0.052706	-0.783531	0.947410
O25	O	-0.577914	-1.453890	0.750694
O26	O	-0.077914	-0.953890	1.250694
O27	O	-0.577977	-1.283521	0.578134
O28	O	-0.077977	-0.783521	1.078134
O29	O	-0.447184	-1.582986	0.750717
O30	O	0.052816	-1.082986	1.250717
O31	O	-0.750607	-1.582795	0.447390
O32	O	-0.250607	-1.082795	0.947390
O33	O	-0.750541	-1.453782	0.578122
O34	O	-0.250541	-0.953782	1.078122
C35	C	-0.512633	-1.245405	0.512770
C36	C	-0.012633	-0.745405	1.012770
C37	C	-0.512651	-1.128628	0.512789
C38	C	-0.012651	-0.628628	1.012789
C39	C	-0.789194	-1.518303	0.512774
C40	C	-0.289194	-1.018303	1.012774
C41	C	-0.907499	-1.518370	0.512805
C42	C	-0.407499	-1.018370	1.012805
C43	C	-0.512532	-1.518449	0.790406
C44	C	-0.012532	-1.018449	1.290406
C45	C	-0.512481	-1.518482	0.908711
C46	C	-0.012481	-1.018482	1.408711
C47	C	-0.976755	-1.448193	0.583861
C48	C	-0.476755	-0.948193	1.083861
C49	C	-1.047630	-1.422592	0.486739
C50	C	-0.547630	-0.922592	0.986739
C51	C	-1.047423	-1.544066	0.609944
C52	C	-0.547423	-1.044066	1.109944
C53	C	-0.976816	-1.492719	0.415632
C54	C	-0.476816	-0.992719	0.915632
C55	C	-0.976603	-1.614238	0.538902
C56	C	-0.476603	-1.114238	1.038902
C57	C	-1.047446	-1.588673	0.441714
C58	C	-0.547446	-1.088673	0.941714
C59	C	-0.235032	-1.518470	0.512818
C60	C	0.264968	-1.018470	1.012818
C61	C	-0.116727	-1.518512	0.512833
C62	C	0.383273	-1.018512	1.012833
C63	C	-0.512673	-1.792405	0.512800
C64	C	-0.012673	-1.292405	1.012800
C65	C	-0.512682	-1.909182	0.512806
C66	C	-0.012682	-1.409182	1.012806
C67	C	-0.580806	-1.073789	0.580744
C68	C	-0.080806	-0.573789	1.080744
C69	C	-0.580819	-0.964065	0.580756
C70	C	-0.080819	-0.464065	1.080756
C71	C	-0.444519	-0.964029	0.444848
C72	C	0.055481	-0.464029	0.944848
C73	C	-0.444501	-1.073751	0.444843
C74	C	0.055499	-0.573751	0.944843
C75	C	-0.659501	-1.073808	0.659207
C76	C	-0.159501	-0.573808	1.159207
C77	C	-0.659515	-0.964084	0.659218
C78	C	-0.159515	-0.464084	1.159218
C79	C	-0.512697	-1.518356	0.236244
C80	C	-0.012697	-1.018356	0.736244
C81	C	-0.512448	-1.518526	0.117939
C82	C	-0.012448	-1.018526	0.617939
C83	C	-0.441355	-1.588723	1.048741
C84	C	0.058645	-1.088723	1.548741
C85	C	-0.538476	-1.614374	0.977922
C86	C	-0.038476	-1.114374	1.477922
C87	C	-0.415371	-1.492877	0.977959
C88	C	0.084629	-0.992877	1.477959
C89	C	-0.609620	-1.544228	1.048678
C90	C	-0.109620	-1.044228	1.548678
C91	C	-0.486449	-1.422686	1.048721
C92	C	0.013551	-0.922686	1.548721
C93	C	-0.583637	-1.448301	0.977934
C94	C	-0.083637	-0.948301	1.477934
H95	H	-0.945715	-1.388740	0.643863
H96	H	-0.445715	-0.888740	1.143863
H97	H	-0.388996	-1.118398	0.389514
H98	H	0.111004	-0.618398	0.889514
F99	F	-0.567249	-1.720287	0.937272
F100	F	-0.067249	-1.220287	1.437272
F101	F	-0.662325	-1.370682	0.937555
F102	F	-0.162325	-0.870682	1.437555
H103	H	-0.691748	-1.566020	1.079613
H104	H	-0.191748	-1.066020	1.579613
H105	H	-0.637514	-1.103618	0.741678
H106	H	-0.137514	-0.603618	1.241678
H107	H	-0.464409	-1.341679	1.079845
H108	H	0.035591	-0.841679	1.579845
F109	F	-0.936449	-1.464265	0.308241
F110	F	-0.436449	-0.964265	0.808241
H111	H	-0.630087	-0.930088	0.737582
H112	H	-0.130087	-0.430088	1.237582
F113	F	-0.308048	-1.464545	0.937351
F114	F	0.191952	-0.964545	1.437351
H115	H	-1.078290	-1.648081	0.381567
H116	H	-0.578290	-1.148081	0.881567
H117	H	-1.078852	-1.341584	0.464689
H118	H	-0.578852	-0.841584	0.964689
F119	F	-0.935795	-1.720097	0.567784
F120	F	-0.435795	-1.220097	1.067784
H121	H	-1.078439	-1.565743	0.692081
H122	H	-0.578439	-1.065743	1.192081
F123	F	-0.767227	-0.925131	0.630153
F124	F	-0.267227	-0.425131	1.130153
F125	F	-0.761827	-1.118270	0.620513
F126	F	-0.261827	-0.618270	1.120513
F127	F	-0.371993	-0.905616	0.372540
F128	F	0.128007	-0.405616	0.872540
F129	F	-0.362853	-1.666395	1.089379
F130	F	0.137147	-1.166395	1.589379
