data_functionalizedCrystal
_audit_creation_method	'MofGen! by Chris Wilmer'
_symmetry_space_group_name_H-M	'P1'
_symmetry_Int_Tables_number	1
_symmetry_cell_setting	triclinic
loop_
_symmetry_equiv_pos_as_xyz
  x,y,z
_cell_length_a	19.077105
_cell_length_b	12.827892
_cell_length_c	19.076919
_cell_angle_alpha	92.275535
_cell_angle_beta	90.076224
_cell_angle_gamma	87.711903
loop_
_atom_site_label
_atom_site_type_symbol
_atom_site_fract_x
_atom_site_fract_y
_atom_site_fract_z
Zn1	Zn	1.058323	-0.505562	-0.440440
Zn2	Zn	1.062981	-0.673587	-0.322941
Zn3	Zn	0.945540	-0.491563	-0.318233
Zn4	Zn	0.940802	-0.672957	-0.435693
O5	O	1.001912	-0.585917	-0.379327
O6	O	1.157274	-0.533973	-0.428810
O7	O	1.051334	-0.643846	-0.223985
O8	O	0.960534	-0.347187	-0.334460
O9	O	1.160695	-0.657421	-0.342484
O10	O	1.043396	-0.357472	-0.424245
O11	O	0.965050	-0.510114	-0.220526
O12	O	0.846579	-0.509503	-0.329857
O13	O	0.952460	-0.656347	-0.534655
O14	O	0.843098	-0.642772	-0.416155
O15	O	1.038802	-0.533362	-0.538142
O16	O	1.046740	-0.819737	-0.337881
O17	O	0.956976	-0.819274	-0.420720
C18	C	0.819342	-0.574551	-0.371981
C19	C	0.741237	-0.569714	-0.368855
C20	C	1.001868	-0.857424	-0.379313
C21	C	1.001913	-0.973581	-0.379333
C22	C	0.702753	-0.636925	-0.412246
C23	C	0.629365	-0.632367	-0.409312
C24	C	0.594463	-0.560602	-0.362983
C25	C	0.632953	-0.493385	-0.319590
C26	C	0.706339	-0.497938	-0.322528
C27	C	0.375174	-0.539528	-0.349389
C28	C	0.301782	-0.534981	-0.346453
C29	C	0.298199	-0.673963	-0.436177
C30	C	0.371587	-0.678514	-0.439108
C31	C	0.410071	-0.611293	-0.395717
N32	N	0.519449	-0.555944	-0.359982
N33	N	0.485083	-0.615947	-0.398723
C34	C	1.046380	-1.025566	-0.338391
C35	C	1.046427	-1.145620	-0.338411
C36	C	1.185194	-0.597329	-0.386702
C37	C	1.263298	-0.602192	-0.389845
C38	C	0.994583	-0.596346	-0.562607
C39	C	0.991460	-0.600790	-0.640711
C40	C	1.001974	-0.313353	-0.379357
C41	C	1.002000	-0.197202	-0.379370
C42	C	1.034945	-0.538849	-0.679221
C43	C	1.032002	-0.543020	-0.752607
C44	C	0.985578	-0.609138	-0.787481
C45	C	0.942089	-0.671081	-0.748966
C46	C	0.945028	-0.666904	-0.675581
C47	C	0.971962	-0.628492	-1.006763
C48	C	0.969027	-0.632667	-1.080153
C49	C	1.058939	-0.504604	-1.083789
C50	C	1.061878	-0.500438	-1.010402
C51	C	1.018386	-0.562376	-0.971894
N52	N	0.982570	-0.613406	-0.862494
N53	N	1.021391	-0.558103	-0.896882
C54	C	1.009252	-0.575456	-0.196761
C55	C	1.012511	-0.570727	-0.118663
H56	H	0.731165	-0.695367	-0.449970
C57	C	0.409981	-0.757454	-0.490070
C58	C	0.458248	-0.718575	-0.547305
C59	C	0.496644	-0.797519	-0.598263
C60	C	0.486774	-0.915343	-0.591986
C61	C	0.438505	-0.954229	-0.534748
C62	C	0.400108	-0.875284	-0.483790
H63	H	0.465557	-0.631349	-0.551954
H64	H	0.532377	-0.768733	-0.640635
H65	H	0.515197	-0.973783	-0.629708
H66	H	0.431196	-1.041454	-0.530099
H67	H	0.364376	-0.904070	-0.441419
H68	H	0.598034	-0.687098	-0.444645
C69	C	1.097767	-0.965635	-0.291015
C70	C	1.177428	-0.985733	-0.300023
C71	C	1.228817	-0.925806	-0.252645
C72	C	1.200546	-0.845782	-0.196259
C73	C	1.120880	-0.825680	-0.187249
C74	C	1.069491	-0.885607	-0.234626
H75	H	1.198360	-1.044975	-0.341765
H76	H	1.287791	-0.940687	-0.259315
H77	H	1.238587	-0.801421	-0.161187
H78	H	1.099948	-0.766438	-0.145506
H79	H	1.010517	-0.870726	-0.227956
C80	C	0.950565	-1.136824	-0.426728
C81	C	0.953036	-1.156577	-0.506854
C82	C	0.901601	-1.096190	-0.554212
C83	C	0.847695	-1.016052	-0.521444
C84	C	0.845222	-0.996296	-0.441313
C85	C	0.896657	-1.056682	-0.393956
H86	H	0.992942	-1.215903	-0.531115
H87	H	0.903432	-1.110815	-0.613529
H88	H	0.809619	-0.971350	-0.556501
H89	H	0.805315	-0.936969	-0.417053
H90	H	0.894826	-1.042057	-0.334638
C91	C	0.255868	-0.747896	-0.483910
C92	C	0.262786	-0.744723	-0.564206
C93	C	0.220454	-0.818657	-0.611943
C94	C	0.171205	-0.895764	-0.579385
C95	C	0.164285	-0.898939	-0.499085
C96	C	0.206616	-0.825006	-0.451347
H97	H	0.299245	-0.687641	-0.588311
H98	H	0.225577	-0.816306	-0.671387
H99	H	0.139869	-0.950494	-0.614723
H100	H	0.127826	-0.956021	-0.474980
H101	H	0.201493	-0.827357	-0.391904
H102	H	0.963881	-1.017954	-0.414402
C103	C	1.097860	-1.206004	-0.291055
C104	C	1.097834	-1.326053	-0.291142
C105	C	1.149269	-1.386440	-0.243784
C106	C	1.200731	-1.326777	-0.196339
C107	C	1.200759	-1.206721	-0.196250
C108	C	1.149323	-1.146335	-0.243608
H109	H	1.059738	-1.370225	-0.326265
H110	H	1.149248	-1.475313	-0.243850
H111	H	1.238806	-1.371479	-0.161282
H112	H	1.238855	-1.162549	-0.161127
H113	H	1.149344	-1.057461	-0.243542
H114	H	1.099683	-0.446600	-0.982013
C115	C	0.897199	-0.735042	-0.633215
C116	C	0.816914	-0.722117	-0.640084
C117	C	0.769082	-0.790253	-0.597717
C118	C	0.801534	-0.871314	-0.548481
C119	C	0.881823	-0.884242	-0.541610
C120	C	0.929656	-0.816106	-0.583977
H121	H	0.792887	-0.662108	-0.676533
H122	H	0.709646	-0.780682	-0.602803
H123	H	0.766126	-0.921752	-0.517118
H124	H	0.905850	-0.944251	-0.505161
H125	H	0.989091	-0.825677	-0.578890
C126	C	0.917979	-0.705435	-1.118519
C127	C	0.870156	-0.773593	-1.076163
C128	C	0.819124	-0.846376	-1.114529
C129	C	0.815915	-0.851003	-1.195251
C130	C	0.863740	-0.782843	-1.237611
C131	C	0.914771	-0.710059	-1.199245
H132	H	0.872530	-0.770170	-1.016404
H133	H	0.783721	-0.896833	-1.083171
H134	H	0.778139	-0.904881	-1.223651
H135	H	0.861366	-0.786265	-1.297369
H136	H	0.950174	-0.659603	-1.230603
C137	C	1.086012	-0.466117	-0.640861
C138	C	1.079898	-0.347539	-0.650734
C139	C	1.130965	-0.274802	-0.612377
C140	C	1.188147	-0.320644	-0.564147
C141	C	1.194263	-0.439228	-0.554272
C142	C	1.143196	-0.511965	-0.592629
H143	H	1.037567	-0.313598	-0.686439
H144	H	1.126437	-0.187017	-0.619687
H145	H	1.225950	-0.266800	-0.535752
H146	H	1.236594	-0.473169	-0.518567
H147	H	1.147724	-0.599750	-0.585318
H148	H	0.273368	-0.476530	-0.308731
C149	C	1.079837	-0.474882	-0.794964
C150	C	1.160121	-0.487814	-0.788094
C151	C	1.207957	-0.419669	-0.830450
C152	C	1.175509	-0.338590	-0.879676
C153	C	1.095220	-0.325654	-0.886548
C154	C	1.047384	-0.393800	-0.844192
H155	H	1.184145	-0.547837	-0.751652
H156	H	1.267392	-0.429245	-0.825362
H157	H	1.210920	-0.288145	-0.911030
H158	H	1.071196	-0.265632	-0.922989
H159	H	0.987949	-0.384223	-0.849279
H160	H	0.406498	-0.484799	-0.314053
H161	H	1.094347	-0.454176	-1.115150
H162	H	0.936558	-0.678943	-0.975419
H163	H	0.604530	-0.434948	-0.281871
C164	C	0.891021	-0.743812	-0.787326
C165	C	0.887788	-0.748416	-0.868047
C166	C	0.836720	-0.821152	-0.906405
C167	C	0.788887	-0.889284	-0.864043
C168	C	0.792119	-0.884683	-0.783318
C169	C	0.843186	-0.811947	-0.744959
H170	H	0.923198	-0.697979	-0.899410
H171	H	0.834328	-0.824558	-0.966163
H172	H	0.751084	-0.943128	-0.892438
H173	H	0.756708	-0.935120	-0.751954
H174	H	0.845578	-0.808541	-0.685201
C175	C	0.748677	-0.424006	-0.274798
C176	C	0.738368	-0.304931	-0.280269
C177	C	0.780705	-0.230991	-0.232541
C178	C	0.833351	-0.276126	-0.179343
C179	C	0.843663	-0.395207	-0.173870
C180	C	0.801326	-0.469147	-0.221597
H181	H	0.699393	-0.271513	-0.319651
H182	H	0.773071	-0.142839	-0.236593
H183	H	0.864692	-0.221391	-0.144012
H184	H	0.882637	-0.428624	-0.134488
H185	H	0.808959	-0.557299	-0.217546
