data_functionalizedCrystal
_audit_creation_method	'MofGen! by Chris Wilmer'
_symmetry_space_group_name_H-M	'P1'
_symmetry_Int_Tables_number	1
_symmetry_cell_setting	triclinic
loop_
_symmetry_equiv_pos_as_xyz
  x,y,z
_cell_length_a	6.817900
_cell_length_b	19.551823
_cell_length_c	11.168136
_cell_angle_alpha	94.549227
_cell_angle_beta	108.508683
_cell_angle_gamma	101.663376
loop_
_atom_site_label
_atom_site_type_symbol
_atom_site_fract_x
_atom_site_fract_y
_atom_site_fract_z
V1	V	-4.075381	-0.096685	-0.394290
O2	O	-4.071120	0.004635	-0.386176
O3	O	-4.017763	-0.191700	-0.392177
O4	O	-4.052200	-0.095203	-0.565986
O5	O	-4.036445	-0.092530	-0.211164
V6	V	-4.556935	-0.084566	-0.372315
O7	O	-4.340957	-0.123271	-0.442492
O8	O	-4.741556	-0.057980	-0.324113
O9	O	-4.391346	0.010449	-0.374428
O10	O	-4.678592	-0.185886	-0.380429
O11	O	-4.713268	-0.088721	-0.555441
O12	O	-4.356909	-0.086048	-0.200619
C13	C	-3.859706	-0.214863	-0.386108
C14	C	-3.894052	-0.292539	-0.385525
C15	C	-3.903632	-0.091770	-0.607817
C16	C	-3.965902	-0.091186	-0.748184
C17	C	-4.092880	-0.332585	-0.391566
C18	C	-4.125159	-0.405571	-0.391031
C19	C	-3.958584	-0.438506	-0.384430
C20	C	-3.759731	-0.398452	-0.378396
C21	C	-3.727465	-0.325468	-0.378944
C22	C	-3.833594	-0.544992	-0.304360
C23	C	-3.865864	-0.617974	-0.303805
C24	C	-4.058099	-0.663612	-0.382747
C25	C	-4.218087	-0.636259	-0.462229
C26	C	-4.185821	-0.563276	-0.462776
C27	C	-3.993551	-0.517644	-0.383837
C28	C	-4.291941	-0.782798	-0.388210
C29	C	-4.324216	-0.855786	-0.387683
C30	C	-3.958776	-0.848664	-0.375035
C31	C	-3.926513	-0.775679	-0.375575
C32	C	-4.093100	-0.742750	-0.382157
C33	C	-4.167321	-0.094240	-0.816895
C34	C	-4.231684	-0.093638	-0.961971
C35	C	-4.212745	0.033608	-0.380494
C36	C	-4.157638	0.111284	-0.381084
C37	C	-4.168818	-0.089484	-0.158781
C38	C	-4.085787	-0.090063	-0.018413
H39	H	-4.287074	-0.438183	-0.395950
O40	O	-4.316205	-0.098016	-0.758929
C41	C	-4.328198	-0.159325	-0.700488
H42	H	-4.266791	-0.199676	-0.748895
H43	H	-4.226630	-0.145053	-0.594876
C44	C	-4.636873	-0.141508	-0.654470
C45	C	-4.561469	-0.191070	-0.713933
H46	H	-4.780763	-0.161089	-0.662757
H47	H	-4.628790	-0.100201	-0.693839
H48	H	-4.552214	-0.129619	-0.566465
H49	H	-4.646111	-0.202952	-0.801939
H50	H	-4.569572	-0.232380	-0.674579
H51	H	-4.427585	-0.755986	-0.393567
H52	H	-4.486134	-0.888392	-0.392611
H53	H	-4.316088	-0.541008	-0.527495
H54	H	-3.735597	-0.640238	-0.239079
H55	H	-3.913236	-0.087453	-0.959356
H56	H	-4.228536	-0.305780	-0.396934
H57	H	-3.677040	-0.507838	-0.240081
H58	H	-3.565552	-0.292863	-0.374026
O59	O	-3.816862	-0.087408	-0.806031
C60	C	-3.656234	-0.024631	-0.752436
H61	H	-3.722419	0.015672	-0.707627
H62	H	-3.516150	-0.036518	-0.675905
C63	C	-3.499310	-0.043942	-0.912837
C64	C	-3.580605	0.005560	-0.857811
H65	H	-3.452649	-0.025320	-0.977835
H66	H	-3.607522	-0.086238	-0.948944
H67	H	-3.382583	-0.053844	-0.849050
H68	H	-3.697344	0.015454	-0.921595
H69	H	-3.472410	0.047858	-0.821718
O70	O	-4.405019	-0.680541	-0.538782
C71	C	-4.574930	-0.663167	-0.506774
H72	H	-4.512403	-0.634202	-0.404414
H73	H	-4.650023	-0.627648	-0.574638
C74	C	-4.820354	-0.766868	-0.644129
C75	C	-4.743560	-0.731298	-0.518404
H76	H	-4.924379	-0.808893	-0.651308
H77	H	-4.705885	-0.778572	-0.665697
H78	H	-4.882917	-0.737262	-0.700668
H79	H	-4.680976	-0.760901	-0.461869
H80	H	-4.858024	-0.719600	-0.496826
O81	O	-3.733199	-0.736872	-0.369629
C82	C	-3.593107	-0.781592	-0.363720
H83	H	-3.650145	-0.831195	-0.325002
H84	H	-3.589837	-0.797043	-0.463543
C85	C	-3.297389	-0.681641	-0.322277
C86	C	-3.367435	-0.742562	-0.274712
H87	H	-3.158181	-0.657565	-0.267378
H88	H	-3.391772	-0.651512	-0.326262
H89	H	-3.294681	-0.694526	-0.405462
H90	H	-3.370167	-0.729676	-0.191536
H91	H	-3.273047	-0.772687	-0.270711
H92	H	-3.624108	-0.425272	-0.373025
H93	H	-3.823151	-0.875480	-0.369668
O94	O	-4.437638	-0.096886	-1.032411
C95	C	-4.569720	-0.159931	-1.021676
H96	H	-4.471279	-0.200533	-0.993791
H97	H	-4.641967	-0.148681	-0.945286
C98	C	-4.870287	-0.139281	-1.185056
C99	C	-4.749384	-0.189151	-1.150818
H100	H	-4.981119	-0.157304	-1.264715
H101	H	-4.781305	-0.096804	-1.192286
H102	H	-4.930473	-0.129910	-1.121388
H103	H	-4.689179	-0.198514	-1.214478
H104	H	-4.838361	-0.231630	-1.143602
