data_functionalizedCrystal
_audit_creation_method	'MofGen! by Chris Wilmer'
_symmetry_space_group_name_H-M	'P1'
_symmetry_Int_Tables_number	1
_symmetry_cell_setting	triclinic
loop_
_symmetry_equiv_pos_as_xyz
  x,y,z
_cell_length_a	15.944499
_cell_length_b	19.188940
_cell_length_c	14.421503
_cell_angle_alpha	90.003842
_cell_angle_beta	89.989779
_cell_angle_gamma	83.313162
loop_
_atom_site_label
_atom_site_type_symbol
_atom_site_fract_x
_atom_site_fract_y
_atom_site_fract_z
O1	O	1.114224	0.089866	-0.077168
O2	O	1.614224	0.589866	0.422832
O3	O	0.869627	0.101006	-0.077158
O4	O	1.369627	0.601006	0.422842
O5	O	0.998980	-0.006202	-0.077156
O6	O	1.498980	0.493798	0.422844
O7	O	0.984871	0.197074	-0.077170
O8	O	1.484871	0.697074	0.422830
O9	O	0.998958	-0.006186	0.077067
O10	O	1.498958	0.493814	0.577067
O11	O	0.869606	0.101022	0.077066
O12	O	1.369606	0.601022	0.577066
O13	O	1.114202	0.089882	0.077055
O14	O	1.614202	0.589882	0.577055
Cu15	Cu	0.991902	0.095453	0.091142
Cu16	Cu	1.491902	0.595453	0.591142
Cu17	Cu	0.991927	0.095434	-0.091245
Cu18	Cu	1.491927	0.595434	0.408755
O19	O	0.984850	0.197090	0.077054
O20	O	1.484850	0.697090	0.577054
C21	C	0.838323	0.100558	-0.000045
C22	C	1.338323	0.600558	0.499955
C23	C	0.745080	0.099190	-0.000041
C24	C	1.245080	0.599190	0.499959
C25	C	0.453314	0.161475	-0.000059
C26	C	0.953314	0.661475	0.499941
C27	C	0.514473	0.129090	-0.076098
C28	C	1.014473	0.629090	0.423902
C29	C	0.409462	0.094223	-0.000062
C30	C	0.909462	0.594223	0.499938
C31	C	0.514438	0.129088	0.075954
C32	C	1.014438	0.629088	0.575954
C33	C	0.574362	0.096667	-0.000050
C34	C	1.074362	0.596667	0.499950
C35	C	0.469393	0.061819	-0.076164
C36	C	0.969393	0.561819	0.423836
C37	C	0.469352	0.061826	0.075956
C38	C	0.969352	0.561826	0.575956
C39	C	0.530494	0.029392	-0.000102
C40	C	1.030494	0.529392	0.499898
C41	C	0.314467	0.092817	-0.000069
C42	C	0.814467	0.592817	0.499931
C43	C	0.669355	0.098068	-0.000049
C44	C	1.169355	0.598068	0.499951
C45	C	0.998511	-0.032206	-0.000045
C46	C	1.498511	0.467794	0.499955
C47	C	0.997135	-0.109714	-0.000045
C48	C	1.497135	0.390286	0.499955
C49	C	0.987337	-0.662988	0.084001
C50	C	1.487337	-0.162988	0.584001
C51	C	0.988620	-0.590161	0.084006
C52	C	1.488620	-0.090161	0.584006
C53	C	0.989278	-0.553748	-0.000060
C54	C	1.489278	-0.053748	0.499940
C55	C	0.988630	-0.590167	-0.084138
C56	C	1.488630	-0.090167	0.415862
C57	C	0.987338	-0.662992	-0.084141
C58	C	1.487338	-0.162992	0.415859
N59	N	1.039113	-0.444610	-0.062635
N60	N	1.539113	0.055390	0.437365
N61	N	1.040342	-0.375429	-0.062626
N62	N	1.540342	0.124571	0.437374
C63	C	0.993168	-0.334329	-0.000057
C64	C	1.493168	0.165671	0.499943
N65	N	0.944729	-0.365026	0.062517
N66	N	1.444729	0.134974	0.562517
N67	N	0.943504	-0.434213	0.062512
N68	N	1.443504	0.065787	0.562512
C69	C	0.990678	-0.474781	-0.000067
C70	C	1.490678	0.025219	0.499933
C71	C	0.995201	-0.218951	0.084020
C72	C	1.495201	0.281049	0.584020
C73	C	0.996479	-0.146121	0.084022
C74	C	1.496479	0.353879	0.584022
C75	C	0.996497	-0.146130	-0.084124
C76	C	1.496497	0.353870	0.415876
C77	C	0.995211	-0.218957	-0.084123
C78	C	1.495211	0.281043	0.415877
C79	C	0.994567	-0.255364	-0.000048
C80	C	1.494567	0.244636	0.499952
C81	C	1.145506	0.090330	-0.000060
C82	C	1.645506	0.590330	0.499940
C83	C	1.238749	0.091697	-0.000070
C84	C	1.738749	0.591697	0.499930
C85	C	0.985319	0.223094	-0.000060
C86	C	1.485319	0.723094	0.499940
C87	C	0.986694	0.300601	-0.000066
C88	C	1.486694	0.800601	0.499934
N89	N	0.991890	0.095466	0.219423
N90	N	1.491890	0.595466	0.719423
N91	N	0.991946	0.095416	-0.219526
N92	N	1.491946	0.595416	0.280474
C93	C	0.932067	0.145017	0.469076
C94	C	1.432067	0.645017	0.969076
C95	C	1.007919	0.158560	0.530875
C96	C	1.507919	0.658560	1.030875
C97	C	0.991911	0.095449	0.408585
C98	C	1.491911	0.595449	0.908585
C99	C	0.916079	0.081922	0.530880
C100	C	1.416079	0.581922	1.030880
C101	C	0.991924	0.095435	0.591306
C102	C	1.491924	0.595435	1.091306
C103	C	1.067801	0.109024	0.469023
C104	C	1.567801	0.609024	0.969023
C105	C	0.975911	0.032359	0.469023
C106	C	1.475911	0.532359	0.969023
C107	C	1.051817	0.045876	0.530793
C108	C	1.551817	0.545876	1.030793
C109	C	0.991902	0.095460	0.303324
C110	C	1.491902	0.595460	0.803324
C111	C	0.991941	0.095424	0.696565
C112	C	1.491941	0.595424	1.196565
H113	H	0.563878	-0.026471	-0.000139
H114	H	1.063878	0.473529	0.499861
F115	F	0.409477	0.234425	-0.000157
F116	F	0.909477	0.734425	0.499843
F117	F	0.540609	0.166260	-0.160131
F118	F	1.040609	0.666260	0.339869
F119	F	0.865987	0.199848	0.433652
F120	F	1.365987	0.699848	0.933652
H121	H	0.851943	0.070488	0.558054
H122	H	1.351943	0.570488	1.058054
F123	F	1.151650	0.124051	0.433661
F124	F	1.651650	0.624051	0.933661
H125	H	1.102486	0.003949	0.557722
H126	H	1.602486	0.503949	1.057722
H127	H	0.997001	-0.116477	0.152482
H128	H	1.497001	0.383523	0.652482
F129	F	0.997170	-0.107379	-0.173594
F130	F	1.497170	0.392621	0.326406
F131	F	0.958175	-0.037348	0.433482
F132	F	1.458175	0.462652	0.933482
F133	F	0.994533	-0.257710	-0.173600
F134	F	1.494533	0.242290	0.326400
H135	H	0.449529	0.033393	-0.140522
H136	H	0.949529	0.533393	0.359478
F137	F	0.443181	0.024685	0.159990
F138	F	0.943181	0.524685	0.659990
H139	H	0.994670	-0.248594	0.152479
H140	H	1.494670	0.251406	0.652479
H141	H	0.534399	0.157551	0.140237
H142	H	1.034399	0.657551	0.640237
H143	H	0.986812	-0.692626	0.152461
H144	H	1.486812	-0.192626	0.652461
H145	H	0.989128	-0.560508	0.152465
H146	H	1.489128	-0.060508	0.652465
H147	H	0.989162	-0.560515	-0.152585
H148	H	1.489162	-0.060515	0.347415
F149	F	0.986655	-0.701744	-0.173620
F150	F	1.486655	-0.201744	0.326380
F151	F	1.025625	0.228288	0.566386
F152	F	1.525625	0.728288	1.066386
