data_functionalizedCrystal
_audit_creation_method	'MofGen! by Chris Wilmer'
_symmetry_space_group_name_H-M	'P1'
_symmetry_Int_Tables_number	1
_symmetry_cell_setting	triclinic
loop_
_symmetry_equiv_pos_as_xyz
  x,y,z
_cell_length_a	19.805407
_cell_length_b	12.827892
_cell_length_c	19.805399
_cell_angle_alpha	89.977471
_cell_angle_beta	89.980427
_cell_angle_gamma	90.015392
loop_
_atom_site_label
_atom_site_type_symbol
_atom_site_fract_x
_atom_site_fract_y
_atom_site_fract_z
Zn1	Zn	1.034788	-0.416057	-0.382743
Zn2	Zn	1.534788	0.083943	0.117257
Zn3	Zn	1.034724	-0.590812	-0.269565
Zn4	Zn	1.534724	-0.090812	0.230435
Zn5	Zn	0.921602	-0.416086	-0.269568
Zn6	Zn	1.421602	0.083914	0.230432
Zn7	Zn	0.921587	-0.590757	-0.382712
Zn8	Zn	1.421587	-0.090757	0.117288
O9	O	0.978175	-0.503428	-0.326147
O10	O	1.478175	-0.003428	0.173853
O11	O	1.129496	-0.439250	-0.367742
O12	O	1.629496	0.060750	0.132258
O13	O	1.019698	-0.567670	-0.174849
O14	O	1.519698	-0.067670	0.325151
O15	O	0.936649	-0.269846	-0.284595
O16	O	1.436649	0.230154	0.215405
O17	O	1.129449	-0.567642	-0.284590
O18	O	1.629449	-0.067642	0.215410
O19	O	1.019806	-0.269825	-0.367745
O20	O	1.519806	0.230175	0.132255
O21	O	0.936588	-0.439299	-0.174851
O22	O	1.436588	0.060701	0.325149
O23	O	0.826884	-0.439245	-0.284565
O24	O	1.326884	0.060755	0.215435
O25	O	0.936624	-0.567547	-0.477433
O26	O	1.436624	-0.067547	0.022567
O27	O	0.826873	-0.567575	-0.367691
O28	O	1.326873	-0.067575	0.132309
O29	O	1.019792	-0.439196	-0.477456
O30	O	1.519792	0.060804	0.022544
O31	O	1.019684	-0.737041	-0.284560
O32	O	1.519684	-0.237041	0.215440
O33	O	0.936563	-0.737000	-0.367688
O34	O	1.436563	-0.237000	0.132312
C35	C	0.802319	-0.503408	-0.326125
C36	C	1.302319	-0.003408	0.173875
C37	C	0.727087	-0.503425	-0.326132
C38	C	1.227087	-0.003425	0.173868
C39	C	0.978133	-0.774938	-0.326135
C40	C	1.478133	-0.274938	0.173865
C41	C	0.978177	-0.891091	-0.326153
C42	C	1.478177	-0.391091	0.173847
C43	C	0.691755	-0.570347	-0.369346
C44	C	1.191755	-0.070347	0.130654
C45	C	0.621067	-0.570349	-0.369355
C46	C	1.121067	-0.070349	0.130645
C47	C	0.585712	-0.503433	-0.326147
C48	C	1.085712	-0.003433	0.173853
C49	C	0.621049	-0.436504	-0.282931
C50	C	1.121049	0.063496	0.217069
C51	C	0.691736	-0.436497	-0.282926
C52	C	1.191736	0.063503	0.217074
C53	C	0.335975	-0.436527	-0.282954
C54	C	0.835975	0.063473	0.217046
C55	C	0.265283	-0.436540	-0.282961
C56	C	0.765283	0.063460	0.217039
C57	C	0.265306	-0.570378	-0.369383
C58	C	0.765306	-0.070378	0.130617
C59	C	0.335993	-0.570372	-0.369378
C60	C	0.835993	-0.070372	0.130622
C61	C	0.371324	-0.503439	-0.326165
C62	C	0.871324	-0.003439	0.173835
C63	C	0.447973	-0.503436	-0.326156
C64	C	0.947973	-0.003436	0.173844
C65	C	0.509065	-0.503440	-0.326152
C66	C	1.009065	-0.003440	0.173848
C67	C	1.019357	-0.942862	-0.285064
C68	C	1.519357	-0.442862	0.214936
C69	C	1.019403	-1.062912	-0.285081
C70	C	1.519403	-0.562912	0.214919
C71	C	1.154718	-0.503449	-0.326169
C72	C	1.654718	-0.003449	0.173831
C73	C	1.229950	-0.503458	-0.326179
C74	C	1.729950	-0.003458	0.173821
C75	C	0.978213	-0.503362	-0.502690
C76	C	1.478213	-0.003362	-0.002690
C77	C	0.978229	-0.503334	-0.577922
C78	C	1.478229	-0.003334	-0.077922
C79	C	0.978236	-0.230858	-0.326174
C80	C	1.478236	0.269142	0.173826
C81	C	0.978262	-0.114705	-0.326185
C82	C	1.478262	0.385295	0.173815
C83	C	1.021536	-0.436499	-0.613279
C84	C	1.521536	0.063501	-0.113279
C85	C	1.021543	-0.436468	-0.683968
C86	C	1.521543	0.063532	-0.183968
C87	C	0.978246	-0.503280	-0.719298
C88	C	1.478246	-0.003280	-0.219298
C89	C	0.934935	-0.570118	-0.683935
C90	C	1.434935	-0.070118	-0.183935
C91	C	0.934925	-0.570143	-0.613248
C92	C	1.434925	-0.070143	-0.113248
C93	C	0.934973	-0.570021	-0.969009
C94	C	1.434973	-0.070021	-0.469009
C95	C	0.934988	-0.569994	-1.039701
C96	C	1.434988	-0.069994	-0.539701
C97	C	1.021591	-0.436347	-1.039728
C98	C	1.521591	0.063653	-0.539728
C99	C	1.021581	-0.436371	-0.969041
C100	C	1.521581	0.063629	-0.469041
C101	C	0.978268	-0.503205	-0.933685
C102	C	1.478268	-0.003205	-0.433685
C103	C	0.978260	-0.503236	-0.857037
C104	C	1.478260	-0.003236	-0.357037
C105	C	0.978257	-0.503255	-0.795945
C106	C	1.478257	-0.003255	-0.295945
C107	C	0.978176	-0.503418	-0.150291
C108	C	1.478176	-0.003418	0.349709
C109	C	0.978291	-0.503152	-0.075060
C110	C	1.478291	-0.003152	0.424940
H111	H	0.592303	-0.624844	-0.404544
H112	H	1.092303	-0.124844	0.095456
H113	H	0.943002	-1.070191	-0.361363
H114	H	1.443002	-0.570191	0.138637
C115	C	0.374834	-0.362910	-0.235420
C116	C	0.874834	0.137090	0.264580
H117	H	0.421996	-0.372476	-0.241607
H118	H	0.921996	0.127524	0.258393
H119	H	0.363228	-0.378111	-0.189927
H120	H	0.863228	0.121889	0.310073
H121	H	0.363259	-0.292716	-0.245411
H122	H	0.863259	0.207284	0.254589
C123	C	1.067029	-1.123048	-0.237554
C124	C	1.567029	-0.623048	0.262446
H125	H	1.060814	-1.195846	-0.243802
H126	H	1.560814	-0.695846	0.256198
H127	H	1.057154	-1.105265	-0.192056
H128	H	1.557154	-0.605265	0.307944
H129	H	1.112507	-1.105145	-0.247493
H130	H	1.612507	-0.605145	0.252507
H131	H	0.236531	-0.624874	-0.404572
H132	H	0.736531	-0.124874	0.095428
H133	H	1.054581	-0.898310	-0.249875
H134	H	1.554581	-0.398310	0.250125
H135	H	0.364776	-0.624865	-0.404560
H136	H	0.864776	-0.124865	0.095440
H137	H	1.056840	-0.381970	-0.940279
H138	H	1.556840	0.118030	-0.440279
H139	H	0.236499	-0.382043	-0.247776
H140	H	0.736499	0.117957	0.252224
C141	C	0.730601	-0.362882	-0.235392
C142	C	1.230601	0.137118	0.264608
H143	H	0.699422	-0.323035	-0.209656
H144	H	1.199422	0.176965	0.290344
H145	H	0.758192	-0.317402	-0.261334
H146	H	1.258192	0.182598	0.238666
H147	H	0.758159	-0.402796	-0.205851
H148	H	1.258159	0.097204	0.294149
H149	H	0.899728	-0.624402	-1.068465
H150	H	1.399728	-0.124402	-0.568465
C151	C	0.887309	-0.643612	-0.722793
C152	C	1.387309	-0.143612	-0.222793
H153	H	0.861511	-0.683414	-0.691610
H154	H	1.361511	-0.183414	-0.191610
H155	H	0.913193	-0.689138	-0.750368
H156	H	1.413193	-0.189138	-0.250368
H157	H	0.857828	-0.603618	-0.750367
H158	H	1.357828	-0.103618	-0.250367
H159	H	1.056809	-0.382046	-0.712753
H160	H	1.556809	0.117954	-0.212753
C161	C	0.930594	-0.951265	-0.373697
C162	C	1.430594	-0.451265	0.126303
H163	H	0.904756	-0.903217	-0.399477
H164	H	1.404756	-0.403217	0.100523
H165	H	0.901161	-0.993912	-0.347761
H166	H	1.401161	-0.493912	0.152239
H167	H	0.956516	-0.993777	-0.403196
H168	H	1.456516	-0.493777	0.096804
C169	C	0.582160	-0.362901	-0.235401
C170	C	1.082160	0.137099	0.264599
H171	H	0.535001	-0.372497	-0.241587
H172	H	1.035001	0.127503	0.258413
H173	H	0.593756	-0.292705	-0.245380
H174	H	1.093756	0.207295	0.254620
H175	H	0.593726	-0.378112	-0.189905
H176	H	1.093726	0.121888	0.310095
H177	H	1.056795	-0.382096	-0.584519
H178	H	1.556795	0.117904	-0.084519
C179	C	1.069231	-0.362822	-1.078622
C180	C	1.569231	0.137178	-0.578622
H181	H	1.063033	-0.372365	-1.125781
H182	H	1.563033	0.127635	-0.625781
H183	H	1.114702	-0.378129	-1.067044
H184	H	1.614702	0.121871	-0.567044
H185	H	1.059337	-0.292607	-1.067041
H186	H	1.559337	0.207393	-0.567041
C187	C	0.887317	-0.643514	-0.930126
C188	C	1.387317	-0.143514	-0.430126
H189	H	0.861534	-0.683298	-0.961293
H190	H	1.361534	-0.183298	-0.461293
H191	H	0.857835	-0.603522	-0.902560
H192	H	1.357835	-0.103522	-0.402560
H193	H	0.913180	-0.689074	-0.902542
H194	H	1.413180	-0.189074	-0.402542
H195	H	0.720536	-0.624841	-0.404529
H196	H	1.220536	-0.124841	0.095471
C197	C	0.887305	-0.643688	-0.574355
C198	C	1.387305	-0.143688	-0.074355
H199	H	0.861529	-0.683489	-0.605519
H200	H	1.361529	-0.183489	-0.105519
H201	H	0.857815	-0.603740	-0.546771
H202	H	1.357815	-0.103740	-0.046771
H203	H	0.913201	-0.689229	-0.546789
H204	H	1.413201	-0.189229	-0.046789
