data_functionalizedCrystal
_audit_creation_method	'MofGen! by Chris Wilmer'
_symmetry_space_group_name_H-M	'P1'
_symmetry_Int_Tables_number	1
_symmetry_cell_setting	triclinic
loop_
_symmetry_equiv_pos_as_xyz
  x,y,z
_cell_length_a	19.077212
_cell_length_b	29.839131
_cell_length_c	19.076919
_cell_angle_alpha	87.732541
_cell_angle_beta	90.114942
_cell_angle_gamma	92.333380
loop_
_atom_site_label
_atom_site_type_symbol
_atom_site_fract_x
_atom_site_fract_y
_atom_site_fract_z
Zn1	Zn	1.058217	-0.163090	0.440566
Zn2	Zn	1.308217	0.086910	0.690566
Zn3	Zn	1.558217	0.336910	0.940566
Zn4	Zn	1.808217	0.586910	1.190566
Zn5	Zn	1.062824	-0.235086	0.323051
Zn6	Zn	1.312824	0.014914	0.573051
Zn7	Zn	1.562824	0.264914	0.823051
Zn8	Zn	1.812824	0.514914	1.073051
Zn9	Zn	0.945433	-0.162853	0.318341
Zn10	Zn	1.195433	0.087147	0.568341
Zn11	Zn	1.445433	0.337147	0.818341
Zn12	Zn	1.695433	0.587147	1.068341
Zn13	Zn	0.940641	-0.241079	0.435784
Zn14	Zn	1.190641	0.008921	0.685784
Zn15	Zn	1.440641	0.258921	0.935784
Zn16	Zn	1.690641	0.508921	1.185784
O17	O	1.001779	-0.200527	0.379436
O18	O	1.251779	0.049473	0.629436
O19	O	1.501779	0.299473	0.879436
O20	O	1.751779	0.549473	1.129436
O21	O	1.157163	-0.170232	0.428950
O22	O	1.407163	0.079768	0.678950
O23	O	1.657163	0.329768	0.928950
O24	O	1.907163	0.579768	1.178950
O25	O	1.051186	-0.222898	0.224096
O26	O	1.301186	0.027102	0.474096
O27	O	1.551186	0.277102	0.724096
O28	O	1.801186	0.527102	0.974096
O29	O	0.960472	-0.100016	0.334585
O30	O	1.210472	0.149984	0.584585
O31	O	1.460472	0.399984	0.834585
O32	O	1.710472	0.649984	1.084585
O33	O	1.160548	-0.223127	0.342612
O34	O	1.410548	0.026873	0.592612
O35	O	1.660548	0.276873	0.842612
O36	O	1.910548	0.526873	1.092612
O37	O	1.043334	-0.100190	0.424383
O38	O	1.293334	0.149810	0.674383
O39	O	1.543334	0.399810	0.924383
O40	O	1.793334	0.649810	1.174383
O41	O	0.964939	-0.169828	0.220636
O42	O	1.214939	0.080172	0.470636
O43	O	1.464939	0.330172	0.720636
O44	O	1.714939	0.580172	0.970636
O45	O	0.846462	-0.175639	0.329948
O46	O	1.096462	0.074361	0.579948
O47	O	1.346462	0.324361	0.829948
O48	O	1.596462	0.574361	1.079948
O49	O	0.952304	-0.233340	0.534748
O50	O	1.202304	0.016660	0.784748
O51	O	1.452304	0.266660	1.034748
O52	O	1.702304	0.516660	1.284748
O53	O	0.842941	-0.233111	0.416232
O54	O	1.092941	0.016889	0.666232
O55	O	1.342941	0.266889	0.916232
O56	O	1.592941	0.516889	1.166232
O57	O	1.038687	-0.176042	0.538262
O58	O	1.288687	0.073958	0.788262
O59	O	1.538687	0.323958	1.038262
O60	O	1.788687	0.573958	1.288262
O61	O	1.046539	-0.298750	0.337975
O62	O	1.296539	-0.048750	0.587975
O63	O	1.546539	0.201250	0.837975
O64	O	1.796539	0.451250	1.087975
O65	O	0.956771	-0.303152	0.420799
O66	O	1.206771	-0.053152	0.670799
O67	O	1.456771	0.196848	0.920799
O68	O	1.706771	0.446848	1.170799
C69	C	0.819205	-0.205000	0.372061
C70	C	1.069205	0.045000	0.622061
C71	C	1.319205	0.295000	0.872061
C72	C	1.569205	0.545000	1.122061
C73	C	0.741098	-0.206925	0.368922
C74	C	0.991098	0.043075	0.618922
C75	C	1.241098	0.293075	0.868922
C76	C	1.491098	0.543075	1.118922
C77	C	0.301628	-0.220711	0.346446
C78	C	0.551628	0.029289	0.596446
C79	C	0.801628	0.279289	0.846446
C80	C	1.051628	0.529289	1.096446
C81	C	0.375018	-0.218900	0.349389
C82	C	0.625018	0.031100	0.599389
C83	C	0.875018	0.281100	0.849389
C84	C	1.125018	0.531100	1.099389
C85	C	0.409950	-0.190504	0.395886
C86	C	0.659950	0.059496	0.645886
C87	C	0.909950	0.309496	0.895886
C88	C	1.159950	0.559496	1.145886
C89	C	0.371488	-0.163913	0.439436
C90	C	0.621488	0.086087	0.689436
C91	C	0.871488	0.336087	0.939436
C92	C	1.121488	0.586087	1.189436
C93	C	0.298100	-0.165722	0.436489
C94	C	0.548100	0.084278	0.686489
C95	C	0.798100	0.334278	0.936489
C96	C	1.048100	0.584278	1.186489
C97	C	0.629248	-0.182143	0.409525
C98	C	0.879248	0.067857	0.659525
C99	C	1.129248	0.317857	0.909525
C100	C	1.379248	0.567857	1.159525
C101	C	0.702642	-0.180337	0.412471
C102	C	0.952642	0.069663	0.662471
C103	C	1.202642	0.319663	0.912471
C104	C	1.452642	0.569663	1.162471
C105	C	0.706167	-0.235324	0.322423
C106	C	0.956167	0.014676	0.572423
C107	C	1.206167	0.264676	0.822423
C108	C	1.456167	0.514676	1.072423
C109	C	0.632777	-0.237132	0.319483
C110	C	0.882777	0.012868	0.569483
C111	C	1.132777	0.262868	0.819483
C112	C	1.382777	0.512868	1.069483
C113	C	0.594321	-0.210540	0.363030
C114	C	0.844321	0.039460	0.613030
C115	C	1.094321	0.289460	0.863030
C116	C	1.344321	0.539460	1.113030
N117	N	0.484966	-0.188653	0.398897
N118	N	0.734966	0.061347	0.648897
N119	N	0.984966	0.311347	0.898897
N120	N	1.234966	0.561347	1.148897
N121	N	0.519307	-0.212389	0.360015
N122	N	0.769307	0.037611	0.610015
N123	N	1.019307	0.287611	0.860015
N124	N	1.269307	0.537611	1.110015
C125	C	1.001653	-0.317252	0.379396
C126	C	1.251653	-0.067252	0.629396
C127	C	1.501653	0.182748	0.879396
C128	C	1.751653	0.432748	1.129396
C129	C	1.001663	-0.367186	0.379405
C130	C	1.251663	-0.117186	0.629405
C131	C	1.501663	0.132814	0.879405
C132	C	1.751663	0.382814	1.129405
C133	C	1.048600	-0.674522	0.336378
C134	C	1.298600	-0.424522	0.586378
C135	C	1.548600	-0.174522	0.836378
C136	C	1.798600	0.075478	1.086378
C137	C	1.048686	-0.862194	0.336409
C138	C	1.298686	-0.612194	0.586409
C139	C	1.548686	-0.362194	0.836409
C140	C	1.798686	-0.112194	1.086409
O141	O	1.088493	-0.884498	0.299795
O142	O	1.338493	-0.634498	0.549795
O143	O	1.588493	-0.384498	0.799795
O144	O	1.838493	-0.134498	1.049795
N145	N	1.001922	-0.887967	0.379494
N146	N	1.251922	-0.637967	0.629494
N147	N	1.501922	-0.387967	0.879494
N148	N	1.751922	-0.137967	1.129494
C149	C	0.955138	-0.866820	0.422579
C150	C	1.205138	-0.616820	0.672579
C151	C	1.455138	-0.366820	0.922579
C152	C	1.705138	-0.116820	1.172579
O153	O	0.915369	-0.893048	0.459232
O154	O	1.165369	-0.643048	0.709232
O155	O	1.415369	-0.393048	0.959232
O156	O	1.665369	-0.143048	1.209232
C157	C	0.955056	-0.679149	0.422551
C158	C	1.205056	-0.429149	0.672551
C159	C	1.455056	-0.179149	0.922551
C160	C	1.705056	0.070851	1.172551
C161	C	1.001817	-0.653378	0.379458
C162	C	1.251817	-0.403378	0.629458
C163	C	1.501817	-0.153378	0.879458
C164	C	1.751817	0.096622	1.129458
C165	C	1.095358	-0.648751	0.293288
C166	C	1.345358	-0.398751	0.543288
C167	C	1.595358	-0.148751	0.793288
C168	C	1.845358	0.101249	1.043288
C169	C	1.095334	-0.601836	0.293278
C170	C	1.345334	-0.351836	0.543278
C171	C	1.595334	-0.101836	0.793278
C172	C	1.845334	0.148164	1.043278
C173	C	1.048551	-0.580692	0.336358
C174	C	1.298551	-0.330692	0.586358
C175	C	1.548551	-0.080692	0.836358
C176	C	1.798551	0.169308	1.086358
C177	C	1.001793	-0.606463	0.379447
C178	C	1.251793	-0.356463	0.629447
C179	C	1.501793	-0.106463	0.879447
C180	C	1.751793	0.143537	1.129447
C181	C	0.908275	-0.658002	0.465639
C182	C	1.158275	-0.408002	0.715639
C183	C	1.408275	-0.158002	0.965639
C184	C	1.658275	0.091998	1.215639
C185	C	0.908260	-0.611081	0.465629
C186	C	1.158260	-0.361081	0.715629
C187	C	1.408260	-0.111081	0.965629
C188	C	1.658260	0.138919	1.215629
C189	C	0.955021	-0.585310	0.422536
C190	C	1.205021	-0.335310	0.672536
C191	C	1.455021	-0.085310	0.922536
C192	C	1.705021	0.164690	1.172536
C193	C	0.954986	-0.538403	0.422517
C194	C	1.204986	-0.288403	0.672517
C195	C	1.454986	-0.038403	0.922517
C196	C	1.704986	0.211597	1.172517
N197	N	1.001749	-0.512630	0.379431
N198	N	1.251749	-0.262630	0.629431
N199	N	1.501749	-0.012630	0.879431
N200	N	1.751749	0.237370	1.129431
C201	C	1.048531	-0.533774	0.336352
C202	C	1.298531	-0.283774	0.586352
C203	C	1.548531	-0.033774	0.836352
C204	C	1.798531	0.216226	1.086352
C205	C	0.955183	-0.965349	0.422589
C206	C	1.205183	-0.715349	0.672589
C207	C	1.455183	-0.465349	0.922589
C208	C	1.705183	-0.215349	1.172589
C209	C	0.955202	-1.012267	0.422595
C210	C	1.205202	-0.762267	0.672595
C211	C	1.455202	-0.512267	0.922595
C212	C	1.705202	-0.262267	1.172595
C213	C	1.048751	-1.007638	0.336426
C214	C	1.298751	-0.757638	0.586426
C215	C	1.548751	-0.507638	0.836426
C216	C	1.798751	-0.257638	1.086426
C217	C	1.048728	-0.960719	0.336417
C218	C	1.298728	-0.710719	0.586417
C219	C	1.548728	-0.460719	0.836417
C220	C	1.798728	-0.210719	1.086417
C221	C	1.001946	-0.939576	0.379504
C222	C	1.251946	-0.689576	0.629504
C223	C	1.501946	-0.439576	0.879504
C224	C	1.751946	-0.189576	1.129504
C225	C	1.048476	-0.435250	0.336333
C226	C	1.298476	-0.185250	0.586333
C227	C	1.548476	0.064750	0.836333
C228	C	1.798476	0.314750	1.086333
C229	C	1.048446	-0.388331	0.336325
C230	C	1.298446	-0.138331	0.586325
C231	C	1.548446	0.111669	0.836325
C232	C	1.798446	0.361669	1.086325
C233	C	0.954899	-0.392964	0.422497
C234	C	1.204899	-0.142964	0.672497
C235	C	1.454899	0.107036	0.922497
C236	C	1.704899	0.357036	1.172497
C237	C	0.954927	-0.439879	0.422503
C238	C	1.204927	-0.189879	0.672503
C239	C	1.454927	0.060121	0.922503
C240	C	1.704927	0.310121	1.172503
C241	C	1.001721	-0.461020	0.379419
C242	C	1.251721	-0.211020	0.629419
C243	C	1.501721	0.038980	0.879419
C244	C	1.751721	0.288980	1.129419
O245	O	0.915204	-0.516069	0.459117
O246	O	1.165204	-0.266069	0.709117
O247	O	1.415204	-0.016069	0.959117
O248	O	1.665204	0.233931	1.209117
O249	O	1.088304	-0.507539	0.299716
O250	O	1.338304	-0.257539	0.549716
O251	O	1.588304	-0.007539	0.799716
O252	O	1.838304	0.242461	1.049716
C253	C	1.048624	-0.721437	0.336388
C254	C	1.298624	-0.471437	0.586388
C255	C	1.548624	-0.221437	0.836388
C256	C	1.798624	0.028563	1.086388
C257	C	1.001866	-0.747208	0.379478
C258	C	1.251866	-0.497208	0.629478
C259	C	1.501866	-0.247208	0.879478
C260	C	1.751866	0.002792	1.129478
C261	C	0.955084	-0.726064	0.422557
C262	C	1.205084	-0.476064	0.672557
C263	C	1.455084	-0.226064	0.922557
C264	C	1.705084	0.023936	1.172557
C265	C	1.001886	-0.794126	0.379484
C266	C	1.251886	-0.544126	0.629484
C267	C	1.501886	-0.294126	0.879484
C268	C	1.751886	-0.044126	1.129484
C269	C	1.048668	-0.815270	0.336404
C270	C	1.298668	-0.565270	0.586404
C271	C	1.548668	-0.315270	0.836404
C272	C	1.798668	-0.065270	1.086404
C273	C	1.095431	-0.789497	0.293319
C274	C	1.345431	-0.539497	0.543319
C275	C	1.595431	-0.289497	0.793319
C276	C	1.845431	-0.039497	1.043319
C277	C	1.095407	-0.742581	0.293308
C278	C	1.345407	-0.492581	0.543308
C279	C	1.595407	-0.242581	0.793308
C280	C	1.845407	0.007419	1.043308
C281	C	0.908320	-0.751837	0.465643
C282	C	1.158320	-0.501837	0.715643
C283	C	1.408320	-0.251837	0.965643
C284	C	1.658320	-0.001837	1.215643
C285	C	0.908348	-0.798752	0.465649
C286	C	1.158348	-0.548752	0.715649
C287	C	1.408348	-0.298752	0.965649
C288	C	1.658348	-0.048752	1.215649
C289	C	0.955131	-0.819896	0.422569
C290	C	1.205131	-0.569896	0.672569
C291	C	1.455131	-0.319896	0.922569
C292	C	1.705131	-0.069896	1.172569
C293	C	1.185066	-0.196037	0.386840
C294	C	1.435066	0.053963	0.636840
C295	C	1.685066	0.303963	0.886840
C296	C	1.935066	0.553963	1.136840
C297	C	1.263172	-0.194124	0.389995
C298	C	1.513172	0.055876	0.639995
C299	C	1.763172	0.305876	0.889995
C300	C	2.013172	0.555876	1.139995
C301	C	0.994447	-0.205386	0.562714
C302	C	1.244447	0.044614	0.812714
C303	C	1.494447	0.294614	1.062714
C304	C	1.744447	0.544614	1.312714
C305	C	0.991323	-0.207457	0.640816
C306	C	1.241323	0.042543	0.890816
C307	C	1.491323	0.292543	1.140816
C308	C	1.741323	0.542543	1.390816
C309	C	1.001923	-0.083346	0.379492
C310	C	1.251923	0.166654	0.629492
C311	C	1.501923	0.416654	0.879492
C312	C	1.751923	0.666654	1.129492
C313	C	1.001985	-0.033411	0.379516
C314	C	1.251985	0.216589	0.629516
C315	C	1.501985	0.466589	0.879516
C316	C	1.751985	0.716589	1.129516
C317	C	1.009123	-0.195654	0.196872
C318	C	1.259123	0.054346	0.446872
C319	C	1.509123	0.304346	0.696872
C320	C	1.759123	0.554346	0.946872
C321	C	1.012383	-0.193453	0.118775
C322	C	1.262383	0.056547	0.368775
C323	C	1.512383	0.306547	0.618775
C324	C	1.762383	0.556547	0.868775
C325	C	1.034827	-0.178599	0.679339
C326	C	1.284827	0.071401	0.929339
C327	C	1.534827	0.321401	1.179339
C328	C	1.784827	0.571401	1.429339
C329	C	1.031883	-0.180543	0.752724
C330	C	1.281883	0.069457	1.002724
C331	C	1.531883	0.319457	1.252724
C332	C	1.781883	0.569457	1.502724
C333	C	0.985437	-0.211347	0.787585
C334	C	1.235437	0.038653	1.037585
C335	C	1.485437	0.288653	1.287585
C336	C	1.735437	0.538653	1.537585
C337	C	0.941927	-0.240206	0.749057
C338	C	1.191927	0.009794	0.999057
C339	C	1.441927	0.259794	1.249057
C340	C	1.691927	0.509794	1.499057
C341	C	0.944869	-0.238260	0.675673
C342	C	1.194869	0.011740	0.925673
C343	C	1.444869	0.261740	1.175673
C344	C	1.694869	0.511740	1.425673
C345	C	0.971815	-0.220366	1.006863
C346	C	1.221815	0.029634	1.256863
C347	C	1.471815	0.279634	1.506863
C348	C	1.721815	0.529634	1.756863
C349	C	0.968878	-0.222311	1.080252
C350	C	1.218878	0.027689	1.330252
C351	C	1.468878	0.277689	1.580252
C352	C	1.718878	0.527689	1.830252
C353	C	1.058833	-0.162647	1.083915
C354	C	1.308833	0.087353	1.333915
C355	C	1.558833	0.337353	1.583915
C356	C	1.808833	0.587353	1.833915
C357	C	1.061773	-0.160705	1.010529
C358	C	1.311773	0.089295	1.260529
C359	C	1.561773	0.339295	1.510529
C360	C	1.811773	0.589295	1.760529
C361	C	1.018261	-0.189562	0.972007
C362	C	1.268261	0.060438	1.222007
C363	C	1.518261	0.310438	1.472007
C364	C	1.768261	0.560438	1.722007
N365	N	0.982428	-0.213336	0.862597
N366	N	1.232428	0.036664	1.112597
N367	N	1.482428	0.286664	1.362597
N368	N	1.732428	0.536664	1.612597
N369	N	1.021267	-0.187571	0.896997
N370	N	1.271267	0.062429	1.146997
N371	N	1.521267	0.312429	1.396997
N372	N	1.771267	0.562429	1.646997
H373	H	1.086524	-0.367349	0.301230
H374	H	1.336524	-0.117349	0.551230
H375	H	1.586524	0.132651	0.801230
H376	H	1.836524	0.382651	1.051230
C377	C	0.586957	-0.152894	0.457435
C378	C	0.836957	0.097106	0.707435
C379	C	1.086957	0.347106	0.957435
C380	C	1.336957	0.597106	1.207435
N381	N	0.555100	-0.130863	0.493524
N382	N	0.805100	0.119137	0.743524
N383	N	1.055100	0.369137	0.993524
N384	N	1.305100	0.619137	1.243524
C385	C	1.099948	-0.458498	0.288935
C386	C	1.349948	-0.208498	0.538935
C387	C	1.599948	0.041502	0.788935
C388	C	1.849948	0.291502	1.038935
N389	N	1.138713	-0.476009	0.253230
N390	N	1.388713	-0.226009	0.503230
N391	N	1.638713	0.023991	0.753230
N392	N	1.888713	0.273991	1.003230
H393	H	0.737485	-0.256973	0.286968
H394	H	0.987485	-0.006973	0.536968
H395	H	1.237485	0.243027	0.786968
H396	H	1.487485	0.493027	1.036968
C397	C	1.146892	-0.812764	0.245930
C398	C	1.396892	-0.562764	0.495930
C399	C	1.646892	-0.312764	0.745930
C400	C	1.896892	-0.062764	0.995930
N401	N	1.185652	-0.830292	0.210242
N402	N	1.435652	-0.580292	0.460242
N403	N	1.685652	-0.330292	0.710242
N404	N	1.935652	-0.080292	0.960242
C405	C	1.100171	-0.932376	0.289013
C406	C	1.350171	-0.682376	0.539013
C407	C	1.600171	-0.432376	0.789013
C408	C	1.850171	-0.182376	1.039013
N409	N	1.138921	-0.911029	0.253308
N410	N	1.388921	-0.661029	0.503308
N411	N	1.638921	-0.411029	0.753308
N412	N	1.888921	-0.161029	1.003308
C413	C	0.917780	-0.256199	1.118598
C414	C	1.167780	-0.006199	1.368598
C415	C	1.417780	0.243801	1.618598
C416	C	1.667780	0.493801	1.868598
N417	N	0.879294	-0.281721	1.147480
N418	N	1.129294	-0.031721	1.397480
N419	N	1.379294	0.218279	1.647480
N420	N	1.629294	0.468279	1.897480
H421	H	1.067311	-0.157045	0.784087
H422	H	1.317311	0.092955	1.034087
H423	H	1.567311	0.342955	1.284087
H424	H	1.817311	0.592955	1.534087
H425	H	0.731081	-0.157210	0.450333
H426	H	0.981081	0.092790	0.700333
H427	H	1.231081	0.342790	0.950333
H428	H	1.481081	0.592790	1.200333
H429	H	0.916807	-0.375741	0.457570
H430	H	1.166807	-0.125741	0.707570
H431	H	1.416807	0.124259	0.957570
H432	H	1.666807	0.374259	1.207570
H433	H	1.133413	-0.580856	0.258190
H434	H	1.383413	-0.330856	0.508190
H435	H	1.633413	-0.080856	0.758190
H436	H	1.883413	0.169144	1.008190
C437	C	1.106685	-0.130900	1.126294
C438	C	1.356685	0.119100	1.376294
C439	C	1.606685	0.369100	1.626294
C440	C	1.856685	0.619100	1.876294
N441	N	1.142725	-0.106985	1.158214
N442	N	1.392725	0.143015	1.408214
N443	N	1.642725	0.393015	1.658214
N444	N	1.892725	0.643015	1.908214
H445	H	1.072651	-0.153516	0.650961
H446	H	1.322651	0.096484	0.900961
H447	H	1.572651	0.346484	1.150961
H448	H	1.822651	0.596484	1.400961
H449	H	0.870263	-0.819731	0.500740
H450	H	1.120263	-0.569731	0.750740
H451	H	1.370263	-0.319731	1.000740
H452	H	1.620263	-0.069731	1.250740
C453	C	0.856871	-0.728585	0.513056
C454	C	1.106871	-0.478585	0.763056
C455	C	1.356871	-0.228585	1.013056
C456	C	1.606871	0.021415	1.263056
N457	N	0.818121	-0.711074	0.548776
N458	N	1.068121	-0.461074	0.798776
N459	N	1.318121	-0.211074	1.048776
N460	N	1.568121	0.038926	1.298776
H461	H	0.399935	-0.140790	0.477292
H462	H	0.649935	0.109210	0.727292
H463	H	0.899935	0.359210	0.977292
H464	H	1.149935	0.609210	1.227292
H465	H	1.133485	-0.721602	0.258218
H466	H	1.383485	-0.471602	0.508218
H467	H	1.633485	-0.221602	0.758218
H468	H	1.883485	0.028398	1.008218
C469	C	1.100216	-1.030905	0.289042
C470	C	1.350216	-0.780905	0.539042
C471	C	1.600216	-0.530905	0.789042
C472	C	1.850216	-0.280905	1.039042
N473	N	1.138982	-1.048432	0.253359
N474	N	1.388982	-0.798432	0.503359
N475	N	1.638982	-0.548432	0.753359
N476	N	1.888982	-0.298432	1.003359
C477	C	1.112861	-0.126813	0.972187
C478	C	1.362861	0.123187	1.222187
C479	C	1.612861	0.373187	1.472187
C480	C	1.862861	0.623187	1.722187
N481	N	1.151340	-0.101285	0.943308
N482	N	1.401340	0.148715	1.193308
N483	N	1.651340	0.398715	1.443308
N484	N	1.901340	0.648715	1.693308
H485	H	0.266789	-0.144070	0.471949
H486	H	0.516789	0.105930	0.721949
H487	H	0.766789	0.355930	0.971949
H488	H	1.016789	0.605930	1.221949
C489	C	1.146824	-0.672002	0.245889
C490	C	1.396824	-0.422002	0.495889
C491	C	1.646824	-0.172002	0.745889
C492	C	1.896824	0.077998	0.995889
N493	N	1.185586	-0.689511	0.210180
N494	N	1.435586	-0.439511	0.460180
N495	N	1.685586	-0.189511	0.710180
N496	N	1.935586	0.060489	0.960180
C497	C	0.856795	-0.587827	0.513030
C498	C	1.106795	-0.337827	0.763030
C499	C	1.356795	-0.087827	1.013030
C500	C	1.606795	0.162173	1.263030
N501	N	0.818030	-0.570313	0.548731
N502	N	1.068030	-0.320313	0.798731
N503	N	1.318030	-0.070313	1.048731
N504	N	1.568030	0.179687	1.298731
H505	H	0.936394	-0.243870	0.975508
H506	H	1.186394	0.006130	1.225508
H507	H	1.436394	0.256130	1.475508
H508	H	1.686394	0.506130	1.725508
H509	H	0.917086	-0.948138	0.457677
H510	H	1.167086	-0.698138	0.707677
H511	H	1.417086	-0.448138	0.957677
H512	H	1.667086	-0.198138	1.207677
C513	C	0.890829	-0.274088	0.787407
C514	C	1.140829	-0.024088	1.037407
C515	C	1.390829	0.225912	1.287407
C516	C	1.640829	0.475912	1.537407
N517	N	0.852341	-0.299607	0.816291
N518	N	1.102341	-0.049607	1.066291
N519	N	1.352341	0.200393	1.316291
N520	N	1.602341	0.450393	1.566291
C521	C	0.903485	-0.468228	0.469905
C522	C	1.153485	-0.218228	0.719905
C523	C	1.403485	0.031772	0.969905
C524	C	1.653485	0.281772	1.219905
N525	N	0.864743	-0.489577	0.505615
N526	N	1.114743	-0.239577	0.755615
N527	N	1.364743	0.010423	1.005615
N528	N	1.614743	0.260423	1.255615
C529	C	0.897011	-0.270007	0.633298
C530	C	1.147011	-0.020007	0.883298
C531	C	1.397011	0.229993	1.133298
C532	C	1.647011	0.479993	1.383298
N533	N	0.860962	-0.293919	0.601382
N534	N	1.110962	-0.043919	0.851382
N535	N	1.360962	0.206081	1.101382
N536	N	1.610962	0.456081	1.351382
H537	H	0.870194	-0.678977	0.500727
H538	H	1.120194	-0.428977	0.750727
H539	H	1.370194	-0.178977	1.000727
H540	H	1.620194	0.071023	1.250727
C541	C	0.263210	-0.251949	0.295295
C542	C	0.513210	-0.001949	0.545295
C543	C	0.763210	0.248051	0.795295
C544	C	1.013210	0.498051	1.045295
N545	N	0.234276	-0.275477	0.256764
N546	N	0.484276	-0.025477	0.506764
N547	N	0.734276	0.224523	0.756764
N548	N	0.984276	0.474523	1.006764
C549	C	0.594358	-0.268364	0.268323
C550	C	0.844358	-0.018364	0.518323
C551	C	1.094358	0.231636	0.768323
C552	C	1.344358	0.481636	1.018323
N553	N	0.565421	-0.291887	0.229788
N554	N	0.815421	-0.041887	0.479788
N555	N	1.065421	0.208113	0.729788
N556	N	1.315421	0.458113	0.979788
C557	C	0.417317	-0.248149	0.301482
C558	C	0.667317	0.001851	0.551482
C559	C	0.917317	0.251851	0.801482
C560	C	1.167317	0.501851	1.051482
N561	N	0.449176	-0.270180	0.265396
N562	N	0.699176	-0.020180	0.515396
N563	N	0.949176	0.229820	0.765396
N564	N	1.199176	0.479820	1.015396
H565	H	0.917118	-1.033246	0.457680
H566	H	1.167118	-0.783246	0.707680
H567	H	1.417118	-0.533246	0.957680
H568	H	1.667118	-0.283246	1.207680
