data_functionalizedCrystal
_audit_creation_method	'MofGen! by Chris Wilmer'
_symmetry_space_group_name_H-M	'P1'
_symmetry_Int_Tables_number	1
_symmetry_cell_setting	triclinic
loop_
_symmetry_equiv_pos_as_xyz
  x,y,z
_cell_length_a	15.995350
_cell_length_b	13.339070
_cell_length_c	15.072220
_cell_angle_alpha	89.988889
_cell_angle_beta	90.001101
_cell_angle_gamma	99.560835
loop_
_atom_site_label
_atom_site_type_symbol
_atom_site_fract_x
_atom_site_fract_y
_atom_site_fract_z
O1	O	0.419760	1.342295	-0.073745
O2	O	0.364664	1.047768	-0.073753
O3	O	0.272195	1.203083	-0.073748
O4	O	0.512229	1.186981	-0.073750
O5	O	0.272193	1.203044	0.073817
O6	O	0.364662	1.047730	0.073812
O7	O	0.419759	1.342257	0.073820
Zn8	Zn	0.392210	1.194987	0.097245
Zn9	Zn	0.392212	1.195038	-0.097178
O10	O	0.512228	1.186942	0.073815
C11	C	0.240845	1.202398	0.000033
C12	C	0.147431	1.200402	0.000028
C13	C	0.355356	1.010060	0.000028
C14	C	0.327615	0.897758	0.000025
C15	C	0.429066	1.379965	0.000037
C16	C	0.456808	1.492267	0.000035
C17	C	-0.191982	1.193235	0.000031
C18	C	-0.170245	1.082623	-0.000304
C19	C	-0.073091	1.084619	0.000029
C20	C	-0.023596	1.196790	0.000029
C21	C	-0.051999	1.251326	0.084296
C22	C	-0.149281	1.248547	0.084366
C23	C	-0.149106	1.250876	-0.083443
C24	C	-0.052167	1.250850	-0.084557
C25	C	0.071570	1.198805	0.000031
C26	C	-0.287147	1.191223	0.000035
C27	C	0.543578	1.187627	0.000032
C28	C	0.636992	1.189623	0.000031
N29	N	0.392210	1.194960	0.229934
C30	C	0.241104	1.857060	0.000024
C31	C	0.215037	1.751547	0.000020
C32	C	0.275478	1.686722	0.000024
C33	C	0.361990	1.727420	0.000031
C34	C	0.388059	1.832943	0.000028
C35	C	0.422433	1.662605	0.000028
C36	C	0.508945	1.703303	0.000035
C37	C	0.535010	1.808816	0.000032
C38	C	0.474570	1.873641	0.000029
C39	C	0.396363	1.557082	0.000031
C40	C	0.543318	1.532965	0.000035
C41	C	0.569385	1.638478	0.000039
N42	N	0.392208	1.195073	-0.229867
C43	C	0.392209	1.195036	0.589136
C44	C	0.441392	1.111651	0.551526
C45	C	0.441686	1.111842	0.448700
C46	C	0.392209	1.194997	0.410931
C47	C	0.435813	1.300551	0.448226
C48	C	0.436191	1.300083	0.551084
C49	C	0.299438	1.173808	0.551236
C50	C	0.299461	1.171387	0.448372
C51	C	0.392209	1.194982	0.310218
C52	C	0.392212	1.195058	0.689849
H53	H	-0.054632	1.041749	-0.060377
C54	C	-0.048994	1.026274	0.081773
N55	N	-0.030846	0.982328	0.143348
C56	C	0.630176	1.853580	0.000038
N57	N	0.701855	1.887294	0.000046
H58	H	-0.162662	1.329756	0.088189
C59	C	0.534002	1.130160	0.415444
N60	N	0.603539	1.143964	0.390396
C61	C	-0.188200	1.202038	-0.169728
N62	N	-0.217646	1.165242	-0.234714
H63	H	-0.199047	1.038428	-0.060733
C64	C	0.246800	1.570655	0.000034
N65	N	0.225196	1.483230	0.000050
H66	H	0.503593	1.319703	0.422457
C67	C	0.119877	1.706787	0.000028
N68	N	0.048198	1.673074	0.000040
H69	H	0.191903	1.909849	0.000015
H70	H	-0.034184	1.210977	-0.146895
C71	C	0.609808	1.461661	0.000042
N72	N	0.659883	1.407950	0.000046
H73	H	-0.032422	1.213417	0.147004
H74	H	-0.176825	1.208747	0.147357
C75	C	0.503240	1.989713	0.000035
N76	N	0.524832	2.077141	0.000041
C77	C	0.401716	1.005841	0.414636
N78	N	0.371615	0.925994	0.388983
C79	C	-0.007037	1.362650	0.088543
N80	N	0.026835	1.446497	0.091745
H81	H	0.639825	1.671629	0.000044
C82	C	0.528606	1.325334	0.583484
N83	N	0.598216	1.344345	0.607883
C84	C	0.401597	1.005312	0.584995
N85	N	0.371626	0.925217	0.610215
H86	H	0.509314	1.125019	0.577364
C87	C	-0.210502	1.023150	0.080894
N88	N	-0.240815	0.978363	0.142061
H89	H	0.403093	1.364071	0.575961
C90	C	-0.005746	1.361365	-0.091428
N91	N	0.029216	1.444610	-0.096595
H92	H	0.401969	1.364082	0.423759
C93	C	-0.166423	1.361049	-0.084213
N94	N	-0.179472	1.444027	-0.084787
C95	C	0.251030	1.072061	0.586312
N96	N	0.214577	0.995420	0.612731
C97	C	0.255528	1.066486	0.415450
N98	N	0.222441	0.987473	0.390649
H99	H	0.325925	1.523957	0.000025
C100	C	0.245140	1.248121	0.413663
N101	N	0.204230	1.305932	0.387528
H102	H	0.262548	1.234617	0.575556
