data_functionalizedCrystal
_audit_creation_method	'MofGen! by Chris Wilmer'
_symmetry_space_group_name_H-M	'P1'
_symmetry_Int_Tables_number	1
_symmetry_cell_setting	triclinic
loop_
_symmetry_equiv_pos_as_xyz
  x,y,z
_cell_length_a	18.215407
_cell_length_b	12.759394
_cell_length_c	18.215398
_cell_angle_alpha	89.978944
_cell_angle_beta	89.983001
_cell_angle_gamma	90.011299
loop_
_atom_site_label
_atom_site_type_symbol
_atom_site_fract_x
_atom_site_fract_y
_atom_site_fract_z
Zn1	Zn	1.125126	-0.418375	-0.416090
Zn2	Zn	1.125059	-0.594065	-0.293033
Zn3	Zn	1.002059	-0.418393	-0.293042
Zn4	Zn	1.002048	-0.594005	-0.416063
O5	O	1.063573	-0.506209	-0.354557
O6	O	1.228101	-0.441699	-0.399773
O7	O	1.108719	-0.570794	-0.190050
O8	O	1.018417	-0.271369	-0.309380
O9	O	1.228052	-0.570777	-0.309364
O10	O	1.108833	-0.271356	-0.399782
O11	O	1.018352	-0.441728	-0.190057
O12	O	0.899073	-0.441670	-0.309354
O13	O	1.018398	-0.570675	-0.519051
O14	O	0.899065	-0.570692	-0.399737
O15	O	1.108822	-0.441640	-0.519071
O16	O	1.108708	-0.741078	-0.309338
O17	O	1.018333	-0.741034	-0.399728
C18	C	0.872366	-0.506177	-0.354544
C19	C	0.790568	-0.506189	-0.354556
C20	C	0.602398	-0.439116	-0.401707
C21	C	0.525540	-0.439125	-0.401709
C22	C	0.525499	-0.573332	-0.307420
C23	C	0.602357	-0.573317	-0.307415
C24	C	0.640804	-0.506211	-0.354562
C25	C	0.487088	-0.506235	-0.354570
C26	C	0.403754	-0.506245	-0.354572
C27	C	0.724143	-0.506199	-0.354559
C28	C	1.063532	-0.779177	-0.354545
C29	C	1.063582	-0.895954	-0.354564
C30	C	1.157662	-0.895782	-0.448771
C31	C	1.204725	-0.950557	-0.495880
C32	C	1.204769	-1.060279	-0.495896
C33	C	1.157743	-1.115228	-0.448799
C34	C	1.110679	-1.060453	-0.401690
C35	C	1.110642	-0.950729	-0.401678
C36	C	1.016597	-1.060624	-0.307489
C37	C	1.016555	-0.950903	-0.307468
C38	C	0.969570	-1.115573	-0.260392
C39	C	0.922510	-1.060798	-0.213278
C40	C	0.922468	-0.951070	-0.213264
C41	C	0.969492	-0.896128	-0.260359
C42	C	1.255526	-0.506243	-0.354570
C43	C	1.337325	-0.506257	-0.354576
C44	C	1.063616	-0.506149	-0.546510
C45	C	1.063635	-0.506123	-0.628309
C46	C	1.063634	-0.232176	-0.354585
C47	C	1.063660	-0.115399	-0.354597
C48	C	1.110723	-0.573198	-0.893367
C49	C	1.110711	-0.573234	-0.816509
C50	C	1.016603	-0.438846	-0.816499
C51	C	1.016611	-0.438815	-0.893357
C52	C	1.063675	-0.505990	-0.931789
C53	C	1.063656	-0.506057	-0.778073
C54	C	1.063643	-0.506096	-0.694739
C55	C	1.063687	-0.505953	-1.015128
C56	C	1.063572	-0.506194	-0.163351
C57	C	1.063696	-0.505923	-0.081552
H58	H	0.494186	-0.627969	-0.269036
H59	H	0.633627	-0.627955	-0.269020
F60	F	1.157612	-0.779006	-0.448765
F61	F	0.643315	-0.367692	-0.451883
H62	H	1.243012	-0.905808	-0.534227
F63	F	0.872461	-1.119284	-0.163167
H64	H	0.978286	-0.384153	-0.785198
F65	F	1.160811	-0.644693	-0.934267
H66	H	1.157776	-1.204569	-0.448823
F67	F	0.484669	-0.367712	-0.451886
F68	F	1.254856	-1.118576	-0.546036
H69	H	1.149023	-0.627962	-0.785229
F70	F	0.969696	-1.232349	-0.260332
F71	F	0.872373	-0.892783	-0.163126
F72	F	0.969444	-0.779352	-0.260356
H73	H	0.978295	-0.384085	-0.924640
