data_functionalizedCrystal
_audit_creation_method	'MofGen! by Chris Wilmer'
_symmetry_space_group_name_H-M	'P1'
_symmetry_Int_Tables_number	1
_symmetry_cell_setting	triclinic
loop_
_symmetry_equiv_pos_as_xyz
  x,y,z
_cell_length_a	10.654562
_cell_length_b	10.654559
_cell_length_c	15.186229
_cell_angle_alpha	89.998852
_cell_angle_beta	89.993826
_cell_angle_gamma	84.489394
loop_
_atom_site_label
_atom_site_type_symbol
_atom_site_fract_x
_atom_site_fract_y
_atom_site_fract_z
O1	O	1.667836	0.176472	-0.073281
O2	O	1.302360	0.193262	-0.073270
O3	O	1.493495	0.002129	-0.073275
O4	O	1.476701	0.367605	-0.073275
O5	O	1.493482	0.002126	0.073182
O6	O	1.302347	0.193259	0.073188
O7	O	1.667823	0.176470	0.073176
Zn8	Zn	1.485083	0.184864	0.096435
Zn9	Zn	1.485100	0.184868	-0.096529
O10	O	1.476688	0.367602	0.073182
C11	C	1.255556	0.192024	-0.000040
C12	C	1.116113	0.188326	-0.000035
C13	C	1.050575	0.186599	0.079792
C14	C	0.919553	0.183135	0.079777
C15	C	0.919617	0.183128	-0.079899
C16	C	1.050638	0.186584	-0.079883
C17	C	1.116050	0.188341	0.159639
C18	C	1.050512	0.186616	0.239473
C19	C	0.919490	0.183151	0.239458
C20	C	0.854006	0.181412	0.159610
C21	C	1.492253	-0.044670	-0.000049
C22	C	1.488556	-0.184113	-0.000054
C23	C	1.372545	-0.235658	-0.000053
C24	C	1.369079	-0.366681	-0.000046
C25	C	1.597647	-0.394602	-0.000046
C26	C	1.601111	-0.263582	-0.000046
C27	C	1.259990	-0.156189	-0.000061
C28	C	1.143969	-0.207733	-0.000060
C29	C	1.140503	-0.338755	-0.000054
C30	C	1.253058	-0.418234	-0.000047
C31	C	1.714627	0.177707	-0.000056
C32	C	1.854070	0.181405	-0.000066
C33	C	1.477930	0.414402	-0.000047
C34	C	1.481627	0.553844	-0.000047
N35	N	1.485081	0.184860	0.228128
N36	N	1.485112	0.184861	-0.228221
C37	C	1.569744	0.100256	0.453848
C38	C	1.569748	0.100253	0.546038
C39	C	1.400439	0.269469	0.546052
C40	C	1.400430	0.269465	0.453864
C41	C	1.485090	0.184860	0.407765
C42	C	1.485103	0.184861	0.592142
C43	C	1.485107	0.184859	0.692098
C44	C	1.485085	0.184861	0.307802
H45	H	0.747319	0.178587	0.159605
C46	C	1.796995	-0.247018	-0.075350
C47	C	1.728629	-0.206906	-0.000058
H48	H	1.875715	-0.212019	-0.075357
H49	H	1.811048	-0.336410	-0.075343
H50	H	1.750591	-0.219807	-0.126415
H51	H	1.775028	-0.234125	0.051007
H52	H	1.714580	-0.117495	-0.000058
H53	H	0.866289	0.181715	-0.144907
C54	C	1.328579	0.486208	0.425471
C55	C	1.307375	0.362474	0.403202
H56	H	1.271135	0.543621	0.394190
H57	H	1.316463	0.498315	0.486965
H58	H	1.412516	0.500609	0.410348
H59	H	1.223440	0.348070	0.418331
H60	H	1.319480	0.350362	0.341695
H61	H	0.866134	0.181737	0.304462
C62	C	1.037547	0.186266	-0.237718
C63	C	1.122685	0.188502	-0.167630
H64	H	1.082028	0.187457	-0.291889
H65	H	0.995376	0.111810	-0.234410
H66	H	0.977509	0.258028	-0.234394
H67	H	1.182718	0.116735	-0.170950
H68	H	1.164876	0.262965	-0.170939
H69	H	1.222735	0.191167	0.159660
H70	H	1.052331	-0.143014	-0.000058
C71	C	1.202721	0.039105	0.075222
C72	C	1.263801	-0.012169	-0.000063
H73	H	1.205084	0.128015	0.075221
H74	H	1.117529	0.019785	0.075212
H75	H	1.244143	0.004301	0.126292
H76	H	1.222373	0.022628	-0.051132
H77	H	1.349009	0.007163	-0.000061
H78	H	1.331513	0.338355	0.583596
C79	C	1.693821	-0.607848	-0.000057
C80	C	1.721361	-0.481962	-0.000051
H81	H	1.770200	-0.661776	-0.000068
H82	H	1.646304	-0.623580	0.051015
H83	H	1.646296	-0.623564	-0.051131
H84	H	1.768878	-0.466243	0.051027
H85	H	1.768899	-0.466223	-0.051128
H86	H	1.103839	0.188023	0.304482
H87	H	1.046034	-0.380718	-0.000044
C88	C	1.123652	-0.590721	-0.000042
C89	C	1.249250	-0.562257	-0.000043
H90	H	1.121304	-0.679633	-0.000048
H91	H	1.082236	-0.555932	0.051030
H92	H	1.082244	-0.555916	-0.051116
H93	H	1.290655	-0.597053	0.051036
H94	H	1.290683	-0.597060	-0.051119
C95	C	1.737087	-0.067017	0.463097
C96	C	1.662789	0.007247	0.403175
H97	H	1.794522	-0.124444	0.431813
H98	H	1.782722	-0.014318	0.499043
H99	H	1.684403	-0.112671	0.499064
H100	H	1.715472	0.052908	0.367211
H101	H	1.617151	-0.045458	0.367214
C102	C	1.595526	-0.070423	0.649703
C103	C	1.662805	0.007254	0.596692
H104	H	1.652980	-0.127845	0.680969
H105	H	1.545127	-0.020038	0.690351
H106	H	1.542859	-0.116083	0.613736
H107	H	1.715466	0.052920	0.632660
H108	H	1.713226	-0.043137	0.556039
