data_functionalizedCrystal
_audit_creation_method	'MofGen! by Chris Wilmer'
_symmetry_space_group_name_H-M	'P1'
_symmetry_Int_Tables_number	1
_symmetry_cell_setting	triclinic
loop_
_symmetry_equiv_pos_as_xyz
  x,y,z
_cell_length_a	27.732064
_cell_length_b	15.995343
_cell_length_c	14.472310
_cell_angle_alpha	89.994209
_cell_angle_beta	89.994644
_cell_angle_gamma	83.069305
loop_
_atom_site_label
_atom_site_type_symbol
_atom_site_fract_x
_atom_site_fract_y
_atom_site_fract_z
O1	O	0.641357	0.099689	-0.076685
O2	O	0.500629	0.114823	-0.076725
O3	O	0.574842	-0.014682	-0.076687
O4	O	0.567144	0.229193	-0.076723
O5	O	0.574823	-0.014674	0.076995
O6	O	0.500610	0.114830	0.076957
O7	O	0.641337	0.099696	0.076997
Cu8	Cu	0.570972	0.107264	0.091009
Cu9	Cu	0.570995	0.107255	-0.090738
O10	O	0.567125	0.229201	0.076959
C11	C	0.574515	-0.045869	0.000156
C12	C	0.573563	-0.138807	0.000163
C13	C	0.482612	0.114507	0.000111
C14	C	0.428953	0.113544	0.000097
C15	C	0.571834	-0.308972	0.000142
C16	C	0.518264	-0.331630	0.000125
C17	C	0.517256	-0.428295	-0.000234
C18	C	0.570132	-0.476510	0.000122
C19	C	0.597079	-0.447761	-0.087454
C20	C	0.597714	-0.350976	-0.087517
C21	C	0.598477	-0.351082	0.087254
C22	C	0.596499	-0.447552	0.088395
C23	C	0.569173	-0.571196	0.000107
C24	C	0.572795	-0.214286	0.000150
C25	C	0.051523	0.030457	0.000162
C26	C	0.253199	0.034001	0.000138
O27	O	0.284174	-0.030471	0.000182
N28	N	0.272656	0.110795	0.000122
C29	C	0.241691	0.186708	0.000119
O30	O	0.262868	0.252107	0.000114
C31	C	0.040017	0.183163	0.000150
C32	C	0.020562	0.106364	0.000156
C33	C	0.032068	-0.046335	0.000169
C34	C	-0.018348	-0.047221	0.000171
C35	C	-0.049309	0.028687	0.000164
C36	C	-0.029854	0.105479	0.000157
C37	C	0.009053	0.259075	0.000153
C38	C	-0.041369	0.258182	0.000163
C39	C	-0.060823	0.181383	0.000169
C40	C	-0.111231	0.180501	0.000152
N41	N	-0.130688	0.103707	0.000168
C42	C	-0.099727	0.027800	0.000174
C43	C	0.347574	0.188564	0.000100
C44	C	0.397992	0.189451	0.000091
C45	C	0.409496	0.036744	0.000112
C46	C	0.359077	0.035858	0.000115
C47	C	0.328116	0.111770	0.000116
C48	C	-0.205604	0.025947	0.000175
C49	C	-0.256025	0.025068	0.000173
C50	C	-0.267525	0.177775	0.000157
C51	C	-0.217109	0.178654	0.000155
C52	C	-0.186149	0.102733	0.000167
O53	O	-0.142235	0.244939	0.000118
O54	O	-0.120914	-0.037590	0.000199
C55	C	0.101939	0.031342	0.000161
C56	C	0.121394	0.108135	0.000154
C57	C	0.090433	0.184042	0.000148
C58	C	0.171812	0.109021	0.000144
C59	C	0.202773	0.033114	0.000151
C60	C	0.183316	-0.043680	0.000166
C61	C	0.132900	-0.044565	0.000167
C62	C	0.109890	0.260836	0.000132
C63	C	0.160307	0.261715	0.000130
C64	C	0.191268	0.185808	0.000136
C65	C	0.659355	0.100012	0.000158
C66	C	0.713014	0.100975	0.000166
C67	C	0.567452	0.260388	0.000113
C68	C	0.568404	0.353326	0.000100
N69	N	0.570960	0.107270	0.218840
N70	N	0.571011	0.107242	-0.218568
C71	C	0.570994	0.107251	0.592931
C72	C	0.531151	0.176318	0.553745
C73	C	0.531243	0.176567	0.446657
C74	C	0.570977	0.107261	0.407340
C75	C	0.621410	0.125695	0.446188
C76	C	0.621186	0.126185	0.553310
C77	C	0.560853	0.019542	0.553470
C78	C	0.559696	0.020142	0.446343
C79	C	0.570970	0.107264	0.302452
C80	C	0.571004	0.107250	0.697820
H81	H	0.496159	-0.447044	0.062525
H82	H	0.537719	0.241668	0.421015
C83	C	0.512240	-0.004605	0.589986
H84	H	0.497672	0.038586	0.629644
H85	H	0.517887	-0.055996	0.623357
H86	H	0.491162	-0.011277	0.539479
H87	H	0.630123	0.190132	0.578279
H88	H	-0.292742	0.239576	0.000147
H89	H	0.581567	-0.322597	0.153659
H90	H	0.630560	0.188908	0.419344
H91	H	0.578605	-0.467612	-0.152889
C92	C	0.337681	-0.048619	0.000131
H93	H	0.363346	-0.093696	0.000138
H94	H	0.318251	-0.052146	-0.053455
H95	H	0.318255	-0.052141	0.053736
C96	C	0.662438	0.060769	0.588332
H97	H	0.679262	0.034018	0.537089
H98	H	0.649148	0.019794	0.624817
H99	H	0.684360	0.088147	0.624684
C100	C	0.662422	0.059518	0.411780
H101	H	0.649119	0.019966	0.373320
H102	H	0.678138	0.031127	0.463208
H103	H	0.685307	0.086638	0.377563
C104	C	0.539777	0.263772	0.590078
H105	H	0.567556	0.258377	0.629021
H106	H	0.512185	0.287439	0.624172
H107	H	0.544924	0.299450	0.539448
H108	H	0.522597	0.006137	0.420952
H109	H	-0.180403	-0.035876	0.000185
H110	H	0.176141	0.324258	0.000118
H111	H	0.589909	-0.031848	0.578812
C112	C	0.075840	0.344339	0.000117
H113	H	0.094653	0.390195	0.000100
H114	H	0.055927	0.347180	0.053707
H115	H	0.055937	0.347166	-0.053485
C116	C	0.596355	-0.052476	0.410207
H117	H	0.619124	-0.030516	0.370689
H118	H	0.579584	-0.091133	0.376766
H119	H	0.612986	-0.080572	0.460883
H120	H	0.497492	-0.303357	0.062918
C121	C	0.480341	0.161868	0.588558
H122	H	0.456817	0.204202	0.564121
H123	H	0.479686	0.164413	0.654130
H124	H	0.473168	0.108070	0.568882
H125	H	-0.034182	-0.109758	0.000180
H126	H	0.493755	0.165679	0.420393
C127	C	0.490677	-0.292126	-0.084601
H128	H	0.458345	-0.306119	-0.084078
H129	H	0.506568	-0.313229	-0.139452
H130	H	0.490094	-0.232649	-0.082533
C131	C	0.488922	-0.452846	-0.085559
H132	H	0.488205	-0.512076	-0.086066
H133	H	0.504423	-0.436453	-0.140041
H134	H	0.456651	-0.425164	-0.083200
C135	C	0.572817	-0.314463	-0.176298
H136	H	0.562408	-0.358802	-0.211985
H137	H	0.595148	-0.286715	-0.211234
H138	H	0.545525	-0.275356	-0.160444
H139	H	0.636999	-0.336907	-0.091239
C140	C	0.443557	-0.046755	0.000123
H141	H	0.424753	-0.092623	0.000130
H142	H	0.463464	-0.049572	0.053712
H143	H	0.463464	-0.049584	-0.053479
C144	C	0.649649	-0.491458	-0.091524
H145	H	0.665272	-0.473173	-0.144995
H146	H	0.649373	-0.550738	-0.094161
H147	H	0.666736	-0.477406	-0.037929
C148	C	0.569996	-0.472286	0.175926
H149	H	0.586116	-0.454596	0.229090
H150	H	0.570087	-0.531675	0.177544
H151	H	0.537431	-0.445833	0.175149
C152	C	0.648624	-0.492717	0.095912
H153	H	0.663666	-0.474020	0.149830
H154	H	0.666693	-0.480207	0.042967
H155	H	0.647670	-0.551794	0.099590
C156	C	0.651742	-0.332833	0.088425
H157	H	0.667653	-0.358444	0.141215
H158	H	0.652757	-0.273718	0.090690
H159	H	0.667680	-0.355091	0.034089
C160	C	-0.277422	-0.059414	0.000185
H161	H	-0.251759	-0.104492	0.000199
H162	H	-0.296850	-0.062940	-0.053405
H163	H	-0.296852	-0.062932	0.053787
H164	H	0.024883	0.321613	0.000144
H165	H	0.057272	-0.108152	0.000177
H166	H	0.413827	0.251988	0.000073
H167	H	0.322369	0.250385	0.000100
H168	H	-0.066575	0.320001	0.000169
C169	C	-0.195707	0.263130	0.000135
H170	H	-0.221370	0.308209	0.000133
H171	H	-0.176274	0.266648	-0.053455
H172	H	-0.176284	0.266652	0.053736
C173	C	0.111507	-0.129044	0.000184
H174	H	0.137172	-0.174118	0.000196
H175	H	0.092078	-0.132574	-0.053404
H176	H	0.092079	-0.132565	0.053787
H177	H	0.208534	-0.105486	0.000166
