data_functionalizedCrystal
_audit_creation_method	'MofGen! by Chris Wilmer'
_symmetry_space_group_name_H-M	'P1'
_symmetry_Int_Tables_number	1
_symmetry_cell_setting	triclinic
loop_
_symmetry_equiv_pos_as_xyz
  x,y,z
_cell_length_a	10.723024
_cell_length_b	14.971486
_cell_length_c	13.448316
_cell_angle_alpha	90.006811
_cell_angle_beta	89.994465
_cell_angle_gamma	95.959001
loop_
_atom_site_label
_atom_site_type_symbol
_atom_site_fract_x
_atom_site_fract_y
_atom_site_fract_z
O1	O	1.655881	-0.125456	-0.082665
O2	O	1.292603	-0.137464	-0.082673
O3	O	1.483979	-0.001312	-0.082662
O4	O	1.464505	-0.261608	-0.082676
O5	O	1.483955	-0.001304	0.082722
O6	O	1.292579	-0.137455	0.082711
O7	O	1.655857	-0.125447	0.082719
Cu8	Cu	1.474216	-0.131451	0.097815
Cu9	Cu	1.474244	-0.131461	-0.097770
O10	O	1.464481	-0.261599	0.082707
C11	C	1.246101	-0.136586	0.000018
C12	C	1.107574	-0.133971	0.000015
C13	C	1.483096	0.032022	0.000030
C14	C	1.480486	0.131333	0.000029
C15	C	1.702360	-0.126325	0.000026
C16	C	1.840887	-0.128940	0.000022
C17	C	1.916665	-0.052756	0.000025
C18	C	2.059841	-0.055457	0.000021
C19	C	1.465364	-0.294933	0.000014
C20	C	1.467974	-0.394244	0.000008
N21	N	1.474205	-0.131443	0.235380
C22	C	1.592914	0.187954	0.000032
C23	C	1.590455	0.281267	0.000022
C24	C	1.475566	0.317956	0.000016
C25	C	1.363129	0.261327	0.000010
C26	C	1.365590	0.168016	0.000013
C27	C	1.358008	0.455817	0.000006
C28	C	1.355546	0.549134	0.000005
C29	C	1.582872	0.569068	0.000015
C30	C	1.585333	0.475757	0.000018
C31	C	1.472896	0.419134	0.000014
N32	N	1.474265	-0.131461	-0.235334
C33	C	1.558973	-0.071180	0.287425
C34	C	1.558980	-0.071179	0.391528
C35	C	1.474226	-0.131447	0.443584
C36	C	1.389449	-0.191712	0.391532
C37	C	1.389436	-0.191708	0.287430
C38	C	1.389484	-0.191719	0.608512
C39	C	1.389498	-0.191724	0.712620
C40	C	1.559028	-0.071190	0.712610
C41	C	1.559015	-0.071186	0.608508
C42	C	1.474240	-0.131453	0.556463
H43	H	1.875546	0.014466	0.000045
H44	H	2.124955	0.009762	0.000017
N45	N	1.239213	0.300897	0.000012
H46	H	1.168363	0.250866	0.000010
H47	H	1.233247	0.339174	-0.061296
H48	H	2.042467	-0.199194	0.000008
N49	N	1.895327	-0.217993	0.000016
H50	H	1.948683	-0.222590	0.061322
H51	H	1.948630	-0.222541	-0.061335
N52	N	1.298080	-0.256712	0.768781
H53	H	1.345824	-0.296632	0.811955
H54	H	1.244381	-0.294829	0.719962
H55	H	1.628034	-0.022116	0.566125
N56	N	1.244329	0.106941	0.000003
H57	H	1.171173	0.144341	-0.000000
H58	H	1.240386	0.067796	0.061312
N59	N	1.298044	-0.256715	0.552374
H60	H	1.244356	-0.294898	0.601145
H61	H	1.345865	-0.296570	0.509166
H62	H	1.682005	0.327365	0.000027
H63	H	1.686470	0.158090	0.000043
H64	H	1.678886	0.445888	0.000030
H65	H	1.674423	0.615175	0.000016
H66	H	1.261993	0.579003	0.000016
H67	H	1.266449	0.409717	-0.000000
N68	N	1.650395	-0.006182	0.231283
H69	H	1.704094	0.031995	0.280054
H70	H	1.602566	0.033677	0.188104
N71	N	1.650450	-0.006213	0.447664
H72	H	1.704160	0.031952	0.398891
H73	H	1.705641	-0.040858	0.490822
H74	H	1.320409	-0.240779	0.245056
H75	H	1.628054	-0.022118	0.754991
H76	H	1.320434	-0.240780	0.433922
