data_functionalizedCrystal
_audit_creation_method	'MofGen! by Chris Wilmer'
_symmetry_space_group_name_H-M	'P1'
_symmetry_Int_Tables_number	1
_symmetry_cell_setting	triclinic
loop_
_symmetry_equiv_pos_as_xyz
  x,y,z
_cell_length_a	19.121274
_cell_length_b	11.169416
_cell_length_c	11.169409
_cell_angle_alpha	89.971970
_cell_angle_beta	92.415496
_cell_angle_gamma	87.572198
loop_
_atom_site_label
_atom_site_type_symbol
_atom_site_fract_x
_atom_site_fract_y
_atom_site_fract_z
Zn1	Zn	-1.073773	0.556035	0.600432
Zn2	Zn	-1.073703	0.756771	0.399769
Zn3	Zn	-0.956319	0.547538	0.408314
Zn4	Zn	-0.956318	0.748107	0.608957
O5	O	-1.015028	0.652113	0.504368
O6	O	-1.172045	0.589845	0.566669
O7	O	-1.058103	0.729085	0.232955
O8	O	-0.971929	0.380718	0.433807
O9	O	-1.171993	0.737325	0.419243
O10	O	-1.058222	0.386961	0.574955
O11	O	-0.971861	0.575363	0.239233
O12	O	-0.858038	0.566962	0.442074
O13	O	-0.971927	0.722559	0.775774
O14	O	-0.858037	0.714320	0.589485
O15	O	-1.058221	0.581445	0.769510
O16	O	-1.058101	0.923569	0.427510
O17	O	-0.971859	0.917204	0.581199
C18	C	-0.832554	0.638780	0.517633
C19	C	-0.754491	0.633104	0.523336
C20	C	-1.014991	0.963935	0.504377
C21	C	-1.015040	1.097338	0.504416
C22	C	-1.015082	0.651984	0.817407
C23	C	-1.015105	0.651928	0.950805
C24	C	-0.717787	0.707098	0.449144
C25	C	-0.644438	0.701766	0.454518
C26	C	-0.607795	0.622433	0.534079
C27	C	-0.644504	0.548437	0.608279
C28	C	-0.717851	0.553776	0.602910
C29	C	-0.386335	0.602483	0.554143
C30	C	-0.312982	0.597147	0.559504
C31	C	-0.312921	0.750479	0.405744
C32	C	-0.386270	0.755806	0.400377
C33	C	-0.422973	0.681813	0.474581
C34	C	-0.532820	0.616978	0.539572
C35	C	-0.497945	0.687275	0.469093
C36	C	-0.198215	0.665483	0.491036
C37	C	-0.276278	0.671141	0.485312
C38	C	-1.015077	1.339074	0.504397
C39	C	-1.015080	1.205674	0.504442
C40	C	-1.015015	0.652158	0.192544
C41	C	-1.015128	0.651885	0.059136
H42	H	-0.747616	0.771695	0.384352
N43	N	-0.537466	0.772827	0.383274
H44	H	-0.503087	0.818894	0.337079
H45	H	-0.567912	0.830642	0.429806
N46	N	-0.604849	0.781570	0.374495
H47	H	-0.639192	0.832629	0.323272
H48	H	-0.574401	0.730431	0.321267
H49	H	-0.283030	0.810721	0.345333
N50	N	-0.425781	0.841388	0.314568
H51	H	-0.456224	0.899277	0.361025
H52	H	-0.456157	0.794685	0.256815
N53	N	-0.273457	0.511581	0.645324
H54	H	-0.307837	0.465520	0.691521
H55	H	-0.243039	0.558294	0.703002
H56	H	-0.416209	0.542235	0.614566
H57	H	-0.614663	0.483848	0.673065
N58	N	-0.757443	0.473975	0.682936
H59	H	-0.723101	0.422906	0.734152
H60	H	-0.787865	0.420591	0.631949
N61	N	-0.493300	0.531405	0.625379
H62	H	-0.462884	0.578030	0.683143
H63	H	-0.462895	0.473542	0.578828
