data_functionalizedCrystal
_audit_creation_method	'MofGen! by Chris Wilmer'
_symmetry_space_group_name_H-M	'P1'
_symmetry_Int_Tables_number	1
_symmetry_cell_setting	triclinic
loop_
_symmetry_equiv_pos_as_xyz
  x,y,z
_cell_length_a	12.759395
_cell_length_b	12.594510
_cell_length_c	12.759394
_cell_angle_alpha	90.033528
_cell_angle_beta	89.983822
_cell_angle_gamma	89.981581
loop_
_atom_site_label
_atom_site_type_symbol
_atom_site_fract_x
_atom_site_fract_y
_atom_site_fract_z
Zn1	Zn	1.606247	-0.601790	0.418128
Zn2	Zn	1.606145	-0.423814	0.593857
Zn3	Zn	1.430552	-0.423827	0.418197
Zn4	Zn	1.430538	-0.601752	0.593771
O5	O	1.518371	-0.512795	0.505988
O6	O	1.753255	-0.578191	0.441446
O7	O	1.582815	-0.274869	0.570620
O8	O	1.453907	-0.447455	0.271167
O9	O	1.753179	-0.447433	0.570554
O10	O	1.582990	-0.578204	0.271116
O11	O	1.453808	-0.274879	0.441564
O12	O	1.283529	-0.447419	0.441480
O13	O	1.453884	-0.750703	0.570406
O14	O	1.283519	-0.578140	0.570473
O15	O	1.582976	-0.750730	0.441363
O16	O	1.582801	-0.447396	0.740867
O17	O	1.453784	-0.578127	0.740803
C18	C	1.245403	-0.512777	0.505976
C19	C	1.128626	-0.512795	0.505995
C20	C	1.128654	-0.648694	0.640533
C21	C	1.073808	-0.716647	0.707810
C22	C	0.964086	-0.716660	0.707823
C23	C	0.909209	-0.648715	0.640549
C24	C	0.964055	-0.580762	0.573272
C25	C	1.073780	-0.580754	0.573269
C26	C	0.964027	-0.444870	0.438731
C27	C	1.073749	-0.444850	0.438722
C28	C	0.909150	-0.376925	0.371457
C29	C	0.963997	-0.308965	0.304183
C30	C	1.073725	-0.308954	0.304174
C31	C	1.128596	-0.376897	0.371444
C32	C	1.518440	-0.790416	0.505867
C33	C	1.518470	-0.908722	0.505815
C34	C	1.588704	-0.977990	0.435623
C35	C	1.492882	-1.048785	0.409910
C36	C	1.614348	-1.048726	0.531455
C37	C	1.422596	-0.977959	0.480052
C38	C	1.544127	-0.977893	0.601642
C39	C	1.448238	-1.048657	0.575965
C40	C	1.792404	-0.512814	0.506002
C41	C	1.909181	-0.512823	0.506008
C42	C	1.518308	-0.512779	0.778956
C43	C	1.518378	-0.512808	0.895732
C44	C	1.518362	-0.236254	0.506033
C45	C	1.518536	-0.117950	0.505789
C46	C	1.518462	-0.512835	0.231955
C47	C	1.518500	-0.512852	0.115178
C48	C	1.652947	-0.376824	1.115169
C49	C	1.720145	-0.308803	1.060303
C50	C	1.720090	-0.308782	0.950582
C51	C	1.652828	-0.376787	0.895723
C52	C	1.585630	-0.444808	0.950589
C53	C	1.585694	-0.444824	1.060313
C54	C	1.451180	-0.580829	0.950598
C55	C	1.451238	-0.580857	1.060320
C56	C	1.383918	-0.648834	0.895739
C57	C	1.316724	-0.716862	0.950605
C58	C	1.316782	-0.716881	1.060333
C59	C	1.384041	-0.648878	1.115185
H60	H	0.919430	-0.771998	0.762600
H61	H	1.565835	-0.946733	0.682670
H62	H	0.819809	-0.376945	0.371468
H63	H	1.652781	-0.376755	0.806382
C64	C	1.898094	-0.257101	1.094002
C65	C	1.794069	-0.234053	1.120615
H66	H	1.943724	-0.210947	1.131233
H67	H	1.913436	-0.328623	1.111920
H68	H	1.907671	-0.247346	1.020804
H69	H	1.784489	-0.243816	1.193812
H70	H	1.778721	-0.162514	1.102704
C71	C	1.797142	-1.055011	0.487152
C72	C	1.723767	-1.090688	0.560756
H73	H	1.864694	-1.080910	0.505241
H74	H	1.778457	-1.080331	0.419561
H75	H	1.798048	-0.979593	0.486753
H76	H	1.722856	-1.166107	0.561150
H77	H	1.742457	-1.065374	0.628366
H78	H	1.118375	-0.253626	0.249382
H79	H	1.388803	-1.079489	0.635313
C80	C	1.302171	-0.860066	1.183628
C81	C	1.242917	-0.791653	1.120641
H82	H	1.256566	-0.906222	1.220861
H83	H	1.347890	-0.900808	1.140754
H84	H	1.342230	-0.819562	1.232000
H85	H	1.202863	-0.832157	1.072263
H86	H	1.197179	-0.750906	1.163519
C87	C	0.752049	-0.722724	0.713816
C88	C	0.788601	-0.648730	0.640561
H89	H	0.677591	-0.722725	0.713826
H90	H	0.776899	-0.791430	0.695720
H91	H	0.776857	-0.704187	0.781587
H92	H	0.763800	-0.667272	0.572789
H93	H	0.763740	-0.580010	0.658651
C94	C	1.668542	-0.824918	0.356952
C95	C	1.668747	-0.936087	0.355454
H96	H	1.717957	-0.799049	0.307461
H97	H	1.600635	-0.799657	0.339392
H98	H	1.686912	-0.800655	0.425016
H99	H	1.650369	-0.960350	0.287391
H100	H	1.736668	-0.961357	0.373007
C101	C	1.357122	-0.547519	0.738664
C102	C	1.383860	-0.648804	0.775132
H103	H	1.357094	-0.547503	0.664205
H104	H	1.289351	-0.529070	0.763548
H105	H	1.406801	-0.497296	0.763495
H106	H	1.334177	-0.699026	0.750307
H107	H	1.451641	-0.667266	0.750237
C108	C	1.285738	-0.349568	0.471347
C109	C	1.249204	-0.376884	0.371438
H110	H	1.360197	-0.349569	0.471343
H111	H	1.260888	-0.280856	0.489420
H112	H	1.260918	-0.399766	0.521034
H113	H	1.274017	-0.326681	0.321753
H114	H	1.274064	-0.445606	0.353353
C115	C	1.537228	-1.055172	0.227128
C116	C	1.463614	-1.090833	0.300500
H117	H	1.519166	-1.081134	0.159584
H118	H	1.537613	-0.979764	0.226187
H119	H	1.604829	-1.080449	0.245845
H120	H	1.396014	-1.065549	0.281787
H121	H	1.463219	-1.166256	0.301438
H122	H	1.774804	-0.253389	0.905910
H123	H	1.217995	-0.648682	0.640537
C124	C	1.242019	-0.776964	0.767552
C125	C	1.134130	-0.791325	0.781760
H126	H	1.279255	-0.823063	0.813210
H127	H	1.260018	-0.792674	0.696989
H128	H	1.259956	-0.705415	0.782839
H129	H	1.116193	-0.862872	0.766465
H130	H	1.116125	-0.775622	0.852340
H131	H	1.384099	-0.648891	1.204526
C132	C	1.314112	-0.825007	0.450862
C133	C	1.313143	-0.936181	0.450626
H134	H	1.246544	-0.799216	0.432686
H135	H	1.332421	-0.800152	0.518724
H136	H	1.364021	-0.800258	0.401319
H137	H	1.263239	-0.960930	0.500174
H138	H	1.294822	-0.961046	0.382753
H139	H	1.653008	-0.376844	1.204510
H140	H	1.261960	-0.772222	0.905932
H141	H	0.919307	-0.253655	0.249410
