data_functionalizedCrystal
_audit_creation_method	'MofGen! by Chris Wilmer'
_symmetry_space_group_name_H-M	'P1'
_symmetry_Int_Tables_number	1
_symmetry_cell_setting	triclinic
loop_
_symmetry_equiv_pos_as_xyz
  x,y,z
_cell_length_a	10.686220
_cell_length_b	21.295417
_cell_length_c	10.686551
_cell_angle_alpha	94.412210
_cell_angle_beta	89.691918
_cell_angle_gamma	94.412682
loop_
_atom_site_label
_atom_site_type_symbol
_atom_site_fract_x
_atom_site_fract_y
_atom_site_fract_z
Zn1	Zn	1.972201	-0.153473	0.562351
Zn2	Zn	2.472201	0.346527	1.062351
Zn3	Zn	1.955908	-0.267413	0.352566
Zn4	Zn	2.455908	0.232587	0.852566
Zn5	Zn	1.746311	-0.169576	0.368665
Zn6	Zn	2.246311	0.330424	0.868665
Zn7	Zn	1.762339	-0.266137	0.578344
Zn8	Zn	2.262339	0.233863	1.078344
O9	O	1.859190	-0.214150	0.465482
O10	O	2.359190	0.285850	0.965482
O11	O	2.145585	-0.162382	0.521092
O12	O	2.645585	0.337618	1.021092
O13	O	1.914578	-0.261708	0.179155
O14	O	2.414578	0.238292	0.679155
O15	O	1.776387	-0.079345	0.394402
O16	O	2.276387	0.420655	0.894402
O17	O	2.133615	-0.246093	0.366964
O18	O	2.633615	0.253907	0.866964
O19	O	1.942347	-0.067514	0.536702
O20	O	2.442347	0.432486	1.036702
O21	O	1.760588	-0.189828	0.190982
O22	O	2.260588	0.310172	0.690982
O23	O	1.572892	-0.188591	0.409910
O24	O	2.072892	0.311409	0.909910
O25	O	1.803704	-0.243919	0.751770
O26	O	2.303704	0.256081	1.251770
O27	O	1.584668	-0.259534	0.563960
O28	O	2.084668	0.240466	1.063960
O29	O	1.957889	-0.161145	0.740020
O30	O	2.457889	0.338855	1.240020
O31	O	1.930120	-0.355339	0.382472
O32	O	2.430120	0.144661	0.882472
O33	O	1.787905	-0.354402	0.548351
O34	O	2.287905	0.145598	1.048351
C35	C	1.533263	-0.225672	0.490418
C36	C	2.033263	0.274328	0.990418
C37	C	1.393832	-0.230615	0.501116
C38	C	1.893832	0.269385	1.001116
C39	C	1.859020	-0.377710	0.465425
C40	C	2.359020	0.122290	0.965425
C41	C	1.859065	-0.447676	0.465434
C42	C	2.359065	0.052324	0.965434
C43	C	1.933194	-0.481004	0.379138
C44	C	2.433194	0.018996	0.879138
C45	C	1.933255	-0.546743	0.379161
C46	C	2.433255	-0.046743	0.879161
C47	C	1.859164	-0.579154	0.465470
C48	C	2.359164	-0.079154	0.965470
C49	C	1.785031	-0.545817	0.551782
C50	C	2.285031	-0.045817	1.051782
C51	C	1.784982	-0.480079	0.551764
C52	C	2.284982	0.019921	1.051764
N53	N	1.750160	-0.685908	0.483429
N54	N	2.250160	-0.185908	0.983429
N55	N	1.750210	-0.748357	0.483439
N56	N	2.250210	-0.248357	0.983439
C57	C	1.859310	-0.777220	0.465531
C58	C	2.359310	-0.277220	0.965531
N59	N	1.968359	-0.741276	0.447588
N60	N	2.468359	-0.241276	0.947588
N61	N	1.968308	-0.678822	0.447572
N62	N	2.468308	-0.178822	0.947572
C63	C	1.859210	-0.650436	0.465499
C64	C	2.359210	-0.150436	0.965499
C65	C	1.933511	-0.881830	0.379256
C66	C	2.433511	-0.381830	0.879256
C67	C	1.933575	-0.947570	0.379288
C68	C	2.433575	-0.447570	0.879288
C69	C	1.785339	-0.946643	0.551903
C70	C	2.285339	-0.446643	1.051903
C71	C	1.785287	-0.880904	0.551876
C72	C	2.285287	-0.380904	1.051876
C73	C	1.859371	-0.848502	0.465546
C74	C	2.359371	-0.348502	0.965546
C75	C	2.186390	-0.202583	0.440448
C76	C	2.686390	0.297417	0.940448
C77	C	2.325823	-0.197654	0.429781
C78	C	2.825823	0.302346	0.929781
C79	C	1.884402	-0.200593	0.792685
C80	C	2.384402	0.299407	1.292685
C81	C	1.895146	-0.194816	0.932120
C82	C	2.395146	0.305184	1.432120
C83	C	1.859397	-0.049948	0.465564
C84	C	2.359397	0.450052	0.965564
C85	C	1.859485	0.020024	0.465599
C86	C	2.359485	0.520024	0.965599
C87	C	1.834148	-0.227606	0.139546
C88	C	2.334148	0.272394	0.639546
C89	C	1.823647	-0.233197	0.000093
C90	C	2.323647	0.266803	0.500093
H91	H	1.993521	-0.454624	0.308846
H92	H	2.493521	0.045376	0.808846
H93	H	1.964589	-0.157537	0.980602
H94	H	2.464589	0.342463	1.480602
H95	H	1.374266	-0.165655	0.360523
H96	H	1.874266	0.334345	0.860523
H97	H	1.724919	-0.853767	0.622141
H98	H	2.224919	-0.353767	1.122141
C99	C	1.198337	-0.270521	0.587477
C100	C	1.698337	0.229479	1.087477
C101	C	1.328439	-0.273819	0.594618
C102	C	1.828439	0.226181	1.094618
H103	H	1.157970	-0.297191	0.645207
H104	H	1.657970	0.202809	1.145207
H105	H	1.170413	-0.283916	0.504791
H106	H	1.670413	0.216084	1.004791
H107	H	1.178396	-0.228220	0.607611
H108	H	1.678396	0.271780	1.107611
H109	H	1.348381	-0.316120	0.574475
H110	H	1.848381	0.183880	1.074475
H111	H	1.356374	-0.260428	0.677323
H112	H	1.856374	0.239572	1.177323
H113	H	1.993624	-0.573884	0.308889
H114	H	2.493624	-0.073884	0.808889
H115	H	1.724708	-0.572210	0.622056
H116	H	2.224708	-0.072210	1.122056
H117	H	1.724616	-0.452942	0.622038
H118	H	2.224616	0.047058	1.122038
H119	H	1.754217	-0.270478	0.951617
H120	H	2.254217	0.229522	1.451617
C121	C	2.080042	-0.889346	0.208639
C122	C	2.580042	-0.389346	0.708639
C123	C	2.014950	-0.846208	0.284373
C124	C	2.514950	-0.346208	0.784373
H125	H	2.130323	-0.867354	0.150068
H126	H	2.630323	-0.367354	0.650068
H127	H	2.021747	-0.918946	0.164802
H128	H	2.521747	-0.418946	0.664802
H129	H	2.132219	-0.910987	0.259690
H130	H	2.632219	-0.410987	0.759690
H131	H	1.962766	-0.824570	0.233323
H132	H	2.462766	-0.324570	0.733323
H133	H	2.073253	-0.816596	0.328213
H134	H	2.573253	-0.316596	0.828213
H135	H	1.993947	-0.974704	0.309017
H136	H	2.493947	-0.474704	0.809017
H137	H	1.725019	-0.973031	0.622182
H138	H	2.225019	-0.473031	1.122182
