data_functionalizedCrystal
_audit_creation_method	'MofGen! by Chris Wilmer'
_symmetry_space_group_name_H-M	'P1'
_symmetry_Int_Tables_number	1
_symmetry_cell_setting	triclinic
loop_
_symmetry_equiv_pos_as_xyz
  x,y,z
_cell_length_a	21.295417
_cell_length_b	19.805407
_cell_length_c	19.805399
_cell_angle_alpha	89.978936
_cell_angle_beta	90.030843
_cell_angle_gamma	89.970509
loop_
_atom_site_label
_atom_site_type_symbol
_atom_site_fract_x
_atom_site_fract_y
_atom_site_fract_z
Zn1	Zn	-0.250641	-1.034716	0.382731
Zn2	Zn	0.249359	-0.534716	0.882731
Zn3	Zn	-0.355910	-1.034623	0.269537
Zn4	Zn	0.144090	-0.534623	0.769537
Zn5	Zn	-0.250656	-0.921531	0.269553
Zn6	Zn	0.249344	-0.421531	0.769553
Zn7	Zn	-0.355874	-0.921486	0.382680
Zn8	Zn	0.144126	-0.421486	0.882680
O9	O	-0.303270	-0.978089	0.326125
O10	O	0.196730	-0.478089	0.826125
O11	O	-0.264613	-1.129421	0.367730
O12	O	0.235387	-0.629421	0.867730
O13	O	-0.341969	-1.019601	0.174822
O14	O	0.158031	-0.519601	0.674822
O15	O	-0.162565	-0.936603	0.284594
O16	O	0.337435	-0.436603	0.784594
O17	O	-0.341954	-1.129352	0.284566
O18	O	0.158046	-0.629352	0.784566
O19	O	-0.162553	-1.019760	0.367746
O20	O	0.337447	-0.519760	0.867746
O21	O	-0.264640	-0.936513	0.174834
O22	O	0.235360	-0.436513	0.674834
O23	O	-0.264605	-0.826809	0.284545
O24	O	0.235395	-0.326809	0.784545
O25	O	-0.341894	-0.936527	0.477404
O26	O	0.158106	-0.436527	0.977404
O27	O	-0.341909	-0.826776	0.367659
O28	O	0.158091	-0.326776	0.867659
O29	O	-0.264579	-1.019717	0.477441
O30	O	0.235421	-0.519717	0.977441
O31	O	-0.443994	-1.019558	0.284517
O32	O	0.056006	-0.519558	0.784517
O33	O	-0.443968	-0.936437	0.367643
O34	O	0.056032	-0.436437	0.867643
C35	C	-0.303255	-0.802233	0.326099
C36	C	0.196745	-0.302233	0.826099
C37	C	-0.303264	-0.727001	0.326104
C38	C	0.196736	-0.227001	0.826104
C39	C	-0.343576	-0.691658	0.369310
C40	C	0.156424	-0.191658	0.869310
C41	C	-0.343576	-0.620969	0.369318
C42	C	0.156424	-0.120969	0.869318
C43	C	-0.303267	-0.585626	0.326115
C44	C	0.196733	-0.085626	0.826115
C45	C	-0.262950	-0.620974	0.282906
C46	C	0.237050	-0.120974	0.782906
C47	C	-0.262948	-0.691661	0.282903
C48	C	0.237052	-0.191661	0.782903
C49	C	-0.262960	-0.335901	0.282921
C50	C	0.237040	0.164099	0.782921
C51	C	-0.262967	-0.265209	0.282927
C52	C	0.237033	0.234791	0.782927
C53	C	-0.343588	-0.265209	0.369337
C54	C	0.156412	0.234791	0.869337
C55	C	-0.343585	-0.335896	0.369333
C56	C	0.156415	0.164104	0.869333
C57	C	-0.303267	-0.371238	0.326127
C58	C	0.196733	0.128762	0.826127
C59	C	-0.303266	-0.447887	0.326120
C60	C	0.196734	0.052113	0.826120
C61	C	-0.303270	-0.508979	0.326118
C62	C	0.196730	-0.008979	0.826118
C63	C	-0.466822	-0.978001	0.326088
C64	C	0.033178	-0.478001	0.826088
C65	C	-0.536790	-0.978024	0.326094
C66	C	-0.036790	-0.478024	0.826094
C67	C	-0.569649	-1.021344	0.282855
C68	C	-0.069649	-0.521344	0.782855
C69	C	-0.635392	-1.021376	0.282870
C70	C	-0.135392	-0.521376	0.782870
C71	C	-0.668272	-0.978076	0.326118
C72	C	-0.168272	-0.478076	0.826118
C73	C	-0.635405	-0.934753	0.369366
C74	C	-0.135405	-0.434753	0.869366
C75	C	-0.569664	-0.934728	0.369354
C76	C	-0.069664	-0.434728	0.869354
N77	N	-0.771537	-0.918865	0.331269
N78	N	-0.271537	-0.418865	0.831269
N79	N	-0.833989	-0.918892	0.331276
N80	N	-0.333989	-0.418892	0.831276
C81	C	-0.866347	-0.978152	0.326156
C82	C	-0.366347	-0.478152	0.826156
N83	N	-0.833895	-1.037386	0.321016
N84	N	-0.333895	-0.537386	0.821016
N85	N	-0.771438	-1.037358	0.321006
N86	N	-0.271438	-0.537358	0.821006
C87	C	-0.739558	-0.978099	0.326135
C88	C	-0.239558	-0.478099	0.826135
C89	C	-0.970492	-1.021509	0.282931
C90	C	-0.470492	-0.521509	0.782931
C91	C	-1.036236	-1.021542	0.282951
C92	C	-0.536236	-0.521542	0.782951
C93	C	-1.036248	-0.934914	0.369443
C94	C	-0.536248	-0.434914	0.869443
C95	C	-0.970505	-0.934887	0.369427
C96	C	-0.470505	-0.434887	0.869427
C97	C	-0.937631	-0.978184	0.326167
C98	C	-0.437631	-0.478184	0.826167
C99	C	-0.139080	-0.978197	0.326178
C100	C	0.360920	-0.478197	0.826178
C101	C	-0.069112	-0.978243	0.326200
C102	C	0.430888	-0.478243	0.826200
C103	C	-0.303231	-0.978127	0.502668
C104	C	0.196769	-0.478127	1.002668
C105	C	-0.303214	-0.978143	0.577900
C106	C	0.196786	-0.478143	1.077900
C107	C	-0.303282	-0.154632	0.326146
C108	C	0.196718	0.345368	0.826146
C109	C	-0.303276	-0.229864	0.326138
C110	C	0.196724	0.270136	0.826138
C111	C	-0.303264	-0.978090	0.150269
C112	C	0.196736	-0.478090	0.650269
C113	C	-0.303104	-0.978205	0.075038
C114	C	0.196896	-0.478205	0.575038
C115	C	-0.262954	-1.021461	0.613265
C116	C	0.237046	-0.521461	1.113265
C117	C	-0.262936	-1.021468	0.683953
C118	C	0.237064	-0.521468	1.183953
C119	C	-0.303181	-0.978160	0.719276
C120	C	0.196819	-0.478160	1.219276
C121	C	-0.343442	-0.934838	0.683906
C122	C	0.156558	-0.434838	1.183906
C123	C	-0.343457	-0.934828	0.613219
C124	C	0.156543	-0.434828	1.113219
C125	C	-0.343384	-0.934876	0.968980
C126	C	0.156616	-0.434876	1.468980
C127	C	-0.343367	-0.934891	1.039672
C128	C	0.156633	-0.434891	1.539672
C129	C	-0.262862	-1.021516	1.039714
C130	C	0.237138	-0.521516	1.539714
C131	C	-0.262877	-1.021506	0.969027
C132	C	0.237123	-0.521506	1.469027
C133	C	-0.303136	-0.978182	0.933663
C134	C	0.196864	-0.478182	1.433663
C135	C	-0.303154	-0.978174	0.857015
C136	C	0.196846	-0.478174	1.357015
C137	C	-0.303166	-0.978171	0.795923
C138	C	0.196834	-0.478171	1.295923
H139	H	-0.376402	-0.592196	0.404500
H140	H	0.123598	-0.092196	0.904500
H141	H	-0.376141	-0.899621	1.068429
H142	H	0.123859	-0.399621	1.568429
H143	H	-0.542885	-1.056601	0.247632
H144	H	-0.042885	-0.556601	0.747632
H145	H	-0.376402	-0.720429	0.404489
H146	H	0.123598	-0.220429	0.904489
H147	H	-0.230135	-0.364668	0.247736
H148	H	0.269865	0.135332	0.747736
H149	H	-0.230127	-0.592192	0.247733
H150	H	0.269873	-0.092192	0.747733
C151	C	-0.218606	-1.069143	0.930172
C152	C	0.281394	-0.569143	1.430172
C153	C	-0.245895	-1.122258	0.881577
C154	C	0.254105	-0.622258	1.381577
C155	C	-0.201620	-1.169893	0.842723
C156	C	0.298380	-0.669893	1.342723
C157	C	-0.130056	-1.164414	0.852463
C158	C	0.369944	-0.664414	1.352463
C159	C	-0.102763	-1.111296	0.901059
C160	C	0.397237	-0.611296	1.401059
C161	C	-0.147038	-1.063661	0.939914
C162	C	0.352962	-0.563661	1.439914
H163	H	-0.298874	-1.126317	0.874365
H164	H	0.201126	-0.626317	1.374365
H165	H	-0.221824	-1.209214	0.806748
H166	H	0.278176	-0.709214	1.306748
H167	H	-0.097281	-1.199676	0.823701
H168	H	0.402719	-0.699676	1.323701
H169	H	-0.049784	-1.107238	0.908272
H170	H	0.450216	-0.607238	1.408272
H171	H	-0.126833	-1.024341	0.975888
H172	H	0.373167	-0.524341	1.475888
H173	H	-0.230119	-0.720437	0.247723
H174	H	0.269881	-0.220437	0.747723
H175	H	-0.943725	-1.056767	0.247709
H176	H	-0.443725	-0.556767	0.747709
C177	C	-0.671571	-0.887122	0.416939
C178	C	-0.171571	-0.387122	0.916939
C179	C	-0.743884	-0.887146	0.416951
C180	C	-0.243884	-0.387146	0.916951
C181	C	-0.780048	-0.839516	0.464530
C182	C	-0.280048	-0.339516	0.964530
C183	C	-0.743900	-0.791863	0.512095
C184	C	-0.243900	-0.291863	1.012095
C185	C	-0.671583	-0.791838	0.512084
C186	C	-0.171583	-0.291838	1.012084
C187	C	-0.635419	-0.839468	0.464506
C188	C	-0.135419	-0.339468	0.964506
H189	H	-0.770646	-0.922423	0.381739
H190	H	-0.270646	-0.422423	0.881739
H191	H	-0.833582	-0.839535	0.464537
H192	H	-0.333582	-0.339535	0.964537
H193	H	-0.770672	-0.756605	0.547315
H194	H	-0.270672	-0.256605	1.047315
H195	H	-0.644821	-0.756561	0.547297
H196	H	-0.144821	-0.256561	1.047297
H197	H	-0.581885	-0.839449	0.464498
H198	H	-0.081885	-0.339449	0.964498
H199	H	-0.230184	-1.056730	0.584510
H200	H	0.269816	-0.556730	1.084510
H201	H	-0.662151	-1.056654	0.247659
H202	H	-0.162151	-0.556654	0.747659
H203	H	-0.376414	-0.236425	0.404519
H204	H	0.123586	0.263575	0.904519
C205	C	-0.218571	-1.069170	1.078615
C206	C	0.281429	-0.569170	1.578615
C207	C	-0.174307	-1.116811	1.039761
C208	C	0.325693	-0.616811	1.539761
C209	C	-0.130018	-1.164466	1.078660
C210	C	0.369982	-0.664466	1.578660
C211	C	-0.129994	-1.164480	1.156413
C212	C	0.370006	-0.664480	1.656413
C213	C	-0.174260	-1.116837	1.195272
C214	C	0.325740	-0.616837	1.695272
C215	C	-0.218549	-1.069182	1.156373
C216	C	0.281451	-0.569182	1.656373
H217	H	-0.174323	-1.116803	0.982200
H218	H	0.325677	-0.616803	1.482200
H219	H	-0.097250	-1.199734	1.049894
H220	H	0.402750	-0.699734	1.549894
H221	H	-0.097210	-1.199757	1.185209
H222	H	0.402790	-0.699757	1.685209
H223	H	-0.174244	-1.116846	1.252833
H224	H	0.325756	-0.616846	1.752833
H225	H	-0.251317	-1.033914	1.185139
H226	H	0.248683	-0.533914	1.685139
H227	H	-0.376174	-0.899608	0.940195
H228	H	0.123826	-0.399608	1.440195
C229	C	-0.387924	-0.374773	0.416858
C230	C	0.112076	0.125227	0.916858
C231	C	-0.432264	-0.335897	0.464390
C232	C	0.067736	0.164103	0.964390
C233	C	-0.476601	-0.374773	0.511919
C234	C	0.023399	0.125227	1.011919
C235	C	-0.476599	-0.452526	0.511916
C236	C	0.023401	0.047474	1.011916
C237	C	-0.432257	-0.491407	0.464383
C238	C	0.067743	0.008593	0.964383
C239	C	-0.387920	-0.452531	0.416854
C240	C	0.112080	0.047469	0.916854
H241	H	-0.432267	-0.278335	0.464394
H242	H	0.067733	0.221665	0.964394
H243	H	-0.509426	-0.345990	0.547107
H244	H	-0.009426	0.154010	1.047107
H245	H	-0.509420	-0.481305	0.547100
H246	H	-0.009420	0.018695	1.047100
H247	H	-0.432254	-0.548969	0.464379
H248	H	0.067746	-0.048969	0.964379
H249	H	-0.355095	-0.481314	0.381666
H250	H	0.144905	0.018686	0.881666
C251	C	-0.533515	-0.887070	0.416917
C252	C	-0.033515	-0.387070	0.916917
C253	C	-0.542622	-0.810131	0.411323
C254	C	-0.042622	-0.310131	0.911323
C255	C	-0.506472	-0.762472	0.458886
C256	C	-0.006472	-0.262472	0.958886
C257	C	-0.461216	-0.791751	0.512044
C258	C	0.038784	-0.291751	1.012044
C259	C	-0.452107	-0.868694	0.517641
C260	C	0.047893	-0.368694	1.017641
C261	C	-0.488257	-0.916353	0.470078
C262	C	0.011743	-0.416353	0.970078
H263	H	-0.576125	-0.788454	0.371970
H264	H	-0.076125	-0.288454	0.871970
H265	H	-0.513215	-0.705514	0.454742
H266	H	-0.013215	-0.205514	0.954742
H267	H	-0.434455	-0.756471	0.547253
H268	H	0.065545	-0.256471	1.047253
H269	H	-0.418604	-0.890371	0.556993
H270	H	0.081396	-0.390371	1.056993
H271	H	-0.481514	-0.973311	0.474221
H272	H	0.018486	-0.473311	0.974221
H273	H	-1.062989	-1.056822	0.247742
H274	H	-0.562989	-0.556822	0.747742
H275	H	-0.376208	-0.899573	0.712671
H276	H	0.123792	-0.399573	1.212671
H277	H	-0.376234	-0.899547	0.584426
H278	H	0.123766	-0.399547	1.084426
H279	H	-1.063019	-0.899661	0.404659
H280	H	-0.563019	-0.399661	0.904659
H281	H	-0.230154	-1.056743	0.712744
H282	H	0.269846	-0.556743	1.212744
C283	C	-0.934358	-0.887228	0.416988
C284	C	-0.434358	-0.387228	0.916988
C285	C	-0.943463	-0.810290	0.411392
C286	C	-0.443463	-0.310290	0.911392
C287	C	-0.907316	-0.762631	0.458959
C288	C	-0.407316	-0.262631	0.958959
C289	C	-0.862063	-0.791911	0.512120
C290	C	-0.362063	-0.291911	1.012120
C291	C	-0.852956	-0.868854	0.517718
C292	C	-0.352956	-0.368854	1.017718
C293	C	-0.889103	-0.916512	0.470151
C294	C	-0.389103	-0.416512	0.970151
H295	H	-0.976963	-0.788611	0.372037
H296	H	-0.476963	-0.288611	0.872037
H297	H	-0.914058	-0.705673	0.454815
H298	H	-0.414058	-0.205673	0.954815
H299	H	-0.835305	-0.756631	0.547332
H300	H	-0.335305	-0.256631	1.047332
H301	H	-0.819456	-0.890532	0.557073
H302	H	-0.319456	-0.390532	1.057073
H303	H	-0.882361	-0.973470	0.474295
H304	H	-0.382361	-0.473470	0.974295
H305	H	-0.230138	-0.236434	0.247746
H306	H	0.269862	0.263566	0.747746
