data_functionalizedCrystal
_audit_creation_method	'MofGen! by Chris Wilmer'
_symmetry_space_group_name_H-M	'P1'
_symmetry_Int_Tables_number	1
_symmetry_cell_setting	triclinic
loop_
_symmetry_equiv_pos_as_xyz
  x,y,z
_cell_length_a	8.559649
_cell_length_b	12.996460
_cell_length_c	8.559649
_cell_angle_alpha	90.004579
_cell_angle_beta	69.778664
_cell_angle_gamma	90.005498
loop_
_atom_site_label
_atom_site_type_symbol
_atom_site_fract_x
_atom_site_fract_y
_atom_site_fract_z
O1	O	2.126883	0.085551	-0.055032
O2	O	2.626883	0.585551	0.444968
O3	O	1.651398	0.085555	0.028749
O4	O	2.151398	0.585555	0.528749
O5	O	1.931031	0.085551	-0.250884
O6	O	2.431031	0.585551	0.249116
O7	O	1.847250	0.085554	0.224601
O8	O	2.347250	0.585554	0.724601
O9	O	1.931007	-0.085583	-0.250895
O10	O	2.431007	0.414417	0.249105
O11	O	1.651374	-0.085579	0.028738
O12	O	2.151374	0.414421	0.528738
O13	O	2.126859	-0.085583	-0.055043
O14	O	2.626859	0.414417	0.444957
Cu15	Cu	1.889114	-0.101207	-0.013153
Cu16	Cu	2.389114	0.398793	0.486847
Cu17	Cu	1.889143	0.101179	-0.013141
Cu18	Cu	2.389143	0.601179	0.486859
O19	O	1.847226	-0.085580	0.224590
O20	O	2.347226	0.414420	0.724590
C21	C	1.591077	-0.000012	0.035093
C22	C	2.091077	0.499988	0.535093
C23	C	1.411378	-0.000010	0.053992
C24	C	1.911378	0.499990	0.553992
N25	N	1.889106	-0.243554	-0.013164
N26	N	2.389106	0.256446	0.486836
C27	C	1.889141	-0.663368	-0.013139
C28	C	2.389141	-0.163368	0.486861
C29	C	1.889126	-0.546563	-0.013140
C30	C	2.389126	-0.046563	0.486860
C31	C	1.889124	-0.453465	-0.013150
C32	C	2.389124	0.046535	0.486850
C33	C	1.889108	-0.336652	-0.013154
C34	C	2.389108	0.163348	0.486846
C35	C	2.187180	-0.000014	-0.061387
C36	C	2.687180	0.499986	0.438613
C37	C	2.366879	-0.000009	-0.080286
C38	C	2.866879	0.499991	0.419714
C39	C	1.937369	-0.000014	-0.311198
C40	C	2.437369	0.499986	0.188802
C41	C	1.956268	-0.000008	-0.490898
C42	C	2.456268	0.499992	0.009102
N43	N	1.889166	0.243526	-0.013144
N44	N	2.389166	0.743526	0.486856
C45	C	1.840889	-0.000012	0.284904
C46	C	2.340889	0.499988	0.784904
C47	C	1.821990	-0.000011	0.464604
C48	C	2.321990	0.499989	0.964604
H49	H	1.466258	-0.000005	-0.209705
H50	H	1.966258	0.499995	0.290295
H51	H	1.311990	-0.000004	0.183420
H52	H	1.811990	0.499996	0.683420
Cl53	Cl	2.156099	-0.000023	-0.644335
Cl54	Cl	2.656099	0.499977	-0.144335
Cl55	Cl	1.622168	-0.000012	-0.381967
Cl56	Cl	2.122168	0.499988	0.118033
