data_functionalizedCrystal
_audit_creation_method	'MofGen! by Chris Wilmer'
_symmetry_space_group_name_H-M	'P1'
_symmetry_Int_Tables_number	1
_symmetry_cell_setting	triclinic
loop_
_symmetry_equiv_pos_as_xyz
  x,y,z
_cell_length_a	19.288864
_cell_length_b	10.065918
_cell_length_c	19.288865
_cell_angle_alpha	99.849149
_cell_angle_beta	83.136245
_cell_angle_gamma	99.901568
loop_
_atom_site_label
_atom_site_type_symbol
_atom_site_fract_x
_atom_site_fract_y
_atom_site_fract_z
O1	O	0.930471	0.113954	0.095719
O2	O	1.430471	0.613954	0.595719
O3	O	0.728203	0.113863	0.107401
O4	O	1.228203	0.613863	0.607401
O5	O	0.835180	0.113884	0.000428
O6	O	1.335180	0.613884	0.500428
O7	O	0.823495	0.113933	0.202692
O8	O	1.323495	0.613933	0.702692
O9	O	0.816997	-0.113118	-0.017647
O10	O	1.316997	0.386882	0.482353
O11	O	0.710021	-0.113139	0.089326
O12	O	1.210021	0.386861	0.589326
O13	O	0.912289	-0.113048	0.077645
O14	O	1.412289	0.386952	0.577645
Zn15	Zn	0.808268	-0.149135	0.080616
Zn16	Zn	1.308268	0.350865	0.580616
Zn17	Zn	0.832224	0.149950	0.104430
Zn18	Zn	1.332224	0.649950	0.604430
O19	O	0.805312	-0.113069	0.184618
O20	O	1.305312	0.386931	0.684618
C21	C	0.693235	0.000350	0.097987
C22	C	1.193235	0.500350	0.597987
C23	C	0.616128	0.000314	0.096855
C24	C	1.116128	0.500314	0.596855
N25	N	0.791923	-0.353252	0.064363
N26	N	1.291923	0.146748	0.564363
C27	C	0.571435	0.000350	0.159625
C28	C	1.071435	0.500350	0.659625
C29	C	0.498989	0.000365	0.158566
C30	C	0.998989	0.500365	0.658566
C31	C	0.471242	0.000371	0.094734
C32	C	0.971242	0.500371	0.594734
C33	C	0.515944	0.000327	0.031955
C34	C	1.015944	0.500327	0.531955
C35	C	0.588388	0.000298	0.033015
C36	C	1.088388	0.500298	0.533015
C37	C	0.369353	0.079933	0.050890
C38	C	0.869353	0.579933	0.550890
C39	C	0.296911	0.079970	0.049833
C40	C	0.796911	0.579970	0.549833
C41	C	0.247803	0.000453	0.091461
C42	C	0.747803	0.500453	0.591461
C43	C	0.271145	-0.079084	0.134159
C44	C	0.771145	0.420916	0.634159
C45	C	0.343588	-0.079113	0.135219
C46	C	0.843588	0.420887	0.635219
C47	C	0.392690	0.000401	0.093578
C48	C	0.892690	0.500401	0.593578
C49	C	0.124555	0.000503	0.153087
C50	C	0.624555	0.500503	0.653087
C51	C	0.052107	0.000510	0.152024
C52	C	0.552107	0.500510	0.652024
C53	C	0.069065	0.000485	0.025412
C54	C	0.569065	0.500485	0.525412
C55	C	0.141510	0.000465	0.026476
C56	C	0.641510	0.500465	0.526476
C57	C	0.169251	0.000481	0.090316
C58	C	0.669251	0.500481	0.590316
C59	C	0.826533	-0.421006	0.098775
C60	C	1.326533	0.078994	0.598775
C61	C	0.813960	-0.578182	0.086260
C62	C	1.313960	-0.078182	0.586260
C63	C	0.947258	0.000468	0.087059
C64	C	1.447258	0.500468	0.587059
C65	C	1.024365	0.000513	0.088192
C66	C	1.524365	0.500513	0.588192
C67	C	0.825712	0.000379	-0.034486
C68	C	1.325712	0.500379	0.465514
C69	C	0.824582	0.000366	-0.111591
C70	C	1.324582	0.500366	0.388409
N71	N	0.848574	0.354067	0.120677
N72	N	1.348574	0.854067	0.620677
C73	C	0.887352	0.000388	-0.156285
C74	C	1.387352	0.500388	0.343715
C75	C	0.886293	0.000409	-0.228731
C76	C	1.386293	0.500409	0.271269
C77	C	0.822458	0.000381	-0.256481
C78	C	1.322458	0.500381	0.243519
C79	C	0.759681	0.000367	-0.211775
C80	C	1.259681	0.500367	0.288225
C81	C	0.760743	0.000360	-0.139331
C82	C	1.260743	0.500360	0.360669
C83	C	0.765908	-0.079155	-0.371101
C84	C	1.265908	0.420845	0.128899
C85	C	0.764848	-0.079156	-0.443545
C86	C	1.264848	0.420844	0.056455
C87	C	0.819181	0.000410	-0.479924
C88	C	1.319181	0.500410	0.020076
C89	C	0.874584	0.079960	-0.443852
C90	C	1.374584	0.579960	0.056148
C91	C	0.875646	0.079953	-0.371407
C92	C	1.375646	0.579953	0.128593
C93	C	0.821300	0.000390	-0.335034
C94	C	1.321300	0.500390	0.164966
C95	C	0.880807	0.000457	-0.603172
C96	C	1.380807	0.500457	-0.103172
C97	C	0.879746	0.000486	-0.675618
C98	C	1.379746	0.500486	-0.175618
C99	C	0.753131	0.000431	-0.658662
C100	C	1.253131	0.500431	-0.158662
C101	C	0.754195	0.000415	-0.586217
C102	C	1.254195	0.500415	-0.086217
C103	C	0.818034	0.000421	-0.558477
C104	C	1.318034	0.500421	-0.058477
C105	C	0.814780	0.000439	0.219532
C106	C	1.314780	0.500439	0.719532
C107	C	0.815911	0.000461	0.296637
C108	C	1.315911	0.500461	0.796637
H109	H	0.594016	0.000366	0.211609
H110	H	1.094016	0.500366	0.711609
H111	H	0.493350	0.000350	-0.020016
H112	H	0.993350	0.500350	0.479984
O113	O	0.450775	0.000399	0.226273
O114	O	0.950775	0.500399	0.726273
H115	H	0.395739	0.000405	0.214808
H116	H	0.895739	0.500405	0.714808
H117	H	0.701157	0.000415	-0.681255
H118	H	1.201157	0.500415	-0.181255
H119	H	0.887518	-0.587585	0.159406
H120	H	1.387518	-0.087585	0.659406
H121	H	0.752986	-0.411607	0.025634
H122	H	1.252986	0.088393	0.525634
H123	H	0.624778	0.000269	-0.018102
H124	H	1.124778	0.500269	0.481898
H125	H	0.721661	-0.143955	-0.341488
H126	H	1.221661	0.356045	0.158512
H127	H	0.932789	0.000468	-0.580585
H128	H	1.432789	0.500468	-0.080585
H129	H	0.277913	0.144740	0.015069
H130	H	0.777913	0.644740	0.515069
H131	H	0.865475	-0.362651	0.137499
H132	H	1.365475	0.137349	0.637499
O133	O	0.690827	0.000322	-0.241700
O134	O	1.190827	0.500322	0.258300
H135	H	0.700632	0.000311	-0.299586
H136	H	1.200632	0.500311	0.200414
H137	H	0.362589	-0.143879	0.169983
H138	H	0.862589	0.356121	0.669983
H139	H	0.939335	0.000398	-0.133704
H140	H	1.439335	0.500398	0.366296
H141	H	0.775020	-0.636532	0.047528
H142	H	1.275020	-0.136532	0.547528
H143	H	0.231161	-0.143836	0.168056
H144	H	0.731161	0.356164	0.668056
H145	H	0.937409	0.000432	-0.265128
H146	H	1.437409	0.500432	0.234872
H147	H	0.920756	0.144727	-0.342039
H148	H	1.420756	0.644727	0.157961
O149	O	0.705094	-0.164955	-0.482446
O150	O	1.205094	0.335045	0.017554
H151	H	0.726728	-0.239637	-0.525163
H152	H	1.226728	0.260363	-0.025163
O153	O	0.933190	0.165798	-0.483074
O154	O	1.433190	0.665798	0.016926
H155	H	0.923142	0.152459	-0.539507
H156	H	1.423142	0.652459	-0.039507
O157	O	0.947449	0.000498	-0.723832
O158	O	1.447449	0.500498	-0.223832
H159	H	0.992014	0.000484	-0.692369
H160	H	1.492014	0.500484	-0.192369
O161	O	0.686491	0.000358	-0.538006
O162	O	1.186491	0.500358	-0.038006
H163	H	0.641922	0.000325	-0.569472
H164	H	1.141922	0.500325	-0.069472
O165	O	0.693037	0.000313	-0.091119
O166	O	1.193037	0.500313	0.408881
H167	H	0.648468	0.000287	-0.122583
H168	H	1.148468	0.500287	0.377417
H169	H	0.015717	0.000532	0.203142
H170	H	0.515717	0.500532	0.703142
O171	O	0.154482	0.000493	0.221936
O172	O	0.654482	0.500493	0.721936
H173	H	0.111227	0.000495	0.265406
H174	H	0.611227	0.500495	0.765406
H175	H	0.046481	0.000574	-0.026554
H176	H	0.546481	0.500574	0.473446
H177	H	0.177901	0.000442	-0.024638
H178	H	0.677901	0.500442	0.475362
O179	O	0.422320	0.165712	0.005993
O180	O	0.922320	0.665712	0.505993
H181	H	0.393920	0.221040	-0.023864
H182	H	0.893920	0.721040	0.476136
