data_functionalizedCrystal
_audit_creation_method	'MofGen! by Chris Wilmer'
_symmetry_space_group_name_H-M	'P1'
_symmetry_Int_Tables_number	1
_symmetry_cell_setting	triclinic
loop_
_symmetry_equiv_pos_as_xyz
  x,y,z
_cell_length_a	21.295418
_cell_length_b	21.295418
_cell_length_c	12.827885
_cell_angle_alpha	90.036412
_cell_angle_beta	90.040448
_cell_angle_gamma	90.043213
loop_
_atom_site_label
_atom_site_type_symbol
_atom_site_fract_x
_atom_site_fract_y
_atom_site_fract_z
Zn1	Zn	0.962349	-0.250313	0.591391
Zn2	Zn	1.462349	0.249687	1.091391
Zn3	Zn	0.962263	-0.355595	0.416631
Zn4	Zn	1.462263	0.144405	0.916631
Zn5	Zn	0.857078	-0.250373	0.416600
Zn6	Zn	1.357078	0.249627	0.916600
Zn7	Zn	0.857047	-0.355577	0.591267
Zn8	Zn	1.357047	0.144423	1.091267
O9	O	0.909684	-0.302964	0.503972
O10	O	1.409684	0.197036	1.003972
O11	O	1.050427	-0.264261	0.568274
O12	O	1.550427	0.235739	1.068274
O13	O	0.948287	-0.341669	0.270391
O14	O	1.448287	0.158331	0.770391
O15	O	0.871091	-0.162275	0.439826
O16	O	1.371091	0.337725	0.939826
O17	O	1.050364	-0.341611	0.439879
O18	O	1.550364	0.158389	0.939879
O19	O	0.948433	-0.162231	0.568244
O20	O	1.448433	0.337769	1.068244
O21	O	0.871008	-0.264363	0.270368
O22	O	1.371008	0.235637	0.770368
O23	O	0.768985	-0.264346	0.439705
O24	O	1.268985	0.235654	0.939705
O25	O	0.871039	-0.341581	0.737519
O26	O	1.371039	0.158419	1.237519
O27	O	0.768962	-0.341639	0.568032
O28	O	1.268962	0.158361	1.068032
O29	O	0.948403	-0.264244	0.737611
O30	O	1.448403	0.235756	1.237611
O31	O	0.948257	-0.443682	0.439758
O32	O	1.448257	0.056318	0.939758
O33	O	0.870956	-0.443669	0.568062
O34	O	1.370956	0.056331	1.068062
C35	C	0.746133	-0.302998	0.503852
C36	C	1.246133	0.197002	1.003852
C37	C	0.676165	-0.303027	0.503825
C38	C	1.176165	0.196973	1.003825
C39	C	0.643303	-0.343327	0.570545
C40	C	1.143303	0.156673	1.070545
C41	C	0.577560	-0.343311	0.570592
C42	C	1.077560	0.156689	1.070592
C43	C	0.544682	-0.303002	0.503901
C44	C	1.044682	0.196998	1.003901
C45	C	0.577552	-0.262695	0.437176
C46	C	1.077552	0.237305	0.937176
C47	C	0.643293	-0.262707	0.437139
C48	C	1.143293	0.237293	0.937139
N49	N	0.441409	-0.298091	0.412500
N50	N	0.941409	0.201909	0.912500
N51	N	0.378958	-0.298083	0.412539
N52	N	0.878958	0.201917	0.912539
C53	C	0.346607	-0.302962	0.504011
C54	C	0.846607	0.197038	1.004011
N55	N	0.379068	-0.307862	0.595446
N56	N	0.879068	0.192138	1.095446
N57	N	0.441525	-0.307873	0.595406
N58	N	0.941525	0.192127	1.095406
C59	C	0.473397	-0.302984	0.503934
C60	C	0.973397	0.197016	1.003934
C61	C	0.242460	-0.343248	0.570788
C62	C	0.742460	0.156752	1.070788
C63	C	0.176716	-0.343228	0.570836
C64	C	0.676716	0.156772	1.070836
C65	C	0.176709	-0.262614	0.437411
C66	C	0.676709	0.237386	0.937411
C67	C	0.242452	-0.262631	0.437372
C68	C	0.742452	0.237369	0.937372
C69	C	0.275323	-0.302951	0.504059
C70	C	0.775323	0.197049	1.004059
C71	C	0.909611	-0.466516	0.503922
C72	C	1.409611	0.033484	1.003922
C73	C	0.909637	-0.536484	0.503936
C74	C	1.409637	-0.036484	1.003936
C75	C	0.950086	-1.035928	0.437333
C76	C	1.450086	-0.535928	0.937333
C77	C	0.950063	-0.970185	0.437308
C78	C	1.450063	-0.470185	0.937308
C79	C	0.909773	-0.937324	0.504046
C80	C	1.409773	-0.437324	1.004046
C81	C	0.869493	-0.970210	0.570794
C82	C	1.369493	-0.470210	1.070794
C83	C	0.869514	-1.035951	0.570809
C84	C	1.369514	-0.535951	1.070809
N85	N	0.904881	-0.834066	0.595485
N86	N	1.404881	-0.334066	1.095485
N87	N	0.904865	-0.771615	0.595468
N88	N	1.404865	-0.271615	1.095468
C89	C	0.909707	-0.739249	0.504002
C90	C	1.409707	-0.239249	1.004002
N91	N	0.914579	-0.771694	0.412552
N92	N	1.414579	-0.271694	0.912552
N93	N	0.914598	-0.834151	0.412571
N94	N	1.414598	-0.334151	0.912571
C95	C	0.909746	-0.866038	0.504036
C96	C	1.409746	-0.366038	1.004036
C97	C	0.949956	-0.635085	0.437226
C98	C	1.449956	-0.135085	0.937226
C99	C	0.949927	-0.569341	0.437199
C100	C	1.449927	-0.069341	0.937199
C101	C	0.869361	-0.569367	0.570694
C102	C	1.369361	-0.069367	1.070694
C103	C	0.869386	-0.635109	0.570711
C104	C	1.369386	-0.135109	1.070711
C105	C	0.909687	-0.667965	0.503979
C106	C	1.409687	-0.167965	1.003979
C107	C	1.073875	-0.302932	0.504094
C108	C	1.573875	0.197068	1.004094
C109	C	1.143843	-0.302918	0.504145
C110	C	1.643843	0.197082	1.004145
C111	C	0.909727	-0.302904	0.776543
C112	C	1.409727	0.197096	1.276543
C113	C	0.909746	-0.302878	0.892696
C114	C	1.409746	0.197122	1.392696
C115	C	0.909775	-0.138774	0.504045
C116	C	1.409775	0.361226	1.004045
C117	C	0.909814	-0.068806	0.504076
C118	C	1.409814	0.431194	1.004076
C119	C	0.909678	-0.302979	0.232462
C120	C	1.409678	0.197021	0.732462
C121	C	0.909782	-0.302828	0.116310
C122	C	1.409782	0.197172	0.616310
C123	C	0.948032	-0.264602	0.944526
C124	C	1.448032	0.235398	1.444526
C125	C	0.948052	-0.264574	1.064576
C126	C	1.448052	0.235426	1.564576
H127	H	0.149941	-0.229791	0.383114
H128	H	0.649941	0.270209	0.883114
H129	H	0.980794	-0.231850	0.900023
H130	H	1.480794	0.268150	1.400023
C131	C	0.278605	-0.218306	0.363974
C132	C	0.778605	0.281694	0.863974
H133	H	0.322466	-0.224083	0.373508
H134	H	0.822466	0.275917	0.873508
H135	H	0.267778	-0.227464	0.293738
H136	H	0.767778	0.272536	0.793738
H137	H	0.267880	-0.176018	0.379410
H138	H	0.767880	0.323982	0.879410
C139	C	0.994409	-1.072065	0.363920
C140	C	1.494409	-0.572065	0.863920
H141	H	1.018386	-1.043064	0.324159
H142	H	1.518386	-0.543064	0.824159
H143	H	1.021830	-1.097665	0.403955
H144	H	1.521830	-0.597665	0.903955
H145	H	0.970348	-1.097754	0.318335
H146	H	1.470348	-0.597754	0.818335
H147	H	0.877004	-0.335602	1.071744
H148	H	1.377004	0.164398	1.571744
H149	H	0.982720	-0.542572	0.382843
H150	H	1.482720	-0.042572	0.882843
H151	H	0.550779	-0.229874	0.382877
H152	H	1.050779	0.270126	0.882877
C153	C	0.992337	-0.220306	1.124782
C154	C	1.492337	0.279694	1.624782
H155	H	0.986539	-0.226093	1.197571
H156	H	1.486539	0.273907	1.697571
H157	H	1.034633	-0.229505	1.106969
H158	H	1.534633	0.270495	1.606969
H159	H	0.983152	-0.178004	1.106960
H160	H	1.483152	0.321996	1.606960
H161	H	0.876977	-0.335624	0.937199
H162	H	1.376977	0.164376	1.437199
C163	C	0.278624	-0.387588	0.644150
C164	C	0.778624	0.112412	1.144150
H165	H	0.322484	-0.381829	0.634563
H166	H	0.822484	0.118171	1.134563
H167	H	0.267904	-0.378420	0.714396
H168	H	0.767904	0.121580	1.214396
H169	H	0.267799	-0.429873	0.628733
H170	H	0.767799	0.070127	1.128733
C171	C	0.679460	-0.387688	0.643875
C172	C	1.179460	0.112312	1.143875
H173	H	0.723321	-0.381933	0.634286
H174	H	1.223321	0.118067	1.134286
H175	H	0.668747	-0.378542	0.714132
H176	H	1.168747	0.121458	1.214132
H177	H	0.668628	-0.429966	0.628423
H178	H	1.168628	0.070034	1.128423
C179	C	0.541404	-0.387606	0.644047
C180	C	1.041404	0.112394	1.144047
H181	H	0.570397	-0.411611	0.683773
H182	H	1.070397	0.088389	1.183773
H183	H	0.515828	-0.363521	0.689646
H184	H	1.015828	0.136479	1.189646
H185	H	0.515690	-0.415013	0.604050
H186	H	1.015690	0.084987	1.104050
H187	H	0.836688	-0.943450	0.625130
H188	H	1.336688	-0.443450	1.125130
C189	C	0.679443	-0.218379	0.363738
C190	C	1.179443	0.281621	0.863738
H191	H	0.650449	-0.194370	0.324021
H192	H	1.150449	0.305630	0.824021
H193	H	0.705143	-0.190986	0.403779
H194	H	1.205143	0.309014	0.903779
H195	H	0.705034	-0.242437	0.318112
H196	H	1.205034	0.257563	0.818112
H197	H	0.982858	-0.943411	0.382956
H198	H	1.482858	-0.443411	0.882956
C199	C	0.825040	-0.533230	0.644102
C200	C	1.325040	-0.033230	1.144102
H201	H	0.801055	-0.562230	0.683852
H202	H	1.301055	-0.062230	1.183852
H203	H	0.849092	-0.507534	0.689680
H204	H	1.349092	-0.007534	1.189680
H205	H	0.797616	-0.507636	0.604051
H206	H	1.297616	-0.007636	1.104051
H207	H	0.836719	-1.062720	0.625163
H208	H	1.336719	-0.562720	1.125163
C209	C	0.140565	-0.387557	0.644233
C210	C	0.640565	0.112443	1.144233
H211	H	0.096703	-0.381771	0.634715
H212	H	0.596703	0.118229	1.134715
H213	H	0.151287	-0.429843	0.628801
H214	H	0.651287	0.070157	1.128801
H215	H	0.151395	-0.378396	0.714472
H216	H	0.651395	0.121604	1.214472
C217	C	0.994276	-0.671229	0.363812
C218	C	1.494276	-0.171229	0.863812
H219	H	1.018251	-0.642229	0.324045
H220	H	1.518251	-0.142229	0.824045
H221	H	1.021699	-0.696826	0.403849
H222	H	1.521699	-0.196826	0.903849
H223	H	0.970214	-0.696921	0.318234
H224	H	1.470214	-0.196921	0.818234
H225	H	0.836594	-0.661879	0.625064
H226	H	1.336594	-0.161879	1.125064
