data_functionalizedCrystal
_audit_creation_method	'MofGen! by Chris Wilmer'
_symmetry_space_group_name_H-M	'P1'
_symmetry_Int_Tables_number	1
_symmetry_cell_setting	triclinic
loop_
_symmetry_equiv_pos_as_xyz
  x,y,z
_cell_length_a	9.730223
_cell_length_b	10.654550
_cell_length_c	10.654550
_cell_angle_alpha	84.484903
_cell_angle_beta	89.999807
_cell_angle_gamma	90.000073
loop_
_atom_site_label
_atom_site_type_symbol
_atom_site_fract_x
_atom_site_fract_y
_atom_site_fract_z
O1	O	-0.114277	1.667834	0.176393
O2	O	-0.114282	1.302355	0.193199
O3	O	-0.114274	1.493498	0.002057
O4	O	-0.114285	1.476692	0.367535
O5	O	0.114306	1.493496	0.002062
O6	O	0.114298	1.302353	0.193204
O7	O	0.114303	1.667832	0.176398
Zn8	Zn	0.150592	1.485092	0.184802
Zn9	Zn	-0.150572	1.485095	0.184795
O10	O	0.114295	1.476689	0.367540
C11	C	0.000008	1.255556	0.191968
C12	C	0.000006	1.116113	0.188276
N13	N	0.356129	1.485099	0.184805
N14	N	-0.356108	1.485098	0.184782
C15	C	0.000010	1.714631	0.177630
C16	C	0.000003	1.854074	0.181321
C17	C	0.428058	1.569759	0.100197
C18	C	0.571941	1.569756	0.100181
C19	C	0.571953	1.400429	0.269395
C20	C	0.428072	1.400427	0.269403
C21	C	0.428053	1.667522	0.002506
C22	C	0.571935	1.667519	0.002491
C23	C	0.000014	1.492263	-0.044739
C24	C	0.000009	1.488571	-0.184182
C25	C	0.000001	1.933560	0.068780
C26	C	0.000007	2.064581	0.072257
C27	C	0.000012	2.036617	0.300826
C28	C	0.000016	1.905599	0.297348
C29	C	-0.000008	1.949705	-0.063183
C30	C	-0.000002	2.080726	-0.059706
C31	C	0.000015	1.601112	-0.263668
C32	C	0.000005	1.597636	-0.394688
C33	C	-0.000010	1.369066	-0.366725
C34	C	-0.000010	1.372544	-0.235707
C35	C	0.000029	1.733075	-0.279813
C36	C	0.000019	1.729599	-0.410834
C37	C	0.000004	1.477924	0.414336
C38	C	-0.000000	1.481616	0.553779
H39	H	0.630545	1.331490	0.338271
H40	H	0.610987	1.764031	0.024009
C41	C	-0.129231	2.137142	-0.126856
H42	H	-0.182389	2.071433	-0.156819
H43	H	-0.102673	2.195137	-0.195899
H44	H	-0.182372	2.179644	-0.069254
C45	C	-0.129181	1.802799	-0.240139
H46	H	-0.129165	1.805168	-0.151231
H47	H	-0.208909	1.759821	-0.264599
H48	H	-0.129163	1.886441	-0.280098
H49	H	0.389001	1.646080	-0.094027
H50	H	-0.098675	1.769481	-0.456479
C51	C	0.129249	1.796746	-0.467253
H52	H	0.182410	1.826709	-0.401545
H53	H	0.102690	1.865790	-0.525247
H54	H	0.182388	1.739144	-0.509757
H55	H	0.098696	2.126373	-0.099580
H56	H	-0.000034	1.280902	-0.170993
C57	C	0.367756	1.790703	0.043814
H58	H	0.440468	1.845562	0.062198
H59	H	0.312806	1.772192	0.116946
H60	H	0.312808	1.830363	-0.022236
H61	H	0.000033	1.840885	0.388991
H62	H	0.095648	1.920351	-0.114796
C63	C	0.632228	1.626301	-0.120733
H64	H	0.729739	1.627694	-0.116534
H65	H	0.602080	1.682484	-0.189879
H66	H	0.602079	1.543274	-0.131789
C67	C	0.348954	1.307295	0.362465
H68	H	0.412411	1.256878	0.412851
H69	H	0.292822	1.254632	0.316797
H70	H	0.292833	1.352923	0.415181
C71	C	-0.000020	1.241448	-0.423407
H72	H	-0.000012	1.255493	-0.512821
H73	H	-0.079730	1.195061	-0.396188
H74	H	0.079701	1.195062	-0.396194
C75	C	0.133348	1.789849	-0.231672
H76	H	0.192716	1.812731	-0.300898
H77	H	0.177644	1.729318	-0.174064
H78	H	0.111931	1.862546	-0.190371
H79	H	0.000024	2.078585	0.395291
H80	H	-0.098703	1.914074	-0.105206
