data_functionalizedCrystal
_audit_creation_method	'MofGen! by Chris Wilmer'
_symmetry_space_group_name_H-M	'P1'
_symmetry_Int_Tables_number	1
_symmetry_cell_setting	triclinic
loop_
_symmetry_equiv_pos_as_xyz
  x,y,z
_cell_length_a	19.076808
_cell_length_b	19.805407
_cell_length_c	19.077579
_cell_angle_alpha	87.685941
_cell_angle_beta	94.529153
_cell_angle_gamma	87.680447
loop_
_atom_site_label
_atom_site_type_symbol
_atom_site_fract_x
_atom_site_fract_y
_atom_site_fract_z
Zn1	Zn	-0.264741	-1.039457	0.387324
Zn2	Zn	0.235259	-0.539457	0.887324
Zn3	Zn	-0.387373	-1.029904	0.264694
Zn4	Zn	0.112627	-0.529904	0.764694
Zn5	Zn	-0.269489	-0.921540	0.269447
Zn6	Zn	0.230511	-0.421540	0.769447
Zn7	Zn	-0.382592	-0.921500	0.382543
Zn8	Zn	0.117408	-0.421500	0.882543
O9	O	-0.326049	-0.978100	0.326002
O10	O	0.173951	-0.478100	0.826002
O11	O	-0.281022	-1.132906	0.371068
O12	O	0.218978	-0.632906	0.871068
O13	O	-0.375723	-1.011549	0.166673
O14	O	0.124277	-0.511549	0.666673
O15	O	-0.170202	-0.941197	0.289074
O16	O	0.329798	-0.441197	0.789074
O17	O	-0.371119	-1.125888	0.280972
O18	O	0.128881	-0.625888	0.780972
O19	O	-0.166714	-1.027830	0.375677
O20	O	0.333286	-0.527830	0.875677
O21	O	-0.289114	-0.931934	0.170165
O22	O	0.210886	-0.431934	0.670165
O23	O	-0.284478	-0.826818	0.284438
O24	O	0.215522	-0.326818	0.784438
O25	O	-0.362971	-0.941128	0.481829
O26	O	0.137029	-0.441128	0.981829
O27	O	-0.367575	-0.826789	0.367530
O28	O	0.132425	-0.326789	0.867530
O29	O	-0.276386	-1.027791	0.485341
O30	O	0.223614	-0.527791	0.985341
O31	O	-0.485395	-1.011509	0.276337
O32	O	0.014605	-0.511509	0.776337
O33	O	-0.481883	-0.931865	0.362921
O34	O	0.018117	-0.431865	0.862921
C35	C	-0.326024	-0.802244	0.325982
C36	C	0.173976	-0.302244	0.825982
C37	C	-0.326029	-0.727013	0.325989
C38	C	0.173971	-0.227013	0.825989
C39	C	-0.279192	-0.695323	0.372966
C40	C	0.220808	-0.195323	0.872966
C41	C	-0.279194	-0.624635	0.372967
C42	C	0.220806	-0.124635	0.872967
C43	C	-0.326038	-0.585637	0.325993
C44	C	0.173962	-0.085637	0.825993
C45	C	-0.372877	-0.617331	0.279011
C46	C	0.127123	-0.117331	0.779011
C47	C	-0.372871	-0.688018	0.279007
C48	C	0.127129	-0.188018	0.779007
C49	C	-0.372902	-0.332257	0.279025
C50	C	0.127098	0.167743	0.779025
C51	C	-0.372906	-0.261565	0.279033
C52	C	0.127094	0.238435	0.779033
C53	C	-0.279225	-0.268874	0.372984
C54	C	0.220775	0.231126	0.872984
C55	C	-0.279219	-0.339561	0.372980
C56	C	0.220781	0.160439	0.872980
C57	C	-0.326056	-0.371249	0.325996
C58	C	0.173944	0.128751	0.825996
C59	C	-0.326052	-0.447897	0.325994
C60	C	0.173948	0.052103	0.825994
C61	C	-0.326045	-0.508990	0.325997
C62	C	0.173955	-0.008990	0.825997
C63	C	-0.509219	-0.970665	0.318610
C64	C	-0.009219	-0.470665	0.818610
C65	C	-0.587579	-0.967547	0.315471
C66	C	-0.087579	-0.467547	0.815471
C67	C	-0.622515	-1.011157	0.359123
C68	C	-0.122515	-0.511157	0.859123
C69	C	-0.696142	-1.008225	0.356175
C70	C	-0.196142	-0.508225	0.856175
C71	C	-0.734833	-0.961686	0.309571
C72	C	-0.234833	-0.461686	0.809571
C73	C	-0.699893	-0.918071	0.265918
C74	C	-0.199893	-0.418071	0.765918
C75	C	-0.626266	-0.921001	0.268870
C76	C	-0.126266	-0.421001	0.768870
C77	C	-0.955234	-0.948088	0.295906
C78	C	-0.455234	-0.448088	0.795906
C79	C	-1.028866	-0.945163	0.292956
C80	C	-0.528866	-0.445163	0.792956
C81	C	-1.025110	-1.035316	0.383214
C82	C	-0.525110	-0.535316	0.883214
C83	C	-0.951483	-1.038244	0.386159
C84	C	-0.451483	-0.538244	0.886159
C85	C	-0.916548	-0.994627	0.342509
C86	C	-0.416548	-0.494627	0.842509
N87	N	-0.810093	-0.958689	0.306555
N88	N	-0.310093	-0.458689	0.806555
N89	N	-0.841290	-0.997621	0.345529
N90	N	-0.341290	-0.497621	0.845529
C91	C	-0.142162	-0.985584	0.333439
C92	C	0.357838	-0.485584	0.833439
C93	C	-0.063801	-0.988772	0.336608
C94	C	0.436199	-0.488772	0.836608
C95	C	-0.318616	-0.985520	0.509880
C96	C	0.181384	-0.485520	1.009880
C97	C	-0.315448	-0.988683	0.588238
C98	C	0.184552	-0.488683	1.088238
C99	C	-0.326069	-0.154643	0.326017
C100	C	0.173931	0.345357	0.826017
C101	C	-0.326065	-0.229875	0.326008
C102	C	0.173935	0.270125	0.826008
C103	C	-0.333402	-0.970750	0.142842
C104	C	0.166598	-0.470750	0.642842
C105	C	-0.336371	-0.967727	0.064492
C106	C	0.163629	-0.467727	0.564492
C107	C	-0.292781	-1.011360	1.029506
C108	C	0.207219	-0.511360	1.529506
C109	C	-0.295761	-1.008384	0.955880
C110	C	0.204239	-0.508384	1.455880
C111	C	-0.342327	-0.961773	0.917242
C112	C	0.157673	-0.461773	1.417242
C113	C	-0.385921	-0.918138	0.952234
C114	C	0.114079	-0.418138	1.452234
C115	C	-0.382945	-0.921117	1.025858
C116	C	0.117055	-0.421117	1.525858
C117	C	-0.356066	-0.948027	0.696853
C118	C	0.143934	-0.448027	1.196853
C119	C	-0.359038	-0.945050	0.623224
C120	C	0.140962	-0.445050	1.123224
C121	C	-0.268878	-1.035297	0.626876
C122	C	0.231122	-0.535297	1.126876
C123	C	-0.265902	-1.038269	0.700501
C124	C	0.234098	-0.538269	1.200501
C125	C	-0.309499	-0.994638	0.735486
C126	C	0.190501	-0.494638	1.235486
N127	N	-0.345372	-0.958729	0.841985
N128	N	0.154628	-0.458729	1.341985
N129	N	-0.306457	-0.997685	0.810742
N130	N	0.193543	-0.497685	1.310742
H131	H	-0.241076	-0.371310	0.411233
H132	H	0.258924	0.128690	0.911233
F133	F	-0.229375	-0.235143	0.422988
F134	F	0.270625	0.264857	0.922988
F135	F	-0.581343	-1.060694	0.408721
F136	F	-0.081343	-0.560694	0.908721
F137	F	-0.422765	-0.220062	0.229034
F138	F	0.077235	0.279938	0.729034
H139	H	-0.260267	-1.043916	0.927397
H140	H	0.239733	-0.543916	1.427397
H141	H	-1.060366	-0.907262	0.255005
H142	H	-0.560366	-0.407262	0.755005
H143	H	-0.919982	-1.076139	0.424107
H144	H	-0.419982	-0.576139	0.924107
H145	H	-0.926796	-0.912575	0.260363
H146	H	-0.426796	-0.412575	0.760363
F147	F	-0.589086	-0.874585	0.222411
F148	F	-0.089086	-0.374585	0.722411
H149	H	-0.391565	-0.912498	0.725329
H150	H	0.108435	-0.412498	1.225329
H151	H	-0.227986	-1.076228	0.731955
H152	H	0.272014	-0.576228	1.231955
F153	F	-0.741072	-0.868535	0.216325
F154	F	-0.241072	-0.368535	0.716325
H155	H	-0.241048	-0.727070	0.411219
H156	H	0.258952	-0.227070	0.911219
F157	F	-0.222478	-1.081727	0.589637
F158	F	0.277522	-0.581727	1.089637
H159	H	-0.254858	-1.049312	1.060959
H160	H	0.245142	-0.549312	1.560959
H161	H	-0.724584	-1.043741	0.391715
H162	H	-0.224584	-0.543741	0.891715
F163	F	-1.062295	-1.081730	0.429669
F164	F	-0.562295	-0.581730	0.929669
F165	F	-0.429340	-0.874679	1.063093
F166	F	0.070660	-0.374679	1.563093
F167	F	-0.422739	-0.365973	0.229008
F168	F	0.077261	0.134027	0.729008
F169	F	-0.408602	-0.895438	0.582104
F170	F	0.091398	-0.395438	1.082104
F171	F	-0.435482	-0.868532	0.911111
F172	F	0.064518	-0.368532	1.411111
F173	F	-0.422729	-0.575825	0.229015
F174	F	0.077271	-0.075825	0.729015
H175	H	-0.241055	-0.598836	0.411222
H176	H	0.258945	-0.098836	0.911222
F177	F	-0.422723	-0.721744	0.229008
F178	F	0.077277	-0.221744	0.729008
