data_functionalizedCrystal
_audit_creation_method	'MofGen! by Chris Wilmer'
_symmetry_space_group_name_H-M	'P1'
_symmetry_Int_Tables_number	1
_symmetry_cell_setting	triclinic
loop_
_symmetry_equiv_pos_as_xyz
  x,y,z
_cell_length_a	18.050591
_cell_length_b	21.295417
_cell_length_c	18.050582
_cell_angle_alpha	89.972538
_cell_angle_beta	89.978183
_cell_angle_gamma	90.026512
loop_
_atom_site_label
_atom_site_type_symbol
_atom_site_fract_x
_atom_site_fract_y
_atom_site_fract_z
Zn1	Zn	1.135287	-0.250712	-0.420010
Zn2	Zn	1.135191	-0.355974	-0.295811
Zn3	Zn	1.011105	-0.250716	-0.295821
Zn4	Zn	1.011050	-0.355940	-0.419946
O5	O	1.073158	-0.303335	-0.357897
O6	O	1.239199	-0.264688	-0.403557
O7	O	1.118713	-0.342028	-0.191887
O8	O	1.027641	-0.162626	-0.312326
O9	O	1.239128	-0.342024	-0.312308
O10	O	1.118877	-0.162623	-0.403567
O11	O	1.027548	-0.264695	-0.191895
O12	O	0.907173	-0.264661	-0.312264
O13	O	1.027547	-0.341965	-0.523879
O14	O	0.907132	-0.341969	-0.403458
O15	O	1.118824	-0.264655	-0.523926
O16	O	1.118660	-0.444059	-0.312247
O17	O	1.027454	-0.444034	-0.403449
C18	C	0.880206	-0.303312	-0.357856
C19	C	0.797660	-0.303317	-0.357856
C20	C	0.598210	-0.261228	-0.308379
C21	C	0.548787	-0.318643	-0.290098
C22	C	0.646530	-0.303336	-0.357889
C23	C	0.548871	-0.245941	-0.376169
C24	C	0.500545	-0.303350	-0.357920
C25	C	0.598194	-0.360781	-0.339573
C26	C	0.598282	-0.288040	-0.425676
C27	C	0.548882	-0.345495	-0.407420
C28	C	0.730628	-0.303328	-0.357870
C29	C	0.416448	-0.303365	-0.357940
C30	C	1.073061	-0.466887	-0.357856
C31	C	1.073087	-0.536855	-0.357863
C32	C	1.120620	-0.569714	-0.310423
C33	C	1.120655	-0.635457	-0.310440
C34	C	1.073143	-0.668338	-0.357889
C35	C	1.025607	-0.635471	-0.405338
C36	C	1.025579	-0.569729	-0.405325
N37	N	1.008176	-0.771600	-0.363536
N38	N	1.008205	-0.834051	-0.363544
C39	C	1.073227	-0.866412	-0.357931
N40	N	1.138219	-0.833963	-0.352296
N41	N	1.138190	-0.771505	-0.352284
C42	C	1.073169	-0.739623	-0.357908
C43	C	1.120802	-0.970557	-0.310507
C44	C	1.120838	-1.036301	-0.310529
C45	C	1.025783	-1.036313	-0.405423
C46	C	1.025753	-0.970571	-0.405405
C47	C	1.073262	-0.937697	-0.357943
C48	C	1.266864	-0.303359	-0.357939
C49	C	1.349409	-0.303370	-0.357956
C50	C	1.073190	-0.303305	-0.551603
C51	C	1.073204	-0.303293	-0.634148
C52	C	1.073276	-0.139145	-0.357954
C53	C	1.073326	-0.069177	-0.357979
C54	C	1.023614	-0.345266	-0.882949
C55	C	1.005476	-0.287849	-0.833564
C56	C	1.073267	-0.303200	-0.931269
C57	C	1.091338	-0.360660	-0.833572
C58	C	1.073234	-0.303249	-0.785284
C59	C	1.055094	-0.245752	-0.882971
C60	C	1.140988	-0.318602	-0.882984
C61	C	1.122876	-0.261146	-0.833621
C62	C	1.073284	-0.303173	-1.015367
C63	C	1.073217	-0.303269	-0.701187
C64	C	1.073169	-0.303320	-0.164945
C65	C	1.073299	-0.303155	-0.082399
H66	H	0.619770	-0.409340	-0.324062
H67	H	0.527048	-0.331591	-0.232786
C68	C	0.670182	-0.167911	-0.288426
C69	C	0.627457	-0.213209	-0.251801
H70	H	0.688234	-0.138267	-0.253496
H71	H	0.710761	-0.187734	-0.312398
H72	H	0.640522	-0.147006	-0.324216
H73	H	0.657119	-0.234118	-0.216015
H74	H	0.586872	-0.193384	-0.227817
C75	C	0.931827	-1.029719	-0.499220
C76	C	0.973558	-1.072448	-0.457584
H77	H	0.899590	-1.052030	-0.531427
H78	H	0.903429	-1.004118	-0.466829
H79	H	0.964162	-1.004036	-0.527653
H80	H	0.941222	-1.098127	-0.429147
H81	H	1.001957	-1.098059	-0.489979
C82	C	1.237128	-0.396384	-0.887429
C83	C	1.218294	-0.336189	-0.912321
H84	H	1.284852	-0.407247	-0.905546
H85	H	1.237570	-0.396905	-0.834814
H86	H	1.201738	-0.425826	-0.905057
H87	H	1.253681	-0.306746	-0.894688
H88	H	1.217858	-0.335663	-0.964946
C89	C	0.670334	-0.320083	-0.530903
C90	C	0.627664	-0.270540	-0.503019
H91	H	0.688471	-0.309274	-0.578653
H92	H	0.710855	-0.327788	-0.498603
H93	H	0.640610	-0.356786	-0.534374
H94	H	0.657391	-0.233838	-0.499543
H95	H	0.587138	-0.262827	-0.535327
C96	C	0.880263	-0.259984	-0.864040
C97	C	0.928147	-0.270289	-0.804250
H98	H	0.832522	-0.249152	-0.845942
H99	H	0.898896	-0.226698	-0.893735
H100	H	0.876888	-0.297117	-0.892985
H101	H	0.931527	-0.233154	-0.775308
H102	H	0.909509	-0.303578	-0.774542
C103	C	1.214594	-0.628847	-0.216623
C104	C	1.172902	-0.671585	-0.258285
H105	H	1.246844	-0.651152	-0.184422
H106	H	1.242976	-0.603172	-0.248999
H107	H	1.182235	-0.603240	-0.188184
H108	H	1.205261	-0.697190	-0.286728
H109	H	1.144518	-0.697272	-0.225904
C110	C	1.015335	-0.896596	-0.505276
C111	C	0.973496	-0.934450	-0.457548
H112	H	0.983071	-0.874300	-0.537472
H113	H	1.043618	-0.867608	-0.477014
H114	H	1.047682	-0.922210	-0.533719
H115	H	0.941152	-0.908834	-0.429101
H116	H	0.945200	-0.963441	-0.485813
C117	C	0.545674	-0.163973	-0.467498
C118	C	0.519618	-0.180412	-0.397030
H119	H	0.527611	-0.123520	-0.480373
H120	H	0.598289	-0.163401	-0.467188
H121	H	0.528782	-0.193847	-0.502726
H122	H	0.536515	-0.150541	-0.361801
H123	H	0.466992	-0.180979	-0.397335
H124	H	1.039731	-0.197166	-0.904580
C125	C	0.544850	-0.453668	-0.444657
C126	C	0.519816	-0.393626	-0.463959
H127	H	0.526900	-0.483382	-0.479557
H128	H	0.597466	-0.454160	-0.444667
H129	H	0.527149	-0.464184	-0.396659
H130	H	0.537522	-0.383107	-0.511954
H131	H	0.467189	-0.393132	-0.463957
C132	C	0.967976	-0.393070	-0.989765
C133	C	0.966910	-0.393199	-0.912200
H134	H	0.932971	-0.422662	-1.007823
H135	H	0.955598	-0.352376	-1.007397
H136	H	1.016082	-0.404096	-1.006679
H137	H	0.918805	-0.382168	-0.895286
H138	H	0.979283	-0.433901	-0.894560
C139	C	1.220490	-0.495719	-0.300191
C140	C	1.172845	-0.533576	-0.258261
H141	H	1.252727	-0.473405	-0.267987
H142	H	1.248886	-0.521330	-0.332572
H143	H	1.192166	-0.466742	-0.328440
H144	H	1.201169	-0.562556	-0.230015
H145	H	1.144445	-0.507963	-0.225866
C146	C	1.160422	-0.153022	-0.829631
C147	C	1.179540	-0.213099	-0.804557
H148	H	1.195400	-0.123360	-0.811682
H149	H	1.160456	-0.152508	-0.882247
H150	H	1.112448	-0.142452	-0.811956
H151	H	1.227513	-0.223671	-0.822237
H152	H	1.179515	-0.213615	-0.751929
H153	H	0.986924	-0.662247	-0.443973
H154	H	0.986871	-0.542975	-0.443958
C155	C	1.157052	-0.950362	-0.184784
C156	C	1.173026	-0.934415	-0.258343
H157	H	1.189296	-0.928053	-0.152582
H158	H	1.107162	-0.939629	-0.173867
H159	H	1.163879	-0.994219	-0.178014
H160	H	1.166194	-0.890559	-0.265115
H161	H	1.222928	-0.945144	-0.269264
C162	C	1.246637	-1.056391	-0.274510
C163	C	1.173127	-1.072387	-0.258380
H164	H	1.278927	-1.078657	-0.242312
H165	H	1.257468	-1.067142	-0.324413
H166	H	1.253371	-1.012525	-0.267731
H167	H	1.166391	-1.116252	-0.265165
H168	H	1.162292	-1.061640	-0.208465
C169	C	1.059943	-0.470172	-0.829192
C170	C	1.112001	-0.426230	-0.804285
H171	H	1.072700	-0.510653	-0.811117
H172	H	1.012172	-0.458963	-0.811538
H173	H	1.059664	-0.470708	-0.881814
H174	H	1.112277	-0.425691	-0.751663
H175	H	1.159785	-0.437443	-0.821936
