data_functionalizedCrystal
_audit_creation_method	'MofGen! by Chris Wilmer'
_symmetry_space_group_name_H-M	'P1'
_symmetry_Int_Tables_number	1
_symmetry_cell_setting	triclinic
loop_
_symmetry_equiv_pos_as_xyz
  x,y,z
_cell_length_a	16.625547
_cell_length_b	18.215405
_cell_length_c	18.215399
_cell_angle_alpha	90.030551
_cell_angle_beta	90.023923
_cell_angle_gamma	90.024822
loop_
_atom_site_label
_atom_site_type_symbol
_atom_site_fract_x
_atom_site_fract_y
_atom_site_fract_z
Zn1	Zn	1.232660	-0.292993	0.416183
Zn2	Zn	1.482660	-0.042993	0.666183
Zn3	Zn	1.732660	0.207007	0.916183
Zn4	Zn	1.982660	0.457007	1.166183
Zn5	Zn	1.232559	-0.416064	0.293111
Zn6	Zn	1.482559	-0.166064	0.543111
Zn7	Zn	1.732559	0.083936	0.793111
Zn8	Zn	1.982559	0.333936	1.043111
Zn9	Zn	1.097824	-0.293016	0.293121
Zn10	Zn	1.347824	-0.043016	0.543121
Zn11	Zn	1.597824	0.206984	0.793121
Zn12	Zn	1.847824	0.456984	1.043121
Zn13	Zn	1.097786	-0.416022	0.416127
Zn14	Zn	1.347786	-0.166022	0.666127
Zn15	Zn	1.597786	0.083978	0.916127
Zn16	Zn	1.847786	0.333978	1.166127
O17	O	1.165207	-0.354524	0.354636
O18	O	1.415207	-0.104524	0.604636
O19	O	1.665207	0.145476	0.854636
O20	O	1.915207	0.395476	1.104636
O21	O	1.345479	-0.309327	0.399876
O22	O	1.595479	-0.059327	0.649876
O23	O	1.845479	0.190673	0.899876
O24	O	2.095479	0.440673	1.149876
O25	O	1.214660	-0.399769	0.190128
O26	O	1.464660	-0.149769	0.440128
O27	O	1.714660	0.100231	0.690128
O28	O	1.964660	0.350231	0.940128
O29	O	1.115768	-0.190029	0.309474
O30	O	1.365768	0.059971	0.559474
O31	O	1.615768	0.309971	0.809474
O32	O	1.865768	0.559971	1.059474
O33	O	1.345405	-0.399747	0.309456
O34	O	1.595405	-0.149747	0.559456
O35	O	1.845405	0.100253	0.809456
O36	O	2.095405	0.350253	1.059456
O37	O	1.214831	-0.190012	0.399886
O38	O	1.464831	0.059988	0.649886
O39	O	1.714831	0.309988	0.899886
O40	O	1.964831	0.559988	1.149886
O41	O	1.115670	-0.309366	0.190136
O42	O	1.365670	-0.059366	0.440136
O43	O	1.615670	0.190634	0.690136
O44	O	1.865670	0.440634	0.940136
O45	O	0.984986	-0.309325	0.309419
O46	O	1.234986	-0.059325	0.559419
O47	O	1.484986	0.190675	0.809419
O48	O	1.734986	0.440675	1.059419
O49	O	1.115704	-0.399675	0.519119
O50	O	1.365704	-0.149675	0.769119
O51	O	1.615704	0.100325	1.019119
O52	O	1.865704	0.350325	1.269119
O53	O	0.984959	-0.399697	0.399791
O54	O	1.234959	-0.149697	0.649791
O55	O	1.484959	0.100303	0.899791
O56	O	1.734959	0.350303	1.149791
O57	O	1.214795	-0.309286	0.519160
O58	O	1.464795	-0.059286	0.769160
O59	O	1.714795	0.190714	1.019160
O60	O	1.964795	0.440714	1.269160
O61	O	1.214624	-0.519043	0.309402
O62	O	1.464624	-0.269043	0.559402
O63	O	1.714624	-0.019043	0.809402
O64	O	1.964624	0.230957	1.059402
O65	O	1.115607	-0.519012	0.399781
O66	O	1.365607	-0.269012	0.649781
O67	O	1.615607	-0.019012	0.899781
O68	O	1.865607	0.230988	1.149781
C69	C	0.955716	-0.354510	0.354601
C70	C	1.205716	-0.104510	0.604601
C71	C	1.455716	0.145490	0.854601
C72	C	1.705716	0.395490	1.104601
C73	C	0.866095	-0.354521	0.354603
C74	C	1.116095	-0.104521	0.604603
C75	C	1.366095	0.145479	0.854603
C76	C	1.616095	0.395479	1.104603
C77	C	1.165122	-0.545730	0.354600
C78	C	1.415122	-0.295730	0.604600
C79	C	1.665122	-0.045730	0.854600
C80	C	1.915122	0.204270	1.104600
C81	C	1.165160	-0.627529	0.354610
C82	C	1.415160	-0.377529	0.604610
C83	C	1.665160	-0.127529	0.854610
C84	C	1.915160	0.122471	1.104610
C85	C	1.216839	-0.815715	0.307636
C86	C	1.466839	-0.565715	0.557636
C87	C	1.716839	-0.315715	0.807636
C88	C	1.966839	-0.065715	1.057636
C89	C	1.216875	-0.892573	0.307654
C90	C	1.466875	-0.642573	0.557654
C91	C	1.716875	-0.392573	0.807654
C92	C	1.966875	-0.142573	1.057654
C93	C	1.113679	-0.892581	0.401688
C94	C	1.363679	-0.642581	0.651688
C95	C	1.613679	-0.392581	0.901688
C96	C	1.863679	-0.142581	1.151688
C97	C	1.113648	-0.815724	0.401674
C98	C	1.363648	-0.565724	0.651674
C99	C	1.613648	-0.315724	0.901674
C100	C	1.863648	-0.065724	1.151674
C101	C	1.165226	-0.777293	0.354643
C102	C	1.415226	-0.527293	0.604643
C103	C	1.665226	-0.277293	0.854643
C104	C	1.915226	-0.027293	1.104643
C105	C	1.165294	-0.931009	0.354676
C106	C	1.415294	-0.681009	0.604676
C107	C	1.665294	-0.431009	0.854676
C108	C	1.915294	-0.181009	1.104676
C109	C	1.165332	-1.014342	0.354695
C110	C	1.415332	-0.764342	0.604695
C111	C	1.665332	-0.514342	0.854695
C112	C	1.915332	-0.264342	1.104695
C113	C	1.165189	-0.693954	0.354624
C114	C	1.415189	-0.443954	0.604624
C115	C	1.665189	-0.193954	0.854624
C116	C	1.915189	0.056046	1.104624
C117	C	0.793313	-0.354523	0.354613
C118	C	1.043313	-0.104523	0.604613
C119	C	1.293313	0.145477	0.854613
C120	C	1.543313	0.395477	1.104613
C121	C	0.702004	-0.354527	0.354631
C122	C	0.952004	-0.104527	0.604631
C123	C	1.202004	0.145473	0.854631
C124	C	1.452004	0.395473	1.104631
C125	C	0.629228	-0.354533	0.354650
C126	C	0.879228	-0.104533	0.604650
C127	C	1.129228	0.145467	0.854650
C128	C	1.379228	0.395467	1.104650
C129	C	0.537914	-0.354538	0.354667
C130	C	0.787914	-0.104538	0.604667
C131	C	1.037914	0.145462	0.854667
C132	C	1.287914	0.395462	1.104667
C133	C	1.375516	-0.354539	0.354671
C134	C	1.625516	-0.104539	0.604671
C135	C	1.875516	0.145461	0.854671
C136	C	2.125516	0.395461	1.104671
C137	C	1.465137	-0.354545	0.354686
C138	C	1.715137	-0.104545	0.604686
C139	C	1.965137	0.145455	0.854686
C140	C	2.215137	0.395455	1.104686
C141	C	1.165256	-0.354473	0.546589
C142	C	1.415256	-0.104473	0.796589
C143	C	1.665256	0.145527	1.046589
C144	C	1.915256	0.395527	1.296589
C145	C	1.165277	-0.354452	0.628388
C146	C	1.415277	-0.104452	0.878388
C147	C	1.665277	0.145548	1.128388
C148	C	1.915277	0.395548	1.378388
C149	C	1.165315	-0.162571	0.354687
C150	C	1.415315	0.087429	0.604687
C151	C	1.665315	0.337429	0.854687
C152	C	1.915315	0.587429	1.104687
C153	C	1.165361	-0.080772	0.354709
C154	C	1.415361	0.169228	0.604709
C155	C	1.665361	0.419228	0.854709
C156	C	1.915361	0.669228	1.104709
C157	C	1.165205	-0.354521	0.163429
C158	C	1.415205	-0.104521	0.413429
C159	C	1.665205	0.145479	0.663429
C160	C	1.915205	0.395479	0.913429
C161	C	1.165340	-0.354336	0.081631
C162	C	1.415340	-0.104336	0.331631
C163	C	1.665340	0.145664	0.581631
C164	C	1.915340	0.395664	0.831631
C165	C	1.216893	-0.307342	0.816604
C166	C	1.466893	-0.057342	1.066604
C167	C	1.716893	0.192658	1.316604
C168	C	1.966893	0.442658	1.566604
C169	C	1.216902	-0.307320	0.893463
C170	C	1.466902	-0.057320	1.143463
C171	C	1.716902	0.192680	1.393463
C172	C	1.966902	0.442680	1.643463
C173	C	1.113719	-0.401447	0.893409
C174	C	1.363719	-0.151447	1.143409
C175	C	1.613719	0.098553	1.393409
C176	C	1.863719	0.348553	1.643409
C177	C	1.113706	-0.401464	0.816552
C178	C	1.363706	-0.151464	1.066552
C179	C	1.613706	0.098536	1.316552
C180	C	1.863706	0.348536	1.566552
C181	C	1.165297	-0.354413	0.778151
C182	C	1.415297	-0.104413	1.028151
C183	C	1.665297	0.145587	1.278151
C184	C	1.915297	0.395587	1.528151
C185	C	1.165320	-0.354374	0.931867
C186	C	1.415320	-0.104374	1.181867
C187	C	1.665320	0.145626	1.431867
C188	C	1.915320	0.395626	1.681867
C189	C	1.165330	-0.354351	1.015201
C190	C	1.415330	-0.104351	1.265201
C191	C	1.665330	0.145649	1.515201
C192	C	1.915330	0.395649	1.765201
C193	C	1.165286	-0.354435	0.694812
C194	C	1.415286	-0.104435	0.944812
C195	C	1.665286	0.145565	1.194812
C196	C	1.915286	0.395565	1.444812
H197	H	1.258839	-0.784426	0.269342
H198	H	1.508839	-0.534426	0.519342
H199	H	1.758839	-0.284426	0.769342
H200	H	2.008839	-0.034426	1.019342
O201	O	1.267083	-0.261737	0.779267
O202	O	1.517083	-0.011737	1.029267
O203	O	1.767083	0.238263	1.279267
O204	O	2.017083	0.488263	1.529267
C205	C	1.319122	-0.303641	0.734793
C206	C	1.569122	-0.053641	0.984793
C207	C	1.819122	0.196359	1.234793
C208	C	2.069122	0.446359	1.484793
H209	H	1.324084	-0.361598	0.757937
H210	H	1.574084	-0.111598	1.007937
H211	H	1.824084	0.138402	1.257937
H212	H	2.074084	0.388402	1.507937
H213	H	1.381184	-0.277020	0.733943
H214	H	1.631184	-0.027020	0.983943
H215	H	1.881184	0.222980	1.233943
H216	H	2.131184	0.472980	1.483943
H217	H	1.294179	-0.306189	0.676538
H218	H	1.544179	-0.056189	0.926538
H219	H	1.794179	0.193811	1.176538
H220	H	2.044179	0.443811	1.426538
O221	O	1.267100	-0.261574	0.930702
O222	O	1.517100	-0.011574	1.180702
O223	O	1.767100	0.238426	1.430702
O224	O	2.017100	0.488426	1.680702
C225	C	1.312614	-0.220038	0.880325
C226	C	1.562614	0.029962	1.130325
C227	C	1.812614	0.279962	1.380325
C228	C	2.062614	0.529962	1.630325
H229	H	1.315380	-0.250197	0.825531
H230	H	1.565380	-0.000197	1.075531
H231	H	1.815380	0.249803	1.325531
H232	H	2.065380	0.499803	1.575531
H233	H	1.376150	-0.212186	0.902549
H234	H	1.626150	0.037814	1.152549
H235	H	1.876150	0.287814	1.402549
H236	H	2.126150	0.537814	1.652549
H237	H	1.283117	-0.164145	0.872158
H238	H	1.533117	0.085855	1.122158
H239	H	1.783117	0.335855	1.372158
H240	H	2.033117	0.585855	1.622158
H241	H	1.071717	-0.439757	0.924684
H242	H	1.321717	-0.189757	1.174684
H243	H	1.571717	0.060243	1.424684
H244	H	1.821717	0.310243	1.674684
H245	H	1.071618	-0.784438	0.439956
H246	H	1.321618	-0.534438	0.689956
H247	H	1.571618	-0.284438	0.939956
H248	H	1.821618	-0.034438	1.189956
O249	O	1.063559	-0.447263	0.779307
O250	O	1.313559	-0.197263	1.029307
O251	O	1.563559	0.052737	1.279307
O252	O	1.813559	0.302737	1.529307
C253	C	1.018017	-0.488780	0.829679
C254	C	1.268017	-0.238780	1.079679
C255	C	1.518017	0.011220	1.329679
C256	C	1.768017	0.261220	1.579679
H257	H	1.051049	-0.491320	0.884474
H258	H	1.301049	-0.241320	1.134474
H259	H	1.551049	0.008680	1.384474
H260	H	1.801049	0.258680	1.634474
H261	H	1.009383	-0.546767	0.807449
H262	H	1.259383	-0.296767	1.057449
H263	H	1.509383	-0.046767	1.307449
H264	H	1.759383	0.203233	1.557449
H265	H	0.956795	-0.461827	0.837846
H266	H	1.206795	-0.211827	1.087846
H267	H	1.456795	0.038173	1.337846
H268	H	1.706795	0.288173	1.587846
H269	H	1.258904	-0.923853	0.269376
H270	H	1.508904	-0.673853	0.519376
H271	H	1.758904	-0.423853	0.769376
H272	H	2.008904	-0.173853	1.019376
H273	H	1.071684	-0.923881	0.439978
H274	H	1.321684	-0.673881	0.689978
H275	H	1.571684	-0.423881	0.939978
H276	H	1.821684	-0.173881	1.189978
