data_functionalizedCrystal
_audit_creation_method	'MofGen! by Chris Wilmer'
_symmetry_space_group_name_H-M	'P1'
_symmetry_Int_Tables_number	1
_symmetry_cell_setting	triclinic
loop_
_symmetry_equiv_pos_as_xyz
  x,y,z
_cell_length_a	14.560438
_cell_length_b	14.560438
_cell_length_c	14.560438
_cell_angle_alpha	90.001334
_cell_angle_beta	60.000905
_cell_angle_gamma	59.999682
loop_
_atom_site_label
_atom_site_type_symbol
_atom_site_fract_x
_atom_site_fract_y
_atom_site_fract_z
Zr1	Zr	1.005268	0.884763	-0.120497
O2	O	1.196873	0.738112	-0.267144
O3	O	0.813667	0.929719	-0.075545
O4	O	1.005271	0.929715	-0.267146
O5	O	1.005267	0.738120	0.075597
O6	O	1.005269	1.080855	-0.267144
O7	O	1.005269	0.738116	-0.075543
O8	O	0.662525	1.080863	0.075595
O9	O	1.348011	0.738112	-0.267141
O10	O	0.892473	1.061687	-0.056369
O11	O	0.892472	0.948896	0.056425
O12	O	1.118061	0.948891	-0.169161
O13	O	1.118060	0.836099	-0.056367
Zr14	Zr	1.005262	1.125821	0.120557
Zr15	Zr	1.005266	1.125814	-0.120495
Zr16	Zr	1.005264	0.884769	0.120555
Zr17	Zr	1.246316	0.884764	-0.120493
Zr18	Zr	0.764215	1.125820	0.120553
O19	O	1.196864	1.080864	0.075605
O20	O	1.196870	1.080856	-0.267140
O21	O	1.196867	0.738120	0.075601
O22	O	0.813658	1.272472	0.267204
O23	O	0.813663	1.272463	-0.075541
O24	O	0.813661	0.929728	0.267200
O25	O	1.005264	1.272464	-0.075538
O26	O	1.005260	1.080869	0.267205
O27	O	1.005262	0.929729	0.267204
O28	O	1.005262	1.272468	0.075603
O29	O	1.348009	0.929716	-0.267139
O30	O	0.662521	1.080868	0.267199
O31	O	0.662520	1.272472	0.267201
O32	O	0.662523	1.272467	0.075597
O33	O	1.348008	0.738117	-0.075537
O34	O	1.348006	0.929721	-0.075535
O35	O	0.892469	1.061693	0.169220
O36	O	0.892470	1.174485	0.056427
O37	O	1.118058	1.061688	-0.056365
O38	O	1.118057	0.948896	0.056429
C39	C	0.703751	1.005291	0.000024
C40	C	0.601420	1.005291	0.000022
C41	C	1.005268	0.703774	0.000027
C42	C	1.005269	0.601441	0.000025
C43	C	0.553345	1.064165	-0.058855
C44	C	0.457185	1.064169	-0.058844
C45	C	0.457190	0.946417	0.058922
C46	C	0.553341	0.946420	0.058917
C47	C	1.005273	0.553363	-0.083241
C48	C	1.005265	0.457215	-0.083235
C49	C	1.005253	0.457230	0.083309
C50	C	1.005253	0.553380	0.083307
C51	C	1.306779	1.005292	0.000036
C52	C	1.409110	1.005293	0.000038
C53	C	1.005270	1.005284	-0.301490
C54	C	1.005272	1.005282	-0.403822
C55	C	1.005262	1.306810	0.000033
C56	C	1.005261	1.409143	0.000034
C57	C	1.123025	0.946404	-0.510775
C58	C	1.123018	0.946417	-0.606924
C59	C	0.887497	1.064187	-0.489154
C60	C	0.887504	1.064180	-0.393008
C61	C	1.005260	1.005300	0.301549
C62	C	1.005259	1.005302	0.403882
C63	C	0.703749	1.306810	0.000028
C64	C	0.601417	1.409142	0.000027
C65	C	0.703746	1.005299	0.301544
C66	C	0.601414	1.005301	0.403875
C67	C	0.703744	1.306817	0.301547
C68	C	0.601410	1.409152	0.403879
C69	C	1.306787	0.703766	-0.301487
C70	C	1.409121	0.601432	-0.403819
C71	C	1.306782	0.703774	0.000032
C72	C	1.409114	0.601442	0.000033
C73	C	1.306784	1.005285	-0.301484
C74	C	1.409117	1.005282	-0.403815
C75	C	0.553340	1.398342	-0.058849
C76	C	0.457196	1.494498	-0.058854
C77	C	0.457210	1.612251	0.058903
C78	C	0.553359	1.516096	0.058900
C79	C	0.553334	1.064180	0.510828
C80	C	0.457191	1.064170	0.606975
C81	C	0.457211	0.946400	0.489201
C82	C	0.553359	0.946404	0.393057
C83	C	0.553331	1.516105	0.393081
C84	C	0.457187	1.612256	0.489237
C85	C	0.457203	1.494487	0.606986
C86	C	0.553353	1.398339	0.510831
H87	H	0.592487	1.112103	-0.106809
H88	H	0.418058	1.485694	-0.106799
H89	H	1.005266	0.418073	-0.151037
F90	F	1.005240	0.604557	0.171939
H91	H	1.005243	0.418088	0.151114
H92	H	0.592459	1.524916	0.306000
H93	H	1.218919	0.898446	-0.519587
H94	H	0.592477	1.311259	-0.106799
H95	H	0.418045	1.699340	0.480437
F96	F	1.248347	0.883754	-0.720750
F97	F	1.005286	0.604511	-0.171874
F98	F	0.762167	1.126860	-0.477656
H99	H	0.592502	1.311246	0.519632
F100	F	0.604538	0.883728	0.279219
F101	F	0.762169	1.126847	-0.279171
H102	H	0.592462	1.112134	0.519643
H103	H	0.418068	1.699342	0.106837
H104	H	0.592507	1.524898	0.106844
F105	F	0.604502	0.883762	0.121593
H106	H	0.418050	1.112113	0.694059
F107	F	0.406047	1.482990	0.720816
F108	F	0.406027	1.126828	-0.121512
F109	F	0.406006	0.883772	0.121604
H110	H	0.418072	0.898450	0.480407
