data_functionalizedCrystal
_audit_creation_method	'MofGen! by Chris Wilmer'
_symmetry_space_group_name_H-M	'P1'
_symmetry_Int_Tables_number	1
_symmetry_cell_setting	triclinic
loop_
_symmetry_equiv_pos_as_xyz
  x,y,z
_cell_length_a	18.215405
_cell_length_b	18.215407
_cell_length_c	12.827885
_cell_angle_alpha	89.978600
_cell_angle_beta	89.966321
_cell_angle_gamma	90.023180
loop_
_atom_site_label
_atom_site_type_symbol
_atom_site_fract_x
_atom_site_fract_y
_atom_site_fract_z
Zn1	Zn	-0.292938	1.125094	-0.590881
Zn2	Zn	0.207062	1.625094	-0.090881
Zn3	Zn	-0.416023	1.125004	-0.416130
Zn4	Zn	0.083977	1.625004	0.083870
Zn5	Zn	-0.292976	1.002024	-0.416148
Zn6	Zn	0.207024	1.502024	0.083852
Zn7	Zn	-0.415969	1.001997	-0.590824
Zn8	Zn	0.084031	1.501997	-0.090824
O9	O	-0.354476	1.063530	-0.503496
O10	O	0.145524	1.563530	-0.003496
O11	O	-0.309273	1.228067	-0.567716
O12	O	0.190727	1.728067	-0.067716
O13	O	-0.399739	1.108664	-0.269896
O14	O	0.100261	1.608664	0.230104
O15	O	-0.189986	1.018398	-0.439359
O16	O	0.310014	1.518398	0.060641
O17	O	-0.399703	1.228000	-0.439328
O18	O	0.100297	1.728000	0.060672
O19	O	-0.189959	1.108818	-0.567734
O20	O	0.310041	1.608818	-0.067734
O21	O	-0.309336	1.018310	-0.269910
O22	O	0.190664	1.518310	0.230090
O23	O	-0.309284	0.899036	-0.439303
O24	O	0.190716	1.399036	0.060697
O25	O	-0.399610	1.018353	-0.737067
O26	O	0.100390	1.518353	-0.237067
O27	O	-0.399646	0.899017	-0.567636
O28	O	0.100354	1.399017	-0.067636
O29	O	-0.309220	1.108792	-0.737110
O30	O	0.190780	1.608792	-0.237110
O31	O	-0.519000	1.108638	-0.439272
O32	O	-0.019000	1.608638	0.060728
O33	O	-0.518960	1.018266	-0.567618
O34	O	-0.018960	1.518266	-0.067618
C35	C	-0.354464	0.872324	-0.503466
C36	C	0.145536	1.372324	-0.003466
C37	C	-0.354476	0.790525	-0.503478
C38	C	0.145524	1.290525	-0.003478
C39	C	-0.545683	1.063459	-0.503460
C40	C	-0.045683	1.563459	-0.003460
C41	C	-0.627482	1.063496	-0.503479
C42	C	-0.127482	1.563496	-0.003479
C43	C	-0.401602	0.602340	-0.570217
C44	C	0.098398	1.102340	-0.070217
C45	C	-0.401604	0.525481	-0.570230
C46	C	0.098396	1.025481	-0.070230
C47	C	-0.307364	0.525472	-0.436797
C48	C	0.192636	1.025472	0.063203
C49	C	-0.307359	0.602329	-0.436790
C50	C	0.192641	1.102329	0.063210
C51	C	-0.354482	0.640761	-0.503499
C52	C	0.145518	1.140761	-0.003499
C53	C	-0.354490	0.487045	-0.503519
C54	C	0.145510	0.987045	-0.003519
C55	C	-0.354492	0.403711	-0.503532
C56	C	0.145508	0.903711	-0.003532
C57	C	-0.354479	0.724100	-0.503487
C58	C	0.145521	1.224100	-0.003487
C59	C	-0.815600	1.110600	-0.570415
C60	C	-0.315600	1.610600	-0.070415
C61	C	-0.892459	1.110627	-0.570434
C62	C	-0.392459	1.610627	-0.070434
C63	C	-0.892601	1.016550	-0.436641
C64	C	-0.392601	1.516550	0.063359
C65	C	-0.815743	1.016520	-0.436628
C66	C	-0.315743	1.516520	0.063372
C67	C	-0.777245	1.063550	-0.503513
C68	C	-0.277245	1.563550	-0.003513
C69	C	-0.930961	1.063606	-0.503546
C70	C	-0.430961	1.563606	-0.003546
C71	C	-1.014295	1.063635	-0.503567
C72	C	-0.514295	1.563635	-0.003567
C73	C	-0.693906	1.063520	-0.503494
C74	C	-0.193906	1.563520	-0.003494
C75	C	-0.162523	1.063621	-0.503555
C76	C	0.337477	1.563621	-0.003555
C77	C	-0.080725	1.063659	-0.503580
C78	C	0.419275	1.563659	-0.003580
C79	C	-0.354405	1.063580	-0.776066
C80	C	0.145595	1.563580	-0.276066
C81	C	-0.354375	1.063601	-0.892219
C82	C	0.145625	1.563601	-0.392219
C83	C	-0.354490	1.255483	-0.503526
C84	C	0.145510	1.755483	-0.003526
C85	C	-0.354495	1.337282	-0.503540
C86	C	0.145505	1.837282	-0.003540
C87	C	-0.399090	1.108316	-0.943997
C88	C	0.100910	1.608316	-0.443997
C89	C	-0.399060	1.108339	-1.064048
C90	C	0.100940	1.608339	-0.564048
C91	C	-0.354494	1.063522	-0.231986
C92	C	0.145506	1.563522	0.268014
C93	C	-0.354317	1.063644	-0.115833
C94	C	0.145683	1.563644	0.384167
H95	H	-0.439971	0.633629	-0.624538
H96	H	0.060029	1.133629	-0.124538
Cl97	Cl	-0.941003	0.957431	-0.352563
Cl98	Cl	-0.441003	1.457431	0.147437
Cl99	Cl	-0.767522	0.957360	-0.352524
Cl100	Cl	-0.267522	1.457360	0.147476
Cl101	Cl	-0.458227	1.167403	-0.875228
Cl102	Cl	0.041773	1.667403	-0.375228
H103	H	-0.437344	1.146620	-1.108576
H104	H	0.062656	1.646620	-0.608576
Cl105	Cl	-0.295211	1.004530	-1.047098
Cl106	Cl	0.204789	1.504530	-0.547098
H107	H	-0.316066	1.025340	-0.936767
H108	H	0.183934	1.525340	-0.436767
H109	H	-0.269000	0.494171	-0.382484
H110	H	0.231000	0.994171	0.117516
Cl111	Cl	-0.248112	0.650634	-0.352916
Cl112	Cl	0.251888	1.150634	0.147084
Cl113	Cl	-0.460842	0.477184	-0.654111
Cl114	Cl	0.039158	0.977184	-0.154111
Cl115	Cl	-0.767205	1.169720	-0.654503
Cl116	Cl	-0.267205	1.669720	-0.154503
H117	H	-0.923684	1.148939	-0.624915
H118	H	-0.423684	1.648939	-0.124915
