data_functionalizedCrystal
_audit_creation_method	'MofGen! by Chris Wilmer'
_symmetry_space_group_name_H-M	'P1'
_symmetry_Int_Tables_number	1
_symmetry_cell_setting	triclinic
loop_
_symmetry_equiv_pos_as_xyz
  x,y,z
_cell_length_a	29.839134
_cell_length_b	29.839131
_cell_length_c	29.839125
_cell_angle_alpha	89.982291
_cell_angle_beta	90.024313
_cell_angle_gamma	89.965835
loop_
_atom_site_label
_atom_site_type_symbol
_atom_site_fract_x
_atom_site_fract_y
_atom_site_fract_z
Zn1	Zn	0.686720	0.179003	0.254153
Zn2	Zn	1.020053	0.512337	0.587486
Zn3	Zn	1.353386	0.845670	0.920820
Zn4	Zn	0.686652	0.254115	0.179023
Zn5	Zn	1.019985	0.587449	0.512356
Zn6	Zn	1.353318	0.920782	0.845690
Zn7	Zn	0.611602	0.178991	0.179019
Zn8	Zn	0.944936	0.512324	0.512353
Zn9	Zn	1.278269	0.845657	0.845686
Zn10	Zn	0.611550	0.254097	0.254108
Zn11	Zn	0.944883	0.587431	0.587442
Zn12	Zn	1.278217	0.920764	0.920775
O13	O	0.649131	0.216552	0.216576
O14	O	0.982464	0.549885	0.549909
O15	O	1.315798	0.883218	0.883243
O16	O	0.749578	0.188980	0.244207
O17	O	1.082911	0.522313	0.577540
O18	O	1.416244	0.855646	0.910874
O19	O	0.676690	0.244152	0.116155
O20	O	1.010023	0.577485	0.449489
O21	O	1.343356	0.910819	0.782822
O22	O	0.621617	0.116125	0.189003
O23	O	0.954950	0.449458	0.522337
O24	O	1.288284	0.782792	0.855670
O25	O	0.749528	0.244164	0.189009
O26	O	1.082861	0.577498	0.522343
O27	O	1.416195	0.910831	0.855676
O28	O	0.676805	0.116134	0.244204
O29	O	1.010139	0.449468	0.577537
O30	O	1.343472	0.782801	0.910870
O31	O	0.621551	0.188958	0.116153
O32	O	0.954885	0.522292	0.449486
O33	O	1.288218	0.855625	0.782819
O34	O	0.548728	0.188941	0.188960
O35	O	0.882062	0.522274	0.522293
O36	O	1.215395	0.855608	0.855627
O37	O	0.621528	0.244134	0.316981
O38	O	0.954861	0.577467	0.650315
O39	O	1.288195	0.910801	0.983648
O40	O	0.548690	0.244122	0.244127
O41	O	0.882023	0.577455	0.577461
O42	O	1.215357	0.910788	0.910794
O43	O	0.676755	0.188962	0.317014
O44	O	1.010088	0.522296	0.650348
O45	O	1.343421	0.855629	0.983681
O46	O	0.676639	0.316980	0.188966
O47	O	1.009972	0.650313	0.522299
O48	O	1.343306	0.983647	0.855633
O49	O	0.621462	0.316967	0.244131
O50	O	0.954796	0.650300	0.577464
O51	O	1.288129	0.983634	0.910797
C52	C	0.532408	0.216528	0.216539
C53	C	0.865742	0.549862	0.549872
C54	C	1.199075	0.883195	0.883205
C55	C	0.482474	0.216529	0.216534
C56	C	0.815807	0.549862	0.549867
C57	C	1.149141	0.883196	0.883200
C58	C	0.125894	0.187777	0.187909
C59	C	0.459228	0.521110	0.521242
C60	C	0.792561	0.854443	0.854576
C61	C	0.313567	0.187764	0.187882
C62	C	0.646901	0.521097	0.521215
C63	C	0.980234	0.854431	0.854548
O64	O	0.337838	0.163279	0.163502
O65	O	0.671172	0.496613	0.496835
O66	O	1.004505	0.829946	0.830169
N67	N	0.337029	0.216536	0.216556
N68	N	0.670362	0.549870	0.549889
N69	N	1.003695	0.883203	0.883223
C70	C	0.313569	0.245312	0.245242
C71	C	0.646902	0.578645	0.578575
C72	C	0.980236	0.911979	0.911908
O73	O	0.337831	0.269781	0.269634
O74	O	0.671164	0.603115	0.602967
O75	O	1.004498	0.936448	0.936300
C76	C	0.125897	0.245322	0.245271
C77	C	0.459230	0.578655	0.578604
C78	C	0.792564	0.911989	0.911937
C79	C	0.102438	0.216551	0.216591
C80	C	0.435771	0.549884	0.549924
C81	C	0.769105	0.883218	0.883258
C82	C	0.102435	0.159007	0.159232
C83	C	0.435769	0.492341	0.492565
C84	C	0.769102	0.825674	0.825899
C85	C	0.055520	0.159013	0.159237
C86	C	0.388853	0.492346	0.492571
C87	C	0.722186	0.825679	0.825904
C88	C	0.032063	0.187787	0.187920
C89	C	0.365397	0.521120	0.521253
C90	C	0.698730	0.854454	0.854586
C91	C	0.055522	0.216556	0.216597
C92	C	0.388856	0.549889	0.549930
C93	C	0.722189	0.883223	0.883263
C94	C	0.102438	0.274095	0.273958
C95	C	0.435771	0.607428	0.607291
C96	C	0.769105	0.940762	0.940625
C97	C	0.055517	0.274094	0.273964
C98	C	0.388850	0.607428	0.607297
C99	C	0.722184	0.940761	0.940630
C100	C	0.032058	0.245323	0.245284
C101	C	0.365391	0.578656	0.578617
C102	C	0.698725	0.911990	0.911951
C103	C	-0.014849	0.245336	0.245284
C104	C	0.318484	0.578669	0.578618
C105	C	0.651817	0.912002	0.911951
N106	N	-0.038311	0.216563	0.216610
N107	N	0.295022	0.549897	0.549943
N108	N	0.628356	0.883230	0.883276
C109	C	-0.014854	0.187789	0.187927
C110	C	0.318479	0.521122	0.521261
C111	C	0.651812	0.854456	0.854594
C112	C	0.412100	0.245305	0.245224
C113	C	0.745433	0.578639	0.578557
C114	C	1.078766	0.911972	0.911890
C115	C	0.459018	0.245303	0.245216
C116	C	0.792351	0.578637	0.578549
C117	C	1.125684	0.911970	0.911882
C118	C	0.459013	0.187755	0.187856
C119	C	0.792346	0.521088	0.521190
C120	C	1.125679	0.854421	0.854523
C121	C	0.412094	0.187759	0.187862
C122	C	0.745427	0.521092	0.521196
C123	C	1.078761	0.854426	0.854529
C124	C	0.388638	0.216533	0.216549
C125	C	0.721972	0.549866	0.549882
C126	C	1.055305	0.883199	0.883216
C127	C	-0.113380	0.187802	0.187941
C128	C	0.219953	0.521136	0.521274
C129	C	0.553286	0.854469	0.854607
C130	C	-0.160300	0.187811	0.187947
C131	C	0.173033	0.521145	0.521281
C132	C	0.506367	0.854478	0.854614
C133	C	-0.160291	0.245358	0.245308
C134	C	0.173043	0.578691	0.578641
C135	C	0.506376	0.912025	0.911975
C136	C	-0.113375	0.245351	0.245300
C137	C	0.219958	0.578684	0.578633
C138	C	0.553291	0.912018	0.911967
C139	C	-0.089921	0.216569	0.216615
C140	C	0.243412	0.549903	0.549948
C141	C	0.576745	0.883236	0.883281
O142	O	-0.039149	0.269804	0.269654
O143	O	0.294184	0.603137	0.602988
O144	O	0.627517	0.936470	0.936321
O145	O	-0.039124	0.163316	0.163546
O146	O	0.294209	0.496650	0.496879
O147	O	0.627542	0.829983	0.830213
C148	C	0.172810	0.187771	0.187904
C149	C	0.506143	0.521105	0.521237
C150	C	0.839476	0.854438	0.854570
C151	C	0.196269	0.216541	0.216580
C152	C	0.529602	0.549874	0.549914
C153	C	0.862936	0.883207	0.883247
C154	C	0.172812	0.245315	0.245263
C155	C	0.506146	0.578648	0.578596
C156	C	0.839479	0.911982	0.911929
C157	C	0.243187	0.216539	0.216573
C158	C	0.576520	0.549872	0.549906
C159	C	0.909853	0.883205	0.883239
C160	C	0.266643	0.187764	0.187890
C161	C	0.599976	0.521098	0.521224
C162	C	0.933310	0.854431	0.854557
C163	C	0.243182	0.158992	0.159216
C164	C	0.576515	0.492325	0.492549
C165	C	0.909848	0.825659	0.825883
C166	C	0.196266	0.158997	0.159221
C167	C	0.529599	0.492330	0.492555
C168	C	0.862933	0.825664	0.825888
C169	C	0.196274	0.274087	0.273937
C170	C	0.529607	0.607421	0.607270
C171	C	0.862941	0.940754	0.940604
C172	C	0.243189	0.274080	0.273929
C173	C	0.576523	0.607414	0.607262
C174	C	0.909856	0.940747	0.940596
C175	C	0.266646	0.245306	0.245247
C176	C	0.599979	0.578639	0.578580
C177	C	0.933312	0.911973	0.911913
C178	C	0.649050	0.333274	0.216554
C179	C	0.982383	0.666608	0.549887
C180	C	1.315717	0.999941	0.883220
C181	C	0.649056	0.383209	0.216559
C182	C	0.982390	0.716542	0.549892
C183	C	1.315723	1.049875	0.883226
C184	C	0.649143	0.216548	0.333754
C185	C	0.982476	0.549881	0.667088
C186	C	1.315810	0.883214	1.000421
C187	C	0.649148	0.216546	0.383689
C188	C	0.982482	0.549879	0.717022
C189	C	1.315815	0.883213	1.050355
C190	C	0.766309	0.216575	0.216613
C191	C	1.099643	0.549909	0.549947
C192	C	1.432976	0.883242	0.883280
C193	C	0.816244	0.216586	0.216629
C194	C	1.149577	0.549919	0.549963
C195	C	1.482910	0.883252	0.883296
C196	C	0.649225	0.099373	0.216608
C197	C	0.982558	0.432707	0.549941
C198	C	1.315891	0.766040	0.883275
C199	C	0.649265	0.049439	0.216622
C200	C	0.982598	0.382772	0.549955
C201	C	1.315931	0.716105	0.883289
C202	C	0.677914	0.692846	0.187894
C203	C	1.011247	1.026180	0.521227
C204	C	1.344580	1.359513	0.854560
C205	C	0.677969	0.880519	0.187911
C206	C	1.011303	1.213853	0.521244
C207	C	1.344636	1.547186	0.854578
O208	O	0.702441	0.904779	0.163521
O209	O	1.035774	1.238112	0.496855
O210	O	1.369107	1.571446	0.830188
N211	N	0.649224	0.903994	0.216610
N212	N	0.982557	1.237327	0.549943
N213	N	1.315891	1.570660	0.883276
C214	C	0.620465	0.880547	0.245308
C215	C	0.953799	1.213880	0.578642
C216	C	1.287132	1.547214	0.911975
O217	O	0.596020	0.904820	0.269722
O218	O	0.929354	1.238153	0.603055
O219	O	1.262687	1.571486	0.936389
C220	C	0.620412	0.692875	0.245293
C221	C	0.953746	1.026208	0.578626
C222	C	1.287079	1.359541	0.911960
C223	C	0.649156	0.669403	0.216589
C224	C	0.982489	1.002736	0.549922
C225	C	1.315823	1.336069	0.883256
C226	C	0.706656	0.669374	0.159192
C227	C	1.039989	1.002707	0.492526
C228	C	1.373322	1.336041	0.825859
C229	C	0.706640	0.622459	0.159187
C230	C	1.039973	0.955792	0.492520
C231	C	1.373306	1.289125	0.825853
C232	C	0.677882	0.599015	0.187882
C233	C	1.011215	0.932349	0.521215
C234	C	1.344549	1.265682	0.854549
C235	C	0.649140	0.622487	0.216583
C236	C	0.982474	0.955821	0.549916
C237	C	1.315807	1.289154	0.883250
C238	C	0.591656	0.669429	0.273993
C239	C	0.924989	1.002762	0.607327
C240	C	1.258323	1.336096	0.940660
C241	C	0.591646	0.622508	0.273988
C242	C	0.924979	0.955841	0.607321
C243	C	1.258313	1.289175	0.940654
C244	C	0.620390	0.599036	0.245284
C245	C	0.953723	0.932369	0.578617
C246	C	1.287057	1.265703	0.911951
C247	C	0.620367	0.552128	0.245273
C248	C	0.953700	0.885462	0.578606
C249	C	1.287033	1.218795	0.911939
N250	N	0.649112	0.528654	0.216574
N251	N	0.982445	0.861987	0.549907
N252	N	1.315778	1.195321	0.883241
C253	C	0.677869	0.552097	0.187879
C254	C	1.011203	0.885431	0.521212
C255	C	1.344536	1.218764	0.854545
C256	C	0.620494	0.979078	0.245314
C257	C	0.953828	1.312411	0.578647
C258	C	1.287161	1.645744	0.911981
C259	C	0.620507	1.025995	0.245317
C260	C	0.953840	1.359329	0.578651
C261	C	1.287174	1.692662	0.911984
C262	C	0.678012	1.025964	0.187920
C263	C	1.011345	1.359298	0.521254
C264	C	1.344678	1.692631	0.854587
C265	C	0.677996	0.979046	0.187915
C266	C	1.011330	1.312379	0.521248
C267	C	1.344663	1.645712	0.854582
C268	C	0.649239	0.955603	0.216615
C269	C	0.982573	1.288936	0.549948
C270	C	1.315906	1.622270	0.883282
C271	C	0.677834	0.453572	0.187868
C272	C	1.011167	0.786905	0.521202
C273	C	1.344500	1.120238	0.854535
C274	C	0.677814	0.406652	0.187864
C275	C	1.011147	0.739985	0.521197
C276	C	1.344481	1.073319	0.854530
C277	C	0.620311	0.406687	0.245262
C278	C	0.953644	0.740020	0.578595
C279	C	1.286978	1.073354	0.911929
C280	C	0.620329	0.453603	0.245265
C281	C	0.953662	0.786936	0.578599
C282	C	1.286996	1.120269	0.911932
C283	C	0.649094	0.477044	0.216567
C284	C	0.982427	0.810377	0.549900
C285	C	1.315761	1.143710	0.883233
O286	O	0.595912	0.527840	0.269653
O287	O	0.929245	0.861173	0.602987
O288	O	1.262578	1.194506	0.936320
O289	O	0.702318	0.527817	0.163475
O290	O	1.035651	0.861150	0.496809
O291	O	1.368984	1.194483	0.830142
C292	C	0.677930	0.739762	0.187899
C293	C	1.011263	1.073095	0.521233
C294	C	1.344596	1.406428	0.854566
C295	C	0.649188	0.763234	0.216601
C296	C	0.982521	1.096567	0.549934
C297	C	1.315855	1.429900	0.883267
C298	C	0.620430	0.739790	0.245296
C299	C	0.953764	1.073124	0.578629
C300	C	1.287097	1.406457	0.911963
C301	C	0.649200	0.810152	0.216604
C302	C	0.982534	1.143485	0.549937
C303	C	1.315867	1.476818	0.883271
C304	C	0.677958	0.833595	0.187909
C305	C	1.011291	1.166928	0.521242
C306	C	1.344625	1.500262	0.854575
C307	C	0.706703	0.810120	0.159210
C308	C	1.040037	1.143454	0.492543
C309	C	1.373370	1.476787	0.825876
C310	C	0.706687	0.763205	0.159204
C311	C	1.040021	1.096538	0.492537
C312	C	1.373354	1.429872	0.825871
C313	C	0.591685	0.763265	0.273995
C314	C	0.925018	1.096598	0.607328
C315	C	1.258352	1.429931	0.940661
C316	C	0.591703	0.810180	0.273998
C317	C	0.925036	1.143514	0.607331
C318	C	1.258370	1.476847	0.940665
C319	C	0.620461	0.833624	0.245302
C320	C	0.953794	1.166957	0.578636
C321	C	1.287127	1.500290	0.911969
C322	C	0.649145	0.216523	0.099853
C323	C	0.982478	0.549857	0.433187
C324	C	1.315811	0.883190	0.766520
C325	C	0.649227	0.216398	0.049919
C326	C	0.982560	0.549732	0.383253
C327	C	1.315893	0.883065	0.716586
C328	C	0.677935	0.187743	0.693352
C329	C	1.011268	0.521076	1.026686
C330	C	1.344602	0.854410	1.360019
C331	C	0.677957	0.187705	0.881026
C332	C	1.011291	0.521038	1.214359
C333	C	1.344624	0.854371	1.547692
O334	O	0.702399	0.163258	0.905307
O335	O	1.035733	0.496591	1.238641
O336	O	1.369066	0.829924	1.571974
N337	N	0.649208	0.216426	0.904474
N338	N	0.982541	0.549759	1.237807
N339	N	1.315875	0.883092	1.571141
C340	C	0.620449	0.245156	0.881001
C341	C	0.953782	0.578489	1.214335
C342	C	1.287115	0.911823	1.547668
O343	O	0.595993	0.269581	0.905252
O344	O	0.929326	0.602914	1.238585
O345	O	1.262659	0.936248	1.571919
C346	C	0.620424	0.245192	0.693329
C347	C	0.953758	0.578525	1.026662
C348	C	1.287091	0.911858	1.359996
C349	C	0.649179	0.216472	0.669883
C350	C	0.982512	0.549805	1.003216
C351	C	1.315846	0.883139	1.336550
C352	C	0.706687	0.159025	0.669906
C353	C	1.040020	0.492359	1.003240
C354	C	1.373354	0.825692	1.336573
C355	C	0.706683	0.159037	0.622991
C356	C	1.040016	0.492370	0.956324
C357	C	1.373349	0.825704	1.289657
C358	C	0.677927	0.187766	0.599521
C359	C	1.011260	0.521099	0.932855
C360	C	1.344593	0.854433	1.266188
C361	C	0.649175	0.216484	0.622968
C362	C	0.982508	0.549817	0.956301
C363	C	1.315842	0.883150	1.289634
C364	C	0.591663	0.273920	0.669857
C365	C	0.924997	0.607253	1.003191
C366	C	1.258330	0.940586	1.336524
C367	C	0.591659	0.273925	0.622936
C368	C	0.924992	0.607259	0.956270
C369	C	1.258326	0.940592	1.289603
C370	C	0.620414	0.245206	0.599490
C371	C	0.953747	0.578539	0.932824
C372	C	1.287080	0.911872	1.266157
C373	C	0.620415	0.245225	0.552583
C374	C	0.953748	0.578558	0.885916
C375	C	1.287081	0.911891	1.219249
N376	N	0.649164	0.216504	0.529134
N377	N	0.982498	0.549837	0.862468
N378	N	1.315831	0.883170	1.195801
C379	C	0.677920	0.187774	0.552604
C380	C	1.011254	0.521108	0.885937
C381	C	1.344587	0.854441	1.219270
C382	C	0.620464	0.245136	0.979532
C383	C	0.953797	0.578469	1.312865
C384	C	1.287131	0.911803	1.646199
C385	C	0.620471	0.245128	1.026450
C386	C	0.953804	0.578461	1.359783
C387	C	1.287137	0.911794	1.693117
C388	C	0.677979	0.187675	1.026471
C389	C	1.011312	0.521009	1.359804
C390	C	1.344645	0.854342	1.693137
C391	C	0.677974	0.187686	0.979552
C392	C	1.011308	0.521020	1.312885
C393	C	1.344641	0.854353	1.646219
C394	C	0.649214	0.216415	0.956084
C395	C	0.982547	0.549748	1.289417
C396	C	1.315880	0.883082	1.622750
C397	C	0.677910	0.187801	0.454078
C398	C	1.011243	0.521135	0.787411
C399	C	1.344576	0.854468	1.120744
C400	C	0.677904	0.187817	0.407158
C401	C	1.011238	0.521150	0.740491
C402	C	1.344571	0.854483	1.073825
C403	C	0.620395	0.245267	0.407141
C404	C	0.953728	0.578600	0.740475
C405	C	1.287061	0.911934	1.073808
C406	C	0.620401	0.245253	0.454057
C407	C	0.953735	0.578587	0.787390
C408	C	1.287068	0.911920	1.120724
C409	C	0.649161	0.216517	0.477524
C410	C	0.982494	0.549850	0.810857
C411	C	1.315827	0.883183	1.144191
O412	O	0.595982	0.269655	0.528272
O413	O	0.929315	0.602988	0.861605
O414	O	1.262649	0.936322	1.194939
O415	O	0.702366	0.163346	0.528345
O416	O	1.035699	0.496680	0.861678
O417	O	1.369032	0.830013	1.195011
C418	C	0.677939	0.187731	0.740268
C419	C	1.011273	0.521065	1.073601
C420	C	1.344606	0.854398	1.406935
C421	C	0.649187	0.216449	0.763714
C422	C	0.982521	0.549782	1.097047
C423	C	1.315854	0.883116	1.430381
C424	C	0.620431	0.245178	0.740245
C425	C	0.953765	0.578512	1.073578
C426	C	1.287098	0.911845	1.406911
C427	C	0.649194	0.216441	0.810632
C428	C	0.982527	0.549774	1.143965
C429	C	1.315861	0.883107	1.477299
C430	C	0.677950	0.187711	0.834101
C431	C	1.011283	0.521045	1.167435
C432	C	1.344617	0.854378	1.500768
C433	C	0.706699	0.158990	0.810653
C434	C	1.040033	0.492324	1.143986
C435	C	1.373366	0.825657	1.477319
C436	C	0.706695	0.159002	0.763737
C437	C	1.040029	0.492335	1.097071
C438	C	1.373362	0.825669	1.430404
C439	C	0.591682	0.273899	0.763693
C440	C	0.925015	0.607233	1.097027
C441	C	1.258349	0.940566	1.430360
C442	C	0.591689	0.273886	0.810609
C443	C	0.925022	0.607219	1.143942
C444	C	1.258355	0.940552	1.477275
C445	C	0.620445	0.245156	0.834078
C446	C	0.953778	0.578490	1.167411
C447	C	1.287111	0.911823	1.500745
H448	H	0.262286	0.297513	0.297283
H449	H	0.595619	0.630847	0.630616
H450	H	0.928952	0.964180	0.963949
H451	H	0.568265	0.297295	0.744589
H452	H	0.901599	0.630628	1.077923
H453	H	1.234932	0.963962	1.411256
H454	H	0.121528	0.135573	0.135875
H455	H	0.454862	0.468907	0.469209
H456	H	0.788195	0.802240	0.802542
H457	H	0.701258	0.472652	0.164500
H458	H	1.034591	0.805985	0.497834
H459	H	1.367924	1.139319	0.831167
Br460	Br	-0.192134	0.148763	0.149021
Br461	Br	0.141199	0.482097	0.482354
Br462	Br	0.474532	0.815430	0.815688
H463	H	0.730093	0.744097	0.135831
H464	H	1.063427	1.077431	0.469164
H465	H	1.396760	1.410764	0.802497
Br466	Br	0.745658	0.590611	0.120236
Br467	Br	1.078991	0.923944	0.453569
Br468	Br	1.412324	1.257278	0.786902
Br469	Br	0.581463	0.947269	0.284268
Br470	Br	0.914796	1.280603	0.617601
Br471	Br	1.248129	1.613936	0.950934
Br472	Br	0.717005	0.148686	1.058331
Br473	Br	1.050338	0.482019	1.391664
Br474	Br	1.383671	0.815353	1.724998
Br475	Br	0.581489	1.057844	0.284267
Br476	Br	0.914823	1.391178	0.617601
Br477	Br	1.248156	1.724511	0.950934
Br478	Br	0.552618	0.590696	0.312942
Br479	Br	0.885951	0.924029	0.646275
Br480	Br	1.219285	1.257362	0.979609
Br481	Br	0.745722	0.120024	0.731925
Br482	Br	1.079055	0.453357	1.065258
Br483	Br	1.412388	0.786690	1.398591
Br484	Br	0.275025	0.119943	0.120288
Br485	Br	0.608358	0.453277	0.453621
Br486	Br	0.941691	0.786610	0.786955
H487	H	0.701388	0.164300	0.960465
H488	H	1.034721	0.497633	1.293799
H489	H	1.368055	0.830966	1.627132
H490	H	0.597044	0.268533	0.960428
H491	H	0.930377	0.601867	1.293762
H492	H	1.263711	0.935200	1.627095
Br493	Br	0.490849	0.284359	0.284132
Br494	Br	0.824182	0.617693	0.617465
Br495	Br	1.157516	0.951026	0.950798
H496	H	0.596895	0.387592	0.268624
H497	H	0.930229	0.720926	0.601958
H498	H	1.263562	1.054259	0.935291
Br499	Br	-0.081557	0.148741	0.149010
Br500	Br	0.251776	0.482075	0.482343
Br501	Br	0.585110	0.815408	0.815677
Br502	Br	0.552665	0.312870	0.842423
Br503	Br	0.885998	0.646203	1.175756
Br504	Br	1.219331	0.979537	1.509089
Br505	Br	0.164448	0.313142	0.312867
Br506	Br	0.497781	0.646476	0.646201
Br507	Br	0.831114	0.979809	0.979534
H508	H	0.568248	0.297306	0.688939
H509	H	0.901582	0.630640	1.022273
H510	H	1.234915	0.963973	1.355606
Br511	Br	0.745690	0.701181	0.120244
Br512	Br	1.079024	1.034515	0.453577
Br513	Br	1.412357	1.367848	0.786911
H514	H	0.121530	0.297524	0.297312
H515	H	0.454864	0.630857	0.630645
H516	H	0.788197	0.964191	0.963979
Br517	Br	0.717038	1.057789	0.148975
Br518	Br	1.050372	1.391123	0.482308
Br519	Br	1.383705	1.724456	0.815642
Br520	Br	0.581453	0.284114	1.058264
Br521	Br	0.914787	0.617448	1.391597
Br522	Br	1.248120	0.950781	1.724931
Br523	Br	0.552623	0.312915	0.591089
Br524	Br	0.885956	0.646248	0.924422
Br525	Br	1.219289	0.979581	1.257756
Br526	Br	0.717007	0.947196	0.148958
Br527	Br	1.050340	1.280529	0.482291
Br528	Br	1.383673	1.613863	0.815625
Br529	Br	0.023690	0.119959	0.120318
Br530	Br	0.357023	0.453293	0.453651
Br531	Br	0.690356	0.786626	0.786984
H532	H	0.392997	0.164329	0.164510
H533	H	0.726330	0.497663	0.497844
H534	H	1.059663	0.830996	0.831177
H535	H	0.568248	0.688532	0.297365
H536	H	0.901581	1.021865	0.630698
H537	H	1.234914	1.355199	0.964032
H538	H	0.730115	0.135600	0.829770
H539	H	1.063448	0.468933	1.163103
H540	H	1.396782	0.802266	1.496436
H541	H	0.036422	0.297524	0.297326
H542	H	0.369755	0.630858	0.630659
H543	H	0.703089	0.964191	0.963993
H544	H	0.478119	0.164326	0.164502
H545	H	0.811452	0.497659	0.497835
H546	H	1.144785	0.830993	0.831168
H547	H	0.393007	0.268738	0.268585
H548	H	0.726340	0.602071	0.601918
H549	H	1.059673	0.935405	0.935251
Br550	Br	0.745729	0.841946	0.120264
Br551	Br	1.079063	1.175279	0.453598
Br552	Br	1.412396	1.508613	0.786931
H553	H	0.701220	0.387543	0.164488
H554	H	1.034554	0.720876	0.497821
H555	H	1.367887	1.054209	0.831155
Br556	Br	0.581308	0.485459	0.284210
Br557	Br	0.914642	0.818792	0.617543
Br558	Br	1.247975	1.152125	0.950876
Br559	Br	0.552688	0.842029	0.312956
Br560	Br	0.886022	1.175363	0.646289
Br561	Br	1.219355	1.508696	0.979622
H562	H	-0.094274	0.268782	0.268650
H563	H	0.239059	0.602115	0.601983
H564	H	0.572393	0.935449	0.935317
Br565	Br	0.552654	0.731456	0.312944
Br566	Br	0.885987	1.064789	0.646277
Br567	Br	1.219320	1.398123	0.979610
Br568	Br	0.164436	0.119948	0.120297
Br569	Br	0.497769	0.453281	0.453631
Br570	Br	0.831103	0.786615	0.786964
Br571	Br	0.716933	0.148839	0.375341
Br572	Br	1.050266	0.482173	0.708674
Br573	Br	1.383599	0.815506	1.042008
Br574	Br	0.716937	0.148798	0.485919
Br575	Br	1.050270	0.482132	0.819252
Br576	Br	1.383604	0.815465	1.152585
H577	H	-0.179397	0.268787	0.268659
H578	H	0.153936	0.602120	0.601992
H579	H	0.487269	0.935454	0.935326
Br580	Br	0.581381	0.284233	0.485878
Br581	Br	0.914714	0.617567	0.819211
Br582	Br	1.248047	0.950900	1.152544
H583	H	0.730097	0.135650	0.603905
H584	H	1.063430	0.468983	0.937238
H585	H	1.396764	0.802316	1.270572
Br586	Br	0.581370	0.284254	0.375281
Br587	Br	0.914703	0.617587	0.708614
Br588	Br	1.248036	0.950921	1.041948
H589	H	0.730104	0.135628	0.689010
H590	H	1.063437	0.468961	1.022343
H591	H	1.396770	0.802295	1.355677
