data_functionalizedCrystal
_audit_creation_method	'MofGen! by Chris Wilmer'
_symmetry_space_group_name_H-M	'P1'
_symmetry_Int_Tables_number	1
_symmetry_cell_setting	triclinic
loop_
_symmetry_equiv_pos_as_xyz
  x,y,z
_cell_length_a	18.215407
_cell_length_b	16.625545
_cell_length_c	18.215399
_cell_angle_alpha	90.026887
_cell_angle_beta	90.019833
_cell_angle_gamma	90.026006
loop_
_atom_site_label
_atom_site_type_symbol
_atom_site_fract_x
_atom_site_fract_y
_atom_site_fract_z
Zn1	Zn	1.125069	-0.321000	0.416121
Zn2	Zn	1.625069	0.179000	0.916121
Zn3	Zn	1.124975	-0.455841	0.293057
Zn4	Zn	1.624975	0.044159	0.793057
Zn5	Zn	1.002001	-0.321027	0.293069
Zn6	Zn	1.502001	0.178973	0.793069
Zn7	Zn	1.001966	-0.455796	0.416082
Zn8	Zn	1.501966	0.044204	0.916082
O9	O	1.063503	-0.388416	0.354582
O10	O	1.563503	0.111584	0.854582
O11	O	1.228040	-0.338895	0.399808
O12	O	1.728040	0.161105	0.899808
O13	O	1.108639	-0.437987	0.190074
O14	O	1.608639	0.062013	0.690074
O15	O	1.018380	-0.208191	0.309413
O16	O	1.518380	0.291809	0.809413
O17	O	1.227972	-0.437961	0.309394
O18	O	1.727972	0.062039	0.809394
O19	O	1.108797	-0.208171	0.399819
O20	O	1.608797	0.291829	0.899819
O21	O	1.018290	-0.338940	0.190083
O22	O	1.518290	0.161060	0.690083
O23	O	0.899012	-0.338896	0.309375
O24	O	1.399012	0.161104	0.809375
O25	O	1.018319	-0.437885	0.519072
O26	O	1.518319	0.062115	1.019072
O27	O	0.898986	-0.437910	0.399753
O28	O	1.398986	0.062090	0.899753
O29	O	1.108763	-0.338851	0.519100
O30	O	1.608763	0.161149	1.019100
O31	O	1.108604	-0.568667	0.309356
O32	O	1.608604	-0.068667	0.809356
O33	O	1.018229	-0.568634	0.399742
O34	O	1.518229	-0.068634	0.899742
C35	C	0.872296	-0.388402	0.354561
C36	C	1.372296	0.111598	0.854561
C37	C	0.790497	-0.388415	0.354570
C38	C	1.290497	0.111585	0.854570
C39	C	0.602309	-0.440053	0.401570
C40	C	1.102309	0.059947	0.901570
C41	C	0.525450	-0.440056	0.401579
C42	C	1.025450	0.059944	0.901579
C43	C	0.525448	-0.336793	0.307611
C44	C	1.025448	0.163207	0.807611
C45	C	0.602305	-0.336787	0.307606
C46	C	1.102305	0.163213	0.807606
C47	C	0.640734	-0.388422	0.354584
C48	C	1.140734	0.111578	0.854584
C49	C	0.487018	-0.388430	0.354598
C50	C	0.987018	0.111570	0.854598
C51	C	0.403684	-0.388433	0.354608
C52	C	0.903684	0.111567	0.854608
C53	C	0.724073	-0.388418	0.354576
C54	C	1.224073	0.111582	0.854576
C55	C	1.063423	-0.597907	0.354559
C56	C	1.563423	-0.097907	0.854559
C57	C	1.063456	-0.687528	0.354574
C58	C	1.563456	-0.187528	0.854574
C59	C	1.063484	-0.760310	0.354589
C60	C	1.563484	-0.260310	0.854589
C61	C	1.063527	-0.851619	0.354605
C62	C	1.563527	-0.351619	0.854605
C63	C	1.063565	-0.924395	0.354614
C64	C	1.563565	-0.424395	0.854614
C65	C	1.063608	-1.015709	0.354629
C66	C	1.563608	-0.515709	0.854629
C67	C	1.255456	-0.388430	0.354604
C68	C	1.755456	0.111570	0.854604
C69	C	1.337254	-0.388436	0.354613
C70	C	1.837254	0.111564	0.854613
C71	C	1.063547	-0.388360	0.546535
C72	C	1.563547	0.111640	1.046535
C73	C	1.063567	-0.388336	0.628334
C74	C	1.563567	0.111664	1.128334
C75	C	1.063603	-0.178107	0.354622
C76	C	1.563603	0.321893	0.854622
C77	C	1.063646	-0.088486	0.354639
C78	C	1.563646	0.411514	0.854639
C79	C	1.063500	-0.388413	0.163376
C80	C	1.563500	0.111587	0.663376
C81	C	1.063624	-0.388210	0.081578
C82	C	1.563624	0.111790	0.581578
C83	C	1.110677	-0.336721	0.816544
C84	C	1.610677	0.163279	1.316544
C85	C	1.110686	-0.336698	0.893403
C86	C	1.610686	0.163302	1.393403
C87	C	1.016508	-0.439827	0.893362
C88	C	1.516508	0.060173	1.393362
C89	C	1.016496	-0.439846	0.816505
C90	C	1.516496	0.060154	1.316505
C91	C	1.063585	-0.388294	0.778098
C92	C	1.563585	0.111706	1.278098
C93	C	1.063606	-0.388252	0.931814
C94	C	1.563606	0.111748	1.431814
C95	C	1.063615	-0.388227	1.015148
C96	C	1.563615	0.111773	1.515148
C97	C	1.063575	-0.388318	0.694759
C98	C	1.563575	0.111682	1.194759
H99	H	0.633592	-0.294737	0.269344
H100	H	1.133592	0.205263	0.769344
C101	C	0.483815	-0.280787	0.256484
C102	C	0.983815	0.219213	0.756484
C103	C	0.502489	-0.298229	0.183642
C104	C	1.002489	0.201771	0.683642
C105	C	0.464160	-0.246647	0.136523
C106	C	0.964160	0.253353	0.636523
H107	H	0.432528	-0.288136	0.263116
H108	H	0.932528	0.211864	0.763116
H109	H	0.496448	-0.226611	0.267295
H110	H	0.996448	0.273389	0.767295
H111	H	0.489851	-0.352391	0.172835
H112	H	0.989851	0.147609	0.672835
H113	H	0.553770	-0.290875	0.176987
H114	H	1.053770	0.209125	0.676987
H115	H	0.476793	-0.192471	0.147333
H116	H	0.976793	0.307529	0.647333
H117	H	0.412874	-0.254000	0.143161
H118	H	0.912874	0.246000	0.643161
H119	H	0.476829	-0.258468	0.087095
H120	H	0.976829	0.241532	0.587095
H121	H	0.978142	-0.481842	0.785201
H122	H	1.478142	0.018158	1.285201
H123	H	0.494168	-0.482098	0.439841
H124	H	0.994168	0.017902	0.939841
C125	C	1.161823	-0.280659	0.774978
C126	C	1.661823	0.219341	1.274978
C127	C	1.203051	-0.235473	0.825102
C128	C	1.703051	0.264527	1.325102
C129	C	1.250166	-0.183809	0.786840
C130	C	1.750166	0.316191	1.286840
H131	H	1.193937	-0.311418	0.744992
H132	H	1.693937	0.188582	1.244992
H133	H	1.133697	-0.245491	0.745014
H134	H	1.633697	0.254509	1.245014
H135	H	1.231175	-0.270636	0.855053
H136	H	1.731175	0.229364	1.355053
H137	H	1.170956	-0.204697	0.855089
H138	H	1.670956	0.295303	1.355089
H139	H	1.222040	-0.148641	0.756877
H140	H	1.722040	0.351359	1.256877
H141	H	1.282276	-0.214575	0.756856
H142	H	1.782276	0.285425	1.256856
H143	H	1.278140	-0.153139	0.820843
H144	H	1.778140	0.346861	1.320843
H145	H	1.149032	-0.294701	0.924703
H146	H	1.649032	0.205299	1.424703
C147	C	0.965470	-0.495769	0.935196
C148	C	1.465470	0.004231	1.435196
C149	C	0.975573	-0.484731	1.010733
C150	C	1.475573	0.015269	1.510733
C151	C	0.928576	-0.536261	1.049291
C152	C	1.428576	-0.036261	1.549291
H153	H	0.915996	-0.484021	0.922682
H154	H	1.415996	0.015979	1.422682
H155	H	0.976221	-0.549965	0.922631
H156	H	1.476221	-0.049965	1.422631
H157	H	0.964816	-0.430548	1.023293
H158	H	1.464816	0.069452	1.523293
H159	H	1.025036	-0.496485	1.023268
H160	H	1.525036	0.003515	1.523268
H161	H	0.939328	-0.590457	1.036727
H162	H	1.439328	-0.090457	1.536727
H163	H	0.879105	-0.524509	1.036772
H164	H	1.379105	-0.024509	1.536772
H165	H	0.935429	-0.528784	1.100547
H166	H	1.435429	-0.028784	1.600547
H167	H	0.633595	-0.482096	0.439825
H168	H	1.133595	0.017904	0.939825
