data_functionalizedCrystal
_audit_creation_method	'MofGen! by Chris Wilmer'
_symmetry_space_group_name_H-M	'P1'
_symmetry_Int_Tables_number	1
_symmetry_cell_setting	triclinic
loop_
_symmetry_equiv_pos_as_xyz
  x,y,z
_cell_length_a	19.077236
_cell_length_b	21.295417
_cell_length_c	19.076919
_cell_angle_alpha	92.267699
_cell_angle_beta	89.887323
_cell_angle_gamma	92.322335
loop_
_atom_site_label
_atom_site_type_symbol
_atom_site_fract_x
_atom_site_fract_y
_atom_site_fract_z
Zn1	Zn	1.058269	-0.228507	-0.440524
Zn2	Zn	1.391602	0.104826	-0.107191
Zn3	Zn	1.724935	0.438160	0.226142
Zn4	Zn	1.062899	-0.329387	-0.323010
Zn5	Zn	1.396232	0.003946	0.010323
Zn6	Zn	1.729565	0.337279	0.343656
Zn7	Zn	0.945484	-0.228177	-0.318305
Zn8	Zn	1.278818	0.105156	0.015029
Zn9	Zn	1.612151	0.438490	0.348362
Zn10	Zn	0.940717	-0.337786	-0.435748
Zn11	Zn	1.274050	-0.004452	-0.102414
Zn12	Zn	1.607384	0.328881	0.230919
O13	O	1.001842	-0.280964	-0.379397
O14	O	1.335176	0.052369	-0.046063
O15	O	1.668509	0.385702	0.287270
O16	O	1.157217	-0.238513	-0.428904
O17	O	1.490550	0.094821	-0.095571
O18	O	1.823884	0.428154	0.237762
O19	O	1.051256	-0.312309	-0.224055
O20	O	1.384589	0.021024	0.109278
O21	O	1.717923	0.354358	0.442611
O22	O	0.960503	-0.140130	-0.334547
O23	O	1.293836	0.193203	-0.001214
O24	O	1.627169	0.526536	0.332120
O25	O	1.160619	-0.312629	-0.342567
O26	O	1.493952	0.020704	-0.009234
O27	O	1.827285	0.354038	0.324100
O28	O	1.043365	-0.140373	-0.424342
O29	O	1.376698	0.192960	-0.091008
O30	O	1.710032	0.526294	0.242325
O31	O	0.964992	-0.237950	-0.220598
O32	O	1.298326	0.095383	0.112735
O33	O	1.631659	0.428717	0.446068
O34	O	0.846518	-0.246093	-0.329915
O35	O	1.179851	0.087240	0.003418
O36	O	1.513185	0.420573	0.336751
O37	O	0.952378	-0.326942	-0.534712
O38	O	1.285711	0.006391	-0.201379
O39	O	1.619044	0.339724	0.131955
O40	O	0.843015	-0.326622	-0.416200
O41	O	1.176349	0.006711	-0.082867
O42	O	1.509682	0.340044	0.250466
O43	O	1.038742	-0.246656	-0.538221
O44	O	1.372076	0.086677	-0.204888
O45	O	1.705409	0.420011	0.128445
O46	O	1.046634	-0.418592	-0.337935
O47	O	1.379967	-0.085259	-0.004602
O48	O	1.713300	0.248075	0.328731
O49	O	0.956867	-0.424762	-0.420763
O50	O	1.290201	-0.091429	-0.087430
O51	O	1.623534	0.241905	0.245904
C52	C	0.819270	-0.287234	-0.372029
C53	C	1.152603	0.046100	-0.038696
C54	C	1.485936	0.379433	0.294637
C55	C	0.741164	-0.289932	-0.368894
C56	C	1.074497	0.043402	-0.035561
C57	C	1.407830	0.376735	0.297773
C58	C	0.702696	-0.252677	-0.412441
C59	C	1.036030	0.080656	-0.079107
C60	C	1.369363	0.413990	0.254226
C61	C	0.629308	-0.255209	-0.409489
C62	C	0.962641	0.078124	-0.076156
C63	C	1.295974	0.411458	0.257178
C64	C	0.594388	-0.294999	-0.362993
C65	C	0.927721	0.038335	-0.029660
C66	C	1.261054	0.371668	0.303674
C67	C	0.632861	-0.332255	-0.319442
C68	C	0.966194	0.001079	0.013892
C69	C	1.299527	0.334412	0.347225
C70	C	0.706248	-0.329719	-0.322390
C71	C	1.039581	0.003614	0.010943
C72	C	1.372915	0.336947	0.344276
C73	C	0.375093	-0.306709	-0.349343
C74	C	0.708426	0.026624	-0.016009
C75	C	1.041760	0.359957	0.317324
C76	C	0.301700	-0.309243	-0.346399
C77	C	0.635034	0.024090	-0.013065
C78	C	0.968367	0.357423	0.320268
C79	C	0.298153	-0.232196	-0.436445
C80	C	0.631486	0.101137	-0.103112
C81	C	0.964819	0.434470	0.230221
C82	C	0.371541	-0.229667	-0.439393
C83	C	0.704875	0.103666	-0.106060
C84	C	1.038208	0.436999	0.227273
C85	C	0.410008	-0.266921	-0.395839
C86	C	0.743341	0.066413	-0.062506
C87	C	1.076675	0.399746	0.270828
N88	N	0.519373	-0.297589	-0.359976
N89	N	0.852706	0.035744	-0.026643
N90	N	1.186039	0.369078	0.306690
N91	N	0.485022	-0.264327	-0.398853
N92	N	0.818355	0.069007	-0.065520
N93	N	1.151688	0.402340	0.267814
C94	C	1.001754	-0.444518	-0.379358
C95	C	1.335087	-0.111184	-0.046024
C96	C	1.668421	0.222149	0.287309
C97	C	1.001780	-0.514485	-0.379367
C98	C	1.335113	-0.181152	-0.046034
C99	C	1.668446	0.152181	0.287300
C100	C	1.044899	-0.547423	-0.426154
C101	C	1.378232	-0.214090	-0.092821
C102	C	1.711566	0.119244	0.240513
C103	C	1.044923	-0.613165	-0.426172
C104	C	1.378256	-0.279832	-0.092839
C105	C	1.711590	0.053501	0.240494
C106	C	1.001836	-0.645967	-0.379391
C107	C	1.335169	-0.312633	-0.046058
C108	C	1.668502	0.020700	0.287275
C109	C	0.958708	-0.613021	-0.332601
C110	C	1.292041	-0.279688	0.000733
C111	C	1.625375	0.053646	0.334066
C112	C	0.958680	-0.547280	-0.332589
C113	C	1.292013	-0.213947	0.000745
C114	C	1.625346	0.119386	0.334078
N115	N	0.999002	-0.747112	-0.317682
N116	N	1.332335	-0.413779	0.015651
N117	N	1.665669	-0.080445	0.348984
N118	N	0.999033	-0.809563	-0.317696
N119	N	1.332366	-0.476230	0.015637
N120	N	1.665699	-0.142896	0.348970
C121	C	1.001917	-0.844040	-0.379426
C122	C	1.335250	-0.510706	-0.046093
C123	C	1.668583	-0.177373	0.287240
N124	N	1.004782	-0.813706	-0.441144
N125	N	1.338116	-0.480372	-0.107811
N126	N	1.671449	-0.147039	0.225523
N127	N	1.004755	-0.751249	-0.441130
N128	N	1.338089	-0.417916	-0.107796
N129	N	1.671422	-0.084582	0.225537
C130	C	1.001861	-0.717251	-0.379400
C131	C	1.335194	-0.383918	-0.046066
C132	C	1.668528	-0.050585	0.287267
C133	C	1.045064	-0.948263	-0.426237
C134	C	1.378398	-0.614929	-0.092904
C135	C	1.711731	-0.281596	0.240429
C136	C	1.045083	-1.014006	-0.426256
C137	C	1.378417	-0.680673	-0.092923
C138	C	1.711750	-0.347340	0.240410
C139	C	0.958872	-1.013861	-0.332679
C140	C	1.292205	-0.680527	0.000654
C141	C	1.625539	-0.347194	0.333988
C142	C	0.958849	-0.948118	-0.332666
C143	C	1.292182	-0.614785	0.000668
C144	C	1.625516	-0.281452	0.334001
C145	C	1.001949	-0.915323	-0.379444
C146	C	1.335282	-0.581990	-0.046111
C147	C	1.668616	-0.248657	0.287223
C148	C	1.185128	-0.274671	-0.386793
C149	C	1.518461	0.058663	-0.053460
C150	C	1.851794	0.391996	0.279873
C151	C	1.263233	-0.271989	-0.389946
C152	C	1.596566	0.061344	-0.056612
C153	C	1.929900	0.394678	0.276721
C154	C	0.994512	-0.287773	-0.562676
C155	C	1.327845	0.045561	-0.229342
C156	C	1.661179	0.378894	0.103991
C157	C	0.991388	-0.290674	-0.640778
C158	C	1.324722	0.042659	-0.307445
C159	C	1.658055	0.375993	0.025889
C160	C	1.001949	-0.116772	-0.379452
C161	C	1.335283	0.216561	-0.046119
C162	C	1.668616	0.549895	0.287214
C163	C	1.001995	-0.046803	-0.379476
C164	C	1.335328	0.286530	-0.046143
C165	C	1.668661	0.619863	0.287191
C166	C	1.034884	-0.250238	-0.679299
C167	C	1.368217	0.083095	-0.345966
C168	C	1.701550	0.416429	-0.012632
C169	C	1.031940	-0.252962	-0.752684
C170	C	1.365273	0.080371	-0.419351
C171	C	1.698607	0.413705	-0.086018
C172	C	0.985504	-0.296126	-0.787547
C173	C	1.318837	0.037208	-0.454214
C174	C	1.652171	0.370541	-0.120881
C175	C	0.942004	-0.336563	-0.749021
C176	C	1.275337	-0.003230	-0.415688
C177	C	1.608670	0.330103	-0.082354
C178	C	0.944944	-0.333836	-0.675637
C179	C	1.278278	-0.000502	-0.342304
C180	C	1.611611	0.332831	-0.008970
C181	C	0.971884	-0.308762	-1.006826
C182	C	1.305218	0.024571	-0.673492
C183	C	1.638551	0.357904	-0.340159
C184	C	0.968949	-0.311488	-1.080215
C185	C	1.302282	0.021845	-0.746882
C186	C	1.635615	0.355179	-0.413548
C187	C	1.058885	-0.227886	-1.083873
C188	C	1.392218	0.105447	-0.750540
C189	C	1.725551	0.438781	-0.417207
C190	C	1.061824	-0.225165	-1.010488
C191	C	1.395157	0.108169	-0.677154
C192	C	1.728491	0.441502	-0.343821
C193	C	1.018321	-0.265600	-0.971968
C194	C	1.351654	0.067733	-0.638634
C195	C	1.684988	0.401067	-0.305301
N196	N	0.982496	-0.298912	-0.862559
N197	N	1.315829	0.034421	-0.529225
N198	N	1.649162	0.367754	-0.195892
N199	N	1.021327	-0.262810	-0.896957
N200	N	1.354660	0.070524	-0.563624
N201	N	1.687993	0.403857	-0.230291
C202	C	1.009184	-0.274136	-0.196833
C203	C	1.342518	0.059198	0.136501
C204	C	1.675851	0.392531	0.469834
C205	C	1.012444	-0.271052	-0.118736
C206	C	1.345778	0.062281	0.214597
C207	C	1.679111	0.395614	0.547931
H208	H	0.266825	-0.201866	-0.471904
H209	H	0.600159	0.131467	-0.138571
H210	H	0.933492	0.464801	0.194763
H211	H	1.079992	-0.520723	-0.464245
H212	H	1.413325	-0.187390	-0.130912
H213	H	1.746658	0.145943	0.202421
H214	H	0.909518	-0.366757	-0.644274
H215	H	1.242852	-0.033424	-0.310940
H216	H	1.576185	0.299910	0.022393
N217	N	1.084977	-0.203687	-0.641703
N218	N	1.418310	0.129646	-0.308370
N219	N	1.751643	0.462980	0.024963
H220	H	1.118745	-0.227025	-0.612570
H221	H	1.452078	0.106308	-0.279237
H222	H	1.785412	0.439642	0.054097
H223	H	1.112034	-0.178500	-0.677291
H224	H	1.445367	0.154833	-0.343957
H225	H	1.778700	0.488166	-0.010624
H226	H	0.399968	-0.197268	-0.477258
H227	H	0.733301	0.136065	-0.143924
H228	H	1.066635	0.469398	0.189409
H229	H	1.067361	-0.220036	-0.784045
H230	H	1.400694	0.113297	-0.450712
H231	H	1.734027	0.446630	-0.117378
N232	N	0.918861	-0.358035	-1.117834
N233	N	1.252195	-0.024702	-0.784501
N234	N	1.585528	0.308631	-0.451168
H235	H	0.930245	-0.402168	-1.105496
H236	H	1.263579	-0.068835	-0.772163
H237	H	1.596912	0.264498	-0.438830
H238	H	0.869190	-0.349448	-1.103032
H239	H	1.202523	-0.016115	-0.769699
H240	H	1.535857	0.317218	-0.436366
N241	N	0.740357	-0.209765	-0.462595
N242	N	1.073690	0.123569	-0.129261
N243	N	1.407024	0.456902	0.204072
H244	H	0.704849	-0.186548	-0.489732
H245	H	1.038183	0.146785	-0.156399
H246	H	1.371516	0.480119	0.176934
H247	H	0.771956	-0.178481	-0.435277
H248	H	1.105289	0.154853	-0.101943
H249	H	1.438622	0.488186	0.231390
H250	H	0.273271	-0.341648	-0.308536
H251	H	0.606604	-0.008315	0.024797
H252	H	0.939938	0.325018	0.358131
N253	N	1.091565	-1.049538	-0.476748
N254	N	1.424899	-0.716204	-0.143414
N255	N	1.758232	-0.382871	0.189919
H256	H	1.118856	-1.018784	-0.506383
H257	H	1.452189	-0.685451	-0.173050
H258	H	1.785522	-0.352118	0.160283
H259	H	1.125266	-1.074632	-0.449511
H260	H	1.458599	-0.741299	-0.116178
H261	H	1.791933	-0.407966	0.217155
N262	N	0.587817	-0.215015	-0.456443
N263	N	0.921151	0.118319	-0.123110
N264	N	1.254484	0.451652	0.210223
H265	H	0.621075	-0.189423	-0.486344
H266	H	0.954408	0.143911	-0.153011
H267	H	1.287741	0.477244	0.180322
H268	H	0.556056	-0.242931	-0.487687
H269	H	0.889389	0.090402	-0.154354
H270	H	1.222722	0.423735	0.178979
N271	N	0.912237	-0.648393	-0.282140
N272	N	1.245570	-0.315059	0.051194
N273	N	1.578903	0.018274	0.384527
H274	H	0.878521	-0.677868	-0.309357
H275	H	1.211855	-0.344535	0.023977
H276	H	1.545188	-0.011202	0.357310
H277	H	0.942186	-0.673424	-0.250769
H278	H	1.275519	-0.340091	0.082564
H279	H	1.608852	-0.006758	0.415898
H280	H	1.099639	-0.190018	-0.982107
H281	H	1.432973	0.143315	-0.648774
H282	H	1.766306	0.476649	-0.315441
N283	N	0.891910	-0.383105	-0.786630
N284	N	1.225244	-0.049772	-0.453297
N285	N	1.558577	0.283562	-0.119964
H286	H	0.919223	-0.412430	-0.818225
H287	H	1.252556	-0.079096	-0.484892
H288	H	1.585890	0.254237	-0.151558
H289	H	0.864805	-0.408264	-0.751053
H290	H	1.198138	-0.074930	-0.417720
H291	H	1.531471	0.258403	-0.084387
H292	H	0.923740	-0.921298	-0.294564
H293	H	1.257074	-0.587965	0.038769
H294	H	1.590407	-0.254632	0.372102
N295	N	1.091432	-0.648702	-0.476637
N296	N	1.424766	-0.315369	-0.143303
N297	N	1.758099	0.017965	0.190030
H298	H	1.118730	-0.617951	-0.506268
H299	H	1.452064	-0.284617	-0.172935
H300	H	1.785397	0.048716	0.160398
H301	H	1.125125	-0.673780	-0.449371
H302	H	1.458459	-0.340447	-0.116038
H303	H	1.791792	-0.007113	0.217295
H304	H	1.094301	-0.194965	-1.115244
H305	H	1.427635	0.138368	-0.781911
H306	H	1.760968	0.471702	-0.448577
N307	N	0.416577	-0.346886	-0.302367
N308	N	0.749910	-0.013553	0.030966
N309	N	1.083243	0.319781	0.364300
H310	H	0.383317	-0.372477	-0.272467
H311	H	0.716650	-0.039144	0.060866
H312	H	1.049984	0.294189	0.394199
H313	H	0.445881	-0.376067	-0.332128
H314	H	0.779214	-0.042734	0.001205
H315	H	1.112547	0.290599	0.334538
H316	H	0.604423	-0.364649	-0.281580
H317	H	0.937756	-0.031316	0.051753
H318	H	1.271090	0.302017	0.385086
H319	H	0.737567	-0.360055	-0.286929
H320	H	1.070901	-0.026722	0.046404
H321	H	1.404234	0.306611	0.379737
H322	H	0.936472	-0.341697	-0.975472
H323	H	1.269805	-0.008363	-0.642139
H324	H	1.603138	0.324970	-0.308805
H325	H	0.923566	-0.520462	-0.294488
H326	H	1.256899	-0.187128	0.038845
H327	H	1.590233	0.146205	0.372178
N328	N	1.091545	-0.912885	-0.476689
N329	N	1.424879	-0.579552	-0.143356
N330	N	1.758212	-0.246218	0.189978
H331	H	1.118862	-0.943730	-0.506336
H332	H	1.452195	-0.610397	-0.173003
H333	H	1.785529	-0.277063	0.160330
H334	H	1.061605	-0.887809	-0.508022
H335	H	1.394939	-0.554475	-0.174688
H336	H	1.728272	-0.221142	0.158645
H337	H	0.923785	-1.040567	-0.294593
H338	H	1.257118	-0.707234	0.038740
H339	H	1.590452	-0.373900	0.372074
