data_functionalizedCrystal
_audit_creation_method	'MofGen! by Chris Wilmer'
_symmetry_space_group_name_H-M	'P1'
_symmetry_Int_Tables_number	1
_symmetry_cell_setting	triclinic
loop_
_symmetry_equiv_pos_as_xyz
  x,y,z
_cell_length_a	23.096457
_cell_length_b	18.426585
_cell_length_c	23.096457
_cell_angle_alpha	60.002628
_cell_angle_beta	89.999736
_cell_angle_gamma	59.998757
loop_
_atom_site_label
_atom_site_type_symbol
_atom_site_fract_x
_atom_site_fract_y
_atom_site_fract_z
Zr1	Zr	0.557760	0.794362	-0.075978
O2	O	0.465308	0.945760	-0.168420
O3	O	0.586101	0.642963	-0.047643
O4	O	0.586098	0.794363	-0.168429
O5	O	0.465314	0.794360	0.047647
O6	O	0.681378	0.794365	-0.168432
O7	O	0.465312	0.794360	-0.047634
O8	O	0.681385	0.523538	0.047631
O9	O	0.465308	1.065186	-0.168416
O10	O	0.669295	0.705238	-0.035557
O11	O	0.598190	0.705236	0.035553
O12	O	0.598186	0.883490	-0.106657
O13	O	0.527081	0.883488	-0.035547
Zr14	Zr	0.709725	0.794365	0.075979
Zr15	Zr	0.709721	0.794365	-0.075984
Zr16	Zr	0.557763	0.794361	0.075985
Zr17	Zr	0.557759	0.984833	-0.075972
Zr18	Zr	0.709725	0.603893	0.075973
O19	O	0.681383	0.945764	0.047644
O20	O	0.681377	0.945764	-0.168428
O21	O	0.465314	0.945759	0.047652
O22	O	0.802176	0.642967	0.168420
O23	O	0.802171	0.642968	-0.047651
O24	O	0.586107	0.642962	0.168428
O25	O	0.802170	0.794367	-0.047646
O26	O	0.681386	0.794364	0.168429
O27	O	0.586106	0.794362	0.168433
O28	O	0.802172	0.794367	0.047635
O29	O	0.586097	1.065189	-0.168420
O30	O	0.681388	0.523538	0.168421
O31	O	0.802176	0.523540	0.168417
O32	O	0.802173	0.523541	0.047627
O33	O	0.465311	1.065186	-0.047626
O34	O	0.586100	1.065188	-0.047630
O35	O	0.669298	0.705237	0.106658
O36	O	0.740403	0.705239	0.035548
O37	O	0.669294	0.883491	-0.035552
O38	O	0.598189	0.883489	0.035558
C39	C	0.633743	0.556113	-0.000007
C40	C	0.633743	0.475252	-0.000009
C41	C	0.633739	0.179143	0.000012
C42	C	0.633739	0.261530	0.000007
C43	C	0.633741	0.327196	0.000001
C44	C	0.633741	0.409586	-0.000002
C45	C	0.443662	0.794359	0.000007
C46	C	0.379150	0.794358	0.000010
C47	C	0.385963	0.701315	0.037116
C48	C	0.325347	0.701314	0.037119
C49	C	0.257920	0.794360	0.000002
C50	C	0.251110	0.887416	-0.037106
C51	C	0.311725	0.887414	-0.037102
N52	N	0.135122	0.863620	-0.060407
N53	N	0.077543	0.863615	-0.060409
C54	C	0.075287	0.794370	-0.000010
N55	N	0.132792	0.725114	0.060390
N56	N	0.190378	0.725116	0.060390
C57	C	0.192188	0.794372	-0.000006
C58	C	0.016376	0.701319	0.037103
C59	C	-0.044242	0.701321	0.037108
C60	C	-0.118480	0.887426	-0.037124
C61	C	-0.057862	0.887421	-0.037123
C62	C	0.009563	0.794364	-0.000011
C63	C	0.823822	0.794367	-0.000007
C64	C	0.888334	0.794369	-0.000009
C65	C	0.633737	0.794364	-0.190082
C66	C	0.633736	0.794364	-0.254594
C67	C	0.633741	1.032614	0.000008
C68	C	0.633741	1.113474	0.000010
C69	C	0.581253	0.794374	-0.715107
C70	C	0.581253	0.794366	-0.654488
C71	C	0.633743	0.794369	-0.624178
C72	C	0.686248	0.794352	-0.654481
C73	C	0.686251	0.794349	-0.715095
N74	N	0.649634	0.852473	-0.552183
N75	N	0.649627	0.852478	-0.494604
C76	C	0.633739	0.794375	-0.441552
N77	N	0.617843	0.736281	-0.448260
N78	N	0.617847	0.736280	-0.505846
C79	C	0.633746	0.794371	-0.558452
C80	C	0.581240	0.794377	-0.345523
C81	C	0.581244	0.794364	-0.284901
C82	C	0.686237	0.794359	-0.284899
C83	C	0.686235	0.794363	-0.345516
C84	C	0.633733	0.794376	-0.375827
C85	C	0.633747	0.794363	0.190083
C86	C	0.633748	0.794363	0.254595
C87	C	0.823823	0.556117	-0.000014
C88	C	0.888335	0.475258	-0.000018
C89	C	0.633748	0.556112	0.190076
C90	C	0.633750	0.475252	0.254585
C91	C	0.823828	0.556116	0.190069
C92	C	0.888341	0.475257	0.254576
C93	C	0.443656	1.032611	-0.190068
C94	C	0.379143	1.113470	-0.254575
C95	C	0.443661	1.032610	0.000014
C96	C	0.379149	1.113469	0.000019
C97	C	0.633736	1.032615	-0.190075
C98	C	0.633734	1.113475	-0.254584
C99	C	0.881513	0.437285	-0.037143
C100	C	0.942123	0.361320	-0.037162
C101	C	1.009554	0.323324	-0.000051
C102	C	1.016375	0.361305	0.037075
C103	C	0.955766	0.437273	0.037089
C104	C	0.670868	0.437279	0.322002
C105	C	0.670868	0.361313	0.382622
C106	C	0.633752	0.323315	0.375823
C107	C	0.596628	0.361295	0.308399
C108	C	0.596625	0.437265	0.247781
C109	C	0.955760	0.437286	0.247751
C110	C	1.016383	0.361321	0.308356
C111	C	1.009586	0.323323	0.375787
C112	C	0.942160	0.361302	0.382611
C113	C	0.881539	0.437271	0.322006
C114	C	0.311724	1.151450	-0.247750
C115	C	0.251101	1.227439	-0.308355
C116	C	0.257898	1.265440	-0.375786
C117	C	0.325324	1.227457	-0.382610
C118	C	0.385945	1.151475	-0.322005
C119	C	0.385971	1.151450	0.037137
C120	C	0.325361	1.227435	0.037139
C121	C	0.257930	1.265434	0.000027
C122	C	0.251109	1.227450	-0.037096
C123	C	0.311718	1.151471	-0.037102
C124	C	0.670858	1.151449	-0.247763
C125	C	0.670870	1.227416	-0.308371
C126	C	0.633754	1.265412	-0.375800
C127	C	0.596630	1.227431	-0.382620
C128	C	0.596622	1.151461	-0.322012
H129	H	0.440860	0.625541	0.067331
C130	C	0.743332	0.794207	-0.378282
C131	C	0.810036	0.706403	-0.328503
C132	C	0.862655	0.706230	-0.358658
H133	H	0.735920	0.794154	-0.418711
H134	H	0.741198	0.853703	-0.392066
H135	H	0.812169	0.646923	-0.314730
H136	H	0.817471	0.706438	-0.288073
H137	H	0.860520	0.765725	-0.372441
H138	H	0.855236	0.706179	-0.399086
H139	H	0.907919	0.646661	-0.324885
H140	H	0.196206	0.963175	-0.067327
H141	H	0.440872	1.120517	0.067364
H142	H	0.208530	1.327309	-0.425129
C143	C	0.711233	1.110297	-0.174621
C144	C	0.743759	1.159803	-0.181634
C145	C	0.780972	1.121912	-0.114274
H146	H	0.679266	1.122737	-0.149368
H147	H	0.746391	1.038567	-0.149427
H148	H	0.708606	1.231516	-0.206818
H149	H	0.775737	1.147367	-0.206875
H150	H	0.816130	1.050182	-0.089080
H151	H	0.749000	1.134355	-0.089026
H152	H	0.803051	1.155489	-0.119023
C153	C	-0.065362	0.988519	-0.077359
C154	C	-0.102520	1.044668	-0.050221
C155	C	-0.109454	1.137816	-0.087275
H156	H	-0.019656	0.975341	-0.072071
H157	H	-0.090581	1.026806	-0.126195
H158	H	-0.077301	1.006389	-0.001397
H159	H	-0.148232	1.057873	-0.055510
H160	H	-0.134672	1.176103	-0.136111
H161	H	-0.063745	1.124628	-0.081984
H162	H	-0.134671	1.175928	-0.068872
H163	H	0.936637	0.330353	0.437521
C164	C	0.524215	0.794329	-0.747887
C165	C	0.478251	0.794312	-0.708363
C166	C	0.425706	0.794257	-0.738534
H167	H	0.498214	0.853837	-0.795272
H168	H	0.545754	0.734779	-0.747766
H169	H	0.456713	0.853856	-0.708492
H170	H	0.504231	0.734809	-0.660979
H171	H	0.447245	0.734707	-0.738413
H172	H	0.399711	0.853766	-0.785919
H173	H	0.394517	0.794236	-0.711719
H174	H	1.058954	0.261464	0.425129
H175	H	0.306153	1.120549	-0.067326
C176	C	0.633913	1.347787	-0.441539
C177	C	0.703686	1.310828	-0.441353
C178	C	0.703862	1.386689	-0.501892
H179	H	0.606545	1.365041	-0.482729
H180	H	0.614080	1.407062	-0.441534
H181	H	0.723510	1.251571	-0.441365
H182	H	0.731067	1.293581	-0.400177
H183	H	0.684029	1.445964	-0.501887
H184	H	0.676491	1.403937	-0.543078
H185	H	0.751202	1.361627	-0.501771
H186	H	0.633760	0.261456	0.425188
H187	H	-0.038689	0.625551	0.067329
H188	H	0.701093	0.468209	0.327551
C189	C	0.711050	1.268857	-0.301060
C190	C	0.663681	1.374577	-0.333704
C191	C	0.700669	1.412789	-0.326991
H192	H	0.733150	1.235473	-0.252254
H193	H	0.746170	1.256463	-0.323184
H194	H	0.628575	1.386963	-0.311579
H195	H	0.641579	1.407988	-0.382513
H196	H	0.735789	1.400395	-0.349114
H197	H	0.722768	1.379397	-0.278183
H198	H	0.668536	1.484525	-0.349144
H199	H	0.208584	1.327301	0.000037
H200	H	0.566411	1.258380	-0.437528
H201	H	0.701100	0.330399	0.437515
C202	C	0.934809	0.319879	-0.077343
C203	C	0.967459	0.214159	-0.029978
C204	C	0.960742	0.175948	-0.066967
H205	H	0.886000	0.353264	-0.099438
H206	H	0.956929	0.332274	-0.112464
H207	H	0.945337	0.201773	0.005131
H208	H	1.016270	0.180748	-0.007881
H209	H	0.982861	0.188343	-0.102088
H210	H	0.911931	0.209340	-0.089060
H211	H	0.982898	0.104212	-0.034836
C212	C	0.556421	0.319846	0.301172
C213	C	0.564399	0.245159	0.368693
C214	C	0.527388	0.206930	0.362065
H215	H	0.507563	0.374265	0.276030
H216	H	0.574774	0.290137	0.276024
H217	H	0.546043	0.274869	0.393831
H218	H	0.613249	0.190721	0.393846
H219	H	0.545740	0.177221	0.336917
H220	H	0.478531	0.261356	0.336922
H221	H	0.532801	0.156245	0.407876
H222	H	0.566389	1.120551	-0.327577
H223	H	0.330895	0.625544	0.067336
C224	C	0.556317	0.478309	0.174648
C225	C	0.523834	0.428743	0.181678
C226	C	0.486702	0.466511	0.114325
H227	H	0.521139	0.550029	0.149390
H228	H	0.588348	0.465812	0.149452
H229	H	0.491806	0.441248	0.206864
H230	H	0.558996	0.357024	0.206924
H231	H	0.518733	0.454015	0.089129
H232	H	0.451528	0.538231	0.089072
H233	H	0.464663	0.432880	0.119086
C234	C	0.459190	1.110035	-0.329308
C235	C	0.496171	1.004318	-0.296675
C236	C	0.563650	0.966115	-0.303382
H237	H	0.454659	1.143430	-0.378114
H238	H	0.484415	1.122424	-0.307174
H239	H	0.470952	0.991937	-0.318812
H240	H	0.500722	0.970896	-0.247867
H241	H	0.588875	0.978504	-0.281248
H242	H	0.559112	0.999517	-0.352189
H243	H	0.588753	0.894381	-0.281237
C244	C	0.332925	1.268488	0.077525
C245	C	0.404953	1.218913	0.110046
C246	C	0.411950	1.256690	0.147263
H247	H	0.310889	1.340206	0.045564
H248	H	0.310857	1.256007	0.112684
H249	H	0.427012	1.231403	0.074891
H250	H	0.427004	1.147197	0.142018
H251	H	0.389881	1.244209	0.182423
H252	H	0.389910	1.328408	0.115297
H253	H	0.460820	1.223053	0.169338
C254	C	0.524231	0.794545	-0.621575
C255	C	0.486151	0.882355	-0.621793
C256	C	0.433625	0.882549	-0.591473
H257	H	0.492894	0.794604	-0.648262
H258	H	0.545772	0.735054	-0.574164
H259	H	0.464611	0.941831	-0.669196
H260	H	0.517469	0.882315	-0.595104
H261	H	0.455166	0.823058	-0.544062
H262	H	0.402293	0.882605	-0.618163
H263	H	0.407785	0.942122	-0.591611
H264	H	0.306172	0.963184	-0.067317
H265	H	0.071277	0.625547	0.067336
H266	H	0.826612	0.468221	-0.067371
C267	C	0.177946	1.268680	-0.300831
C268	C	0.170317	1.312246	-0.263658
C269	C	0.102943	1.350231	-0.256703
H270	H	0.142744	1.319427	-0.346529
H271	H	0.172627	1.214136	-0.275616
H272	H	0.175629	1.366784	-0.288874
H273	H	0.205503	1.261519	-0.217954
H274	H	0.097623	1.295687	-0.231488
H275	H	0.067745	1.400975	-0.302404
H276	H	0.097759	1.379787	-0.231475
C277	C	1.089571	0.320223	0.077269
C278	C	1.097248	0.400774	0.050128
C279	C	1.164670	0.362958	0.087138
H280	H	1.094961	0.290592	0.126110
H281	H	1.124710	0.269568	0.071932
H282	H	1.062119	0.451412	0.055472
H283	H	1.091871	0.430413	0.001291
H284	H	1.199809	0.312302	0.081801
H285	H	1.170055	0.333327	0.135978
H286	H	1.169890	0.417603	0.068725
H287	H	0.196198	1.258400	-0.067312
H288	H	0.961308	0.468212	0.192851
H289	H	0.826646	0.468177	0.327573
H290	H	-0.173380	0.963186	-0.067347
H291	H	1.071279	0.330406	0.302787
H292	H	0.728987	0.794351	-0.629798
C293	C	1.075415	0.240721	0.000087
C294	C	1.115706	0.153488	0.069850
C295	C	1.176383	0.077375	0.070006
H296	H	1.061786	0.223419	-0.027285
H297	H	1.102882	0.265564	-0.019751
H298	H	1.088245	0.128648	0.089678
H299	H	1.129354	0.170756	0.097235
H300	H	1.203849	0.102218	0.050168
H301	H	1.162747	0.060082	0.042632
H302	H	1.203731	0.018182	0.117340
H303	H	0.306176	1.120514	-0.192850
H304	H	0.330850	1.258407	-0.437519
H305	H	0.729000	0.794339	-0.739764
H306	H	0.538491	0.794384	-0.370201
C307	C	0.524141	0.794588	-0.252120
C308	C	0.457445	0.882429	-0.301892
C309	C	0.404825	0.882678	-0.271718
H310	H	0.526214	0.735139	-0.238319
H311	H	0.531611	0.794639	-0.211694
H312	H	0.449978	0.882368	-0.342306
H313	H	0.455349	0.941892	-0.315697
H314	H	0.412294	0.882729	-0.231291
H315	H	0.406905	0.823225	-0.257917
H316	H	0.359566	0.942281	-0.305481
C317	C	0.743383	0.793963	-0.251832
C318	C	0.781442	0.706050	-0.182036
C319	C	0.834147	0.705545	-0.151532
H320	H	0.774699	0.793834	-0.278499
H321	H	0.721996	0.853383	-0.251806
H322	H	0.802828	0.646645	-0.182065
H323	H	0.750145	0.706160	-0.155350
H324	H	0.812760	0.764966	-0.151507
H325	H	0.865458	0.705419	-0.178205
H326	H	0.859972	0.645903	-0.104171
H327	H	0.961331	0.468181	0.067324
