data_functionalizedCrystal
_audit_creation_method	'MofGen! by Chris Wilmer'
_symmetry_space_group_name_H-M	'P1'
_symmetry_Int_Tables_number	1
_symmetry_cell_setting	triclinic
loop_
_symmetry_equiv_pos_as_xyz
  x,y,z
_cell_length_a	17.038272
_cell_length_b	13.339070
_cell_length_c	12.376457
_cell_angle_alpha	75.601917
_cell_angle_beta	102.114608
_cell_angle_gamma	103.370425
loop_
_atom_site_label
_atom_site_type_symbol
_atom_site_fract_x
_atom_site_fract_y
_atom_site_fract_z
O1	O	-1.096948	-0.205443	-0.093850
O2	O	-0.868549	-0.201882	-0.093883
O3	O	-0.956536	-0.054143	-0.093867
O4	O	-1.008962	-0.353182	-0.093866
O5	O	-0.934538	-0.091025	0.094141
O6	O	-0.846552	-0.238764	0.094125
O7	O	-1.074951	-0.242325	0.094158
Zn8	Zn	-0.957259	-0.246400	0.123992
Zn9	Zn	-0.986241	-0.197807	-0.123717
O10	O	-0.986965	-0.390064	0.094142
C11	C	-0.936681	-0.034132	0.000134
C12	C	-0.910285	0.080443	0.000126
C13	C	-0.827721	-0.217089	0.000116
C14	C	-0.738835	-0.207441	0.000103
C15	C	-1.115779	-0.227117	0.000156
C16	C	-1.204666	-0.236764	0.000162
C17	C	-0.707950	-0.295998	0.000105
C18	C	-0.624428	-0.286932	0.000120
C19	C	-0.571795	-0.189307	0.000126
C20	C	-0.602685	-0.100744	0.000129
C21	C	-0.686204	-0.109812	0.000121
C22	C	-0.319076	-0.157270	0.000157
C23	C	-0.235552	-0.148207	0.000161
C24	C	-0.257300	-0.334397	0.000154
C25	C	-0.340821	-0.343456	0.000140
C26	C	-0.371703	-0.254894	0.000148
C27	C	-0.486422	-0.180037	0.000139
C28	C	-0.457073	-0.264166	0.000144
C29	C	-1.006819	-0.410075	0.000138
C30	C	-1.033216	-0.524648	0.000139
N31	N	-0.937485	-0.279564	0.293047
C32	C	-1.115532	0.427566	0.000156
C33	C	-1.140335	0.319916	0.000171
C34	C	-1.082824	0.260042	0.000159
C35	C	-1.000508	0.307830	0.000134
C36	C	-0.975702	0.415489	0.000129
C37	C	-0.942994	0.247965	0.000131
C38	C	-0.860677	0.295752	0.000106
C39	C	-0.835875	0.403401	0.000100
C40	C	-0.893386	0.463274	0.000112
C41	C	-0.967800	0.140306	0.000137
C42	C	-0.827969	0.128229	0.000109
C43	C	-0.803167	0.235879	0.000094
N44	N	-1.006020	-0.164636	-0.292771
C45	C	-1.051917	-0.087632	0.648053
C46	C	-1.065753	-0.064420	0.529715
C47	C	-1.033687	-0.118204	0.470542
C48	C	-0.987783	-0.195204	0.529718
C49	C	-0.973952	-0.218424	0.648067
C50	C	-0.955721	-0.248996	0.470557
C51	C	-0.909818	-0.325995	0.529733
C52	C	-0.895988	-0.349211	0.648070
C53	C	-0.928054	-0.295427	0.707243
C54	C	-0.969553	-0.225776	0.352208
C55	C	-0.891587	-0.356567	0.352222
C56	C	-0.877752	-0.379779	0.470560
H57	H	-0.750799	-0.375495	0.000099
N58	N	-0.548911	-0.001031	0.000147
N59	N	-0.474343	0.007056	0.000152
H60	H	-0.436365	0.077480	0.000163
H61	H	-0.873196	0.550934	0.000096
N62	N	-0.769208	0.067100	0.000081
N63	N	-0.695715	0.109777	0.000064
H64	H	-0.654217	0.066600	0.000046
H65	H	-0.599286	-0.359045	0.000120
H66	H	-0.736143	0.274803	0.000075
H67	H	-1.034822	0.101408	0.000157
N68	N	-0.751787	0.452197	0.000091
N69	N	-0.700446	0.398733	0.000081
H70	H	-0.641057	0.433192	0.000075
H71	H	-0.711349	-0.037699	0.000120
N72	N	-0.913923	-0.319119	0.828125
N73	N	-0.942551	-0.271080	0.880937
H74	H	-0.932571	-0.287808	0.966312
H75	H	-1.162347	0.476322	0.000175
N76	N	-0.510836	-0.363881	0.000114
N77	N	-0.518057	-0.409645	-0.079145
H78	H	-0.556034	-0.480069	-0.079171
H79	H	-1.006928	-0.163083	0.304037
H80	H	-1.044954	-0.099301	0.374187
H81	H	-1.103128	-0.001729	0.481539
H82	H	-1.103023	0.172389	0.000171
H83	H	-1.078027	-0.043854	0.696239
H84	H	-0.840377	-0.442474	0.518755
N85	N	-0.849115	-0.427884	0.708501
N86	N	-0.820493	-0.475903	0.655661
H87	H	-0.787390	-0.531469	0.698338
H88	H	-0.865478	-0.400365	0.304045
H89	H	-1.207356	0.281015	0.000193
H90	H	-0.383672	-0.422950	0.000122
H91	H	-0.443555	-0.100556	0.000176
H92	H	-0.232146	-0.406499	0.000150
H93	H	-0.192698	-0.068704	0.000165
H94	H	-0.344209	-0.085156	0.000164
