data_functionalizedCrystal
_audit_creation_method	'MofGen! by Chris Wilmer'
_symmetry_space_group_name_H-M	'P1'
_symmetry_Int_Tables_number	1
_symmetry_cell_setting	triclinic
loop_
_symmetry_equiv_pos_as_xyz
  x,y,z
_cell_length_a	10.654550
_cell_length_b	12.996460
_cell_length_c	14.519731
_cell_angle_alpha	89.998729
_cell_angle_beta	95.913108
_cell_angle_gamma	90.003002
loop_
_atom_site_label
_atom_site_type_symbol
_atom_site_fract_x
_atom_site_fract_y
_atom_site_fract_z
O1	O	1.666613	0.085493	-0.129525
O2	O	1.301017	0.085512	-0.141866
O3	O	1.493495	0.085492	-0.001508
O4	O	1.474136	0.085512	-0.269882
O5	O	1.493470	-0.085641	-0.001517
O6	O	1.300993	-0.085622	-0.141874
O7	O	1.666588	-0.085641	-0.129533
Cu8	Cu	1.483788	-0.101257	-0.135704
Cu9	Cu	1.483818	0.101128	-0.135695
O10	O	1.474111	-0.085622	-0.269890
C11	C	1.254216	-0.000053	-0.140964
C12	C	1.114798	-0.000046	-0.138253
C13	C	1.492575	-0.000075	0.032852
C14	C	1.489857	-0.000075	0.135246
C15	C	1.034527	-0.000043	-0.220893
C16	C	0.903530	-0.000061	-0.218340
C17	C	0.933090	-0.000081	-0.050500
C18	C	1.064084	-0.000070	-0.053053
C19	C	0.706756	-0.060022	-0.315673
C20	C	0.626479	-0.060002	-0.398318
C21	C	0.655942	-0.000022	-0.473235
C22	C	0.765679	0.059961	-0.465510
C23	C	0.845950	0.059950	-0.382864
C24	C	0.816488	-0.000054	-0.307951
C25	C	1.260859	0.059900	0.044274
C26	C	1.341132	0.059896	0.126921
C27	C	1.311673	-0.000077	0.201845
C28	C	1.201933	-0.060045	0.194130
C29	C	1.121660	-0.060041	0.111483
C30	C	1.151128	-0.000070	0.036558
C31	C	1.713390	-0.000074	-0.130435
C32	C	1.852808	-0.000075	-0.133146
N33	N	1.483777	-0.243605	-0.135710
C34	C	1.483783	-0.336711	-0.135713
C35	C	1.483794	-0.453516	-0.135707
C36	C	1.483810	-0.546614	-0.135697
C37	C	1.483823	-0.663427	-0.135691
N38	N	1.483839	0.243475	-0.135681
C39	C	1.475031	-0.000052	-0.304251
C40	C	1.477749	-0.000045	-0.406645
C41	C	1.487648	-0.000073	0.218402
C42	C	1.484889	-0.000065	0.322725
C43	C	1.482698	-0.000058	0.405875
C44	C	1.479939	-0.000052	0.510205
H45	H	1.075814	-0.000031	-0.290268
H46	H	0.935287	0.108798	-0.376571
C47	C	0.877781	-0.000045	0.041907
C48	C	0.745881	-0.000024	0.026458
C49	C	0.694891	0.000026	0.111562
H50	H	0.905183	-0.059709	0.076037
H51	H	0.905250	0.059655	0.075981
H52	H	0.718422	-0.059718	-0.007602
H53	H	0.718444	0.059636	-0.007659
H54	H	0.722361	0.059727	0.145637
H55	H	0.722302	-0.059638	0.145686
H56	H	0.605393	0.000050	0.101092
H57	H	1.377036	-0.000064	0.269144
H58	H	1.430465	0.108758	0.133209
H59	H	1.032305	-0.108876	0.105205
C60	C	0.797476	0.124981	-0.546971
C61	C	0.703710	0.112132	-0.621010
C62	C	0.732973	0.171998	-0.696073
H63	H	0.801838	0.195369	-0.529314
H64	H	0.876570	0.103902	-0.565333
H65	H	0.624638	0.133217	-0.602649
H66	H	0.699335	0.041757	-0.638694
H67	H	0.812067	0.150919	-0.714436
H68	H	0.737335	0.242382	-0.678407
H69	H	0.669365	0.163281	-0.746320
C70	C	1.170188	-0.125133	0.275565
C71	C	1.263990	-0.112323	0.349585
C72	C	1.234799	-0.172270	0.424618
H73	H	1.091120	-0.104119	0.293989
H74	H	1.165845	-0.195510	0.257828
H75	H	1.268319	-0.041961	0.367320
H76	H	1.343066	-0.133343	0.331191
H77	H	1.230456	-0.242648	0.406881
H78	H	1.155730	-0.151252	0.443033
H79	H	1.298444	-0.163594	0.474846
H80	H	0.590572	-0.000007	-0.540526
H81	H	0.537131	-0.108847	-0.404601
H82	H	0.682766	-0.108880	-0.254681
H83	H	1.284861	0.108733	-0.016735
