data_functionalizedCrystal
_audit_creation_method	'MofGen! by Chris Wilmer'
_symmetry_space_group_name_H-M	'P1'
_symmetry_Int_Tables_number	1
_symmetry_cell_setting	triclinic
loop_
_symmetry_equiv_pos_as_xyz
  x,y,z
_cell_length_a	12.827893
_cell_length_b	25.639239
_cell_length_c	12.827885
_cell_angle_alpha	90.035982
_cell_angle_beta	90.019272
_cell_angle_gamma	90.038657
loop_
_atom_site_label
_atom_site_type_symbol
_atom_site_fract_x
_atom_site_fract_y
_atom_site_fract_z
Zn1	Zn	1.597500	-0.208126	0.590804
Zn2	Zn	1.930834	0.125207	0.924137
Zn3	Zn	2.264167	0.458541	1.257470
Zn4	Zn	1.597324	-0.295571	0.416045
Zn5	Zn	1.930657	0.037762	0.749378
Zn6	Zn	2.263990	0.371096	1.082712
Zn7	Zn	1.422742	-0.208151	0.416077
Zn8	Zn	1.756075	0.125182	0.749411
Zn9	Zn	2.089408	0.458515	1.082744
Zn10	Zn	1.422656	-0.295532	0.590745
Zn11	Zn	1.755989	0.037801	0.924078
Zn12	Zn	2.089323	0.371135	1.257412
O13	O	1.510055	-0.251845	0.503418
O14	O	1.843389	0.081488	0.836751
O15	O	2.176722	0.414822	1.170084
O16	O	1.743713	-0.219731	0.567633
O17	O	2.077046	0.113602	0.900966
O18	O	2.410380	0.446935	1.234299
O19	O	1.574127	-0.284002	0.269813
O20	O	1.907460	0.049332	0.603146
O21	O	2.240793	0.382665	0.936480
O22	O	1.446034	-0.134983	0.439293
O23	O	1.779367	0.198351	0.772626
O24	O	2.112701	0.531684	1.105960
O25	O	1.743583	-0.283977	0.439238
O26	O	2.076916	0.049356	0.772571
O27	O	2.410250	0.382690	1.105905
O28	O	1.574428	-0.134964	0.567664
O29	O	1.907762	0.198369	0.900997
O30	O	2.241095	0.531703	1.234330
O31	O	1.445862	-0.219775	0.269837
O32	O	1.779196	0.113559	0.603170
O33	O	2.112529	0.446892	0.936504
O34	O	1.276494	-0.219737	0.439236
O35	O	1.609828	0.113596	0.772570
O36	O	1.943161	0.446930	1.105903
O37	O	1.445888	-0.283911	0.736989
O38	O	1.779221	0.049423	1.070322
O39	O	2.112554	0.382756	1.403656
O40	O	1.276431	-0.283935	0.567564
O41	O	1.609765	0.049398	0.900897
O42	O	1.943098	0.382731	1.234231
O43	O	1.574345	-0.219694	0.737032
O44	O	1.907678	0.113640	1.070365
O45	O	2.241012	0.446973	1.403699
O46	O	1.574044	-0.368731	0.439181
O47	O	1.907377	-0.035398	0.772515
O48	O	2.240710	0.297936	1.105848
O49	O	1.445716	-0.368702	0.567533
O50	O	1.779050	-0.035369	0.900866
O51	O	2.112383	0.297964	1.234199
C52	C	1.238546	-0.251835	0.503398
C53	C	1.571879	0.081498	0.836731
C54	C	1.905212	0.414832	1.170064
C55	C	1.122392	-0.251843	0.503414
C56	C	1.455726	0.081490	0.836747
C57	C	1.789059	0.414823	1.170081
C58	C	1.070604	-0.283660	0.566817
C59	C	1.403937	0.049673	0.900150
C60	C	1.737271	0.383006	1.233483
C61	C	0.950554	-0.283670	0.566835
C62	C	1.283887	0.049664	0.900168
C63	C	1.617220	0.382997	1.233502
C64	C	1.509880	-0.387688	0.503370
C65	C	1.843213	-0.054354	0.836703
C66	C	2.176546	0.278979	1.170037
C67	C	1.509900	-0.445802	0.503384
C68	C	1.843233	-0.112468	0.836718
C69	C	2.176567	0.220865	1.170051
C70	C	1.577050	-0.806167	0.436699
C71	C	1.910383	-0.472834	0.770032
C72	C	2.243717	-0.139500	1.103366
C73	C	1.577090	-0.860771	0.436713
C74	C	1.910424	-0.527438	0.770046
C75	C	2.243757	-0.194105	1.103380
O76	O	1.634001	-0.889010	0.379962
O77	O	1.967335	-0.555677	0.713296
O78	O	2.300668	-0.222343	1.046629
N79	N	1.510239	-0.888084	0.503487
N80	N	1.843572	-0.554751	0.836820
N81	N	2.176906	-0.221417	1.170154
C82	C	1.443350	-0.860790	0.570259
C83	C	1.776684	-0.527456	0.903592
C84	C	2.110017	-0.194123	1.236925
O85	O	1.386493	-0.889035	0.627057
O86	O	1.719826	-0.555702	0.960390
O87	O	2.053159	-0.222369	1.293724
C88	C	1.443316	-0.806186	0.570249
C89	C	1.776649	-0.472853	0.903583
C90	C	2.109983	-0.139520	1.236916
C91	C	1.510164	-0.778876	0.503463
C92	C	1.843498	-0.445543	0.836797
C93	C	2.176831	-0.112210	1.170130
C94	C	1.643893	-0.778857	0.369920
C95	C	1.977227	-0.445524	0.703253
C96	C	2.310560	-0.112190	1.036586
C97	C	1.643851	-0.724256	0.369904
C98	C	1.977185	-0.390923	0.703238
C99	C	2.310518	-0.057590	1.036571
C100	C	1.576966	-0.696966	0.436669
C101	C	1.910299	-0.363633	0.770002
C102	C	2.243632	-0.030299	1.103336
C103	C	1.510122	-0.724276	0.503448
C104	C	1.843455	-0.390943	0.836782
C105	C	2.176789	-0.057609	1.170115
C106	C	1.376433	-0.778893	0.637026
C107	C	1.709767	-0.445560	0.970359
C108	C	2.043100	-0.112226	1.303692
C109	C	1.376405	-0.724286	0.637011
C110	C	1.709739	-0.390953	0.970344
C111	C	2.043072	-0.057619	1.303678
C112	C	1.443253	-0.696976	0.570225
C113	C	1.776587	-0.363643	0.903558
C114	C	2.109920	-0.030309	1.236892
C115	C	1.443194	-0.642385	0.570198
C116	C	1.776528	-0.309052	0.903531
C117	C	2.109861	0.024282	1.236864
N118	N	1.510045	-0.615072	0.503424
N119	N	1.843379	-0.281739	0.836757
N120	N	2.176712	0.051595	1.170090
C121	C	1.576931	-0.642363	0.436659
C122	C	1.910265	-0.309029	0.769993
C123	C	2.243598	0.024304	1.103326
C124	C	1.443429	-0.975460	0.570275
C125	C	1.776763	-0.642127	0.903608
C126	C	2.110096	-0.308794	1.236942
C127	C	1.443458	-1.030063	0.570280
C128	C	1.776791	-0.696729	0.903613
C129	C	2.110124	-0.363396	1.236947
C130	C	1.577199	-1.030040	0.436735
C131	C	1.910533	-0.696707	0.770069
C132	C	2.243866	-0.363374	1.103402
C133	C	1.577165	-0.975437	0.436726
C134	C	1.910498	-0.642104	0.770059
C135	C	2.243831	-0.308770	1.103392
C136	C	1.510281	-0.948148	0.503501
C137	C	1.843614	-0.614814	0.836834
C138	C	2.176947	-0.281481	1.170168
C139	C	1.576837	-0.527698	0.436632
C140	C	1.910170	-0.194364	0.769965
C141	C	2.243504	0.138969	1.103299
C142	C	1.576786	-0.473092	0.436620
C143	C	1.910119	-0.139759	0.769953
C144	C	2.243453	0.193574	1.103287
C145	C	1.443049	-0.473119	0.570168
C146	C	1.776382	-0.139786	0.903501
C147	C	2.109715	0.193547	1.236835
C148	C	1.443095	-0.527720	0.570177
C149	C	1.776429	-0.194386	0.903510
C150	C	2.109762	0.138947	1.236843
C151	C	1.509998	-0.555008	0.503405
C152	C	1.843331	-0.221674	0.836739
C153	C	2.176665	0.111659	1.170072
O154	O	1.386315	-0.614112	0.626923
O155	O	1.719649	-0.280778	0.960256
O156	O	2.052982	0.052555	1.293589
O157	O	1.633789	-0.614110	0.379880
O158	O	1.967122	-0.280777	0.713214
O159	O	2.300456	0.052556	1.046547
C160	C	1.782626	-0.251856	0.503438
C161	C	2.115959	0.081478	0.836772
C162	C	2.449292	0.414811	1.170105
C163	C	1.898779	-0.251860	0.503447
C164	C	2.232112	0.081473	0.836780
C165	C	2.565445	0.414807	1.170114
C166	C	1.510127	-0.251795	0.775988
C167	C	1.843460	0.081538	1.109321
C168	C	2.176793	0.414872	1.442655
C169	C	1.510157	-0.251773	0.892141
C170	C	1.843490	0.081560	1.225475
C171	C	2.176824	0.414893	1.558808
C172	C	1.510260	-0.115472	0.503489
C173	C	1.843594	0.217861	0.836822
C174	C	2.176927	0.551195	1.170155
C175	C	1.510348	-0.057358	0.503519
C176	C	1.843681	0.275975	0.836852
C177	C	2.177014	0.609309	1.170185
C178	C	1.510045	-0.251857	0.231908
C179	C	1.843378	0.081476	0.565241
C180	C	2.176711	0.414809	0.898574
C181	C	1.510217	-0.251731	0.115755
C182	C	1.843550	0.081602	0.449089
C183	C	2.176884	0.414935	0.782422
C184	C	1.573729	-0.219991	0.943947
C185	C	1.907062	0.113343	1.277281
C186	C	2.240395	0.446676	1.610614
C187	C	1.573761	-0.219968	1.063998
C188	C	1.907095	0.113366	1.397331
C189	C	2.240428	0.446699	1.730664
H190	H	1.077854	-0.224608	0.449151
H191	H	1.411187	0.108725	0.782484
H192	H	1.744520	0.442058	1.115817
H193	H	1.115143	-0.310891	0.621088
H194	H	1.448476	0.022442	0.954421
H195	H	1.781810	0.355776	1.287755
H196	H	0.906017	-0.310911	0.621113
H197	H	1.239350	0.022423	0.954447
H198	H	1.572684	0.355756	1.287780
F199	F	0.956981	-0.216256	0.432486
F200	F	1.290314	0.117078	0.765820
F201	F	1.623647	0.450411	1.099153
F202	F	1.647937	-0.444030	0.365534
F203	F	1.981271	-0.110697	0.698867
F204	F	2.314604	0.222637	1.032200
H205	H	1.698366	-0.801071	0.315552
H206	H	2.031699	-0.467738	0.648885
H207	H	2.365032	-0.134405	0.982218
H208	H	1.455748	-0.278964	0.936665
H209	H	1.789082	0.054370	1.269998
H210	H	2.122415	0.387703	1.603332
H211	H	1.631318	-0.549909	0.382263
H212	H	1.964651	-0.216576	0.715596
H213	H	2.297984	0.116758	1.048930
F214	F	1.715013	-0.695198	0.298833
F215	F	2.048346	-0.361865	0.632167
F216	F	2.381680	-0.028531	0.965500
F217	F	1.372230	-0.946421	0.641344
F218	F	1.705563	-0.613088	0.974677
F219	F	2.038897	-0.279755	1.308011
F220	F	1.371930	-0.556786	0.641238
F221	F	1.705263	-0.223453	0.974571
F222	F	2.038596	0.109881	1.307904
F223	F	1.439078	-0.287303	1.057533
F224	F	1.772411	0.046030	1.390867
F225	F	2.105745	0.379364	1.724200
F226	F	1.648313	-0.946377	0.365645
F227	F	1.981647	-0.613043	0.698978
F228	F	2.314980	-0.279710	1.032311
F229	F	1.648384	-1.059095	0.365676
F230	F	1.981717	-0.725761	0.699010
F231	F	2.315051	-0.392428	1.032343
F232	F	1.371871	-0.444065	0.641223
F233	F	1.705204	-0.110732	0.974556
F234	F	2.038537	0.222602	1.307889
F235	F	1.372297	-1.059122	0.641351
F236	F	1.705630	-0.725789	0.974684
F237	F	2.038964	-0.392455	1.308017
H238	H	1.628191	-0.192759	1.108550
H239	H	1.961524	0.140574	1.441883
H240	H	2.294858	0.473908	1.775216
F241	F	1.305292	-0.807947	0.708118
F242	F	1.638625	-0.474613	1.041452
F243	F	1.971959	-0.141280	1.374785
F244	F	1.305218	-0.695246	0.708086
F245	F	1.638551	-0.361912	1.041420
F246	F	1.971884	-0.028579	1.374753
H247	H	1.628127	-0.192795	0.899424
H248	H	1.961460	0.140538	1.232757
H249	H	2.294793	0.473871	1.566090
