data_functionalizedCrystal
_audit_creation_method	'MofGen! by Chris Wilmer'
_symmetry_space_group_name_H-M	'P1'
_symmetry_Int_Tables_number	1
_symmetry_cell_setting	triclinic
loop_
_symmetry_equiv_pos_as_xyz
  x,y,z
_cell_length_a	27.731993
_cell_length_b	17.038272
_cell_length_c	16.098538
_cell_angle_alpha	87.079695
_cell_angle_beta	87.296179
_cell_angle_gamma	93.134026
loop_
_atom_site_label
_atom_site_type_symbol
_atom_site_fract_x
_atom_site_fract_y
_atom_site_fract_z
O1	O	0.647202	-0.089272	-0.069031
O2	O	0.980535	0.244062	0.264302
O3	O	1.313868	0.577395	0.597635
O4	O	0.507055	-0.103452	-0.069082
O5	O	0.840388	0.229882	0.264251
O6	O	1.173721	0.563215	0.597585
O7	O	0.576295	0.017443	-0.069050
O8	O	0.909628	0.350777	0.264283
O9	O	1.242962	0.684110	0.597616
O10	O	0.577961	-0.210167	-0.069063
O11	O	0.911295	0.123166	0.264271
O12	O	1.244628	0.456500	0.597604
O13	O	0.572249	0.010409	0.069461
O14	O	0.905582	0.343742	0.402794
O15	O	1.238916	0.677075	0.736127
O16	O	0.503009	-0.110486	0.069429
O17	O	0.836342	0.222847	0.402763
O18	O	1.169675	0.556180	0.736096
O19	O	0.643156	-0.096306	0.069480
O20	O	0.976489	0.237027	0.402813
O21	O	1.309822	0.570360	0.736147
Zn22	Zn	0.572440	-0.104513	0.091446
Zn23	Zn	0.905773	0.228820	0.424779
Zn24	Zn	1.239107	0.562153	0.758113
Zn25	Zn	0.577770	-0.095245	-0.091048
Zn26	Zn	0.911104	0.238088	0.242285
Zn27	Zn	1.244437	0.571422	0.575619
O28	O	0.573915	-0.217201	0.069448
O29	O	0.907249	0.116132	0.402782
O30	O	1.240582	0.449465	0.736115
C31	C	0.487011	-0.106678	0.000167
C32	C	0.820344	0.226656	0.333501
C33	C	1.153678	0.559989	0.666834
C34	C	0.433315	-0.105800	0.000148
C35	C	0.766649	0.227533	0.333481
C36	C	1.099982	0.560867	0.666815
C37	C	0.052069	-0.095613	-0.075314
C38	C	0.385402	0.237720	0.258020
C39	C	0.718735	0.571053	0.591353
C40	C	0.253880	-0.098954	-0.075336
C41	C	0.587213	0.234380	0.257997
C42	C	0.920546	0.567713	0.591330
O43	O	0.281847	-0.096093	-0.139550
O44	O	0.615180	0.237240	0.193783
O45	O	0.948513	0.570574	0.527117
N46	N	0.276914	-0.103206	0.000164
N47	N	0.610247	0.230127	0.333498
N48	N	0.943580	0.563460	0.666831
C49	C	0.249492	-0.106619	0.075676
C50	C	0.582825	0.226714	0.409009
C51	C	0.916159	0.560048	0.742343
O52	O	0.273715	-0.110304	0.139893
O53	O	0.607048	0.223029	0.473227
O54	O	0.940381	0.556362	0.806560
C55	C	0.047682	-0.103273	0.075698
C56	C	0.381015	0.230061	0.409031
C57	C	0.714349	0.563394	0.742364
C58	C	0.024651	-0.099028	0.000192
C59	C	0.357984	0.234305	0.333526
C60	C	0.691317	0.567639	0.666859
C61	C	0.029037	-0.091368	-0.150813
C62	C	0.362370	0.241965	0.182520
C63	C	0.695703	0.575299	0.515854
C64	C	-0.021413	-0.090537	-0.150807
C65	C	0.311920	0.242796	0.182527
C66	C	0.645254	0.576130	0.515860
C67	C	-0.048831	-0.093952	-0.075301
C68	C	0.284502	0.239382	0.258033
C69	C	0.617835	0.572715	0.591366
C70	C	-0.025799	-0.098197	0.000199
C71	C	0.307534	0.235136	0.333532
C72	C	0.640867	0.568469	0.666865
C73	C	0.020262	-0.106680	0.151209
C74	C	0.353595	0.226654	0.484542
C75	C	0.686928	0.559987	0.817875
C76	C	-0.030194	-0.105841	0.151207
C77	C	0.303140	0.227493	0.484541
C78	C	0.636473	0.560826	0.817874
C79	C	-0.053225	-0.101596	0.075702
C80	C	0.280108	0.231737	0.409035
C81	C	0.613441	0.565071	0.742368
C82	C	-0.103667	-0.100781	0.075711
C83	C	0.229666	0.232552	0.409044
C84	C	0.562999	0.565886	0.742378
N85	N	-0.126701	-0.096529	0.000210
N86	N	0.206632	0.236805	0.333544
N87	N	0.539965	0.570138	0.666877
C88	C	-0.099283	-0.093114	-0.075296
C89	C	0.234050	0.240219	0.258038
C90	C	0.567383	0.573553	0.591371
C91	C	0.355445	-0.108377	0.075659
C92	C	0.688778	0.224956	0.408992
C93	C	1.022112	0.558290	0.742326
C94	C	0.405897	-0.109215	0.075654
C95	C	0.739230	0.224119	0.408987
C96	C	1.072564	0.557452	0.742320
C97	C	0.410281	-0.101548	-0.075359
C98	C	0.743615	0.231785	0.257974
C99	C	1.076948	0.565119	0.591308
C100	C	0.359828	-0.100716	-0.075353
C101	C	0.693161	0.232618	0.257981
C102	C	1.026495	0.565951	0.591314
C103	C	0.332411	-0.104124	0.000158
C104	C	0.665744	0.229209	0.333492
C105	C	0.999078	0.562542	0.666825
C106	C	-0.205232	-0.091370	-0.075276
C107	C	0.128101	0.241963	0.258057
C108	C	0.461435	0.575296	0.591390
C109	C	-0.255687	-0.090543	-0.075263
C110	C	0.077647	0.242790	0.258070
C111	C	0.410980	0.576124	0.591404
C112	C	-0.260066	-0.098206	0.075749
C113	C	0.073267	0.235128	0.409082
C114	C	0.406600	0.568461	0.742416
C115	C	-0.209616	-0.099037	0.075736
C116	C	0.123717	0.234296	0.409070
C117	C	0.457050	0.567630	0.742403
C118	C	-0.182200	-0.095616	0.000217
C119	C	0.151133	0.237717	0.333550
C120	C	0.484467	0.571050	0.666884
O121	O	-0.131664	-0.103631	0.139891
O122	O	0.201669	0.229703	0.473224
O123	O	0.535002	0.563036	0.806557
O124	O	-0.123514	-0.089411	-0.139503
O125	O	0.209819	0.243922	0.193830
O126	O	0.543152	0.577256	0.527163
C127	C	0.102519	-0.096444	-0.075320
C128	C	0.435852	0.236889	0.258013
C129	C	0.769185	0.570223	0.591347
C130	C	0.125550	-0.100689	0.000179
C131	C	0.458884	0.232644	0.333513
C132	C	0.792217	0.565977	0.666846
C133	C	0.098132	-0.104104	0.075685
C134	C	0.431466	0.229229	0.409019
C135	C	0.764799	0.562563	0.742352
C136	C	0.176002	-0.101527	0.000174
C137	C	0.509336	0.231806	0.333507
C138	C	0.842669	0.565139	0.666841
C139	C	0.203421	-0.098113	-0.075332
C140	C	0.536754	0.235221	0.258001
C141	C	0.870087	0.568554	0.591335
C142	C	0.180387	-0.093860	-0.150833
C143	C	0.513720	0.239473	0.182501
C144	C	0.847053	0.572807	0.515834
C145	C	0.129937	-0.093029	-0.150826
C146	C	0.463270	0.240304	0.182507
C147	C	0.796603	0.573637	0.515841
C148	C	0.121166	-0.108357	0.151186
C149	C	0.454500	0.224977	0.484519
C150	C	0.787833	0.558310	0.817853
C151	C	0.171616	-0.109188	0.151173
C152	C	0.504950	0.224145	0.484507
C153	C	0.838283	0.557479	0.817840
C154	C	0.199034	-0.105773	0.075667
C155	C	0.532368	0.227560	0.409001
C156	C	0.865701	0.560893	0.742334
C157	C	0.572757	0.043036	0.000205
C158	C	0.906090	0.376369	0.333538
C159	C	1.239424	0.709703	0.666871
C160	C	0.568236	0.129775	0.000203
C161	C	0.901570	0.463108	0.333536
C162	C	1.234903	0.796442	0.666869
C163	C	0.663199	-0.093080	0.000229
C164	C	0.996533	0.240253	0.333562
C165	C	1.329866	0.573586	0.666896
C166	C	0.716895	-0.093958	0.000243
C167	C	1.050229	0.239376	0.333576
C168	C	1.383562	0.572709	0.666909
C169	C	0.577453	-0.242794	0.000192
C170	C	0.910787	0.090539	0.333525
C171	C	1.244120	0.423872	0.666858
C172	C	0.581974	-0.329533	0.000188
C173	C	0.915307	0.003801	0.333521
C174	C	1.248641	0.337134	0.666855
N175	N	0.568805	-0.110838	0.215994
N176	N	0.902139	0.222495	0.549327
N177	N	1.235472	0.555828	0.882660
C178	C	0.609739	0.180385	0.000219
C179	C	0.943073	0.513719	0.333552
C180	C	1.276406	0.847052	0.666885
C181	C	0.605489	0.261885	0.000209
C182	C	0.938823	0.595219	0.333543
C183	C	1.272156	0.928552	0.666876
C184	C	0.559736	0.292773	0.000190
C185	C	0.893069	0.626107	0.333523
C186	C	1.226402	0.959440	0.666857
C187	C	0.518230	0.242157	0.000171
C188	C	0.851563	0.575490	0.333505
C189	C	1.184897	0.908823	0.666838
C190	C	0.522481	0.160658	0.000175
C191	C	0.855814	0.493992	0.333508
C192	C	1.189147	0.827325	0.666842
C193	C	0.544719	0.538352	0.000173
C194	C	0.878052	0.871686	0.333506
C195	C	1.211386	1.205019	0.666840
C196	C	0.540471	0.619857	0.000172
C197	C	0.873805	0.953190	0.333505
C198	C	1.207138	1.286524	0.666839
C199	C	0.627731	0.639580	0.000208
C200	C	0.961064	0.972913	0.333542
C201	C	1.294398	1.306247	0.666875
C202	C	0.631978	0.558079	0.000217
C203	C	0.965311	0.891412	0.333550
C204	C	1.298644	1.224746	0.666883
C205	C	0.590472	0.507470	0.000194
C206	C	0.923805	0.840803	0.333527
C207	C	1.257139	1.174137	0.666861
C208	C	0.555390	0.376079	0.000183
C209	C	0.888724	0.709413	0.333516
C210	C	1.222057	1.042746	0.666849
C211	C	0.594818	0.424166	0.000195
C212	C	0.928151	0.757499	0.333528
C213	C	1.261485	1.090833	0.666862
N214	N	0.581408	-0.088914	-0.215596
N215	N	0.914742	0.244420	0.117738
N216	N	1.248075	0.577753	0.451071
C217	C	0.598206	-0.059543	0.259592
C218	C	0.931539	0.273790	0.592926
C219	C	1.264873	0.607123	0.926259
C220	C	0.595668	-0.063975	0.346780
C221	C	0.929002	0.269358	0.680113
C222	C	1.262335	0.602691	1.013447
C223	C	0.563732	-0.119706	0.390368
C224	C	0.897066	0.213627	0.723701
C225	C	1.230399	0.546960	1.057034
C226	C	0.534328	-0.171003	0.346763
C227	C	0.867662	0.162330	0.680096
C228	C	1.200995	0.495663	1.013430
C229	C	0.536864	-0.166567	0.259577
C230	C	0.870197	0.166766	0.592910
C231	C	1.203531	0.500099	0.926244
C232	C	0.554540	-0.135775	0.653614
C233	C	0.887873	0.197559	0.986947
C234	C	1.221207	0.530892	1.320280
C235	C	0.552008	-0.140209	0.740806
C236	C	0.885341	0.193125	1.074139
C237	C	1.218674	0.526458	1.407472
C238	C	0.613348	-0.033179	0.740817
C239	C	0.946681	0.300154	1.074150
C240	C	1.280014	0.633488	1.407483
C241	C	0.615882	-0.028751	0.653629
C242	C	0.949216	0.304583	0.986962
C243	C	1.282549	0.637916	1.320295
C244	C	0.586477	-0.080045	0.610032
C245	C	0.919810	0.253288	0.943365
C246	C	1.253143	0.586622	1.276698
C247	C	0.561139	-0.124239	0.479488
C248	C	0.894472	0.209094	0.812821
C249	C	1.227805	0.542427	1.146154
C250	C	0.589068	-0.075508	0.520913
C251	C	0.922401	0.257826	0.854247
C252	C	1.255735	0.591159	1.187580
H253	H	0.341079	-0.097259	-0.136836
H254	H	0.674413	0.236074	0.196497
H255	H	1.007746	0.569407	0.529831
F256	F	0.527151	-0.183553	0.525882
F257	F	0.860484	0.149780	0.859215
F258	F	1.193818	0.483113	1.192548
H259	H	0.641887	0.016630	0.618141
H260	H	0.975221	0.349963	0.951475
H261	H	1.308554	0.683296	1.284808
H262	H	0.646997	0.155243	0.000240
H263	H	0.980330	0.488576	0.333573
H264	H	1.313663	0.821910	0.666906
H265	H	-0.282399	-0.100989	0.137224
H266	H	0.050934	0.232344	0.470557
H267	H	0.384267	0.565678	0.803891
F268	F	0.105431	-0.088511	-0.231190
F269	F	0.438764	0.244823	0.102143
F270	F	0.772098	0.578156	0.435476
F271	F	0.044763	-0.111198	0.231574
F272	F	0.378096	0.222135	0.564907
F273	F	0.711429	0.555469	0.898240
H274	H	-0.274436	-0.087089	-0.136752
H275	H	0.058897	0.246245	0.196582
H276	H	0.392230	0.579578	0.529915
H277	H	-0.190864	-0.102509	0.137219
H278	H	0.142470	0.230824	0.470553
H279	H	0.475803	0.564158	0.803886
F280	F	0.644640	0.021410	0.787221
F281	F	0.977973	0.354744	1.120554
F282	F	1.311307	0.688077	1.453888
H283	H	0.661523	0.680795	0.000225
H284	H	0.994856	1.014128	0.333559
H285	H	1.328189	1.347461	0.666892
H286	H	0.619608	-0.022207	0.382277
H287	H	0.952942	0.311127	0.715611
H288	H	1.286275	0.644460	1.048944
H289	H	0.510922	0.497155	0.000155
H290	H	0.844255	0.830489	0.333488
H291	H	1.177588	1.163822	0.666821
H292	H	0.202719	-0.091084	-0.212312
H293	H	0.536052	0.242249	0.121021
H294	H	0.869386	0.575582	0.454354
H295	H	0.526000	-0.185595	0.776291
H296	H	0.859334	0.147739	1.109624
H297	H	1.192667	0.481072	1.442958
H298	H	0.624214	-0.014165	0.224109
H299	H	0.957547	0.319169	0.557442
H300	H	1.290881	0.652502	0.890775
H301	H	0.530598	-0.177542	0.618124
H302	H	0.863931	0.155791	0.951457
H303	H	1.197264	0.489125	1.284790
H304	H	0.508323	-0.216378	0.382257
H305	H	0.841656	0.116955	0.715591
H306	H	1.174989	0.450288	1.048924
F307	F	0.058210	-0.087731	-0.231184
F308	F	0.391543	0.245602	0.102149
F309	F	0.724877	0.578936	0.435483
H310	H	0.432614	-0.098770	-0.136839
H311	H	0.765947	0.234563	0.196495
H312	H	1.099280	0.567896	0.529828
H313	H	-0.182915	-0.088586	-0.136771
H314	H	0.150418	0.244747	0.196562
H315	H	0.483751	0.578081	0.529895
H316	H	-0.040161	-0.087077	-0.212291
H317	H	0.293173	0.246256	0.121042
H318	H	0.626506	0.579590	0.454375
H319	H	0.480976	0.267312	0.000150
H320	H	0.814310	0.600645	0.333484
H321	H	1.147643	0.933979	0.666817
F322	F	0.430403	-0.113748	0.156017
F323	F	0.763736	0.219586	0.489350
F324	F	1.097070	0.552919	0.822684
F325	F	0.505570	-0.221161	0.213177
F326	F	0.838903	0.112173	0.546511
F327	F	1.172237	0.445506	0.879844
F328	F	0.506697	0.408960	0.000159
F329	F	0.840031	0.742293	0.333492
F330	F	1.173364	1.075627	0.666825
F331	F	0.623054	-0.016194	0.474523
F332	F	0.956387	0.317140	0.807857
F333	F	1.289721	0.650473	1.141190
F334	F	0.478307	0.106795	0.000156
F335	F	0.811641	0.440128	0.333489
F336	F	1.144974	0.773462	0.666822
H337	H	-0.052515	-0.108623	0.212699
H338	H	0.280819	0.224710	0.546033
H339	H	0.614152	0.558043	0.879366
F340	F	0.326271	-0.112013	0.156034
F341	F	0.659604	0.221320	0.489367
F342	F	0.992938	0.554653	0.822701
H343	H	0.190364	-0.112651	0.212664
H344	H	0.523697	0.220682	0.545997
H345	H	0.857030	0.554015	0.879330
F346	F	0.649663	0.315746	0.000228
F347	F	0.982996	0.649079	0.333561
F348	F	1.316329	0.982412	0.666894
F349	F	0.091992	-0.111997	0.231554
F350	F	0.425325	0.221336	0.564887
F351	F	0.758659	0.554670	0.898221
F352	F	0.680675	0.525214	0.000216
F353	F	1.014009	0.858547	0.333550
F354	F	1.347342	1.191880	0.666883
H355	H	0.632071	0.399014	0.000192
H356	H	0.965404	0.732348	0.333526
H357	H	1.298737	1.065681	0.666859
H358	H	0.503211	0.645001	0.000170
H359	H	0.836544	0.978334	0.333503
H360	H	1.169878	1.311668	0.666836
