data_functionalizedCrystal
_audit_creation_method	'MofGen! by Chris Wilmer'
_symmetry_space_group_name_H-M	'P1'
_symmetry_Int_Tables_number	1
_symmetry_cell_setting	triclinic
loop_
_symmetry_equiv_pos_as_xyz
  x,y,z
_cell_length_a	19.121424
_cell_length_b	19.121063
_cell_length_c	12.759393
_cell_angle_alpha	92.402917
_cell_angle_beta	92.411999
_cell_angle_gamma	94.804615
loop_
_atom_site_label
_atom_site_type_symbol
_atom_site_fract_x
_atom_site_fract_y
_atom_site_fract_z
Zn1	Zn	1.063725	-0.234159	-0.541317
Zn2	Zn	1.058607	-0.351846	-0.373451
Zn3	Zn	0.946055	-0.239219	-0.373453
Zn4	Zn	0.941005	-0.356812	-0.556879
O5	O	1.002348	-0.295509	-0.461275
O6	O	1.161508	-0.245574	-0.512537
O7	O	1.043649	-0.336945	-0.226435
O8	O	0.965920	-0.140082	-0.389208
O9	O	1.157748	-0.332038	-0.389206
O10	O	1.052371	-0.136364	-0.512538
O11	O	0.960957	-0.254198	-0.226436
O12	O	0.846923	-0.259014	-0.404298
O13	O	0.957312	-0.340503	-0.701831
O14	O	0.843213	-0.345409	-0.539060
O15	O	1.047474	-0.250390	-0.690398
O16	O	1.038752	-0.450970	-0.404295
O17	O	0.952350	-0.454619	-0.539059
C18	C	0.819538	-0.303300	-0.473368
C19	C	0.741330	-0.306650	-0.478568
C20	C	0.298908	-0.327834	-0.511571
C21	C	0.372392	-0.324691	-0.506666
C22	C	0.411046	-0.278066	-0.434157
C23	C	0.376212	-0.234586	-0.366541
C24	C	0.302729	-0.237732	-0.371442
C25	C	0.633013	-0.266316	-0.415852
C26	C	0.706501	-0.263171	-0.410959
C27	C	0.702676	-0.353278	-0.551083
C28	C	0.629192	-0.356417	-0.555981
C29	C	0.594364	-0.312939	-0.488362
C30	C	0.486159	-0.274852	-0.429144
C31	C	0.519253	-0.316158	-0.493370
C32	C	0.994467	-0.478325	-0.473387
C33	C	0.991159	-0.556532	-0.478600
C34	C	1.034625	-0.591349	-0.410938
C35	C	1.031519	-0.664833	-0.415846
C36	C	0.984942	-0.703498	-0.488412
C37	C	0.941475	-0.668675	-0.556081
C38	C	0.944585	-0.595193	-0.551177
C39	C	0.973302	-0.925463	-0.506730
C40	C	0.970193	-0.998951	-0.511627
C41	C	1.060239	-0.995103	-0.371393
C42	C	1.063342	-0.921619	-0.366491
C43	C	1.019877	-0.886803	-0.434164
C44	C	0.981765	-0.778610	-0.493428
C45	C	1.023059	-0.811692	-0.429152
C46	C	1.185872	-0.287688	-0.449135
C47	C	1.264079	-0.284355	-0.443962
C48	C	1.002400	-0.295436	-0.735301
C49	C	1.002423	-0.295405	-0.852074
C50	C	1.010279	-0.111978	-0.449137
C51	C	1.013659	-0.033768	-0.443965
C52	C	1.049376	-0.248478	-0.900984
C53	C	1.049394	-0.248452	-1.010705
C54	C	0.955502	-0.342285	-1.022597
C55	C	0.955482	-0.342307	-0.912878
C56	C	1.096317	-0.201576	-0.840180
C57	C	1.143275	-0.154646	-0.889089
C58	C	1.143293	-0.154620	-0.998811
C59	C	1.096353	-0.201523	-1.059622
C60	C	1.002339	-0.295529	-0.188310
C61	C	1.002461	-0.295356	-0.071515
H62	H	0.400746	-0.360098	-0.561718
C63	C	0.903880	-0.393885	-1.089487
C64	C	0.852234	-0.445508	-1.035688
C65	C	0.800615	-0.497113	-1.102576
C66	C	0.800642	-0.497095	-1.223263
C67	C	0.852291	-0.445470	-1.277069
C68	C	0.903910	-0.393865	-1.210181
H69	H	0.852212	-0.445523	-0.946342
H70	H	0.762381	-0.535329	-1.062745
H71	H	0.762431	-0.535296	-1.272777
H72	H	0.852313	-0.445455	-1.366414
H73	H	0.942143	-0.355649	-1.250012
H74	H	1.096309	-0.201593	-0.750838
C75	C	1.194905	-0.103053	-0.822202
C76	C	1.194891	-0.103079	-0.701515
C77	C	1.246522	-0.051485	-0.634630
C78	C	1.298168	0.000137	-0.688434
C79	C	1.298185	0.000165	-0.809128
C80	C	1.246553	-0.051430	-0.876012
H81	H	1.156658	-0.141294	-0.661681
H82	H	1.246510	-0.051506	-0.545285
H83	H	1.336389	0.038330	-0.638922
H84	H	1.336418	0.038380	-0.848962
H85	H	1.246566	-0.051408	-0.965358
C86	C	0.930530	-0.821147	-0.573245
C87	C	0.873172	-0.874097	-0.534676
C88	C	0.821941	-0.916638	-0.614496
C89	C	0.828069	-0.906228	-0.732885
C90	C	0.885429	-0.853274	-0.771460
C91	C	0.936660	-0.810734	-0.691640
H92	H	0.868634	-0.881806	-0.447032
H93	H	0.779479	-0.955837	-0.585939
H94	H	0.790145	-0.937718	-0.791973
H95	H	0.889967	-0.845566	-0.859104
H96	H	0.979122	-0.771535	-0.720197
H97	H	1.181523	-0.116403	-1.038630
H98	H	1.096363	-0.201490	-1.148965
H99	H	0.737972	-0.225195	-0.351920
C100	C	0.903841	-0.393927	-0.859057
C101	C	0.824102	-0.391597	-0.879037
C102	C	0.772461	-0.443216	-0.825209
C103	C	0.800560	-0.497166	-0.751402
C104	C	0.880303	-0.499498	-0.731419
C105	C	0.931944	-0.447879	-0.785246
H106	H	0.803298	-0.351659	-0.933676
H107	H	0.713430	-0.441489	-0.840003
H108	H	0.762332	-0.535377	-0.711556
H109	H	0.901107	-0.539437	-0.676779
H110	H	0.990975	-0.449606	-0.770453
C111	C	1.074292	-0.769163	-0.349331
C112	C	1.045960	-0.720014	-0.265468
C113	C	1.097191	-0.677477	-0.185645
C114	C	1.176753	-0.684089	-0.189684
C115	C	1.205088	-0.733239	-0.273550
C116	C	1.153858	-0.775776	-0.353373
H117	H	0.987060	-0.715118	-0.262476
H118	H	1.076214	-0.641093	-0.123562
H119	H	1.214677	-0.652600	-0.130593
H120	H	1.263989	-0.738135	-0.276543
H121	H	1.174834	-0.812161	-0.415457
H122	H	0.267441	-0.365797	-0.570621
H123	H	0.597724	-0.394386	-0.615024
H124	H	0.731041	-0.388676	-0.606134
C125	C	0.890242	-0.711207	-0.635906
C126	C	0.832875	-0.764151	-0.597345
C127	C	0.781640	-0.806681	-0.677171
C128	C	0.787773	-0.796267	-0.795558
C129	C	0.845143	-0.743320	-0.834126
C130	C	0.896377	-0.700790	-0.754300
H131	H	0.828332	-0.771862	-0.509702
H132	H	0.739171	-0.845875	-0.648620
H133	H	0.749846	-0.827750	-0.854650
H134	H	0.849685	-0.735609	-0.921768
H135	H	0.938846	-0.661596	-0.782850
C136	C	1.108052	-1.033402	-0.296964
C137	C	1.102779	-1.023613	-0.177228
C138	C	1.150596	-1.061912	-0.102798
C139	C	1.203687	-1.110000	-0.148103
C140	C	1.208962	-1.119791	-0.267845
C141	C	1.161145	-1.081492	-0.342275
H142	H	1.063476	-0.988013	-0.143685
H143	H	1.146691	-1.054664	-0.014156
H144	H	1.239084	-1.138351	-0.093005
H145	H	1.248265	-1.155391	-0.301388
H146	H	1.165050	-1.088741	-0.430916
H147	H	0.274373	-0.202325	-0.316390
H148	H	0.407690	-0.196626	-0.307498
C149	C	0.594717	-0.218493	-0.341459
C150	C	0.608267	-0.138076	-0.344243
C151	C	0.569971	-0.090253	-0.269837
C152	C	0.518125	-0.122847	-0.192647
C153	C	0.504573	-0.203268	-0.189860
C154	C	0.542869	-0.251091	-0.264266
H155	H	0.646648	-0.113944	-0.401386
H156	H	0.580003	-0.030720	-0.271901
H157	H	0.489776	-0.087445	-0.137568
H158	H	0.466191	-0.227399	-0.132717
H159	H	0.532836	-0.310624	-0.262202
C160	C	0.476735	-0.367444	-0.573130
C161	C	0.483387	-0.446996	-0.568990
C162	C	0.440862	-0.498280	-0.648753
C163	C	0.391686	-0.470010	-0.732656
C164	C	0.385032	-0.390453	-0.736798
C165	C	0.427557	-0.339170	-0.657035
H166	H	0.519792	-0.467927	-0.506878
H167	H	0.445788	-0.557173	-0.645686
H168	H	0.360207	-0.507973	-0.791701
H169	H	0.348627	-0.369523	-0.798911
H170	H	0.422631	-0.280277	-0.660102
H171	H	1.101268	-0.890139	-0.307403
C172	C	1.085861	-0.548820	-0.331114
C173	C	1.079735	-0.559239	-0.212726
C174	C	1.130974	-0.516712	-0.132903
C175	C	1.188339	-0.463766	-0.171467
C176	C	1.194467	-0.453345	-0.289860
C177	C	1.143228	-0.495872	-0.369683
H178	H	1.037269	-0.598435	-0.184174
H179	H	1.126438	-0.524427	-0.045260
H180	H	1.226269	-0.432285	-0.112377
H181	H	1.236934	-0.414149	-0.318413
H182	H	1.147765	-0.488157	-0.457326
C183	C	0.918957	-1.041484	-0.591456
C184	C	0.871147	-1.003190	-0.665895
C185	C	0.819912	-1.045724	-0.745717
C186	C	0.816488	-1.126552	-0.751099
C187	C	0.864300	-1.164851	-0.676658
C188	C	0.915535	-1.122317	-0.596837
H189	H	0.873680	-0.943353	-0.661913
H190	H	0.784519	-1.017373	-0.800823
H191	H	0.778561	-1.158038	-0.810188
H192	H	0.861767	-1.224688	-0.680640
H193	H	0.950928	-1.150668	-0.541730
H194	H	0.517639	-0.236888	-0.370109
H195	H	0.937909	-0.897122	-0.561830
H196	H	1.066913	-0.693177	-0.360748
H197	H	0.909191	-0.566846	-0.606275
