data_functionalizedCrystal
_audit_creation_method	'MofGen! by Chris Wilmer'
_symmetry_space_group_name_H-M	'P1'
_symmetry_Int_Tables_number	1
_symmetry_cell_setting	triclinic
loop_
_symmetry_equiv_pos_as_xyz
  x,y,z
_cell_length_a	12.759401
_cell_length_b	25.639240
_cell_length_c	12.759393
_cell_angle_alpha	89.967965
_cell_angle_beta	89.981433
_cell_angle_gamma	90.031103
loop_
_atom_site_label
_atom_site_type_symbol
_atom_site_fract_x
_atom_site_fract_y
_atom_site_fract_z
Zn1	Zn	1.606129	-0.208133	-0.593980
Zn2	Zn	1.605970	-0.295580	-0.418299
Zn3	Zn	1.430431	-0.208159	-0.418319
Zn4	Zn	1.430366	-0.295538	-0.593940
O5	O	1.518224	-0.251853	-0.506134
O6	O	1.753129	-0.219740	-0.570684
O7	O	1.582645	-0.284012	-0.271280
O8	O	1.453831	-0.134990	-0.441646
O9	O	1.753012	-0.283987	-0.441611
O10	O	1.582915	-0.134971	-0.570703
O11	O	1.453677	-0.219784	-0.271295
O12	O	1.283401	-0.219743	-0.441607
O13	O	1.453721	-0.283915	-0.740966
O14	O	1.283354	-0.283940	-0.570635
O15	O	1.582853	-0.219699	-0.740996
O16	O	1.582582	-0.368740	-0.441572
O17	O	1.453567	-0.368709	-0.570615
C18	C	1.245256	-0.251840	-0.506120
C19	C	1.128480	-0.251848	-0.506138
C20	C	1.073672	-0.218457	-0.573450
C21	C	0.963947	-0.218467	-0.573457
C22	C	0.963850	-0.285262	-0.438837
C23	C	1.073572	-0.285249	-0.438825
C24	C	1.073727	-0.179896	-0.651176
C25	C	0.964003	-0.179906	-0.651182
C26	C	1.518079	-0.387695	-0.506110
C27	C	1.518113	-0.445809	-0.506135
C28	C	1.585432	-0.696941	-0.573403
C29	C	1.585401	-0.642337	-0.573395
O30	O	1.642517	-0.614049	-0.630554
N31	N	1.518228	-0.615083	-0.506148
C32	C	1.451089	-0.642436	-0.438897
O33	O	1.393952	-0.614240	-0.381697
C34	C	1.451127	-0.697039	-0.438900
C35	C	1.518297	-0.724291	-0.506159
C36	C	1.652597	-0.724193	-0.640656
C37	C	1.652627	-0.778793	-0.640665
C38	C	1.585492	-0.806143	-0.573421
C39	C	1.518327	-0.778891	-0.506168
C40	C	1.383995	-0.724391	-0.371645
C41	C	1.384039	-0.778998	-0.371653
C42	C	1.451209	-0.806250	-0.438912
C43	C	1.451222	-0.860841	-0.438934
N44	N	1.518394	-0.888095	-0.506181
C45	C	1.585530	-0.860746	-0.573425
C46	C	1.451017	-0.527765	-0.438894
C47	C	1.450973	-0.473163	-0.438895
C48	C	1.585286	-0.473068	-0.573392
C49	C	1.585323	-0.527671	-0.573395
C50	C	1.518190	-0.555020	-0.506141
C51	C	1.585587	-0.975411	-0.573439
C52	C	1.585608	-1.030016	-0.573445
C53	C	1.451299	-1.030107	-0.438945
C54	C	1.451274	-0.975506	-0.438942
C55	C	1.518426	-0.948160	-0.506193
O56	O	1.394137	-0.889164	-0.381801
O57	O	1.642668	-0.888948	-0.630606
C58	C	1.792257	-0.251865	-0.506150
C59	C	1.909034	-0.251871	-0.506156
C60	C	1.518297	-0.251800	-0.780168
C61	C	1.518329	-0.251777	-0.896944
C62	C	1.518398	-0.115480	-0.506182
C63	C	1.518472	-0.057365	-0.506202
C64	C	1.585577	-0.218337	-0.951824
C65	C	1.585602	-0.218318	-1.061548
C66	C	1.451127	-0.285184	-1.061504
C67	C	1.451098	-0.285200	-0.951782
C68	C	1.663218	-0.179734	-0.951850
C69	C	1.663243	-0.179715	-1.061574
C70	C	1.518211	-0.251867	-0.233167
C71	C	1.518383	-0.251743	-0.116391
H72	H	0.934251	-0.190802	-0.732518
H73	H	0.929985	-0.141423	-0.622184
C74	C	1.133862	-0.321973	-0.364777
H75	H	1.207073	-0.317180	-0.374403
H76	H	1.115866	-0.357115	-0.380022
H77	H	1.115854	-0.314274	-0.294214
H78	H	1.707332	-0.800977	-0.695426
H79	H	1.396334	-0.312429	-0.907103
H80	H	1.396266	-0.450979	-0.384138
H81	H	1.640015	-0.549856	-0.628168
H82	H	1.396339	-0.550029	-0.384130
C83	C	1.773148	-0.194369	-1.101815
H84	H	1.773163	-0.194350	-1.176273
H85	H	1.791272	-0.228115	-1.076993
H86	H	1.822812	-0.169673	-1.077017
C87	C	1.633839	-0.125038	-0.911639
H88	H	1.633832	-0.125051	-0.837182
H89	H	1.566059	-0.115984	-0.936449
H90	H	1.683521	-0.100337	-0.936468
C91	C	1.767594	-0.199337	-0.905861
H92	H	1.814097	-0.208053	-0.961308
H93	H	1.755060	-0.229328	-0.863938
H94	H	1.798027	-0.172716	-0.863977
C95	C	1.623965	-0.127741	-1.107579
H96	H	1.606461	-0.104607	-1.052140
H97	H	1.563710	-0.133940	-1.149477
H98	H	1.677506	-0.112606	-1.149492
H99	H	1.396637	-1.052384	-0.384199
C100	C	1.113986	-0.125174	-0.621925
H101	H	1.188444	-0.125167	-0.621931
H102	H	1.089155	-0.116089	-0.554160
H103	H	1.089210	-0.100506	-0.671658
C104	C	1.659143	-0.442977	-0.647351
H105	H	1.649503	-0.406555	-0.637702
H106	H	1.643744	-0.451907	-0.717933
H107	H	1.729751	-0.451899	-0.632025
H108	H	1.329300	-0.702211	-0.316876
C109	C	1.726445	-0.694117	-0.714638
H110	H	1.766439	-0.718175	-0.754691
H111	H	1.772239	-0.672805	-0.674504
H112	H	1.686207	-0.672825	-0.760386
C113	C	0.903447	-0.322005	-0.364806
H114	H	0.830251	-0.317233	-0.374456
H115	H	0.921405	-0.314311	-0.294241
H116	H	0.921413	-0.357143	-0.380067
C117	C	1.119743	-0.199542	-0.755516
H118	H	1.064308	-0.208298	-0.801991
H119	H	1.161626	-0.229516	-0.742924
H120	H	1.161672	-0.172926	-0.786014
C121	C	1.659503	-1.059990	-0.647427
H122	H	1.699488	-1.035878	-0.687464
H123	H	1.619307	-1.081294	-0.693176
H124	H	1.705318	-1.081283	-0.607273
C125	C	1.659433	-0.945337	-0.647432
H126	H	1.699423	-0.969394	-0.687492
H127	H	1.705231	-0.924026	-0.607302
H128	H	1.619188	-0.924045	-0.693173
H129	H	1.329370	-0.801262	-0.316884
H130	H	1.396568	-0.953318	-0.384185
C131	C	1.377188	-0.321951	-1.121828
H132	H	1.386840	-0.317155	-1.195035
H133	H	1.306603	-0.314300	-1.103845
H134	H	1.392523	-0.357085	-1.103829
