data_functionalizedCrystal
_audit_creation_method	'MofGen! by Chris Wilmer'
_symmetry_space_group_name_H-M	'P1'
_symmetry_Int_Tables_number	1
_symmetry_cell_setting	triclinic
loop_
_symmetry_equiv_pos_as_xyz
  x,y,z
_cell_length_a	14.971486
_cell_length_b	19.188930
_cell_length_c	13.448316
_cell_angle_alpha	90.011727
_cell_angle_beta	90.001801
_cell_angle_gamma	83.379455
loop_
_atom_site_label
_atom_site_type_symbol
_atom_site_fract_x
_atom_site_fract_y
_atom_site_fract_z
O1	O	1.186467	0.090988	0.082589
O2	O	1.519800	0.424321	0.415922
O3	O	1.853133	0.757655	0.749256
O4	O	0.926009	0.101884	0.082618
O5	O	1.259342	0.435217	0.415951
O6	O	1.592676	0.768551	0.749284
O7	O	1.063754	-0.005195	0.082583
O8	O	1.397087	0.328138	0.415916
O9	O	1.730421	0.661471	0.749250
O10	O	1.048722	0.198067	0.082624
O11	O	1.382055	0.531401	0.415957
O12	O	1.715388	0.864734	0.749290
O13	O	1.063737	-0.005202	-0.082801
O14	O	1.397070	0.328131	0.250533
O15	O	1.730404	0.661465	0.583866
O16	O	0.925992	0.101877	-0.082766
O17	O	1.259325	0.435211	0.250567
O18	O	1.592658	0.768544	0.583900
O19	O	1.186450	0.090981	-0.082795
O20	O	1.519783	0.424315	0.250539
O21	O	1.853116	0.757648	0.583872
Cu22	Cu	1.056219	0.096429	-0.097881
Cu23	Cu	1.389552	0.429762	0.235452
Cu24	Cu	1.722886	0.763095	0.568785
Cu25	Cu	1.056239	0.096437	0.097704
Cu26	Cu	1.389573	0.429770	0.431038
Cu27	Cu	1.722906	0.763103	0.764371
O28	O	1.048704	0.198061	-0.082760
O29	O	1.382038	0.531394	0.250573
O30	O	1.715371	0.864728	0.583906
C31	C	0.892678	0.101393	-0.000071
C32	C	1.226012	0.434727	0.333262
C33	C	1.559345	0.768060	0.666596
C34	C	0.793389	0.099933	-0.000061
C35	C	1.126722	0.433266	0.333272
C36	C	1.460056	0.766600	0.666606
C37	C	1.063259	-0.031211	-0.000112
C38	C	1.396592	0.302122	0.333222
C39	C	1.729925	0.635455	0.666555
C40	C	1.061797	-0.108721	-0.000120
C41	C	1.395131	0.224613	0.333213
C42	C	1.728464	0.557946	0.666547
C43	C	0.735831	0.162839	-0.000050
C44	C	1.069165	0.496173	0.333283
C45	C	1.402498	0.829506	0.666617
C46	C	0.642539	0.161463	-0.000065
C47	C	0.975872	0.494796	0.333268
C48	C	1.309206	0.828130	0.666602
C49	C	0.606806	0.097180	-0.000084
C50	C	0.940140	0.430513	0.333249
C51	C	1.273473	0.763847	0.666583
C52	C	0.664371	0.034269	-0.000098
C53	C	0.997705	0.367602	0.333235
C54	C	1.331038	0.700936	0.666568
C55	C	0.757662	0.035646	-0.000090
C56	C	1.090995	0.368979	0.333243
C57	C	1.424328	0.702312	0.666576
C58	C	0.469924	0.031403	-0.000112
C59	C	0.803257	0.364737	0.333221
C60	C	1.136591	0.698070	0.666554
C61	C	0.376627	0.030026	-0.000119
C62	C	0.709961	0.363359	0.333215
C63	C	1.043294	0.696693	0.666548
C64	C	0.354801	0.157221	-0.000087
C65	C	0.688135	0.490554	0.333246
C66	C	1.021468	0.823887	0.666579
C67	C	0.448092	0.158598	-0.000079
C68	C	0.781425	0.491931	0.333254
C69	C	1.114758	0.825264	0.666587
C70	C	0.505650	0.095686	-0.000091
C71	C	0.838984	0.429020	0.333242
C72	C	1.172317	0.762353	0.666575
C73	C	1.142622	-0.153384	-0.000134
C74	C	1.475955	0.179949	0.333200
C75	C	1.809288	0.513282	0.666533
C76	C	1.141249	-0.226213	-0.000118
C77	C	1.474582	0.107121	0.333216
C78	C	1.807916	0.440454	0.666549
C79	C	1.059047	-0.254374	-0.000108
C80	C	1.392380	0.078960	0.333226
C81	C	1.725714	0.412293	0.666559
C82	C	0.978212	-0.209700	-0.000089
C83	C	1.311545	0.123633	0.333245
C84	C	1.644879	0.456967	0.666578
C85	C	0.979587	-0.136874	-0.000095
C86	C	1.312921	0.196460	0.333239
C87	C	1.646254	0.529793	0.666572
N88	N	0.996208	-0.362583	-0.056384
N89	N	1.329541	-0.029250	0.276949
N90	N	1.662874	0.304083	0.610282
N91	N	0.994907	-0.431766	-0.056381
N92	N	1.328240	-0.098433	0.276953
N93	N	1.661574	0.234901	0.610286
C94	C	1.054899	-0.473796	-0.000087
C95	C	1.388232	-0.140462	0.333246
C96	C	1.721565	0.192871	0.666579
N97	N	1.116254	-0.444030	0.056190
N98	N	1.449588	-0.110697	0.389523
N99	N	1.782921	0.222636	0.722856
N100	N	1.117558	-0.374842	0.056182
N101	N	1.450891	-0.041508	0.389515
N102	N	1.784224	0.291825	0.722848
C103	C	1.057547	-0.333341	-0.000101
C104	C	1.390880	-0.000008	0.333233
C105	C	1.724213	0.333326	0.666566
C106	C	1.134240	-0.597429	-0.000082
C107	C	1.467573	-0.264095	0.333251
C108	C	1.800907	0.069238	0.666585
C109	C	1.132864	-0.670258	-0.000060
C110	C	1.466197	-0.336925	0.333274
C111	C	1.799530	-0.003591	0.666607
C112	C	0.969825	-0.653744	-0.000041
C113	C	1.303158	-0.320411	0.333292
C114	C	1.636491	0.012923	0.666626
C115	C	0.971203	-0.580916	-0.000053
C116	C	1.304537	-0.247583	0.333280
C117	C	1.637870	0.085750	0.666614
C118	C	1.053413	-0.552763	-0.000078
C119	C	1.386747	-0.219430	0.333255
C120	C	1.720080	0.113903	0.666588
C121	C	1.219780	0.091472	-0.000104
C122	C	1.553114	0.424805	0.333229
C123	C	1.886447	0.758139	0.666563
C124	C	1.319070	0.092932	-0.000107
C125	C	1.652403	0.426266	0.333226
C126	C	1.985736	0.759599	0.666559
C127	C	1.049200	0.224077	-0.000063
C128	C	1.382533	0.557410	0.333270
C129	C	1.715867	0.890743	0.666603
C130	C	1.050661	0.301586	-0.000048
C131	C	1.383994	0.634919	0.333285
C132	C	1.717328	0.968253	0.666618
N133	N	1.056211	0.096423	-0.235446
N134	N	1.389545	0.429756	0.097888
N135	N	1.722878	0.763090	0.431221
C136	C	1.117224	0.049028	-0.287501
C137	C	1.450557	0.382361	0.045832
C138	C	1.783890	0.715694	0.379165
C139	C	1.117229	0.049027	-0.391604
C140	C	1.450563	0.382360	-0.058271
C141	C	1.783896	0.715694	0.275062
C142	C	1.056226	0.096426	-0.443650
C143	C	1.389559	0.429759	-0.110317
C144	C	1.722893	0.763092	0.223016
C145	C	0.995207	0.143823	-0.391587
C146	C	1.328541	0.477156	-0.058254
C147	C	1.661874	0.810490	0.275079
C148	C	0.995198	0.143820	-0.287486
C149	C	1.328531	0.477153	0.045847
C150	C	1.661865	0.810486	0.379181
C151	C	0.995232	0.143828	-0.608567
C152	C	1.328565	0.477161	-0.275234
C153	C	1.661899	0.810495	0.058099
C154	C	0.995242	0.143832	-0.712676
C155	C	1.328575	0.477166	-0.379343
C156	C	1.661909	0.810499	-0.046009
C157	C	1.117263	0.049035	-0.712686
C158	C	1.450597	0.382368	-0.379353
C159	C	1.783930	0.715702	-0.046019
C160	C	1.117254	0.049032	-0.608585
C161	C	1.450587	0.382365	-0.275251
C162	C	1.783921	0.715698	0.058082
C163	C	1.056236	0.096430	-0.556529
C164	C	1.389569	0.429764	-0.223195
C165	C	1.722903	0.763097	0.110138
N166	N	1.056254	0.096437	0.235268
N167	N	1.389588	0.429770	0.568602
N168	N	1.722921	0.763104	0.901935
H169	H	0.764917	0.215186	-0.000034
H170	H	1.098250	0.548520	0.333300
H171	H	1.431584	0.881853	0.666633
F172	F	1.182203	-0.001409	-0.768091
F173	F	1.515536	0.331925	-0.434758
F174	F	1.848870	0.665258	-0.101425
H175	H	1.166909	0.010434	-0.433988
H176	H	1.500243	0.343767	-0.100654
H177	H	1.833576	0.677101	0.232679
H178	H	0.516786	-0.019826	-0.000124
H179	H	0.850120	0.313507	0.333209
H180	H	1.183453	0.646841	0.666543
F181	F	0.581285	0.228417	-0.000049
F182	F	0.914619	0.561750	0.333285
F183	F	1.247952	0.895084	0.666618
H184	H	0.905387	-0.544550	-0.000048
H185	H	1.238720	-0.211216	0.333286
H186	H	1.572054	0.122117	0.666619
F187	F	0.930312	0.194280	-0.768060
F188	F	1.263646	0.527613	-0.434726
F189	F	1.596979	0.860946	-0.101393
F190	F	0.930286	0.194274	-0.553170
F191	F	1.263619	0.527607	-0.219837
F192	F	1.596953	0.860940	0.113497
H193	H	0.945533	0.182414	-0.433969
H194	H	1.278866	0.515747	-0.100636
H195	H	1.612199	0.849080	0.232698
H196	H	1.166931	0.010440	-0.566209
H197	H	1.500265	0.343773	-0.232876
H198	H	1.833598	0.677106	0.100458
F199	F	0.486119	0.227015	-0.000049
F200	F	0.819452	0.560348	0.333285
F201	F	1.152786	0.893682	0.666618
F202	F	0.930258	0.194263	-0.232086
F203	F	1.263591	0.527596	0.101247
F204	F	1.596924	0.860929	0.434581
H205	H	0.347537	-0.022319	-0.000135
H206	H	0.680870	0.311014	0.333198
H207	H	1.014204	0.644348	0.666531
F208	F	0.293543	0.224176	-0.000076
F209	F	0.626876	0.557510	0.333257
F210	F	0.960209	0.890843	0.666591
F211	F	0.626339	-0.034147	-0.000125
F212	F	0.959673	0.299187	0.333208
F213	F	1.293006	0.632520	0.666542
F214	F	0.818919	-0.031308	-0.000106
F215	F	1.152252	0.302026	0.333228
F216	F	1.485586	0.635359	0.666561
H217	H	1.209564	-0.130467	-0.000151
H218	H	1.542897	0.202866	0.333183
H219	H	1.876230	0.536199	0.666516
H220	H	0.911283	-0.232634	-0.000079
H221	H	1.244616	0.100700	0.333255
H222	H	1.577949	0.434033	0.666588
F223	F	1.227277	-0.273756	-0.000130
F224	F	1.560610	0.059577	0.333203
F225	F	1.893943	0.392911	0.666536
F226	F	1.182157	-0.001418	-0.232120
F227	F	1.515491	0.331915	0.101213
F228	F	1.848824	0.665248	0.434547
H229	H	1.201180	-0.574506	-0.000098
H230	H	1.534514	-0.241172	0.333235
H231	H	1.867847	0.092161	0.666569
H232	H	1.198683	-0.706623	-0.000065
H233	H	1.532017	-0.373290	0.333268
H234	H	1.865350	-0.039957	0.666601
F235	F	0.893559	-0.089337	-0.000080
F236	F	1.226892	0.243996	0.333254
F237	F	1.560226	0.577330	0.666587
H238	H	0.902894	-0.676672	-0.000028
H239	H	1.236228	-0.343338	0.333305
H240	H	1.569561	-0.010005	0.666639
