data_functionalizedCrystal
_audit_creation_method	'MofGen! by Chris Wilmer'
_symmetry_space_group_name_H-M	'P1'
_symmetry_Int_Tables_number	1
_symmetry_cell_setting	triclinic
loop_
_symmetry_equiv_pos_as_xyz
  x,y,z
_cell_length_a	23.096457
_cell_length_b	23.096457
_cell_length_c	23.096457
_cell_angle_alpha	59.998824
_cell_angle_beta	89.998020
_cell_angle_gamma	60.000612
loop_
_atom_site_label
_atom_site_type_symbol
_atom_site_fract_x
_atom_site_fract_y
_atom_site_fract_z
Zr1	Zr	0.557779	0.633750	-0.075993
O2	O	0.465333	0.754540	-0.168439
O3	O	0.586117	0.512962	-0.047655
O4	O	0.586119	0.633754	-0.168446
O5	O	0.465333	0.633744	0.047634
O6	O	0.681399	0.633756	-0.168449
O7	O	0.465331	0.633748	-0.047649
O8	O	0.681397	0.417681	0.047623
O9	O	0.465335	0.849819	-0.168438
O10	O	0.669312	0.562645	-0.035570
O11	O	0.598206	0.562641	0.035541
O12	O	0.598208	0.704858	-0.106674
O13	O	0.527102	0.704854	-0.035563
Zr14	Zr	0.709743	0.633747	0.075967
Zr15	Zr	0.709741	0.633753	-0.075999
Zr16	Zr	0.557782	0.633744	0.075972
Zr17	Zr	0.557783	0.785710	-0.075991
Zr18	Zr	0.709739	0.481787	0.075964
O19	O	0.681405	0.754535	0.047628
O20	O	0.681402	0.754543	-0.168447
O21	O	0.465336	0.754531	0.047636
O22	O	0.802189	0.512957	0.168412
O23	O	0.802187	0.512966	-0.047663
O24	O	0.586120	0.512953	0.168420
O25	O	0.802190	0.633753	-0.047661
O26	O	0.681404	0.633743	0.168419
O27	O	0.586123	0.633741	0.168422
O28	O	0.802191	0.633749	0.047622
O29	O	0.586124	0.849821	-0.168442
O30	O	0.681398	0.417676	0.168415
O31	O	0.802187	0.417678	0.168411
O32	O	0.802185	0.417683	0.047619
O33	O	0.465337	0.849814	-0.047646
O34	O	0.586126	0.849816	-0.047650
O35	O	0.669314	0.562639	0.106647
O36	O	0.740420	0.562643	0.035536
O37	O	0.669316	0.704856	-0.035568
O38	O	0.598210	0.704852	0.035543
C39	C	0.633756	0.443670	-0.000016
C40	C	0.633755	0.379160	-0.000017
C41	C	0.443681	0.633745	-0.000007
C42	C	0.379169	0.633744	-0.000004
C43	C	0.581282	-0.028870	-0.052504
C44	C	0.581276	0.031749	-0.052503
C45	C	0.633766	0.009570	-0.000014
C46	C	0.686256	-0.073237	0.052490
C47	C	0.686257	-0.133853	0.052492
N48	N	0.696014	0.065672	0.015877
N49	N	0.696011	0.123258	0.015870
C50	C	0.633767	0.192200	-0.000016
N51	N	0.571523	0.201388	-0.015910
N52	N	0.571527	0.143798	-0.015907
C53	C	0.633771	0.075292	-0.000010
C54	C	0.581271	0.340726	-0.052513
C55	C	0.581264	0.401343	-0.052508
C56	C	0.686251	0.296355	0.052482
C57	C	0.686251	0.235740	0.052480
C58	C	0.633762	0.257930	-0.000022
C59	C	0.385979	0.559513	0.037105
C60	C	0.325364	0.559511	0.037108
C61	C	0.257939	0.633746	-0.000012
C62	C	0.251131	0.707988	-0.037122
C63	C	0.311747	0.707987	-0.037118
N64	N	0.135144	0.689004	-0.060423
N65	N	0.077564	0.689000	-0.060425
C66	C	0.075306	0.633753	-0.000024
N67	N	0.132809	0.578498	0.060378
N68	N	0.190395	0.578500	0.060379
C69	C	0.192207	0.633755	-0.000020
C70	C	0.016392	0.559515	0.037091
C71	C	-0.044226	0.559517	0.037096
C72	C	-0.118458	0.707996	-0.037141
C73	C	-0.057840	0.707992	-0.037139
C74	C	0.009582	0.633749	-0.000025
C75	C	0.823841	0.633752	-0.000020
C76	C	0.888353	0.633753	-0.000023
C77	C	0.633759	0.633756	-0.190099
C78	C	0.633758	0.633759	-0.254612
C79	C	0.633766	0.823827	-0.000011
C80	C	0.633767	0.888337	-0.000010
C81	C	0.596656	0.707972	-0.752229
C82	C	0.596650	0.707977	-0.691616
C83	C	0.633766	0.633744	-0.624187
C84	C	0.670876	0.559500	-0.617375
C85	C	0.670875	0.559498	-0.677988
N86	N	0.694171	0.578491	-0.501391
N87	N	0.694170	0.578498	-0.443813
C88	C	0.633769	0.633747	-0.441560
N89	N	0.573370	0.689000	-0.499066
N90	N	0.573372	0.688995	-0.556650
C91	C	0.633770	0.633738	-0.558458
C92	C	0.596651	0.707991	-0.382653
C93	C	0.596642	0.707992	-0.322037
C94	C	0.670875	0.559514	-0.247796
C95	C	0.670876	0.559514	-0.308412
C96	C	0.633766	0.633755	-0.375838
C97	C	0.633764	0.633741	0.190072
C98	C	0.633765	0.633738	0.254586
C99	C	0.823837	0.443674	-0.000023
C100	C	0.888347	0.379164	-0.000027
C101	C	0.633759	0.443663	0.190069
C102	C	0.633758	0.379150	0.254582
C103	C	0.823839	0.443666	0.190062
C104	C	0.888350	0.379154	0.254572
C105	C	0.443683	0.823831	-0.190089
C106	C	0.379172	0.888343	-0.254599
C107	C	0.443686	0.823823	-0.000004
C108	C	0.379176	0.888333	-0.000000
C109	C	0.633763	0.823834	-0.190096
C110	C	0.633764	0.888347	-0.254609
C111	C	0.881524	0.348870	-0.037151
C112	C	0.942132	0.288265	-0.037169
C113	C	1.009562	0.257950	-0.000057
C114	C	1.016384	0.288250	0.037069
C115	C	0.955776	0.348858	0.037082
C116	C	0.670875	0.348853	0.322000
C117	C	0.670872	0.288244	0.382622
C118	C	0.633755	0.257929	0.375824
C119	C	0.596633	0.288232	0.308398
C120	C	0.596633	0.348844	0.247778
C121	C	0.955768	0.348860	0.247748
C122	C	1.016388	0.288253	0.308356
C123	C	1.009590	0.257935	0.375788
C124	C	0.942165	0.288235	0.382611
C125	C	0.881546	0.348846	0.322004
C126	C	0.311754	0.918644	-0.247774
C127	C	0.251134	0.979270	-0.308383
C128	C	0.257933	1.009591	-0.375815
C129	C	0.325358	0.979287	-0.382638
C130	C	0.385977	0.918666	-0.322031
C131	C	0.385999	0.918633	0.037118
C132	C	0.325390	0.979255	0.037119
C133	C	0.257960	1.009572	0.000005
C134	C	0.251139	0.979269	-0.037118
C135	C	0.311746	0.918653	-0.037122
C136	C	0.670888	0.918643	-0.247788
C137	C	0.670903	0.979252	-0.308398
C138	C	0.633789	1.009569	-0.375829
C139	C	0.596663	0.979267	-0.382648
C140	C	0.596653	0.918655	-0.322039
H141	H	0.538539	-0.010795	-0.095253
C142	C	-0.036733	0.477858	0.077917
H143	H	0.012103	0.433646	0.100014
H144	H	-0.058834	0.474764	0.113044
H145	H	-0.058838	0.474781	0.045869
C146	C	0.191296	1.076246	0.000016
H147	H	0.150156	1.089969	-0.027407
H148	H	0.191301	1.056372	0.047309
H149	H	0.191301	1.123538	-0.019860
H150	H	0.330959	1.003917	0.067351
H151	H	0.701098	0.499065	-0.302860
C152	C	0.807358	0.382210	-0.077982
H153	H	0.811985	0.355488	-0.100098
H154	H	0.782165	0.372273	-0.045948
H155	H	0.782174	0.439441	-0.113106
H156	H	0.306181	0.893984	-0.067347
C157	C	0.711732	1.012582	-0.300884
H158	H	0.733821	0.985853	-0.252043
H159	H	0.746866	1.002647	-0.322977
H160	H	0.679691	1.069812	-0.322986
C161	C	0.176969	0.789646	-0.077952
H162	H	0.181597	0.833857	-0.100048
H163	H	0.151780	0.792738	-0.113080
H164	H	0.151781	0.792726	-0.045908
H165	H	0.306205	0.893960	-0.192873
H166	H	0.728998	-0.201270	0.095240
C167	C	0.555811	0.254880	0.300926
H168	H	0.533698	0.281604	0.252092
H169	H	0.587855	0.197652	0.323036
H170	H	0.520686	0.264819	0.323032
H171	H	0.566429	0.768442	-0.437555
C172	C	0.934615	0.254938	-0.078000
H173	H	0.885775	0.281665	-0.100087
H174	H	0.956707	0.264877	-0.113135
H175	H	0.956718	0.197707	-0.045958
C176	C	0.555807	0.382159	0.173621
H177	H	0.533710	0.355414	0.178261
H178	H	0.520681	0.439385	0.148423
H179	H	0.587849	0.372212	0.148433
H180	H	-0.173356	0.768439	-0.067365
H181	H	0.538530	0.358795	-0.095262
C182	C	1.090557	0.254888	0.077902
H183	H	1.085948	0.281606	0.100017
H184	H	1.115731	0.197660	0.113016
H185	H	1.115750	0.264823	0.045863
C186	C	0.460141	0.477852	0.077936
H187	H	0.495268	0.488480	0.072622
H188	H	0.465452	0.447348	0.126767
H189	H	0.465460	0.447352	0.059599
C190	C	0.633799	1.076247	-0.442493
H191	H	0.661220	1.089949	-0.428767
H192	H	0.653670	1.056390	-0.469922
H193	H	0.586508	1.123547	-0.469910
H194	H	0.728993	0.168324	0.095224
C195	C	1.076224	0.191275	-0.000069
H196	H	1.062497	0.177573	-0.027490
H197	H	1.103652	0.211134	-0.019942
H198	H	1.103642	0.143974	0.047222
H199	H	0.701111	0.893968	-0.192888
C200	C	0.807390	0.382153	0.329520
H201	H	0.812029	0.355406	0.378362
H202	H	0.782189	0.439380	0.307422
H203	H	0.782207	0.372203	0.307425
H204	H	0.566429	0.768428	-0.697165
C205	C	0.963286	0.382177	0.077921
H206	H	0.917537	0.422621	0.072613
H207	H	0.988478	0.338655	0.126750
H208	H	0.988472	0.405826	0.059581
H209	H	0.633761	0.208575	0.425191
H210	H	0.196229	1.003963	-0.067335
H211	H	0.701100	0.373528	0.327549
H212	H	0.071291	0.499063	0.067327
H213	H	0.566446	1.003960	-0.437558
C214	C	0.523528	0.492419	-0.110256
H215	H	0.492274	0.496948	-0.141525
H216	H	0.497594	0.518252	-0.088699
H217	H	0.545101	0.518241	-0.136182
H218	H	0.196240	1.003933	-0.302813
C219	C	0.555805	0.885346	-0.329550
H220	H	0.533699	0.912093	-0.378391
H221	H	0.587828	0.828119	-0.307453
H222	H	0.520672	0.895295	-0.307453
H223	H	1.071283	0.263589	0.302787
C224	C	0.711715	0.254914	0.456781
H225	H	0.733828	0.281642	0.452142
H226	H	0.679685	0.264851	0.481978
H227	H	0.746840	0.197684	0.481969
H228	H	0.538526	0.099171	-0.095243
C229	C	1.076274	0.191259	0.442450
H230	H	1.117398	0.177557	0.428721
H231	H	1.076289	0.211116	0.469878
H232	H	1.076283	0.143957	0.469869
H233	H	0.961317	0.373536	0.192846
H234	H	0.936639	0.263542	0.437523
C235	C	0.743986	0.271951	0.110223
H236	H	0.736471	0.319910	0.102703
H237	H	0.741805	0.240449	0.155536
H238	H	0.789304	0.240450	0.108045
H239	H	0.330885	1.003982	-0.437549
C240	C	0.743995	-0.097635	0.110225
H241	H	0.736483	-0.049677	0.102702
H242	H	0.741817	-0.129135	0.155540
H243	H	0.789311	-0.129138	0.108045
H244	H	0.208567	1.058952	-0.425160
H245	H	0.330909	0.499061	0.067327
H246	H	0.306196	0.768437	-0.067335
C247	C	-0.065330	0.789647	-0.077968
H248	H	-0.114166	0.833860	-0.100081
H249	H	-0.043229	0.792735	-0.045931
H250	H	-0.043225	0.792731	-0.113096
H251	H	0.701094	0.499059	-0.562471
C252	C	0.555828	0.789633	-0.826393
H253	H	0.533722	0.833845	-0.821767
H254	H	0.587864	0.792719	-0.851586
H255	H	0.520698	0.792719	-0.851577
C256	C	0.460166	0.885296	0.077942
H257	H	0.495291	0.844849	0.072634
H258	H	0.465482	0.928812	0.059608
H259	H	0.465482	0.861648	0.126778
C260	C	0.711698	0.477840	-0.670495
H261	H	0.706379	0.488471	-0.716252
H262	H	0.760530	0.447333	-0.645309
H263	H	0.693358	0.447342	-0.645312
H264	H	0.440870	0.893996	-0.327596
H265	H	0.701091	0.499072	-0.192896
C266	C	0.555822	0.789651	-0.329532
H267	H	0.561130	0.779022	-0.283776
H268	H	0.574158	0.820148	-0.354715
H269	H	0.506987	0.820158	-0.354719
