data_functionalizedCrystal
_audit_creation_method	'MofGen! by Chris Wilmer'
_symmetry_space_group_name_H-M	'P1'
_symmetry_Int_Tables_number	1
_symmetry_cell_setting	triclinic
loop_
_symmetry_equiv_pos_as_xyz
  x,y,z
_cell_length_a	10.686220
_cell_length_b	12.594509
_cell_length_c	10.686285
_cell_angle_alpha	94.395035
_cell_angle_beta	89.654406
_cell_angle_gamma	94.349925
loop_
_atom_site_label
_atom_site_type_symbol
_atom_site_fract_x
_atom_site_fract_y
_atom_site_fract_z
Zn1	Zn	1.956166	-0.452682	0.352049
Zn2	Zn	2.456166	0.047318	0.852049
Zn3	Zn	1.972164	-0.260120	0.561852
Zn4	Zn	2.472164	0.239880	1.061852
Zn5	Zn	1.746397	-0.287226	0.368217
Zn6	Zn	2.246397	0.212774	0.868217
Zn7	Zn	1.762492	-0.450569	0.577871
Zn8	Zn	2.262492	0.049431	1.077871
O9	O	1.859305	-0.362649	0.464997
O10	O	2.359305	0.137351	0.964997
O11	O	2.133826	-0.416680	0.366410
O12	O	2.633826	0.083320	0.866410
O13	O	1.942175	-0.114769	0.536229
O14	O	2.442175	0.385231	1.036229
O15	O	1.760792	-0.321403	0.190528
O16	O	2.260792	0.178597	0.690528
O17	O	2.145580	-0.275205	0.520551
O18	O	2.645580	0.224795	1.020551
O19	O	1.914909	-0.442963	0.178649
O20	O	2.414909	0.057037	0.678649
O21	O	1.776305	-0.134683	0.393966
O22	O	2.276305	0.365317	0.893966
O23	O	1.572994	-0.319353	0.409498
O24	O	2.072994	0.180647	0.909498
O25	O	1.788223	-0.599796	0.547853
O26	O	2.288223	-0.099796	1.047853
O27	O	1.584819	-0.439360	0.563530
O28	O	2.084819	0.060640	1.063530
O29	O	1.930515	-0.601349	0.381942
O30	O	2.430515	-0.101349	0.881942
O31	O	1.957781	-0.273155	0.739522
O32	O	2.457781	0.226845	1.239522
O33	O	1.803736	-0.413077	0.751291
O34	O	2.303736	0.086923	1.251291
C35	C	1.533391	-0.382069	0.490008
C36	C	2.033391	0.117931	0.990008
C37	C	1.393966	-0.390400	0.500738
C38	C	1.893966	0.109600	1.000738
C39	C	1.859380	-0.640273	0.464881
C40	C	2.359380	-0.140273	0.964881
C41	C	1.859412	-0.758580	0.464832
C42	C	2.359412	-0.258580	0.964832
C43	C	1.782042	-0.826990	0.555021
C44	C	2.282042	-0.326990	1.055021
C45	C	1.898858	-0.888818	0.576878
C46	C	2.398858	-0.388818	1.076878
C47	C	1.742681	-0.907551	0.442892
C48	C	2.242681	-0.407551	0.942892
C49	C	1.976292	-0.818842	0.486744
C50	C	2.476292	-0.318842	0.986744
C51	C	1.820034	-0.837576	0.352711
C52	C	2.320034	-0.337576	0.852711
C53	C	1.936925	-0.899371	0.374518
C54	C	2.436925	-0.399371	0.874518
C55	C	2.186491	-0.343154	0.439890
C56	C	2.686491	0.156846	0.939890
C57	C	2.325918	-0.334847	0.429191
C58	C	2.825918	0.165153	0.929191
C59	C	1.884275	-0.339966	0.790920
C60	C	2.384275	0.160034	1.290920
C61	C	1.895073	-0.330291	0.930343
C62	C	2.395073	0.169709	1.430343
C63	C	1.859295	-0.086108	0.465017
C64	C	2.359295	0.413892	0.965017
C65	C	1.859478	0.032188	0.464695
C66	C	2.359478	0.532188	0.964695
C67	C	1.834271	-0.385442	0.137799
C68	C	2.334271	0.114558	0.637799
C69	C	1.823603	-0.395155	-0.001633
C70	C	2.323603	0.104845	0.498367
H71	H	1.374329	-0.280903	0.359729
H72	H	1.874329	0.219097	0.859729
H73	H	1.716677	-0.795225	0.631397
H74	H	2.216677	-0.295225	1.131397
H75	H	1.643934	-0.946218	0.424391
H76	H	2.143934	-0.446218	0.924391
H77	H	1.964516	-0.267345	0.978773
H78	H	2.464516	0.232655	1.478773
C79	C	1.794797	-0.549490	0.852131
C80	C	2.294797	-0.049490	1.352131
C81	C	1.729856	-0.480128	0.933006
C82	C	2.229856	0.019872	1.433006
H83	H	1.736920	-0.601953	0.811781
H84	H	2.236920	-0.101953	1.311781
H85	H	1.838175	-0.510092	0.790784
H86	H	2.338175	-0.010092	1.290784
H87	H	1.853325	-0.583479	0.898988
H88	H	2.353325	-0.083479	1.398988
H89	H	1.671334	-0.446133	0.886147
H90	H	2.171334	0.053867	1.386147
H91	H	1.686458	-0.519532	0.994361
H92	H	2.186458	-0.019532	1.494361
H93	H	2.075075	-0.780296	0.505353
H94	H	2.575075	-0.280296	1.005353
C95	C	1.198525	-0.457659	0.587342
C96	C	1.698525	0.042341	1.087342
C97	C	1.328630	-0.463218	0.594510
C98	C	1.828630	0.036782	1.094510
H99	H	1.158186	-0.502621	0.645229
H100	H	1.658186	-0.002621	1.145229
H101	H	1.178481	-0.386124	0.607235
H102	H	1.678481	0.113876	1.107235
H103	H	1.170671	-0.480482	0.504702
H104	H	1.670671	0.019518	1.004702
H105	H	1.356486	-0.440389	0.677148
H106	H	1.856486	0.059611	1.177148
H107	H	1.348684	-0.534769	0.574625
H108	H	1.848684	-0.034769	1.074625
H109	H	1.932201	-0.911648	0.671637
H110	H	2.432201	-0.411648	1.171637
H111	H	2.002464	-0.930927	0.298184
H112	H	2.502464	-0.430927	0.798184
H113	H	1.786659	-0.814723	0.257982
H114	H	2.286659	-0.314723	0.757982
