data_functionalizedCrystal
_audit_creation_method	'MofGen! by Chris Wilmer'
_symmetry_space_group_name_H-M	'P1'
_symmetry_Int_Tables_number	1
_symmetry_cell_setting	triclinic
loop_
_symmetry_equiv_pos_as_xyz
  x,y,z
_cell_length_a	14.971486
_cell_length_b	13.339070
_cell_length_c	13.448316
_cell_angle_alpha	89.996829
_cell_angle_beta	89.998199
_cell_angle_gamma	99.621712
loop_
_atom_site_label
_atom_site_type_symbol
_atom_site_fract_x
_atom_site_fract_y
_atom_site_fract_z
O1	O	1.219550	0.131873	-0.082571
O2	O	0.963055	0.147665	-0.082597
O3	O	1.061865	-0.007530	-0.082584
O4	O	1.120740	0.287068	-0.082584
O5	O	1.061845	-0.007540	0.082800
O6	O	0.963035	0.147656	0.082787
O7	O	1.219531	0.131864	0.082813
Cu8	Cu	1.091281	0.139759	0.097901
Cu9	Cu	1.091304	0.139770	-0.097685
O10	O	1.120720	0.287059	0.082800
C11	C	0.929545	0.146954	0.000091
C12	C	0.829725	0.144838	0.000081
C13	C	0.795041	0.236011	0.000082
C14	C	0.701248	0.234016	0.000097
C15	C	0.642141	0.140847	0.000103
C16	C	0.676832	0.049667	0.000105
C17	C	0.770623	0.051663	0.000097
C18	C	0.481342	0.045514	0.000119
C19	C	0.387545	0.043518	0.000125
C20	C	0.411968	0.227867	0.000119
C21	C	0.505759	0.229863	0.000111
C22	C	0.540442	0.138682	0.000111
C23	C	1.051910	-0.045236	0.000105
C24	C	1.022266	-0.157574	0.000098
C25	C	1.252762	-0.522088	0.000122
C26	C	1.280617	-0.416541	0.000135
C27	C	1.216032	-0.351794	0.000125
C28	C	1.123587	-0.392604	0.000104
C29	C	1.095729	-0.498161	0.000100
C30	C	1.058999	-0.327867	0.000103
C31	C	0.966554	-0.368677	0.000082
C32	C	0.938701	-0.474224	0.000077
C33	C	1.003286	-0.538970	0.000086
C34	C	1.086856	-0.222311	0.000107
C35	C	0.929823	-0.198384	0.000084
C36	C	0.901968	-0.303930	0.000072
C37	C	1.253040	0.132575	0.000122
C38	C	1.352860	0.134691	0.000126
C39	C	1.130675	0.324765	0.000108
C40	C	1.160319	0.437102	0.000109
N41	N	1.091271	0.139750	0.235465
N42	N	1.091319	0.139771	-0.235249
C43	C	1.135050	0.071058	0.287511
C44	C	1.135056	0.071057	0.391614
C45	C	1.091287	0.139754	0.443669
C46	C	1.047502	0.208449	0.391616
C47	C	1.047492	0.208445	0.287515
C48	C	1.047529	0.208456	0.608596
C49	C	1.047540	0.208463	0.712705
C50	C	1.135093	0.071069	0.712696
C51	C	1.135082	0.071064	0.608594
C52	C	1.091299	0.139761	0.556548
H53	H	0.673013	0.308258	0.000097
H54	H	1.162125	-0.189094	0.000124
H55	H	1.238717	-0.265854	0.000135
C56	C	0.570774	0.332345	0.000106
H57	H	0.536687	0.386364	0.000118
H58	H	0.607871	0.336958	-0.057568
H59	H	0.607867	0.336946	0.057786
C60	C	1.183245	-0.004504	0.769942
H61	H	1.176973	0.005326	0.839396
H62	H	1.245691	0.006596	0.752875
H63	H	1.156761	-0.072062	0.752885
H64	H	0.798860	-0.022579	0.000096
H65	H	0.383724	0.302110	0.000123
C66	C	1.382297	-0.371657	0.000147
H67	H	1.416772	-0.425332	0.000141
H68	H	1.396423	-0.330983	0.057820
H69	H	1.396432	-0.330976	-0.057533
H70	H	0.339422	-0.032348	0.000131
H71	H	1.305338	-0.574813	0.000138
H72	H	0.628700	-0.026192	0.000124
H73	H	0.509578	-0.028735	0.000120
C74	C	0.972648	-0.655073	0.000078
H75	H	1.024354	-0.687784	0.000090
H76	H	0.937355	-0.674528	-0.057597
H77	H	0.937344	-0.674537	0.057756
C78	C	0.837015	-0.519112	0.000061
H79	H	0.802538	-0.465438	0.000048
H80	H	0.822874	-0.559796	0.057731
H81	H	0.822896	-0.559783	-0.057622
H82	H	1.170697	0.015121	0.245135
C83	C	0.800283	-0.348823	0.000050
H84	H	0.765803	-0.295152	0.000037
H85	H	0.786141	-0.389512	0.057717
H86	H	0.786171	-0.389492	-0.057636
C87	C	0.858774	-0.127173	0.000066
H88	H	0.888605	-0.058466	0.000059
H89	H	0.821937	-0.139554	0.057732
H90	H	0.821962	-0.139552	-0.057622
C91	C	1.183224	-0.004495	0.448861
H92	H	1.209301	-0.045397	0.402949
H93	H	1.140594	-0.046685	0.489483
H94	H	1.229511	0.031994	0.489458
C95	C	0.999323	0.283963	0.769964
H96	H	0.973214	0.324848	0.724059
H97	H	1.041919	0.326177	0.810596
H98	H	0.953053	0.247418	0.810552
H99	H	1.170727	0.015131	0.566211
H100	H	1.011872	0.264394	0.566223
C101	C	0.999322	0.283986	0.448869
H102	H	0.973230	0.324881	0.402960
H103	H	1.041943	0.326187	0.489485
H104	H	0.953044	0.247479	0.489472
H105	H	1.011841	0.264379	0.245140
H106	H	0.843160	0.311879	0.000077
