data_functionalizedCrystal
_audit_creation_method	'MofGen! by Chris Wilmer'
_symmetry_space_group_name_H-M	'P1'
_symmetry_Int_Tables_number	1
_symmetry_cell_setting	triclinic
loop_
_symmetry_equiv_pos_as_xyz
  x,y,z
_cell_length_a	19.805407
_cell_length_b	13.031981
_cell_length_c	13.032328
_cell_angle_alpha	90.932769
_cell_angle_beta	82.839302
_cell_angle_gamma	97.193278
loop_
_atom_site_label
_atom_site_type_symbol
_atom_site_fract_x
_atom_site_fract_y
_atom_site_fract_z
Zn1	Zn	0.951485	-0.483273	0.529479
Zn2	Zn	0.955020	-0.633465	0.335651
Zn3	Zn	0.854239	-0.461486	0.357520
Zn4	Zn	0.825948	-0.655231	0.507564
O5	O	0.896673	-0.558364	0.432554
O6	O	1.046668	-0.503205	0.503787
O7	O	0.954970	-0.592424	0.194640
O8	O	0.877500	-0.320438	0.398654
O9	O	1.049265	-0.613550	0.361383
O10	O	0.948945	-0.336445	0.524992
O11	O	0.880927	-0.466072	0.210707
O12	O	0.755772	-0.487178	0.377404
O13	O	0.829281	-0.650648	0.654383
O14	O	0.734987	-0.629522	0.487641
O15	O	0.921513	-0.524311	0.670484
O16	O	0.927537	-0.780290	0.340132
O17	O	0.832709	-0.796282	0.466436
C18	C	0.720821	-0.558348	0.432518
C19	C	0.645587	-0.558370	0.432524
C20	C	0.182423	-0.501048	0.506829
C21	C	0.253112	-0.501049	0.506821
C22	C	0.289819	-0.558384	0.432585
C23	C	0.255832	-0.615729	0.358358
C24	C	0.185143	-0.615734	0.358371
C25	C	0.540911	-0.615714	0.358305
C26	C	0.611605	-0.615703	0.358295
C27	C	0.608880	-0.501030	0.506754
C28	C	0.538191	-0.501034	0.506767
C29	C	0.504210	-0.558384	0.432544
C30	C	0.427560	-0.558384	0.432555
C31	C	0.366468	-0.558379	0.432569
C32	C	0.877453	-0.825611	0.398555
C33	C	0.869290	-0.939944	0.384045
C34	C	0.900968	-0.998762	0.440147
C35	C	0.892531	-1.116932	0.425152
C36	C	1.073211	-0.558380	0.432590
C37	C	1.148441	-0.558387	0.432606
C38	C	0.871847	-0.592338	0.700791
C39	C	0.861267	-0.606815	0.815098
C40	C	0.915984	-0.290076	0.466707
C41	C	0.924213	-0.175748	0.481261
C42	C	0.921447	-0.524448	0.165369
C43	C	0.932178	-0.509680	0.051099
C44	C	0.891260	-0.565730	0.992169
C45	C	0.902191	-0.550758	0.874027
H46	H	0.157476	-0.662427	0.297933
H47	H	0.975299	-0.450606	1.014089
H48	H	0.152542	-0.454353	0.567275
H49	H	0.280776	-0.454362	0.567264
H50	H	0.508308	-0.454342	0.567215
H51	H	0.934331	-0.961637	0.499284
H52	H	0.636555	-0.454337	0.567193
H53	H	0.859158	-1.154057	0.366020
N54	N	0.968414	-1.126580	0.559595
H55	H	1.016938	-1.143151	0.541353
H56	H	0.949685	-1.154536	0.630680
N57	N	0.825094	-0.989119	0.305713
H58	H	0.843767	-0.961183	0.234597
H59	H	0.776582	-0.972536	0.324043
N60	N	0.834121	-0.643954	1.041182
H61	H	0.834405	-0.643552	1.118632
H62	H	0.841074	-0.715069	1.013115
N63	N	0.651199	-0.677543	0.278222
H64	H	0.618946	-0.713877	0.231204
H65	H	0.673242	-0.730493	0.313941
N66	N	0.959324	-0.472514	0.825020
H67	H	0.959038	-0.472914	0.747570
H68	H	1.004787	-0.490898	0.841715
H69	H	0.818134	-0.665880	0.852105
H70	H	0.285724	-0.662417	0.297917
N71	N	0.504266	-0.677559	0.278248
H72	H	0.538248	-0.713872	0.231216
H73	H	0.482345	-0.629596	0.236067
