data_functionalizedCrystal
_audit_creation_method	'MofGen! by Chris Wilmer'
_symmetry_space_group_name_H-M	'P1'
_symmetry_Int_Tables_number	1
_symmetry_cell_setting	triclinic
loop_
_symmetry_equiv_pos_as_xyz
  x,y,z
_cell_length_a	18.101398
_cell_length_b	11.169416
_cell_length_c	11.169409
_cell_angle_alpha	89.971970
_cell_angle_beta	90.028971
_cell_angle_gamma	89.989180
loop_
_atom_site_label
_atom_site_type_symbol
_atom_site_fract_x
_atom_site_fract_y
_atom_site_fract_z
Zn1	Zn	1.132244	0.477782	0.678872
Zn2	Zn	1.632244	0.977782	1.178872
Zn3	Zn	1.132170	0.678523	0.478204
Zn4	Zn	1.632170	1.178523	0.978204
Zn5	Zn	1.008394	0.477845	0.478174
Zn6	Zn	1.508394	0.977845	0.978174
Zn7	Zn	1.008393	0.678414	0.678816
Zn8	Zn	1.508393	1.178414	1.178816
O9	O	1.070300	0.578141	0.578516
O10	O	1.570300	1.078141	1.078516
O11	O	1.235867	0.504431	0.652288
O12	O	1.735867	1.004431	1.152288
O13	O	1.115720	0.651974	0.310250
O14	O	1.615720	1.151974	0.810250
O15	O	1.024855	0.309887	0.504808
O16	O	1.524855	0.809887	1.004808
O17	O	1.235813	0.651914	0.504858
O18	O	1.735813	1.151914	1.004858
O19	O	1.115847	0.309841	0.652259
O20	O	1.615847	0.809841	1.152259
O21	O	1.024783	0.504537	0.310228
O22	O	1.524783	1.004537	0.810228
O23	O	0.904761	0.504431	0.504754
O24	O	1.404761	1.004431	1.004754
O25	O	1.024853	0.651729	0.846774
O26	O	1.524853	1.151729	1.346774
O27	O	0.904760	0.651789	0.652165
O28	O	1.404760	1.151789	1.152165
O29	O	1.115846	0.504325	0.846814
O30	O	1.615846	1.004325	1.346814
O31	O	1.115719	0.846458	0.504805
O32	O	1.615719	1.346458	1.004805
O33	O	1.024781	0.846378	0.652194
O34	O	1.524781	1.346378	1.152194
C35	C	0.877890	0.578106	0.578451
C36	C	1.377890	1.078106	1.078451
C37	C	0.795576	0.578120	0.578452
C38	C	1.295576	1.078120	1.078452
C39	C	1.070262	0.889966	0.578523
C40	C	1.570262	1.389966	1.078523
C41	C	1.070313	1.023366	0.578566
C42	C	1.570313	1.523366	1.078566
C43	C	0.644867	0.578144	0.578506
C44	C	1.144867	1.078144	1.078506
C45	C	0.613489	0.485298	0.485913
C46	C	1.113489	0.985298	0.985913
C47	C	0.527871	0.484948	0.486217
C48	C	1.027871	0.984948	0.986217
C49	C	0.496485	0.578168	0.578557
C50	C	0.996485	1.078168	1.078557
C51	C	0.527624	0.544387	0.705179
C52	C	1.027624	1.044387	1.205179
C53	C	0.613269	0.543699	0.704614
C54	C	1.113269	1.043699	1.204614
C55	C	0.613287	0.705012	0.545593
C56	C	1.113287	1.205012	1.045593
C57	C	0.527635	0.704344	0.542833
C58	C	1.027635	1.204344	1.042833
C59	C	0.412625	0.578184	0.578593
C60	C	0.912625	1.078184	1.078593
C61	C	0.728727	0.578126	0.578478
C62	C	1.228727	1.078126	1.078478
C63	C	1.263462	0.578177	0.578582
C64	C	1.763462	1.078177	1.078582
C65	C	1.345776	0.578193	0.578611
C66	C	1.845776	1.078193	1.078611
C67	C	1.070357	0.578008	0.891559
C68	C	1.570357	1.078008	1.391559
C69	C	1.070381	0.577951	1.024959
C70	C	1.570381	1.077951	1.524959
C71	C	1.070352	1.265099	0.578549
C72	C	1.570352	1.765099	1.078549
C73	C	1.070355	1.131699	0.578594
C74	C	1.570355	1.631699	1.078594
C75	C	1.070286	0.578187	0.266692
C76	C	1.570286	1.078187	0.766692
C77	C	1.070406	0.577906	0.133292
C78	C	1.570406	1.077906	0.633292
H79	H	0.506814	0.506027	0.392343
H80	H	1.006814	1.006027	0.892343
C81	C	0.498656	0.420518	0.743440
C82	C	0.998656	0.920518	1.243440
N83	N	0.476834	0.327219	0.772255
N84	N	0.976834	0.827219	1.272255
H85	H	0.633256	0.450977	0.732436
H86	H	1.133256	0.950977	1.232436
H87	H	0.635020	0.391823	0.507482
H88	H	1.135020	0.891823	1.007482
C89	C	0.500162	0.632954	0.800964
C90	C	1.000162	1.132954	1.300964
N91	N	0.479476	0.699663	0.873109
N92	N	0.979476	1.199663	1.373109
C93	C	0.641320	0.513349	0.358693
C94	C	1.141320	1.013349	0.858693
N95	N	0.662310	0.534453	0.262875
N96	N	1.162310	1.034453	0.762875
C97	C	0.641319	0.631112	0.801047
C98	C	1.141319	1.131112	1.301047
N99	N	0.662443	0.696941	0.873687
N100	N	1.162443	1.196941	1.373687
C101	C	0.500201	0.357959	0.515747
C102	C	1.000201	0.857959	1.015747
N103	N	0.479361	0.262306	0.537998
N104	N	0.979361	0.762306	1.037998
C105	C	0.642410	0.746677	0.422932
C106	C	1.142410	1.246677	0.922932
N107	N	0.664345	0.778044	0.330538
N108	N	1.164345	1.278044	0.830538
C109	C	0.500130	0.738778	0.416944
C110	C	1.000130	1.238778	0.916944
N111	N	0.479407	0.764711	0.322125
N112	N	0.979407	1.264711	0.822125
C113	C	0.498772	0.802756	0.627250
C114	C	0.998772	1.302756	1.127250
N115	N	0.477032	0.876878	0.690841
N116	N	0.977032	1.376878	1.190841
C117	C	0.640709	0.798460	0.636687
C118	C	1.140709	1.298460	1.136687
N119	N	0.661369	0.868837	0.705303
N120	N	1.161369	1.368837	1.205303
