data_functionalizedCrystal
_audit_creation_method	'MofGen! by Chris Wilmer'
_symmetry_space_group_name_H-M	'P1'
_symmetry_Int_Tables_number	1
_symmetry_cell_setting	triclinic
loop_
_symmetry_equiv_pos_as_xyz
  x,y,z
_cell_length_a	18.101398
_cell_length_b	18.101395
_cell_length_c	18.101398
_cell_angle_alpha	89.998392
_cell_angle_beta	90.012704
_cell_angle_gamma	90.026371
loop_
_atom_site_label
_atom_site_type_symbol
_atom_site_fract_x
_atom_site_fract_y
_atom_site_fract_z
Zn1	Zn	1.132036	-0.295136	0.418847
Zn2	Zn	1.465369	0.038198	0.752180
Zn3	Zn	1.798703	0.371531	1.085513
Zn4	Zn	1.131957	-0.418921	0.295009
Zn5	Zn	1.465290	-0.085588	0.628342
Zn6	Zn	1.798624	0.247745	0.961675
Zn7	Zn	1.008220	-0.295088	0.295008
Zn8	Zn	1.341553	0.038245	0.628341
Zn9	Zn	1.674887	0.371579	0.961674
Zn10	Zn	1.008146	-0.418930	0.418797
Zn11	Zn	1.341479	-0.085596	0.752130
Zn12	Zn	1.674812	0.247737	1.085464
O13	O	1.070090	-0.357019	0.356915
O14	O	1.403423	-0.023685	0.690248
O15	O	1.736756	0.309648	1.023582
O16	O	1.235658	-0.311573	0.402440
O17	O	1.568992	0.021761	0.735774
O18	O	1.902325	0.355094	1.069107
O19	O	1.115541	-0.402471	0.191376
O20	O	1.448874	-0.069138	0.524709
O21	O	1.782208	0.264195	0.858042
O22	O	1.024709	-0.191462	0.311456
O23	O	1.358042	0.141872	0.644789
O24	O	1.691375	0.475205	0.978122
O25	O	1.235600	-0.402518	0.311457
O26	O	1.568934	-0.069184	0.644790
O27	O	1.902267	0.264149	0.978124
O28	O	1.115676	-0.191496	0.402440
O29	O	1.449009	0.141837	0.735773
O30	O	1.782342	0.475170	1.069106
O31	O	1.024632	-0.311492	0.191375
O32	O	1.357965	0.021842	0.524708
O33	O	1.691299	0.355175	0.858042
O34	O	0.904577	-0.311499	0.311408
O35	O	1.237911	0.021834	0.644741
O36	O	1.571244	0.355167	0.978074
O37	O	1.024582	-0.402531	0.522436
O38	O	1.357915	-0.069198	0.855770
O39	O	1.691249	0.264135	1.189103
O40	O	0.904523	-0.402485	0.402355
O41	O	1.237856	-0.069152	0.735688
O42	O	1.571189	0.264181	1.069022
O43	O	1.115604	-0.311581	0.522473
O44	O	1.448937	0.021753	0.855806
O45	O	1.782270	0.355086	1.189140
O46	O	1.115469	-0.522555	0.311409
O47	O	1.448802	-0.189222	0.644742
O48	O	1.782136	0.144111	0.978076
O49	O	1.024505	-0.522561	0.402356
O50	O	1.357839	-0.189228	0.735689
O51	O	1.691172	0.144105	1.069022
C52	C	0.877679	-0.356989	0.356876
C53	C	1.211012	-0.023655	0.690210
C54	C	1.544346	0.309678	1.023543
C55	C	0.795365	-0.356994	0.356877
C56	C	1.128698	-0.023660	0.690211
C57	C	1.462032	0.309673	1.023544
C58	C	1.069991	-0.549429	0.356893
C59	C	1.403324	-0.216096	0.690227
C60	C	1.736657	0.117237	1.023560
C61	C	1.070016	-0.631743	0.356909
C62	C	1.403349	-0.298410	0.690242
C63	C	1.736683	0.034923	1.023575
C64	C	0.496274	-0.357040	0.356940
C65	C	0.829607	-0.023707	0.690273
C66	C	1.162941	0.309627	1.023606
C67	C	0.527609	-0.299508	0.299997
C68	C	0.860942	0.033825	0.633330
C69	C	1.194276	0.367159	0.966664
C70	C	0.613227	-0.299662	0.299754
C71	C	0.946560	0.033671	0.633087
C72	C	1.279894	0.367004	0.966421
C73	C	0.644657	-0.357016	0.356909
C74	C	0.977990	-0.023683	0.690242
C75	C	1.311323	0.309650	1.023575
C76	C	0.613543	-0.435017	0.335586
C77	C	0.946876	-0.101684	0.668920
C78	C	1.280209	0.231649	1.002253
C79	C	0.527898	-0.434698	0.335190
C80	C	0.861231	-0.101364	0.668524
C81	C	1.194564	0.231969	1.001857
C82	C	0.527873	-0.337249	0.435338
C83	C	0.861206	-0.003915	0.768672
C84	C	1.194539	0.329418	1.102005
C85	C	0.613524	-0.335511	0.434911
C86	C	0.946857	-0.002178	0.768244
C87	C	1.280190	0.331155	1.101577
C88	C	0.728516	-0.357008	0.356893
C89	C	1.061849	-0.023674	0.690226
C90	C	1.395183	0.309659	1.023559
C91	C	0.412415	-0.357054	0.356954
C92	C	0.745748	-0.023720	0.690287
C93	C	1.079081	0.309613	1.023621
C94	C	1.070178	-0.930834	0.356949
C95	C	1.403512	-0.597501	0.690282
C96	C	1.736845	-0.264168	1.023615
C97	C	1.013079	-0.899544	0.414312
C98	C	1.346413	-0.566210	0.747645
C99	C	1.679746	-0.232877	1.080979
C100	C	1.012808	-0.813926	0.414132
C101	C	1.346141	-0.480592	0.747466
C102	C	1.679475	-0.147259	1.080799
C103	C	1.070098	-0.782452	0.356929
C104	C	1.403431	-0.449118	0.690263
C105	C	1.736764	-0.115785	1.023596
C106	C	1.048984	-0.813562	0.278878
C107	C	1.382318	-0.480229	0.612211
C108	C	1.715651	-0.146895	0.945545
C109	C	1.048616	-0.899207	0.279221
C110	C	1.381950	-0.565874	0.612555
C111	C	1.715283	-0.232541	0.945888
C112	C	1.148516	-0.899195	0.376950
C113	C	1.481849	-0.565861	0.710283
C114	C	1.815183	-0.232528	1.043616
C115	C	1.148055	-0.813544	0.378661
C116	C	1.481388	-0.480211	0.711995
C117	C	1.814722	-0.146878	1.045328
C118	C	1.070053	-0.698592	0.356914
C119	C	1.403387	-0.365259	0.690247
C120	C	1.736720	-0.031926	1.023580
C121	C	1.070221	-1.014694	0.356959
C122	C	1.403554	-0.681360	0.690292
C123	C	1.736888	-0.348027	1.023626
C124	C	1.263252	-0.357049	0.356954
C125	C	1.596585	-0.023716	0.690288
C126	C	1.929918	0.309617	1.023621
C127	C	1.345566	-0.357063	0.356971
C128	C	1.678899	-0.023729	0.690304
C129	C	2.012232	0.309604	1.023638
C130	C	1.070093	-0.357062	0.550077
C131	C	1.403427	-0.023729	0.883410
C132	C	1.736760	0.309604	1.216744
C133	C	1.070095	-0.357081	0.632391
C134	C	1.403428	-0.023747	0.965724
C135	C	1.736761	0.309586	1.299058
C136	C	1.070209	-0.163857	0.356953
C137	C	1.403543	0.169477	0.690286
C138	C	1.736876	0.502810	1.023620
C139	C	1.070260	-0.081543	0.356969
C140	C	1.403594	0.251791	0.690303
C141	C	1.736927	0.585124	1.023636
C142	C	1.070077	-0.357038	0.931482
C143	C	1.403411	-0.023705	1.264815
C144	C	1.736744	0.309628	1.598149
C145	C	1.012618	-0.414070	0.900134
C146	C	1.345951	-0.080737	1.233467
C147	C	1.679285	0.252597	1.566800
C148	C	1.012791	-0.414307	0.814516
C149	C	1.346124	-0.080974	1.147849
C150	C	1.679457	0.252360	1.481182
C151	C	1.070085	-0.357059	0.783099
C152	C	1.403419	-0.023726	1.116433
C153	C	1.736752	0.309607	1.449766
C154	C	1.148104	-0.378260	0.814206
C155	C	1.481438	-0.044927	1.147539
C156	C	1.814771	0.288407	1.480872
C157	C	1.147767	-0.378662	0.899851
C158	C	1.481100	-0.045329	1.233184
C159	C	1.814433	0.288005	1.566517
C160	C	1.050202	-0.278669	0.899904
C161	C	1.383536	0.054664	1.233237
C162	C	1.716869	0.387998	1.566571
C163	C	1.048484	-0.279094	0.814253
C164	C	1.381817	0.054239	1.147586
C165	C	1.715150	0.387573	1.480920
C166	C	1.070095	-0.357070	0.699240
C167	C	1.403428	-0.023737	1.032573
C168	C	1.736761	0.309597	1.365907
C169	C	1.070073	-0.357029	1.015341
C170	C	1.403406	-0.023696	1.348675
C171	C	1.736740	0.309637	1.682008
C172	C	1.070078	-0.357003	1.164504
C173	C	1.403411	-0.023670	1.497838
C174	C	1.736744	0.309664	1.831171
C175	C	1.070068	-0.357017	1.082190
C176	C	1.403401	-0.023684	1.415524
C177	C	1.736734	0.309650	1.748857
H178	H	0.634265	-0.241820	0.313119
H179	H	0.967598	0.091513	0.646452
H180	H	1.300932	0.424847	0.979786
F181	F	1.173681	-0.927397	0.450075
F182	F	1.507014	-0.594064	0.783408
F183	F	1.840348	-0.260731	1.116741
H184	H	1.191057	-0.919427	0.335170
H185	H	1.524390	-0.586094	0.668503
H186	H	1.857723	-0.252760	1.001836
H187	H	1.192030	-0.338926	0.920590
H188	H	1.525363	-0.005592	1.253923
H189	H	1.858697	0.327741	1.587256
F190	F	1.169790	-0.453541	0.925975
F191	F	1.503123	-0.120208	1.259308
F192	F	1.836457	0.213125	1.592641
H193	H	1.192074	-0.338012	0.793859
H194	H	1.525408	-0.004679	1.127192
H195	H	1.858741	0.328654	1.460525
F196	F	1.170523	-0.452327	0.786183
F197	F	1.503856	-0.118993	1.119516
F198	F	1.837190	0.214340	1.452849
F199	F	0.501754	-0.456639	0.260278
F200	F	0.835087	-0.123306	0.593611
F201	F	1.168420	0.210027	0.926944
H202	H	1.025609	-0.471805	0.921661
H203	H	1.358942	-0.138471	1.254994
H204	H	1.692276	0.194862	1.588328
F205	F	1.168868	-0.786969	0.453742
F206	F	1.502202	-0.453636	0.787075
F207	F	1.835535	-0.120302	1.120408
F208	F	0.977121	-0.253445	0.928115
F209	F	1.310454	0.079888	1.261448
F210	F	1.643787	0.413221	1.594782
H211	H	0.991068	-0.263107	0.793921
H212	H	1.324401	0.070226	1.127254
H213	H	1.657735	0.403559	1.460587
H214	H	0.633899	-0.479030	0.375763
H215	H	0.967232	-0.145696	0.709096
H216	H	1.300566	0.187637	1.042429
H217	H	0.507608	-0.379153	0.477766
H218	H	0.840941	-0.045820	0.811099
H219	H	1.174274	0.287514	1.144433
F220	F	0.499674	-0.264200	0.460678
F221	F	0.833007	0.069133	0.794011
F222	F	1.166341	0.402466	1.127345
H223	H	1.025921	-0.472383	0.794035
H224	H	1.359254	-0.139049	1.127368
H225	H	1.692587	0.194284	1.460701
F226	F	1.101633	-0.786914	0.221488
F227	F	1.434966	-0.453581	0.554821
F228	F	1.768300	-0.120247	0.888154
F229	F	0.936911	-0.787213	0.396818
F230	F	1.270244	-0.453879	0.730151
F231	F	1.603577	-0.120546	1.063485
F232	F	1.104904	-0.223128	0.926403
F233	F	1.438238	0.110206	1.259737
F234	F	1.771571	0.443539	1.593070
F235	F	1.099211	-0.220585	0.786310
F236	F	1.432544	0.112748	1.119643
F237	F	1.765877	0.446082	1.452977
F238	F	0.499446	-0.316399	0.224509
F239	F	0.832779	0.016934	0.557842
F240	F	1.166112	0.350267	0.891176
H241	H	0.992327	-0.792164	0.261632
H242	H	1.325660	-0.458830	0.594966
H243	H	1.658994	-0.125497	0.928299
F244	F	0.936756	-0.396920	0.927033
F245	F	1.270089	-0.063587	1.260367
F246	F	1.603422	0.269747	1.593700
H247	H	0.634969	-0.452098	0.278892
H248	H	0.968302	-0.118764	0.612225
H249	H	1.301636	0.214569	0.945559
F250	F	0.640120	-0.260490	0.455933
F251	F	0.973453	0.072843	0.789267
F252	F	1.306786	0.406176	1.122600
H253	H	0.634920	-0.374364	0.479610
H254	H	0.968253	-0.041031	0.812944
H255	H	1.301586	0.292303	1.146277
H256	H	0.507036	-0.241489	0.313215
H257	H	0.840369	0.091844	0.646548
H258	H	1.173703	0.425178	0.979882
F259	F	0.639980	-0.316756	0.223822
F260	F	0.973314	0.016577	0.557155
F261	F	1.306647	0.349911	0.890488
H262	H	0.954936	-0.401039	0.793483
H263	H	1.288269	-0.067706	1.126816
H264	H	1.621603	0.265628	1.460149
F265	F	1.030069	-0.786431	0.489778
F266	F	1.363403	-0.453097	0.823112
F267	F	1.696736	-0.119764	1.156445
F268	F	0.500800	-0.492622	0.387032
F269	F	0.834133	-0.159289	0.720365
F270	F	1.167466	0.174044	1.053699
F271	F	1.030167	-0.926442	0.490204
F272	F	1.363501	-0.593109	0.823538
F273	F	1.696834	-0.259776	1.156871
H274	H	0.955366	-0.921119	0.401229
H275	H	1.288699	-0.587786	0.734563
H276	H	1.622033	-0.254452	1.067896
H277	H	0.991352	-0.919237	0.262279
H278	H	1.324686	-0.585904	0.595613
H279	H	1.658019	-0.252570	0.928946
F280	F	1.206604	-0.785532	0.328037
F281	F	1.539937	-0.452198	0.661370
F282	F	1.873270	-0.118865	0.994704
F283	F	1.100612	-0.926264	0.221447
F284	F	1.433945	-0.592931	0.554781
F285	F	1.767279	-0.259597	0.888114
