data_functionalizedCrystal
_audit_creation_method	'MofGen! by Chris Wilmer'
_symmetry_space_group_name_H-M	'P1'
_symmetry_Int_Tables_number	1
_symmetry_cell_setting	triclinic
loop_
_symmetry_equiv_pos_as_xyz
  x,y,z
_cell_length_a	12.827893
_cell_length_b	16.120484
_cell_length_c	12.827885
_cell_angle_alpha	92.863928
_cell_angle_beta	89.980728
_cell_angle_gamma	92.925431
loop_
_atom_site_label
_atom_site_type_symbol
_atom_site_fract_x
_atom_site_fract_y
_atom_site_fract_z
Zn1	Zn	1.576504	-0.331866	-0.611895
Zn2	Zn	1.909837	0.001467	-0.278562
Zn3	Zn	2.243170	0.334800	0.054771
Zn4	Zn	1.567505	-0.471301	-0.445998
Zn5	Zn	1.900838	-0.137968	-0.112665
Zn6	Zn	2.234171	0.195365	0.220668
Zn7	Zn	1.401742	-0.331907	-0.437171
Zn8	Zn	1.735076	0.001426	-0.103838
Zn9	Zn	2.068409	0.334760	0.229495
Zn10	Zn	1.392841	-0.471239	-0.620694
Zn11	Zn	1.726175	-0.137906	-0.287361
Zn12	Zn	2.059508	0.195427	0.045972
O13	O	1.484648	-0.401579	-0.528940
O14	O	1.817981	-0.068245	-0.195607
O15	O	2.151315	0.265088	0.137727
O16	O	1.721545	-0.350372	-0.589900
O17	O	2.054879	-0.017038	-0.256567
O18	O	2.388212	0.316295	0.076766
O19	O	1.545475	-0.452853	-0.298594
O20	O	1.878809	-0.119520	0.034739
O21	O	2.212142	0.213813	0.368073
O22	O	1.432416	-0.215236	-0.452972
O23	O	1.765749	0.118097	-0.119639
O24	O	2.099083	0.451430	0.213694
O25	O	1.714934	-0.452814	-0.468017
O26	O	2.048267	-0.119481	-0.134683
O27	O	2.381601	0.213853	0.198650
O28	O	1.560812	-0.215206	-0.581341
O29	O	1.894146	0.118127	-0.248008
O30	O	2.227479	0.451460	0.085325
O31	O	1.423690	-0.350441	-0.292109
O32	O	1.757024	-0.017107	0.041224
O33	O	2.090357	0.316226	0.374558
O34	O	1.254326	-0.350381	-0.461505
O35	O	1.587660	-0.017047	-0.128171
O36	O	1.920993	0.316286	0.205162
O37	O	1.417245	-0.452708	-0.765761
O38	O	1.750579	-0.119375	-0.432427
O39	O	2.083912	0.213958	-0.099094
O40	O	1.247787	-0.452748	-0.596338
O41	O	1.581120	-0.119414	-0.263005
O42	O	1.914453	0.213919	0.070329
O43	O	1.552181	-0.350311	-0.759296
O44	O	1.885515	-0.016978	-0.425963
O45	O	2.218848	0.316355	-0.092629
O46	O	1.536844	-0.587959	-0.476549
O47	O	1.870177	-0.254625	-0.143215
O48	O	2.203511	0.078708	0.190118
O49	O	1.408520	-0.587913	-0.604897
O50	O	1.741853	-0.254580	-0.271564
O51	O	2.075186	0.078754	0.061769
C52	C	1.213139	-0.401562	-0.528919
C53	C	1.546473	-0.068229	-0.195586
C54	C	1.879806	0.265104	0.137748
C55	C	1.096985	-0.401576	-0.528936
C56	C	1.430319	-0.068242	-0.195603
C57	C	1.763652	0.265091	0.137731
C58	C	1.041987	-0.452309	-0.595563
C59	C	1.375320	-0.118976	-0.262230
C60	C	1.708654	0.214357	0.071104
C61	C	0.921936	-0.452324	-0.595582
C62	C	1.255269	-0.118991	-0.262249
C63	C	1.588602	0.214343	0.071084
C64	C	1.470768	-0.618186	-0.542658
C65	C	1.804101	-0.284852	-0.209325
C66	C	2.137434	0.048481	0.124008
C67	C	1.464925	-0.710851	-0.548562
C68	C	1.798259	-0.377518	-0.215229
C69	C	2.131592	-0.044185	0.118104
C70	C	1.454265	-0.880512	-0.559362
C71	C	1.787598	-0.547179	-0.226029
C72	C	2.120931	-0.213846	0.107304
C73	C	1.515219	-0.921804	-0.498534
C74	C	1.848552	-0.588471	-0.165201
C75	C	2.181885	-0.255138	0.168132
C76	C	1.509287	-1.016209	-0.504544
C77	C	1.842620	-0.682876	-0.171210
C78	C	2.175954	-0.349543	0.162123
C79	C	1.460195	-0.786099	-0.553355
C80	C	1.793528	-0.452765	-0.220021
C81	C	2.126862	-0.119432	0.113312
C82	C	1.757217	-0.401595	-0.528962
C83	C	2.090550	-0.068262	-0.195628
C84	C	2.423884	0.265071	0.137705
C85	C	1.873370	-0.401602	-0.528971
C86	C	2.206703	-0.068269	-0.195637
C87	C	2.540036	0.265064	0.137696
C88	C	1.484724	-0.401498	-0.801505
C89	C	1.818058	-0.068165	-0.468172
C90	C	2.151391	0.265168	-0.134838
C91	C	1.484757	-0.401464	-0.917656
C92	C	1.818090	-0.068131	-0.584323
C93	C	2.151423	0.265202	-0.250990
C94	C	1.498611	-0.184125	-0.515191
C95	C	1.831944	0.149208	-0.181857
C96	C	2.165278	0.482541	0.151476
C97	C	1.504561	-0.091460	-0.509332
C98	C	1.837894	0.241873	-0.175998
C99	C	2.171228	0.575207	0.157335
C100	C	1.551535	-0.350785	-0.966241
C101	C	1.884868	-0.017452	-0.632908
C102	C	2.218202	0.315881	-0.299575
C103	C	1.551570	-0.350749	-1.086289
C104	C	1.884903	-0.017415	-0.752956
C105	C	2.218237	0.315918	-0.419623
C106	C	1.484636	-0.401598	-0.257431
C107	C	1.817969	-0.068265	0.075902
C108	C	2.151303	0.265069	0.409235
C109	C	1.484821	-0.401397	-0.141266
C110	C	1.818154	-0.068064	0.192067
C111	C	2.151488	0.265269	0.525401
H112	H	0.920648	-0.358168	-0.471922
H113	H	1.253981	-0.024835	-0.138589
H114	H	1.587314	0.308498	0.194744
H115	H	1.608676	-0.307421	-0.918962
H116	H	1.942010	0.025912	-0.585628
H117	H	2.275343	0.359246	-0.252295
H118	H	1.397630	-0.916059	-0.615947
H119	H	1.730963	-0.582726	-0.282614
H120	H	2.064296	-0.249393	0.050720
N121	N	0.862627	-0.506830	-0.667130
N122	N	1.195961	-0.173497	-0.333796
N123	N	1.529294	0.159836	-0.000463
N124	N	0.798298	-0.559887	-0.633563
N125	N	1.131632	-0.226554	-0.300230
N126	N	1.464965	0.106779	0.033104
H127	H	0.756410	-0.598386	-0.684094
H128	H	1.089743	-0.265053	-0.350761
H129	H	1.423076	0.068281	-0.017427
N130	N	1.586250	-0.877223	-0.427510
N131	N	1.919583	-0.543890	-0.094177
N132	N	2.252917	-0.210556	0.239157
N133	N	1.578748	-0.886949	-0.331687
N134	N	1.912081	-0.553616	0.001646
N135	N	2.245415	-0.220283	0.334980
H136	H	1.628907	-0.855464	-0.281520
H137	H	1.962241	-0.522130	0.051813
H138	H	2.295574	-0.188797	0.385146
H139	H	1.608744	-0.307363	-1.128084
H140	H	1.942078	0.025970	-0.794751
H141	H	2.275411	0.359303	-0.461417
H142	H	1.427605	-0.444820	-0.964935
H143	H	1.760939	-0.111487	-0.631602
H144	H	2.094272	0.221846	-0.298269
N145	N	1.094420	-0.506774	-0.667111
N146	N	1.427753	-0.173441	-0.333778
N147	N	1.761087	0.159893	-0.000444
N148	N	1.191868	-0.506681	-0.666999
N149	N	1.525201	-0.173348	-0.333665
N150	N	1.858534	0.159986	-0.000332
H151	H	1.228898	-0.545147	-0.717533
H152	H	1.562232	-0.211814	-0.384199
H153	H	1.895565	0.121520	-0.050866
N154	N	1.044571	-0.347084	-0.457407
N155	N	1.377904	-0.013751	-0.124073
N156	N	1.711238	0.319583	0.209260
N157	N	0.987059	-0.294042	-0.490993
N158	N	1.320393	0.039291	-0.157659
N159	N	1.653726	0.372624	0.175674
H160	H	0.950044	-0.255554	-0.440474
H161	H	1.283377	0.077779	-0.107141
H162	H	1.616710	0.411113	0.226193
H163	H	1.427651	-0.444791	-1.099479
H164	H	1.760984	-0.111458	-0.766145
H165	H	2.094317	0.221876	-0.432812
