data_functionalizedCrystal
_audit_creation_method	'MofGen! by Chris Wilmer'
_symmetry_space_group_name_H-M	'P1'
_symmetry_Int_Tables_number	1
_symmetry_cell_setting	triclinic
loop_
_symmetry_equiv_pos_as_xyz
  x,y,z
_cell_length_a	16.992701
_cell_length_b	19.188937
_cell_length_c	16.053789
_cell_angle_alpha	87.103083
_cell_angle_beta	87.278449
_cell_angle_gamma	86.907300
loop_
_atom_site_label
_atom_site_type_symbol
_atom_site_fract_x
_atom_site_fract_y
_atom_site_fract_z
O1	O	-1.042827	-0.150799	0.069439
O2	O	-0.542827	0.349201	0.569439
O3	O	-0.814548	-0.149177	0.069440
O4	O	-0.314548	0.350823	0.569440
O5	O	-0.935272	-0.048718	0.069432
O6	O	-0.435272	0.451282	0.569432
O7	O	-0.922103	-0.251258	0.069447
O8	O	-0.422103	0.248742	0.569447
O9	O	-0.929383	-0.043135	-0.069428
O10	O	-0.429383	0.456865	0.430572
O11	O	-0.808659	-0.143595	-0.069420
O12	O	-0.308659	0.356405	0.430580
O13	O	-1.036938	-0.145217	-0.069421
O14	O	-0.536938	0.354783	0.430579
Zn15	Zn	-0.921863	-0.143519	-0.091467
Zn16	Zn	-0.421863	0.356481	0.408533
Zn17	Zn	-0.929623	-0.150874	0.091486
Zn18	Zn	-0.429623	0.349126	0.591486
O19	O	-0.916214	-0.245676	-0.069413
O20	O	-0.416214	0.254324	0.430587
C21	C	-0.782398	-0.144297	0.000010
C22	C	-0.282398	0.355703	0.500010
C23	C	-0.695375	-0.138065	0.000009
C24	C	-0.195375	0.361935	0.500009
C25	C	-0.931900	-0.019891	0.000002
C26	C	-0.431900	0.480109	0.500002
C27	C	-0.930617	0.057689	0.000001
C28	C	-0.430617	0.557689	0.500001
C29	C	-1.069088	-0.150097	0.000011
C30	C	-0.569088	0.349903	0.500011
C31	C	-1.156112	-0.156329	0.000017
C32	C	-0.656112	0.343671	0.500017
C33	C	-0.206558	-0.096190	0.000009
C34	C	0.293442	0.403810	0.500009
C35	C	-0.288324	-0.102051	0.000005
C36	C	0.211676	0.397949	0.500005
C37	C	-0.319643	-0.168052	0.000014
C38	C	0.180357	0.331948	0.500014
C39	C	-0.269190	-0.228196	0.000019
C40	C	0.230810	0.271804	0.500019
C41	C	-0.187425	-0.222334	0.000017
C42	C	0.312575	0.277666	0.500017
C43	C	-0.563157	-0.192347	0.000013
C44	C	-0.063157	0.307653	0.500013
C45	C	-0.644929	-0.198204	0.000017
C46	C	-0.144929	0.301796	0.500017
C47	C	-0.664057	-0.072058	0.000002
C48	C	-0.164057	0.427942	0.500002
C49	C	-0.582289	-0.066202	0.000005
C50	C	-0.082289	0.433798	0.500005
C51	C	-0.531844	-0.126346	0.000006
C52	C	-0.031844	0.373654	0.500006
N53	N	-0.403221	-0.174045	0.000012
N54	N	0.096779	0.325955	0.500012
N55	N	-0.448267	-0.120353	0.000002
N56	N	0.051733	0.379647	0.500002
N57	N	-0.916574	-0.138499	-0.216328
N58	N	-0.416574	0.361501	0.283672
C59	C	-0.918281	0.614526	-0.075679
C60	C	-0.418281	1.114526	0.424321
C61	C	-0.919478	0.541631	-0.075683
C62	C	-0.419478	1.041631	0.424317
C63	C	-0.923290	0.502133	0.000009
C64	C	-0.423290	1.002133	0.500009
C65	C	-0.925886	0.535534	0.075711
C66	C	-0.425886	1.035534	0.575711
C67	C	-0.924681	0.608427	0.075712
C68	C	-0.424681	1.108427	0.575712
N69	N	-0.972181	0.388123	0.056350
N70	N	-0.472181	0.888123	0.556350
N71	N	-0.973327	0.318879	0.056343
N72	N	-0.473327	0.818879	0.556343
C73	C	-0.926918	0.282511	0.000009
C74	C	-0.426918	0.782511	0.500009
N75	N	-0.879330	0.318006	-0.056330
N76	N	-0.379330	0.818006	0.443670
N77	N	-0.878187	0.387257	-0.056326
N78	N	-0.378187	0.887257	0.443674
C79	C	-0.924596	0.423093	0.000016
C80	C	-0.424596	0.923093	0.500016
C81	C	-0.925615	0.170078	-0.075691
C82	C	-0.425615	0.670078	0.424309
C83	C	-0.926807	0.097182	-0.075692
C84	C	-0.426807	0.597182	0.424308
C85	C	-0.933222	0.091087	0.075704
C86	C	-0.433222	0.591087	0.575704
C87	C	-0.932022	0.163981	0.075702
C88	C	-0.432022	0.663981	0.575702
C89	C	-0.928222	0.203473	0.000002
C90	C	-0.428222	0.703473	0.500002
C91	C	-0.919589	0.725497	0.000016
C92	C	-0.419589	1.225497	0.500016
C93	C	-0.920881	0.647919	0.000012
C94	C	-0.420881	1.147919	0.500012
C95	C	-0.962123	-0.181760	-0.260016
C96	C	-0.462123	0.318240	0.239984
C97	C	-0.958433	-0.178245	-0.347423
C98	C	-0.458433	0.321755	0.152577
C99	C	-0.909190	-0.131471	-0.391141
C100	C	-0.409190	0.368529	0.108859
C101	C	-0.863639	-0.088206	-0.347448
C102	C	-0.363639	0.411794	0.152552
C103	C	-0.867333	-0.091718	-0.260042
C104	C	-0.367333	0.408282	0.239958
C105	C	-0.893062	-0.116136	-0.652553
C106	C	-0.393062	0.383864	-0.152553
C107	C	-0.889369	-0.112628	-0.739965
C108	C	-0.389369	0.387372	-0.239965
C109	C	-0.984166	-0.202666	-0.739934
C110	C	-0.484166	0.297334	-0.239934
C111	C	-0.987852	-0.206178	-0.652527
C112	C	-0.487852	0.293822	-0.152527
C113	C	-0.942304	-0.162910	-0.608841
C114	C	-0.442304	0.337090	-0.108841
N115	N	-0.905415	-0.127878	-0.480486
N116	N	-0.405415	0.372122	0.019514
N117	N	-0.946083	-0.166500	-0.519498
N118	N	-0.446083	0.333500	-0.019498
N119	N	-0.934919	-0.155889	0.216347
N120	N	-0.434919	0.344111	0.716347
H121	H	-0.181065	-0.042445	0.000008
H122	H	0.318935	0.457555	0.500008
C123	C	-1.088517	-0.211985	-0.374291
C124	C	-0.588517	0.288015	0.125709
C125	C	-1.008501	-0.225804	-0.395438
C126	C	-0.508501	0.274196	0.104562
H127	H	-1.119427	-0.241351	-0.403929
H128	H	-0.619427	0.258649	0.096071
H129	H	-1.102642	-0.164474	-0.388625
H130	H	-0.602642	0.335526	0.111375
H131	H	-1.097748	-0.220770	-0.315976
H132	H	-0.597748	0.279230	0.184024
H133	H	-0.999269	-0.217013	-0.453752
H134	H	-0.499269	0.282987	0.046248
H135	H	-0.994372	-0.273326	-0.381110
H136	H	-0.494372	0.226674	0.118890
H137	H	-0.329394	-0.053078	-0.000005
H138	H	0.170606	0.446922	0.499995
C139	C	-0.933025	0.273013	0.142923
C140	C	-0.433025	0.773013	0.642923
C141	C	-0.934889	0.200693	0.158905
C142	C	-0.434889	0.700693	0.658905
H143	H	-0.934788	0.295676	0.194292
H144	H	-0.434788	0.795676	0.694292
H145	H	-0.977212	0.288981	0.111829
H146	H	-0.477212	0.788981	0.611829
H147	H	-0.885801	0.283431	0.111819
H148	H	-0.385801	0.783431	0.611819
H149	H	-0.982115	0.190275	0.190004
H150	H	-0.482115	0.690275	0.690004
H151	H	-0.890697	0.184720	0.190012
H152	H	-0.390697	0.684720	0.690012
C153	C	-0.993640	-0.301517	-0.233094
C154	C	-0.493640	0.198483	0.266906
C155	C	-1.016254	-0.233176	-0.211966
C156	C	-0.516254	0.266824	0.288034
H157	H	-1.027065	-0.333257	-0.203435
H158	H	-0.527065	0.166743	0.296565
H159	H	-0.940573	-0.312039	-0.218771
H160	H	-0.440573	0.187961	0.281229
H161	H	-0.997960	-0.305605	-0.291404
H162	H	-0.497960	0.194395	0.208596
H163	H	-1.011929	-0.229087	-0.153656
H164	H	-0.511929	0.270913	0.346344
H165	H	-1.069335	-0.222651	-0.226283
H166	H	-0.569335	0.277349	0.273717
H167	H	-1.027954	-0.244263	-0.616937
H168	H	-0.527954	0.255737	-0.116937
H169	H	-0.830242	-0.056491	-0.224473
H170	H	-0.330242	0.443509	0.275527
H171	H	-1.021248	-0.237892	-0.775512
H172	H	-0.521248	0.262108	-0.275512
H173	H	-0.522094	-0.241320	0.000018
H174	H	-0.022094	0.258680	0.500018
H175	H	-0.928987	0.503370	0.137339
H176	H	-0.428987	1.003370	0.637339
C177	C	-0.870827	0.001550	0.163508
C178	C	-0.370827	0.501550	0.663508
C179	C	-0.937346	0.047702	0.158927
C180	C	-0.437346	0.547702	0.658927
H181	H	-0.873355	-0.025231	0.214893
H182	H	-0.373355	0.474769	0.714893
H183	H	-0.824546	0.027366	0.160298
H184	H	-0.324546	0.527366	0.660298
H185	H	-0.869477	-0.028792	0.118447
H186	H	-0.369477	0.471208	0.618447
H187	H	-0.938693	0.078048	0.203985
H188	H	-0.438693	0.578048	0.703985
H189	H	-0.983640	0.021885	0.162145
H190	H	-0.483640	0.521885	0.662145
H191	H	-0.294696	-0.281936	0.000021
H192	H	0.205304	0.218064	0.500021
H193	H	-0.922514	0.202233	-0.137331
H194	H	-0.422514	0.702233	0.362669
C195	C	-0.798982	-0.026794	-0.661376
C196	C	-0.298982	0.473206	-0.161376
C197	C	-0.842988	-0.068583	-0.604542
C198	C	-0.342988	0.431417	-0.104542
H199	H	-0.768063	0.002561	-0.631731
H200	H	-0.268063	0.502561	-0.131731
H201	H	-0.833716	0.001148	-0.695463
H202	H	-0.333716	0.501148	-0.195463
H203	H	-0.765311	-0.055751	-0.695470
H204	H	-0.265311	0.444249	-0.195470
H205	H	-0.876663	-0.039625	-0.570451
H206	H	-0.376663	0.460375	-0.070451
H207	H	-0.808250	-0.096527	-0.570441
H208	H	-0.308250	0.403473	-0.070441
H209	H	-0.849265	-0.074540	-0.775558
H210	H	-0.349265	0.425460	-0.275558
H211	H	-0.926797	0.635615	0.137351
H212	H	-0.426797	1.135615	0.637351
H213	H	-0.146352	-0.271306	0.000020
H214	H	0.353648	0.228694	0.500020
H215	H	-0.915186	0.646675	-0.137320
H216	H	-0.415186	1.146675	0.362680
C217	C	-0.920373	0.110534	-0.225337
C218	C	-0.420373	0.610534	0.274663
C219	C	-0.923956	0.060474	-0.158899
C220	C	-0.423956	0.560474	0.341101
H221	H	-0.918620	0.087871	-0.276705
H222	H	-0.418620	0.587871	0.223295
H223	H	-0.874333	0.136063	-0.222200
H224	H	-0.374333	0.636063	0.277800
H225	H	-0.965745	0.141613	-0.222170
H226	H	-0.465745	0.641613	0.277830
H227	H	-0.878580	0.029398	-0.162062
H228	H	-0.378580	0.529398	0.337938
H229	H	-0.970000	0.034933	-0.162038
H230	H	-0.470000	0.534933	0.337962
H231	H	-0.917346	0.514436	-0.137322
H232	H	-0.417346	1.014436	0.362678
C233	C	-0.815832	-0.042879	-0.481445
C234	C	-0.315832	0.457121	0.018555
C235	C	-0.809506	-0.036792	-0.395499
C236	C	-0.309506	0.463208	0.104501
H237	H	-0.782406	-0.011140	-0.511105
H238	H	-0.282406	0.488860	-0.011105
H239	H	-0.868896	-0.032371	-0.495790
H240	H	-0.368896	0.467629	0.004210
H241	H	-0.800471	-0.089251	-0.495727
H242	H	-0.300471	0.410749	0.004273
H243	H	-0.824872	0.009579	-0.381215
H244	H	-0.324872	0.509579	0.118785
H245	H	-0.756430	-0.047294	-0.381148
H246	H	-0.256430	0.452706	0.118852
C247	C	-0.609412	0.057900	-0.000028
C248	C	-0.109412	0.557900	0.499972
C249	C	-0.547866	0.006349	-0.000015
C250	C	-0.047866	0.506349	0.499985
H251	H	-0.588158	0.102690	-0.000046
H252	H	-0.088158	0.602690	0.499954
H253	H	-0.642956	0.051050	0.048395
H254	H	-0.142956	0.551050	0.548395
H255	H	-0.638854	0.054927	-0.048453
H256	H	-0.138854	0.554927	0.451547
H257	H	-0.518427	0.009319	0.048412
H258	H	-0.018427	0.509319	0.548412
H259	H	-0.514309	0.013201	-0.048443
H260	H	-0.014309	0.513201	0.451557
H261	H	-0.705138	-0.023093	0.000000
H262	H	-0.205138	0.476907	0.500000
H263	H	-0.670424	-0.251953	0.000012
H264	H	-0.170424	0.248047	0.500012
