data_functionalizedCrystal
_audit_creation_method	'MofGen! by Chris Wilmer'
_symmetry_space_group_name_H-M	'P1'
_symmetry_Int_Tables_number	1
_symmetry_cell_setting	triclinic
loop_
_symmetry_equiv_pos_as_xyz
  x,y,z
_cell_length_a	12.759401
_cell_length_b	13.897447
_cell_length_c	12.759393
_cell_angle_alpha	89.969000
_cell_angle_beta	89.979062
_cell_angle_gamma	90.021055
loop_
_atom_site_label
_atom_site_type_symbol
_atom_site_fract_x
_atom_site_fract_y
_atom_site_fract_z
Zn1	Zn	1.606231	-0.383929	-0.594016
Zn2	Zn	1.606107	-0.545255	-0.418335
Zn3	Zn	1.430530	-0.383980	-0.418352
Zn4	Zn	1.430507	-0.545188	-0.593972
O5	O	1.518344	-0.464588	-0.506169
O6	O	1.753236	-0.405336	-0.570723
O7	O	1.582774	-0.523912	-0.271316
O8	O	1.453898	-0.248992	-0.441679
O9	O	1.753145	-0.523862	-0.441651
O10	O	1.582985	-0.248954	-0.570740
O11	O	1.453778	-0.405423	-0.271328
O12	O	1.283506	-0.405358	-0.441636
O13	O	1.453859	-0.523747	-0.740999
O14	O	1.283489	-0.523797	-0.570664
O15	O	1.582963	-0.405271	-0.741032
O16	O	1.582752	-0.680228	-0.441608
O17	O	1.453739	-0.680179	-0.570648
C18	C	1.245376	-0.464576	-0.506148
C19	C	1.128600	-0.464595	-0.506164
C20	C	1.518258	-0.715203	-0.506144
C21	C	1.518318	-0.822416	-0.506169
C22	C	1.073757	-0.526359	-0.573243
C23	C	0.964033	-0.526363	-0.573264
C24	C	0.964005	-0.402834	-0.439118
C25	C	1.073727	-0.402827	-0.439103
C26	C	0.814133	-0.560974	-0.697124
C27	C	0.759286	-0.622754	-0.764194
C28	C	0.794875	-0.716889	-0.780141
C29	C	0.885310	-0.749263	-0.729002
C30	C	0.940151	-0.687488	-0.661925
C31	C	0.904564	-0.593340	-0.645998
C32	C	1.223628	-0.368225	-0.315241
C33	C	1.278471	-0.306455	-0.248158
C34	C	1.242884	-0.212318	-0.232200
C35	C	1.152446	-0.179948	-0.283320
C36	C	1.097603	-0.241718	-0.350403
C37	C	1.133198	-0.335854	-0.366363
C38	C	1.518369	-0.909486	-0.506193
C39	C	1.518442	-1.018719	-0.506220
C40	C	1.792377	-0.464601	-0.506190
C41	C	1.909154	-0.464606	-0.506200
C42	C	1.518422	-0.464496	-0.780202
C43	C	1.518456	-0.464456	-0.896979
C44	C	1.518458	-0.212995	-0.506216
C45	C	1.518507	-0.105781	-0.506236
C46	C	1.585685	-0.402756	-0.951860
C47	C	1.585703	-0.402714	-1.061584
C48	C	1.451259	-0.526082	-1.061537
C49	C	1.451237	-0.526118	-0.951815
C50	C	1.623326	-0.288908	-1.211563
C51	C	1.690571	-0.227216	-1.266447
C52	C	1.793085	-0.212425	-1.230856
C53	C	1.828375	-0.259340	-1.140382
C54	C	1.761135	-0.321039	-1.085504
C55	C	1.658606	-0.335812	-1.121093
C56	C	1.413625	-0.639925	-0.801834
C57	C	1.346390	-0.701630	-0.746953
C58	C	1.243874	-0.716431	-0.782542
C59	C	1.208588	-0.669533	-0.873019
C60	C	1.275824	-0.607828	-0.927900
C61	C	1.378339	-0.593026	-0.892303
C62	C	1.518326	-0.464611	-0.233201
C63	C	1.518496	-0.464379	-0.116425
H64	H	1.118431	-0.576652	-0.627851
N65	N	1.799182	-0.371642	-0.987930
H66	H	1.874333	-0.352915	-0.973710
H67	H	1.753988	-0.352323	-0.926448
H68	H	1.911856	-0.247298	-1.111416
N69	N	1.865619	-0.145891	-1.290051
H70	H	1.827711	-0.118420	-1.352765
H71	H	1.888555	-0.091779	-1.242484
N72	N	1.378759	-0.592570	-1.120699
H73	H	1.421436	-0.637260	-1.166226
H74	H	1.336168	-0.631599	-1.069225
N75	N	1.652515	-0.176615	-1.364025
H76	H	1.577362	-0.195336	-1.378241
H77	H	1.657125	-0.104708	-1.353570
H78	H	0.750212	-0.767190	-0.834752
N79	N	1.512747	-0.304834	-1.249948
H80	H	1.514617	-0.332685	-1.323022
H81	H	1.475553	-0.351005	-1.201385
H82	H	1.247086	-0.569642	-1.001572
N83	N	1.098011	-0.685492	-0.911397
H84	H	1.059287	-0.622128	-0.912540
H85	H	1.099971	-0.713380	-0.984448
N86	N	1.302034	-0.145684	-0.159851
H87	H	1.254499	-0.124568	-0.100885
H88	H	1.364722	-0.180521	-0.129955
N89	N	1.171361	-0.782984	-0.723339
H90	H	1.107815	-0.745934	-0.698899
H91	H	1.148491	-0.837138	-0.770881
H92	H	1.375132	-0.739825	-0.673289
N93	N	1.524198	-0.623952	-0.763443
H94	H	1.536351	-0.663031	-0.697804
H95	H	1.575399	-0.644655	-0.819436
N96	N	1.376017	-0.341367	-0.193022
H97	H	1.405356	-0.287953	-0.148101
H98	H	1.357948	-0.398391	-0.147353
H99	H	1.252618	-0.444876	-0.328238
N100	N	1.000058	-0.206805	-0.405539
H101	H	1.018052	-0.149800	-0.451272
H102	H	0.970761	-0.260279	-0.450397
N103	N	1.037680	-0.722394	-0.606764
H104	H	1.051903	-0.791407	-0.627037
H105	H	1.099184	-0.680923	-0.627892
H106	H	0.685655	-0.596386	-0.805831
N107	N	0.923682	-0.850805	-0.746183
H108	H	0.875218	-0.885027	-0.796435
H109	H	0.996790	-0.849040	-0.776493
N110	N	0.775748	-0.459440	-0.679925
H111	H	0.774649	-0.423939	-0.749007
H112	H	0.702674	-0.461224	-0.649532
N113	N	1.658186	-0.336252	-0.892719
H114	H	1.706847	-0.375477	-0.847204
H115	H	1.700705	-0.297178	-0.944211
H116	H	0.919314	-0.352547	-0.384517
N117	N	1.114049	-0.078417	-0.266108
H118	H	1.162515	-0.044197	-0.215857
H119	H	1.112944	-0.042987	-0.335229
