data_functionalizedCrystal
_audit_creation_method	'MofGen! by Chris Wilmer'
_symmetry_space_group_name_H-M	'P1'
_symmetry_Int_Tables_number	1
_symmetry_cell_setting	triclinic
loop_
_symmetry_equiv_pos_as_xyz
  x,y,z
_cell_length_a	10.723024
_cell_length_b	8.965430
_cell_length_c	10.723024
_cell_angle_alpha	89.998405
_cell_angle_beta	84.467869
_cell_angle_gamma	90.003544
loop_
_atom_site_label
_atom_site_type_symbol
_atom_site_fract_x
_atom_site_fract_y
_atom_site_fract_z
O1	O	1.657188	0.124026	0.175018
O2	O	1.294036	0.124030	0.191771
O3	O	1.483989	0.124022	0.001818
O4	O	1.467235	0.124034	0.364971
O5	O	1.483973	-0.124057	0.001831
O6	O	1.294020	-0.124049	0.191784
O7	O	1.657172	-0.124053	0.175031
Cu8	Cu	1.475595	-0.146703	0.183408
Cu9	Cu	1.475614	0.146680	0.183393
O10	O	1.467219	-0.124045	0.364983
C11	C	1.247528	-0.000009	0.190558
C12	C	1.108974	-0.000007	0.186911
N13	N	1.475590	-0.353052	0.183418
C14	C	1.033991	-0.000002	0.293198
C15	C	0.890788	-0.000001	0.289431
C16	C	1.387716	-0.450354	0.271236
C17	C	1.500691	-0.549768	0.296416
C18	C	1.362663	-0.549765	0.158249
C19	C	1.588622	-0.450277	0.208655
C20	C	1.450520	-0.450265	0.070438
C21	C	1.563576	-0.549634	0.095571
C22	C	1.703680	-0.000011	0.176243
C23	C	1.842234	-0.000003	0.179891
C24	C	1.482762	-0.000015	-0.044675
C25	C	1.479114	-0.000010	-0.183229
N26	N	1.475628	0.353029	0.183374
C27	C	1.585401	-0.000009	-0.258212
C28	C	1.581634	-0.000004	-0.401415
C29	C	1.468447	-0.000004	0.411477
C30	C	1.472094	0.000000	0.550031
H31	H	1.075814	-0.000008	0.386984
H32	H	1.684160	-0.406760	0.230038
O33	O	1.697323	0.000257	-0.208388
C34	C	1.765631	0.128722	-0.248600
H35	H	1.698294	0.218521	-0.276352
H36	H	1.834551	0.099674	-0.332751
C37	C	1.920810	0.076692	-0.107277
C38	C	1.838105	0.186989	-0.141353
H39	H	1.965521	0.112632	-0.041125
H40	H	1.874793	-0.009861	-0.080188
H41	H	1.978232	0.052495	-0.177413
H42	H	1.780676	0.211170	-0.071222
H43	H	1.884115	0.273548	-0.168427
H44	H	0.906659	0.000003	0.088896
O45	O	1.363448	0.000200	-0.373246
C46	C	1.293515	0.128706	-0.396487
H47	H	1.323198	0.171544	-0.494987
H48	H	1.311286	0.218669	-0.325175
C49	C	1.116563	0.037069	-0.264166
C50	C	1.153013	0.089677	-0.385150
H51	H	1.029895	0.012998	-0.257168
H52	H	1.163679	-0.049506	-0.248504
H53	H	1.131383	0.112047	-0.204753
H54	H	1.138208	0.014692	-0.444559
H55	H	1.105891	0.176238	-0.400822
O56	O	1.299281	-0.398400	0.360072
C57	C	1.326201	-0.449135	0.479015
H58	H	1.430147	-0.477005	0.476382
H59	H	1.268438	-0.553209	0.505244
C60	C	1.165553	-0.292087	0.580302
C61	C	1.293224	-0.326306	0.577071
H62	H	1.145207	-0.216325	0.640789
H63	H	1.147412	-0.257910	0.500167
H64	H	1.117433	-0.378826	0.602155
H65	H	1.341341	-0.239573	0.555203
H66	H	1.311372	-0.360466	0.657204
O67	O	1.525844	-0.602103	0.410369
C68	C	1.425026	-0.690807	0.461559
H69	H	1.370605	-0.734400	0.382903
H70	H	1.360300	-0.620862	0.528891
C71	C	1.542689	-0.769758	0.629382
C72	C	1.475854	-0.823310	0.532774
H73	H	1.574039	-0.851490	0.673316
H74	H	1.610610	-0.709993	0.594898
H75	H	1.488740	-0.711471	0.685478
H76	H	1.529807	-0.881581	0.476671
H77	H	1.407942	-0.883089	0.567250
H78	H	1.637986	-0.592953	0.021284
H79	H	1.672624	-0.000010	-0.465848
O80	O	1.425004	-0.397888	-0.043380
C81	C	1.315968	-0.309231	-0.029042
H82	H	1.301322	-0.265697	0.071186
H83	H	1.231651	-0.379194	-0.049875
C84	C	1.348535	-0.230152	-0.243730
C85	C	1.330553	-0.176672	-0.120631
H86	H	1.357527	-0.148387	-0.300230
H87	H	1.421993	-0.289886	-0.253393
H88	H	1.278267	-0.288455	-0.261074
H89	H	1.400827	-0.118387	-0.103285
H90	H	1.257107	-0.116925	-0.110968
O91	O	1.248614	-0.601717	0.133012
C92	C	1.156247	-0.551161	0.225875
H93	H	1.191082	-0.446470	0.271897
H94	H	1.136294	-0.641760	0.299712
C95	C	0.992464	-0.643555	0.108879
C96	C	1.035245	-0.514964	0.165397
H97	H	0.917822	-0.621233	0.071577
H98	H	1.054692	-0.677621	0.046317
H99	H	0.975846	-0.719042	0.170420
H100	H	1.051877	-0.439486	0.103855
H101	H	0.973016	-0.480884	0.227948
H102	H	0.826355	0.000009	0.380421
H103	H	1.067152	0.000029	0.093125
H104	H	1.385328	0.000001	-0.225051
