data_functionalizedCrystal
_audit_creation_method	'MofGen! by Chris Wilmer'
_symmetry_space_group_name_H-M	'P1'
_symmetry_Int_Tables_number	1
_symmetry_cell_setting	triclinic
loop_
_symmetry_equiv_pos_as_xyz
  x,y,z
_cell_length_a	18.050591
_cell_length_b	18.050589
_cell_length_c	13.032268
_cell_angle_alpha	82.850583
_cell_angle_beta	82.833213
_cell_angle_gamma	90.027061
loop_
_atom_site_label
_atom_site_type_symbol
_atom_site_fract_x
_atom_site_fract_y
_atom_site_fract_z
Zn1	Zn	1.081977	-0.348973	0.590768
Zn2	Zn	1.097657	-0.457408	0.416034
Zn3	Zn	0.973564	-0.333236	0.416054
Zn4	Zn	0.957748	-0.473120	0.590737
O5	O	1.027737	-0.403184	0.503398
O6	O	1.187982	-0.363367	0.567594
O7	O	1.094378	-0.427775	0.269804
O8	O	0.988003	-0.231400	0.439252
O9	O	1.199502	-0.443034	0.439218
O10	O	1.067653	-0.242962	0.567614
O11	O	1.003207	-0.336546	0.269819
O12	O	0.867542	-0.351781	0.439221
O13	O	0.961045	-0.469813	0.736973
O14	O	0.855922	-0.454553	0.567560
O15	O	1.052317	-0.378602	0.736996
O16	O	1.079041	-0.563415	0.439187
O17	O	0.976250	-0.574958	0.567540
C18	C	0.834785	-0.403165	0.503390
C19	C	0.752238	-0.403177	0.503411
C20	C	1.027649	-0.596135	0.503381
C21	C	1.027676	-0.678683	0.503408
C22	C	0.497123	-0.459159	0.573106
C23	C	0.555101	-0.468634	0.477726
C24	C	0.455117	-0.403200	0.503409
C25	C	0.544222	-0.393748	0.598784
C26	C	0.601102	-0.403191	0.503415
C27	C	0.512012	-0.412706	0.407979
C28	C	0.501123	-0.337795	0.529100
C29	C	0.559085	-0.347238	0.433655
C30	C	0.371019	-0.403207	0.503407
C31	C	0.685199	-0.403183	0.503406
C32	C	0.971829	-0.884436	0.573182
C33	C	0.962336	-0.925275	0.477829
C34	C	1.027747	-0.829814	0.503422
C35	C	1.037275	-0.936057	0.598786
C36	C	1.027814	-0.975801	0.503443
C37	C	1.018224	-0.869563	0.408018
C38	C	1.093189	-0.880346	0.529040
C39	C	1.083728	-0.921157	0.433620
C40	C	1.027707	-0.745715	0.503411
C41	C	1.027856	-1.059898	0.503444
C42	C	1.221441	-0.403204	0.503407
C43	C	1.303987	-0.403212	0.503411
C44	C	1.003168	-0.427716	0.775961
C45	C	0.992698	-0.438170	0.892111
C46	C	1.027843	-0.209482	0.503438
C47	C	1.027889	-0.126938	0.503456
C48	C	1.052253	-0.378694	0.231895
C49	C	1.062866	-0.368031	0.115746
C50	C	1.033189	-0.397701	0.943906
C51	C	1.022369	-0.408505	1.063954
H52	H	0.470131	-0.506510	0.631971
H53	H	0.907026	-0.945103	0.456181
H54	H	0.585953	-0.299906	0.374648
H55	H	0.558655	-0.385757	0.679439
H56	H	0.578735	-0.523941	0.455991
H57	H	0.497673	-0.420765	0.327302
H58	H	1.010126	-0.840726	0.327356
C59	C	0.935042	-0.495783	0.952258
C60	C	0.960473	-0.560797	1.027308
C61	C	0.902816	-0.618412	1.087452
C62	C	0.819727	-0.611012	1.072545
C63	C	0.794292	-0.545994	0.997492
C64	C	0.851950	-0.488380	0.937349
H65	H	1.021984	-0.566277	1.038346
H66	H	0.921645	-0.666542	1.143011
H67	H	0.777046	-0.653661	1.117067
H68	H	0.732782	-0.540514	0.986455
H69	H	0.833121	-0.440250	0.881789
H70	H	0.477469	-0.282507	0.550863
H71	H	1.105542	-0.325379	1.071220
H72	H	0.924486	-0.868097	0.632093
C73	C	1.147651	-0.943046	0.353848
C74	C	1.149814	-0.912940	0.237624
C75	C	1.213730	-0.934835	0.157849
C76	C	1.275484	-0.986837	0.194297
C77	C	1.273324	-1.016946	0.310527
C78	C	1.209408	-0.995051	0.390302
H79	H	1.104098	-0.874442	0.210638
H80	H	1.215329	-0.912546	0.071808
H81	H	1.322799	-1.003045	0.135243
H82	H	1.319040	-1.055444	0.337513
H83	H	1.207809	-1.017340	0.476343
C84	C	1.090845	-0.340089	0.883757
C85	C	1.083498	-0.256995	0.898676
C86	C	1.141154	-0.199381	0.838529
C87	C	1.206158	-0.224861	0.763464
C88	C	1.213507	-0.307958	0.748542
C89	C	1.155851	-0.365572	0.808689
H90	H	1.035376	-0.238130	0.954247
H91	H	1.135713	-0.137867	0.849576
H92	H	1.248839	-0.182211	0.718939
H93	H	1.261629	-0.326823	0.692971
H94	H	1.161292	-0.427087	0.797642
C95	C	0.964710	-0.466121	1.124096
C96	C	0.881622	-0.458721	1.109190
C97	C	0.823965	-0.516335	1.169334
C98	C	0.849396	-0.581350	1.244384
C99	C	0.932488	-0.588753	1.259293
C100	C	0.990145	-0.531138	1.199150
H101	H	0.862793	-0.410591	1.053631
H102	H	0.762454	-0.510855	1.158296
H103	H	0.806714	-0.624000	1.288906
H104	H	0.951317	-0.636883	1.314853
H105	H	1.051656	-0.536618	1.210187
C106	C	1.167885	-0.853558	0.558343
C107	C	1.192299	-0.882555	0.664979
C108	C	1.266994	-0.855767	0.694297
C109	C	1.317276	-0.799982	0.616979
C110	C	1.292863	-0.770983	0.510337
C111	C	1.218168	-0.797771	0.481019
H112	H	1.155076	-0.923852	0.722220
H113	H	1.285065	-0.877234	0.773241
H114	H	1.372569	-0.780152	0.638682
H115	H	1.330085	-0.729685	0.453096
H116	H	1.200096	-0.776303	0.402075
H117	H	1.045308	-0.964981	0.679426
