data_functionalizedCrystal
_audit_creation_method	'MofGen! by Chris Wilmer'
_symmetry_space_group_name_H-M	'P1'
_symmetry_Int_Tables_number	1
_symmetry_cell_setting	triclinic
loop_
_symmetry_equiv_pos_as_xyz
  x,y,z
_cell_length_a	27.732048
_cell_length_b	27.732046
_cell_length_c	12.503572
_cell_angle_alpha	86.512317
_cell_angle_beta	86.516589
_cell_angle_gamma	97.357683
loop_
_atom_site_label
_atom_site_type_symbol
_atom_site_fract_x
_atom_site_fract_y
_atom_site_fract_z
O1	O	0.643731	-0.054704	-0.089195
O2	O	0.977065	0.278630	0.244138
O3	O	1.310398	0.611963	0.577471
O4	O	0.502939	-0.063448	-0.089230
O5	O	0.836272	0.269885	0.244103
O6	O	1.169605	0.603219	0.577437
O7	O	0.577707	0.011320	-0.089187
O8	O	0.911041	0.344653	0.244146
O9	O	1.244374	0.677987	0.577479
O10	O	0.568963	-0.129472	-0.089238
O11	O	0.902296	0.203861	0.244095
O12	O	1.235629	0.537195	0.577429
O13	O	0.572084	0.005688	0.089451
O14	O	0.905418	0.339021	0.422785
O15	O	1.238751	0.672355	0.756118
O16	O	0.497316	-0.069080	0.089409
O17	O	0.830649	0.264253	0.422742
O18	O	1.163982	0.597586	0.756075
O19	O	0.638108	-0.060336	0.089443
O20	O	0.971441	0.272997	0.422777
O21	O	1.304775	0.606331	0.756110
Cu22	Cu	0.567198	-0.065222	0.105737
Cu23	Cu	0.900532	0.268111	0.439071
Cu24	Cu	1.233865	0.601444	0.772404
Cu25	Cu	0.573848	-0.058562	-0.105524
Cu26	Cu	0.907182	0.274772	0.227810
Cu27	Cu	1.240515	0.608105	0.561143
O28	O	0.563340	-0.135104	0.089401
O29	O	0.896673	0.198229	0.422734
O30	O	1.230006	0.531563	0.756068
C31	C	0.482120	-0.066081	0.000085
C32	C	0.815454	0.267253	0.333419
C33	C	1.148787	0.600586	0.666752
C34	C	0.428466	-0.065527	0.000073
C35	C	0.761799	0.267806	0.333407
C36	C	1.095133	0.601139	0.666740
C37	C	0.089650	-0.106232	0.000105
C38	C	0.422983	0.227101	0.333439
C39	C	0.756316	0.560435	0.666772
C40	C	-0.112010	-0.104181	0.000116
C41	C	0.221323	0.229152	0.333449
C42	C	0.554656	0.562485	0.666782
O43	O	-0.143267	-0.141403	0.000149
O44	O	0.190066	0.191930	0.333482
O45	O	0.523399	0.525263	0.666815
N46	N	-0.131134	-0.059847	0.000130
N47	N	0.202199	0.273487	0.333463
N48	N	0.535532	0.606820	0.666796
C49	C	-0.099840	-0.016022	0.000148
C50	C	0.233493	0.317312	0.333481
C51	C	0.566827	0.650645	0.666815
O52	O	-0.120733	0.021735	0.000171
O53	O	0.212600	0.355068	0.333504
O54	O	0.545933	0.688401	0.666838
C55	C	0.101819	-0.018073	0.000145
C56	C	0.435152	0.315260	0.333479
C57	C	0.768486	0.648594	0.666812
C58	C	0.120940	-0.062410	0.000120
C59	C	0.454273	0.270923	0.333454
C60	C	0.787607	0.604256	0.666787
C61	C	0.108771	-0.150566	0.000082
C62	C	0.442105	0.182767	0.333415
C63	C	0.775438	0.516101	0.666748
C64	C	0.159184	-0.151078	0.000073
C65	C	0.492517	0.182255	0.333406
C66	C	0.825850	0.515589	0.666740
C67	C	0.190474	-0.107256	0.000088
C68	C	0.523807	0.226077	0.333422
C69	C	0.857141	0.559410	0.666755
C70	C	0.171352	-0.062922	0.000112
C71	C	0.504686	0.270411	0.333445
C72	C	0.838019	0.603744	0.666779
C73	C	0.133112	0.025751	0.000171
C74	C	0.466445	0.359085	0.333505
C75	C	0.799779	0.692418	0.666838
C76	C	0.183529	0.025234	0.000173
C77	C	0.516863	0.358568	0.333507
C78	C	0.850196	0.691901	0.666840
C79	C	0.202650	-0.019103	0.000149
C80	C	0.535984	0.314230	0.333482
C81	C	0.869317	0.647564	0.666815
C82	C	0.253055	-0.019613	0.000119
C83	C	0.586388	0.313721	0.333452
C84	C	0.919722	0.647054	0.666785
N85	N	0.272179	-0.063947	0.000105
N86	N	0.605512	0.269386	0.333438
N87	N	0.938846	0.602719	0.666771
C88	C	0.240888	-0.107769	0.000090
C89	C	0.574222	0.225564	0.333423
C90	C	0.907555	0.558897	0.666756
C91	C	-0.205714	-0.014948	0.000147
C92	C	0.127619	0.318386	0.333481
C93	C	0.460953	0.651719	0.666814
C94	C	-0.256128	-0.014435	0.000146
C95	C	0.077205	0.318899	0.333479
C96	C	0.410538	0.652232	0.666813
C97	C	-0.268295	-0.102595	0.000116
C98	C	0.065038	0.230739	0.333449
C99	C	0.398371	0.564072	0.666782
C100	C	-0.217880	-0.103107	0.000109
C101	C	0.115454	0.230226	0.333442
C102	C	0.448787	0.563560	0.666776
C103	C	-0.186590	-0.059282	0.000133
C104	C	0.146743	0.274051	0.333467
C105	C	0.480077	0.607384	0.666800
C106	C	0.346758	-0.108841	0.000071
C107	C	0.680092	0.224492	0.333404
C108	C	1.013425	0.557826	0.666738
C109	C	0.397176	-0.109349	0.000058
C110	C	0.730509	0.223984	0.333391
C111	C	1.063842	0.557318	0.666725
C112	C	0.409338	-0.021189	0.000094
C113	C	0.742671	0.312144	0.333427
C114	C	1.076005	0.645477	0.666761
C115	C	0.358925	-0.020681	0.000101
C116	C	0.692259	0.312652	0.333435
C117	C	1.025592	0.645986	0.666768
C118	C	0.327636	-0.064511	0.000093
C119	C	0.660969	0.268822	0.333427
C120	C	0.994303	0.602156	0.666760
O121	O	0.284340	0.017589	0.000098
O122	O	0.617673	0.350922	0.333431
O123	O	0.951007	0.684255	0.666764
O124	O	0.261791	-0.145521	0.000090
O125	O	0.595124	0.187813	0.333424
O126	O	0.928457	0.521146	0.666757
C127	C	0.039237	-0.105720	0.000114
C128	C	0.372571	0.227613	0.333447
C129	C	0.705904	0.560947	0.666780
C130	C	0.020116	-0.061386	0.000137
C131	C	0.353449	0.271947	0.333471
C132	C	0.686782	0.605280	0.666804
C133	C	0.051406	-0.017565	0.000153
C134	C	0.384739	0.315769	0.333486
C135	C	0.718073	0.649102	0.666819
C136	C	-0.030299	-0.060873	0.000136
C137	C	0.303035	0.272460	0.333469
C138	C	0.636368	0.605793	0.666803
C139	C	-0.061589	-0.104695	0.000121
C140	C	0.271744	0.228638	0.333454
C141	C	0.605078	0.561972	0.666788
C142	C	-0.042465	-0.149030	0.000107
C143	C	0.290868	0.184303	0.333440
C144	C	0.624201	0.517637	0.666774
C145	C	0.007947	-0.149542	0.000098
C146	C	0.341280	0.183791	0.333432
C147	C	0.674614	0.517125	0.666765
C148	C	0.032282	0.026770	0.000166
C149	C	0.365616	0.360104	0.333500
C150	C	0.698949	0.693437	0.666833
C151	C	-0.018130	0.027279	0.000174
C152	C	0.315203	0.360612	0.333507
C153	C	0.648536	0.693945	0.666840
C154	C	-0.049421	-0.016543	0.000158
C155	C	0.283912	0.316790	0.333492
C156	C	0.617246	0.650124	0.666825
C157	C	0.574712	0.026511	0.000136
C158	C	0.908046	0.359844	0.333469
C159	C	1.241379	0.693177	0.666802
C160	C	0.574159	0.080165	0.000147
C161	C	0.907493	0.413499	0.333481
C162	C	1.240826	0.746832	0.666814
C163	C	0.614866	0.418982	0.000120
C164	C	0.948199	0.752315	0.333453
C165	C	1.281533	1.085648	0.666786
C166	C	0.612816	0.620642	0.000115
C167	C	0.946150	0.953975	0.333448
C168	C	1.279483	1.287308	0.666782
O169	O	0.650038	0.651898	0.000079
O170	O	0.983372	0.985232	0.333412
O171	O	1.316705	1.318565	0.666745
N172	N	0.568482	0.639766	0.000106
N173	N	0.901815	0.973099	0.333440
N174	N	1.235148	1.306432	0.666773
C175	C	0.524656	0.608471	0.000092
C176	C	0.857990	0.941805	0.333425
C177	C	1.191323	1.275138	0.666758
O178	O	0.486900	0.629365	0.000073
O179	O	0.820233	0.962698	0.333406
O180	O	1.153567	1.296032	0.666740
C181	C	0.526707	0.406813	0.000089
C182	C	0.860040	0.740146	0.333422
C183	C	1.193373	1.073479	0.666756
C184	C	0.571044	0.387691	0.000108
C185	C	0.904377	0.721025	0.333442
C186	C	1.237711	1.054358	0.666775
C187	C	0.659200	0.399860	0.000138
C188	C	0.992533	0.733193	0.333472
C189	C	1.325867	1.066526	0.666805
C190	C	0.659712	0.349447	0.000145
C191	C	0.993045	0.682781	0.333479
C192	C	1.326378	1.016114	0.666812
C193	C	0.615890	0.318157	0.000134
C194	C	0.949223	0.651490	0.333467
C195	C	1.282556	0.984824	0.666801
C196	C	0.571556	0.337279	0.000116
C197	C	0.904889	0.670612	0.333449
C198	C	1.238222	1.003946	0.666782
C199	C	0.482882	0.375520	0.000067
C200	C	0.816215	0.708853	0.333400
C201	C	1.149549	1.042186	0.666733
C202	C	0.483399	0.325102	0.000063
C203	C	0.816732	0.658436	0.333396
C204	C	1.150065	0.991769	0.666730
C205	C	0.527736	0.305981	0.000083
C206	C	0.861069	0.639314	0.333416
C207	C	1.194403	0.972648	0.666749
C208	C	0.528246	0.255576	0.000111
C209	C	0.861579	0.588910	0.333445
C210	C	1.194912	0.922243	0.666778
N211	N	0.572580	0.236452	0.000120
N212	N	0.905914	0.569786	0.333453
N213	N	1.239247	0.903119	0.666787
C214	C	0.616402	0.267743	0.000131
C215	C	0.949736	0.601076	0.333465
C216	C	1.283069	0.934409	0.666798
C217	C	0.523583	0.714345	0.000095
C218	C	0.856916	1.047679	0.333429
C219	C	1.190250	1.381012	0.666762
C220	C	0.523070	0.764760	0.000098
C221	C	0.856403	1.098093	0.333431
C222	C	1.189737	1.431426	0.666765
C223	C	0.611230	0.776927	0.000119
C224	C	0.944564	1.110260	0.333452
C225	C	1.277897	1.443593	0.666786
C226	C	0.611743	0.726511	0.000124
C227	C	0.945076	1.059844	0.333458
C228	C	1.278409	1.393178	0.666791
C229	C	0.567918	0.695221	0.000104
C230	C	0.901251	1.028555	0.333437
C231	C	1.234584	1.361888	0.666771
C232	C	0.617474	0.161873	0.000147
C233	C	0.950807	0.495206	0.333480
C234	C	1.284140	0.828540	0.666814
C235	C	0.617981	0.111456	0.000159
C236	C	0.951315	0.444789	0.333492
C237	C	1.284648	0.778122	0.666825
C238	C	0.529822	0.099293	0.000132
C239	C	0.863155	0.432627	0.333465
C240	C	1.196488	0.765960	0.666798
C241	C	0.529313	0.149706	0.000126
C242	C	0.862647	0.483040	0.333459
C243	C	1.195980	0.816373	0.666793
C244	C	0.573144	0.180995	0.000130
C245	C	0.906477	0.514329	0.333463
C246	C	1.239810	0.847662	0.666797
O247	O	0.491044	0.224292	0.000136
O248	O	0.824377	0.557625	0.333469
O249	O	1.157710	0.890958	0.666802
O250	O	0.654154	0.246840	0.000126
O251	O	0.987487	0.580174	0.333459
O252	O	1.320820	0.913507	0.666793
C253	C	0.614354	0.469394	0.000113
C254	C	0.947688	0.802727	0.333446
C255	C	1.281021	1.136060	0.666779
C256	C	0.570021	0.488516	0.000094
C257	C	0.903354	0.821849	0.333428
C258	C	1.236687	1.155182	0.666761
C259	C	0.526199	0.457225	0.000083
C260	C	0.859532	0.790559	0.333416
C261	C	1.192865	1.123892	0.666750
C262	C	0.569508	0.538930	0.000097
C263	C	0.902841	0.872263	0.333430
C264	C	1.236174	1.205597	0.666764
C265	C	0.613330	0.570220	0.000108
C266	C	0.946663	0.903554	0.333442
C267	C	1.279996	1.236887	0.666775
C268	C	0.657665	0.551096	0.000117
C269	C	0.990998	0.884430	0.333450
C270	C	1.324331	1.217763	0.666784
C271	C	0.658176	0.500684	0.000124
C272	C	0.991510	0.834017	0.333457
C273	C	1.324843	1.167351	0.666791
C274	C	0.481864	0.476349	0.000074
C275	C	0.815197	0.809683	0.333408
C276	C	1.148530	1.143016	0.666741
C277	C	0.481356	0.526762	0.000068
C278	C	0.814689	0.860095	0.333402
C279	C	1.148022	1.193429	0.666735
C280	C	0.525178	0.558052	0.000080
C281	C	0.858511	0.891386	0.333413
C282	C	1.191844	1.224719	0.666746
C283	C	0.658927	-0.057703	0.000126
C284	C	0.992260	0.275630	0.333459
C285	C	1.325593	0.608963	0.666792
C286	C	0.712581	-0.058256	0.000131
C287	C	1.045915	0.275077	0.333464
C288	C	1.379248	0.608410	0.666797
N289	N	0.562525	-0.069907	0.254327
N290	N	0.895858	0.263426	0.587660
N291	N	1.229191	0.596760	0.920993
C292	C	0.566336	0.849705	0.000088
C293	C	0.899669	1.183038	0.333422
C294	C	1.233003	1.516372	0.666755
C295	C	0.566892	0.796050	0.000109
C296	C	0.900225	1.129383	0.333443
C297	C	1.233559	1.462717	0.666776
N298	N	0.578526	-0.053873	-0.254113
N299	N	0.911859	0.279460	0.079220
N300	N	1.245193	0.612793	0.412553
C301	C	0.555649	-0.076802	0.473438
C302	C	0.888983	0.256531	0.806771
C303	C	1.222316	0.589865	1.140105
C304	C	0.585400	-0.046980	0.526782
C305	C	0.918733	0.286354	0.860116
C306	C	1.252066	0.619687	1.193449
C307	C	0.581574	-0.050816	0.648703
C308	C	0.914908	0.282517	0.982037
C309	C	1.248241	0.615850	1.315370
C310	C	0.559474	-0.072966	0.351506
C311	C	0.892808	0.260367	0.684839
C312	C	1.226141	0.593701	1.018173
H313	H	0.412741	-0.145455	0.000037
H314	H	0.746074	0.187878	0.333371
H315	H	1.079408	0.521211	0.666704
H316	H	0.486966	0.780323	0.000101
H317	H	0.820299	1.113656	0.333434
H318	H	1.153632	1.446990	0.666767
H319	H	0.057755	0.062456	0.000182
H320	H	0.391088	0.395789	0.333515
H321	H	0.724421	0.729123	0.666848
H322	H	0.527309	-0.105214	0.519329
H323	H	0.860642	0.228120	0.852663
H324	H	1.193975	0.561453	1.185996
H325	H	0.613743	-0.018567	0.480885
H326	H	0.947076	0.314766	0.814219
H327	H	1.280410	0.648100	1.147552
H328	H	0.445248	0.542325	0.000062
H329	H	0.778581	0.875658	0.333395
H330	H	1.111914	1.208992	0.666728
Br331	Br	-0.191935	-0.163281	0.000076
Br332	Br	0.141398	0.170052	0.333409
Br333	Br	0.474732	0.503386	0.666743
Br334	Br	0.678158	0.085509	0.000186
Br335	Br	1.011491	0.418842	0.333520
Br336	Br	1.344824	0.752175	0.666853
H337	H	0.695816	0.333884	0.000157
H338	H	1.029149	0.667217	0.333490
H339	H	1.362482	1.000551	0.666824
Br340	Br	-0.282071	0.045741	0.000147
Br341	Br	0.051262	0.379074	0.333481
Br342	Br	0.384596	0.712407	0.666814
Br343	Br	0.304302	-0.168325	0.000062
Br344	Br	0.637635	0.165008	0.333395
Br345	Br	0.970969	0.498342	0.666729
H346	H	-0.293781	-0.138276	0.000103
H347	H	0.039553	0.195057	0.333437
H348	H	0.372886	0.528391	0.666770
Br349	Br	0.185125	-0.211253	0.000044
Br350	Br	0.518459	0.122080	0.333378
Br351	Br	0.851792	0.455413	0.666711
Br352	Br	0.718352	0.474742	0.000144
Br353	Br	1.051685	0.808075	0.333477
Br354	Br	1.385019	1.141409	0.666811
Br355	Br	0.670703	0.819402	0.000132
Br356	Br	1.004036	1.152735	0.333465
Br357	Br	1.337370	1.486068	0.666799
H358	H	-0.180241	0.020742	0.000167
H359	H	0.153092	0.354075	0.333500
H360	H	0.486425	0.687408	0.666834
Br361	Br	0.676958	0.204329	0.000151
Br362	Br	1.010291	0.537663	0.333485
Br363	Br	1.343625	0.870996	0.666818
Br364	Br	0.671916	0.700566	0.000153
Br365	Br	1.005250	1.033899	0.333486
Br366	Br	1.338583	1.367233	0.666820
H367	H	0.083299	-0.186253	0.000073
H368	H	0.416632	0.147080	0.333406
H369	H	0.749966	0.480414	0.666740
Br370	Br	0.422385	0.433891	0.000053
Br371	Br	0.755718	0.767224	0.333387
Br372	Br	1.089051	1.100558	0.666720
H373	H	0.117553	0.061855	0.000193
H374	H	0.450886	0.395189	0.333526
H375	H	0.784219	0.728522	0.666859
H376	H	0.693346	0.576582	0.000131
H377	H	1.026679	0.909915	0.333464
H378	H	1.360013	1.243248	0.666798
Br379	Br	0.225991	0.084714	0.000212
Br380	Br	0.559325	0.418047	0.333545
Br381	Br	0.892658	0.751381	0.666878
H382	H	0.487893	0.688873	0.000079
H383	H	0.821227	1.022206	0.333412
H384	H	1.154560	1.355540	0.666746
Br385	Br	0.332974	0.039491	0.000138
Br386	Br	0.666307	0.372825	0.333472
Br387	Br	0.999640	0.706158	0.666805
Br388	Br	0.423919	0.282640	0.000031
Br389	Br	0.757252	0.615974	0.333364
Br390	Br	1.090585	0.949307	0.666697
Br391	Br	0.469140	0.175657	0.000124
Br392	Br	0.802474	0.508990	0.333457
Br393	Br	1.135807	0.842324	0.666791
H394	H	0.446778	0.391079	0.000044
H395	H	0.780112	0.724412	0.333377
H396	H	1.113445	1.057746	0.666711
Br397	Br	0.470352	0.056819	0.000117
Br398	Br	0.803685	0.390152	0.333450
Br399	Br	1.137018	0.723485	0.666783
H400	H	0.023510	-0.185646	0.000080
H401	H	0.356844	0.147687	0.333413
H402	H	0.690177	0.481021	0.666746
Br403	Br	-0.044073	0.087457	0.000189
Br404	Br	0.289260	0.420791	0.333523
Br405	Br	0.622594	0.754124	0.666856
Br406	Br	-0.084941	-0.208501	0.000078
Br407	Br	0.248393	0.124832	0.333411
Br408	Br	0.581726	0.458165	0.666745
H409	H	0.694887	0.425332	0.000144
H410	H	1.028221	0.758665	0.333477
H411	H	1.361554	1.091999	0.666810
H412	H	0.434824	0.014489	0.000102
H413	H	0.768157	0.347822	0.333436
H414	H	1.101490	0.681156	0.666769
