data_functionalizedCrystal
_audit_creation_method	'MofGen! by Chris Wilmer'
_symmetry_space_group_name_H-M	'P1'
_symmetry_Int_Tables_number	1
_symmetry_cell_setting	triclinic
loop_
_symmetry_equiv_pos_as_xyz
  x,y,z
_cell_length_a	13.262390
_cell_length_b	14.519731
_cell_length_c	12.376897
_cell_angle_alpha	77.353232
_cell_angle_beta	92.995385
_cell_angle_gamma	84.075143
loop_
_atom_site_label
_atom_site_type_symbol
_atom_site_fract_x
_atom_site_fract_y
_atom_site_fract_z
O1	O	1.298602	0.041021	0.493239
O2	O	1.010009	0.069492	0.404517
O3	O	1.161948	-0.079356	0.451218
O4	O	1.146663	0.189869	0.446539
O5	O	1.195896	-0.049409	0.273658
O6	O	1.043957	0.099439	0.226958
O7	O	1.332551	0.070967	0.315680
Zn8	Zn	1.193644	0.089958	0.243128
Zn9	Zn	1.148916	0.050502	0.477070
O10	O	1.180611	0.219815	0.268980
C11	C	0.990049	0.085624	0.304383
C12	C	0.879995	0.089064	0.270549
C13	C	0.495758	0.033451	0.562344
C14	C	0.599159	0.030214	0.594135
C15	C	0.669373	0.044927	0.513241
C16	C	0.636176	0.062876	0.400552
C17	C	0.532767	0.066106	0.368758
C18	C	0.706381	0.077582	0.319655
C19	C	0.673185	0.095531	0.206966
C20	C	0.569785	0.098761	0.175178
C21	C	0.499571	0.084049	0.256072
C22	C	0.809791	0.074352	0.351448
C23	C	0.846800	0.107007	0.157862
C24	C	0.743399	0.110244	0.126072
C25	C	1.178206	-0.098707	0.362218
C26	C	1.176061	-0.200981	0.361557
C27	C	1.174317	-0.284040	0.361024
C28	C	1.172137	-0.388242	0.360362
C29	C	1.170407	-0.471297	0.359838
C30	C	1.168227	-0.575506	0.359174
C31	C	1.352511	0.054835	0.415817
C32	C	1.462562	0.051394	0.449657
C33	C	1.164353	0.239166	0.357982
C34	C	1.166497	0.341439	0.358649
N35	N	1.224177	0.116884	0.083471
C36	C	1.047476	-0.038943	-0.325921
C37	C	1.026090	-0.057790	-0.214166
C38	C	1.075610	-0.014123	-0.139752
C39	C	1.146520	0.048394	-0.177103
C40	C	1.167914	0.067238	-0.288867
C41	C	1.196048	0.092058	-0.102697
C42	C	1.266958	0.154575	-0.140048
C43	C	1.288348	0.173416	-0.251802
C44	C	1.238828	0.129749	-0.326217
C45	C	1.174653	0.073214	0.009067
C46	C	1.295091	0.179395	0.046121
C47	C	1.316477	0.198242	-0.065634
N48	N	1.118390	0.023568	0.636729
H49	H	0.836809	0.059739	0.443201
H50	H	0.438584	0.021465	0.628196
H51	H	0.753565	0.042291	0.539132
H52	H	0.626180	0.015595	0.685886
H53	H	0.903969	0.118985	0.091992
H54	H	0.415371	0.086687	0.230193
H55	H	0.542763	0.113360	0.083420
H56	H	0.716355	0.124858	0.034318
H57	H	1.116917	0.022313	0.039466
H58	H	1.346096	0.224313	-0.282206
H59	H	1.058192	-0.029472	-0.048757
H60	H	1.256233	0.145096	-0.417220
H61	H	0.968358	-0.108695	-0.183763
H62	H	1.374213	0.249145	-0.096061
H63	H	1.007172	-0.074497	-0.386516
H64	H	1.335415	0.214952	0.106710
