data_functionalizedCrystal
_audit_creation_method	'MofGen! by Chris Wilmer'
_symmetry_space_group_name_H-M	'P1'
_symmetry_Int_Tables_number	1
_symmetry_cell_setting	triclinic
loop_
_symmetry_equiv_pos_as_xyz
  x,y,z
_cell_length_a	19.805405
_cell_length_b	29.839135
_cell_length_c	19.805399
_cell_angle_alpha	90.021862
_cell_angle_beta	90.026615
_cell_angle_gamma	90.029256
loop_
_atom_site_label
_atom_site_type_symbol
_atom_site_fract_x
_atom_site_fract_y
_atom_site_fract_z
Zn1	Zn	-0.269433	0.686794	0.382766
Zn2	Zn	-0.382622	0.686737	0.269579
Zn3	Zn	-0.269457	0.611668	0.269586
Zn4	Zn	-0.382591	0.611644	0.382721
O5	O	-0.326026	0.649211	0.326163
O6	O	-0.284451	0.749653	0.367767
O7	O	-0.367633	0.676765	0.174863
O8	O	-0.174737	0.621668	0.284620
O9	O	-0.367610	0.749612	0.284609
O10	O	-0.174720	0.676862	0.367773
O11	O	-0.284491	0.621613	0.174868
O12	O	-0.284461	0.548798	0.284578
O13	O	-0.367557	0.621626	0.477444
O14	O	-0.367580	0.548780	0.367698
O15	O	-0.284421	0.676838	0.477476
O16	O	-0.477334	0.676741	0.284567
O17	O	-0.477311	0.621571	0.367692
C18	C	-0.326020	0.532488	0.326134
C19	C	-0.326034	0.482554	0.326138
C20	C	-0.282790	0.172929	0.369527
C21	C	-0.282795	-0.014744	0.369546
O22	O	-0.246012	-0.038993	0.406405
N23	N	-0.326026	-0.038231	0.326188
C24	C	-0.369256	-0.014798	0.282818
O25	O	-0.406022	-0.039082	0.245935
C26	C	-0.369248	0.172874	0.282796
C27	C	-0.326018	0.196359	0.326162
C28	C	-0.239564	0.196414	0.412889
C29	C	-0.239566	0.243330	0.412886
C30	C	-0.282794	0.266760	0.369522
C31	C	-0.326020	0.243275	0.326160
C32	C	-0.412474	0.196307	0.239424
C33	C	-0.412467	0.243228	0.239421
C34	C	-0.369237	0.266713	0.282787
C35	C	-0.369250	0.313621	0.282792
N36	N	-0.326019	0.337108	0.326151
C37	C	-0.282791	0.313678	0.369515
C38	C	-0.369259	-0.113328	0.282834
C39	C	-0.369262	-0.160246	0.282840
C40	C	-0.282799	-0.160189	0.369567
C41	C	-0.282800	-0.113271	0.369564
C42	C	-0.326027	-0.089841	0.326192
C43	C	-0.282798	0.412204	0.369507
C44	C	-0.282806	0.459123	0.369502
C45	C	-0.369266	0.459062	0.282773
C46	C	-0.369261	0.412147	0.282780
C47	C	-0.326022	0.388719	0.326149
O48	O	-0.406009	0.337898	0.245947
O49	O	-0.246020	0.337970	0.406383
C50	C	-0.282788	0.126014	0.369529
C51	C	-0.326015	0.102529	0.326168
C52	C	-0.369243	0.125959	0.282803
C53	C	-0.326018	0.055611	0.326174
C54	C	-0.282790	0.032180	0.369538
C55	C	-0.239558	0.055668	0.412897
C56	C	-0.239560	0.102583	0.412894
C57	C	-0.412474	0.102471	0.239445
C58	C	-0.412469	0.055556	0.239451
C59	C	-0.369241	0.032126	0.282816
C60	C	-0.501882	0.649159	0.326138
C61	C	-0.577114	0.649179	0.326151
C62	C	-0.612390	0.677901	0.369482
C63	C	-0.683079	0.677918	0.369495
C64	C	-0.718489	0.649213	0.326172
C65	C	-0.683207	0.620487	0.282838
C66	C	-0.612520	0.620469	0.282830
C67	C	-0.968281	0.620559	0.282873
C68	C	-1.038973	0.620581	0.282884
C69	C	-1.038839	0.678008	0.369538
C70	C	-0.968152	0.677990	0.369529
C71	C	-0.932876	0.649262	0.326199
C72	C	-0.856228	0.649245	0.326187
C73	C	-0.795136	0.649233	0.326180
C74	C	-0.149483	0.649274	0.326202
C75	C	-0.074251	0.649301	0.326219
C76	C	-0.325983	0.649236	0.502706
C77	C	-0.325965	0.649247	0.577938
C78	C	-0.326031	0.766389	0.326192
C79	C	-0.326034	0.816323	0.326205
C80	C	-0.326019	0.649211	0.150307
C81	C	-0.325847	0.649288	0.075075
C82	C	-0.282674	0.677996	0.613300
C83	C	-0.282654	0.678001	0.683988
C84	C	-0.325929	0.649258	0.719313
C85	C	-0.369222	0.620505	0.683946
C86	C	-0.369238	0.620498	0.613259
C87	C	-0.369159	0.620530	0.969020
C88	C	-0.369142	0.620540	1.039712
C89	C	-0.282575	0.678033	1.039749
C90	C	-0.282591	0.678026	0.969062
C91	C	-0.325881	0.649272	0.933701
C92	C	-0.325901	0.649267	0.857052
C93	C	-0.325913	0.649265	0.795961
H94	H	-0.404471	-0.179364	0.247535
C95	C	-0.573713	0.588873	0.235164
C96	C	-0.495960	0.588850	0.235156
C97	C	-0.457153	0.557251	0.187492
C98	C	-0.496100	0.525676	0.139837
C99	C	-0.573857	0.525699	0.139843
C100	C	-0.612664	0.557297	0.187507
H101	H	-0.467125	0.612224	0.270435
H102	H	-0.399592	0.557234	0.187488
H103	H	-0.467373	0.502285	0.104553
H104	H	-0.602691	0.502324	0.104564
H105	H	-0.670225	0.557314	0.187511
H106	H	-0.404419	0.597123	0.940237
H107	H	-0.447675	0.177194	0.204110
H108	H	-0.404484	0.597083	0.584468
H109	H	-0.247587	0.393134	0.404820
C110	C	-0.235242	-0.087440	0.417262
C111	C	-0.182057	-0.055180	0.388025
C112	C	-0.134495	-0.029352	0.435723
C113	C	-0.140118	-0.035784	0.512659
C114	C	-0.193305	-0.068045	0.541900
C115	C	-0.240867	-0.093873	0.494202
H116	H	-0.177893	-0.050418	0.331069
H117	H	-0.095123	-0.005471	0.414077
H118	H	-0.104910	-0.016664	0.547968
H119	H	-0.197470	-0.072807	0.598856
H120	H	-0.280240	-0.117754	0.515848
C121	C	-0.235249	0.484955	0.417206
C122	C	-0.240871	0.478520	0.494142
C123	C	-0.193315	0.504350	0.541843
C124	C	-0.140136	0.536615	0.512610
C125	C	-0.134512	0.543052	0.435671
C126	C	-0.182068	0.517222	0.387969
H127	H	-0.280239	0.454634	0.515785
H128	H	-0.197479	0.499584	0.598799
H129	H	-0.104932	0.555736	0.547922
H130	H	-0.095143	0.566938	0.414027
H131	H	-0.177904	0.521988	0.331014
C132	C	-0.234948	0.709660	1.078647
C133	C	-0.234921	0.709669	1.156401
C134	C	-0.187297	0.741296	1.195297
C135	C	-0.139699	0.772915	1.156440
C136	C	-0.139724	0.772907	1.078682
C137	C	-0.187348	0.741280	1.039786
H138	H	-0.270158	0.686262	1.185169
H139	H	-0.187279	0.741302	1.252858
H140	H	-0.104445	0.796327	1.185233
H141	H	-0.104487	0.796314	1.049914
H142	H	-0.187366	0.741275	0.982225
H143	H	-0.939323	0.701365	0.404805
H144	H	-1.067569	0.701398	0.404822
C145	C	-0.192005	0.269156	0.460587
C146	C	-0.197626	0.262717	0.537521
C147	C	-0.150060	0.288538	0.585224
C148	C	-0.096873	0.320798	0.555993
C149	C	-0.091250	0.327238	0.479054
C150	C	-0.138816	0.301417	0.431351
H151	H	-0.237000	0.238834	0.559164
H152	H	-0.154223	0.283770	0.642180
H153	H	-0.061662	0.339912	0.591305
H154	H	-0.051876	0.351121	0.457412
H155	H	-0.134653	0.306185	0.374396
H156	H	-0.404456	0.597100	0.712714
H157	H	-0.247354	0.701434	0.940304
C158	C	-0.192010	0.170647	0.460599
C159	C	-0.197646	0.177131	0.537531
C160	C	-0.150094	0.151369	0.585251
C161	C	-0.096906	0.119123	0.556039
C162	C	-0.091268	0.112637	0.479103
C163	C	-0.138821	0.138399	0.431383
H164	H	-0.237021	0.201003	0.559159
H165	H	-0.154267	0.156170	0.642204
H166	H	-0.061705	0.100052	0.591364
H167	H	-0.051894	0.088765	0.457475
H168	H	-0.134647	0.133598	0.374431
C169	C	-0.460021	0.269000	0.191712
C170	C	-0.513203	0.301244	0.220939
C171	C	-0.560759	0.327014	0.173233
C172	C	-0.555132	0.320540	0.096298
C173	C	-0.501948	0.288294	0.067067
C174	C	-0.454393	0.262524	0.114774
H175	H	-0.517371	0.306038	0.277894
H176	H	-0.600129	0.350884	0.194872
H177	H	-0.590336	0.339617	0.060983
H178	H	-0.497781	0.283501	0.010112
H179	H	-0.415022	0.238654	0.093135
H180	H	-0.204358	0.121701	0.448207
H181	H	-0.404470	0.393024	0.247476
H182	H	-0.404383	0.597132	1.068472
H183	H	-0.404463	0.478148	0.247468
C184	C	-1.077926	0.589001	0.235230
C185	C	-1.126557	0.553737	0.264520
C186	C	-1.165511	0.522159	0.216869
C187	C	-1.155833	0.525846	0.139927
C188	C	-1.107200	0.561112	0.110632
C189	C	-1.068247	0.592689	0.158284
H190	H	-1.133723	0.551006	0.321481
H191	H	-1.201512	0.496053	0.238555
H192	H	-1.184669	0.502470	0.104653
H193	H	-1.100035	0.563842	0.053672
H194	H	-1.032245	0.618795	0.136597
C195	C	-0.460031	0.128242	0.191744
C196	C	-0.513213	0.160484	0.220978
C197	C	-0.560776	0.186252	0.173277
C198	C	-0.555159	0.179778	0.096342
C199	C	-0.501976	0.147534	0.067104
C200	C	-0.454412	0.121766	0.114805
H201	H	-0.517373	0.165277	0.277933
H202	H	-0.600146	0.210121	0.194921
H203	H	-0.590369	0.198853	0.061031
H204	H	-0.497815	0.142741	0.010149
H205	H	-0.415042	0.097897	0.093161
C206	C	-0.235069	0.709615	0.574445
C207	C	-0.158121	0.705976	0.584181
C208	C	-0.110513	0.737594	0.545328
C209	C	-0.139853	0.772851	0.496740
C210	C	-0.216805	0.776492	0.487002
C211	C	-0.264413	0.744874	0.525855
H212	H	-0.136399	0.679875	0.620151
H213	H	-0.053549	0.734899	0.552537
H214	H	-0.104611	0.796257	0.467979
H215	H	-0.238527	0.802593	0.451032
H216	H	-0.321377	0.747569	0.518646
C217	C	-0.416819	-0.087561	0.235127
C218	C	-0.411203	-0.094040	0.158193
C219	C	-0.458768	-0.068276	0.110488
C220	C	-0.511948	-0.036031	0.139718
C221	C	-0.517567	-0.029550	0.216656
C222	C	-0.470002	-0.055315	0.264360
H223	H	-0.371834	-0.117911	0.136552
H224	H	-0.454608	-0.073074	0.053534
H225	H	-0.547158	-0.016959	0.104404
H226	H	-0.556936	-0.005680	0.238297
H227	H	-0.474162	-0.050517	0.321315
H228	H	-0.247601	-0.179274	0.404877
C229	C	-0.929488	0.588966	0.235198
C230	C	-0.880902	0.608444	0.182079
C231	C	-0.842108	0.576850	0.134397
C232	C	-0.851900	0.525779	0.139834
C233	C	-0.900488	0.506299	0.192955
C234	C	-0.939282	0.537892	0.240637
H235	H	-0.873651	0.646252	0.178052
H236	H	-0.806139	0.591272	0.095073
H237	H	-0.823182	0.502392	0.104537
H238	H	-0.907739	0.468490	0.196982
H239	H	-0.975250	0.523471	0.279961
H240	H	-0.247403	0.701413	0.712777
H241	H	-0.712044	0.597113	0.247567
H242	H	-0.204362	0.036583	0.448208
H243	H	-0.583564	0.701278	0.404758
C244	C	-0.721879	0.709517	0.417159
C245	C	-0.712091	0.760587	0.411700
C246	C	-0.750889	0.792188	0.459367
C247	C	-0.799475	0.772719	0.512493
C248	C	-0.809266	0.721646	0.517954
C249	C	-0.770468	0.690045	0.470287
H250	H	-0.676122	0.775002	0.372371
H251	H	-0.743641	0.829996	0.455324
H252	H	-0.828196	0.796112	0.547779
H253	H	-0.845234	0.707231	0.557283
H254	H	-0.777716	0.652237	0.474330
H255	H	-0.447678	0.036438	0.204139
