data_functionalizedCrystal
_audit_creation_method	'MofGen! by Chris Wilmer'
_symmetry_space_group_name_H-M	'P1'
_symmetry_Int_Tables_number	1
_symmetry_cell_setting	triclinic
loop_
_symmetry_equiv_pos_as_xyz
  x,y,z
_cell_length_a	11.169417
_cell_length_b	19.805405
_cell_length_c	11.169409
_cell_angle_alpha	89.962829
_cell_angle_beta	89.980487
_cell_angle_gamma	90.027975
loop_
_atom_site_label
_atom_site_type_symbol
_atom_site_fract_x
_atom_site_fract_y
_atom_site_fract_z
Zn1	Zn	1.834826	-0.269386	-0.678492
Zn2	Zn	2.168159	0.063948	-0.345159
Zn3	Zn	2.501492	0.397281	-0.011826
Zn4	Zn	1.834658	-0.382595	-0.477792
Zn5	Zn	2.167991	-0.049262	-0.144459
Zn6	Zn	2.501324	0.284072	0.188874
Zn7	Zn	1.634112	-0.269428	-0.477828
Zn8	Zn	1.967445	0.063906	-0.144495
Zn9	Zn	2.300778	0.397239	0.188839
Zn10	Zn	1.634062	-0.382541	-0.678438
Zn11	Zn	1.967395	-0.049207	-0.345105
Zn12	Zn	2.300728	0.284126	-0.011772
O13	O	1.734414	-0.325987	-0.578138
O14	O	2.067747	0.007346	-0.244804
O15	O	2.401081	0.340679	0.088529
O16	O	2.002753	-0.284408	-0.651877
O17	O	2.336086	0.048925	-0.318544
O18	O	2.669420	0.382258	0.014790
O19	O	1.808005	-0.367623	-0.309847
O20	O	2.141339	-0.034290	0.023486
O21	O	2.474672	0.299043	0.356819
O22	O	1.660828	-0.174706	-0.504484
O23	O	1.994161	0.158628	-0.171151
O24	O	2.327495	0.491961	0.162183
O25	O	2.002630	-0.367583	-0.504423
O26	O	2.335963	-0.034249	-0.171090
O27	O	2.669296	0.299084	0.162243
O28	O	1.808292	-0.174675	-0.651911
O29	O	2.141625	0.158659	-0.318578
O30	O	2.474958	0.491992	0.014755
O31	O	1.660665	-0.284480	-0.309873
O32	O	1.993998	0.048853	0.023460
O33	O	2.327332	0.382187	0.356793
O34	O	1.466155	-0.284427	-0.504432
O35	O	1.799489	0.048906	-0.171098
O36	O	2.132822	0.382239	0.162235
O37	O	1.660743	-0.367490	-0.846395
O38	O	1.994076	-0.034157	-0.513062
O39	O	2.327410	0.299177	-0.179729
O40	O	1.466119	-0.367531	-0.651819
O41	O	1.799452	-0.034198	-0.318486
O42	O	2.132785	0.299136	0.014847
O43	O	1.808243	-0.284356	-0.846435
O44	O	2.141577	0.048978	-0.513102
O45	O	2.474910	0.382311	-0.179768
O46	O	1.807957	-0.477304	-0.504371
O47	O	2.141290	-0.143971	-0.171038
O48	O	2.474624	0.189362	0.162296
O49	O	1.660580	-0.477264	-0.651785
O50	O	1.993913	-0.143931	-0.318451
O51	O	2.327247	0.189402	0.014882
C52	C	1.422589	-0.325978	-0.578124
C53	C	1.755923	0.007355	-0.244791
C54	C	2.089256	0.340688	0.088543
C55	C	1.289189	-0.325991	-0.578147
C56	C	1.622523	0.007343	-0.244813
C57	C	1.955856	0.340676	0.088520
C58	C	1.734277	-0.501843	-0.578094
C59	C	2.067611	-0.168510	-0.244761
C60	C	2.400944	0.164823	0.088572
C61	C	1.734329	-0.577075	-0.578116
C62	C	2.067662	-0.243742	-0.244783
C63	C	2.400995	0.089591	0.088551
C64	C	1.811068	-0.612345	-0.654942
C65	C	2.144401	-0.279012	-0.321608
C66	C	2.477734	0.054321	0.011725
C67	C	1.811111	-0.683034	-0.654964
C68	C	2.144444	-0.349700	-0.321630
C69	C	2.477778	-0.016367	0.011703
C70	C	1.734420	-0.718451	-0.578154
C71	C	2.067754	-0.385118	-0.244820
C72	C	2.401087	-0.051784	0.088513
C73	C	1.657673	-0.683176	-0.501325
C74	C	1.991006	-0.349843	-0.167991
C75	C	2.324340	-0.016509	0.165342
C76	C	1.657625	-0.612489	-0.501309
C77	C	1.990958	-0.279156	-0.167976
C78	C	2.324291	0.054178	0.165357
C79	C	1.657866	-0.968249	-0.501386
C80	C	1.991199	-0.634916	-0.168053
C81	C	2.324532	-0.301583	0.165281
C82	C	1.657923	-1.038941	-0.501405
C83	C	1.991256	-0.705608	-0.168072
C84	C	2.324589	-0.372275	0.165262
C85	C	1.811352	-1.038794	-0.655041
C86	C	2.144686	-0.705461	-0.321707
C87	C	2.478019	-0.372127	0.011626
C88	C	1.811304	-0.968107	-0.655025
C89	C	2.144637	-0.634774	-0.321692
C90	C	2.477970	-0.301440	0.011641
C91	C	1.734552	-0.932838	-0.578201
C92	C	2.067886	-0.599505	-0.244868
C93	C	2.401219	-0.266172	0.088465
C94	C	1.734505	-0.856190	-0.578180
C95	C	2.067838	-0.522857	-0.244846
C96	C	2.401171	-0.189523	0.088487
C97	C	1.734473	-0.795098	-0.578168
C98	C	2.067807	-0.461765	-0.244835
C99	C	2.401140	-0.128431	0.088498
C100	C	2.047456	-0.325997	-0.578152
C101	C	2.380790	0.007336	-0.244819
C102	C	2.714123	0.340670	0.088514
C103	C	2.180856	-0.326001	-0.578158
C104	C	2.514190	0.007332	-0.244825
C105	C	2.847523	0.340666	0.088508
C106	C	1.734506	-0.325912	-0.891180
C107	C	2.067840	0.007421	-0.557847
C108	C	2.401173	0.340754	-0.224514
C109	C	1.734546	-0.325880	-1.024580
C110	C	2.067879	0.007453	-0.691247
C111	C	2.401212	0.340787	-0.357914
C112	C	1.734584	-0.149445	-0.578208
C113	C	2.067917	0.183889	-0.244874
C114	C	2.401251	0.517222	0.088459
C115	C	1.734657	-0.074213	-0.578237
C116	C	2.067990	0.259121	-0.244904
C117	C	2.401323	0.592454	0.088429
C118	C	1.734391	-0.326013	-0.266313
C119	C	2.067725	0.007320	0.067020
C120	C	2.401058	0.340653	0.400354
C121	C	1.734585	-0.325855	-0.132914
C122	C	2.067918	0.007479	0.200420
C123	C	2.401251	0.340812	0.533753
H124	H	1.873523	-0.583513	-0.717484
H125	H	2.206856	-0.250180	-0.384151
H126	H	2.540190	0.083154	-0.050817
F127	F	1.576171	-0.930723	-0.419632
F128	F	1.909504	-0.597389	-0.086299
F129	F	2.242838	-0.264056	0.247035
H130	H	1.873843	-1.067518	-0.717599
H131	H	2.207176	-0.734185	-0.384265
H132	H	2.540510	-0.400852	-0.050932
F133	F	1.892932	-0.930417	-0.736773
F134	F	2.226265	-0.597084	-0.403440
F135	F	2.559598	-0.263750	-0.070107
H136	H	1.873609	-0.711747	-0.717514
H137	H	2.206942	-0.378414	-0.384180
H138	H	2.540276	-0.045081	-0.050847
F139	F	1.576293	-1.076634	-0.419650
F140	F	1.909626	-0.743300	-0.086317
F141	F	2.242959	-0.409967	0.247017
H142	H	1.595225	-0.712018	-0.438789
H143	H	1.928559	-0.378685	-0.105456
H144	H	2.261892	-0.045352	0.227877
F145	F	1.575947	-0.574953	-0.419542
F146	F	1.909280	-0.241619	-0.086209
F147	F	2.242614	0.091714	0.247124
