data_functionalizedCrystal
_audit_creation_method	'MofGen! by Chris Wilmer'
_symmetry_space_group_name_H-M	'P1'
_symmetry_Int_Tables_number	1
_symmetry_cell_setting	triclinic
loop_
_symmetry_equiv_pos_as_xyz
  x,y,z
_cell_length_a	11.792254
_cell_length_b	10.268362
_cell_length_c	10.654541
_cell_angle_alpha	89.994950
_cell_angle_beta	95.658737
_cell_angle_gamma	90.004525
loop_
_atom_site_label
_atom_site_type_symbol
_atom_site_fract_x
_atom_site_fract_y
_atom_site_fract_z
O1	O	1.507297	0.108299	-0.172212
O2	O	1.176998	0.108301	-0.189936
O3	O	1.349743	0.108292	0.001686
O4	O	1.334552	0.108308	-0.363835
O5	O	1.349728	-0.108309	0.001694
O6	O	1.176983	-0.108299	-0.189928
O7	O	1.507282	-0.108302	-0.172204
Cu8	Cu	1.342131	-0.128078	-0.181066
Cu9	Cu	1.342149	0.128077	-0.181075
O10	O	1.334537	-0.108293	-0.363827
C11	C	1.134697	0.000001	-0.188816
C12	C	1.008677	0.000002	-0.185474
C13	C	0.906334	0.000008	-0.182759
C14	C	0.777940	0.000008	-0.179364
N15	N	1.342127	-0.308244	-0.181058
C16	C	1.342143	-0.573914	-0.181072
C17	C	1.342130	-0.426077	-0.181068
C18	C	1.549582	0.000001	-0.173325
C19	C	1.675603	0.000008	-0.176667
C20	C	1.348621	-0.000008	0.048485
C21	C	1.345285	-0.000005	0.187919
N22	N	1.342162	0.308243	-0.181073
C23	C	1.335659	0.000010	-0.410626
C24	C	1.338995	0.000016	-0.550060
C25	C	1.551849	-0.000024	0.216464
C26	C	1.653558	-0.000035	0.296241
C27	C	1.650418	-0.000031	0.427250
C28	C	1.545555	-0.000012	0.478484
C29	C	1.443845	0.000000	0.398707
C30	C	1.446998	-0.000008	0.267697
C31	C	1.237285	0.000028	0.370163
C32	C	1.240423	0.000014	0.239153
C33	C	1.132423	0.000048	0.421397
C34	C	1.030710	0.000050	0.341620
C35	C	1.033856	0.000044	0.210603
C36	C	1.138713	0.000026	0.159377
H37	H	1.738935	-0.000063	0.254512
H38	H	1.543007	0.000008	0.585160
O39	O	1.749322	-0.000097	0.504572
C40	C	1.954542	-0.000037	0.519075
C41	C	1.842621	0.000005	0.431365
H42	H	2.030003	0.000074	0.459922
H43	H	1.958296	-0.090704	0.581109
H44	H	1.958176	0.090590	0.581140
H45	H	1.838911	-0.090561	0.369221
H46	H	1.838913	0.090732	0.369417
O47	O	0.934945	0.000002	0.133291
C48	C	0.729727	0.000123	0.118821
C49	C	0.841658	0.000139	0.206514
H50	H	0.654275	0.000262	0.177987
H51	H	0.725933	-0.090548	0.056806
H52	H	0.726116	0.090747	0.056736
H53	H	0.845344	-0.090423	0.268678
H54	H	0.845406	0.090870	0.268444
H55	H	1.129872	0.000059	0.528073
H56	H	1.554416	-0.000045	0.109791
H57	H	0.945340	0.000074	0.383346
H58	H	1.141284	0.000014	0.052704
