data_functionalizedCrystal
_audit_creation_method	'MofGen! by Chris Wilmer'
_symmetry_space_group_name_H-M	'P1'
_symmetry_Int_Tables_number	1
_symmetry_cell_setting	triclinic
loop_
_symmetry_equiv_pos_as_xyz
  x,y,z
_cell_length_a	14.044220
_cell_length_b	11.026607
_cell_length_c	9.482944
_cell_angle_alpha	98.184571
_cell_angle_beta	99.591696
_cell_angle_gamma	100.887447
loop_
_atom_site_label
_atom_site_type_symbol
_atom_site_fract_x
_atom_site_fract_y
_atom_site_fract_z
O1	O	0.420767	1.672672	0.120890
O2	O	0.754100	2.006006	0.454224
O3	O	1.087433	2.339339	0.787557
O4	O	0.374719	1.314383	0.120896
O5	O	0.708052	1.647716	0.454229
O6	O	1.041386	1.981049	0.787563
O7	O	0.258839	1.488147	0.120879
O8	O	0.592172	1.821481	0.454212
O9	O	0.925505	2.154814	0.787545
O10	O	0.536647	1.498908	0.120907
O11	O	0.869980	1.832241	0.454241
O12	O	1.203314	2.165574	0.787574
O13	O	0.226086	1.450660	-0.120916
O14	O	0.559419	1.783993	0.212418
O15	O	0.892753	2.117326	0.545751
O16	O	0.341966	1.276895	-0.120898
O17	O	0.675300	1.610228	0.212435
O18	O	1.008633	1.943561	0.545768
O19	O	0.388014	1.635185	-0.120904
O20	O	0.721347	1.968518	0.212429
O21	O	1.054681	2.301851	0.545763
Cu22	Cu	0.362000	1.452617	-0.142979
Cu23	Cu	0.695333	1.785950	0.190354
Cu24	Cu	1.028666	2.119283	0.523688
Cu25	Cu	0.400733	1.496950	0.142971
Cu26	Cu	0.734067	1.830284	0.476304
Cu27	Cu	1.067400	2.163617	0.809637
O28	O	0.503894	1.461420	-0.120887
O29	O	0.837228	1.794753	0.212446
O30	O	1.170561	2.128087	0.545780
C31	C	0.206344	1.464695	-0.000019
C32	C	0.539678	1.798029	0.333314
C33	C	0.873011	2.131362	0.666648
C34	C	0.098722	1.450651	-0.000020
C35	C	0.432055	1.783984	0.333313
C36	C	0.765389	2.117318	0.666646
C37	C	0.349848	1.249508	-0.000001
C38	C	0.683181	1.582842	0.333333
C39	C	1.016514	1.916175	0.666666
C40	C	0.324524	1.112053	0.000001
C41	C	0.657857	1.445387	0.333335
C42	C	0.991190	1.778720	0.666668
C43	C	0.412886	1.700059	-0.000004
C44	C	0.746219	2.033393	0.333329
C45	C	1.079552	2.366726	0.666662
C46	C	0.438211	1.837516	0.000003
C47	C	0.771544	2.170849	0.333337
C48	C	1.104878	2.504183	0.666670
C49	C	-0.098317	1.424979	0.000001
C50	C	0.235016	1.758313	0.333334
C51	C	0.568349	2.091646	0.666668
C52	C	-0.138955	1.524584	0.000004
C53	C	0.194379	1.857918	0.333337
C54	C	0.527712	2.191251	0.666670
C55	C	-0.248594	1.510300	0.000016
C56	C	0.084739	1.843633	0.333349
C57	C	0.418073	2.176967	0.666682
C58	C	0.011332	1.439262	-0.000011
C59	C	0.344665	1.772595	0.333322
C60	C	0.677998	2.105928	0.666656
C61	C	0.556389	1.484873	0.000014
C62	C	0.889722	1.818206	0.333347
C63	C	1.223056	2.151539	0.666681
C64	C	0.664013	1.498918	0.000025
C65	C	0.997346	1.832251	0.333358
C66	C	1.330679	2.165585	0.666692
N67	N	0.334757	1.421444	-0.344101
N68	N	0.668091	1.754777	-0.010767
N69	N	1.001424	2.088111	0.322566
C70	C	0.368286	1.903752	-0.000002
C71	C	0.701619	2.237085	0.333332
C72	C	1.034953	2.570418	0.666665
C73	C	0.394459	2.045820	0.000006
C74	C	0.727792	2.379154	0.333340
C75	C	1.061126	2.712487	0.666673
C76	C	0.392696	1.487747	-0.416297
C77	C	0.726029	1.821080	-0.082963
C78	C	1.059363	2.154413	0.250370
C79	C	0.370022	1.461820	-0.583715
C80	C	0.703356	1.795153	-0.250382
C81	C	1.036689	2.128486	0.082951
N82	N	0.427970	1.528132	0.344093
N83	N	0.761303	1.861466	0.677426
N84	N	1.094636	2.194799	1.010759
H85	H	-0.091389	1.620602	0.000100
H86	H	0.241944	1.953936	0.333433
H87	H	0.575277	2.287269	0.666766
F88	F	-0.160466	1.299506	0.000011
F89	F	0.172867	1.632839	0.333344
F90	F	0.506200	1.966172	0.666677
F91	F	0.264707	1.840402	-0.000025
F92	F	0.598040	2.173736	0.333309
F93	F	0.931374	2.507069	0.666642
H94	H	0.303627	1.385859	-0.645845
H95	H	0.636960	1.719192	-0.312512
H96	H	0.970294	2.052525	0.020822
F97	F	0.498040	2.109161	0.000009
F98	F	0.831374	2.442495	0.333343
F99	F	1.164707	2.775828	0.666676
H100	H	0.494362	1.604099	-0.593780
H101	H	0.827695	1.937432	-0.260446
H102	H	1.161028	2.270766	0.072887
H103	H	0.268366	1.345488	-0.406236
H104	H	0.601699	1.678821	-0.072903
H105	H	0.935033	2.012155	0.260431
H106	H	0.245289	2.063604	0.000086
H107	H	0.578622	2.396938	0.333420
H108	H	0.911956	2.730271	0.666753
F109	F	0.479469	1.587039	-0.335089
F110	F	0.812803	1.920372	-0.001756
F111	F	1.146136	2.253705	0.331578
F112	F	0.541787	1.900862	0.000006
F113	F	0.875120	2.234196	0.333340
F114	F	1.208454	2.567529	0.666673
