data_functionalizedCrystal
_audit_creation_method	'MofGen! by Chris Wilmer'
_symmetry_space_group_name_H-M	'P1'
_symmetry_Int_Tables_number	1
_symmetry_cell_setting	triclinic
loop_
_symmetry_equiv_pos_as_xyz
  x,y,z
_cell_length_a	17.077404
_cell_length_b	16.625545
_cell_length_c	17.077396
_cell_angle_alpha	90.026422
_cell_angle_beta	90.017244
_cell_angle_gamma	90.027175
loop_
_atom_site_label
_atom_site_type_symbol
_atom_site_fract_x
_atom_site_fract_y
_atom_site_fract_z
Zn1	Zn	-1.200015	0.320990	-0.443858
Zn2	Zn	-1.199918	0.455835	-0.312599
Zn3	Zn	-1.068752	0.321020	-0.312606
Zn4	Zn	-1.068705	0.455785	-0.443823
O5	O	-1.134348	0.388408	-0.378222
O6	O	-1.309849	0.338886	-0.426459
O7	O	-1.182497	0.437985	-0.202753
O8	O	-1.086224	0.208184	-0.330035
O9	O	-1.309778	0.437956	-0.330023
O10	O	-1.182663	0.208162	-0.426466
O11	O	-1.086130	0.338937	-0.202758
O12	O	-0.958899	0.338889	-0.330001
O13	O	-1.086145	0.437871	-0.553674
O14	O	-0.958865	0.437900	-0.426405
O15	O	-1.182618	0.338837	-0.553701
O16	O	-1.182452	0.568661	-0.329988
O17	O	-1.086051	0.568624	-0.426398
C18	C	-0.930400	0.388393	-0.378200
C19	C	-0.843150	0.388406	-0.378209
C20	C	-1.134257	0.597898	-0.378205
C21	C	-1.134291	0.687520	-0.378225
C22	C	-1.134387	0.388345	-0.582966
C23	C	-1.134404	0.388319	-0.670216
C24	C	-1.339092	0.388423	-0.378244
C25	C	-1.426342	0.388429	-0.378253
C26	C	-0.802163	0.440039	-0.428326
C27	C	-0.720182	0.440041	-0.428339
C28	C	-0.679191	0.388413	-0.378230
C29	C	-0.720184	0.336775	-0.328111
C30	C	-0.802163	0.336769	-0.328103
C31	C	-0.549314	0.336791	-0.328130
C32	C	-0.467329	0.336797	-0.328136
C33	C	-0.467333	0.440062	-0.428366
C34	C	-0.549312	0.440057	-0.428358
C35	C	-0.590300	0.388419	-0.378237
C36	C	-1.134319	0.760302	-0.378243
C37	C	-1.134363	0.851610	-0.378264
C38	C	-1.134402	0.924387	-0.378277
C39	C	-1.134445	1.015701	-0.378297
C40	C	-1.134454	1.178099	-0.378265
C41	C	-1.134484	1.088478	-0.378309
C42	C	-1.084241	0.336738	-0.711208
C43	C	-1.084254	0.336720	-0.793189
C44	C	-1.134434	0.388278	-0.834175
C45	C	-1.184599	0.439864	-0.793177
C46	C	-1.184582	0.439886	-0.711198
C47	C	-1.184633	0.439814	-0.964047
C48	C	-1.184652	0.439791	-1.046032
C49	C	-1.084305	0.336648	-1.046038
C50	C	-1.084288	0.336670	-0.964059
C51	C	-1.134454	0.388255	-0.923066
C52	C	-1.134353	0.388412	-0.174274
C53	C	-1.134489	0.388211	-0.087024
H54	H	-0.835532	0.482083	-0.469129
Cl55	Cl	-1.021208	0.271847	-0.912534
Cl56	Cl	-1.021240	0.271796	-1.097571
Cl57	Cl	-1.247698	0.504668	-0.912515
H58	H	-0.433956	0.294747	-0.287342
Cl59	Cl	-1.021152	0.271911	-0.844719
Cl60	Cl	-1.021157	0.271914	-0.659690
H61	H	-0.686814	0.482086	-0.469149
H62	H	-1.225513	0.481775	-1.079401
Cl63	Cl	-1.247643	0.504736	-0.659665
Cl64	Cl	-0.600843	0.504966	-0.491348
Cl65	Cl	-0.415807	0.504966	-0.491386
Cl66	Cl	-0.600839	0.271873	-0.265120
Cl67	Cl	-0.668651	0.271866	-0.265121
H68	H	-0.835534	0.294720	-0.287296
Cl69	Cl	-1.247679	0.504686	-0.844704
