data_functionalizedCrystal
_audit_creation_method	'MofGen! by Chris Wilmer'
_symmetry_space_group_name_H-M	'P1'
_symmetry_Int_Tables_number	1
_symmetry_cell_setting	triclinic
loop_
_symmetry_equiv_pos_as_xyz
  x,y,z
_cell_length_a	27.731993
_cell_length_b	26.809956
_cell_length_c	8.634740
_cell_angle_alpha	90.014353
_cell_angle_beta	91.595349
_cell_angle_gamma	90.008964
loop_
_atom_site_label
_atom_site_type_symbol
_atom_site_fract_x
_atom_site_fract_y
_atom_site_fract_z
O1	O	0.649902	0.041342	0.182900
O2	O	0.510472	0.041372	0.210855
O3	O	0.573587	0.041357	-0.027437
O4	O	0.586787	0.041356	0.421192
O5	O	0.573557	-0.041602	-0.027501
O6	O	0.510442	-0.041588	0.210790
O7	O	0.649872	-0.041618	0.182836
Zn8	Zn	0.580152	-0.054774	0.196803
Zn9	Zn	0.580191	0.054528	0.196888
O10	O	0.586757	-0.041603	0.421128
C11	C	0.492422	-0.000104	0.210249
C12	C	0.438681	-0.000093	0.208521
N13	N	0.580129	-0.129370	0.196744
C14	C	0.054924	0.045104	0.196031
C15	C	0.256904	0.045118	0.202618
O16	O	0.283029	0.083578	0.203437
N17	N	0.282148	-0.000102	0.203407
C18	C	0.256894	-0.045329	0.202539
O19	O	0.283001	-0.083791	0.203345
C20	C	0.054916	-0.045342	0.195942
C21	C	0.029674	-0.000119	0.195168
C22	C	0.029682	0.090324	0.195256
C23	C	-0.020810	0.090320	0.193618
C24	C	-0.046060	0.045097	0.192755
C25	C	-0.020818	-0.000123	0.193530
C26	C	0.029663	-0.090568	0.195063
C27	C	-0.020835	-0.090567	0.193409
C28	C	-0.046077	-0.045344	0.192636
C29	C	-0.096560	-0.045350	0.191029
N30	N	-0.121804	-0.000130	0.190240
C31	C	-0.096554	0.045094	0.191103
C32	C	0.362936	-0.045319	0.206006
C33	C	0.413431	-0.045316	0.207658
C34	C	0.413436	0.045131	0.207734
C35	C	0.362941	0.045127	0.206093
C36	C	0.337692	-0.000099	0.205217
C37	C	-0.202591	0.045082	0.187664
C38	C	-0.253087	0.045074	0.186033
C39	C	-0.253088	-0.045372	0.185949
C40	C	-0.202596	-0.045365	0.187589
C41	C	-0.177349	-0.000134	0.188441
O42	O	-0.122716	-0.083789	0.190191
O43	O	-0.122669	0.083550	0.190262
C44	C	0.105416	0.045108	0.197669
C45	C	0.130658	-0.000111	0.198444
C46	C	0.105408	-0.045334	0.197581
C47	C	0.181152	-0.000108	0.200097
C48	C	0.206402	0.045115	0.200960
C49	C	0.181158	0.090335	0.200170
C50	C	0.130666	0.090331	0.198532
C51	C	0.130652	-0.090554	0.198371
C52	C	0.181144	-0.090547	0.200010
C53	C	0.206394	-0.045324	0.200873
C54	C	0.546544	-0.526256	0.104057
C55	C	0.546519	-0.317379	0.104014
O56	O	0.517925	-0.290381	0.025078
N57	N	0.580150	-0.291249	0.196768
C58	C	0.613791	-0.317341	0.289531
O59	O	0.642398	-0.290323	0.368411
C60	C	0.613818	-0.526218	0.289564
C61	C	0.580182	-0.552345	0.196816
C62	C	0.512912	-0.552384	0.011315
C63	C	0.512917	-0.604600	0.011333
C64	C	0.546554	-0.630689	0.104092
C65	C	0.580187	-0.604562	0.196834
C66	C	0.647460	-0.552310	0.382318
C67	C	0.647465	-0.604532	0.382315
C68	C	0.613829	-0.630660	0.289567
C69	C	0.613829	-0.682867	0.289611
N70	N	0.580199	-0.708997	0.196858
C71	C	0.546561	-0.682908	0.104098
C72	C	0.613774	-0.207678	0.289510
C73	C	0.613767	-0.155459	0.289504
C74	C	0.546496	-0.155500	0.103984
C75	C	0.546501	-0.207720	0.104000
C76	C	0.580143	-0.233808	0.196756
C77	C	0.546574	-0.792566	0.104144
C78	C	0.546580	-0.844787	0.104175
C79	C	0.613853	-0.844741	0.289687
C80	C	0.613845	-0.792525	0.289663
C81	C	0.580203	-0.766439	0.196879
O82	O	0.642412	-0.709897	0.368494
O83	O	0.517965	-0.709935	0.025204
C84	C	0.546539	-0.474040	0.104039
C85	C	0.580172	-0.447913	0.196780
C86	C	0.613810	-0.474002	0.289540
C87	C	0.580165	-0.395694	0.196775
C88	C	0.546527	-0.369605	0.104015
C89	C	0.512897	-0.395735	0.011261
C90	C	0.512902	-0.447951	0.011279
C91	C	0.647440	-0.447872	0.382294
C92	C	0.647432	-0.395655	0.382270
C93	C	0.613794	-0.369566	0.289510
C94	C	0.667922	-0.000141	0.183442
C95	C	0.721663	-0.000149	0.185170
C96	C	0.570581	-0.000121	-0.084846
C97	C	0.561665	-0.000117	-0.255812
N98	N	0.580218	0.129124	0.196934
C99	C	0.589762	-0.000124	0.478537
C100	C	0.598678	-0.000125	0.649502
H101	H	-0.273636	0.081902	0.185408
H102	H	0.641171	-0.228914	0.365048
H103	H	0.674862	-0.625770	0.457848
H104	H	0.050235	0.127152	0.195954
H105	H	0.637190	-0.000115	-0.300762
H106	H	0.050206	-0.127394	0.195688
H107	H	-0.182040	0.081914	0.188361
H108	H	-0.041357	0.127145	0.192981
H109	H	0.342392	0.081952	0.205463
H110	H	0.641238	-0.865992	0.365213
H111	H	0.434003	0.081954	0.208441
H112	H	0.201725	0.127158	0.200882
H113	H	0.485519	-0.531148	-0.064229
H114	H	0.523156	-0.000106	-0.305540
H115	H	0.519112	-0.228990	0.028476
H116	H	0.433978	-0.082141	0.208313
H117	H	0.342383	-0.082150	0.205288
H118	H	-0.041390	-0.127397	0.192710
H119	H	0.674833	-0.469108	0.457829
H120	H	-0.273656	-0.082192	0.185252
H121	H	-0.182043	-0.082189	0.188249
H122	H	0.201691	-0.127376	0.200653
H123	H	0.674851	-0.531046	0.457840
H124	H	0.110098	-0.127381	0.197660
H125	H	0.110118	0.127157	0.197903
H126	H	0.519188	-0.866057	0.028648
H127	H	0.519180	-0.771333	0.028590
H128	H	0.485528	-0.625868	-0.064198
H129	H	0.641151	-0.134191	0.365047
H130	H	0.519105	-0.134250	0.028460
H131	H	0.641228	-0.771251	0.365208
H132	H	0.485512	-0.469220	-0.064246
H133	H	0.674822	-0.374387	0.457811
H134	H	0.485506	-0.374484	-0.064260
