data_functionalizedCrystal
_audit_creation_method	'MofGen! by Chris Wilmer'
_symmetry_space_group_name_H-M	'P1'
_symmetry_Int_Tables_number	1
_symmetry_cell_setting	triclinic
loop_
_symmetry_equiv_pos_as_xyz
  x,y,z
_cell_length_a	23.532407
_cell_length_b	19.188930
_cell_length_c	18.266242
_cell_angle_alpha	90.011475
_cell_angle_beta	90.003702
_cell_angle_gamma	82.996730
loop_
_atom_site_label
_atom_site_type_symbol
_atom_site_fract_x
_atom_site_fract_y
_atom_site_fract_z
O1	O	-0.755443	-0.084758	-0.060798
O2	O	-0.255443	0.415242	0.439202
O3	O	-0.589606	-0.097021	-0.060820
O4	O	-0.089606	0.402979	0.439180
O5	O	-0.677310	0.010782	-0.060794
O6	O	-0.177310	0.510782	0.439206
O7	O	-0.667739	-0.192560	-0.060824
O8	O	-0.167739	0.307440	0.439176
O9	O	-0.677295	0.010787	0.060968
O10	O	-0.177295	0.510787	0.560968
O11	O	-0.589591	-0.097016	0.060942
O12	O	-0.089591	0.402984	0.560942
O13	O	-0.755428	-0.084752	0.060964
O14	O	-0.255428	0.415248	0.560964
Zn15	Zn	-0.672507	-0.090883	0.080285
Zn16	Zn	-0.172507	0.409117	0.580285
Zn17	Zn	-0.672527	-0.090890	-0.080141
Zn18	Zn	-0.172527	0.409110	0.419859
O19	O	-0.667724	-0.192555	0.060938
O20	O	-0.167724	0.307445	0.560938
C21	C	-0.568382	-0.096706	0.000058
C22	C	-0.068382	0.403294	0.500058
C23	C	-0.505163	-0.095767	0.000050
C24	C	-0.005163	0.404233	0.500050
C25	C	-0.676993	0.036794	0.000089
C26	C	-0.176993	0.536794	0.500089
C27	C	-0.676062	0.114296	0.000095
C28	C	-0.176062	0.614296	0.500095
C29	C	-0.776652	-0.085067	0.000084
C30	C	-0.276652	0.414933	0.500084
C31	C	-0.839871	-0.086006	0.000088
C32	C	-0.339871	0.413994	0.500088
C33	C	-0.106183	-0.153674	0.000075
C34	C	0.393817	0.346326	0.500075
C35	C	-0.046780	-0.152801	0.000079
C36	C	0.453220	0.347199	0.500079
O37	O	-0.010150	-0.206481	0.000098
O38	O	0.489850	0.293519	0.500098
N39	N	-0.024018	-0.088713	0.000087
N40	N	0.475982	0.411287	0.500087
C41	C	-0.060662	-0.025492	0.000098
C42	C	0.439338	0.474508	0.500098
O43	O	-0.035846	0.029100	0.000107
O44	O	0.464154	0.529100	0.500107
C45	C	-0.120062	-0.026365	0.000099
C46	C	0.379938	0.473635	0.500099
C47	C	-0.142821	-0.090458	0.000083
C48	C	0.357179	0.409542	0.500083
C49	C	-0.128942	-0.217761	0.000060
C50	C	0.371058	0.282239	0.500060
C51	C	-0.188340	-0.218633	0.000054
C52	C	0.311660	0.281367	0.500054
C53	C	-0.224979	-0.155417	0.000063
C54	C	0.275021	0.344583	0.500063
C55	C	-0.202219	-0.091330	0.000078
C56	C	0.297781	0.408670	0.500078
C57	C	-0.156705	0.036855	0.000115
C58	C	0.343295	0.536855	0.500115
C59	C	-0.216109	0.035976	0.000117
C60	C	0.283891	0.535976	0.500117
C61	C	-0.238868	-0.028116	0.000101
C62	C	0.261132	0.471884	0.500101
C63	C	-0.298256	-0.028986	0.000080
C64	C	0.201744	0.471014	0.500080
N65	N	-0.321018	-0.093075	0.000072
N66	N	0.178982	0.406925	0.500072
C67	C	-0.284379	-0.156290	0.000063
C68	C	0.215621	0.343710	0.500063
C69	C	0.064085	-0.023664	0.000098
C70	C	0.564085	0.476336	0.500098
C71	C	0.123485	-0.022790	0.000093
C72	C	0.623485	0.477210	0.500093
C73	C	0.137362	-0.150099	0.000075
C74	C	0.637362	0.349901	0.500075
C75	C	0.077961	-0.150972	0.000075
C76	C	0.577961	0.349028	0.500075
C77	C	0.041323	-0.087752	0.000090
C78	C	0.541323	0.412248	0.500090
C79	C	-0.409120	-0.158117	0.000050
C80	C	0.090880	0.341883	0.500050
C81	C	-0.468524	-0.158983	0.000041
C82	C	0.031476	0.341017	0.500041
C83	C	-0.482396	-0.031674	0.000063
C84	C	0.017604	0.468326	0.500063
C85	C	-0.422997	-0.030807	0.000068
C86	C	0.077003	0.469193	0.500068
C87	C	-0.386360	-0.094034	0.000064
C88	C	0.113640	0.405966	0.500064
O89	O	-0.334921	0.024666	0.000065
O90	O	0.165079	0.524666	0.500065
O91	O	-0.309203	-0.210874	0.000065
O92	O	0.190797	0.289126	0.500065
C93	C	-0.668041	-0.218568	0.000053
C94	C	-0.168041	0.281432	0.500053
C95	C	-0.668972	-0.296069	0.000042
C96	C	-0.168972	0.203931	0.500042
N97	N	-0.672498	-0.090878	0.189772
N98	N	-0.172498	0.409122	0.689772
C99	C	-0.727524	0.159384	0.000106
C100	C	-0.227524	0.659384	0.500106
C101	C	-0.726650	0.232205	0.000094
C102	C	-0.226650	0.732205	0.500094
C103	C	-0.674311	0.259935	0.000086
C104	C	-0.174311	0.759935	0.500086
C105	C	-0.622842	0.214837	0.000072
C106	C	-0.122842	0.714837	0.500072
C107	C	-0.623718	0.142017	0.000076
C108	C	-0.123718	0.642017	0.500076
N109	N	-0.634299	0.367814	0.041519
N110	N	-0.134299	0.867814	0.541519
N111	N	-0.633471	0.436990	0.041516
N112	N	-0.133471	0.936990	0.541516
C113	C	-0.671670	0.479335	0.000071
C114	C	-0.171670	0.979335	0.500071
N115	N	-0.710737	0.449892	-0.041362
N116	N	-0.210737	0.949892	0.458638
N117	N	-0.711567	0.380710	-0.041356
N118	N	-0.211567	0.880710	0.458644
C119	C	-0.673356	0.338894	0.000081
C120	C	-0.173356	0.838894	0.500081
C121	C	-0.722188	0.603384	0.000068
C122	C	-0.222188	1.103384	0.500068
C123	C	-0.721311	0.676206	0.000051
C124	C	-0.221311	1.176206	0.500051
C125	C	-0.617502	0.658836	0.000036
C126	C	-0.117502	1.158836	0.500036
C127	C	-0.618380	0.586016	0.000045
C128	C	-0.118380	1.086016	0.500045
C129	C	-0.670724	0.558295	0.000064
C130	C	-0.170724	1.058295	0.500064
N131	N	-0.672541	-0.090890	-0.189628
N132	N	-0.172541	0.409110	0.310372
C133	C	-0.711346	-0.043166	0.228093
C134	C	-0.211346	0.456834	0.728093
C135	C	-0.711350	-0.043163	0.304738
C136	C	-0.211350	0.456837	0.804738
C137	C	-0.672511	-0.090883	0.343059
C138	C	-0.172511	0.409117	0.843059
C139	C	-0.633655	-0.138599	0.304729
C140	C	-0.133655	0.361401	0.804729
C141	C	-0.633649	-0.138596	0.228086
C142	C	-0.133649	0.361404	0.728086
N143	N	-0.665108	-0.152714	0.463382
N144	N	-0.165108	0.347286	0.963382
N145	N	-0.665117	-0.152715	0.536190
N146	N	-0.165117	0.347285	1.036190
C147	C	-0.672527	-0.090893	0.573982
C148	C	-0.172527	0.409107	1.073982
N149	N	-0.679937	-0.029069	0.536215
N150	N	-0.179937	0.470931	1.036215
N151	N	-0.679931	-0.029069	0.463400
N152	N	-0.179931	0.470931	0.963400
C153	C	-0.672513	-0.090891	0.426166
C154	C	-0.172513	0.409109	0.926166
C155	C	-0.711381	-0.043174	0.695409
C156	C	-0.211381	0.456826	1.195409
C157	C	-0.711381	-0.043170	0.772056
C158	C	-0.211381	0.456830	1.272056
C159	C	-0.633689	-0.138612	0.772046
C160	C	-0.133689	0.361388	1.272046
C161	C	-0.633686	-0.138610	0.695401
C162	C	-0.133686	0.361390	1.195401
C163	C	-0.672536	-0.090892	0.657087
C164	C	-0.172536	0.409108	1.157087
H165	H	-0.379297	-0.209602	0.000049
H166	H	0.120703	0.290398	0.500049
C167	C	-0.493558	-0.229486	0.000024
C168	C	0.006442	0.270514	0.500024
H169	H	-0.534183	-0.220956	0.000014
H170	H	-0.034183	0.279044	0.500014
H171	H	-0.480971	-0.255497	0.042481
H172	H	0.019029	0.244503	0.542481
H173	H	-0.480969	-0.255495	-0.042447
H174	H	0.019031	0.244505	0.457553
C175	C	0.148513	0.047712	0.000103
C176	C	0.648513	0.547712	0.500103
H177	H	0.118180	0.085232	0.000112
H178	H	0.618180	0.585232	0.500112
H179	H	0.171397	0.050702	-0.042355
H180	H	0.671397	0.550702	0.457645
H181	H	0.171394	0.050702	0.042573
H182	H	0.671394	0.550702	0.542573
C183	C	-0.256408	0.105520	0.000125
C184	C	0.243592	0.605520	0.500125
H185	H	-0.234342	0.143812	0.000127
H186	H	0.265658	0.643812	0.500127
H187	H	-0.279871	0.107832	0.042582
H188	H	0.220129	0.607832	0.542582
H189	H	-0.279866	0.107825	-0.042345
H190	H	0.220134	0.607825	0.457655
C191	C	-0.785099	0.128891	0.000124
C192	C	-0.285099	0.628891	0.500124
H193	H	-0.778252	0.079064	0.000132
H194	H	-0.278252	0.579064	0.500132
H195	H	-0.806291	0.144384	-0.042331
H196	H	-0.306291	0.644384	0.457669
H197	H	-0.806271	0.144403	0.042596
H198	H	-0.306271	0.644403	0.542596
C199	C	-0.088645	-0.287303	0.000045
C200	C	0.411355	0.212697	0.500045
H201	H	-0.050005	-0.277616	0.000050
H202	H	0.449995	0.222384	0.500050
H203	H	-0.095538	-0.313596	-0.042422
H204	H	0.404462	0.186404	0.457578
H205	H	-0.095529	-0.313598	0.042506
H206	H	0.404471	0.186402	0.542506
H207	H	0.034257	0.027821	0.000104
H208	H	0.534257	0.527821	0.500104
C209	C	-0.559930	0.689330	0.000026
C210	C	-0.059930	1.189330	0.500026
H211	H	-0.566778	0.739157	0.000027
H212	H	-0.066778	1.239157	0.500027
H213	H	-0.538753	0.673817	-0.042438
H214	H	-0.038753	1.173817	0.457562
H215	H	-0.538743	0.673839	0.042490
H216	H	-0.038743	1.173839	0.542490
H217	H	-0.404466	0.021383	0.000070
H218	H	0.095534	0.521383	0.500070
H219	H	0.059435	-0.203162	0.000067
H220	H	0.559435	0.296838	0.500067
C221	C	-0.754091	0.009303	0.185948
C222	C	-0.254091	0.509303	0.685948
H223	H	-0.748533	0.002463	0.134813
H224	H	-0.248533	0.502463	0.634813
H225	H	-0.748047	0.055873	0.198512
H226	H	-0.248047	0.555873	0.698512
H227	H	-0.792074	0.001926	0.198511
H228	H	-0.292074	0.501926	0.698511
H229	H	-0.580227	0.237419	0.000064
H230	H	-0.080227	0.737419	0.500064
C231	C	-0.522705	0.037858	0.000078
C232	C	-0.022705	0.537858	0.500078
H233	H	-0.561340	0.028154	0.000082
H234	H	-0.061340	0.528154	0.500082
H235	H	-0.515828	0.064162	-0.042374
H236	H	-0.015828	0.564162	0.457626
H237	H	-0.515822	0.064150	0.042553
H238	H	-0.015822	0.564150	0.542553
C239	C	-0.567107	0.092418	0.000071
C240	C	-0.067107	0.592418	0.500071
H241	H	-0.535809	0.119359	0.000069
H242	H	-0.035809	0.619359	0.500069
H243	H	-0.565296	0.063637	-0.042385
H244	H	-0.065296	0.563637	0.457615
H245	H	-0.565288	0.063665	0.042542
H246	H	-0.065288	0.563665	0.542542
H247	H	-0.768558	0.268923	0.000100
H248	H	-0.268558	0.768923	0.500100
H249	H	-0.764810	0.580813	0.000080
H250	H	-0.264810	1.080813	0.500080
H251	H	-0.138185	0.089046	0.000129
H252	H	0.361815	0.589046	0.500129
C253	C	0.177669	-0.219638	0.000070
C254	C	0.677669	0.280362	0.500070
H255	H	0.155611	-0.257937	0.000059
H256	H	0.655611	0.242063	0.500059
H257	H	0.201131	-0.221937	0.042532
H258	H	0.701131	0.278063	0.542532
H259	H	0.201129	-0.221943	-0.042395
H260	H	0.701129	0.278057	0.457605
H261	H	-0.602013	-0.177449	0.196885
H262	H	-0.102013	0.322551	0.696885
H263	H	-0.763220	0.712917	0.000056
H264	H	-0.263220	1.212917	0.500056
H265	H	-0.206864	-0.270824	0.000041
H266	H	0.293136	0.229176	0.500041
H267	H	-0.576474	0.549304	0.000041
H268	H	-0.076474	1.049304	0.500041
C269	C	-0.754086	0.009318	0.346903
C270	C	-0.254086	0.509318	0.846903
H271	H	-0.748522	0.002483	0.398036
H272	H	-0.248522	0.502483	0.898036
H273	H	-0.792071	0.001968	0.334332
H274	H	-0.292071	0.501968	0.834332
H275	H	-0.748019	0.055884	0.334359
H276	H	-0.248019	0.555884	0.834359
H277	H	-0.602031	-0.177452	0.335935
H278	H	-0.102031	0.322548	0.835935
C279	C	-0.754106	0.009320	0.653261
C280	C	-0.254106	0.509320	1.153261
H281	H	-0.777238	0.037744	0.687064
H282	H	-0.277238	0.537744	1.187064
H283	H	-0.777748	-0.015647	0.623352
H284	H	-0.277748	0.484353	1.123352
H285	H	-0.733687	0.038259	0.623374
H286	H	-0.233687	0.538259	1.123374
H287	H	-0.743014	-0.004313	0.803257
H288	H	-0.243014	0.495687	1.303257
C289	C	-0.590966	-0.191103	0.814190
C290	C	-0.090966	0.308897	1.314190
H291	H	-0.596535	-0.184275	0.865325
H292	H	-0.096535	0.315725	1.365325
H293	H	-0.552978	-0.183758	0.801639
H294	H	-0.052978	0.316242	1.301639
H295	H	-0.597036	-0.237666	0.801617
H296	H	-0.097036	0.262334	1.301617
C297	C	-0.590965	-0.191105	0.653243
C298	C	-0.090965	0.308895	1.153243
H299	H	-0.596522	-0.184268	0.602109
H300	H	-0.096522	0.315732	1.102109
H301	H	-0.597037	-0.237663	0.665794
H302	H	-0.097037	0.262337	1.165794
H303	H	-0.552973	-0.183761	0.665809
H304	H	-0.052973	0.316239	1.165809
