data_functionalizedCrystal
_audit_creation_method	'MofGen! by Chris Wilmer'
_symmetry_space_group_name_H-M	'P1'
_symmetry_Int_Tables_number	1
_symmetry_cell_setting	triclinic
loop_
_symmetry_equiv_pos_as_xyz
  x,y,z
_cell_length_a	12.837936
_cell_length_b	11.295483
_cell_length_c	17.019234
_cell_angle_alpha	89.779126
_cell_angle_beta	90.905155
_cell_angle_gamma	85.459905
loop_
_atom_site_label
_atom_site_type_symbol
_atom_site_fract_x
_atom_site_fract_y
_atom_site_fract_z
O1	O	-1.383566	0.119483	0.199283
O2	O	-1.081703	0.118448	0.189202
O3	O	-1.240241	0.107300	0.080606
O4	O	-1.225028	0.130630	0.307879
O5	O	-1.226316	-0.089773	0.090128
O6	O	-1.067778	-0.078626	0.198724
O7	O	-1.369641	-0.077591	0.208805
Cu8	Cu	-1.217438	-0.096103	0.204634
Cu9	Cu	-1.233906	0.136959	0.193373
O10	O	-1.211104	-0.066443	0.317401
C11	C	-1.036101	0.019562	0.190558
C12	C	-0.920966	0.018519	0.180402
C13	C	-0.770642	0.009803	0.095521
C14	C	-0.878823	0.010783	0.105058
C15	C	-0.854921	0.025272	0.246214
C16	C	-0.746741	0.024292	0.236677
C17	C	-0.704606	0.016558	0.161328
C18	C	-0.596424	0.015587	0.151791
C19	C	-0.572524	0.030067	0.292947
C20	C	-0.680704	0.031048	0.302484
N21	N	-1.205863	-0.260026	0.212554
C22	C	-1.232431	0.005759	0.056074
C23	C	-1.229892	-0.003193	-0.031208
C24	C	-0.415244	0.021296	0.207449
C25	C	-0.530379	0.022340	0.217603
C26	C	-1.328812	-0.517955	0.128388
C27	C	-1.320072	-0.642004	0.134380
C28	C	-1.179639	-0.632174	0.230524
C29	C	-1.188379	-0.508126	0.224533
C30	C	-1.262969	-0.451021	0.173464
C31	C	-1.271713	-0.326969	0.167477
C32	C	-1.131277	-0.317143	0.263617
C33	C	-1.122537	-0.441191	0.269608
N34	N	-1.245489	0.300882	0.185447
C35	C	-1.215060	-0.059163	-0.524600
C36	C	-1.217455	-0.050757	-0.442589
C37	C	-1.226252	0.060873	-0.406765
C38	C	-1.232642	0.164104	-0.452957
C39	C	-1.230240	0.155697	-0.534967
C40	C	-1.233880	0.091631	-0.159409
C41	C	-1.236285	0.100030	-0.077394
C42	C	-1.221096	-0.114832	-0.067031
C43	C	-1.218700	-0.123229	-0.149042
C44	C	-1.225085	-0.019998	-0.195227
C45	C	-1.228703	0.069468	-0.322937
C46	C	-1.222626	-0.028594	-0.279054
C47	C	-1.218914	0.035100	0.341932
C48	C	-1.221454	0.044060	0.429214
H49	H	-0.889246	0.031558	0.307560
N50	N	-1.103436	-0.690528	0.282666
N51	N	-1.034054	-0.762810	0.256252
H52	H	-0.980231	-0.804027	0.293075
H53	H	-1.239088	0.175690	-0.197003
H54	H	-0.715025	0.037340	0.363831
H55	H	-0.562120	0.009294	0.090438
N56	N	-1.046349	-0.499547	0.321762
N57	N	-1.038551	-0.610305	0.327103
H58	H	-0.984743	-0.651519	0.363939
N59	N	-1.241614	0.278124	-0.416354
N60	N	-1.243758	0.285617	-0.343132
H61	H	-1.250095	0.366146	-0.317281
H62	H	-1.077666	-0.262630	0.300323
N63	N	-1.347896	-0.268657	0.115300
N64	N	-1.417317	-0.196371	0.141658
H65	H	-1.471120	-0.155205	0.104798
N66	N	-1.404911	-0.459643	0.076146
N67	N	-1.463633	-0.519426	0.035852
H68	H	-1.517342	-0.478249	-0.001077
H69	H	-1.207902	-0.150065	-0.553761
N70	N	-0.505052	0.036960	0.360165
N71	N	-0.408465	0.036080	0.351642
H72	H	-0.360811	0.040946	0.399113
H73	H	-1.212264	-0.134813	-0.404988
H74	H	-1.373686	-0.696499	0.097674
N75	N	-1.209732	-0.237267	-0.185620
N76	N	-1.204034	-0.329425	-0.144373
H77	H	-1.197709	-0.409967	-0.170206
N78	N	-1.214576	-0.220262	-0.019843
N79	N	-1.216724	-0.212747	0.053379
H80	H	-1.212117	-0.287211	0.086707
N81	N	-1.237707	0.183482	-0.286328
N82	N	-1.313755	0.211935	-0.243497
H83	H	-1.320113	0.292457	-0.217637
H84	H	-1.243447	0.190938	-0.048229
N85	N	-1.236763	0.261149	-0.582135
N86	N	-1.244614	0.360813	-0.550143
H87	H	-1.249217	0.435294	-0.583454
N88	N	-1.213629	-0.142627	-0.315630
N89	N	-1.135799	-0.213437	-0.301221
H90	H	-1.129446	-0.293975	-0.327059
N91	N	-0.727614	0.001921	0.018552
N92	N	-0.786589	-0.004098	-0.040200
H93	H	-0.756203	-0.009664	-0.094562
H94	H	-0.932587	0.005281	0.051471
