data_functionalizedCrystal
_audit_creation_method	'MofGen! by Chris Wilmer'
_symmetry_space_group_name_H-M	'P1'
_symmetry_Int_Tables_number	1
_symmetry_cell_setting	triclinic
loop_
_symmetry_equiv_pos_as_xyz
  x,y,z
_cell_length_a	12.837943
_cell_length_b	17.038272
_cell_length_c	11.892095
_cell_angle_alpha	94.170821
_cell_angle_beta	85.689438
_cell_angle_gamma	92.970248
loop_
_atom_site_label
_atom_site_type_symbol
_atom_site_fract_x
_atom_site_fract_y
_atom_site_fract_z
O1	O	1.399724	0.200065	-0.093986
O2	O	1.899724	0.700065	0.406014
O3	O	1.097028	0.189958	-0.093992
O4	O	1.597028	0.689958	0.406008
O5	O	1.246576	0.081062	-0.093980
O6	O	1.746576	0.581062	0.406020
O7	O	1.250175	0.308961	-0.093998
O8	O	1.750175	0.808961	0.406002
O9	O	1.234106	0.090126	0.094026
O10	O	1.734106	0.590126	0.594026
O11	O	1.084557	0.199022	0.094014
O12	O	1.584557	0.699022	0.594014
O13	O	1.387254	0.209129	0.094021
O14	O	1.887254	0.709129	0.594021
Zn15	Zn	1.233926	0.205514	0.123868
Zn16	Zn	1.733926	0.705514	0.623868
Zn17	Zn	1.250356	0.193572	-0.123839
Zn18	Zn	1.750356	0.693572	0.376161
O19	O	1.237705	0.318025	0.094009
O20	O	1.737705	0.818025	0.594009
C21	C	1.051871	0.191076	0.000010
C22	C	1.551871	0.691076	0.500010
C23	C	0.935896	0.180893	0.000008
C24	C	1.435896	0.680893	0.500008
C25	C	0.705733	0.303310	0.000015
C26	C	1.205733	0.803310	0.500015
C27	C	0.596764	0.293746	0.000013
C28	C	1.096764	0.793746	0.500013
C29	C	0.608986	0.152201	0.000012
C30	C	1.108986	0.652201	0.500012
C31	C	0.717955	0.161765	0.000014
C32	C	1.217955	0.661765	0.500014
C33	C	0.766325	0.237322	0.000013
C34	C	1.266325	0.737322	0.500013
C35	C	0.875296	0.246885	0.000006
C36	C	1.375296	0.746885	0.500006
C37	C	0.887516	0.105342	0.000013
C38	C	1.387516	0.605342	0.500013
C39	C	0.778547	0.095777	0.000012
C40	C	1.278547	0.595777	0.500012
C41	C	1.237069	0.056221	0.000023
C42	C	1.737069	0.556221	0.500023
C43	C	1.227305	-0.031301	0.000022
C44	C	1.727305	0.468699	0.500022
C45	C	1.316945	-0.074719	0.000026
C46	C	1.816945	0.425281	0.500026
C47	C	1.307766	-0.156956	0.000015
C48	C	1.807766	0.343044	0.500015
C49	C	1.208945	-0.195773	0.000009
C50	C	1.708945	0.304227	0.500009
C51	C	1.119299	-0.152349	0.000002
C52	C	1.619299	0.347651	0.500002
C53	C	1.128480	-0.070114	0.000005
C54	C	1.628480	0.429886	0.500005
C55	C	1.176511	-0.443954	-0.000008
C56	C	1.676511	0.056046	0.499992
C57	C	1.167337	-0.526195	-0.000007
C58	C	1.667337	-0.026195	0.499993
C59	C	1.355805	-0.530796	0.000003
C60	C	1.855805	-0.030796	0.500003
C61	C	1.364977	-0.448559	0.000013
C62	C	1.864977	0.051441	0.500013
C63	C	1.275331	-0.405143	0.000001
C64	C	1.775331	0.094857	0.500001
C65	C	1.199560	-0.279832	0.000001
C66	C	1.699560	0.220168	0.500001
C67	C	1.284718	-0.321086	0.000000
C68	C	1.784718	0.178914	0.500000
C69	C	1.432411	0.208011	0.000016
C70	C	1.932411	0.708011	0.500016
C71	C	1.548386	0.218194	0.000011
C72	C	2.048386	0.718194	0.500011
C73	C	1.247213	0.342865	0.000003
C74	C	1.747213	0.842865	0.500003
C75	C	1.256977	0.430387	-0.000004
C76	C	1.756977	0.930387	0.499996
N77	N	1.222720	0.213665	0.292921
N78	N	1.722720	0.713665	0.792921
N79	N	1.261569	0.185416	-0.292892
N80	N	1.761569	0.685416	0.207108
C81	C	1.339540	0.128657	0.529578
C82	C	1.839540	0.628657	1.029578
C83	C	1.331715	0.134361	0.647919
C84	C	1.831715	0.634361	1.147919
C85	C	1.199241	0.230770	0.647947
C86	C	1.699241	0.730770	1.147947
C87	C	1.207066	0.225067	0.529605
C88	C	1.707066	0.725067	1.029605
C89	C	1.277219	0.174010	0.470425
C90	C	1.777219	0.674010	0.970425
C91	C	1.285048	0.168311	0.352082
C92	C	1.785048	0.668311	0.852082
C93	C	1.152569	0.264716	0.352111
C94	C	1.652569	0.764716	0.852111
C95	C	1.144745	0.270419	0.470453
C96	C	1.644745	0.770419	0.970453
H97	H	0.547433	0.347480	0.000018
H98	H	1.047433	0.847480	0.500018
Br99	Br	0.543321	0.049669	0.000033
Br100	Br	1.043321	0.549669	0.500033
Br101	Br	0.712892	-0.006758	0.000020
Br102	Br	1.212892	0.493242	0.500020
H103	H	1.101826	0.301647	0.303936
H104	H	1.601826	0.801647	0.803936
Br105	Br	1.434759	0.059379	0.449259
Br106	Br	1.934759	0.559379	0.949259
Br107	Br	1.380259	0.099024	0.271767
Br108	Br	1.880259	0.599024	0.771767
Br109	Br	1.499098	-0.395886	-0.000015
Br110	Br	1.999098	0.104114	0.499985
Br111	Br	1.033214	-0.578874	-0.000003
Br112	Br	1.533214	-0.078874	0.499997
Br113	Br	1.416292	0.072805	0.728196
Br114	Br	1.916292	0.572805	1.228196
Br115	Br	1.429426	-0.215878	0.000019
Br116	Br	1.929426	0.284122	0.500019
H117	H	0.914677	0.308407	0.000008
H118	H	1.414677	0.808407	0.500008
H119	H	1.397415	-0.043120	0.000037
H120	H	1.897415	0.456880	0.500037
H121	H	0.936862	0.051609	0.000004
H122	H	1.436862	0.551609	0.500004
Br123	Br	1.477460	-0.589722	0.000020
Br124	Br	1.977460	-0.089722	0.500020
Br125	Br	1.065450	-0.332519	-0.000018
Br126	Br	1.565450	0.167481	0.499982
H127	H	1.103515	-0.408614	-0.000017
H128	H	1.603515	0.091386	0.499983
H129	H	1.142117	0.272334	0.696146
H130	H	1.642117	0.772334	1.196146
H131	H	0.745116	0.364831	0.000012
H132	H	1.245116	0.864831	0.500012
Br133	Br	0.985184	-0.205029	-0.000025
Br134	Br	1.485184	0.294971	0.499975
H135	H	1.055485	-0.034764	0.000002
H136	H	1.555485	0.465236	0.500002
Br137	Br	1.049536	0.339704	0.550775
Br138	Br	1.549536	0.839704	1.050775
H139	H	1.365179	-0.289479	-0.000020
H140	H	1.865179	0.210521	0.499980
