data_functionalizedCrystal
_audit_creation_method	'MofGen! by Chris Wilmer'
_symmetry_space_group_name_H-M	'P1'
_symmetry_Int_Tables_number	1
_symmetry_cell_setting	triclinic
loop_
_symmetry_equiv_pos_as_xyz
  x,y,z
_cell_length_a	23.532407
_cell_length_b	23.532407
_cell_length_c	11.295483
_cell_angle_alpha	94.064566
_cell_angle_beta	85.923202
_cell_angle_gamma	82.848712
loop_
_atom_site_label
_atom_site_type_symbol
_atom_site_fract_x
_atom_site_fract_y
_atom_site_fract_z
O1	O	0.759115	0.065281	-0.098961
O2	O	1.092448	0.398614	0.234373
O3	O	1.425781	0.731947	0.567706
O4	O	0.593252	0.075283	-0.098981
O5	O	0.926586	0.408616	0.234352
O6	O	1.259919	0.741950	0.567685
O7	O	0.681184	-0.012649	-0.098949
O8	O	1.014518	0.320684	0.234385
O9	O	1.347851	0.654018	0.567718
O10	O	0.671183	0.153213	-0.098993
O11	O	1.004516	0.486546	0.234340
O12	O	1.337849	0.819879	0.567673
O13	O	0.673461	-0.004938	0.099099
O14	O	1.006794	0.328396	0.432433
O15	O	1.340128	0.661729	0.765766
O16	O	0.585529	0.082994	0.099067
O17	O	0.918862	0.416328	0.432400
O18	O	1.252196	0.749661	0.765733
O19	O	0.751392	0.072992	0.099087
O20	O	1.084725	0.406325	0.432421
O21	O	1.418058	0.739659	0.765754
Cu22	Cu	0.667755	0.078697	0.117160
Cu23	Cu	1.001088	0.412031	0.450494
Cu24	Cu	1.334422	0.745364	0.783827
Cu25	Cu	0.676889	0.069578	-0.117054
Cu26	Cu	1.010222	0.402911	0.216279
Cu27	Cu	1.343555	0.736244	0.549612
O28	O	0.663460	0.160924	0.099054
O29	O	0.996793	0.494257	0.432388
O30	O	1.330126	0.827591	0.765721
C31	C	0.568175	0.078884	0.000040
C32	C	0.901508	0.412217	0.333374
C33	C	1.234841	0.745551	0.666707
C34	C	0.504958	0.078118	0.000034
C35	C	0.838291	0.411451	0.333367
C36	C	1.171625	0.744784	0.666700
C37	C	0.238789	0.022924	0.000081
C38	C	0.572122	0.356257	0.333414
C39	C	0.905455	0.689591	0.666747
C40	C	0.298189	0.023636	0.000080
C41	C	0.631522	0.356969	0.333414
C42	C	0.964856	0.690302	0.666747
O43	O	0.334931	-0.020148	0.000133
O44	O	0.668265	0.313185	0.333467
O45	O	1.001598	0.646518	0.666800
N46	N	0.320816	0.075911	0.000058
N47	N	0.654149	0.409244	0.333391
N48	N	0.987483	0.742578	0.666725
C49	C	0.284039	0.127479	0.000048
C50	C	0.617372	0.460812	0.333382
C51	C	0.950705	0.794146	0.666715
O52	O	0.308739	0.172009	0.000031
O53	O	0.642073	0.505342	0.333364
O54	O	0.975406	0.838675	0.666697
C55	C	0.224639	0.126767	0.000057
C56	C	0.557973	0.460100	0.333391
C57	C	0.891306	0.793434	0.666724
C58	C	0.202016	0.074488	0.000068
C59	C	0.535350	0.407821	0.333401
C60	C	0.868683	0.741155	0.666734
C61	C	0.216165	-0.029351	0.000092
C62	C	0.549498	0.303982	0.333426
C63	C	0.882832	0.637316	0.666759
C64	C	0.156769	-0.030062	0.000091
C65	C	0.490102	0.303271	0.333424
C66	C	0.823435	0.636605	0.666757
C67	C	0.119996	0.021502	0.000077
C68	C	0.453330	0.354835	0.333411
C69	C	0.786663	0.688168	0.666744
C70	C	0.142620	0.073777	0.000066
C71	C	0.475954	0.407110	0.333399
C72	C	0.809287	0.740443	0.666733
C73	C	0.187863	0.178335	0.000056
C74	C	0.521196	0.511668	0.333390
C75	C	0.854530	0.845001	0.666723
C76	C	0.128460	0.177619	0.000066
C77	C	0.461793	0.510952	0.333400
C78	C	0.795127	0.844285	0.666733
C79	C	0.105837	0.125339	0.000076
C80	C	0.439170	0.458673	0.333410
C81	C	0.772504	0.792006	0.666743
C82	C	0.046452	0.124629	0.000051
C83	C	0.379785	0.457962	0.333384
C84	C	0.713118	0.791296	0.666718
N85	N	0.023825	0.072354	0.000073
N86	N	0.357158	0.405687	0.333407
N87	N	0.690491	0.739020	0.666740
C88	C	0.060597	0.020790	0.000086
C89	C	0.393930	0.354123	0.333420
C90	C	0.727264	0.687457	0.666753
C91	C	0.408782	0.128970	0.000032
C92	C	0.742115	0.462303	0.333365
C93	C	1.075449	0.795636	0.666698
C94	C	0.468181	0.129682	0.000014
C95	C	0.801514	0.463015	0.333347
C96	C	1.134847	0.796348	0.666681
C97	C	0.482327	0.025838	0.000048
C98	C	0.815660	0.359171	0.333381
C99	C	1.148993	0.692505	0.666715
C100	C	0.422927	0.025126	0.000057
C101	C	0.756260	0.358460	0.333390
C102	C	1.089594	0.691793	0.666724
C103	C	0.386155	0.076694	0.000054
C104	C	0.719488	0.410027	0.333387
C105	C	1.052822	0.743361	0.666720
C106	C	-0.064140	0.019300	0.000082
C107	C	0.269194	0.352633	0.333415
C108	C	0.602527	0.685967	0.666748
C109	C	-0.123541	0.018593	0.000075
C110	C	0.209792	0.351927	0.333408
C111	C	0.543125	0.685260	0.666742
C112	C	-0.137682	0.122437	0.000047
C113	C	0.195651	0.455770	0.333381
C114	C	0.528984	0.789103	0.666714
C115	C	-0.078286	0.123144	0.000048
C116	C	0.255048	0.456477	0.333381
C117	C	0.588381	0.789810	0.666714
C118	C	-0.041515	0.071571	0.000069
C119	C	0.291818	0.404904	0.333402
C120	C	0.625152	0.738237	0.666736
O121	O	0.009674	0.168390	0.000003
O122	O	0.343008	0.501723	0.333336
O123	O	0.676341	0.835057	0.666669
O124	O	0.035888	-0.023732	0.000120
O125	O	0.369221	0.309601	0.333453
O126	O	0.702554	0.642935	0.666787
C127	C	0.677068	-0.030009	0.000078
C128	C	1.010401	0.303324	0.333412
C129	C	1.343734	0.636657	0.666745
C130	C	0.676302	-0.093226	0.000087
C131	C	1.009635	0.240107	0.333421
C132	C	1.342968	0.573441	0.666754
C133	C	0.723537	-0.492331	0.000028
C134	C	1.056871	-0.158998	0.333361
C135	C	1.390204	0.174335	0.666695
C136	C	0.722826	-0.551732	0.000019
C137	C	1.056160	-0.218399	0.333352
C138	C	1.389493	0.114935	0.666686
O139	O	0.766614	-0.588478	-0.000020
O140	O	1.099947	-0.255145	0.333314
O141	O	1.433280	0.078189	0.666647
N142	N	0.670550	-0.574358	0.000013
N143	N	1.003883	-0.241025	0.333347
N144	N	1.337217	0.092308	0.666680
C145	C	0.618982	-0.537581	0.000005
C146	C	0.952316	-0.204248	0.333338
C147	C	1.285649	0.129086	0.666671
O148	O	0.574452	-0.562281	-0.000002
O149	O	0.907785	-0.228948	0.333331
O150	O	1.241119	0.104386	0.666665
C151	C	0.619694	-0.478182	0.000005
C152	C	0.953028	-0.144849	0.333339
C153	C	1.286361	0.188485	0.666672
C154	C	0.671973	-0.455559	0.000023
C155	C	1.005307	-0.122225	0.333356
C156	C	1.338640	0.211108	0.666690
C157	C	0.775812	-0.469707	0.000044
C158	C	1.109146	-0.136374	0.333378
C159	C	1.442479	0.196959	0.666711
C160	C	0.776523	-0.410311	0.000056
C161	C	1.109856	-0.076977	0.333389
C162	C	1.443190	0.256356	0.666722
C163	C	0.724959	-0.373538	0.000051
C164	C	1.058292	-0.040205	0.333384
C165	C	1.391626	0.293129	0.666717
C166	C	0.672684	-0.396162	0.000034
C167	C	1.006017	-0.062829	0.333368
C168	C	1.339351	0.270505	0.666701
C169	C	0.568127	-0.441406	-0.000012
C170	C	0.901461	-0.108073	0.333322
C171	C	1.234794	0.225261	0.666655
C172	C	0.568844	-0.382004	-0.000012
C173	C	0.902177	-0.048670	0.333321
C174	C	1.235511	0.284663	0.666655
C175	C	0.621123	-0.359380	0.000006
C176	C	0.954456	-0.026047	0.333339
C177	C	1.287790	0.307286	0.666672
C178	C	0.621831	-0.299993	0.000041
C179	C	0.955164	0.033341	0.333374
C180	C	1.288497	0.366674	0.666707
N181	N	0.674107	-0.277366	0.000046
N182	N	1.007440	0.055967	0.333380
N183	N	1.340774	0.389300	0.666713
C184	C	0.725671	-0.314139	0.000051
C185	C	1.059004	0.019194	0.333385
C186	C	1.392338	0.352528	0.666718
C187	C	0.617491	-0.662324	0.000001
C188	C	0.950824	-0.328990	0.333335
C189	C	1.284158	0.004343	0.666668
C190	C	0.616778	-0.721721	0.000009
C191	C	0.950111	-0.388388	0.333343
C192	C	1.283445	-0.055055	0.666676
C193	C	0.720622	-0.735868	0.000021
C194	C	1.053956	-0.402535	0.333355
C195	C	1.387289	-0.069201	0.666688
C196	C	0.721334	-0.676469	0.000022
C197	C	1.054668	-0.343136	0.333355
C198	C	1.388001	-0.009802	0.666689
C199	C	0.669767	-0.639697	0.000007
C200	C	1.003100	-0.306364	0.333340
C201	C	1.336434	0.026969	0.666674
C202	C	0.727160	-0.189401	0.000076
C203	C	1.060493	0.143932	0.333410
C204	C	1.393826	0.477265	0.666743
C205	C	0.727866	-0.129999	0.000092
C206	C	1.061199	0.203335	0.333426
C207	C	1.394532	0.536668	0.666759
C208	C	0.624022	-0.115857	0.000074
C209	C	0.957355	0.217476	0.333408
C210	C	1.290689	0.550809	0.666741
C211	C	0.623315	-0.175254	0.000064
C212	C	0.956649	0.158079	0.333398
C213	C	1.289982	0.491412	0.666731
C214	C	0.674889	-0.212026	0.000061
C215	C	1.008222	0.121308	0.333395
C216	C	1.341556	0.454641	0.666728
O217	O	0.578067	-0.263212	0.000074
O218	O	0.911400	0.070121	0.333408
O219	O	1.244733	0.403454	0.666741
O220	O	0.770194	-0.289431	0.000042
O221	O	1.103528	0.043902	0.333376
O222	O	1.436861	0.377235	0.666709
C223	C	0.776469	0.069391	0.000063
C224	C	1.109803	0.402724	0.333396
C225	C	1.443136	0.736058	0.666730
C226	C	0.839686	0.070157	0.000062
C227	C	1.173020	0.403490	0.333395
C228	C	1.506353	0.736824	0.666729
C229	C	0.667576	0.178284	0.000025
C230	C	1.000909	0.511618	0.333358
C231	C	1.334243	0.844951	0.666692
C232	C	0.668343	0.241501	0.000008
C233	C	1.001676	0.574834	0.333341
C234	C	1.335009	0.908167	0.666675
N235	N	0.661335	0.085111	0.281894
N236	N	0.994669	0.418445	0.615228
N237	N	1.328002	0.751778	0.948561
N238	N	0.683313	0.063159	-0.281788
N239	N	1.016646	0.396493	0.051545
N240	N	1.349980	0.729826	0.384878
C241	C	0.729527	0.016957	0.531209
C242	C	1.062861	0.350290	0.864542
C243	C	1.396194	0.683623	1.197876
C244	C	0.724680	0.021808	0.655871
C245	C	1.058013	0.355141	0.989204
C246	C	1.391346	0.688474	1.322538
C247	C	0.646790	0.099661	0.655882
C248	C	0.980124	0.432995	0.989215
C249	C	1.313457	0.766328	1.322549
C250	C	0.651638	0.094810	0.531220
C251	C	0.984971	0.428144	0.864554
C252	C	1.318304	0.761477	1.197887
C253	C	0.693008	0.053457	0.468888
C254	C	1.026342	0.386790	0.802221
C255	C	1.359675	0.720124	1.135555
C256	C	0.697858	0.048609	0.344224
C257	C	1.031192	0.381943	0.677557
C258	C	1.364525	0.715276	1.010891
C259	C	0.619966	0.126460	0.344237
C260	C	0.953300	0.459793	0.677571
C261	C	1.286633	0.793126	1.010904
C262	C	0.615119	0.131311	0.468899
C263	C	0.948452	0.464644	0.802233
C264	C	1.281785	0.797978	1.135566
H265	H	0.512278	-0.016148	0.000059
H266	H	0.845611	0.317185	0.333392
H267	H	1.178944	0.650519	0.666726
H268	H	0.526851	-0.352066	-0.000026
H269	H	0.860184	-0.018733	0.333307
H270	H	1.193517	0.314600	0.666641
H271	H	0.378845	0.170965	0.000020
H272	H	0.712178	0.504298	0.333354
H273	H	1.045512	0.837631	0.666687
H274	H	0.246100	-0.071343	0.000107
H275	H	0.579433	0.261991	0.333440
H276	H	0.912766	0.595324	0.666774
Cl277	Cl	0.216288	0.244062	0.000044
Cl278	Cl	0.549622	0.577395	0.333378
Cl279	Cl	0.882955	0.910728	0.666711
H280	H	0.580744	-0.193674	0.000083
H281	H	0.914078	0.139660	0.333416
H282	H	1.247411	0.472993	0.666750
H283	H	0.582040	-0.085906	0.000074
H284	H	0.915373	0.247427	0.333408
H285	H	1.248706	0.580760	0.666741
Cl286	Cl	0.394493	-0.040598	0.000076
Cl287	Cl	0.727826	0.292735	0.333409
Cl288	Cl	1.061160	0.626069	0.666743
Cl289	Cl	0.496614	0.195406	-0.000023
Cl290	Cl	0.829948	0.528739	0.333310
Cl291	Cl	1.163281	0.862073	0.666643
Cl292	Cl	0.082235	0.242451	0.000067
Cl293	Cl	0.415569	0.575785	0.333400
Cl294	Cl	0.748902	0.909118	0.666734
H295	H	0.575496	-0.632386	-0.000001
H296	H	0.908829	-0.299053	0.333333
H297	H	1.242162	0.034281	0.666666
Cl298	Cl	0.791996	-0.235619	0.000074
Cl299	Cl	1.125329	0.097714	0.333408
Cl300	Cl	1.458663	0.431048	0.666741
H301	H	0.817804	-0.499643	0.000044
H302	H	1.151138	-0.166309	0.333377
H303	H	1.484471	0.167024	0.666711
H304	H	0.763217	-0.016711	0.480457
H305	H	1.096550	0.316622	0.813791
H306	H	1.429883	0.649956	1.147124
Cl307	Cl	0.594779	0.151639	0.734254
Cl308	Cl	0.928112	0.484973	1.067588
Cl309	Cl	1.261446	0.818306	1.400921
Cl310	Cl	-0.049844	0.188866	0.000020
Cl311	Cl	0.283490	0.522199	0.333353
Cl312	Cl	0.616823	0.855533	0.666686
H313	H	0.754417	-0.007915	0.706609
H314	H	1.087750	0.325418	1.039943
H315	H	1.421083	0.658751	1.373276
Cl316	Cl	0.749867	-0.003376	0.265866
Cl317	Cl	1.083201	0.329958	0.599199
Cl318	Cl	1.416534	0.663291	0.932532
Cl319	Cl	-0.151977	-0.047135	0.000080
Cl320	Cl	0.181356	0.286199	0.333413
Cl321	Cl	0.514690	0.619532	0.666747
Cl322	Cl	0.787059	-0.648035	0.000043
Cl323	Cl	1.120392	-0.314702	0.333376
Cl324	Cl	1.453725	0.018632	0.666709
Cl325	Cl	0.502401	-0.469832	-0.000042
Cl326	Cl	0.835735	-0.136499	0.333291
Cl327	Cl	1.169068	0.196835	0.666625
H328	H	0.581434	0.164978	0.519664
H329	H	0.914767	0.498312	0.852998
H330	H	1.248101	0.831645	1.186331
Cl331	Cl	-0.183921	0.187256	0.000026
Cl332	Cl	0.149413	0.520589	0.333359
Cl333	Cl	0.482746	0.853922	0.666692
H334	H	0.770439	-0.111582	0.000110
H335	H	1.103772	0.221751	0.333443
H336	H	1.437106	0.555084	0.666777
H337	H	0.819094	-0.391897	0.000065
H338	H	1.152427	-0.058564	0.333399
H339	H	1.485761	0.274770	0.666732
Cl340	Cl	0.574058	0.172351	0.265880
Cl341	Cl	0.907391	0.505685	0.599213
Cl342	Cl	1.240725	0.839018	0.932546
H343	H	0.762609	-0.765820	0.000021
H344	H	1.095942	-0.432486	0.333354
H345	H	1.429275	-0.099153	0.666687
H346	H	-0.034207	-0.022695	0.000099
H347	H	0.299126	0.310638	0.333432
H348	H	0.632459	0.643971	0.666765
H349	H	0.574206	-0.740135	0.000015
H350	H	0.907540	-0.406801	0.333349
H351	H	1.240873	-0.073468	0.666682
H352	H	0.138355	-0.072633	0.000104
H353	H	0.471688	0.260700	0.333437
H354	H	0.805022	0.594034	0.666771
