data_functionalizedCrystal
_audit_creation_method	'MofGen! by Chris Wilmer'
_symmetry_space_group_name_H-M	'P1'
_symmetry_Int_Tables_number	1
_symmetry_cell_setting	triclinic
loop_
_symmetry_equiv_pos_as_xyz
  x,y,z
_cell_length_a	12.759395
_cell_length_b	18.050589
_cell_length_c	12.759387
_cell_angle_alpha	90.029732
_cell_angle_beta	90.017228
_cell_angle_gamma	90.029758
loop_
_atom_site_label
_atom_site_type_symbol
_atom_site_fract_x
_atom_site_fract_y
_atom_site_fract_z
Zn1	Zn	1.606136	-0.295592	0.594011
Zn2	Zn	2.106136	0.204408	1.094011
Zn3	Zn	1.605995	-0.419800	0.418334
Zn4	Zn	2.105995	0.080200	0.918334
Zn5	Zn	1.430444	-0.295632	0.418348
Zn6	Zn	1.930444	0.204368	0.918348
Zn7	Zn	1.430385	-0.419748	0.593973
Zn8	Zn	1.930385	0.080252	1.093973
O9	O	1.518240	-0.357693	0.506166
O10	O	2.018240	0.142307	1.006166
O11	O	1.753138	-0.312073	0.570717
O12	O	2.253138	0.187927	1.070717
O13	O	1.582674	-0.403367	0.271315
O14	O	2.082674	0.096633	0.771315
O15	O	1.453834	-0.191702	0.441672
O16	O	1.953834	0.308298	0.941672
O17	O	1.753035	-0.403329	0.441648
O18	O	2.253035	0.096671	0.941648
O19	O	1.582914	-0.191672	0.570731
O20	O	2.082914	0.308328	1.070731
O21	O	1.453697	-0.312141	0.271325
O22	O	1.953697	0.187859	0.771325
O23	O	1.283415	-0.312091	0.441635
O24	O	1.783415	0.187909	0.941635
O25	O	1.453733	-0.403240	0.740999
O26	O	1.953733	0.096760	1.240999
O27	O	1.283372	-0.403278	0.570666
O28	O	1.783372	0.096722	1.070666
O29	O	1.582856	-0.312023	0.741027
O30	O	2.082856	0.187977	1.241027
O31	O	1.582616	-0.523718	0.441611
O32	O	2.082616	-0.023718	0.941611
O33	O	1.453596	-0.523679	0.570652
O34	O	1.953596	-0.023679	1.070652
C35	C	1.245273	-0.357684	0.506148
C36	C	1.745273	0.142316	1.006148
C37	C	1.128496	-0.357698	0.506166
C38	C	1.628496	0.142302	1.006166
C39	C	1.128489	-0.452805	0.640308
C40	C	1.628489	0.047195	1.140308
C41	C	1.073625	-0.500364	0.707383
C42	C	1.573625	-0.000364	1.207383
C43	C	0.963903	-0.500373	0.707395
C44	C	1.463903	-0.000373	1.207395
C45	C	0.909044	-0.452816	0.640329
C46	C	1.409044	0.047184	1.140329
C47	C	0.963908	-0.405257	0.573255
C48	C	1.463908	0.094743	1.073255
C49	C	1.073632	-0.405255	0.573247
C50	C	1.573632	0.094745	1.073247
C51	C	0.963914	-0.310147	0.439119
C52	C	1.463914	0.189853	0.939119
C53	C	1.073636	-0.310141	0.439099
C54	C	1.573636	0.189859	0.939099
C55	C	0.909054	-0.262590	0.372052
C56	C	1.409054	0.237410	0.872052
C57	C	0.963919	-0.215033	0.304971
C58	C	1.463919	0.284967	0.804971
C59	C	1.073647	-0.215027	0.304960
C60	C	1.573647	0.284973	0.804960
C61	C	1.128500	-0.262581	0.372025
C62	C	1.628500	0.237419	0.872025
C63	C	1.518113	-0.550645	0.506149
C64	C	2.018113	-0.050645	1.006149
C65	C	1.518155	-0.633191	0.506177
C66	C	2.018155	-0.133191	1.006177
C67	C	1.448063	-0.832647	0.576325
C68	C	1.948063	-0.332647	1.076325
C69	C	1.422452	-0.882096	0.480456
C70	C	1.922452	-0.382096	0.980456
C71	C	1.518258	-0.784321	0.506190
C72	C	2.018258	-0.284321	1.006190
C73	C	1.543921	-0.881955	0.602070
C74	C	2.043921	-0.381955	1.102070
C75	C	1.518356	-0.930306	0.506212
C76	C	2.018356	-0.430306	1.006212
C77	C	1.492597	-0.832682	0.410271
C78	C	1.992597	-0.332682	0.910271
C79	C	1.614110	-0.832537	0.531950
C80	C	2.114110	-0.332537	1.031950
C81	C	1.588536	-0.881962	0.436015
C82	C	2.088536	-0.381962	0.936015
C83	C	1.518199	-0.700223	0.506179
C84	C	2.018199	-0.200223	1.006179
C85	C	1.518415	-1.014403	0.506212
C86	C	2.018415	-0.514403	1.006212
C87	C	1.792274	-0.357702	0.506185
C88	C	2.292274	0.142298	1.006185
C89	C	1.909050	-0.357706	0.506193
C90	C	2.409050	0.142294	1.006193
C91	C	1.518304	-0.357621	0.780200
C92	C	2.018304	0.142379	1.280200
C93	C	1.518331	-0.357590	0.896977
C94	C	2.018331	0.142410	1.396977
C95	C	1.518396	-0.163987	0.506207
C96	C	2.018396	0.336013	1.006207
C97	C	1.518463	-0.081441	0.506224
C98	C	2.018463	0.418559	1.006224
C99	C	1.518237	-0.357711	0.233199
C100	C	2.018237	0.142289	0.733199
C101	C	1.518414	-0.357532	0.116423
C102	C	2.018414	0.142468	0.616423
C103	C	1.652708	-0.452532	1.116391
C104	C	2.152708	0.047468	1.616391
C105	C	1.719840	-0.500044	1.061515
C106	C	2.219840	-0.000044	1.561515
C107	C	1.719805	-0.500072	0.951793
C108	C	2.219805	-0.000072	1.451793
C109	C	1.652629	-0.452585	0.896945
C110	C	2.152629	0.047415	1.396945
C111	C	1.585497	-0.405074	0.951822
C112	C	2.085497	0.094926	1.451822
C113	C	1.585542	-0.405049	1.061546
C114	C	2.085542	0.094951	1.561546
C115	C	1.451199	-0.310078	0.951853
C116	C	1.951199	0.189922	1.451853
C117	C	1.451238	-0.310045	1.061575
C118	C	1.951238	0.189955	1.561575
C119	C	1.384023	-0.262591	0.897006
C120	C	1.884023	0.237409	1.397006
C121	C	1.316895	-0.215075	0.951882
C122	C	1.816895	0.284925	1.451882
C123	C	1.316934	-0.215048	1.061611
C124	C	1.816934	0.284952	1.561611
C125	C	1.384106	-0.262533	1.116452
C126	C	1.884106	0.237467	1.616452
H127	H	0.919233	-0.539097	0.762019
H128	H	1.419233	-0.039097	1.262019
H129	H	1.470837	-0.811128	0.329173
H130	H	1.970837	-0.311128	0.829173
H131	H	1.383996	-0.262621	0.807664
H132	H	1.883996	0.237379	1.307664
C133	C	1.243013	-0.162846	0.891550
C134	C	1.743013	0.337154	1.391550
H135	H	1.252608	-0.169667	0.818345
H136	H	1.752608	0.330333	1.318345
H137	H	1.172419	-0.173701	0.909535
H138	H	1.672419	0.326299	1.409535
H139	H	1.258450	-0.112941	0.909536
H140	H	1.758450	0.387059	1.409536
H141	H	1.262265	-0.176359	1.106285
H142	H	1.762265	0.323641	1.606285
C143	C	0.903578	-0.162724	0.231210
C144	C	1.403578	0.337276	0.731210
H145	H	0.951965	-0.134396	0.191261
H146	H	1.451965	0.365604	0.691261
H147	H	0.860731	-0.191092	0.185371
H148	H	1.360731	0.308908	0.685371
H149	H	0.860821	-0.130401	0.271499
H150	H	1.360821	0.369599	0.771499
H151	H	1.384148	-0.262513	1.205793
H152	H	1.884148	0.237487	1.705793
H153	H	1.118311	-0.176293	0.250347
H154	H	1.618311	0.323707	0.750347
H155	H	1.217841	-0.262583	0.372019
H156	H	1.717841	0.237417	0.872019
H157	H	1.388614	-0.810993	0.635551
H158	H	1.888614	-0.310993	1.135551
C159	C	1.668781	-0.911039	0.355818
C160	C	2.168781	-0.411039	0.855818
H161	H	1.650414	-0.894077	0.287778
H162	H	2.150414	-0.394077	0.787778
H163	H	1.736632	-0.893320	0.373527
H164	H	2.236632	-0.393320	0.873527
H165	H	1.668783	-0.963665	0.356659
H166	H	2.168783	-0.463665	0.856659
C167	C	0.788364	-0.262595	0.372064
C168	C	1.288364	0.237405	0.872064
H169	H	0.763552	-0.227458	0.322523
H170	H	1.263552	0.272542	0.822523
H171	H	0.763503	-0.310503	0.353775
H172	H	1.263503	0.189497	0.853775
H173	H	0.763578	-0.249811	0.439901
H174	H	1.263578	0.250189	0.939901
H175	H	1.695105	-0.810754	0.553763
H176	H	2.195105	-0.310754	1.053763
H177	H	1.341439	-0.903880	0.458688
H178	H	1.841439	-0.403880	0.958688
C179	C	1.249180	-0.452794	0.640301
C180	C	1.749180	0.047206	1.140301
H181	H	1.273994	-0.487922	0.689854
H182	H	1.773994	0.012078	1.189854
H183	H	1.273975	-0.465569	0.572470
H184	H	1.773975	0.034431	1.072470
H185	H	1.274029	-0.404881	0.658602
H186	H	1.774029	0.095119	1.158602
C187	C	1.573196	-0.911193	0.711592
C188	C	2.073196	-0.411193	1.211592
H189	H	1.523218	-0.894298	0.761325
H190	H	2.023218	-0.394298	1.261325
H191	H	1.573651	-0.963814	0.710665
H192	H	2.073651	-0.463814	1.210665
H193	H	1.640775	-0.893487	0.730363
H194	H	2.140775	-0.393487	1.230363
C195	C	1.793644	-0.552335	0.891427
C196	C	2.293644	-0.052335	1.391427
H197	H	1.833660	-0.580611	0.939801
H198	H	2.333660	-0.080611	1.439801
H199	H	1.753409	-0.584698	0.848616
H200	H	2.253409	-0.084698	1.348616
H201	H	1.839434	-0.523934	0.848631
H202	H	2.339434	-0.023934	1.348631
C203	C	1.652468	-0.452702	1.237081
C204	C	2.152468	0.047298	1.737081
H205	H	1.701996	-0.487851	1.261886
H206	H	2.201996	0.012149	1.761886
H207	H	1.670594	-0.404834	1.262214
H208	H	2.170594	0.095166	1.762214
H209	H	1.584578	-0.465603	1.261601
H210	H	2.084578	0.034397	1.761601
H211	H	1.774530	-0.538709	1.106184
H212	H	2.274530	-0.038709	1.606184
C213	C	1.652586	-0.452621	0.776255
C214	C	2.152586	0.047379	1.276255
H215	H	1.702189	-0.487717	0.751428
H216	H	2.202189	0.012283	1.251428
H217	H	1.584767	-0.465463	0.751435
H218	H	2.084767	0.034537	1.251435
H219	H	1.670796	-0.404702	0.751443
H220	H	2.170796	0.095298	1.251443
H221	H	1.118304	-0.539083	0.761988
H222	H	1.618304	-0.039083	1.261988
H223	H	0.819702	-0.452822	0.640355
H224	H	1.319702	0.047178	1.140355
