data_functionalizedCrystal
_audit_creation_method	'MofGen! by Chris Wilmer'
_symmetry_space_group_name_H-M	'P1'
_symmetry_Int_Tables_number	1
_symmetry_cell_setting	triclinic
loop_
_symmetry_equiv_pos_as_xyz
  x,y,z
_cell_length_a	27.440280
_cell_length_b	23.096457
_cell_length_c	23.096457
_cell_angle_alpha	59.999299
_cell_angle_beta	90.009409
_cell_angle_gamma	59.998890
loop_
_atom_site_label
_atom_site_type_symbol
_atom_site_fract_x
_atom_site_fract_y
_atom_site_fract_z
Zr1	Zr	0.469503	0.633677	-0.075891
O2	O	0.391673	0.754489	-0.168355
O3	O	0.493361	0.512883	-0.047550
O4	O	0.493345	0.633689	-0.168345
O5	O	0.391703	0.633667	0.047730
O6	O	0.573548	0.633678	-0.168333
O7	O	0.391689	0.633683	-0.047560
O8	O	0.573576	0.417577	0.047748
O9	O	0.391675	0.849767	-0.168351
O10	O	0.563392	0.562552	-0.035449
O11	O	0.503549	0.562548	0.035655
O12	O	0.503530	0.704782	-0.106565
O13	O	0.443686	0.704778	-0.035461
Zr14	Zr	0.597441	0.633633	0.076103
Zr15	Zr	0.597417	0.633659	-0.075872
Zr16	Zr	0.469527	0.633651	0.076084
Zr17	Zr	0.469507	0.785634	-0.075885
Zr18	Zr	0.597438	0.481676	0.076097
O19	O	0.573583	0.754427	0.047762
O20	O	0.573550	0.754464	-0.168328
O21	O	0.391706	0.754452	0.047735
O22	O	0.675271	0.512821	0.168567
O23	O	0.675238	0.512857	-0.047522
O24	O	0.493394	0.512846	0.168540
O25	O	0.675241	0.633643	-0.047517
O26	O	0.573599	0.633621	0.168557
O27	O	0.493397	0.633632	0.168545
O28	O	0.675255	0.633627	0.047772
O29	O	0.493349	0.849753	-0.168335
O30	O	0.573595	0.417557	0.168548
O31	O	0.675269	0.417543	0.168563
O32	O	0.675251	0.417563	0.047763
O33	O	0.391693	0.849746	-0.047550
O34	O	0.493368	0.849732	-0.047535
O35	O	0.563414	0.562528	0.106778
O36	O	0.623258	0.562531	0.035673
O37	O	0.563395	0.704762	-0.035443
O38	O	0.503552	0.704758	0.035661
C39	C	0.533468	0.443579	0.000098
C40	C	0.533467	0.379070	0.000095
C41	C	0.564700	0.348770	-0.037023
C42	C	0.564706	0.288148	-0.037017
C43	C	0.533467	0.257839	0.000097
C44	C	0.502232	0.288142	0.037224
C45	C	0.502232	0.348757	0.037223
N46	N	0.482620	0.195451	-0.005057
N47	N	0.482621	0.137870	-0.005060
C48	C	0.533466	0.075207	0.000104
N49	N	0.584309	0.072307	0.005258
N50	N	0.584306	0.129895	0.005257
C51	C	0.533464	0.192111	0.000103
C52	C	0.564709	-0.020827	-0.037010
C53	C	0.564716	-0.081454	-0.036999
C54	C	0.502236	-0.081453	0.037237
C55	C	0.502234	-0.020833	0.037231
C56	C	0.533469	0.009479	0.000104
C57	C	0.373471	0.633677	0.000082
C58	C	0.319168	0.633685	0.000074
C59	C	0.013718	0.559399	0.037248
C60	C	-0.037301	0.559394	0.037254
O61	O	-0.037114	0.496254	0.068846
N62	N	-0.094065	0.633636	0.000131
C63	C	-0.099810	0.707887	-0.036994
O64	O	-0.152777	0.771035	-0.068569
C65	C	-0.048792	0.707891	-0.036996
C66	C	0.007972	0.633644	0.000123
C67	C	0.070479	0.485158	0.074364
C68	C	0.121494	0.485163	0.074357
C69	C	0.115747	0.559408	0.037233
C70	C	0.058986	0.633649	0.000116
C71	C	-0.054538	0.782141	-0.074117
C72	C	-0.003514	0.782139	-0.074115
C73	C	0.053250	0.707892	-0.036996
C74	C	0.104255	0.707899	-0.037016
N75	N	0.161019	0.633658	0.000107
C76	C	0.166765	0.559412	0.037231
C77	C	-0.206949	0.707874	-0.036987
C78	C	-0.257966	0.707871	-0.036990
C79	C	-0.195453	0.559378	0.037260
C80	C	-0.144435	0.559381	0.037258
C81	C	-0.150184	0.633632	0.000136
C82	C	0.273898	0.559428	0.037212
C83	C	0.324914	0.559439	0.037199
C84	C	0.262397	0.707932	-0.037047
C85	C	0.211385	0.707921	-0.037038
C86	C	0.217139	0.633662	0.000097
O87	O	0.104114	0.771008	-0.068590
O88	O	0.219734	0.496275	0.068808
C89	C	0.693473	0.633633	0.000130
C90	C	0.747776	0.633625	0.000138
C91	C	0.533443	0.633687	-0.189992
C92	C	0.533433	0.633698	-0.254509
C93	C	0.533476	0.823730	0.000114
C94	C	0.533478	0.888240	0.000117
C95	C	0.577619	0.633693	-0.284796
C96	C	0.577632	0.633677	-0.345404
C97	C	0.533451	0.633681	-0.375731
C98	C	0.489261	0.633681	-0.345434
C99	C	0.489252	0.633690	-0.284823
N100	N	0.481064	0.680032	-0.494095
N101	N	0.481074	0.680026	-0.551673
C102	C	0.533475	0.633654	-0.558346
N103	N	0.585868	0.587299	-0.505270
N104	N	0.585857	0.587309	-0.447688
C105	C	0.533455	0.633672	-0.441452
C106	C	0.577679	0.633630	-0.654350
C107	C	0.577693	0.633609	-0.714957
C108	C	0.489317	0.633621	-0.714989
C109	C	0.489307	0.633635	-0.654380
C110	C	0.533488	0.633643	-0.624066
C111	C	0.533501	0.633623	0.190204
C112	C	0.533511	0.633612	0.254722
C113	C	0.693469	0.443557	0.000122
C114	C	0.747771	0.379040	0.000127
C115	C	0.533497	0.443547	0.190196
C116	C	0.533506	0.379026	0.254711
C117	C	0.693498	0.443525	0.190220
C118	C	0.747810	0.378997	0.254743
C119	C	0.373446	0.823785	-0.190008
C120	C	0.319134	0.888313	-0.254531
C121	C	0.373475	0.823753	0.000090
C122	C	0.319173	0.888270	0.000085
C123	C	0.533447	0.823763	-0.189984
C124	C	0.533438	0.888283	-0.254499
C125	C	0.742022	0.348752	-0.037002
C126	C	0.793039	0.288140	-0.037011
C127	C	0.849804	0.257811	0.000114
C128	C	0.855552	0.288105	0.037244
C129	C	0.804535	0.348721	0.037248
C130	C	0.564759	0.348716	0.322139
C131	C	0.564764	0.288100	0.382764
C132	C	0.533520	0.257792	0.375958
C133	C	0.502263	0.288108	0.308523
C134	C	0.502254	0.348727	0.247900
C135	C	0.804558	0.348695	0.247928
C136	C	0.855594	0.288072	0.308548
C137	C	0.849881	0.257748	0.375983
C138	C	0.793127	0.288055	0.382797
C139	C	0.742092	0.348681	0.322177
C140	C	0.262386	0.918622	-0.247715
C141	C	0.211350	0.979263	-0.308336
C142	C	0.217063	1.009591	-0.375770
C143	C	0.273817	0.979280	-0.382584
C144	C	0.324852	0.918644	-0.321965
C145	C	0.324922	0.918564	0.037208
C146	C	0.273905	0.979193	0.037200
C147	C	0.217140	1.009523	0.000074
C148	C	0.211392	0.979227	-0.037054
C149	C	0.262409	0.918603	-0.037050
C150	C	0.564689	0.918573	-0.247670
C151	C	0.564692	0.979189	-0.308283
C152	C	0.533442	1.009519	-0.375723
C153	C	0.502191	0.979223	-0.382550
C154	C	0.502191	0.918604	-0.321938
H155	H	0.476798	0.003840	0.067454
H156	H	0.901801	0.263402	0.302987
H157	H	0.695806	0.373445	-0.067241
F158	F	0.810652	0.380962	0.176164
F159	F	-0.084026	0.480359	0.076766
H160	H	-0.008202	0.842604	-0.104336
F161	F	0.150954	1.011510	-0.301069
H162	H	0.167709	0.424704	0.104580
F163	F	0.787055	0.255773	0.454571
F164	F	0.624702	0.633634	-0.622085
F165	F	0.597956	0.255889	-0.076519
H166	H	0.590140	1.003849	-0.302711
F167	F	0.786910	0.255908	-0.076529
H168	H	0.476797	0.263460	0.067444
F169	F	0.256282	0.886364	-0.076559
F170	F	0.442298	0.633619	-0.747258
F171	F	0.280034	1.011423	0.076720
F172	F	0.597952	0.886304	-0.175901
H173	H	0.278462	1.003981	-0.437497
F174	F	0.468992	0.380975	0.176139
H175	H	0.371134	0.498976	0.067428
H176	H	0.533446	1.058879	-0.425072
F177	F	0.597955	0.011431	-0.076519
H178	H	0.453325	0.633644	-0.629721
F179	F	0.624641	0.633698	-0.252533
H180	H	-0.190782	0.498923	0.067486
F181	F	0.904096	0.193297	0.000103
F182	F	0.468988	-0.113706	0.076738
H183	H	0.371058	0.893967	-0.327522
F184	F	0.150971	0.786942	-0.076557
H185	H	0.165167	1.003931	-0.067281
F186	F	0.904203	0.193223	0.440494
F187	F	0.915970	0.255817	0.076753
F188	F	0.385331	0.886297	0.076724
H189	H	0.590202	0.373387	0.327694
H190	H	0.533532	0.208432	0.425327
F191	F	0.681697	0.380920	0.329441
H192	H	0.257723	0.893932	-0.192812
H193	H	0.175604	1.058888	0.000076
F194	F	0.468929	1.011516	-0.454331
F195	F	0.468923	0.886381	-0.329216
H196	H	0.590135	0.373447	-0.067252
F197	F	0.162741	1.074126	-0.440282
F198	F	0.468987	0.381004	0.076732
H199	H	0.278592	0.498959	0.067451
F200	F	0.076607	0.406129	0.113883
F201	F	0.597960	-0.113698	-0.076510
F202	F	0.442241	0.633682	-0.377708
F203	F	-0.318374	0.786895	-0.076507
F204	F	0.810662	0.380944	0.076773
F205	F	0.442221	0.633695	-0.252588
F206	F	0.598035	0.255845	0.454526
F207	F	-0.114941	0.861166	-0.113620
F208	F	-0.213076	0.786907	-0.076506
F209	F	0.256292	0.786945	-0.076548
F210	F	0.624663	0.633672	-0.377643
F211	F	0.624726	0.633597	-0.747188
H212	H	0.476825	0.263422	0.302992
