data_functionalizedCrystal
_audit_creation_method	'MofGen! by Chris Wilmer'
_symmetry_space_group_name_H-M	'P1'
_symmetry_Int_Tables_number	1
_symmetry_cell_setting	triclinic
loop_
_symmetry_equiv_pos_as_xyz
  x,y,z
_cell_length_a	17.000383
_cell_length_b	17.019294
_cell_length_c	15.072220
_cell_angle_alpha	86.119892
_cell_angle_beta	89.984621
_cell_angle_gamma	79.506204
loop_
_atom_site_label
_atom_site_type_symbol
_atom_site_fract_x
_atom_site_fract_y
_atom_site_fract_z
O1	O	1.056078	0.028431	-0.076015
O2	O	0.824314	0.057061	-0.078191
O3	O	0.946660	-0.072535	-0.068291
O4	O	0.933732	0.158026	-0.085914
O5	O	0.946630	-0.072526	0.079273
O6	O	0.824283	0.057070	0.069374
O7	O	1.056048	0.028440	0.071549
Zn8	Zn	0.940161	0.042756	0.093891
Zn9	Zn	0.940201	0.042744	-0.100532
O10	O	0.933701	0.158035	0.061650
C11	C	0.794643	0.058603	-0.004524
C12	C	0.706280	0.063175	-0.004869
C13	C	0.946154	-0.101885	0.007733
C14	C	0.944682	-0.189353	0.014413
C15	C	0.206029	0.092698	-0.007159
C16	C	0.289057	0.088396	-0.006829
C17	C	0.340136	0.013720	-0.001115
C18	C	0.308183	-0.056658	0.004262
C19	C	0.225157	-0.052355	0.003926
C20	C	0.591300	-0.002900	0.000172
C21	C	0.674332	-0.007198	0.000510
C22	C	0.655200	0.137857	-0.010583
C23	C	0.572173	0.142153	-0.010913
C24	C	0.540228	0.071775	-0.005541
C25	C	0.425004	0.009321	-0.000775
C26	C	0.455361	0.076175	-0.005888
C27	C	0.944009	-0.230446	-0.062885
C28	C	0.942621	-0.312631	-0.056605
C29	C	0.941912	-0.353722	0.026974
C30	C	0.942583	-0.312622	0.104278
C31	C	0.943965	-0.230438	0.097997
C32	C	0.937732	-0.601863	0.049961
C33	C	0.936352	-0.684053	0.056236
C34	C	0.936389	-0.684056	-0.104648
C35	C	0.937776	-0.601871	-0.110921
C36	C	0.938443	-0.560778	-0.033617
C37	C	0.940496	-0.437728	0.033395
C38	C	0.939853	-0.476772	-0.040039
C39	C	1.085718	0.026898	-0.002119
C40	C	1.174082	0.022325	-0.001780
C41	C	0.934207	0.187386	-0.014376
C42	C	0.935679	0.274854	-0.021062
N43	N	0.940139	0.042763	0.226579
N44	N	0.940228	0.042731	-0.233220
C45	C	0.940199	0.042741	0.585782
C46	C	0.874514	0.111883	0.542894
C47	C	0.874665	0.112109	0.440051
C48	C	0.940169	0.042752	0.407577
C49	C	1.023204	0.054971	0.443930
C50	C	1.022836	0.055455	0.546751
C51	C	0.923589	-0.038862	0.554121
C52	C	0.921683	-0.038177	0.451205
C53	C	0.940157	0.042756	0.306864
C54	C	0.940216	0.042739	0.686496
H55	H	0.164446	0.153508	-0.011805
H56	H	0.681220	0.195154	-0.014958
H57	H	0.942001	-0.346084	0.172329
C58	C	0.399178	0.158317	-0.012173
C59	C	0.402674	0.217565	0.059927
C60	C	0.346483	0.299707	0.053646
C61	C	0.286796	0.322602	-0.024735
C62	C	0.283299	0.263353	-0.096840
C63	C	0.339489	0.181211	-0.090559
H64	H	0.446859	0.200618	0.117954
H65	H	0.349072	0.343567	0.107023
H66	H	0.245200	0.383409	-0.029385
H67	H	0.239113	0.280300	-0.154867
H68	H	0.336900	0.137351	-0.143937
H69	H	0.565301	-0.060207	0.004548
H70	H	0.864360	-0.052040	0.581122
H71	H	0.944591	-0.196997	-0.130944
C72	C	0.888986	0.194074	0.400523
C73	C	0.891973	0.210589	0.298969
C74	C	0.906300	0.292557	0.259442
C75	C	0.917641	0.358011	0.321469
C76	C	0.914654	0.341498	0.423030
C77	C	0.900327	0.259530	0.462557
H78	H	0.883578	0.162135	0.253047
H79	H	0.908510	0.304781	0.184260
H80	H	0.928246	0.418688	0.292209
H81	H	0.923050	0.389952	0.468951
H82	H	0.898117	0.247306	0.537739
C83	C	0.940636	-0.431576	-0.131974
C84	C	0.871378	-0.429125	-0.198529
C85	C	0.872164	-0.383921	-0.290465
C86	C	0.942209	-0.341170	-0.315846
C87	C	1.011472	-0.343621	-0.249289
C88	C	1.010685	-0.388824	-0.157353
H89	H	0.819522	-0.460773	-0.179743
H90	H	0.820891	-0.382108	-0.339735
H91	H	0.942792	-0.307708	-0.383902
H92	H	1.063328	-0.311972	-0.268076
H93	H	1.061959	-0.390638	-0.108084
H94	H	0.966424	-0.091594	0.429578
C95	C	0.839168	-0.050893	0.419259
C96	C	0.788786	0.011892	0.353866
C97	C	0.706271	-0.000821	0.321913
C98	C	0.674138	-0.076320	0.355352
C99	C	0.724520	-0.139110	0.420749
C100	C	0.807035	-0.126397	0.452702
H101	H	0.812573	0.067785	0.329109
H102	H	0.668975	0.045661	0.273502
H103	H	0.613055	-0.085731	0.331699
H104	H	0.700733	-0.195003	0.445506
H105	H	0.844331	-0.172879	0.501113
C106	C	0.791275	0.103439	0.406656
C107	C	0.756201	0.028855	0.436861
C108	C	0.672805	0.020192	0.403474
C109	C	0.624482	0.086112	0.339882
C110	C	0.659555	0.160700	0.309674
C111	C	0.742951	0.169364	0.343061
H112	H	0.791973	-0.019947	0.483939
H113	H	0.646842	-0.035024	0.425837
H114	H	0.562748	0.079698	0.315167
H115	H	0.623784	0.209503	0.262596
H116	H	0.768914	0.224580	0.320698
H117	H	0.939921	-0.471194	0.101445
C118	C	0.790845	0.103413	0.576920
C119	C	0.781136	0.033617	0.644074
C120	C	0.697458	0.025121	0.678070
C121	C	0.623490	0.086421	0.644911
C122	C	0.633196	0.156222	0.577753
C123	C	0.716874	0.164718	0.543757
H124	H	0.835894	-0.011766	0.668623
H125	H	0.690273	-0.026551	0.727785
H126	H	0.561547	0.080131	0.670077
H127	H	0.578439	0.201604	0.553204
H128	H	0.724059	0.216390	0.494042
H129	H	0.315064	0.145701	-0.011217
C130	C	0.515993	0.224301	-0.017205
C131	C	0.456309	0.247199	-0.095587
C132	C	0.400130	0.329349	-0.101876
C133	C	0.403637	0.388600	-0.029783
C134	C	0.463323	0.365703	0.048605
C135	C	0.519502	0.283553	0.054894
H136	H	0.453711	0.203337	-0.148960
H137	H	0.355946	0.346298	-0.159904
H138	H	0.362050	0.449412	-0.034438
H139	H	0.465921	0.409565	0.101978
H140	H	0.563686	0.266604	0.112922
C141	C	0.190010	-0.129766	0.009846
C142	C	0.209286	-0.190181	0.091096
C143	C	0.174141	-0.267594	0.097012
C144	C	0.119719	-0.284591	0.021679
C145	C	0.100440	-0.224174	-0.059577
C146	C	0.135586	-0.146761	-0.065493
H147	H	0.249575	-0.177600	0.146868
H148	H	0.188412	-0.312319	0.157163
H149	H	0.093702	-0.341897	0.026059
H150	H	0.060152	-0.236755	-0.115348
H151	H	0.121314	-0.102036	-0.125644
H152	H	0.935845	-0.717522	-0.167584
C153	C	0.988292	-0.108284	0.592283
C154	C	1.055870	-0.091065	0.651878
C155	C	1.120574	-0.160480	0.690046
C156	C	1.117698	-0.247114	0.668619
C157	C	1.050117	-0.264337	0.609021
C158	C	0.985414	-0.194922	0.570853
H159	H	1.058001	-0.026930	0.667742
H160	H	1.170602	-0.147730	0.734164
H161	H	1.165596	-0.298499	0.696873
H162	H	1.047987	-0.328472	0.593157
H163	H	0.935386	-0.207672	0.526735
H164	H	0.715920	-0.068011	0.005159
H165	H	0.349778	-0.117460	0.008910
H166	H	0.935771	-0.717507	0.124299
H167	H	1.073245	0.005710	0.423223
C168	C	0.888662	0.193409	0.571508
C169	C	0.959536	0.197425	0.633595
C170	C	0.973702	0.278951	0.662185
C171	C	0.916995	0.356461	0.628687
C172	C	0.846116	0.352448	0.566597
C173	C	0.831949	0.270922	0.538007
H174	H	1.001518	0.140044	0.658394
H175	H	1.026172	0.281921	0.708148
H176	H	0.927481	0.416812	0.649851
H177	H	0.804133	0.409828	0.541797
H178	H	0.779480	0.267951	0.492043
C179	C	0.481195	-0.072820	0.005518
C180	C	0.540882	-0.095705	0.083900
C181	C	0.597077	-0.177845	0.090189
C182	C	0.593585	-0.237101	0.018098
C183	C	0.533895	-0.214218	-0.060289
C184	C	0.477701	-0.132078	-0.066579
H185	H	0.543469	-0.051839	0.137271
H186	H	0.641262	-0.194784	0.148217
H187	H	0.635183	-0.297906	0.022754
H188	H	0.531308	-0.258084	-0.113661
H189	H	0.433515	-0.115138	-0.124607
C190	C	0.938482	-0.556676	0.134997
C191	C	0.869200	-0.554235	0.201187
C192	C	0.869955	-0.509047	0.286230
C193	C	0.939992	-0.466300	0.305083
C194	C	1.009279	-0.468740	0.238891
C195	C	1.008524	-0.513927	0.153849
H196	H	0.817350	-0.585880	0.187233
H197	H	0.818664	-0.507242	0.335229
H198	H	0.940551	-0.432850	0.368036
H199	H	1.061130	-0.437094	0.252846
H200	H	1.059815	-0.515733	0.104850
C201	C	1.090871	-0.010224	0.585651
C202	C	1.092265	-0.098499	0.567840
C203	C	1.160316	-0.164093	0.606859
C204	C	1.226973	-0.141412	0.663688
C205	C	1.225581	-0.053133	0.681501
C206	C	1.157530	0.012462	0.642483
H207	H	1.042920	-0.115293	0.525769
H208	H	1.161346	-0.229444	0.593672
H209	H	1.277348	-0.189969	0.692572
H210	H	1.274926	-0.036339	0.723572
H211	H	1.156500	0.077812	0.655669
C212	C	0.938551	-0.556678	-0.202863
C213	C	1.008594	-0.513930	-0.228262
C214	C	1.009373	-0.468739	-0.320206
C215	C	0.940109	-0.466296	-0.386750
C216	C	0.870060	-0.509045	-0.361352
C217	C	0.869282	-0.554236	-0.269408
H218	H	1.059873	-0.515737	-0.179001
H219	H	1.061228	-0.437093	-0.339007
H220	H	0.940685	-0.432843	-0.454813
H221	H	0.818782	-0.507238	-0.410614
H222	H	0.817427	-0.585882	-0.250608
C223	C	1.043476	0.134169	0.403072
C224	C	1.050781	0.147474	0.301549
C225	C	1.071047	0.226675	0.260692
C226	C	1.084008	0.292572	0.321359
C227	C	1.076704	0.279270	0.422889
C228	C	1.056438	0.200069	0.463745
H229	H	1.041185	0.098691	0.256634
H230	H	1.076454	0.236522	0.185533
H231	H	1.099011	0.351202	0.291115
H232	H	1.086299	0.328053	0.467803
H233	H	1.051030	0.190222	0.538904
H234	H	0.942076	-0.346086	-0.119550
H235	H	0.944502	-0.196979	0.160942
H236	H	1.037486	0.114792	0.566196
