data_functionalizedCrystal
_audit_creation_method	'MofGen! by Chris Wilmer'
_symmetry_space_group_name_H-M	'P1'
_symmetry_Int_Tables_number	1
_symmetry_cell_setting	triclinic
loop_
_symmetry_equiv_pos_as_xyz
  x,y,z
_cell_length_a	13.033293
_cell_length_b	13.032721
_cell_length_c	13.032268
_cell_angle_alpha	76.710373
_cell_angle_beta	90.920818
_cell_angle_gamma	105.184121
loop_
_atom_site_label
_atom_site_type_symbol
_atom_site_fract_x
_atom_site_fract_y
_atom_site_fract_z
Zn1	Zn	1.451143	-0.335776	0.818087
Zn2	Zn	1.451029	-0.490873	0.663022
Zn3	Zn	1.301807	-0.330076	0.623641
Zn4	Zn	1.250940	-0.535864	0.817967
O5	O	1.363730	-0.423147	0.730679
O6	O	1.597364	-0.339906	0.814049
O7	O	1.452475	-0.448329	0.511577
O8	O	1.342952	-0.179801	0.633004
O9	O	1.597280	-0.453855	0.700123
O10	O	1.452669	-0.183988	0.775863
O11	O	1.342842	-0.330192	0.482644
O12	O	1.148823	-0.373818	0.632888
O13	O	1.256257	-0.530536	0.964204
O14	O	1.111451	-0.525009	0.775658
O15	O	1.403346	-0.383532	0.964292
O16	O	1.403151	-0.647872	0.700006
O17	O	1.256146	-0.680927	0.813844
C18	C	1.092220	-0.453678	0.699987
C19	C	0.976059	-0.466769	0.686885
C20	C	0.924284	-0.416342	0.737521
C21	C	0.804226	-0.429871	0.723980
C22	C	1.324141	-0.703561	0.761211
C23	C	1.307296	-0.823517	0.774319
C24	C	1.372570	-0.860609	0.723892
C25	C	1.355161	-0.984590	0.737438
C26	C	1.636300	-0.392498	0.761492
C27	C	1.752453	-0.379436	0.774623
C28	C	1.324140	-0.462688	1.003222
C29	C	1.307269	-0.479538	1.119363
C30	C	1.403498	-0.141639	0.700054
C31	C	1.420444	-0.021676	0.687004
C32	C	1.403237	-0.383675	0.459196
C33	C	1.420353	-0.366498	0.343045
C34	C	1.372524	-0.414316	1.171186
C35	C	1.355089	-0.431730	1.291224
H36	H	1.441346	-0.800580	0.670695
O37	O	1.273161	-0.513841	1.344373
C38	C	1.313708	-0.585935	1.421829
H39	H	1.399825	-0.578594	1.398903
H40	H	1.263989	-0.673440	1.427937
H41	H	1.310096	-0.564070	1.501277
O42	O	1.225346	-0.561645	1.172516
C43	C	1.265893	-0.633739	1.249971
H44	H	1.352010	-0.626398	1.227046
H45	H	1.216174	-0.721244	1.256080
H46	H	1.262281	-0.611874	1.329420
O47	O	0.923085	-0.530228	0.623130
C48	C	0.994530	-0.574514	0.578700
H49	H	1.079119	-0.521079	0.579053
H50	H	0.973248	-0.577490	0.494052
H51	H	0.988996	-0.660780	0.627067
O52	O	0.805447	-0.316063	0.838444
C53	C	0.760417	-0.357911	0.942165
H54	H	0.674981	-0.408582	0.939905
H55	H	0.760954	-0.287314	0.980263
H56	H	0.808902	-0.411673	0.990198
H57	H	1.489128	-0.297757	1.298549
H58	H	0.968840	-0.363149	0.790892
O59	O	0.751001	-0.493474	0.660454
C60	C	0.669383	-0.578937	0.720361
H61	H	0.689449	-0.593982	0.807081
H62	H	0.661828	-0.656586	0.691327
H63	H	0.590876	-0.555353	0.711119
O64	O	1.454479	-0.332184	1.118123
C65	C	1.443020	-0.231013	1.130451
H66	H	1.355971	-0.239280	1.150494
H67	H	1.469911	-0.166338	1.053846
H68	H	1.493913	-0.205614	1.196979
O69	O	1.273135	-1.056343	0.800837
C70	C	1.274025	-1.164158	0.800264
H71	H	1.317894	-1.163888	0.725188
H72	H	1.188730	-1.216960	0.803104
H73	H	1.316167	-1.198807	0.872035
H74	H	1.238528	-0.883549	0.827524
O75	O	1.502370	-0.950028	0.623394
C76	C	1.461821	-0.881789	0.542089
H77	H	1.375711	-0.924206	0.529967
H78	H	1.511551	-0.864479	0.465834
H79	H	1.465413	-0.801506	0.564718
