data_functionalizedCrystal
_audit_creation_method	'MofGen! by Chris Wilmer'
_symmetry_space_group_name_H-M	'P1'
_symmetry_Int_Tables_number	1
_symmetry_cell_setting	triclinic
loop_
_symmetry_equiv_pos_as_xyz
  x,y,z
_cell_length_a	6.817900
_cell_length_b	19.551823
_cell_length_c	16.255661
_cell_angle_alpha	95.874627
_cell_angle_beta	103.488922
_cell_angle_gamma	101.663376
loop_
_atom_site_label
_atom_site_type_symbol
_atom_site_fract_x
_atom_site_fract_y
_atom_site_fract_z
V1	V	-4.017644	-0.097240	-0.264269
O2	O	-4.014572	0.004092	-0.258831
O3	O	-3.960336	-0.192252	-0.262853
O4	O	-3.969322	-0.095999	-0.379347
O5	O	-4.005524	-0.092827	-0.141531
V6	V	-4.502416	-0.085090	-0.249541
O7	O	-4.276162	-0.123894	-0.296576
O8	O	-4.694095	-0.058436	-0.217234
O9	O	-4.336518	0.009923	-0.250957
O10	O	-4.622886	-0.186422	-0.254979
O11	O	-4.631934	-0.089502	-0.372279
O12	O	-4.327532	-0.086330	-0.134463
C13	C	-3.803167	-0.215406	-0.258785
C14	C	-3.837598	-0.293082	-0.258395
C15	C	-4.035543	-0.333136	-0.262444
C16	C	-4.067899	-0.406121	-0.262085
C17	C	-3.902291	-0.439047	-0.257661
C18	C	-3.704321	-0.398984	-0.253617
C19	C	-3.671975	-0.326001	-0.253984
C20	C	-3.789026	-0.545420	-0.203995
C21	C	-3.821377	-0.618401	-0.203623
C22	C	-4.002053	-0.664151	-0.256533
C23	C	-4.150402	-0.636910	-0.309805
C24	C	-4.118055	-0.563927	-0.310172
C25	C	-3.937345	-0.518184	-0.257263
C26	C	-4.235095	-0.783344	-0.260194
C27	C	-4.267447	-0.856332	-0.259841
C28	C	-3.903859	-0.849192	-0.251364
C29	C	-3.871517	-0.776207	-0.251726
C30	C	-4.037140	-0.743287	-0.256137
C31	C	-3.814629	-0.092625	-0.407384
C32	C	-3.856344	-0.092239	-0.501464
C33	C	-3.767331	-0.087630	-0.724263
C34	C	-3.918199	-0.147123	-0.793983
C35	C	-3.932796	-0.091516	-0.673709
C36	C	-3.856282	-0.031341	-0.771624
C37	C	-4.006630	-0.090813	-0.840090
C38	C	-4.083142	-0.151062	-0.742199
C39	C	-4.021167	-0.035228	-0.719825
C40	C	-4.172171	-0.094738	-0.789525
C41	C	-3.890258	-0.091921	-0.577862
C42	C	-4.049185	-0.090414	-0.935937
C43	C	-4.157028	0.033073	-0.255022
C44	C	-4.101835	0.110747	-0.255418
C45	C	-4.145567	-0.089707	-0.106422
C46	C	-4.083090	-0.090089	-0.012341
H47	H	-4.428643	-0.888944	-0.263144
H48	H	-3.710328	-0.743593	-0.248423
H49	H	-3.700588	-0.640574	-0.160240
H50	H	-3.769020	-0.876000	-0.247767
H51	H	-4.343761	-0.097760	-0.817884
H52	H	-3.875115	-0.194430	-0.826262
H53	H	-4.238846	-0.541750	-0.353549
H54	H	-4.178635	-0.201713	-0.728940
H55	H	-4.170412	-0.306338	-0.266041
H56	H	-4.064174	0.012082	-0.687522
H57	H	-3.510783	-0.293389	-0.250687
H58	H	-4.297344	-0.674169	-0.353006
H59	H	-3.760764	0.019242	-0.785027
H60	H	-4.229094	-0.438740	-0.265382
H61	H	-3.641884	-0.508176	-0.160912
H62	H	-3.569485	-0.425797	-0.250016
H63	H	-4.369954	-0.756540	-0.263785
H64	H	-3.595850	-0.084701	-0.695771
