data_functionalizedCrystal
_audit_creation_method	'MofGen! by Chris Wilmer'
_symmetry_space_group_name_H-M	'P1'
_symmetry_Int_Tables_number	1
_symmetry_cell_setting	triclinic
loop_
_symmetry_equiv_pos_as_xyz
  x,y,z
_cell_length_a	10.686220
_cell_length_b	13.897448
_cell_length_c	13.897449
_cell_angle_alpha	90.010270
_cell_angle_beta	85.637603
_cell_angle_gamma	94.399460
loop_
_atom_site_label
_atom_site_type_symbol
_atom_site_fract_x
_atom_site_fract_y
_atom_site_fract_z
Zn1	Zn	1.928957	-0.270874	0.432425
Zn2	Zn	2.262291	0.062459	0.765758
Zn3	Zn	2.595624	0.395792	1.099092
Zn4	Zn	1.928873	-0.432144	0.271131
Zn5	Zn	2.262206	-0.098810	0.604465
Zn6	Zn	2.595540	0.234523	0.937798
Zn7	Zn	1.717992	-0.283251	0.283497
Zn8	Zn	2.051325	0.050082	0.616830
Zn9	Zn	2.384659	0.383415	0.950164
Zn10	Zn	1.717914	-0.444525	0.444737
Zn11	Zn	2.051247	-0.111192	0.778071
Zn12	Zn	2.384580	0.222141	1.111404
O13	O	1.823434	-0.357699	0.357948
O14	O	2.156767	-0.024365	0.691281
O15	O	2.490101	0.308968	1.024614
O16	O	2.105523	-0.281906	0.400701
O17	O	2.438857	0.051428	0.734035
O18	O	2.772190	0.384761	1.067368
O19	O	1.900897	-0.412391	0.137790
O20	O	2.234230	-0.079058	0.471124
O21	O	2.567563	0.254276	0.804457
O22	O	1.746045	-0.146624	0.303275
O23	O	2.079378	0.186710	0.636608
O24	O	2.412712	0.520043	0.969942
O25	O	2.105461	-0.400390	0.282200
O26	O	2.438795	-0.067056	0.615533
O27	O	2.772128	0.266277	0.948866
O28	O	1.901040	-0.137531	0.412692
O29	O	2.234374	0.195803	0.746025
O30	O	2.567707	0.529136	1.079358
O31	O	1.745963	-0.303000	0.146875
O32	O	2.079297	0.030333	0.480209
O33	O	2.412630	0.363667	0.813542
O34	O	1.541405	-0.315006	0.315214
O35	O	1.874738	0.018327	0.648547
O36	O	2.208071	0.351661	0.981881
O37	O	1.745912	-0.421492	0.578085
O38	O	2.079245	-0.088159	0.911419
O39	O	2.412578	0.245174	1.244752
O40	O	1.541347	-0.433493	0.433676
O41	O	1.874680	-0.100160	0.767010
O42	O	2.208014	0.233173	1.100343
O43	O	1.900964	-0.293912	0.569040
O44	O	2.234298	0.039422	0.902373
O45	O	2.567631	0.372755	1.235706
O46	O	1.900821	-0.568772	0.294138
O47	O	2.234154	-0.235439	0.627472
O48	O	2.567487	0.097895	0.960805
O49	O	1.745830	-0.577869	0.421686
O50	O	2.079163	-0.244535	0.755019
O51	O	2.412497	0.088798	1.088352
C52	C	1.495591	-0.376937	0.377124
C53	C	1.828925	-0.043604	0.710457
C54	C	2.162258	0.289730	1.043790
C55	C	1.355339	-0.385191	0.385350
C56	C	1.688672	-0.051857	0.718683
C57	C	2.022005	0.281476	1.052017
C58	C	1.823342	-0.608318	0.357925
C59	C	2.156675	-0.274985	0.691259
C60	C	2.490009	0.058348	1.024592
C61	C	1.823418	-0.715528	0.357941
C62	C	2.156751	-0.382195	0.691274
C63	C	2.490085	-0.048861	1.024608
C64	C	1.823550	-0.911815	0.357994
C65	C	2.156884	-0.578482	0.691327
C66	C	2.490217	-0.245149	1.024660
C67	C	1.823473	-0.802587	0.357968
C68	C	2.156807	-0.469254	0.691301
C69	C	2.490140	-0.135921	1.024634
C70	C	2.152557	-0.338386	0.338698
C71	C	2.485890	-0.005053	0.672031
C72	C	2.819223	0.328281	1.005364
C73	C	2.292809	-0.330156	0.330494
C74	C	2.626143	0.003177	0.663828
C75	C	2.959476	0.336511	0.997161
C76	C	1.823439	-0.357702	0.609540
C77	C	2.156772	-0.024369	0.942874
C78	C	2.490105	0.308964	1.276207
C79	C	1.823441	-0.357704	0.716754
C80	C	2.156774	-0.024371	1.050087
C81	C	2.490107	0.308963	1.383421
C82	C	1.823561	-0.106098	0.357989
C83	C	2.156894	0.227235	0.691323
C84	C	2.490227	0.560568	1.024656
C85	C	1.823615	0.001119	0.358007
C86	C	2.156948	0.334452	0.691341
C87	C	2.490282	0.667786	1.024674
C88	C	1.823409	-0.357710	0.913051
C89	C	2.156742	-0.024377	1.246384
C90	C	2.490076	0.308956	1.579718
C91	C	1.823423	-0.357710	0.803818
C92	C	2.156756	-0.024376	1.137151
C93	C	2.490089	0.308957	1.470484
C94	C	1.823417	-0.357715	1.107334
C95	C	2.156751	-0.024382	1.440668
C96	C	2.490084	0.308951	1.774001
C97	C	1.823407	-0.357708	1.000121
C98	C	2.156741	-0.024375	1.333454
C99	C	2.490074	0.308959	1.666788
H100	H	1.346573	-0.276725	0.277236
H101	H	1.679906	0.056608	0.610569
H102	H	2.013239	0.389942	0.943902
Br103	Br	1.265730	-0.474268	0.474112
Br104	Br	1.599064	-0.140934	0.807445
Br105	Br	1.932397	0.192399	1.140778
