data_functionalizedCrystal
_audit_creation_method	'MofGen! by Chris Wilmer'
_symmetry_space_group_name_H-M	'P1'
_symmetry_Int_Tables_number	1
_symmetry_cell_setting	triclinic
loop_
_symmetry_equiv_pos_as_xyz
  x,y,z
_cell_length_a	16.625548
_cell_length_b	25.639239
_cell_length_c	16.625539
_cell_angle_alpha	89.968745
_cell_angle_beta	89.979432
_cell_angle_gamma	90.039754
loop_
_atom_site_label
_atom_site_type_symbol
_atom_site_fract_x
_atom_site_fract_y
_atom_site_fract_z
Zn1	Zn	1.232590	-0.208135	-0.455893
Zn2	Zn	1.732590	0.291865	0.044107
Zn3	Zn	1.232455	-0.295573	-0.321053
Zn4	Zn	1.732455	0.204427	0.178947
Zn5	Zn	1.097751	-0.208155	-0.321073
Zn6	Zn	1.597751	0.291845	0.178927
Zn7	Zn	1.097684	-0.295543	-0.455843
Zn8	Zn	1.597684	0.204457	0.044157
O9	O	1.165120	-0.251851	-0.388466
O10	O	1.665120	0.248149	0.111534
O11	O	1.345404	-0.219738	-0.438018
O12	O	1.845404	0.280262	0.061982
O13	O	1.214558	-0.283998	-0.208223
O14	O	1.714558	0.216002	0.291777
O15	O	1.115723	-0.134987	-0.338987
O16	O	1.615723	0.365013	0.161013
O17	O	1.345305	-0.283978	-0.338952
O18	O	1.845305	0.216022	0.161048
O19	O	1.214788	-0.134972	-0.438038
O20	O	1.714788	0.365028	0.061962
O21	O	1.115592	-0.219772	-0.208238
O22	O	1.615592	0.280228	0.291762
O23	O	0.984910	-0.219743	-0.338938
O24	O	1.484910	0.280257	0.161062
O25	O	1.115607	-0.283927	-0.568682
O26	O	1.615607	0.216073	-0.068682
O27	O	0.984860	-0.283946	-0.437953
O28	O	1.484860	0.216054	0.062047
O29	O	1.214722	-0.219709	-0.568719
O30	O	1.714722	0.280291	-0.068719
O31	O	1.214492	-0.368734	-0.338904
O32	O	1.714492	0.131266	0.161096
O33	O	1.115477	-0.368712	-0.437933
O34	O	1.615477	0.131288	0.062067
C35	C	0.955629	-0.251844	-0.388443
C36	C	1.455629	0.248156	0.111557
C37	C	0.866008	-0.251853	-0.388452
C38	C	1.366008	0.248147	0.111548
C39	C	1.164984	-0.387694	-0.388429
C40	C	1.664984	0.112306	0.111571
C41	C	1.165000	-0.445808	-0.388440
C42	C	1.665000	0.054192	0.111560
C43	C	0.537832	-0.251857	-0.388487
C44	C	1.037832	0.248143	0.111513
C45	C	0.629141	-0.251854	-0.388475
C46	C	1.129141	0.248146	0.111525
C47	C	0.701917	-0.251855	-0.388469
C48	C	1.201917	0.248145	0.111531
C49	C	0.793231	-0.251852	-0.388458
C50	C	1.293231	0.248148	0.111542
C51	C	1.216812	-0.806170	-0.336989
C52	C	1.716812	-0.306170	0.163011
C53	C	1.216843	-0.860774	-0.337000
C54	C	1.716843	-0.360774	0.163000
O55	O	1.260755	-0.889010	-0.293213
O56	O	1.760755	-0.389010	0.206787
N57	N	1.165262	-0.888090	-0.388519
N58	N	1.665262	-0.388090	0.111481
C59	C	1.113651	-0.860799	-0.440037
C60	C	1.613651	-0.360799	0.059963
O61	O	1.069780	-0.889048	-0.483860
O62	O	1.569780	-0.389048	0.016140
C63	C	1.113625	-0.806196	-0.440029
C64	C	1.613625	-0.306196	0.059971
C65	C	1.165204	-0.778883	-0.388501
C66	C	1.665204	-0.278883	0.111499
C67	C	1.268387	-0.778857	-0.285465
C68	C	1.768387	-0.278857	0.214535
C69	C	1.268355	-0.724256	-0.285453
C70	C	1.768355	-0.224256	0.214547
C71	C	1.216747	-0.696969	-0.336965
C72	C	1.716747	-0.196969	0.163035
C73	C	1.165171	-0.724282	-0.388489
C74	C	1.665171	-0.224282	0.111511
C75	C	1.062019	-0.778906	-0.491551
C76	C	1.562019	-0.278906	0.008449
C77	C	1.061997	-0.724299	-0.491539
C78	C	1.561997	-0.224299	0.008461
C79	C	1.113576	-0.696986	-0.440011
C80	C	1.613576	-0.196986	0.059989
C81	C	1.113531	-0.642395	-0.439990
C82	C	1.613531	-0.142395	0.060010
N83	N	1.165112	-0.615078	-0.388470
N84	N	1.665112	-0.115078	0.111530
C85	C	1.216720	-0.642366	-0.336958
C86	C	1.716720	-0.142366	0.163042
C87	C	1.113712	-0.975470	-0.440049
C88	C	1.613712	-0.475470	0.059951
C89	C	1.113734	-1.030072	-0.440053
C90	C	1.613734	-0.530072	0.059947
C91	C	1.216927	-1.030043	-0.337017
C92	C	1.716927	-0.530043	0.162983
C93	C	1.216900	-0.975440	-0.337009
C94	C	1.716900	-0.475440	0.162991
C95	C	1.165293	-0.948154	-0.388530
C96	C	1.665293	-0.448154	0.111470
C97	C	1.216648	-0.527700	-0.336937
C98	C	1.716648	-0.027700	0.163063
C99	C	1.216608	-0.473095	-0.336928
C100	C	1.716608	0.026905	0.163072
C101	C	1.113418	-0.473129	-0.439967
C102	C	1.613418	0.026871	0.060033
C103	C	1.113454	-0.527729	-0.439973
C104	C	1.613454	-0.027729	0.060027
C105	C	1.165076	-0.555014	-0.388456
C106	C	1.665076	-0.055014	0.111544
O107	O	1.069644	-0.614124	-0.483756
O108	O	1.569644	-0.114124	0.016244
O109	O	1.260591	-0.614110	-0.293150
O110	O	1.760591	-0.114110	0.206850
C111	C	1.375429	-0.251859	-0.388489
C112	C	1.875429	0.248141	0.111511
C113	C	1.465050	-0.251863	-0.388498
C114	C	1.965050	0.248137	0.111502
C115	C	1.165172	-0.251812	-0.598775
C116	C	1.665172	0.248188	-0.098775
C117	C	1.165195	-0.251796	-0.688396
C118	C	1.665195	0.248204	-0.188396
C119	C	1.165278	-0.115478	-0.388520
C120	C	1.665278	0.384522	0.111480
C121	C	1.165345	-0.057364	-0.388544
C122	C	1.665345	0.442636	0.111456
C123	C	1.165232	-0.251737	-1.016572
C124	C	1.665232	0.248263	-0.516572
C125	C	1.165219	-0.251755	-0.925263
C126	C	1.665219	0.248245	-0.425263
C127	C	1.165214	-0.251767	-0.852487
C128	C	1.665214	0.248233	-0.352487
C129	C	1.165200	-0.251784	-0.761172
C130	C	1.665200	0.248216	-0.261172
C131	C	1.165114	-0.251852	-0.178975
C132	C	1.665114	0.248148	0.321025
C133	C	1.165248	-0.251722	-0.089354
C134	C	1.665248	0.248278	0.410646
H135	H	1.258610	-0.450858	-0.294964
H136	H	1.758610	0.049142	0.205036
C137	C	1.057529	-0.443466	-0.495995
C138	C	1.557529	0.056534	0.004005
C139	C	1.103155	-0.412077	-0.547713
C140	C	1.603155	0.087923	-0.047713
C141	C	1.051704	-0.384747	-0.599349
C142	C	1.551704	0.115253	-0.099349
H143	H	1.022388	-0.422157	-0.465210
H144	H	1.522388	0.077843	0.034790
H145	H	1.026826	-0.467532	-0.526737
H146	H	1.526826	0.032468	-0.026737
H147	H	1.133844	-0.388014	-0.516974
H148	H	1.633844	0.111986	-0.016974
H149	H	1.138293	-0.433373	-0.578515
H150	H	1.638293	0.066627	-0.078515
H151	H	1.021001	-0.408813	-0.630091
H152	H	1.521001	0.091187	-0.130091
H153	H	1.016566	-0.363442	-0.568558
H154	H	1.516566	0.136558	-0.068558
H155	H	1.082654	-0.363451	-0.634450
H156	H	1.582654	0.136549	-0.134450
C157	C	1.006154	-0.808616	-0.547553
C158	C	1.506154	-0.308616	-0.047553
C159	C	1.051799	-0.839917	-0.599270
C160	C	1.551799	-0.339917	-0.099270
C161	C	1.000363	-0.867296	-0.650870
C162	C	1.500363	-0.367296	-0.150870
H163	H	0.975406	-0.784596	-0.578306
H164	H	1.475406	-0.284596	-0.078306
H165	H	0.971053	-0.829986	-0.516718
H166	H	1.471053	-0.329986	-0.016718
H167	H	1.086886	-0.818549	-0.630102
H168	H	1.586886	-0.318549	-0.130102
H169	H	1.082545	-0.863947	-0.568539
H170	H	1.582545	-0.363947	-0.068539
H171	H	0.965262	-0.888666	-0.620034
H172	H	1.465262	-0.388666	-0.120034
H173	H	0.969618	-0.843272	-0.681617
H174	H	1.469618	-0.343272	-0.181617
H175	H	1.031325	-0.888540	-0.685960
H176	H	1.531325	-0.388540	-0.185960
C177	C	1.272719	-0.557224	-0.280912
C178	C	1.772719	-0.057224	0.219088
C179	C	1.317858	-0.521608	-0.235777
C180	C	1.817858	-0.021608	0.264223
C181	C	1.369507	-0.548786	-0.184148
C182	C	1.869507	-0.048786	0.315852
H183	H	1.307923	-0.578490	-0.311695
H184	H	1.807923	-0.078490	0.188305
H185	H	1.241925	-0.578549	-0.245710
H186	H	1.741925	-0.078549	0.254290
H187	H	1.348650	-0.500292	-0.270975
H188	H	1.848650	-0.000292	0.229025
H189	H	1.282676	-0.500341	-0.204978
H190	H	1.782676	-0.000341	0.295022
H191	H	1.338713	-0.570110	-0.148946
H192	H	1.838713	-0.070110	0.351054
H193	H	1.404706	-0.570050	-0.214937
H194	H	1.904706	-0.070050	0.285063
H195	H	1.400135	-0.524625	-0.153513
H196	H	1.900135	-0.024625	0.346487
H197	H	1.258952	-1.052270	-0.295075
H198	H	1.758952	-0.552270	0.204925
H199	H	1.310357	-0.702021	-0.243497
H200	H	1.810357	-0.202021	0.256503
H201	H	1.310417	-0.801068	-0.243517
H202	H	1.810417	-0.301068	0.256483
H203	H	1.258901	-0.953205	-0.295051
H204	H	1.758901	-0.453205	0.204949
H205	H	1.019973	-0.702085	-0.533496
H206	H	1.519973	-0.202085	-0.033496
H207	H	1.071725	-1.052306	-0.482005
H208	H	1.571725	-0.552306	0.017995
H209	H	1.071681	-0.953256	-0.482001
H210	H	1.571681	-0.453256	0.017999
H211	H	1.071457	-0.549969	-0.481935
H212	H	1.571457	-0.049969	0.018065
