data_functionalizedCrystal
_audit_creation_method	'MofGen! by Chris Wilmer'
_symmetry_space_group_name_H-M	'P1'
_symmetry_Int_Tables_number	1
_symmetry_cell_setting	triclinic
loop_
_symmetry_equiv_pos_as_xyz
  x,y,z
_cell_length_a	6.817900
_cell_length_b	11.168121
_cell_length_c	16.255661
_cell_angle_alpha	93.883604
_cell_angle_beta	103.488922
_cell_angle_gamma	108.508496
loop_
_atom_site_label
_atom_site_type_symbol
_atom_site_fract_x
_atom_site_fract_y
_atom_site_fract_z
V1	V	-4.052428	-0.175725	-0.263878
O2	O	-4.013108	0.007395	-0.258848
O3	O	-4.029107	-0.347423	-0.262080
O4	O	-4.003662	-0.173482	-0.378961
O5	O	-4.038730	-0.167750	-0.141158
V6	V	-4.532854	-0.153767	-0.249199
O7	O	-4.320481	-0.223890	-0.296078
O8	O	-4.714999	-0.105601	-0.216999
O9	O	-4.332969	0.017931	-0.250997
O10	O	-4.689571	-0.336886	-0.254229
O11	O	-4.663950	-0.161741	-0.371919
O12	O	-4.358414	-0.156010	-0.134116
C13	C	-3.880221	-0.389265	-0.257919
C14	C	-3.942438	-0.529634	-0.257217
C15	C	-4.144141	-0.598340	-0.260917
C16	C	-4.208449	-0.743419	-0.260191
C17	C	-3.847762	-0.167385	-0.407012
C18	C	-3.889340	-0.166687	-0.501093
C19	C	-3.798677	-0.158357	-0.723911
C20	C	-3.970827	-0.265869	-0.793392
C21	C	-3.965533	-0.165380	-0.673341
C22	C	-3.867493	-0.056637	-0.771498
C23	C	-4.039115	-0.164111	-0.839725
C24	C	-4.137179	-0.272987	-0.741592
C25	C	-4.033769	-0.063661	-0.719683
C26	C	-4.206060	-0.171203	-0.789144
C27	C	-3.923139	-0.166112	-0.577492
C28	C	-4.081528	-0.163389	-0.935573
C29	C	-4.145198	0.059767	-0.255155
C30	C	-4.062220	0.200134	-0.255864
C31	C	-4.177657	-0.162111	-0.106061
C32	C	-4.115317	-0.162802	-0.011979
H33	H	-3.626149	-0.153065	-0.695430
O34	O	-3.792953	-0.587410	-0.252678
C35	C	-3.457396	-0.599634	-0.171568
C36	C	-3.626504	-0.534081	-0.176610
H37	H	-3.322803	-0.556563	-0.110063
H38	H	-3.388371	-0.584628	-0.229071
H39	H	-3.535919	-0.706321	-0.171813
H40	H	-3.548140	-0.427378	-0.176339
H41	H	-3.695517	-0.549191	-0.119110
O42	O	-3.939238	-0.367749	-0.831626
C43	C	-3.689447	-0.476251	-0.841544
C44	C	-3.724933	-0.360802	-0.798197
H45	H	-3.516202	-0.470687	-0.814521
H46	H	-3.723083	-0.475248	-0.913514
H47	H	-3.802859	-0.568345	-0.828644
H48	H	-3.611547	-0.268648	-0.811030
H49	H	-3.691371	-0.361918	-0.726240
O50	O	-4.272495	-0.382148	-0.725389
C51	C	-4.384933	-0.505257	-0.617987
C52	C	-4.231544	-0.381593	-0.636218
H53	H	-4.351909	-0.504837	-0.545893
H54	H	-4.358465	-0.591390	-0.649044
H55	H	-4.558108	-0.511054	-0.645537
H56	H	-4.058311	-0.375672	-0.608669
H57	H	-4.258199	-0.295520	-0.605178
H58	H	-4.378731	-0.176663	-0.817491
H59	H	-4.269220	-0.549758	-0.264628
O60	O	-4.414464	-0.813973	-0.263848
C61	C	-4.651949	-0.953021	-0.194304
C62	C	-4.418530	-0.873193	-0.190065
H63	H	-4.655318	-1.000899	-0.134649
H64	H	-4.721347	-1.029247	-0.253663
H65	H	-4.752013	-0.887929	-0.197715
H66	H	-4.318294	-0.938182	-0.186622
H67	H	-4.349302	-0.796954	-0.130715
H68	H	-4.059852	0.021833	-0.687571
O69	O	-3.856066	-0.729583	-0.252194
C70	C	-3.566041	-0.695332	-0.318865
C71	C	-3.799516	-0.775059	-0.323115
H72	H	-3.520263	-0.732051	-0.376206
H73	H	-3.454129	-0.703969	-0.257186
H74	H	-3.550935	-0.590878	-0.320082
H75	H	-3.814829	-0.879543	-0.321932
H76	H	-3.911316	-0.766313	-0.384788
H77	H	-3.753881	0.034772	-0.785104
