data_functionalizedCrystal
_audit_creation_method	'MofGen! by Chris Wilmer'
_symmetry_space_group_name_H-M	'P1'
_symmetry_Int_Tables_number	1
_symmetry_cell_setting	triclinic
loop_
_symmetry_equiv_pos_as_xyz
  x,y,z
_cell_length_a	10.540539
_cell_length_b	15.995350
_cell_length_c	9.616153
_cell_angle_alpha	89.999971
_cell_angle_beta	89.995174
_cell_angle_gamma	84.008933
loop_
_atom_site_label
_atom_site_type_symbol
_atom_site_fract_x
_atom_site_fract_y
_atom_site_fract_z
O1	O	1.684270	0.117994	-0.115573
O2	O	1.314705	0.129112	-0.115589
O3	O	1.509590	0.001726	-0.115579
O4	O	1.489385	0.245380	-0.115583
O5	O	1.509563	0.001729	0.115712
O6	O	1.314678	0.129115	0.115702
O7	O	1.684244	0.117997	0.115719
Zn8	Zn	1.499457	0.123556	0.152433
Zn9	Zn	1.499492	0.123553	-0.152303
O10	O	1.489359	0.245383	0.115709
C11	C	1.267400	0.128280	0.000055
C12	C	1.126486	0.125785	0.000048
C13	C	1.508741	-0.029472	0.000064
C14	C	1.506237	-0.122438	0.000056
C15	C	0.944373	0.030202	0.000589
C16	C	1.090956	0.032730	0.000054
C17	C	1.064213	0.170565	-0.132026
C18	C	0.917712	0.167390	-0.132122
C19	C	0.917167	0.169286	0.130899
C20	C	1.064138	0.170143	0.132630
C21	C	1.497244	-0.460239	0.000060
C22	C	1.358450	-0.413635	-0.000465
C23	C	1.360955	-0.316930	0.000057
C24	C	1.501705	-0.292652	0.000057
C25	C	1.570147	-0.333318	0.132137
C26	C	1.566661	-0.429975	0.132247
C27	C	1.569558	-0.430319	-0.130774
C28	C	1.569525	-0.333374	-0.132520
C29	C	1.504233	-0.197939	0.000060
C30	C	1.494719	-0.554952	0.000067
C31	C	1.731549	0.118829	0.000072
C32	C	1.872462	0.121324	0.000070
C33	C	1.490207	0.276581	0.000063
C34	C	1.492711	0.369547	0.000062
N35	N	1.499442	0.123558	0.360408
N36	N	1.499517	0.123544	-0.360278
C37	C	1.394879	0.191473	0.580772
C38	C	1.395104	0.191727	0.419605
C39	C	1.631892	0.143433	0.418863
C40	C	1.631321	0.143914	0.580081
C41	C	1.472879	0.035546	0.580319
C42	C	1.469825	0.036116	0.419092
H43	H	1.134043	-0.002504	0.094731
N44	N	1.285280	-0.440017	0.124297
H45	H	1.257588	-0.389116	0.183274
H46	H	1.207640	-0.466601	0.091944
N47	N	1.705490	-0.312220	-0.143084
H48	H	1.765454	-0.365762	-0.141907
H49	H	1.716859	-0.280927	-0.232699
H50	H	0.886024	0.139172	0.231011
H51	H	1.087430	0.237986	0.140604
H52	H	1.549186	-0.015013	0.618439
N53	N	0.853396	0.258317	0.132089
H54	H	0.795823	0.267575	0.048341
H55	H	0.801179	0.268008	0.219772
N56	N	1.509477	-0.457886	-0.263385
H57	H	1.434765	-0.490055	-0.239988
H58	H	1.478907	-0.406814	-0.320699
N59	N	1.500502	-0.454615	0.263011
H60	H	1.497576	-0.517522	0.264390
H61	H	1.548951	-0.437167	0.346949
N62	N	0.852947	0.256032	-0.140098
H63	H	0.757366	0.254661	-0.140227
H64	H	0.878508	0.289133	-0.057082
H65	H	1.307153	-0.288831	-0.094623
N66	N	1.705112	-0.471568	-0.131962
H67	H	1.704665	-0.534643	-0.135572
H68	H	1.751015	-0.452039	-0.216243
N69	N	1.121193	0.129347	-0.262222
H70	H	1.051726	0.106653	-0.318860
H71	H	1.162709	0.172125	-0.318977
H72	H	0.916282	-0.006559	0.095307
H73	H	1.519485	-0.306426	-0.230229
N74	N	1.347708	0.010499	0.634212
H75	H	1.363443	-0.043970	0.687608
H76	H	1.307062	0.055997	0.697636
N77	N	1.564215	-0.034061	0.365740
H78	H	1.542800	-0.089408	0.405160
H79	H	1.559872	-0.035935	0.260882
H80	H	0.889968	0.134291	-0.230848
N81	N	1.264696	0.175890	0.367242
H82	H	1.206545	0.168682	0.448890
H83	H	1.228213	0.225211	0.309057
H84	H	1.296116	0.179697	0.619579
H85	H	1.085627	0.238902	-0.136941
H86	H	1.306770	-0.289388	0.094893
N87	N	1.118968	0.126816	0.262065
H88	H	1.183924	0.078655	0.234949
H89	H	1.161411	0.168312	0.320641
H90	H	0.914680	-0.006405	-0.093600
H91	H	1.668560	-0.461614	0.138240
H92	H	1.302987	-0.432500	-0.095181
N93	N	1.146929	-0.014275	-0.125565
H94	H	1.076365	-0.036716	-0.180812
H95	H	1.192186	0.025065	-0.185654
N96	N	1.417130	0.277473	0.634344
H97	H	1.494691	0.272622	0.696641
H98	H	1.431431	0.315513	0.553261
N99	N	1.417379	0.278282	0.368647
H100	H	1.502319	0.293253	0.404119
H101	H	1.417491	0.278858	0.263624
H102	H	1.673552	-0.318574	0.137049
N103	N	1.507176	-0.296094	0.262339
H104	H	1.434326	-0.252900	0.236069
H105	H	1.473475	-0.342156	0.318954
N106	N	1.737513	0.080901	0.631746
H107	H	1.784496	0.052940	0.549789
H108	H	1.798681	0.110670	0.689966
N109	N	1.340723	0.016184	0.368586
H110	H	1.301580	0.063588	0.307932
H111	H	1.350837	-0.037694	0.313055
H112	H	1.654793	0.208115	0.617669
N113	N	1.737494	0.079689	0.368084
H114	H	1.700403	0.037213	0.306548
H115	H	1.801390	0.109244	0.313400
H116	H	1.655917	0.206909	0.378473
