data_functionalizedCrystal
_audit_creation_method	'MofGen! by Chris Wilmer'
_symmetry_space_group_name_H-M	'P1'
_symmetry_Int_Tables_number	1
_symmetry_cell_setting	triclinic
loop_
_symmetry_equiv_pos_as_xyz
  x,y,z
_cell_length_a	12.759394
_cell_length_b	14.908571
_cell_length_c	12.759387
_cell_angle_alpha	93.312560
_cell_angle_beta	90.031405
_cell_angle_gamma	86.711101
loop_
_atom_site_label
_atom_site_type_symbol
_atom_site_fract_x
_atom_site_fract_y
_atom_site_fract_z
Zn1	Zn	-0.511036	1.379261	0.686587
Zn2	Zn	-0.686747	1.379175	0.510899
Zn3	Zn	-0.500935	1.228396	0.500796
Zn4	Zn	-0.676520	1.228380	0.676415
O5	O	-0.593810	1.303803	0.593674
O6	O	-0.542852	1.505496	0.671766
O7	O	-0.662151	1.359145	0.362536
O8	O	-0.355257	1.248451	0.525471
O9	O	-0.671946	1.505433	0.542689
O10	O	-0.362678	1.359291	0.661970
O11	O	-0.525636	1.248368	0.355113
O12	O	-0.515719	1.102148	0.515608
O13	O	-0.654516	1.248424	0.824788
O14	O	-0.644721	1.102136	0.644634
O15	O	-0.532936	1.359276	0.832261
O16	O	-0.832408	1.359130	0.532826
O17	O	-0.824895	1.248341	0.654430
C18	C	-0.578015	1.069408	0.577922
C19	C	-0.571283	0.969133	0.571207
C20	C	-0.693171	0.780741	0.692766
C21	C	-0.686849	0.686524	0.686461
C22	C	-0.552313	0.686478	0.552299
C23	C	-0.558635	0.780696	0.558604
C24	C	-0.629068	0.827824	0.628838
C25	C	-0.635394	0.922043	0.635137
C26	C	-0.500853	0.921996	0.500981
C27	C	-0.494531	0.827779	0.494676
C28	C	-0.866773	1.303749	0.593645
C29	C	-0.983554	1.303808	0.593674
C30	C	-0.991331	1.419259	0.467154
C31	C	-1.050081	1.477008	0.403908
C32	C	-1.159806	1.477061	0.403940
C33	C	-1.210783	1.419361	0.467227
C34	C	-1.152032	1.361612	0.530473
C35	C	-1.042305	1.361563	0.530432
C36	C	-1.144256	1.246167	0.656997
C37	C	-1.034531	1.246108	0.656961
C38	C	-1.195233	1.188467	0.720284
C39	C	-1.136482	1.130712	0.783526
C40	C	-1.026750	1.130661	0.783491
C41	C	-0.975780	1.188359	0.720207
C42	C	-0.319781	1.303882	0.593728
C43	C	-0.203007	1.303916	0.593751
C44	C	-0.593711	1.303858	0.867712
C45	C	-0.593670	1.303881	0.984490
C46	C	-0.609667	1.539114	0.609489
C47	C	-0.616424	1.639389	0.616229
C48	C	-0.593835	1.303801	0.320707
C49	C	-0.593593	1.303952	0.203941
C50	C	-0.735754	1.419297	1.211648
C51	C	-0.806851	1.476956	1.160640
C52	C	-0.806889	1.476926	1.050917
C53	C	-0.735825	1.419229	0.992198
C54	C	-0.664728	1.361570	1.043206
C55	C	-0.664696	1.361608	1.152932
C56	C	-0.522573	1.246222	1.035498
C57	C	-0.522528	1.246255	1.145222
C58	C	-0.451509	1.188525	0.976779
C59	C	-0.380406	1.130869	1.027787
C60	C	-0.380370	1.130902	1.137518
C61	C	-0.451432	1.188596	1.196230
H62	H	-0.739047	0.648192	0.738519
H63	H	-0.437185	0.789394	0.437496
H64	H	-1.300128	1.419417	0.467257
H65	H	-0.750526	0.819114	0.749948
H66	H	-0.448657	0.960341	0.448925
H67	H	-0.864713	1.523928	1.208461
H68	H	-1.207642	1.524089	0.352445
H69	H	-0.735871	1.419202	0.902855
H70	H	-0.886436	1.188317	0.720165
O71	O	-1.185875	1.074544	0.844939
C72	C	-1.209286	0.921080	0.885466
C73	C	-1.153255	0.984590	0.815859
H74	H	-1.182950	0.848338	0.861965
H75	H	-1.188658	0.936801	0.971262
H76	H	-1.297798	0.931090	0.874654
H77	H	-1.064731	0.974616	0.826580
H78	H	-1.173968	0.968853	0.730089
H79	H	-1.284578	1.188518	0.720311
H80	H	-0.901986	1.419210	0.467107
O81	O	-0.311408	1.074918	1.187228
C82	C	-0.248301	1.023876	1.352844
C83	C	-0.326472	1.087311	1.296687
H84	H	-0.260439	1.033887	1.441351
H85	H	-0.261861	0.951100	1.326463
H86	H	-0.164672	1.039724	1.332284
H87	H	-0.410131	1.071544	1.317220
H88	H	-0.312821	1.160068	1.323072
H89	H	-0.494964	0.648090	0.495124
H90	H	-0.735721	1.419335	1.300992
H91	H	-0.978921	1.083638	0.834998
H92	H	-1.008567	1.523989	0.352382
O93	O	-0.875994	1.533015	1.001530
C94	C	-1.017047	1.647384	1.020739
C95	C	-0.938826	1.583927	1.076803
H96	H	-1.067882	1.688549	1.081571
H97	H	-0.972068	1.694617	0.972574
H98	H	-1.069152	1.605909	0.966549
H99	H	-0.886701	1.625329	1.131045
H100	H	-0.983871	1.536691	1.124901
O101	O	-0.451436	1.188350	0.870184
C102	C	-0.373441	1.125046	0.708500
C103	C	-0.373432	1.125138	0.829210
H104	H	-0.310367	1.073958	0.675336
H105	H	-0.453513	1.106240	0.677374
H106	H	-0.356405	1.194929	0.683428
H107	H	-0.390425	1.055276	0.854373
H108	H	-0.293354	1.143994	0.860268
H109	H	-0.692745	0.960414	0.692324
H110	H	-0.322555	1.083893	0.979970
H111	H	-0.451405	1.188632	1.285573
