data_functionalizedCrystal
_audit_creation_method	'MofGen! by Chris Wilmer'
_symmetry_space_group_name_H-M	'P1'
_symmetry_Int_Tables_number	1
_symmetry_cell_setting	triclinic
loop_
_symmetry_equiv_pos_as_xyz
  x,y,z
_cell_length_a	15.995350
_cell_length_b	15.995350
_cell_length_c	10.868271
_cell_angle_alpha	89.997096
_cell_angle_beta	89.999330
_cell_angle_gamma	83.492375
loop_
_atom_site_label
_atom_site_type_symbol
_atom_site_fract_x
_atom_site_fract_y
_atom_site_fract_z
O1	O	1.110985	0.107927	-0.102212
O2	O	0.867210	0.121255	-0.102236
O3	O	0.995761	-0.007297	-0.102222
O4	O	0.982434	0.236478	-0.102226
O5	O	0.995751	-0.007302	0.102422
O6	O	0.867199	0.121250	0.102408
O7	O	1.110975	0.107922	0.102433
Zn8	Zn	0.989085	0.114585	0.134912
Zn9	Zn	0.989099	0.114592	-0.134716
O10	O	0.982423	0.236474	0.102419
C11	C	0.836010	0.120701	0.000083
C12	C	0.743060	0.119049	0.000073
C13	C	0.405312	0.113117	0.000099
C14	C	0.452746	0.021565	0.000557
C15	C	0.549436	0.023217	0.000087
C16	C	0.572873	0.116060	0.000087
C17	C	0.531792	0.161219	-0.116771
C18	C	0.435156	0.158919	-0.116860
C19	C	0.434805	0.160805	0.115859
C20	C	0.531750	0.160783	0.117395
C21	C	0.667570	0.117727	0.000076
C22	C	0.310614	0.111452	0.000101
C23	C	0.995205	-0.038494	0.000098
C24	C	0.993553	-0.131444	0.000091
C25	C	0.987621	-0.469192	0.000094
C26	C	0.896069	-0.421758	-0.000374
C27	C	0.897721	-0.325068	0.000087
C28	C	0.990564	-0.301631	0.000092
C29	C	1.035714	-0.342712	0.116956
C30	C	1.033414	-0.439347	0.117054
C31	C	1.035318	-0.439700	-0.115665
C32	C	1.035296	-0.342755	-0.117210
C33	C	0.992231	-0.206934	0.000094
C34	C	0.985956	-0.563890	0.000100
C35	C	1.142175	0.108476	0.000111
C36	C	1.235125	0.110127	0.000113
C37	C	0.982980	0.267671	0.000096
C38	C	0.984631	0.360621	0.000095
N39	N	0.989082	0.114580	0.318926
N40	N	0.989109	0.114590	-0.318730
C41	C	0.989095	0.114590	0.569932
C42	C	0.989085	0.114587	0.430255
H43	H	0.560170	0.129857	-0.203739
H44	H	1.000482	-0.457651	0.204408
H45	H	0.433157	-0.014860	-0.082784
C46	C	0.407078	0.120364	0.235528
C47	C	0.348886	0.172679	0.326674
C48	C	0.321165	0.132227	0.446337
C49	C	0.351636	0.039460	0.474856
C50	C	0.409832	-0.012859	0.383708
C51	C	0.437553	0.027593	0.264044
H52	H	0.326326	0.241355	0.305565
H53	H	0.278085	0.170958	0.513811
H54	H	0.331116	0.009515	0.563438
H55	H	0.432392	-0.081535	0.404816
H56	H	0.480633	-0.011138	0.196571
H57	H	1.005389	-0.460237	-0.204241
C58	C	1.126764	-0.322006	-0.126738
C59	C	1.199852	-0.393498	-0.127113
C60	C	1.291324	-0.372751	-0.136626
C61	C	1.309707	-0.280513	-0.145763
C62	C	1.236616	-0.209015	-0.145389
C63	C	1.145145	-0.229762	-0.135876
H64	H	1.186246	-0.461783	-0.120348
H65	H	1.345431	-0.425678	-0.136903
H66	H	1.377420	-0.265154	-0.152806
H67	H	1.250223	-0.140730	-0.152153
H68	H	1.091038	-0.176835	-0.135598
H69	H	1.102818	-0.471461	-0.116448
H70	H	0.547115	0.228487	0.124453
C71	C	0.391578	0.249716	-0.124056
C72	C	0.407847	0.305715	-0.234799
C73	C	0.364271	0.396509	-0.242012
C74	C	0.304426	0.431303	-0.138482
C75	C	0.288154	0.375302	-0.027731
C76	C	0.331730	0.284509	-0.020518
H77	H	0.452150	0.279960	-0.311446
H78	H	0.376317	0.437963	-0.323998
H79	H	0.272169	0.498513	-0.143822
H80	H	0.243851	0.401058	0.048915
H81	H	0.319684	0.243054	0.061468
C82	C	1.124213	-0.482920	0.124253
C83	C	1.198582	-0.429751	0.129899
C84	C	1.289378	-0.473319	0.137112
C85	C	1.305806	-0.570055	0.138678
C86	C	1.231435	-0.623229	0.133031
C87	C	1.140639	-0.579661	0.125818
H88	H	1.186423	-0.358136	0.128740
H89	H	1.344433	-0.433955	0.141292
H90	H	1.373019	-0.602306	0.144017
H91	H	1.243594	-0.694844	0.134190
H92	H	1.085585	-0.619025	0.121638
H93	H	0.545917	0.229428	-0.121116
C94	C	0.568634	0.116246	0.234191
C95	C	0.635777	0.039628	0.223154
C96	C	0.672667	-0.004910	0.339948
C97	C	0.642415	0.027169	0.467780
C98	C	0.575269	0.103791	0.478822
C99	C	0.538378	0.148330	0.362028
H100	H	0.658174	0.015877	0.128521
H101	H	0.722373	-0.061631	0.331773
H102	H	0.669724	-0.005800	0.554237
H103	H	0.552871	0.127542	0.573455
H104	H	0.488672	0.205050	0.370203
C105	C	0.849758	-0.286659	-0.113067
C106	C	0.809682	-0.343960	-0.204484
C107	C	0.761708	-0.305555	-0.317634
C108	C	0.753809	-0.209849	-0.339367
C109	C	0.793885	-0.152542	-0.247948
C110	C	0.841860	-0.190947	-0.134798
H111	H	0.815529	-0.414813	-0.188397
H112	H	0.732040	-0.347978	-0.385308
H113	H	0.718295	-0.181419	-0.423128
H114	H	0.788039	-0.081690	-0.264034
H115	H	0.871528	-0.148524	-0.067123
C116	C	0.993338	-0.304385	0.234445
C117	C	0.917827	-0.235867	0.224588
C118	C	0.875445	-0.197542	0.342072
C119	C	0.908573	-0.227734	0.469414
C120	C	0.984088	-0.296256	0.479277
C121	C	1.026470	-0.334581	0.361792
H122	H	0.893300	-0.213513	0.130317
H123	H	0.819544	-0.146817	0.334771
H124	H	0.877199	-0.199364	0.556384
H125	H	1.008615	-0.318610	0.573547
H126	H	1.082371	-0.385305	0.369093
C127	C	0.846637	-0.446776	-0.113598
C128	C	0.888793	-0.510586	-0.207019
C129	C	0.839363	-0.535604	-0.320254
C130	C	0.747777	-0.496813	-0.340068
C131	C	0.705617	-0.432999	-0.246645
C132	C	0.755047	-0.407981	-0.133410
H133	H	0.956594	-0.539306	-0.192354
H134	H	0.870573	-0.582844	-0.389412
H135	H	0.711187	-0.515333	-0.423891
H136	H	0.637815	-0.404279	-0.261310
H137	H	0.723836	-0.360741	-0.064252
H138	H	1.002285	-0.315504	-0.203663
C139	C	0.846843	-0.448223	0.112201
C140	C	0.889411	-0.512660	0.204424
C141	C	0.840187	-0.539128	0.316999
C142	C	0.748395	-0.501159	0.337351
C143	C	0.705822	-0.436718	0.245126
C144	C	0.755046	-0.410250	0.132551
H145	H	0.957365	-0.540771	0.189360
H146	H	0.871702	-0.586832	0.385270
H147	H	0.711956	-0.520752	0.420686
H148	H	0.637868	-0.408607	0.260190
H149	H	0.723531	-0.362546	0.064279
H150	H	0.577861	-0.012280	0.083856
C151	C	0.849476	-0.287506	0.113524
C152	C	0.878864	-0.315291	0.243657
C153	C	0.830631	-0.277771	0.357138
C154	C	0.753011	-0.212466	0.340485
C155	C	0.723619	-0.184678	0.210346
C156	C	0.771852	-0.222197	0.096866
H157	H	0.936327	-0.363637	0.255989
H158	H	0.852390	-0.298342	0.453475
H159	H	0.717306	-0.184692	0.424490
H160	H	0.666156	-0.136332	0.198014
H161	H	0.750093	-0.201626	0.000529
H162	H	0.416852	0.125991	-0.204214
C163	C	0.427705	-0.027885	0.113756
C164	C	0.363879	0.014256	0.207168
C165	C	0.338827	-0.035197	0.320367
C166	C	0.377602	-0.126791	0.340154
C167	C	0.441433	-0.168937	0.246740
C168	C	0.466484	-0.119484	0.133541
H169	H	0.335172	0.082064	0.192523
H170	H	0.291576	-0.003997	0.389518
H171	H	0.359058	-0.163399	0.423951
H172	H	0.470140	-0.236746	0.261385
H173	H	0.513736	-0.150684	0.064389
H174	H	0.577299	-0.012516	-0.083827
H175	H	0.403043	0.228306	0.116649
H176	H	1.103923	-0.328586	0.121305
