data_functionalizedCrystal
_audit_creation_method	'MofGen! by Chris Wilmer'
_symmetry_space_group_name_H-M	'P1'
_symmetry_Int_Tables_number	1
_symmetry_cell_setting	triclinic
loop_
_symmetry_equiv_pos_as_xyz
  x,y,z
_cell_length_a	15.944551
_cell_length_b	15.944545
_cell_length_c	13.448316
_cell_angle_alpha	89.996024
_cell_angle_beta	90.001714
_cell_angle_gamma	96.502545
loop_
_atom_site_label
_atom_site_type_symbol
_atom_site_fract_x
_atom_site_fract_y
_atom_site_fract_z
O1	O	-0.108309	1.114530	-0.082617
O2	O	-0.121671	0.869980	-0.082631
O3	O	0.007285	0.998933	-0.082629
O4	O	-0.237265	0.985577	-0.082619
O5	O	0.007293	0.998917	0.082754
O6	O	-0.121663	0.869963	0.082752
O7	O	-0.108301	1.114514	0.082767
Cu8	Cu	-0.114981	0.992237	0.097861
Cu9	Cu	-0.114990	0.992256	-0.097725
O10	O	-0.237257	0.985560	0.082765
C11	C	-0.121113	0.838677	0.000059
C12	C	-0.119453	0.745431	0.000052
C13	C	-0.034559	0.474798	0.000059
C14	C	-0.075484	0.525372	0.081606
C15	C	-0.113532	0.409787	0.000069
C16	C	-0.075513	0.525369	-0.081449
C17	C	-0.116437	0.574701	0.000059
C18	C	-0.154436	0.459133	0.081684
C19	C	-0.154453	0.459126	-0.081445
C20	C	-0.195436	0.509667	0.000122
C21	C	-0.111856	0.314785	0.000076
C22	C	-0.118119	0.669700	0.000060
C23	C	-0.268555	0.986123	0.000075
C24	C	-0.361801	0.987785	0.000079
C25	C	-0.576656	1.071690	0.000069
C26	C	-0.637669	1.032719	0.081611
C27	C	-0.532527	0.990793	0.000071
C28	C	-0.637662	1.032716	-0.081445
C29	C	-0.697439	0.993703	0.000058
C30	C	-0.592311	0.951800	0.081679
C31	C	-0.592299	0.951808	-0.081449
C32	C	-0.653294	0.912779	0.000112
C33	C	-0.437524	0.989118	0.000079
C34	C	-0.792440	0.995372	0.000057
C35	C	0.038583	0.998370	0.000059
C36	C	0.131829	0.996708	0.000048
C37	C	-0.108859	1.145816	0.000075
C38	C	-0.110519	1.239062	0.000075
N39	N	-0.114974	0.992230	0.235425
N40	N	-0.114991	0.992270	-0.235289
C41	C	-0.057896	1.049348	0.287466
C42	C	-0.057895	1.049353	0.391570
C43	C	-0.114977	0.992244	0.443630
C44	C	-0.172058	0.935119	0.391581
C45	C	-0.172054	0.935111	0.287480
C46	C	-0.172064	0.935143	0.608561
C47	C	-0.172069	0.935152	0.712670
C48	C	-0.057905	1.049385	0.712651
C49	C	-0.057901	1.049377	0.608550
C50	C	-0.114983	0.992253	0.556508
H51	H	-0.042151	0.554293	-0.150387
O52	O	-0.537051	1.151851	0.000215
C53	C	-0.597806	1.209584	0.001141
H54	H	-0.659589	1.177526	0.032857
H55	H	-0.608711	1.231667	-0.077963
C56	C	-0.490101	1.325500	0.027209
C57	C	-0.565981	1.286127	0.066172
H58	H	-0.470469	1.372718	0.067319
H59	H	-0.449169	1.286605	0.026582
H60	H	-0.499199	1.343895	-0.038710
H61	H	-0.556880	1.267724	0.132084
H62	H	-0.606912	1.325022	0.066812
O63	O	-0.227630	0.879738	0.558050
C64	C	-0.310789	0.893384	0.583496
H65	H	-0.311239	0.960633	0.612102
H66	H	-0.335436	0.846834	0.643928
C67	C	-0.367172	0.797735	0.455882
C68	C	-0.367726	0.880333	0.491008
H69	H	-0.402295	0.789681	0.398833
H70	H	-0.311146	0.788538	0.438740
H71	H	-0.387709	0.758952	0.506250
H72	H	-0.347179	0.919113	0.440645
H73	H	-0.423749	0.889536	0.508139
O74	O	0.046589	0.456157	0.000321
C75	C	0.087937	0.490076	0.086446
H76	H	0.039171	0.499393	0.146242
H77	H	0.125132	0.553452	0.067839
C78	C	0.208632	0.417488	0.051440
C79	C	0.148736	0.428924	0.124886
H80	H	0.246139	0.379769	0.075151
H81	H	0.180777	0.394638	-0.006586
H82	H	0.239619	0.470306	0.035941
H83	H	0.117744	0.376108	0.140375
H84	H	0.176588	0.451763	0.182916
O85	O	-0.035618	0.559993	0.163745
C86	C	0.032673	0.618778	0.134476
H87	H	0.021244	0.641811	0.055909
H88	H	0.093427	0.587358	0.136035
C89	C	0.054679	0.666030	0.303028
C90	C	0.040638	0.694325	0.206534
H91	H	0.059595	0.712630	0.347478
H92	H	0.008672	0.626424	0.322748
H93	H	0.105306	0.639847	0.304313
H94	H	-0.009994	0.720498	0.205248
H95	H	0.086637	0.733938	0.186815
H96	H	-0.572318	0.917603	0.150691
H97	H	-0.686454	0.845571	0.000153
H98	H	-0.187780	0.430186	-0.150386
O99	O	-0.194121	0.424631	0.163997
C100	C	-0.192065	0.336464	0.163019
H101	H	-0.137339	0.320465	0.114680
H102	H	-0.253945	0.304437	0.131509
C103	C	-0.247373	0.324680	0.329185
C104	C	-0.180152	0.305031	0.269821
H105	H	-0.240028	0.305289	0.395065
H106	H	-0.248761	0.384080	0.329843
H107	H	-0.298933	0.297990	0.302915
H108	H	-0.128595	0.331729	0.296084
H109	H	-0.178755	0.245635	0.269170
O110	O	-0.002427	1.104929	0.441968
C111	C	0.047961	1.155326	0.373696
H112	H	0.013525	1.156257	0.299484
H113	H	0.110387	1.128069	0.362640
C114	C	0.107489	1.244799	0.505450
C115	C	0.065191	1.245948	0.414303
H116	H	0.118121	1.300698	0.530499
H117	H	0.073544	1.210844	0.551447
H118	H	0.159506	1.222081	0.496224
H119	H	0.013171	1.268656	0.423532
H120	H	0.099128	1.279909	0.368308
H121	H	-0.657772	1.066929	0.150552
O122	O	-0.002337	1.104842	0.763086
C123	C	0.080825	1.091182	0.737673
H124	H	0.080744	1.058797	0.662097
H125	H	0.106833	1.049385	0.796274
C126	C	0.136742	1.216245	0.825666
C127	C	0.136644	1.176476	0.732838
H128	H	0.171175	1.268857	0.822688
H129	H	0.080714	1.225447	0.842791
H130	H	0.158414	1.181406	0.874491
H131	H	0.114962	1.211310	0.684018
H132	H	0.192669	1.167282	0.715705
O133	O	-0.661607	1.073432	-0.163789
C134	C	-0.637343	1.031511	-0.249632
H135	H	-0.629712	0.963137	-0.230493
H136	H	-0.574826	1.064336	-0.278463
C137	C	-0.714967	1.117717	-0.353816
C138	C	-0.705602	1.033737	-0.330312
H139	H	-0.757069	1.119092	-0.403586
H140	H	-0.731312	1.145963	-0.295983
H141	H	-0.662865	1.145062	-0.377837
H142	H	-0.757700	1.006396	-0.306281
H143	H	-0.689267	1.005486	-0.388143
O144	O	-0.568421	0.911039	-0.163771
C145	C	-0.640115	0.884632	-0.221986
H146	H	-0.692390	0.925498	-0.204194
H147	H	-0.662903	0.815816	-0.204694
C148	C	-0.552827	0.843352	-0.354819
C149	C	-0.617030	0.893549	-0.332973
H150	H	-0.538588	0.848848	-0.423281
H151	H	-0.504526	0.861140	-0.315597
H152	H	-0.571826	0.786010	-0.340402
H153	H	-0.598027	0.950890	-0.347378
H154	H	-0.665328	0.875771	-0.372200
O155	O	-0.002377	1.104693	0.236812
C156	C	0.049485	1.059676	0.176661
H157	H	0.016040	0.993968	0.161052
H158	H	0.111541	1.053931	0.216829
C159	C	0.108564	1.187727	0.096953
C160	C	0.067483	1.107025	0.077774
H161	H	0.119670	1.216935	0.035956
H162	H	0.073626	1.218057	0.137480
H163	H	0.160272	1.182928	0.130428
H164	H	0.015772	1.111826	0.044311
H165	H	0.102413	1.076697	0.037239
O166	O	-0.227583	0.879597	0.237078
C167	C	-0.277954	0.829178	0.305347
H168	H	-0.278929	0.863621	0.379547
H169	H	-0.250640	0.766785	0.316436
C170	C	-0.367358	0.769557	0.173578
C171	C	-0.368562	0.811863	0.264709
H172	H	-0.423248	0.758873	0.148510
H173	H	-0.333421	0.803522	0.127582
H174	H	-0.344593	0.717568	0.182831
H175	H	-0.391317	0.863856	0.255453
H176	H	-0.402505	0.777906	0.310702
H177	H	-0.011424	1.095883	0.566162
H178	H	-0.263501	0.525159	0.000173
O179	O	-0.227392	0.879608	0.442261
C180	C	-0.182376	0.827785	0.502477
H181	H	-0.116668	0.861240	0.518070
H182	H	-0.176628	0.765704	0.462373
C183	C	-0.310429	0.768754	0.582211
C184	C	-0.229728	0.809848	0.601370
H185	H	-0.339639	0.757686	0.643211
H186	H	-0.340758	0.803666	0.541640
H187	H	-0.305628	0.717025	0.548789
H188	H	-0.234530	0.861581	0.634779
H189	H	-0.199401	0.774944	0.641948
H190	H	-0.218551	0.888647	0.755052
