data_functionalizedCrystal
_audit_creation_method	'MofGen! by Chris Wilmer'
_symmetry_space_group_name_H-M	'P1'
_symmetry_Int_Tables_number	1
_symmetry_cell_setting	triclinic
loop_
_symmetry_equiv_pos_as_xyz
  x,y,z
_cell_length_a	19.288864
_cell_length_b	17.699083
_cell_length_c	18.366186
_cell_angle_alpha	89.992864
_cell_angle_beta	89.977106
_cell_angle_gamma	83.209630
loop_
_atom_site_label
_atom_site_type_symbol
_atom_site_fract_x
_atom_site_fract_y
_atom_site_fract_z
O1	O	0.921465	0.094417	-0.060785
O2	O	1.254798	0.427751	0.272549
O3	O	1.588131	0.761084	0.605882
O4	O	0.719219	0.107154	-0.060735
O5	O	1.052552	0.440487	0.272598
O6	O	1.385886	0.773821	0.605932
O7	O	0.826056	-0.009412	-0.060755
O8	O	1.159389	0.323922	0.272579
O9	O	1.492722	0.657255	0.605912
O10	O	0.814628	0.210983	-0.060765
O11	O	1.147961	0.544316	0.272569
O12	O	1.481294	0.877649	0.605902
O13	O	0.826038	-0.009417	0.060345
O14	O	1.159371	0.323916	0.393678
O15	O	1.492704	0.657249	0.727011
O16	O	0.719201	0.107148	0.060364
O17	O	1.052534	0.440482	0.393698
O18	O	1.385867	0.773815	0.727031
O19	O	0.921446	0.094412	0.060315
O20	O	1.254780	0.427745	0.393648
O21	O	1.588113	0.761078	0.726981
Zn22	Zn	0.820321	0.100779	0.079567
Zn23	Zn	1.153654	0.434112	0.412900
Zn24	Zn	1.486987	0.767446	0.746233
Zn25	Zn	0.820345	0.100786	-0.079987
Zn26	Zn	1.153678	0.434120	0.253346
Zn27	Zn	1.487011	0.767453	0.586680
O28	O	0.814610	0.210977	0.060335
O29	O	1.147943	0.544310	0.393668
O30	O	1.481276	0.877644	0.727001
C31	C	0.693333	0.106741	-0.000179
C32	C	1.026666	0.440075	0.333154
C33	C	1.360000	0.773408	0.666488
C34	C	0.616228	0.105511	-0.000160
C35	C	0.949561	0.438844	0.333174
C36	C	1.282895	0.772178	0.666507
C37	C	0.571613	0.173906	-0.000174
C38	C	0.904946	0.507240	0.333159
C39	C	1.238279	0.840573	0.666492
C40	C	0.499164	0.172751	-0.000182
C41	C	0.832497	0.506084	0.333151
C42	C	1.165831	0.839417	0.666484
C43	C	0.471334	0.103196	-0.000190
C44	C	0.804668	0.436529	0.333143
C45	C	1.138001	0.769862	0.666476
C46	C	0.515959	0.034791	-0.000172
C47	C	0.849293	0.368124	0.333162
C48	C	1.182626	0.701458	0.666495
C49	C	0.588406	0.035949	-0.000156
C50	C	0.921740	0.369282	0.333177
C51	C	1.255073	0.702616	0.666510
C52	C	0.363014	0.048520	-0.042639
C53	C	0.696347	0.381853	0.290695
C54	C	1.029681	0.715186	0.624028
C55	C	0.290568	0.047365	-0.042659
C56	C	0.623901	0.380698	0.290675
C57	C	0.957235	0.714031	0.624008
C58	C	0.247884	0.099622	-0.000234
C59	C	0.581218	0.432955	0.333099
C60	C	0.914551	0.766289	0.666432
C61	C	0.277654	0.153047	0.042200
C62	C	0.610987	0.486380	0.375534
C63	C	0.944321	0.819713	0.708867
C64	C	0.350101	0.154205	0.042216
C65	C	0.683434	0.487538	0.375549
C66	C	1.016768	0.820871	0.708882
C67	C	0.392779	0.101932	-0.000206
C68	C	0.726112	0.435266	0.333127
C69	C	1.059445	0.768599	0.666460
C70	C	0.124712	0.166769	-0.000256
C71	C	0.458045	0.500102	0.333077
C72	C	0.791378	0.833435	0.666410
C73	C	0.052262	0.165610	-0.000260
C74	C	0.385596	0.498943	0.333073
C75	C	0.718929	0.832277	0.666407
C76	C	0.069059	0.027649	-0.000257
C77	C	0.402393	0.360982	0.333077
C78	C	0.735726	0.694315	0.666410
C79	C	0.141507	0.028809	-0.000246
C80	C	0.474840	0.362143	0.333087
C81	C	0.808174	0.695476	0.666421
C82	C	0.169329	0.098371	-0.000249
C83	C	0.502662	0.431705	0.333084
C84	C	0.835995	0.765038	0.666417
C85	C	0.825637	-0.037611	-0.000205
C86	C	1.158970	0.295722	0.333128
C87	C	1.492304	0.629056	0.666462
C88	C	0.824409	-0.121627	-0.000204
C89	C	1.157742	0.211706	0.333129
C90	C	1.491075	0.545039	0.666462
C91	C	0.887120	-0.170336	-0.000219
C92	C	1.220453	0.162997	0.333115
C93	C	1.553786	0.496330	0.666448
C94	C	0.885961	-0.249278	-0.000225
C95	C	1.219295	0.084055	0.333109
C96	C	1.552628	0.417389	0.666442
C97	C	0.822091	-0.279509	-0.000211
C98	C	1.155424	0.053824	0.333122
C99	C	1.488758	0.387158	0.666455
C100	C	0.759375	-0.230794	-0.000199
C101	C	1.092709	0.102540	0.333134
C102	C	1.426042	0.435873	0.666467
C103	C	0.760535	-0.151854	-0.000198
C104	C	1.093868	0.181480	0.333135
C105	C	1.427201	0.514813	0.666468
C106	C	0.754699	-0.549150	-0.000204
C107	C	1.088033	-0.215817	0.333129
C108	C	1.421366	0.117516	0.666463
C109	C	0.753545	-0.628097	-0.000203
C110	C	1.086878	-0.294763	0.333131
C111	C	1.420212	0.038570	0.666464
C112	C	0.880126	-0.646575	-0.000230
C113	C	1.213459	-0.313241	0.333103
C114	C	1.546793	0.020092	0.666436
C115	C	0.881285	-0.567635	-0.000230
C116	C	1.214618	-0.234301	0.333104
C117	C	1.547952	0.099032	0.666437
C118	C	0.818570	-0.518926	-0.000221
C119	C	1.151903	-0.185593	0.333112
C120	C	1.485236	0.147740	0.666445
C121	C	0.819827	-0.433329	-0.000216
C122	C	1.153160	-0.099995	0.333117
C123	C	1.486493	0.233338	0.666451
C124	C	0.820834	-0.365105	-0.000211
C125	C	1.154167	-0.031772	0.333122
C126	C	1.487500	0.301562	0.666455
C127	C	0.947332	0.094824	-0.000243
C128	C	1.280666	0.428158	0.333090
C129	C	1.613999	0.761491	0.666424
C130	C	1.024437	0.096054	-0.000267
C131	C	1.357771	0.429388	0.333067
C132	C	1.691104	0.762721	0.666400
C133	C	0.815028	0.239176	-0.000217
C134	C	1.148362	0.572510	0.333116
C135	C	1.481695	0.905843	0.666450
C136	C	0.816257	0.323193	-0.000222
C137	C	1.149590	0.656526	0.333111
C138	C	1.482923	0.989859	0.666444
N139	N	0.820310	0.100773	0.188458
N140	N	1.153643	0.434107	0.521791
N141	N	1.486976	0.767440	0.855125
N142	N	0.820361	0.100786	-0.188878
N143	N	1.153695	0.434119	0.144455
N144	N	1.487028	0.767453	0.477789
C145	C	0.867632	0.049183	0.226550
C146	C	1.200966	0.382517	0.559883
C147	C	1.534299	0.715850	0.893216
C148	C	0.867637	0.049180	0.302777
C149	C	1.200970	0.382513	0.636111
C150	C	1.534303	0.715847	0.969444
C151	C	0.820325	0.100780	0.340911
C152	C	1.153658	0.434113	0.674244
C153	C	1.486992	0.767446	1.007577
C154	C	0.772993	0.152373	0.302810
C155	C	1.106327	0.485707	0.636143
C156	C	1.439660	0.819040	0.969476
C157	C	0.772986	0.152370	0.226583
C158	C	1.106319	0.485704	0.559917
C159	C	1.439652	0.819037	0.893250
C160	C	0.811108	0.169742	0.461669
C161	C	1.144442	0.503075	0.795002
C162	C	1.477775	0.836408	1.128336
C163	C	0.811121	0.169746	0.537894
C164	C	1.144454	0.503079	0.871227
C165	C	1.477788	0.836412	1.204561
C166	C	0.820345	0.100789	0.576018
C167	C	1.153678	0.434122	0.909351
C168	C	1.487011	0.767456	1.242685
C169	C	0.829571	0.031825	0.537908
C170	C	1.162904	0.365159	0.871241
C171	C	1.496237	0.698492	1.204574
C172	C	0.829563	0.031822	0.461681
C173	C	1.162896	0.365156	0.795015
C174	C	1.496230	0.698489	1.128348
C175	C	0.820328	0.100788	0.423565
C176	C	1.153661	0.434122	0.756899
C177	C	1.486994	0.767455	1.090232
C178	C	0.867675	0.049191	0.696765
C179	C	1.201008	0.382524	1.030098
C180	C	1.534341	0.715858	1.363431
C181	C	0.867674	0.049187	0.772994
C182	C	1.201008	0.382520	1.106327
C183	C	1.534341	0.715853	1.439661
C184	C	0.773034	0.152387	0.773025
C185	C	1.106368	0.485720	1.106358
C186	C	1.439701	0.819054	1.439692
C187	C	0.773031	0.152385	0.696797
C188	C	1.106365	0.485718	1.030130
C189	C	1.439698	0.819051	1.363464
C190	C	0.820355	0.100788	0.658672
C191	C	1.153689	0.434121	0.992005
C192	C	1.487022	0.767454	1.325338
H193	H	0.594260	0.230549	-0.000178
H194	H	0.927593	0.563883	0.333155
H195	H	1.260927	0.897216	0.666488
H196	H	0.906174	0.007168	0.333797
H197	H	1.239507	0.340501	0.667131
H198	H	1.572840	0.673834	1.000464
H199	H	0.933295	-0.543025	-0.000237
H200	H	1.266628	-0.209692	0.333096
H201	H	1.599961	0.123641	0.666430
H202	H	0.734500	0.194397	0.665781
H203	H	1.067833	0.527730	0.999114
H204	H	1.401166	0.861064	1.332448
N205	N	0.956011	-0.137737	-0.000228
N206	N	1.289344	0.195596	0.333105
N207	N	1.622677	0.528930	0.666438
H208	H	0.959323	-0.105388	-0.045118
H209	H	1.292656	0.227945	0.288215
H210	H	1.625989	0.561278	0.621549
H211	H	0.959262	-0.105443	0.044695
H212	H	1.292595	0.227891	0.378028
H213	H	1.625929	0.561224	0.711362
H214	H	0.931192	-0.686243	-0.000241
H215	H	1.264525	-0.352910	0.333092
H216	H	1.597859	-0.019576	0.666426
H217	H	0.462831	0.228448	-0.000192
H218	H	0.796165	0.561781	0.333141
H219	H	1.129498	0.895115	0.666475
H220	H	0.709469	-0.112195	-0.000187
H221	H	1.042802	0.221139	0.333147
H222	H	1.376135	0.554472	0.666480
N223	N	0.801167	0.244123	0.578996
N224	N	1.134500	0.577456	0.912329
N225	N	1.467833	0.910789	1.245663
H226	H	0.795310	0.287806	0.543280
H227	H	1.128644	0.621139	0.876613
H228	H	1.461977	0.954472	1.209946
H229	H	0.758179	0.245816	0.610643
H230	H	1.091513	0.579149	0.943977
H231	H	1.424846	0.912482	1.277310
H232	H	0.707371	-0.255414	-0.000193
H233	H	1.040705	0.077919	0.333140
H234	H	1.374038	0.411253	0.666474
H235	H	0.937027	-0.288934	-0.000235
H236	H	1.270360	0.044399	0.333098
H237	H	1.603693	0.377732	0.666432
H238	H	0.015936	0.221308	-0.000268
H239	H	0.349270	0.554642	0.333066
H240	H	0.682603	0.887975	0.666399
H241	H	0.803585	0.225898	0.430635
H242	H	1.136919	0.559231	0.763968
H243	H	1.470252	0.892565	1.097302
N244	N	0.721960	0.208024	0.343934
N245	N	1.055293	0.541358	0.677267
N246	N	1.388626	0.874691	1.010600
H247	H	0.729146	0.200200	0.398004
H248	H	1.062479	0.533533	0.731337
H249	H	1.395813	0.866866	1.064670
H250	H	0.729885	0.261696	0.330596
H251	H	1.063218	0.595029	0.663929
H252	H	1.396552	0.928363	0.997262
H253	H	0.734449	0.194382	0.195569
H254	H	1.067782	0.527715	0.528902
H255	H	1.401116	0.861049	0.862235
H256	H	0.046401	-0.028984	-0.000308
H257	H	0.379734	0.304349	0.333025
H258	H	0.713068	0.637682	0.666358
H259	H	0.374336	0.197703	0.076770
H260	H	0.707670	0.531036	0.410103
H261	H	1.041003	0.864369	0.743437
N262	N	0.684654	-0.660705	-0.000184
N263	N	1.017987	-0.327372	0.333149
N264	N	1.351320	0.005961	0.666483
H265	H	0.645099	-0.617871	-0.000179
H266	H	0.978432	-0.284538	0.333154
H267	H	1.311766	0.048796	0.666488
H268	H	0.681426	-0.693055	-0.045074
H269	H	1.014760	-0.359722	0.288259
H270	H	1.348093	-0.026388	0.621593
N271	N	0.918670	-0.006467	0.185428
N272	N	1.252003	0.326866	0.518762
N273	N	1.585337	0.660199	0.852095
H274	H	0.948649	-0.039151	0.221131
H275	H	1.281982	0.294182	0.554464
H276	H	1.615316	0.627516	0.887798
H277	H	0.892135	-0.039858	0.153823
H278	H	1.225469	0.293475	0.487156
H279	H	1.558802	0.626809	0.820490
N280	N	0.231628	0.209420	0.087958
N281	N	0.564961	0.542753	0.421292
N282	N	0.898294	0.876086	0.754625
H283	H	0.181216	0.200580	0.081514
H284	H	0.514549	0.533913	0.414847
H285	H	0.847883	0.867247	0.748181
H286	H	0.245125	0.202545	0.140881
H287	H	0.578459	0.535879	0.474214
H288	H	0.911792	0.869212	0.807547
H289	H	0.177834	-0.026886	-0.000238
H290	H	0.511167	0.306448	0.333095
H291	H	0.844501	0.639781	0.666429
N292	N	0.154727	0.241791	-0.000256
N293	N	0.488060	0.575125	0.333077
N294	N	0.821393	0.908458	0.666410
H295	H	0.115466	0.284946	-0.000261
H296	H	0.448799	0.618279	0.333073
H297	H	0.782133	0.951613	0.666406
H298	H	0.184397	0.245273	0.044641
H299	H	0.517730	0.578607	0.377974
H300	H	0.851064	0.911940	0.711307
H301	H	0.266335	0.003866	-0.077214
H302	H	0.599669	0.337199	0.256119
H303	H	0.933002	0.670533	0.589452
N304	N	0.687060	-0.496621	-0.000192
N305	N	1.020393	-0.163288	0.333141
N306	N	1.353726	0.170046	0.666475
H307	H	0.646425	-0.527753	-0.000180
H308	H	0.979758	-0.194420	0.333154
H309	H	1.313091	0.138913	0.666487
H310	H	0.684776	-0.463470	0.044701
H311	H	1.018109	-0.130137	0.378035
H312	H	1.351442	0.203197	0.711368
H313	H	0.837073	-0.024330	0.430655
H314	H	1.170406	0.309003	0.763988
H315	H	1.503740	0.642336	1.097322
N316	N	0.918689	-0.006472	0.655625
N317	N	1.252022	0.326861	0.988959
N318	N	1.585356	0.660194	1.322292
H319	H	0.949391	0.022355	0.623973
H320	H	1.282724	0.355689	0.957306
H321	H	1.616058	0.689022	1.290640
H322	H	0.948620	-0.039158	0.691363
H323	H	1.281953	0.294175	1.024696
H324	H	1.615286	0.627509	1.358029
N325	N	0.485946	-0.040228	-0.000188
N326	N	0.819279	0.293105	0.333145
N327	N	1.152612	0.626438	0.666479
H328	H	0.525206	-0.083383	-0.000177
H329	H	0.858539	0.249950	0.333157
H330	H	1.191873	0.583284	0.666490
H331	H	0.456225	-0.043716	0.044697
H332	H	0.789558	0.289617	0.378031
H333	H	1.122892	0.622951	0.711364
H334	H	0.837081	-0.024326	0.568947
H335	H	1.170414	0.309008	0.902280
H336	H	1.503748	0.642341	1.235613
H337	H	0.624733	-0.019749	-0.000145
H338	H	0.958066	0.313585	0.333188
H339	H	1.291400	0.646918	0.666522
N340	N	0.409049	-0.007849	-0.088397
N341	N	0.742382	0.325484	0.244937
N342	N	1.075716	0.658817	0.578270
H343	H	0.379198	-0.041863	-0.115285
H344	H	0.712532	0.291470	0.218048
H345	H	1.045865	0.624804	0.551382
H346	H	0.435737	0.020485	-0.124629
H347	H	0.769070	0.353819	0.208704
H348	H	1.102404	0.687152	0.542038
N349	N	0.918729	-0.006447	0.814083
N350	N	1.252063	0.326886	1.147416
N351	N	1.585396	0.660220	1.480749
H352	H	0.948711	-0.039125	0.778360
H353	H	1.282045	0.294209	1.111694
H354	H	1.615378	0.627542	1.445027
H355	H	0.949376	0.022467	0.845681
H356	H	1.282709	0.355800	1.179015
H357	H	1.616043	0.689134	1.512348
N358	N	0.721998	0.208037	0.814143
N359	N	1.055332	0.541370	1.147476
N360	N	1.388665	0.874703	1.480810
H361	H	0.729182	0.200210	0.868213
H362	H	1.062515	0.533543	1.201546
H363	H	1.395848	0.866876	1.534880
H364	H	0.729925	0.261709	0.800808
H365	H	1.063259	0.595042	1.134141
H366	H	1.396592	0.928375	1.467474
