data_functionalizedCrystal
_audit_creation_method	'MofGen! by Chris Wilmer'
_symmetry_space_group_name_H-M	'P1'
_symmetry_Int_Tables_number	1
_symmetry_cell_setting	triclinic
loop_
_symmetry_equiv_pos_as_xyz
  x,y,z
_cell_length_a	10.723023
_cell_length_b	15.944551
_cell_length_c	9.198806
_cell_angle_alpha	89.995864
_cell_angle_beta	89.996191
_cell_angle_gamma	83.983143
loop_
_atom_site_label
_atom_site_type_symbol
_atom_site_fract_x
_atom_site_fract_y
_atom_site_fract_z
O1	O	1.655700	0.117805	-0.120892
O2	O	1.292405	0.129082	-0.120896
O3	O	1.483973	0.001226	-0.120881
O4	O	1.464132	0.245662	-0.120907
O5	O	1.483958	0.001225	0.120904
O6	O	1.292390	0.129082	0.120889
O7	O	1.655685	0.117805	0.120893
Cu8	Cu	1.474036	0.123443	0.142968
Cu9	Cu	1.474054	0.123444	-0.142971
O10	O	1.464117	0.245661	0.120878
C11	C	1.245908	0.128262	-0.000004
C12	C	1.107385	0.125807	-0.000005
C13	C	1.483142	-0.030073	0.000012
C14	C	1.480673	-0.123333	0.000013
C15	C	0.902455	0.122175	0.125242
C16	C	1.045626	0.124712	0.125246
C17	C	1.356027	-0.338903	-0.000009
C18	C	1.413901	-0.399590	0.119207
C19	C	1.476205	-0.294085	0.000002
C20	C	1.413944	-0.399573	-0.119174
C21	C	1.471881	-0.459022	-0.000016
C22	C	1.534112	-0.353543	0.119315
C23	C	1.534138	-0.353519	-0.119173
C24	C	1.592100	-0.414188	0.000072
C25	C	1.478693	-0.199068	0.000013
C26	C	1.469403	-0.554038	-0.000016
C27	C	1.702182	0.118625	-0.000002
C28	C	1.840705	0.121080	-0.000011
C29	C	1.464948	0.276960	-0.000018
C30	C	1.467417	0.370220	-0.000028
N31	N	1.474032	0.123442	0.344082
N32	N	1.474067	0.123438	-0.344085
C33	C	1.554469	0.069522	0.416285
C34	C	1.554489	0.069519	0.583698
H35	H	1.098730	0.125649	0.232479
N36	N	1.037060	0.124565	-0.142060
H37	H	1.097952	0.125644	-0.225644
H38	H	0.993165	0.071627	-0.147717
N39	N	1.601421	-0.326469	-0.252682
H40	H	1.542797	-0.285881	-0.311366
H41	H	1.676943	-0.297860	-0.222200
H42	H	1.623359	0.023359	0.645789
N43	N	1.645684	0.008367	0.334035
H44	H	1.631078	-0.051304	0.360471
H45	H	1.632709	0.017100	0.226126
N46	N	0.911068	0.122317	-0.142056
H47	H	0.850190	0.121237	-0.225644
H48	H	0.954968	0.175254	-0.147727
N49	N	1.223896	-0.295539	0.000129
H50	H	1.178656	-0.312176	0.090266
H51	H	1.226593	-0.232415	-0.000850
N52	N	1.346579	-0.426606	0.252723
H53	H	1.257419	-0.398953	0.252640
H54	H	1.346217	-0.489921	0.252151
H55	H	1.405177	0.169600	0.406205
H56	H	1.405203	0.169607	0.593833
H57	H	0.849327	0.121238	0.232472
H58	H	1.691940	-0.446775	0.000140
N59	N	1.601384	-0.326689	0.252966
H60	H	1.602600	-0.263438	0.252170
H61	H	1.556290	-0.343892	0.342824
N62	N	1.346602	-0.426575	-0.252669
H63	H	1.257444	-0.398920	-0.252557
H64	H	1.391192	-0.409007	-0.342639
