data_functionalizedCrystal
_audit_creation_method	'MofGen! by Chris Wilmer'
_symmetry_space_group_name_H-M	'P1'
_symmetry_Int_Tables_number	1
_symmetry_cell_setting	triclinic
loop_
_symmetry_equiv_pos_as_xyz
  x,y,z
_cell_length_a	16.974885
_cell_length_b	16.992695
_cell_length_c	17.766277
_cell_angle_alpha	89.993690
_cell_angle_beta	93.642662
_cell_angle_gamma	87.023153
loop_
_atom_site_label
_atom_site_type_symbol
_atom_site_fract_x
_atom_site_fract_y
_atom_site_fract_z
O1	O	1.055447	0.099901	0.001639
O2	O	0.826049	0.112636	-0.012324
O3	O	0.939828	-0.007873	-0.005392
O4	O	0.941668	0.220410	-0.005292
O5	O	0.939807	-0.007880	0.119795
O6	O	0.826027	0.112629	0.112863
O7	O	1.055425	0.099895	0.126826
Cu8	Cu	0.940724	0.106261	0.131275
Cu9	Cu	0.940750	0.106269	-0.016773
O10	O	0.941646	0.220404	0.119895
C11	C	0.796550	0.112149	0.048475
C12	C	0.708683	0.110700	0.043127
C13	C	0.214090	0.102515	0.005647
C14	C	0.296650	0.103877	0.010682
C15	C	0.337910	0.104560	0.081440
C16	C	0.296606	0.103874	0.147167
C17	C	0.214047	0.102506	0.142131
C18	C	0.584821	0.108645	0.103818
C19	C	0.667385	0.110015	0.108849
C20	C	0.667423	0.110017	-0.027636
C21	C	0.584863	0.108654	-0.032666
C22	C	0.543566	0.107963	0.033061
N23	N	0.422299	0.105955	0.086588
N24	N	0.459179	0.106563	0.027912
C25	C	0.937451	-0.037086	0.057057
C26	C	0.930392	-0.124123	0.056627
C27	C	0.998506	-0.174439	0.060774
C28	C	0.991868	-0.256218	0.060363
C29	C	0.917116	-0.287680	0.055810
C30	C	0.848996	-0.237357	0.051661
C31	C	0.855635	-0.155580	0.052067
C32	C	0.889601	-0.531247	0.054125
C33	C	0.882968	-0.613031	0.053722
C34	C	1.025841	-0.631886	0.062422
C35	C	1.032473	-0.550106	0.062832
C36	C	0.964353	-0.499791	0.058679
N37	N	0.910329	-0.371271	0.055392
N38	N	0.971141	-0.416201	0.059092
C39	C	1.084924	0.100381	0.066026
C40	C	1.172791	0.101831	0.071369
C41	C	0.944023	0.249617	0.057444
C42	C	0.951082	0.336653	0.057869
N43	N	0.940712	0.106256	0.235405
N44	N	0.940768	0.106268	-0.120902
C45	C	0.991112	0.052921	0.277862
C46	C	0.991117	0.052917	0.356664
C47	C	0.940729	0.106262	0.393007
C48	C	0.890319	0.159601	0.350539
C49	C	0.890310	0.159598	0.271738
C50	C	0.934882	0.177680	0.517485
C51	C	0.934896	0.177684	0.596285
C52	C	0.940751	0.106272	0.636054
C53	C	0.946608	0.034852	0.597015
C54	C	0.946599	0.034849	0.518215
C55	C	0.940732	0.106271	0.478452
C56	C	0.991159	0.052928	0.763958
C57	C	0.991157	0.052923	0.842761
C58	C	0.890363	0.159615	0.836635
C59	C	0.890360	0.159612	0.757833
C60	C	0.940762	0.106270	0.721499
H61	H	0.180501	0.101964	-0.051972
H62	H	1.093344	-0.524496	0.066539
H63	H	0.330272	0.104429	-0.042836
H64	H	1.032151	0.009484	0.248282
C65	C	0.928441	0.256244	0.473746
N66	N	0.923590	0.315416	0.440803
H67	H	1.081299	-0.672861	0.065802
C68	C	0.834976	0.218343	0.711131
N69	N	0.793276	0.262599	0.675957
C70	C	0.539484	0.107890	-0.110505
N71	N	0.505305	0.107312	-0.169135
H72	H	0.788131	-0.262980	0.047950
H73	H	1.032160	0.009483	0.391239
C74	C	0.834888	0.218278	0.390517
N75	N	0.793133	0.262472	0.420628
C76	C	0.341992	0.104658	0.225001
N77	N	0.376175	0.105265	0.283628
C78	C	0.834900	0.218308	0.225036
N79	N	0.793177	0.262542	0.189859
H80	H	1.059378	-0.148830	0.064486
H81	H	0.701056	0.110578	-0.081147
C82	C	0.539404	0.107910	0.176120
N83	N	0.505192	0.107363	0.230582
H84	H	1.047334	-0.297183	0.063741
H85	H	0.700976	0.110577	0.166471
C86	C	0.168619	0.101757	0.214430
N87	N	0.134404	0.101191	0.268889
C88	C	0.800731	-0.647636	0.048708
N89	N	0.738793	-0.673701	0.044931
C90	C	0.953032	-0.043711	0.475274
N91	N	0.957872	-0.102883	0.442932
C92	C	0.814667	-0.475911	0.049552
N93	N	0.758223	-0.434228	0.046106
C94	C	0.780703	-0.100232	0.047507
N95	N	0.724263	-0.058545	0.044070
H96	H	1.032196	0.009491	0.734374
H97	H	1.032197	0.009487	0.877331
C98	C	0.953047	-0.043708	0.640756
N99	N	0.957897	-0.102877	0.673705
C100	C	0.834936	0.218296	0.876607
N101	N	0.793187	0.262496	0.906717
H102	H	0.930132	0.235837	0.628064
