data_functionalizedCrystal
_audit_creation_method	'MofGen! by Chris Wilmer'
_symmetry_space_group_name_H-M	'P1'
_symmetry_Int_Tables_number	1
_symmetry_cell_setting	triclinic
loop_
_symmetry_equiv_pos_as_xyz
  x,y,z
_cell_length_a	19.077068
_cell_length_b	12.759401
_cell_length_c	12.759393
_cell_angle_alpha	89.981504
_cell_angle_beta	87.738768
_cell_angle_gamma	87.672919
loop_
_atom_site_label
_atom_site_type_symbol
_atom_site_fract_x
_atom_site_fract_y
_atom_site_fract_z
Zn1	Zn	-0.280156	-1.589361	0.610733
Zn2	Zn	-0.397871	-1.582157	0.442092
Zn3	Zn	-0.280192	-1.413661	0.435075
Zn4	Zn	-0.397817	-1.406557	0.617730
O5	O	-0.339009	-1.497934	0.526408
O6	O	-0.295778	-1.735426	0.588371
O7	O	-0.382299	-1.559764	0.294142
O8	O	-0.181697	-1.442956	0.452511
O9	O	-0.382263	-1.730133	0.464471
O10	O	-0.181670	-1.572043	0.581567
O11	O	-0.295841	-1.435971	0.288987
O12	O	-0.295788	-1.265698	0.459296
O13	O	-0.382171	-1.430848	0.763821
O14	O	-0.382207	-1.260479	0.593492
O15	O	-0.295726	-1.565154	0.758680
O16	O	-0.496355	-1.552875	0.471256
O17	O	-0.496315	-1.423862	0.600297
C18	C	-0.338996	-1.224968	0.526393
C19	C	-0.339007	-1.108190	0.526412
C20	C	-0.521872	-1.486845	0.537320
C21	C	-0.600102	-1.482197	0.542023
C22	C	-0.338938	-1.498012	0.800437
C23	C	-0.338908	-1.498045	0.917212
C24	C	-0.636852	-1.547235	0.477104
C25	C	-0.710357	-1.542870	0.481534
C26	C	-0.747111	-1.473460	0.550879
C27	C	-0.710356	-1.408418	0.615805
C28	C	-0.636852	-1.412790	0.611380
C29	C	-0.966943	-1.453182	0.571318
C30	C	-1.040452	-1.448813	0.575736
C31	C	-1.040448	-1.583267	0.441466
C32	C	-0.966943	-1.587627	0.437042
C33	C	-0.930195	-1.522590	0.501972
N34	N	-0.822245	-1.468994	0.555406
N35	N	-0.855062	-1.527062	0.497450
C36	C	-0.155432	-1.509096	0.515476
C37	C	-0.077202	-1.513852	0.510817
C38	C	-0.339023	-1.771967	0.526423
C39	C	-0.339028	-1.888743	0.526430
C40	C	-0.384078	-1.050634	0.596181
C41	C	-0.384086	-0.940909	0.596193
C42	C	-0.293953	-0.946308	0.456658
C43	C	-0.293941	-1.056030	0.456652
C44	C	-0.436117	-1.047516	0.676738
C45	C	-0.436126	-0.937791	0.676750
C46	C	-0.339029	-1.497920	0.253441
C47	C	-0.338861	-1.498102	0.136655
C48	C	-0.293891	-1.567988	0.969398
C49	C	-0.293866	-1.568014	1.079121
C50	C	-0.383879	-1.428152	1.084461
C51	C	-0.383901	-1.428122	0.974740
C52	C	-0.241925	-1.648739	0.966316
C53	C	-0.241900	-1.648766	1.076039
H54	H	-0.606931	-1.603752	0.420632
Br55	Br	-0.526947	-0.882643	0.645590
H56	H	-0.421581	-1.078200	0.757275
H57	H	-0.740287	-1.351908	0.672271
Br58	Br	-0.155627	-1.605273	1.127641
H59	H	-0.257262	-0.903825	0.399862
Br60	Br	-0.522399	-1.099016	0.633196
Br61	Br	-0.403695	-0.883070	0.803728
H62	H	-0.606931	-1.359830	0.664245
Br63	Br	-1.090325	-1.671532	0.353357
H64	H	-0.420509	-1.371221	1.131314
H65	H	-1.070375	-1.392304	0.632223
Br66	Br	-0.266218	-1.782921	1.127136
Br67	Br	-0.444982	-1.333176	0.903917
Br68	Br	-0.232757	-1.134142	0.361984
H69	H	-0.187418	-1.630257	0.933301
H70	H	-0.740275	-1.595830	0.428669
Br71	Br	-0.917068	-1.681844	0.342942
H72	H	-0.937029	-1.400224	0.624184
H73	H	-0.261465	-1.724832	0.933449
