data_functionalizedCrystal
_audit_creation_method	'MofGen! by Chris Wilmer'
_symmetry_space_group_name_H-M	'P1'
_symmetry_Int_Tables_number	1
_symmetry_cell_setting	triclinic
loop_
_symmetry_equiv_pos_as_xyz
  x,y,z
_cell_length_a	15.995292
_cell_length_b	10.489741
_cell_length_c	15.072220
_cell_angle_alpha	90.008987
_cell_angle_beta	90.007910
_cell_angle_gamma	84.003895
loop_
_atom_site_label
_atom_site_type_symbol
_atom_site_fract_x
_atom_site_fract_y
_atom_site_fract_z
O1	O	1.112007	0.164063	0.073806
O2	O	0.868348	0.184442	0.073802
O3	O	0.995722	-0.011425	0.073799
O4	O	0.984633	0.359930	0.073809
O5	O	0.995707	-0.011447	-0.073766
O6	O	0.868333	0.184420	-0.073763
O7	O	1.111992	0.164041	-0.073759
Zn8	Zn	0.990160	0.174227	-0.097190
Zn9	Zn	0.990180	0.174256	0.097233
O10	O	0.984618	0.359908	-0.073756
C11	C	0.837140	0.183602	0.000019
C12	C	0.744172	0.181115	0.000018
C13	C	0.406378	0.171973	0.000028
C14	C	0.430543	0.313345	0.000361
C15	C	0.527235	0.316032	0.000025
C16	C	0.573962	0.176510	0.000023
C17	C	0.544425	0.105818	-0.084242
C18	C	0.447624	0.104116	-0.084309
C19	C	0.447769	0.101254	0.083500
C20	C	0.544293	0.106493	0.084610
C21	C	0.668673	0.179066	0.000018
C22	C	0.311667	0.169413	0.000027
C23	C	0.994877	-0.058955	0.000017
C24	C	0.992371	-0.200549	0.000019
C25	C	0.911327	-0.267529	0.000024
C26	C	0.949604	-0.360211	-0.072733
C27	C	0.949638	-0.360164	0.072755
C28	C	1.030681	-0.291365	-0.072798
C29	C	1.030705	-0.291309	0.072755
C30	C	1.069040	-0.383963	-0.000020
C31	C	1.143200	0.164881	0.000026
C32	C	1.236168	0.167368	0.000033
C33	C	0.985463	0.407438	0.000028
C34	C	0.987969	0.549032	0.000033
N35	N	0.990152	0.174206	-0.229879
N36	N	0.990195	0.174267	0.229922
C37	C	0.990180	0.174246	0.410920
C38	C	1.058467	0.069652	0.448559
C39	C	1.058280	0.069268	0.551385
C40	C	0.990167	0.174226	0.589124
C41	C	0.902592	0.145392	0.551770
C42	C	0.902999	0.144653	0.448913
C43	C	1.008681	0.307985	0.448848
C44	C	1.010654	0.307084	0.551713
C45	C	0.990154	0.174218	0.689837
C46	C	0.990187	0.174252	0.310206
H47	H	0.433148	-0.002805	0.084068
C48	C	0.587996	-0.031092	0.091479
N49	N	0.620911	-0.134728	0.096645
H50	H	1.135734	-0.434342	-0.000059
H51	H	0.844693	-0.216925	-0.000050
C52	C	0.393170	0.386980	0.081999
N53	N	0.365014	0.442442	0.143492
C54	C	0.552547	0.391231	-0.081724
N55	N	0.571612	0.447869	-0.143304
C56	C	0.411781	0.170256	-0.169396
N57	N	0.384788	0.220084	-0.233482
H58	H	0.564773	0.154891	-0.146952
C59	C	0.903268	-0.401462	-0.155830
N60	N	0.868363	-0.432529	-0.218415
H61	H	0.915343	-0.390628	0.134271
H62	H	0.419715	0.145452	0.147368
C63	C	1.076956	-0.250391	-0.155992
N64	N	1.111806	-0.219526	-0.218654
H65	H	1.064974	-0.260745	0.134270
C66	C	1.146187	0.092407	0.585507
N67	N	1.212404	0.109826	0.611204
C68	C	0.832220	0.243662	0.415270
N69	N	0.778905	0.318228	0.389935
C70	C	0.832230	0.245574	0.584797
N71	N	0.779234	0.321031	0.609677
H72	H	1.123753	0.086508	0.423837
C73	C	1.042589	-0.063679	0.413630
N74	N	1.030627	-0.164103	0.387322
C75	C	1.042167	-0.064816	0.584613
N76	N	1.030026	-0.165812	0.609640
C77	C	0.569815	0.176019	0.168830
N78	N	0.589046	0.228385	0.232263
C79	C	0.881164	0.012896	0.416481
N80	N	0.864718	-0.086346	0.392059
C81	C	0.880252	0.015131	0.586542
N82	N	0.863432	-0.082988	0.612729
C83	C	1.093184	0.345494	0.413831
N84	N	1.156837	0.373731	0.387456
H85	H	0.401845	0.367525	-0.059727
H86	H	1.075083	0.328969	0.576128
H87	H	0.964210	0.388546	0.577405
H88	H	0.546601	0.371387	0.060432
C89	C	0.427120	-0.035914	-0.089486
N90	N	0.411679	-0.141383	-0.093391
C91	C	0.586668	-0.032868	-0.088501
N92	N	0.618498	-0.137321	-0.091714
C93	C	0.941425	0.413136	0.415956
N94	N	0.890767	0.492326	0.391176
