data_functionalizedCrystal
_audit_creation_method	'MofGen! by Chris Wilmer'
_symmetry_space_group_name_H-M	'P1'
_symmetry_Int_Tables_number	1
_symmetry_cell_setting	triclinic
loop_
_symmetry_equiv_pos_as_xyz
  x,y,z
_cell_length_a	19.077105
_cell_length_b	12.759400
_cell_length_c	12.759393
_cell_angle_alpha	90.031769
_cell_angle_beta	87.682028
_cell_angle_gamma	92.288832
loop_
_atom_site_label
_atom_site_type_symbol
_atom_site_fract_x
_atom_site_fract_y
_atom_site_fract_z
Zn1	Zn	1.076048	0.482831	-0.658528
Zn2	Zn	1.075979	0.658546	-0.482844
Zn3	Zn	0.958347	0.475816	-0.475807
Zn4	Zn	0.958337	0.651398	-0.651429
O5	O	1.017178	0.567148	-0.567152
O6	O	1.174530	0.512066	-0.641140
O7	O	1.060351	0.634362	-0.334888
O8	O	0.973993	0.329728	-0.500072
O9	O	1.174480	0.641164	-0.512065
O10	O	1.060467	0.334881	-0.634316
O11	O	0.973927	0.500112	-0.329718
O12	O	0.859854	0.493181	-0.493188
O13	O	0.973976	0.628981	-0.799393
O14	O	0.859847	0.622180	-0.622216
O15	O	1.060458	0.505135	-0.804609
O16	O	1.060341	0.804617	-0.505181
O17	O	0.973910	0.799365	-0.629040
C18	C	0.834313	0.556145	-0.556169
C19	C	0.756082	0.551463	-0.551495
C20	C	1.017136	0.840113	-0.567128
C21	C	1.017183	0.956892	-0.567156
C22	C	1.017224	0.567044	-0.841188
C23	C	1.017243	0.566999	-0.957966
C24	C	0.719344	0.616527	-0.616372
C25	C	0.645838	0.612115	-0.611985
C26	C	0.609072	0.542641	-0.542716
C27	C	0.645815	0.477570	-0.477836
C28	C	0.719320	0.481978	-0.482229
C29	C	0.389235	0.522239	-0.522391
C30	C	0.315726	0.517837	-0.518001
C31	C	0.315754	0.652382	-0.652152
C32	C	0.389260	0.656788	-0.656534
C33	C	0.425997	0.591713	-0.591659
N34	N	0.533937	0.538131	-0.538228
N35	N	0.501130	0.596218	-0.596152
C36	C	1.200757	0.578195	-0.578179
C37	C	1.278988	0.582902	-0.582878
C38	C	1.017239	0.293118	-0.567201
C39	C	1.017265	0.176343	-0.567222
C40	C	1.062237	1.014457	-0.502741
C41	C	1.062281	1.124183	-0.502776
C42	C	0.972209	1.118771	-0.631645
C43	C	0.972169	1.009046	-0.631615
C44	C	1.114238	1.017582	-0.428336
C45	C	1.114281	1.127309	-0.428371
C46	C	0.972261	0.497084	-1.010144
C47	C	0.972283	0.497054	-1.119869
C48	C	1.062274	0.636858	-1.125231
C49	C	1.062248	0.636892	-1.015507
C50	C	0.920308	0.416366	-1.007049
C51	C	0.920329	0.416336	-1.116774
C52	C	1.017173	0.567178	-0.294185
C53	C	1.017290	0.566935	-0.177415
H54	H	0.749274	0.673104	-0.672775
Cl55	Cl	0.435475	0.744132	-0.743617
Cl56	Cl	1.091801	1.172072	-0.301382
Cl57	Cl	0.840389	0.456521	-1.164522
Cl58	Cl	0.915538	0.936683	-0.712615
Cl59	Cl	0.915624	1.184344	-0.712674
H60	H	1.168730	0.990997	-0.453456
Cl61	Cl	0.950472	0.298868	-0.956331
Cl62	Cl	0.269566	0.734187	-0.733703
H63	H	1.094727	0.982463	-0.349839
Cl64	Cl	1.194228	1.184528	-0.478284
H65	H	0.749231	0.428990	-0.429405
H66	H	1.098866	0.693839	-0.973028
H67	H	1.098916	0.693762	-1.172094
Cl68	Cl	0.836131	0.444954	-0.956017
Cl69	Cl	0.269506	0.430501	-0.430906
H70	H	0.615929	0.665098	-0.664814
Cl71	Cl	0.942793	0.292002	-1.164135
H72	H	0.419138	0.469257	-0.469557
Cl73	Cl	0.599595	0.390224	-0.390761
