data_functionalizedCrystal
_audit_creation_method	'MofGen! by Chris Wilmer'
_symmetry_space_group_name_H-M	'P1'
_symmetry_Int_Tables_number	1
_symmetry_cell_setting	triclinic
loop_
_symmetry_equiv_pos_as_xyz
  x,y,z
_cell_length_a	23.532355
_cell_length_b	23.532407
_cell_length_c	9.616153
_cell_angle_alpha	89.993077
_cell_angle_beta	89.998972
_cell_angle_gamma	82.838088
loop_
_atom_site_label
_atom_site_type_symbol
_atom_site_fract_x
_atom_site_fract_y
_atom_site_fract_z
O1	O	0.755281	0.068992	-0.115470
O2	O	0.589413	0.079026	-0.115517
O3	O	0.677349	-0.008924	-0.115467
O4	O	0.667345	0.156941	-0.115520
O5	O	0.677337	-0.008922	0.115825
O6	O	0.589401	0.079028	0.115775
O7	O	0.755269	0.068994	0.115821
Zn8	Zn	0.672333	0.074011	0.152520
Zn9	Zn	0.672349	0.074009	-0.152216
O10	O	0.667333	0.156943	0.115771
C11	C	0.568191	0.078776	0.000123
C12	C	0.504972	0.078022	0.000107
C13	C	0.112952	0.073285	0.126244
C14	C	0.053552	0.072568	0.126249
O15	O	0.022828	0.072178	0.233472
N16	N	0.023850	0.072211	0.000173
C17	C	0.053552	0.072566	-0.125917
O18	O	0.022834	0.072196	-0.233155
C19	C	0.112951	0.073279	-0.125922
C20	C	0.142649	0.073641	0.000163
C21	C	0.142650	0.073647	0.252318
C22	C	0.202045	0.074365	0.252312
C23	C	0.231742	0.074722	0.126231
C24	C	0.202044	0.074360	0.000157
C25	C	0.142651	0.073630	-0.252010
C26	C	0.202054	0.074343	-0.252004
C27	C	0.231753	0.074705	-0.125919
C28	C	0.291136	0.075435	-0.125930
N29	N	0.320838	0.075792	0.000147
C30	C	0.291141	0.075435	0.126227
C31	C	-0.071190	0.071066	-0.125899
C32	C	-0.130588	0.070357	-0.125896
C33	C	-0.130583	0.070358	0.126271
C34	C	-0.071184	0.071072	0.126267
C35	C	-0.041488	0.071423	0.000177
C36	C	0.415875	0.076945	0.126205
C37	C	0.475275	0.077666	0.126187
C38	C	0.475266	0.077661	-0.125979
C39	C	0.415870	0.076944	-0.125962
C40	C	0.386177	0.076583	0.000141
O41	O	0.321898	0.075823	-0.233097
O42	O	0.321867	0.075798	0.233446
C43	C	0.677088	-0.030139	0.000182
C44	C	0.676322	-0.093356	0.000193
C45	C	0.723557	-0.492468	0.000130
C46	C	0.722845	-0.551868	0.000119
O47	O	0.766632	-0.588620	0.000080
N48	N	0.670568	-0.574484	0.000106
C49	C	0.618998	-0.537697	0.000089
O50	O	0.574467	-0.562388	0.000075
C51	C	0.619710	-0.478298	0.000089
C52	C	0.671991	-0.455685	0.000117
C53	C	0.775834	-0.469854	0.000156
C54	C	0.776545	-0.410458	0.000169
C55	C	0.724979	-0.373676	0.000157
C56	C	0.672703	-0.396289	0.000130
C57	C	0.568141	-0.441512	0.000063
C58	C	0.568858	-0.382110	0.000062
C59	C	0.621139	-0.359497	0.000090
C60	C	0.621848	-0.300110	0.000131
N61	N	0.674126	-0.277494	0.000145
C62	C	0.725691	-0.314277	0.000157
C63	C	0.617507	-0.662439	0.000084
C64	C	0.616794	-0.721837	0.000094
C65	C	0.720642	-0.736004	0.000122
C66	C	0.721354	-0.676605	0.000122
C67	C	0.669784	-0.639823	0.000098
C68	C	0.727181	-0.189540	0.000187
C69	C	0.727888	-0.130138	0.000206
C70	C	0.624041	-0.115977	0.000170
C71	C	0.623334	-0.175373	0.000159
C72	C	0.674909	-0.212154	0.000162
O73	O	0.578084	-0.263323	0.000164
O74	O	0.770216	-0.289577	0.000153
C75	C	0.776491	0.069244	0.000178
C76	C	0.839710	0.069998	0.000185
C77	C	0.667594	0.178158	0.000119
C78	C	0.668360	0.241375	0.000099
N79	N	0.672327	0.074013	0.360495
N80	N	0.672360	0.074003	-0.360191
C81	C	0.625148	0.120906	0.580838
C82	C	0.625247	0.121078	0.419670
C83	C	0.731681	0.086645	0.418956
C84	C	0.731423	0.086976	0.580174
C85	C	0.660747	0.014325	0.580422
C86	C	0.659374	0.014734	0.419194
H87	H	0.226230	0.074629	-0.354683
H88	H	-0.154773	0.070067	0.228933
H89	H	0.499455	0.077954	-0.228630
Br90	Br	0.798845	-0.099453	0.000245
H91	H	-0.154765	0.070071	-0.228567
H92	H	0.695180	-0.020575	0.618557
H93	H	0.391705	0.076656	0.228890
H94	H	0.769178	-0.219481	0.000184
H95	H	0.499452	0.077963	0.228865
Br96	Br	0.498867	-0.332194	0.000023
Br97	Br	0.847502	-0.379779	0.000168
Br98	Br	0.748565	0.159498	0.642813
Br99	Br	0.242341	0.074855	0.423436
Br100	Br	0.102358	0.073165	0.423451
Br101	Br	0.845825	-0.519763	0.000172
H102	H	0.632425	0.164950	0.621325
H103	H	0.632625	0.165371	0.381079
Br104	Br	0.551683	0.108658	0.353786
H105	H	0.391688	0.076658	-0.228631
H106	H	-0.047015	0.071358	-0.228582
H107	H	-0.047008	0.071367	0.228936
Br108	Br	0.791649	0.032111	0.645199
H109	H	0.118482	0.073334	-0.354682
Br110	Br	0.713008	-0.046123	0.352089
H111	H	0.767635	0.053378	0.380623
H112	H	0.574222	-0.740243	0.000095
Br113	Br	0.792309	-0.645922	0.000163
Br114	Br	0.790624	-0.785934	0.000133
H115	H	0.575510	-0.632494	0.000077
Br116	Br	0.551355	0.108650	0.645468
Br117	Br	0.552381	-0.206064	0.000153
Br118	Br	0.497184	-0.472185	0.000020
Br119	Br	0.554062	-0.066047	0.000154
H120	H	0.742217	0.129660	0.378555
H121	H	0.618428	0.002091	0.621151
H122	H	0.615714	0.005139	0.380986
