data_functionalizedCrystal
_audit_creation_method	'MofGen! by Chris Wilmer'
_symmetry_space_group_name_H-M	'P1'
_symmetry_Int_Tables_number	1
_symmetry_cell_setting	triclinic
loop_
_symmetry_equiv_pos_as_xyz
  x,y,z
_cell_length_a	12.759401
_cell_length_b	12.645330
_cell_length_c	12.759401
_cell_angle_alpha	90.008188
_cell_angle_beta	90.005232
_cell_angle_gamma	90.019217
loop_
_atom_site_label
_atom_site_type_symbol
_atom_site_fract_x
_atom_site_fract_y
_atom_site_fract_z
Zn1	Zn	1.606082	-0.422162	0.594031
Zn2	Zn	1.606012	-0.599399	0.418356
Zn3	Zn	1.430429	-0.422155	0.418366
Zn4	Zn	1.430363	-0.599389	0.593993
O5	O	1.518221	-0.510776	0.506186
O6	O	1.753093	-0.445681	0.570739
O7	O	1.582718	-0.575888	0.271336
O8	O	1.453786	-0.273808	0.441689
O9	O	1.753042	-0.575895	0.441671
O10	O	1.582838	-0.273814	0.570749
O11	O	1.453718	-0.445667	0.271344
O12	O	1.283399	-0.445658	0.441652
O13	O	1.453674	-0.575879	0.741019
O14	O	1.283351	-0.575871	0.570684
O15	O	1.582774	-0.445671	0.741047
O16	O	1.582655	-0.747745	0.441634
O17	O	1.453607	-0.747738	0.570674
C18	C	1.245254	-0.510763	0.506165
C19	C	1.128477	-0.510783	0.506181
C20	C	1.073618	-0.578688	0.573263
C21	C	0.963894	-0.578692	0.573284
C22	C	0.963898	-0.442883	0.439133
C23	C	1.073620	-0.442875	0.439118
C24	C	0.813962	-0.616776	0.697145
C25	C	0.759099	-0.684698	0.764217
C26	C	0.794687	-0.788160	0.780168
C27	C	0.885136	-0.823721	0.729031
C28	C	0.939994	-0.755805	0.661951
C29	C	0.904407	-0.652328	0.646020
C30	C	1.223554	-0.404802	0.315255
C31	C	1.278414	-0.336890	0.248169
C32	C	1.242828	-0.233427	0.232208
C33	C	1.152375	-0.197869	0.283326
C34	C	1.097515	-0.265781	0.350412
C35	C	1.133109	-0.369243	0.366375
C36	C	1.518145	-0.786206	0.506172
C37	C	1.518208	-0.904036	0.506200
C38	C	1.437358	-1.071640	0.587630
C39	C	1.436945	-0.949080	0.587368
C40	C	1.488263	-0.948598	0.395478
C41	C	1.487769	-1.071197	0.395973
C42	C	1.629497	-1.071131	0.534595
C43	C	1.628815	-0.948524	0.537016
C44	C	1.792254	-0.510790	0.506208
C45	C	1.909031	-0.510796	0.506217
C46	C	1.518225	-0.510775	0.780220
C47	C	1.518226	-0.510774	0.896996
C48	C	1.518327	-0.234271	0.506224
C49	C	1.518372	-0.116441	0.506240
C50	C	1.585431	-0.442986	1.061605
C51	C	1.585440	-0.442986	0.951881
C52	C	1.451006	-0.578575	0.951841
C53	C	1.451003	-0.578579	1.061563
C54	C	1.709365	-0.405111	0.801953
C55	C	1.776573	-0.337301	0.747112
C56	C	1.792743	-0.233865	0.782744
C57	C	1.741690	-0.198217	0.873215
C58	C	1.674475	-0.266021	0.928050
C59	C	1.658324	-0.369472	0.892419
C60	C	1.327077	-0.616443	1.211493
C61	C	1.259855	-0.684243	1.266330
C62	C	1.243674	-0.787681	1.230701
C63	C	1.294709	-0.823325	1.140226
C64	C	1.361930	-0.755526	1.085390
C65	C	1.378113	-0.652089	1.121027
C66	C	1.518211	-0.510796	1.233219
C67	C	1.518214	-0.510779	1.116442
H68	H	1.252544	-0.489047	0.328255
O69	O	0.661552	-0.646347	0.819383
H70	H	0.646031	-0.562982	0.797043
O71	O	0.775544	-0.505193	0.679934
H72	H	0.774336	-0.462439	0.755903
O73	O	1.380169	-1.109210	0.364164
H74	H	1.328975	-1.040026	0.348580
H75	H	1.218268	-0.655199	1.339975
H76	H	0.750010	-0.843462	0.834781
H77	H	1.632896	-0.236991	1.001700
O78	O	1.132776	-0.651914	0.645617
H79	H	1.182787	-0.604534	0.699135
H80	H	1.340252	-0.532217	1.240516
H81	H	1.545400	-0.919420	0.333180
O82	O	1.831645	-0.375741	0.649540
H83	H	1.917721	-0.370690	0.661102
H84	H	1.455918	-1.101075	0.669999
O85	O	1.037552	-0.794137	0.606806
H86	H	1.053089	-0.877493	0.629169
H87	H	1.355489	-1.102537	0.569084
O88	O	0.904733	-0.369675	0.366767
H89	H	0.819219	-0.381105	0.378027
O90	O	0.923518	-0.935319	0.746225
H91	H	0.870182	-0.976568	0.801467
O92	O	0.999960	-0.227434	0.405562
H93	H	0.984431	-0.144076	0.383202
O94	O	1.865241	-0.160734	0.723600
H95	H	1.867906	-0.082813	0.763572
H96	H	1.123388	-0.113628	0.270314
O97	O	1.301995	-0.160173	0.159851
H98	H	1.370872	-0.202274	0.126982
H99	H	1.696215	-0.489340	0.772940
H100	H	1.352065	-0.365850	0.206545
H101	H	1.354561	-0.919842	0.568583
O102	O	1.461675	-0.909155	0.696133
H103	H	1.474044	-0.977414	0.749392
H104	H	1.544217	-1.100834	0.333263
O105	O	1.381780	-0.908059	0.363075
H106	H	1.350014	-0.856187	0.425645
O107	O	1.665693	-1.111998	0.639730
H108	H	1.604874	-1.165067	0.672948
H109	H	1.651398	-0.919397	0.618502
H110	H	1.692350	-0.917856	0.482053
H111	H	1.396284	-0.633774	0.907144
O112	O	1.759124	-0.086646	0.911646
H113	H	1.814447	-0.045490	0.858322
H114	H	1.689854	-1.100100	0.475316
H115	H	1.403486	-0.784557	1.011721
O116	O	1.277265	-0.934892	1.101785
H117	H	1.221956	-0.976052	1.155121
O118	O	1.657930	-0.369874	1.120802
H119	H	1.704680	-0.322743	1.064232
O120	O	1.171169	-0.860813	1.289842
H121	H	1.138395	-0.818655	1.358741
