data_functionalizedCrystal
_audit_creation_method	'MofGen! by Chris Wilmer'
_symmetry_space_group_name_H-M	'P1'
_symmetry_Int_Tables_number	1
_symmetry_cell_setting	triclinic
loop_
_symmetry_equiv_pos_as_xyz
  x,y,z
_cell_length_a	10.723024
_cell_length_b	12.503584
_cell_length_c	10.723024
_cell_angle_alpha	86.441449
_cell_angle_beta	84.467869
_cell_angle_gamma	93.552360
loop_
_atom_site_label
_atom_site_type_symbol
_atom_site_fract_x
_atom_site_fract_y
_atom_site_fract_z
O1	O	-1.664324	-0.089326	-0.167868
O2	O	-1.301171	-0.089326	-0.184621
O3	O	-1.491124	-0.089322	0.005331
O4	O	-1.474371	-0.089330	-0.357820
O5	O	-1.476838	0.089319	-0.008980
O6	O	-1.286885	0.089315	-0.198933
O7	O	-1.650038	0.089315	-0.182180
Cu8	Cu	-1.467157	0.105627	-0.191863
Cu9	Cu	-1.484052	-0.105638	-0.174938
O10	O	-1.460085	0.089311	-0.372132
C11	C	-1.247529	-0.000006	-0.190558
C12	C	-1.108974	-0.000006	-0.186910
N13	N	-1.455283	0.254219	-0.203767
C14	C	-0.917217	-0.000003	-0.073603
C15	C	-1.060420	-0.000003	-0.077371
C16	C	-1.437816	0.473333	-0.221288
C17	C	-1.513394	0.526662	-0.145520
C18	C	-1.503675	0.648585	-0.155269
C19	C	-1.447533	0.351399	-0.211540
C20	C	-0.703680	-0.000006	-0.176243
C21	C	-0.842235	-0.000006	-0.179891
C22	C	-1.482762	-0.000003	0.044675
C23	C	-1.479114	-0.000007	0.183230
N24	N	-1.495931	0.745770	-0.163037
C25	C	-1.468447	-0.000011	-0.411476
C26	C	-1.472095	-0.000014	-0.550030
C27	C	-1.585402	-0.000008	0.258212
C28	C	-1.581635	-0.000012	0.401416
H29	H	-0.875393	0.000015	0.020181
H30	H	-1.585399	0.480751	-0.073332
H31	H	-1.365818	0.519239	-0.293473
H32	H	-1.385329	-0.000014	0.225052
H33	H	-1.044550	-0.000012	-0.277905
H34	H	-0.884056	-0.000001	-0.273677
H35	H	-1.679187	-0.000002	0.216390
H36	H	-1.381099	-0.000005	0.385544
N37	N	-1.141258	-0.000012	0.036772
N38	N	-1.257473	-0.000016	0.033551
H39	H	-1.314570	-0.000023	0.114168
N40	N	-1.695776	0.000000	0.482253
N41	N	-1.692554	0.000003	0.598467
H42	H	-1.773170	0.000014	0.655563
