data_functionalizedCrystal
_audit_creation_method	'MofGen! by Chris Wilmer'
_symmetry_space_group_name_H-M	'P1'
_symmetry_Int_Tables_number	1
_symmetry_cell_setting	triclinic
loop_
_symmetry_equiv_pos_as_xyz
  x,y,z
_cell_length_a	6.817900
_cell_length_b	11.102300
_cell_length_c	11.102188
_cell_angle_alpha	91.947812
_cell_angle_beta	108.603875
_cell_angle_gamma	108.605850
loop_
_atom_site_label
_atom_site_type_symbol
_atom_site_fract_x
_atom_site_fract_y
_atom_site_fract_z
V1	V	-4.111521	-0.396257	-0.175839
O2	O	-4.070563	-0.388713	0.008450
O3	O	-4.088288	-0.393547	-0.348659
O4	O	-4.088302	-0.569078	-0.173134
O5	O	-4.070550	-0.211967	-0.168290
V6	V	-4.588625	-0.374214	-0.153795
O7	O	-4.386860	-0.444609	-0.224192
O8	O	-4.763483	-0.325862	-0.105442
O9	O	-4.388650	-0.376924	0.019025
O10	O	-4.746979	-0.381757	-0.338084
O11	O	-4.746992	-0.558503	-0.161344
O12	O	-4.388637	-0.201393	-0.156500
C13	C	-3.938597	-0.387295	-0.390788
C14	C	-4.001056	-0.386232	-0.532071
C15	C	-3.970232	-0.269348	-0.580297
C16	C	-4.028943	-0.268353	-0.713048
C17	C	-4.149296	-0.501137	-0.749338
C18	C	-4.090599	-0.502131	-0.616589
C19	C	-3.938613	-0.611201	-0.166887
C20	C	-4.001079	-0.752483	-0.165819
C21	C	-4.214436	-0.825332	-0.171665
C22	C	-4.273116	-0.958081	-0.170657
C23	C	-3.905061	-0.945120	-0.157963
C24	C	-3.846380	-0.812373	-0.158961
C25	C	-4.201684	-0.383172	0.061148
C26	C	-4.118464	-0.384244	0.202429
C27	C	-4.201668	-0.159263	-0.162751
C28	C	-4.118439	-0.017979	-0.163812
H29	H	-4.222204	-0.595498	-0.818168
C30	C	-3.734847	-1.010992	-0.150298
N31	N	-3.606614	-1.060599	-0.144482
H32	H	-3.672628	-0.753055	-0.154191
H33	H	-3.897322	-0.174975	-0.511485
C34	C	-3.995019	-0.139771	-0.766089
N35	N	-3.969464	-0.042917	-0.806037
C36	C	-4.384603	-0.759456	-0.179193
N37	N	-4.512778	-0.709841	-0.184856
H38	H	-4.115716	-0.597318	-0.577326
H39	H	-4.446846	-1.017389	-0.175415
