data_functionalizedCrystal
_audit_creation_method	'MofGen! by Chris Wilmer'
_symmetry_space_group_name_H-M	'P1'
_symmetry_Int_Tables_number	1
_symmetry_cell_setting	triclinic
loop_
_symmetry_equiv_pos_as_xyz
  x,y,z
_cell_length_a	18.215407
_cell_length_b	14.908520
_cell_length_c	18.215399
_cell_angle_alpha	93.269364
_cell_angle_beta	89.980167
_cell_angle_gamma	93.321174
loop_
_atom_site_label
_atom_site_type_symbol
_atom_site_fract_x
_atom_site_fract_y
_atom_site_fract_z
Zn1	Zn	1.108178	-0.359158	-0.433017
Zn2	Zn	1.441511	-0.025825	-0.099684
Zn3	Zn	1.774844	0.307508	0.233649
Zn4	Zn	1.100989	-0.510027	-0.317051
Zn5	Zn	1.434323	-0.176694	0.016283
Zn6	Zn	1.767656	0.156639	0.349616
Zn7	Zn	0.985109	-0.359188	-0.309966
Zn8	Zn	1.318442	-0.025855	0.023367
Zn9	Zn	1.651775	0.307479	0.356701
Zn10	Zn	0.977982	-0.509977	-0.440073
Zn11	Zn	1.311315	-0.176644	-0.106740
Zn12	Zn	1.644648	0.156689	0.226593
O13	O	1.043064	-0.434588	-0.375027
O14	O	1.376398	-0.101254	-0.041693
O15	O	1.709731	0.232079	0.291640
O16	O	1.210208	-0.379180	-0.417646
O17	O	1.543541	-0.045847	-0.084313
O18	O	1.876875	0.287487	0.249021
O19	O	1.085592	-0.490052	-0.213128
O20	O	1.418925	-0.156718	0.120205
O21	O	1.752259	0.176615	0.453539
O22	O	1.007425	-0.232939	-0.320371
O23	O	1.340758	0.100394	0.012962
O24	O	1.674092	0.433728	0.346295
O25	O	1.204927	-0.490023	-0.332446
O26	O	1.538260	-0.156690	0.000887
O27	O	1.871593	0.176644	0.334221
O28	O	1.097843	-0.232917	-0.410776
O29	O	1.431177	0.100416	-0.077443
O30	O	1.764510	0.433749	0.255890
O31	O	1.000455	-0.379230	-0.207923
O32	O	1.333788	-0.045897	0.125410
O33	O	1.667122	0.287436	0.458744
O34	O	0.881180	-0.379182	-0.327213
O35	O	1.214513	-0.045848	0.006120
O36	O	1.547846	0.287485	0.339454
O37	O	0.995278	-0.489937	-0.542120
O38	O	1.328611	-0.156604	-0.208787
O39	O	1.661945	0.176729	0.124547
O40	O	0.875943	-0.489966	-0.422802
O41	O	1.209277	-0.156633	-0.089469
O42	O	1.542610	0.176701	0.243864
O43	O	1.090932	-0.379131	-0.536936
O44	O	1.424266	-0.045798	-0.203603
O45	O	1.757599	0.287535	0.129731
O46	O	1.078681	-0.636266	-0.339288
O47	O	1.412014	-0.302933	-0.005954
O48	O	1.745348	0.030401	0.327379
O49	O	0.988308	-0.636229	-0.429672
O50	O	1.321641	-0.302896	-0.096339
O51	O	1.654975	0.030438	0.236995
C52	C	0.851859	-0.434572	-0.375005
C53	C	1.185192	-0.101239	-0.041672
C54	C	1.518526	0.232094	0.291662
C55	C	0.770059	-0.434587	-0.375014
C56	C	1.103393	-0.101254	-0.041681
C57	C	1.436726	0.232079	0.291653
C58	C	0.579154	-0.492363	-0.424733
C59	C	0.912487	-0.159030	-0.091399
C60	C	1.245820	0.174303	0.241934
C61	C	0.502295	-0.492366	-0.424742
C62	C	0.835628	-0.159033	-0.091409
C63	C	1.168962	0.174300	0.241925
C64	C	0.507726	-0.376828	-0.325338
C65	C	0.841060	-0.043495	0.007995
C66	C	1.174393	0.289838	0.341329
C67	C	0.584584	-0.376822	-0.325333
C68	C	0.917917	-0.043488	0.008001
C69	C	1.251251	0.289845	0.341334
C70	C	0.620295	-0.434594	-0.375029
C71	C	0.953629	-0.101261	-0.041696
C72	C	1.286962	0.232072	0.291638
C73	C	0.466579	-0.434604	-0.375044
C74	C	0.799912	-0.101271	-0.041710
C75	C	1.133246	0.232063	0.291623
C76	C	0.383245	-0.434606	-0.375053
C77	C	0.716578	-0.101273	-0.041720
C78	C	1.049912	0.232060	0.291613
C79	C	0.703635	-0.434591	-0.375021
C80	C	1.036968	-0.101257	-0.041687
C81	C	1.370301	0.232076	0.291646
C82	C	1.031961	-0.668981	-0.386030
C83	C	1.365294	-0.335648	-0.052697
C84	C	1.698628	-0.002315	0.280636
C85	C	1.027278	-0.769256	-0.390762
C86	C	1.360612	-0.435923	-0.057429
C87	C	1.693945	-0.102589	0.275904
C88	C	1.112681	-0.957660	-0.305613
C89	C	1.446015	-0.624326	0.027720
C90	C	1.779348	-0.290993	0.361054
C91	C	1.108284	-1.051877	-0.310057
C92	C	1.441617	-0.718543	0.023277
C93	C	1.774951	-0.385210	0.356610
C94	C	1.014091	-1.051908	-0.404097
C95	C	1.347424	-0.718575	-0.070763
C96	C	1.680757	-0.385242	0.262570
C97	C	1.018488	-0.957691	-0.399653
C98	C	1.351821	-0.624358	-0.066320
C99	C	1.685155	-0.291025	0.267014
C100	C	1.067784	-0.910570	-0.350409
C101	C	1.401118	-0.577237	-0.017075
C102	C	1.734451	-0.243904	0.316258
C103	C	1.072177	-0.816352	-0.345962
C104	C	1.405511	-0.483018	-0.012628
C105	C	1.738844	-0.149685	0.320705
C106	C	0.977988	-0.816385	-0.440005
C107	C	1.311321	-0.483052	-0.106671
C108	C	1.644655	-0.149718	0.226662
C109	C	0.973591	-0.910602	-0.444449
C110	C	1.306924	-0.577269	-0.111115
C111	C	1.640257	-0.243935	0.222218
C112	C	1.235017	-0.434604	-0.375049
C113	C	1.568350	-0.101271	-0.041716
C114	C	1.901683	0.232063	0.291617
C115	C	1.316815	-0.434611	-0.375059
C116	C	1.650148	-0.101277	-0.041725
C117	C	1.983482	0.232056	0.291608
C118	C	1.043112	-0.434526	-0.566977
C119	C	1.376445	-0.101192	-0.233644
C120	C	1.709779	0.232141	0.099690
C121	C	1.043133	-0.434499	-0.648775
C122	C	1.376466	-0.101166	-0.315441
C123	C	1.709799	0.232168	0.017892
C124	C	1.054231	-0.199279	-0.363996
C125	C	1.387564	0.134054	-0.030663
C126	C	1.720898	0.467388	0.302670
C127	C	1.058990	-0.099004	-0.359296
C128	C	1.392323	0.234329	-0.025963
C129	C	1.725656	0.567662	0.307371
C130	C	1.092959	-0.376748	-0.834268
C131	C	1.426293	-0.043415	-0.500935
C132	C	1.759626	0.289918	-0.167601
C133	C	1.092969	-0.376722	-0.911126
C134	C	1.426303	-0.043389	-0.577792
C135	C	1.759636	0.289945	-0.244459
C136	C	0.993364	-0.492110	-0.916513
C137	C	1.326698	-0.158777	-0.583179
C138	C	1.660031	0.174557	-0.249846
C139	C	0.993351	-0.492131	-0.839656
C140	C	1.326685	-0.158798	-0.506323
C141	C	1.660018	0.174535	-0.172989
C142	C	1.043153	-0.434452	-0.798536
C143	C	1.376486	-0.101118	-0.465203
C144	C	1.709820	0.232215	-0.131869
C145	C	1.043176	-0.434404	-0.952250
C146	C	1.376509	-0.101071	-0.618917
C147	C	1.709843	0.232262	-0.285583
C148	C	1.043186	-0.434376	-1.035582
C149	C	1.376520	-0.101043	-0.702249
C150	C	1.709853	0.232290	-0.368916
C151	C	1.043142	-0.434478	-0.715198
C152	C	1.376475	-0.101145	-0.381865
C153	C	1.709808	0.232188	-0.048531
C154	C	1.043062	-0.434585	-0.183820
C155	C	1.376396	-0.101251	0.149513
C156	C	1.709729	0.232082	0.482846
C157	C	1.043196	-0.434357	-0.102011
C158	C	1.376530	-0.101024	0.231322
C159	C	1.709863	0.232310	0.564655
H160	H	0.468801	-0.539406	-0.465216
H161	H	0.802134	-0.206073	-0.131883
H162	H	1.135467	0.127260	0.201450
H163	H	0.952788	-0.539119	-0.810563
H164	H	1.286121	-0.205786	-0.477229
H165	H	1.619455	0.127547	-0.143896
N166	N	0.628970	-0.314517	-0.271722
N167	N	0.962304	0.018817	0.061612
N168	N	1.295637	0.352150	0.394945
H169	H	0.662846	-0.272756	-0.299726
H170	H	0.996180	0.060577	0.033607
H171	H	1.329513	0.393910	0.366940
H172	H	0.594642	-0.277981	-0.240246
H173	H	0.927975	0.055353	0.093087
H174	H	1.261308	0.388686	0.426421
N175	N	0.939662	-0.554317	-0.960877
N176	N	1.272995	-0.220984	-0.627544
N177	N	1.606329	0.112349	-0.294210
H178	H	0.948029	-0.618782	-0.950527
H179	H	1.281362	-0.285449	-0.617194
H180	H	1.614695	0.047884	-0.283860
H181	H	0.887764	-0.540231	-0.946821
H182	H	1.221098	-0.206897	-0.613488
H183	H	1.554431	0.126436	-0.280154
N184	N	0.617669	-0.554673	-0.478334
N185	N	0.951002	-0.221339	-0.145000
N186	N	1.284336	0.111994	0.188333
H187	H	0.604976	-0.540741	-0.530281
H188	H	0.938309	-0.207408	-0.196948
H189	H	1.271643	0.125925	0.136386
H190	H	0.672589	-0.545879	-0.470725
H191	H	1.005923	-0.212546	-0.137392
H192	H	1.339256	0.120788	0.195942
N193	N	0.469207	-0.314543	-0.271721
N194	N	0.802541	0.018791	0.061613
N195	N	1.135874	0.352124	0.394946
H196	H	0.414275	-0.323321	-0.279258
H197	H	0.747608	0.010013	0.054076
H198	H	1.080941	0.343346	0.387409
H199	H	0.481970	-0.328525	-0.219805
H200	H	0.815303	0.004808	0.113528
H201	H	1.148637	0.338141	0.446861
N202	N	0.960927	-1.102738	-0.457208
N203	N	1.294260	-0.769404	-0.123875
N204	N	1.627594	-0.436071	0.209458
H205	H	0.988995	-1.141767	-0.493181
H206	H	1.322329	-0.808434	-0.159848
H207	H	1.655662	-0.475101	0.173486
H208	H	0.925030	-1.141840	-0.429058
H209	H	1.258363	-0.808506	-0.095725
H210	H	1.591697	-0.475173	0.237609
H211	H	1.112315	-0.777987	-0.305863
H212	H	1.445648	-0.444653	0.027471
H213	H	1.778982	-0.111320	0.360804
H214	H	1.133525	-0.329733	-0.940215
H215	H	1.466859	0.003600	-0.606881
H216	H	1.800192	0.336934	-0.273548
H217	H	1.152815	-0.919293	-0.265511
H218	H	1.486149	-0.585960	0.067822
H219	H	1.819482	-0.252627	0.401155
H220	H	1.144846	-1.090213	-0.273581
H221	H	1.478179	-0.756880	0.059753
H222	H	1.811512	-0.423547	0.393086
N223	N	1.146673	-0.314539	-0.789919
N224	N	1.480007	0.018794	-0.456586
N225	N	1.813340	0.352127	-0.123253
H226	H	1.179035	-0.351218	-0.759762
H227	H	1.512368	-0.017885	-0.426429
H228	H	1.845702	0.315448	-0.093096
H229	H	1.178175	-0.277999	-0.824272
H230	H	1.511509	0.055335	-0.490939
H231	H	1.844842	0.388668	-0.157605
N232	N	0.920421	-0.961423	-0.497558
N233	N	1.253754	-0.628090	-0.164225
N234	N	1.587087	-0.294757	0.169108
H235	H	0.948481	-1.000456	-0.533536
H236	H	1.281815	-0.667123	-0.200202
H237	H	1.615148	-0.333789	0.133131
H238	H	0.884522	-1.000521	-0.469407
H239	H	1.217855	-0.667188	-0.136073
H240	H	1.551189	-0.333855	0.197260
N241	N	0.929554	-0.765597	-0.488320
N242	N	1.262888	-0.432264	-0.154987
N243	N	1.596221	-0.098930	0.178347
H244	H	0.939817	-0.698760	-0.478033
H245	H	1.273150	-0.365427	-0.144699
H246	H	1.606483	-0.032094	0.188634
H247	H	0.940207	-0.782010	-0.541666
H248	H	1.273540	-0.448677	-0.208333
H249	H	1.606873	-0.115343	0.125000
