data_functionalizedCrystal
_audit_creation_method	'MofGen! by Chris Wilmer'
_symmetry_space_group_name_H-M	'P1'
_symmetry_Int_Tables_number	1
_symmetry_cell_setting	triclinic
loop_
_symmetry_equiv_pos_as_xyz
  x,y,z
_cell_length_a	18.215407
_cell_length_b	29.839131
_cell_length_c	18.215407
_cell_angle_alpha	90.015142
_cell_angle_beta	90.010236
_cell_angle_gamma	90.041868
loop_
_atom_site_label
_atom_site_type_symbol
_atom_site_fract_x
_atom_site_fract_y
_atom_site_fract_z
Zn1	Zn	1.124918	-0.178922	0.416101
Zn2	Zn	1.624918	0.321078	0.916101
Zn3	Zn	1.124811	-0.254031	0.293028
Zn4	Zn	1.624811	0.245969	0.793028
Zn5	Zn	1.001871	-0.178916	0.293048
Zn6	Zn	1.501871	0.321084	0.793048
Zn7	Zn	1.001781	-0.254027	0.416053
Zn8	Zn	1.501781	0.245973	0.916053
O9	O	1.063345	-0.216474	0.354557
O10	O	1.563345	0.283526	0.854557
O11	O	1.227888	-0.188890	0.399786
O12	O	1.727888	0.311110	0.899786
O13	O	1.108496	-0.244066	0.190047
O14	O	1.608496	0.255934	0.690047
O15	O	1.018276	-0.116050	0.309400
O16	O	1.518276	0.383950	0.809400
O17	O	1.227810	-0.244072	0.309366
O18	O	1.727810	0.255928	0.809366
O19	O	1.108678	-0.116054	0.399806
O20	O	1.608678	0.383946	0.899806
O21	O	1.018172	-0.188880	0.190061
O22	O	1.518172	0.311120	0.690061
O23	O	0.898875	-0.188876	0.309353
O24	O	1.398875	0.311124	0.809353
O25	O	1.018122	-0.244065	0.519044
O26	O	1.518122	0.255935	1.019044
O27	O	0.898808	-0.244059	0.399724
O28	O	1.398808	0.255941	0.899724
O29	O	1.108590	-0.188886	0.519079
O30	O	1.608590	0.311114	1.019079
O31	O	1.108409	-0.316898	0.309319
O32	O	1.608409	0.183102	0.809319
O33	O	1.018019	-0.316894	0.399705
O34	O	1.518019	0.183106	0.899705
C35	C	0.872139	-0.216466	0.354536
C36	C	1.372139	0.283534	0.854536
C37	C	0.790340	-0.216474	0.354545
C38	C	1.290340	0.283526	0.854545
C39	C	0.602131	-0.245253	0.401542
C40	C	1.102131	0.254747	0.901542
C41	C	0.525272	-0.245254	0.401551
C42	C	1.025272	0.254746	0.901551
C43	C	0.525311	-0.187703	0.307589
C44	C	1.025311	0.312297	0.807589
C45	C	0.602169	-0.187700	0.307584
C46	C	1.102169	0.312300	0.807584
C47	C	0.640576	-0.216477	0.354559
C48	C	1.140576	0.283523	0.854559
C49	C	0.486860	-0.216482	0.354574
C50	C	0.986860	0.283518	0.854574
C51	C	0.403527	-0.216483	0.354583
C52	C	0.903527	0.283517	0.854583
C53	C	0.723915	-0.216476	0.354551
C54	C	1.223915	0.283524	0.854551
C55	C	1.063212	-0.333197	0.354521
C56	C	1.563212	0.166803	0.854521
C57	C	1.063223	-0.383131	0.354530
C58	C	1.563223	0.116869	0.854530
C59	C	1.110497	-0.692764	0.307562
C60	C	1.610497	-0.192764	0.807562
C61	C	1.110588	-0.880437	0.307591
C62	C	1.610588	-0.380437	0.807591
O63	O	1.150676	-0.904692	0.267629
O64	O	1.650676	-0.404692	0.767629
N65	N	1.063498	-0.903916	0.354613
N66	N	1.563498	-0.403916	0.854613
C67	C	1.016385	-0.880475	0.401635
C68	C	1.516385	-0.380475	0.901635
O69	O	0.976340	-0.904752	0.441636
O70	O	1.476340	-0.404752	0.941636
C71	C	1.016299	-0.692802	0.401609
C72	C	1.516299	-0.192802	0.901609
C73	C	1.063386	-0.669325	0.354579
C74	C	1.563386	-0.169325	0.854579
C75	C	1.157581	-0.669286	0.260536
C76	C	1.657581	-0.169286	0.760536
C77	C	1.157555	-0.622371	0.260527
C78	C	1.657555	-0.122371	0.760527
C79	C	1.110445	-0.598933	0.307543
C80	C	1.610445	-0.098933	0.807543
C81	C	1.063360	-0.622410	0.354569
C82	C	1.563360	-0.122410	0.854569
C83	C	0.969190	-0.669362	0.448634
C84	C	1.469190	-0.169362	0.948634
C85	C	0.969174	-0.622441	0.448625
C86	C	1.469174	-0.122441	0.948625
C87	C	1.016262	-0.598964	0.401594
C88	C	1.516262	-0.098964	0.901594
C89	C	1.016224	-0.552056	0.401576
C90	C	1.516224	-0.052056	0.901576
N91	N	1.063314	-0.528577	0.354554
N92	N	1.563314	-0.028577	0.854554
C93	C	1.110424	-0.552015	0.307538
C94	C	1.610424	-0.052015	0.807538
C95	C	1.016433	-0.979005	0.401644
C96	C	1.516433	-0.479005	0.901644
C97	C	1.016453	-1.025923	0.401649
C98	C	1.516453	-0.525923	0.901649
C99	C	1.110657	-1.025882	0.307606
C100	C	1.610657	-0.525882	0.807606
C101	C	1.110632	-0.978963	0.307597
C102	C	1.610632	-0.478963	0.807597
C103	C	1.063523	-0.955526	0.354622
C104	C	1.563523	-0.455526	0.854622
C105	C	1.110365	-0.453489	0.307521
C106	C	1.610365	0.046511	0.807521
C107	C	1.110333	-0.406569	0.307513
C108	C	1.610333	0.093431	0.807513
C109	C	1.016133	-0.406615	0.401559
C110	C	1.516133	0.093385	0.901559
C111	C	1.016162	-0.453530	0.401564
C112	C	1.516162	0.046470	0.901564
C113	C	1.063284	-0.476966	0.354542
C114	C	1.563284	0.023034	0.854542
O115	O	0.976162	-0.527772	0.441523
O116	O	1.476162	-0.027772	0.941523
O117	O	1.150475	-0.527730	0.267554
O118	O	1.650475	-0.027730	0.767554
C119	C	1.110523	-0.739679	0.307572
C120	C	1.610523	-0.239679	0.807572
C121	C	1.063438	-0.763156	0.354598
C122	C	1.563438	-0.263156	0.854598
C123	C	1.016328	-0.739718	0.401614
C124	C	1.516328	-0.239718	0.901614
C125	C	1.063459	-0.810074	0.354603
C126	C	1.563459	-0.310074	0.854603
C127	C	1.110569	-0.833512	0.307587
C128	C	1.610569	-0.333512	0.807587
C129	C	1.157659	-0.810033	0.260565
C130	C	1.657659	-0.310033	0.760565
C131	C	1.157633	-0.763117	0.260555
C132	C	1.657633	-0.263117	0.760555
C133	C	0.969238	-0.763197	0.448636
C134	C	1.469238	-0.263197	0.948636
C135	C	0.969267	-0.810113	0.448641
C136	C	1.469267	-0.310113	0.948641
C137	C	1.016378	-0.833551	0.401625
C138	C	1.516378	-0.333551	0.901625
C139	C	1.255298	-0.216482	0.354579
C140	C	1.755298	0.283518	0.854579
C141	C	1.337097	-0.216486	0.354588
C142	C	1.837097	0.283514	0.854588
C143	C	1.063358	-0.216475	0.546510
C144	C	1.563358	0.283525	1.046510
C145	C	1.063363	-0.216476	0.628309
C146	C	1.563363	0.283524	1.128309
C147	C	1.063498	-0.099296	0.354610
C148	C	1.563498	0.400704	0.854610
C149	C	1.063564	-0.049361	0.354633
C150	C	1.563564	0.450639	0.854633
C151	C	1.110455	-0.187749	0.816523
C152	C	1.610455	0.312251	1.316523
C153	C	1.110451	-0.187749	0.893381
C154	C	1.610451	0.312251	1.393381
C155	C	1.016247	-0.245209	0.893334
C156	C	1.516247	0.254791	1.393334
C157	C	1.016248	-0.245207	0.816476
C158	C	1.516248	0.254793	1.316476
C159	C	1.063356	-0.216477	0.778073
C160	C	1.563356	0.283523	1.278073
C161	C	1.063351	-0.216480	0.931789
C162	C	1.563351	0.283520	1.431789
C163	C	1.063346	-0.216480	1.015122
C164	C	1.563346	0.283520	1.515122
C165	C	1.063360	-0.216477	0.694734
C166	C	1.563360	0.283523	1.194734
C167	C	1.063333	-0.216483	1.163351
C168	C	1.563333	0.283517	1.663351
C169	C	1.063344	-0.216481	1.081552
C170	C	1.563344	0.283519	1.581552
H171	H	0.493973	-0.268686	0.439810
H172	H	0.993973	0.231314	0.939810
F173	F	0.643004	-0.275879	0.451539
F174	F	1.143004	0.224121	0.951539
H175	H	0.930876	-0.744118	0.486924
H176	H	1.430876	-0.244118	0.986924
F177	F	0.966033	-0.478517	0.451605
F178	F	1.466033	0.021483	0.951605
H179	H	0.494031	-0.164275	0.269342
H180	H	0.994031	0.335725	0.769342
F181	F	0.643088	-0.157069	0.257580
F182	F	1.143088	0.342931	0.757580
F183	F	0.965999	-0.381662	0.451597
F184	F	1.465999	0.118338	0.951597
H185	H	0.930843	-0.688469	0.486928
H186	H	1.430843	-0.188469	0.986928
F187	F	1.207796	-0.834986	0.210524
F188	F	1.707796	-0.334986	0.710524
F189	F	0.966116	-0.275785	0.934212
F190	F	1.466116	0.224215	1.434212
F191	F	0.919144	-0.835094	0.498700
F192	F	1.419144	-0.335094	0.998700
H193	H	0.977889	-0.268601	0.785170
H194	H	1.477889	0.231399	1.285170
H195	H	0.978103	-1.045034	0.439939
H196	H	1.478103	-0.545034	0.939939
F197	F	1.160590	-0.157171	0.775653
F198	F	1.660590	0.342829	1.275653
H199	H	1.148677	-0.387456	0.269213
H200	H	1.648677	0.112544	0.769213
H201	H	1.148739	-0.472565	0.269233
H202	H	1.648739	0.027435	0.769233
H203	H	1.195900	-0.603258	0.222233
H204	H	1.695900	-0.103258	0.722233
H205	H	1.195948	-0.688365	0.222250
H206	H	1.695948	-0.188365	0.722250
F207	F	1.160749	-0.953981	0.257542
F208	F	1.660749	-0.453981	0.757542
H209	H	1.149016	-1.044973	0.269324
H210	H	1.649016	-0.544973	0.769324
F211	F	0.966288	-0.954067	0.451696
F212	F	1.466288	-0.454067	0.951696
H213	H	0.930813	-0.603360	0.486920
H214	H	1.430813	-0.103360	0.986920
H215	H	1.195977	-0.744005	0.222259
H216	H	1.695977	-0.244005	0.722259
H217	H	1.148803	-0.164354	0.924684
H218	H	1.648803	0.335646	1.424684
