data_functionalizedCrystal
_audit_creation_method	'MofGen! by Chris Wilmer'
_symmetry_space_group_name_H-M	'P1'
_symmetry_Int_Tables_number	1
_symmetry_cell_setting	triclinic
loop_
_symmetry_equiv_pos_as_xyz
  x,y,z
_cell_length_a	12.759401
_cell_length_b	12.759400
_cell_length_c	12.759393
_cell_angle_alpha	89.973891
_cell_angle_beta	90.022097
_cell_angle_gamma	89.997691
loop_
_atom_site_label
_atom_site_type_symbol
_atom_site_fract_x
_atom_site_fract_y
_atom_site_fract_z
Zn1	Zn	-1.606340	-0.418226	-0.594124
Zn2	Zn	-1.606270	-0.593945	-0.418461
Zn3	Zn	-1.430642	-0.418278	-0.418452
Zn4	Zn	-1.430666	-0.593861	-0.594091
O5	O	-1.518479	-0.506078	-0.506282
O6	O	-1.753351	-0.441549	-0.570839
O7	O	-1.582933	-0.570699	-0.271438
O8	O	-1.453968	-0.271250	-0.441765
O9	O	-1.753300	-0.570649	-0.441780
O10	O	-1.583052	-0.271212	-0.570830
O11	O	-1.453900	-0.441638	-0.271432
O12	O	-1.283624	-0.441556	-0.441733
O13	O	-1.454009	-0.570506	-0.741116
O14	O	-1.283642	-0.570556	-0.570775
O15	O	-1.583075	-0.441467	-0.741141
O16	O	-1.582956	-0.740955	-0.441748
O17	O	-1.453941	-0.740893	-0.570783
C18	C	-1.245512	-0.506054	-0.506250
C19	C	-1.128735	-0.506069	-0.506262
C20	C	-0.964117	-0.573196	-0.438983
C21	C	-1.073841	-0.573183	-0.438968
C22	C	-1.073899	-0.438956	-0.573568
C23	C	-0.964177	-0.438965	-0.573577
C24	C	-1.223735	-0.610563	-0.314989
C25	C	-1.278567	-0.677685	-0.247695
C26	C	-1.242952	-0.780183	-0.231400
C27	C	-1.152508	-0.815580	-0.282414
C28	C	-1.097681	-0.748464	-0.349716
C29	C	-1.133294	-0.645951	-0.365991
C30	C	-0.814282	-0.401595	-0.697557
C31	C	-0.759453	-0.334483	-0.764865
C32	C	-0.795066	-0.231984	-0.781170
C33	C	-0.885514	-0.196590	-0.730175
C34	C	-0.940342	-0.263702	-0.662867
C35	C	-0.904722	-0.366201	-0.646560
C36	C	-1.518472	-0.779045	-0.506286
C37	C	-1.518565	-0.895822	-0.506323
C38	C	-1.518553	-0.505971	-0.780315
C39	C	-1.518584	-0.505926	-0.897092
C40	C	-0.792512	-0.506097	-0.506304
C41	C	-0.909289	-0.506091	-0.506286
C42	C	-1.518515	-0.232044	-0.506301
C43	C	-1.518530	-0.115268	-0.506308
C44	C	-1.451366	-0.060376	-0.573490
C45	C	-1.451385	0.049348	-0.573501
C46	C	-1.585737	0.049279	-0.439138
C47	C	-1.585722	-0.060443	-0.439134
C48	C	-1.413899	0.199354	-0.697407
C49	C	-1.346718	0.254249	-0.764579
C50	C	-1.244203	0.218655	-0.780694
C51	C	-1.208847	0.128167	-0.729621
C52	C	-1.276023	0.073277	-0.662441
C53	C	-1.378553	0.108870	-0.646346
C54	C	-1.623198	-0.210450	-0.315226
C55	C	-1.690369	-0.265342	-0.248040
C56	C	-1.792886	-0.229750	-0.231914
C57	C	-1.828237	-0.139259	-0.282969
C58	C	-1.761066	-0.084367	-0.350155
C59	C	-1.658550	-0.119967	-0.366282
C60	C	-1.451420	-0.438711	-0.951950
C61	C	-1.451445	-0.438679	-1.061674
C62	C	-1.585805	-0.573079	-1.061673
C63	C	-1.585775	-0.573116	-0.951950
C64	C	-1.327587	-0.401077	-1.211616
C65	C	-1.260433	-0.333846	-1.266478
C66	C	-1.244308	-0.231342	-1.230877
C67	C	-1.295352	-0.196048	-1.140417
C68	C	-1.362514	-0.263274	-1.085561
C69	C	-1.378619	-0.365792	-1.121159
C70	C	-1.709634	-0.610707	-0.802007
C71	C	-1.776802	-0.677928	-0.747149
C72	C	-1.792938	-0.780434	-0.782747
C73	C	-1.741912	-0.815724	-0.873211
C74	C	-1.674744	-0.748503	-0.928069
C75	C	-1.658606	-0.645998	-0.892463
C76	C	-1.518467	-0.506108	-0.233314
C77	C	-1.518639	-0.505857	-0.116538
H78	H	-0.785278	-0.485061	-0.684288
H79	H	-1.014129	-0.234955	-0.621535
Br80	Br	-1.676989	-0.664260	-1.136130
H81	H	-0.919431	-0.627853	-0.384190
H82	H	-0.914513	-0.113127	-0.743454
H83	H	-1.189629	-0.176602	-1.275554
Br84	Br	-1.642388	-0.388148	-0.178741
H85	H	-1.847642	-0.835160	-0.738077
Br86	Br	-1.763818	-0.954839	-0.921537
H87	H	-1.640442	0.093928	-0.384445
Br88	Br	-1.069704	0.079877	-0.751477
Br89	Br	-1.809040	0.038449	-0.419439
Br90	Br	-1.153030	0.293160	-0.871855
H91	H	-0.750419	-0.177345	-0.835987
H92	H	-1.404078	-0.234536	-1.011913
H93	H	-1.340697	-0.484548	-1.240602
Br94	Br	-0.974944	-0.796492	-0.418949
Br95	Br	-1.360178	-0.134778	-0.664655
Br96	Br	-1.967366	-0.090940	-0.261074
Br97	Br	-1.273484	-0.056919	-1.092120
Br98	Br	-1.191162	-0.381742	-1.389242
H99	H	-1.252734	-0.527098	-0.328240
H100	H	-1.247238	-0.000397	-0.620860
H101	H	-1.818361	-0.649181	-0.673496
H102	H	-1.633198	-0.777244	-1.001731
H103	H	-1.847572	-0.274449	-0.177198
Br104	Br	-1.401311	-0.629649	-0.178466
H105	H	-1.118602	-0.384306	-0.628355
H106	H	-1.696472	-0.527249	-0.772993
H107	H	-0.685809	-0.363312	-0.806393
Br108	Br	-1.394698	0.377049	-0.833891
H109	H	-1.497379	0.228334	-0.684306
H110	H	-1.539722	-0.239444	-0.328358
Br111	Br	-1.360231	-0.347528	-0.877503
H112	H	-1.123525	-0.899049	-0.269151
H113	H	-1.287605	-0.834834	-0.176608
