data_functionalizedCrystal
_audit_creation_method	'MofGen! by Chris Wilmer'
_symmetry_space_group_name_H-M	'P1'
_symmetry_Int_Tables_number	1
_symmetry_cell_setting	triclinic
loop_
_symmetry_equiv_pos_as_xyz
  x,y,z
_cell_length_a	17.077404
_cell_length_b	17.077402
_cell_length_c	17.077396
_cell_angle_alpha	89.971638
_cell_angle_beta	89.983895
_cell_angle_gamma	90.021463
loop_
_atom_site_label
_atom_site_type_symbol
_atom_site_fract_x
_atom_site_fract_y
_atom_site_fract_z
Zn1	Zn	1.200034	-0.312544	-0.443824
Zn2	Zn	1.199945	-0.443821	-0.312560
Zn3	Zn	1.068771	-0.312568	-0.312575
Zn4	Zn	1.068732	-0.443767	-0.443786
O5	O	1.134370	-0.378175	-0.378186
O6	O	1.309869	-0.329971	-0.426421
O7	O	1.182523	-0.426443	-0.202715
O8	O	1.086237	-0.202718	-0.330007
O9	O	1.309803	-0.426419	-0.329982
O10	O	1.182675	-0.202700	-0.426435
O11	O	1.086150	-0.330012	-0.202726
O12	O	0.958919	-0.329960	-0.329970
O13	O	1.086171	-0.426328	-0.553638
O14	O	0.958890	-0.426351	-0.426371
O15	O	1.182638	-0.329919	-0.553666
O16	O	1.182486	-0.553661	-0.329946
O17	O	1.086084	-0.553621	-0.426357
C18	C	0.930423	-0.378153	-0.378169
C19	C	0.843173	-0.378162	-0.378180
C20	C	0.802217	-0.328031	-0.428472
C21	C	0.720237	-0.328036	-0.428476
C22	C	0.679213	-0.378177	-0.378190
C23	C	0.720174	-0.428311	-0.327892
C24	C	0.802153	-0.428301	-0.327885
C25	C	0.549304	-0.428328	-0.327912
C26	C	0.467320	-0.428339	-0.327920
C27	C	0.467388	-0.328063	-0.428502
C28	C	0.549367	-0.328054	-0.428495
C29	C	0.590322	-0.378189	-0.378198
C30	C	1.134292	-0.582123	-0.378163
C31	C	1.134331	-0.669373	-0.378179
C32	C	1.184519	-0.710286	-0.428430
C33	C	1.184552	-0.792267	-0.428447
C34	C	1.134400	-0.833332	-0.378208
C35	C	1.084207	-0.792413	-0.327955
C36	C	1.084170	-0.710434	-0.327943
C37	C	1.084287	-0.963283	-0.327983
C38	C	1.084324	-1.045268	-0.327994
C39	C	1.184669	-1.045116	-0.428486
C40	C	1.184633	-0.963137	-0.428474
C41	C	1.134440	-0.922223	-0.378220
C42	C	1.339115	-0.378198	-0.378204
C43	C	1.426364	-0.378208	-0.378212
C44	C	1.134410	-0.378114	-0.582931
C45	C	1.134427	-0.378089	-0.670181
C46	C	1.134470	-0.173431	-0.378227
C47	C	1.134512	-0.086181	-0.378244
C48	C	1.084261	-0.327871	-0.711176
C49	C	1.084273	-0.327853	-0.793156
C50	C	1.134457	-0.378050	-0.834140
C51	C	1.184625	-0.428272	-0.793139
C52	C	1.184608	-0.428294	-0.711160
C53	C	1.184659	-0.428223	-0.964009
C54	C	1.184678	-0.428201	-1.045994
C55	C	1.084325	-0.327783	-1.046005
C56	C	1.084307	-0.327804	-0.964026
C57	C	1.134477	-0.378026	-0.923031
C58	C	1.134376	-0.378179	-0.174238
C59	C	1.134512	-0.377984	-0.086989
H60	H	0.582766	-0.287229	-0.469447
Br61	Br	1.016052	-0.654908	-0.259746
Br62	Br	1.252792	-0.496318	-1.101615
Br63	Br	1.016145	-0.259741	-0.848790
H64	H	1.043447	-0.286926	-0.930659
H65	H	0.686766	-0.469133	-0.286945
H66	H	1.225519	-0.469113	-0.930634
Br67	Br	1.252592	-0.654562	-0.496609
H68	H	0.433920	-0.469169	-0.286973
H69	H	1.043476	-0.286889	-1.079387
Br70	Br	1.016156	-0.259738	-0.655562
H71	H	0.582648	-0.469152	-0.286953
Br72	Br	1.252654	-0.847789	-0.496661
H73	H	1.225474	-0.929701	-0.469378
H74	H	1.225481	-0.469147	-0.826515
H75	H	0.835498	-0.469123	-0.286932
H76	H	0.434038	-0.287240	-0.469455
Br77	Br	1.252793	-1.100639	-0.496684
H78	H	1.043483	-1.078701	-0.287088
H79	H	1.043412	-0.929974	-0.287063
H80	H	1.043369	-0.825855	-0.287053
H81	H	0.835613	-0.287202	-0.469423
Br82	Br	0.664657	-0.259998	-0.496734
Br83	Br	1.252687	-0.496455	-0.655523
