data_functionalizedCrystal
_audit_creation_method	'MofGen! by Chris Wilmer'
_symmetry_space_group_name_H-M	'P1'
_symmetry_Int_Tables_number	1
_symmetry_cell_setting	triclinic
loop_
_symmetry_equiv_pos_as_xyz
  x,y,z
_cell_length_a	17.038272
_cell_length_b	15.995350
_cell_length_c	15.072220
_cell_angle_alpha	90.008851
_cell_angle_beta	89.999202
_cell_angle_gamma	92.698034
loop_
_atom_site_label
_atom_site_type_symbol
_atom_site_fract_x
_atom_site_fract_y
_atom_site_fract_z
O1	O	0.100774	-1.118174	-0.073708
O2	O	0.600774	-0.618174	0.426292
O3	O	0.113219	-0.875285	-0.073726
O4	O	0.613219	-0.375285	0.426274
O5	O	-0.006819	-0.995286	-0.073710
O6	O	0.493181	-0.495286	0.426290
O7	O	0.220812	-0.998173	-0.073724
O8	O	0.720812	-0.498173	0.426276
O9	O	-0.006813	-0.995255	0.073855
O10	O	0.493187	-0.495255	0.573855
O11	O	0.113226	-0.875254	0.073839
O12	O	0.613226	-0.375254	0.573839
O13	O	0.100781	-1.118143	0.073857
O14	O	0.600781	-0.618143	0.573857
Zn15	Zn	0.107004	-0.996694	0.097277
Zn16	Zn	0.607004	-0.496694	0.597277
Zn17	Zn	0.106995	-0.996735	-0.097146
Zn18	Zn	0.606995	-0.496735	0.402854
O19	O	0.220819	-0.998142	0.073841
O20	O	0.720819	-0.498142	0.573841
C21	C	0.112708	-0.844038	0.000054
C22	C	0.612708	-0.344038	0.500054
C23	C	0.111165	-0.750978	0.000047
C24	C	0.611165	-0.250978	0.500047
C25	C	-0.035945	-0.992645	0.000072
C26	C	0.464055	-0.492645	0.500072
C27	C	-0.122740	-0.984810	0.000071
C28	C	0.377260	-0.484810	0.500071
C29	C	0.101292	-1.149390	0.000075
C30	C	0.601292	-0.649390	0.500075
C31	C	0.102834	-1.242450	0.000076
C32	C	0.602834	-0.742450	0.500076
C33	C	-0.172836	-1.056739	0.000078
C34	C	0.327164	-0.556739	0.500078
C35	C	-0.254389	-1.049373	0.000069
C36	C	0.245611	-0.549373	0.500069
C37	C	-0.285843	-0.970077	0.000060
C38	C	0.214157	-0.470077	0.500060
C39	C	-0.235740	-0.898143	0.000051
C40	C	0.264260	-0.398143	0.500051
C41	C	-0.154189	-0.905510	0.000053
C42	C	0.345811	-0.405510	0.500053
C43	C	-0.531607	-0.944051	0.000046
C44	C	-0.031607	-0.444051	0.500046
C45	C	-0.613164	-0.936689	0.000046
C46	C	-0.113164	-0.436689	0.500046
C47	C	-0.631807	-1.087920	0.000062
C48	C	-0.131807	-0.587920	0.500062
C49	C	-0.550254	-1.095280	0.000070
C50	C	-0.050254	-0.595280	0.500070
C51	C	-0.500158	-1.023346	0.000056
C52	C	-0.000158	-0.523346	0.500056
C53	C	-0.369202	-0.962546	0.000053
C54	C	0.130798	-0.462546	0.500053
C55	C	-0.416801	-1.030878	0.000056
C56	C	0.083199	-0.530878	0.500056
C57	C	0.249944	-1.000784	0.000057
C58	C	0.749944	-0.500784	0.500057
C59	C	0.336739	-1.008618	0.000052
C60	C	0.836739	-0.508618	0.500052
N61	N	0.107010	-0.996671	0.229966
N62	N	0.607010	-0.496671	0.729966
C63	C	0.105626	-0.412836	0.000066
C64	C	0.605626	0.087164	0.500066
C65	C	0.020137	-0.454180	0.000400
C66	C	0.520137	0.045820	0.500400
C67	C	0.021680	-0.550981	0.000062
C68	C	0.521680	-0.050981	0.500062
C69	C	0.108374	-0.580592	0.000057
C70	C	0.608374	-0.080592	0.500057
C71	C	0.150536	-0.542527	-0.084209
C72	C	0.650536	-0.042527	0.415791
C73	C	0.148388	-0.445738	-0.084273
C74	C	0.648388	0.054262	0.415727
C75	C	0.150162	-0.445489	0.083536
C76	C	0.650162	0.054511	0.583536
C77	C	0.150142	-0.542433	0.084644
C78	C	0.650142	-0.042433	0.584644
C79	C	0.109931	-0.675401	0.000049
C80	C	0.609931	-0.175401	0.500049
C81	C	0.104071	-0.318027	0.000068
C82	C	0.604071	0.181973	0.500068
N83	N	0.106984	-0.996763	-0.229835
N84	N	0.606984	-0.496763	0.270165
C85	C	0.106992	-0.996733	0.589168
C86	C	0.606992	-0.496733	1.089168
C87	C	0.171007	-0.932276	0.551552
C88	C	0.671007	-0.432276	1.051552
C89	C	0.171241	-0.932451	0.448726
C90	C	0.671241	-0.432451	0.948726
C91	C	0.107001	-0.996702	0.410963
C92	C	0.607001	-0.496702	0.910963
C93	C	0.124819	-1.085336	0.448260
C94	C	0.624819	-0.585336	0.948260
C95	C	0.125274	-1.084981	0.551118
C96	C	0.625274	-0.584981	1.051118
C97	C	0.024970	-0.973321	0.551271
C98	C	0.524970	-0.473321	1.051271
C99	C	0.025517	-0.971355	0.448408
C100	C	0.525517	-0.471355	0.948408
C101	C	0.107004	-0.996689	0.310250
C102	C	0.607004	-0.496689	0.810250
C103	C	0.106991	-0.996751	0.689881
C104	C	0.606991	-0.496751	1.189881
H105	H	-0.147233	-1.121310	0.000090
H106	H	0.352767	-0.621310	0.500090
N107	N	0.233647	-0.409353	0.084290
N108	N	0.733647	0.090647	0.584290
H109	H	0.243036	-0.375525	0.140196
H110	H	0.743036	0.124475	0.640196
H111	H	0.271178	-0.456344	0.082284
H112	H	0.771178	0.043656	0.582284
H113	H	0.007836	-0.909778	0.577258
H114	H	0.507836	-0.409778	1.077258
N115	N	0.007627	-0.884924	0.416183
N116	N	0.507627	-0.384924	0.916183
H117	H	0.052110	-0.862278	0.377482
H118	H	0.552110	-0.362278	0.877482
H119	H	-0.042740	-0.888010	0.380756
H120	H	0.457260	-0.388010	0.880756
N121	N	-0.025126	-0.426412	0.080450
N122	N	0.474874	0.073588	0.580450
H123	H	0.009341	-0.386758	0.117276
H124	H	0.509341	0.113242	0.617276
H125	H	-0.073196	-0.397052	0.060281
H126	H	0.426804	0.102948	0.560281
N127	N	-0.040544	-1.028913	0.414378
N128	N	0.459456	-0.528913	0.914378
H129	H	-0.018489	-1.072430	0.374027
H130	H	0.481511	-0.572430	0.874027
H131	H	-0.068222	-1.057520	0.466132
H132	H	0.431778	-0.557520	0.966132
N133	N	0.064715	-1.150720	0.415857
N134	N	0.564715	-0.650720	0.915857
H135	H	0.036714	-1.177687	0.468338
H136	H	0.536714	-0.677687	0.968338
H137	H	0.025309	-1.123393	0.376580
H138	H	0.525309	-0.623393	0.876580
H139	H	-0.011462	-0.577036	0.060467
H140	H	0.488538	-0.077036	0.560467
N141	N	0.157182	-0.845432	0.415317
N142	N	0.657182	-0.345432	0.915317
H143	H	0.150778	-0.806613	0.467407
H144	H	0.650778	-0.306613	0.967407
H145	H	0.203440	-0.824667	0.378191
H146	H	0.703440	-0.324667	0.878191
H147	H	-0.022668	-1.020258	0.575596
H148	H	0.477332	-0.520258	1.075596
N149	N	-0.308422	-1.126952	0.000081
N150	N	0.191578	-0.626952	0.500081
H151	H	-0.276121	-1.178303	0.000095
H152	H	0.223879	-0.678303	0.500095
H153	H	-0.342664	-1.127170	0.054785
H154	H	0.157336	-0.627170	0.554785
H155	H	-0.394821	-0.897983	0.000048
H156	H	0.105179	-0.397983	0.500048
N157	N	-0.024926	-0.425013	-0.079188
N158	N	0.475074	0.074987	0.420812
H159	H	0.002801	-0.441500	-0.135318
H160	H	0.502801	0.058500	0.364682
H161	H	-0.079770	-0.451864	-0.078394
H162	H	0.420230	0.048136	0.421606
N163	N	-0.382877	-1.116400	0.000076
N164	N	0.117123	-0.616400	0.500076
H165	H	-0.426985	-1.160855	0.000084
H166	H	0.073015	-0.660855	0.500084
H167	H	-0.349445	-1.122765	-0.054626
H168	H	0.150555	-0.622765	0.445374
N169	N	0.107644	-0.418592	-0.167696
N170	N	0.607644	0.081408	0.332304
H171	H	0.144759	-0.380866	-0.203541
H172	H	0.644759	0.119134	0.296459
H173	H	0.091246	-0.469529	-0.204016
H174	H	0.591246	0.030471	0.295984
H175	H	-0.261356	-0.833579	0.000038
H176	H	0.238644	-0.333579	0.500038
N177	N	0.231523	-0.408935	-0.089308
N178	N	0.731523	0.091065	0.410692
H179	H	0.269402	-0.455601	-0.091484
H180	H	0.769402	0.044399	0.408516
H181	H	0.237802	-0.373491	-0.144528
H182	H	0.737802	0.126509	0.355472
H183	H	-0.113400	-0.846938	0.000048
H184	H	0.386600	-0.346938	0.500048
H185	H	-0.524651	-1.159850	0.000077
H186	H	-0.024651	-0.659850	0.500077
H187	H	-0.490828	-0.885477	0.000035
H188	H	0.009172	-0.385477	0.500035
N189	N	0.233888	-0.568738	0.091385
N190	N	0.733888	-0.068738	0.591385
H191	H	0.240956	-0.600440	0.148558
H192	H	0.740956	-0.100440	0.648558
H193	H	0.245938	-0.605897	0.039428
H194	H	0.745938	-0.105897	0.539428
H195	H	0.121246	-0.568828	-0.146918
H196	H	0.621246	-0.068828	0.353082
H197	H	-0.011692	-0.576474	-0.060445
H198	H	0.488308	-0.076474	0.439555
H199	H	0.214228	-0.561189	-0.087345
H200	H	0.714228	-0.061189	0.412655
N201	N	0.113149	-0.415639	0.168145
N202	N	0.613149	0.084361	0.668145
H203	H	0.067132	-0.380641	0.153221
H204	H	0.567132	0.119359	0.653221
H205	H	0.094318	-0.465551	0.204708
H206	H	0.594318	0.034449	0.704708
N207	N	0.203154	-1.111912	0.414129
N208	N	0.703154	-0.611912	0.914129
H209	H	0.239395	-1.121329	0.465833
H210	H	0.739395	-0.621329	0.965833
H211	H	0.195279	-1.165516	0.379158
H212	H	0.695279	-0.665516	0.879158
N213	N	-0.685838	-1.165502	0.000078
N214	N	-0.185838	-0.665502	0.500078
H215	H	-0.742273	-1.148806	0.000076
H216	H	-0.242273	-0.648806	0.500076
H217	H	-0.675653	-1.199822	-0.054622
H218	H	-0.175653	-0.699822	0.445378
H219	H	0.232108	-0.948006	0.424110
H220	H	0.732108	-0.448006	0.924110
N221	N	0.157186	-0.844989	0.584344
N222	N	0.657186	-0.344989	1.084344
H223	H	0.109296	-0.846377	0.623904
H224	H	0.609296	-0.346377	1.123904
H225	H	0.204548	-0.823113	0.619011
H226	H	0.704548	-0.323113	1.119011
H227	H	0.119364	-0.567544	0.146983
H228	H	0.619364	-0.067544	0.646983
H229	H	0.231532	-0.947652	0.577388
H230	H	0.731532	-0.447652	1.077388
N231	N	0.204507	-1.111126	0.582899
N232	N	0.704507	-0.611126	1.082899
H233	H	0.214137	-1.169202	0.560306
H234	H	0.714137	-0.669202	1.060306
H235	H	0.246829	-1.070483	0.559774
H236	H	0.746829	-0.570483	1.059774
N237	N	0.065855	-1.150795	0.584109
N238	N	0.565855	-0.650795	1.084109
H239	H	0.011894	-1.137845	0.561715
H240	H	0.511894	-0.637845	1.061715
H241	H	0.080233	-1.207545	0.561590
H242	H	0.580233	-0.707545	1.061590
H243	H	-0.638770	-0.872114	0.000053
H244	H	-0.138770	-0.372114	0.500053
