data_functionalizedCrystal
_audit_creation_method	'MofGen! by Chris Wilmer'
_symmetry_space_group_name_H-M	'P1'
_symmetry_Int_Tables_number	1
_symmetry_cell_setting	triclinic
loop_
_symmetry_equiv_pos_as_xyz
  x,y,z
_cell_length_a	21.295418
_cell_length_b	29.839131
_cell_length_c	21.295396
_cell_angle_alpha	89.895379
_cell_angle_beta	89.913243
_cell_angle_gamma	90.057233
loop_
_atom_site_label
_atom_site_type_symbol
_atom_site_fract_x
_atom_site_fract_y
_atom_site_fract_z
Zn1	Zn	0.962576	-0.178341	-0.356240
Zn2	Zn	0.962379	-0.253567	-0.250968
Zn3	Zn	0.857220	-0.178472	-0.250950
Zn4	Zn	0.857249	-0.253465	-0.356164
O5	O	0.909856	-0.215961	-0.303581
O6	O	1.050639	-0.188307	-0.342315
O7	O	0.948335	-0.243703	-0.162876
O8	O	0.871266	-0.115588	-0.264941
O9	O	1.050495	-0.243575	-0.264972
O10	O	0.948671	-0.115491	-0.342298
O11	O	0.871075	-0.188532	-0.162862
O12	O	0.769134	-0.188433	-0.264867
O13	O	0.871315	-0.243402	-0.444264
O14	O	0.769155	-0.243530	-0.342168
O15	O	0.948698	-0.188209	-0.444320
O16	O	0.948363	-0.316421	-0.264898
O17	O	0.871124	-0.316346	-0.342186
C18	C	0.746304	-0.215985	-0.303508
C19	C	0.676336	-0.216006	-0.303492
C20	C	0.643497	-0.244733	-0.343682
C21	C	0.577754	-0.244722	-0.343711
C22	C	0.544854	-0.215989	-0.303537
C23	C	0.577701	-0.187256	-0.263344
C24	C	0.643442	-0.187265	-0.263321
N25	N	0.441537	-0.212530	-0.248479
N26	N	0.379086	-0.212524	-0.248503
C27	C	0.346779	-0.215960	-0.303604
N28	N	0.379283	-0.219410	-0.358682
N29	N	0.441740	-0.219418	-0.358658
C30	C	0.473568	-0.215976	-0.303558
C31	C	0.242654	-0.244676	-0.343828
C32	C	0.176911	-0.244662	-0.343858
C33	C	0.176859	-0.187198	-0.263486
C34	C	0.242601	-0.187210	-0.263462
C35	C	0.275495	-0.215952	-0.303632
C36	C	0.909742	-0.332684	-0.303549
C37	C	0.909751	-0.382618	-0.303557
C38	C	0.950148	-0.692288	-0.263396
C39	C	0.950225	-0.879961	-0.263420
O40	O	0.984482	-0.904248	-0.229250
N41	N	0.909987	-0.903403	-0.303628
C42	C	0.869728	-0.879925	-0.343836
O43	O	0.835509	-0.904170	-0.378040
C44	C	0.869654	-0.692253	-0.343814
C45	C	0.909891	-0.668813	-0.303599
C46	C	0.990382	-0.668848	-0.223184
C47	C	0.990359	-0.621932	-0.223176
C48	C	0.950103	-0.598457	-0.263379
C49	C	0.909869	-0.621897	-0.303591
C50	C	0.829400	-0.668775	-0.384024
C51	C	0.829386	-0.621854	-0.384016
C52	C	0.869623	-0.598414	-0.343801
C53	C	0.869590	-0.551506	-0.343786
N54	N	0.909829	-0.528064	-0.303578
C55	C	0.950085	-0.551539	-0.263375
C56	C	0.869769	-0.978455	-0.343843
C57	C	0.869787	-1.025373	-0.343848
C58	C	0.950285	-1.025406	-0.263433
C59	C	0.950264	-0.978487	-0.263426
C60	C	0.910008	-0.955013	-0.303635
C61	C	0.950035	-0.453013	-0.263360
C62	C	0.950008	-0.406094	-0.263354
C63	C	0.869512	-0.406065	-0.343771
C64	C	0.869537	-0.452980	-0.343775
C65	C	0.909804	-0.476454	-0.303568
O66	O	0.835357	-0.527190	-0.377943
O67	O	0.984309	-0.527286	-0.229185
C68	C	0.950170	-0.739203	-0.263404
C69	C	0.909936	-0.762643	-0.303615
C70	C	0.869679	-0.739168	-0.343818
C71	C	0.909953	-0.809561	-0.303620
C72	C	0.950210	-0.833037	-0.263417
C73	C	0.990449	-0.809594	-0.223209
C74	C	0.990426	-0.762679	-0.223201
C75	C	0.829441	-0.762610	-0.384026
C76	C	0.829466	-0.809526	-0.384030
C77	C	0.869722	-0.833001	-0.343827
C78	C	1.074046	-0.215938	-0.303654
C79	C	1.144015	-0.215928	-0.303685
C80	C	0.910032	-0.215779	-0.467771
C81	C	0.910107	-0.215702	-0.537740
C82	C	0.909987	-0.098783	-0.303626
C83	C	0.910043	-0.048848	-0.303645
C84	C	0.909717	-0.216110	-0.140028
C85	C	0.909764	-0.216061	-0.070061
C86	C	0.950085	-0.186785	0.429195
C87	C	0.950041	-0.186826	0.363453
C88	C	0.910025	-0.215792	0.330778
C89	C	0.870038	-0.244711	0.363851
C90	C	0.870079	-0.244666	0.429592
N91	N	0.905487	-0.255213	0.227722
N92	N	0.905452	-0.255254	0.165270
C93	C	0.909898	-0.215930	0.132704
N94	N	0.914393	-0.176560	0.164948
N95	N	0.914431	-0.176519	0.227405
C96	C	0.909975	-0.215844	0.259493
C97	C	0.949831	-0.187055	0.028354
C98	C	0.949782	-0.187095	-0.037390
C99	C	0.869782	-0.244984	-0.036991
C100	C	0.869828	-0.244940	0.028751
C101	C	0.909855	-0.215976	0.061420
H102	H	0.551011	-0.268115	-0.376441
Br103	Br	0.688013	-0.148274	-0.208774
Br104	Br	0.774851	-0.841332	-0.438612
H105	H	0.837521	-0.268213	0.456513
Br106	Br	1.004872	-0.946681	-0.208846
Br107	Br	0.774802	-0.730758	-0.438594
Br108	Br	0.815725	-0.284020	0.319508
H109	H	0.269438	-0.268077	-0.376541
Br110	Br	0.132341	-0.283649	-0.398412
H111	H	0.982336	-0.163545	-0.064310
Br112	Br	0.533052	-0.148256	-0.208828
H113	H	0.982420	-0.163468	0.054954
Br114	Br	1.004617	-0.374285	-0.208771
Br115	Br	0.815465	-0.284291	-0.081329
Br116	Br	0.815569	-0.284188	0.073628
Br117	Br	0.815168	-1.057179	-0.398418
H118	H	0.670275	-0.268136	-0.376393
Br119	Br	1.004406	-0.147475	0.473528
Br120	Br	0.132215	-0.148198	-0.208969
Br121	Br	1.004683	-0.484862	-0.208793
Br122	Br	0.287172	-0.148221	-0.208915
H123	H	1.023126	-0.602850	-0.190432
Br124	Br	1.004286	-0.147568	0.318569
Br125	Br	1.045024	-0.700698	-0.168617
H126	H	0.983063	-1.044528	-0.230698
Br127	Br	0.815131	-0.946604	-0.398419
H128	H	0.796606	-0.602743	-0.416762
Br129	Br	0.814915	-0.484793	-0.398338
H130	H	0.796632	-0.687852	-0.416769
H131	H	0.836734	-0.386944	-0.376502
H132	H	1.023191	-0.743597	-0.190454
H133	H	1.023225	-0.828716	-0.190472
