data_functionalizedCrystal
_audit_creation_method	'MofGen! by Chris Wilmer'
_symmetry_space_group_name_H-M	'P1'
_symmetry_Int_Tables_number	1
_symmetry_cell_setting	triclinic
loop_
_symmetry_equiv_pos_as_xyz
  x,y,z
_cell_length_a	12.811438
_cell_length_b	10.654541
_cell_length_c	11.295483
_cell_angle_alpha	94.135029
_cell_angle_beta	91.289945
_cell_angle_gamma	84.263967
loop_
_atom_site_label
_atom_site_type_symbol
_atom_site_fract_x
_atom_site_fract_y
_atom_site_fract_z
O1	O	1.390270	0.173526	0.051134
O2	O	1.087140	0.189131	0.018392
O3	O	1.245675	-0.001383	0.035523
O4	O	1.231735	0.364040	0.034003
O5	O	1.231751	0.015324	0.232069
O6	O	1.073216	0.205838	0.214938
O7	O	1.376345	0.190233	0.247680
Cu8	Cu	1.223509	0.199561	0.249255
Cu9	Cu	1.239976	0.179803	0.016817
O10	O	1.217810	0.380747	0.230549
C11	C	1.041363	0.196096	0.112472
C12	C	0.925709	0.191946	0.099980
C13	C	0.770285	0.176990	-0.024751
C14	C	0.878954	0.180888	-0.013023
C15	C	0.863787	0.199102	0.201264
C16	C	0.755118	0.195204	0.189536
C17	C	0.708371	0.184150	0.076525
C18	C	0.599699	0.180261	0.064798
C19	C	0.584536	0.198466	0.279084
C20	C	0.693204	0.202364	0.290812
C21	C	1.237690	-0.039831	0.133685
C22	C	1.234629	-0.179287	0.133352
C23	C	1.424200	-0.206505	0.153844
C24	C	1.517543	-0.285629	0.163936
C25	C	1.514661	-0.416658	0.163621
C26	C	1.418426	-0.468567	0.153209
C27	C	1.325083	-0.389443	0.143117
C28	C	1.327975	-0.258412	0.143437
C29	C	1.135514	-0.362226	0.122617
C30	C	1.138394	-0.231195	0.122940
C31	C	1.039279	-0.414135	0.112205
C32	C	0.945933	-0.335010	0.102121
C33	C	0.948819	-0.203973	0.102438
C34	C	1.045050	-0.152072	0.112848
C35	C	1.422122	0.183267	0.153597
C36	C	1.537778	0.187417	0.166082
C37	C	1.225796	0.419195	0.132385
C38	C	1.228857	0.558650	0.132709
N39	N	1.211934	0.213457	0.412741
N40	N	1.251559	0.165897	-0.146668
C41	C	1.334881	0.065795	0.675316
C42	C	1.326141	0.076305	0.799035
C43	C	1.185711	0.244982	0.783900
C44	C	1.194450	0.234471	0.660181
C45	C	1.269039	0.144876	0.605894
C46	C	1.277783	0.134373	0.482173
C47	C	1.137348	0.303042	0.467040
C48	C	1.128609	0.313552	0.590759
H49	H	0.901869	0.208088	0.293272
C50	C	0.947056	0.173011	-0.124435
N51	N	0.998350	0.167077	-0.208356
C52	C	0.840085	-0.392118	0.090675
N53	N	0.760358	-0.435136	0.082060
H54	H	1.047409	-0.045382	0.113114
C55	C	0.846132	-0.116946	0.091332
N56	N	0.768785	-0.051402	0.082969
C57	C	1.416932	-0.032754	0.615598
N58	N	1.478734	-0.106984	0.570619
C59	C	1.398569	-0.010695	0.875396
N60	N	1.453124	-0.076230	0.932910
H61	H	1.083738	0.367439	0.410502
H62	H	0.731282	0.211360	0.382822
C63	C	1.415261	-0.612704	0.152859
N64	N	1.412876	-0.721270	0.152599
C65	C	1.103645	0.343498	0.843636
N66	N	1.041825	0.417694	0.888630
C67	C	0.516421	0.206342	0.390495
N68	N	0.465116	0.212276	0.474408
H69	H	1.426556	-0.099814	0.154117
C70	C	1.617342	-0.503696	0.174724
N71	N	1.694682	-0.569253	0.183089
H72	H	0.561639	0.171265	-0.027221
C73	C	0.718860	0.164838	-0.149062
N74	N	0.680128	0.155684	-0.242696
C75	C	1.036110	-0.558271	0.111867
N76	N	1.033721	-0.666835	0.111620
C77	C	1.623397	-0.228519	0.175399
N78	N	1.703126	-0.185506	0.184034
C79	C	1.359828	0.035814	0.422458
N80	N	1.421624	-0.038428	0.377484
C81	C	1.046558	0.412093	0.650489
N82	N	0.984755	0.486315	0.695476
