data_functionalizedCrystal
_audit_creation_method	'MofGen! by Chris Wilmer'
_symmetry_space_group_name_H-M	'P1'
_symmetry_Int_Tables_number	1
_symmetry_cell_setting	triclinic
loop_
_symmetry_equiv_pos_as_xyz
  x,y,z
_cell_length_a	11.026607
_cell_length_b	11.026607
_cell_length_c	9.482900
_cell_angle_alpha	101.400185
_cell_angle_beta	78.636152
_cell_angle_gamma	108.586017
loop_
_atom_site_label
_atom_site_type_symbol
_atom_site_fract_x
_atom_site_fract_y
_atom_site_fract_z
O1	O	-1.742236	-0.518010	0.120892
O2	O	-1.242236	-0.018010	0.620892
O3	O	-1.375656	-0.457246	0.120894
O4	O	-0.875656	0.042754	0.620894
O5	O	-1.528564	-0.304339	0.120888
O6	O	-1.028564	0.195661	0.620888
O7	O	-1.589328	-0.670917	0.120898
O8	O	-1.089328	-0.170917	0.620898
O9	O	-1.497539	-0.335557	-0.120903
O10	O	-0.997539	0.164443	0.379097
O11	O	-1.344632	-0.488465	-0.120897
O12	O	-0.844632	0.011535	0.379103
O13	O	-1.711212	-0.549228	-0.120899
O14	O	-1.211212	-0.049228	0.379101
Cu15	Cu	-1.525089	-0.521697	-0.142976
Cu16	Cu	-1.025089	-0.021697	0.357024
Cu17	Cu	-1.561779	-0.484778	0.142971
Cu18	Cu	-1.061779	0.015222	0.642971
O19	O	-1.558304	-0.702136	-0.120893
O20	O	-1.058304	-0.202136	0.379107
C21	C	-1.312485	-0.461645	-0.000001
C22	C	-0.812485	0.038355	0.499999
C23	C	-1.170471	-0.428228	-0.000000
C24	C	-0.670471	0.071772	0.500000
C25	C	-1.501842	-0.272288	-0.000006
C26	C	-1.001842	0.227712	0.499994
C27	C	-1.468426	-0.130273	-0.000000
C28	C	-0.968426	0.369727	0.500000
N29	N	-1.499293	-0.547665	-0.344095
N30	N	-0.999293	-0.047665	0.155905
C31	C	-1.774384	-0.544829	-0.000001
C32	C	-1.274384	-0.044829	0.499999
C33	C	-1.916399	-0.578244	0.000008
C34	C	-1.416399	-0.078244	0.500008
C35	C	-1.116822	-0.520498	0.000003
C36	C	-0.616822	-0.020498	0.500003
C37	C	-0.970043	-0.485962	0.000004
C38	C	-0.470043	0.014038	0.500004
C39	C	-1.585026	-0.734186	0.000004
C40	C	-1.085026	-0.234186	0.500004
C41	C	-1.618444	-0.876199	0.000008
C42	C	-1.118444	-0.376199	0.500008
C43	C	-1.560695	-0.076624	0.000001
C44	C	-1.060695	0.423376	0.500001
C45	C	-1.526161	0.070155	0.000007
C46	C	-1.026161	0.570155	0.500007
C47	C	-1.554160	-0.492428	-0.416296
C48	C	-1.054160	0.007572	0.083704
C49	C	-1.532708	-0.514046	-0.583713
C50	C	-1.032708	-0.014046	-0.083713
N51	N	-1.587583	-0.458801	0.344090
N52	N	-1.087583	0.041199	0.844090
H53	H	-1.179554	-0.625061	-0.000002
H54	H	-0.679554	-0.125061	0.499998
F55	F	-0.888055	-0.349282	-0.000009
F56	F	-0.388055	0.150718	0.499991
H57	H	-1.650436	-0.395497	-0.593788
H58	H	-1.150436	0.104503	-0.093788
H59	H	-0.979125	-0.682816	0.000001
H60	H	-0.479125	-0.182816	0.500001
H61	H	-1.436432	-0.610955	-0.406222
H62	H	-0.936432	-0.110955	0.093778
H63	H	-1.107742	-0.323661	0.000034
H64	H	-0.607742	0.176339	0.500034
F65	F	-1.697371	-0.158613	0.000009
F66	F	-1.197371	0.341387	0.500009
F67	F	-1.389481	0.152144	0.000021
F68	F	-0.889481	0.652144	0.500021
H69	H	-1.723028	0.061087	0.000117
H70	H	-1.223028	0.561087	0.500117
F71	F	-1.331753	-0.048281	0.000014
F72	F	-0.831753	0.451719	0.500014
H73	H	-1.617009	-0.429128	-0.354171
H74	H	-1.117009	0.070872	0.145829
H75	H	-1.469843	-0.577340	-0.645835
H76	H	-0.969843	-0.077340	-0.145835
