data_functionalizedCrystal
_audit_creation_method	'MofGen! by Chris Wilmer'
_symmetry_space_group_name_H-M	'P1'
_symmetry_Int_Tables_number	1
_symmetry_cell_setting	triclinic
loop_
_symmetry_equiv_pos_as_xyz
  x,y,z
_cell_length_a	11.026607
_cell_length_b	14.853559
_cell_length_c	9.482900
_cell_angle_alpha	99.349447
_cell_angle_beta	78.636152
_cell_angle_gamma	96.108735
loop_
_atom_site_label
_atom_site_type_symbol
_atom_site_fract_x
_atom_site_fract_y
_atom_site_fract_z
O1	O	1.629678	0.366574	-0.120882
O2	O	1.276302	0.323574	-0.120886
O3	O	1.462434	0.215368	-0.120882
O4	O	1.443545	0.474780	-0.120885
O5	O	1.424626	0.237460	0.120910
O6	O	1.238494	0.345666	0.120906
O7	O	1.591870	0.388666	0.120910
Cu8	Cu	1.411730	0.369183	0.142985
Cu9	Cu	1.456442	0.343057	-0.142961
O10	O	1.405738	0.496872	0.120906
C11	C	1.212174	0.326687	0.000010
C12	C	1.077421	0.303039	0.000008
C13	C	1.003723	0.368334	0.000007
C14	C	0.864449	0.343895	0.000005
C15	C	1.442677	0.192687	0.000011
C16	C	1.440119	0.092189	0.000003
C17	C	1.449871	-0.344780	-0.131798
C18	C	1.408651	-0.320690	0.131813
C19	C	1.411066	-0.226267	0.131814
C20	C	1.432881	-0.191096	0.000007
C21	C	1.452282	-0.250349	-0.131801
C22	C	1.391653	-0.167008	0.263619
C23	C	1.394065	-0.072578	0.263626
C24	C	1.415890	-0.037406	0.131818
C25	C	1.435293	-0.096665	0.000004
C26	C	1.457108	-0.061495	-0.131802
C27	C	1.476520	-0.120752	-0.263617
C28	C	1.474107	-0.215177	-0.263609
C29	C	1.418303	0.057019	0.131810
C30	C	1.459520	0.032936	-0.131805
C31	C	1.655998	0.385552	0.000011
C32	C	1.790753	0.409199	0.000003
C33	C	1.425496	0.519553	0.000010
C34	C	1.428055	0.620049	0.000009
N35	N	1.380291	0.387560	0.344105
N36	N	1.487890	0.324674	-0.344081
C37	C	1.447160	0.348471	0.416305
C38	C	1.421011	0.363769	0.583722
H39	H	1.037414	0.229041	-0.000028
Cl40	Cl	1.302720	0.432922	0.679629
Cl41	Cl	1.262004	0.456710	0.440017
Cl42	Cl	1.381207	-0.364906	0.297503
H43	H	1.402471	0.105260	0.239131
Cl44	Cl	1.565166	0.279069	0.320394
H45	H	0.824447	0.269892	-0.000031
Cl46	Cl	1.065489	0.482580	0.000009
H47	H	0.830757	0.483200	0.000012
Cl48	Cl	1.486956	0.077142	-0.297516
Cl49	Cl	1.503949	-0.076526	-0.429310
H50	H	1.489910	-0.263432	-0.370926
Cl51	Cl	1.606436	0.255749	0.560017
Cl52	Cl	1.474286	-0.419270	-0.297500
H53	H	1.378263	-0.024338	0.370958
Cl54	Cl	1.364202	-0.211228	0.429307
