data_functionalizedCrystal
_audit_creation_method	'MofGen! by Chris Wilmer'
_symmetry_space_group_name_H-M	'P1'
_symmetry_Int_Tables_number	1
_symmetry_cell_setting	triclinic
loop_
_symmetry_equiv_pos_as_xyz
  x,y,z
_cell_length_a	10.540539
_cell_length_b	10.540539
_cell_length_c	10.868271
_cell_angle_alpha	89.997005
_cell_angle_beta	89.997750
_cell_angle_gamma	84.525492
loop_
_atom_site_label
_atom_site_type_symbol
_atom_site_fract_x
_atom_site_fract_y
_atom_site_fract_z
O1	O	1.685887	0.178901	-0.102258
O2	O	1.316474	0.195757	-0.102273
O3	O	1.509608	0.002623	-0.102263
O4	O	1.492752	0.372036	-0.102267
O5	O	1.509592	0.002615	0.102381
O6	O	1.316458	0.195749	0.102372
O7	O	1.685871	0.178894	0.102387
Zn8	Zn	1.501162	0.187320	0.134871
Zn9	Zn	1.501183	0.187330	-0.134757
O10	O	1.492736	0.372028	0.102378
C11	C	1.269163	0.194489	0.000048
C12	C	1.128215	0.190707	0.000042
C13	C	0.944788	0.045790	0.000521
C14	C	1.091406	0.049624	0.000047
C15	C	1.066551	0.258607	-0.116816
C16	C	0.920007	0.253792	-0.116901
C17	C	0.919500	0.256653	0.115818
C18	C	1.066482	0.257953	0.117350
C19	C	1.508336	-0.044684	0.000057
C20	C	1.504554	-0.185632	0.000050
C21	C	1.359637	-0.369059	-0.000415
C22	C	1.363471	-0.222441	0.000046
C23	C	1.572441	-0.247294	0.116915
C24	C	1.567626	-0.393839	0.117013
C25	C	1.570513	-0.394348	-0.115706
C26	C	1.571813	-0.247366	-0.117251
C27	C	1.733182	0.180161	0.000064
C28	C	1.874130	0.183943	0.000061
C29	C	1.494008	0.419335	0.000055
C30	C	1.497790	0.560283	0.000054
N31	N	1.501157	0.187313	0.318885
N32	N	1.501198	0.187328	-0.318771
C33	C	1.501176	0.187328	0.569891
C34	C	1.501161	0.187323	0.430214
H35	H	0.916196	-0.009949	0.084327
Br36	Br	1.740359	-0.473060	-0.117012
H37	H	1.107438	0.208350	0.203801
H38	H	1.524859	-0.425898	-0.204282
Br39	Br	1.745129	-0.210044	0.124171
Br40	Br	1.274440	-0.151420	-0.139583
H41	H	1.090708	0.360811	0.124405
H42	H	1.304126	-0.399270	0.082917
Br43	Br	1.273784	-0.152837	0.139895
H44	H	1.134013	-0.003802	0.083817
H45	H	1.088904	0.362215	-0.121165
Br46	Br	1.160958	-0.039640	-0.140057
Br47	Br	0.866917	0.180545	0.263456
Br48	Br	0.894444	-0.046723	-0.138369
Br49	Br	0.872991	0.170161	-0.262493
H50	H	1.669091	-0.441808	0.122319
Br51	Br	1.266750	-0.416715	-0.140101
Br52	Br	1.483977	-0.440852	0.262607
H53	H	0.872038	0.355257	-0.122206
H54	H	1.109147	0.211446	-0.203784
Br55	Br	1.493825	-0.176304	0.261864
H56	H	1.522141	-0.206505	-0.203705
H57	H	1.674674	-0.223145	-0.124304
H58	H	0.872273	0.358557	0.116606
