data_functionalizedCrystal
_audit_creation_method	'MofGen! by Chris Wilmer'
_symmetry_space_group_name_H-M	'P1'
_symmetry_Int_Tables_number	1
_symmetry_cell_setting	triclinic
loop_
_symmetry_equiv_pos_as_xyz
  x,y,z
_cell_length_a	19.288865
_cell_length_b	19.288865
_cell_length_c	18.366186
_cell_angle_alpha	89.993214
_cell_angle_beta	90.004920
_cell_angle_gamma	96.863753
loop_
_atom_site_label
_atom_site_type_symbol
_atom_site_fract_x
_atom_site_fract_y
_atom_site_fract_z
O1	O	0.921351	-0.086644	0.060533
O2	O	1.421351	0.413356	0.560533
O3	O	0.719090	-0.098333	0.060541
O4	O	1.219090	0.401667	0.560541
O5	O	0.826065	0.008642	0.060522
O6	O	1.326065	0.508642	0.560522
O7	O	0.814376	-0.193619	0.060552
O8	O	1.314376	0.306381	0.560552
O9	O	0.826051	0.008638	-0.060577
O10	O	1.326051	0.508638	0.439423
O11	O	0.719076	-0.098337	-0.060558
O12	O	1.219076	0.401663	0.439442
O13	O	0.921337	-0.086648	-0.060566
O14	O	1.421337	0.413352	0.439434
Zn15	Zn	0.820204	-0.092493	-0.079789
Zn16	Zn	1.320204	0.407507	0.420211
Zn17	Zn	0.820222	-0.092488	0.079764
Zn18	Zn	1.320222	0.407512	0.579764
O19	O	0.814362	-0.193623	-0.060548
O20	O	1.314362	0.306377	0.439452
C21	C	0.693207	-0.097959	-0.000008
C22	C	1.193207	0.402041	0.499992
C23	C	0.616103	-0.096830	-0.000005
C24	C	1.116103	0.403170	0.499995
N25	N	0.820197	-0.092496	-0.188681
N26	N	1.320197	0.407504	0.311319
C27	C	0.947220	-0.087022	-0.000016
C28	C	1.447220	0.412978	0.499984
C29	C	1.024324	-0.088151	-0.000013
C30	C	1.524324	0.411849	0.499987
C31	C	0.825682	0.034516	-0.000029
C32	C	1.325682	0.534516	0.499971
C33	C	0.824553	0.111620	-0.000036
C34	C	1.324553	0.611620	0.499964
C35	C	1.069020	-0.025383	-0.000016
C36	C	1.569020	0.474617	0.499984
C37	C	1.141467	-0.026444	-0.000020
C38	C	1.641467	0.473556	0.499980
C39	C	1.169215	-0.090276	-0.000007
C40	C	1.669215	0.409724	0.499993
C41	C	1.124508	-0.153052	-0.000008
C42	C	1.624508	0.346948	0.499992
C43	C	1.052063	-0.151990	-0.000012
C44	C	1.552063	0.348010	0.499988
C45	C	1.277496	-0.140454	0.042431
C46	C	1.777496	0.359546	0.542431
C47	C	1.349941	-0.141514	0.042439
C48	C	1.849941	0.358486	0.542439
C49	C	1.392660	-0.093556	-0.000000
C50	C	1.892660	0.406444	0.500000
C51	C	1.362928	-0.044526	-0.042438
C52	C	1.862928	0.455474	0.457562
C53	C	1.290482	-0.043463	-0.042441
C54	C	1.790482	0.456537	0.457559
C55	C	1.247769	-0.091435	-0.000004
C56	C	1.747769	0.408565	0.499996
C57	C	1.515912	-0.031934	-0.000009
C58	C	2.015912	0.468066	0.499991
C59	C	1.588361	-0.032997	-0.000017
C60	C	2.088361	0.467003	0.499983
C61	C	1.571400	-0.159607	0.000002
C62	C	2.071400	0.340393	0.500002
C63	C	1.498954	-0.158542	0.000003
C64	C	1.998954	0.341458	0.500003
C65	C	1.471215	-0.094703	0.000001
C66	C	1.971215	0.405297	0.500001
C67	C	0.814745	-0.219497	0.000006
C68	C	1.314745	0.280503	0.500006
C69	C	0.815874	-0.296601	0.000017
C70	C	1.315874	0.203399	0.500017
C71	C	0.887320	0.156316	-0.000042
C72	C	1.387320	0.656316	0.499958
C73	C	0.886260	0.228763	-0.000030
C74	C	1.386260	0.728763	0.499970
C75	C	0.822428	0.256511	-0.000027
C76	C	1.322428	0.756511	0.499973
C77	C	0.759651	0.211805	-0.000017
C78	C	1.259651	0.711805	0.499983
C79	C	0.760714	0.139359	-0.000021
C80	C	1.260714	0.639359	0.499979
C81	C	0.772243	0.364797	-0.042444
C82	C	1.272243	0.864797	0.457556
C83	C	0.771183	0.437241	-0.042444
C84	C	1.271183	0.937241	0.457556
C85	C	0.819148	0.479956	-0.000011
C86	C	1.319148	0.979956	0.499989
C87	C	0.868184	0.450220	0.042413
C88	C	1.368184	0.950220	0.542413
C89	C	0.869247	0.377774	0.042409
C90	C	1.369247	0.877774	0.542409
C91	C	0.821268	0.335065	-0.000022
C92	C	1.321268	0.835065	0.499978
C93	C	0.880770	0.603209	-0.000003
C94	C	1.380770	1.103209	0.499997
C95	C	0.879707	0.675657	0.000013
C96	C	1.379707	1.175657	0.500013
C97	C	0.753097	0.658697	0.000019
C98	C	1.253097	1.158697	0.500019
C99	C	0.754162	0.586250	0.000010
C100	C	1.254162	1.086250	0.500010
C101	C	0.818000	0.558511	-0.000005
C102	C	1.318000	1.058511	0.499995
C103	C	0.862228	-0.134494	-0.773225
C104	C	1.362228	0.365506	-0.273225
C105	C	0.862221	-0.134500	-0.696998
C106	C	1.362221	0.365500	-0.196998
C107	C	0.820229	-0.092480	-0.658892
C108	C	1.320229	0.407520	-0.158892
C109	C	0.778228	-0.050464	-0.697020
C110	C	1.278228	0.449536	-0.197020
C111	C	0.778231	-0.050463	-0.773247
C112	C	1.278231	0.449537	-0.273247
C113	C	0.818502	-0.029856	-0.538135
C114	C	1.318502	0.470144	-0.038135
C115	C	0.818504	-0.029855	-0.461910
C116	C	1.318504	0.470145	0.038090
C117	C	0.820215	-0.092482	-0.423784
C118	C	1.320215	0.407518	0.076216
C119	C	0.821939	-0.155112	-0.461893
C120	C	1.321939	0.344888	0.038107
C121	C	0.821942	-0.155111	-0.538120
C122	C	1.321942	0.344889	-0.038120
C123	C	0.820221	-0.092476	-0.576237
C124	C	1.320221	0.407524	-0.076237
C125	C	0.862202	-0.134507	-0.303010
C126	C	1.362202	0.365493	0.196990
C127	C	0.862190	-0.134515	-0.226781
C128	C	1.362190	0.365485	0.273219
C129	C	0.778201	-0.050472	-0.226805
C130	C	1.278201	0.449528	0.273195
C131	C	0.778209	-0.050470	-0.303033
C132	C	1.278209	0.449530	0.196967
C133	C	0.820214	-0.092487	-0.341131
C134	C	1.320214	0.407513	0.158869
N135	N	0.820235	-0.092480	0.188655
N136	N	1.320235	0.407520	0.688655
H137	H	1.046440	0.026599	-0.000020
H138	H	1.546440	0.526599	0.499980
H139	H	0.701123	0.681288	0.000025
H140	H	1.201123	1.181288	0.500025
Cl141	Cl	0.915027	-0.187311	-0.649066
Cl142	Cl	1.415027	0.312689	-0.149066
Cl143	Cl	1.442761	-0.237455	0.000015
Cl144	Cl	1.942761	0.262545	0.500015
Cl145	Cl	0.914970	-0.187354	-0.178859
Cl146	Cl	1.414970	0.312646	0.321141
H147	H	1.374144	-0.181432	0.076999
H148	H	1.874144	0.318568	0.576999
Cl149	Cl	0.725436	0.002359	-0.821170
Cl150	Cl	1.225436	0.502359	-0.321170
H151	H	1.177866	0.024671	-0.000020
H152	H	1.677866	0.524671	0.499980
H153	H	0.817105	0.021142	-0.430887
H154	H	1.317105	0.521142	0.069113
H155	H	1.266277	-0.003543	-0.076996
H156	H	1.766277	0.496457	0.423004
Cl157	Cl	0.824094	-0.233848	-0.413973
Cl158	Cl	1.324094	0.266152	0.086027
Cl159	Cl	0.675249	0.530057	0.000014
Cl160	Cl	1.175249	1.030057	0.500014
H161	H	0.733183	0.330023	-0.077002
H162	H	1.233183	0.830023	0.422998
H163	H	0.823344	-0.206106	-0.569145
H164	H	1.323344	0.293894	-0.069145
H165	H	0.731252	0.461447	-0.076984
H166	H	1.231252	0.961447	0.423016
Cl167	Cl	1.416625	0.015775	-0.095786
Cl168	Cl	1.916625	0.515775	0.404214
Cl169	Cl	0.915003	-0.187329	-0.350908
Cl170	Cl	1.415003	0.312671	0.149092
H171	H	0.932751	0.580622	-0.000012
H172	H	1.432751	1.080622	0.499988
H173	H	1.015670	-0.203105	-0.000010
H174	H	1.515670	0.296895	0.499990
H175	H	1.147105	-0.205025	0.000001
H176	H	1.647105	0.294975	0.500001
H177	H	1.493326	0.020048	-0.000013
H178	H	1.993326	0.520048	0.499987
H179	H	0.744006	-0.016263	-0.195780
H180	H	1.244006	0.483737	0.304220
Cl181	Cl	1.644552	0.045919	-0.000029
Cl182	Cl	2.144552	0.545919	0.499971
H183	H	0.707679	0.234401	-0.000013
H184	H	1.207679	0.734401	0.499987
Cl185	Cl	1.223798	-0.200755	0.095783
Cl186	Cl	1.723798	0.299245	0.595783
H187	H	0.817102	0.021146	-0.569170
H188	H	1.317102	0.521146	-0.069170
H189	H	0.744036	-0.016252	-0.665990
H190	H	1.244036	0.483748	-0.165990
Cl191	Cl	0.915027	-0.187320	-0.821116
Cl192	Cl	1.415027	0.312680	-0.321116
Cl193	Cl	0.725418	0.002354	-0.350957
Cl194	Cl	1.225418	0.502354	0.149043
H195	H	0.709599	0.102967	-0.000017
H196	H	1.209599	0.602967	0.499983
H197	H	0.937375	0.265162	-0.000032
H198	H	1.437375	0.765162	0.499968
H199	H	1.593991	-0.211580	0.000008
H200	H	2.093991	0.288420	0.500008
Cl201	Cl	0.958623	0.731848	0.000010
Cl202	Cl	1.458623	1.231848	0.500010
H203	H	0.939303	0.133736	-0.000051
H204	H	1.439303	0.633736	0.499949
Cl205	Cl	0.930885	0.340392	0.095744
Cl206	Cl	1.430885	0.840392	0.595744
H207	H	0.907241	0.484997	0.076967
H208	H	1.407241	0.984997	0.576967
