data_functionalizedCrystal
_audit_creation_method	'MofGen! by Chris Wilmer'
_symmetry_space_group_name_H-M	'P1'
_symmetry_Int_Tables_number	1
_symmetry_cell_setting	triclinic
loop_
_symmetry_equiv_pos_as_xyz
  x,y,z
_cell_length_a	10.685976
_cell_length_b	10.686685
_cell_length_c	21.395355
_cell_angle_alpha	94.364256
_cell_angle_beta	94.358230
_cell_angle_gamma	80.964113
loop_
_atom_site_label
_atom_site_type_symbol
_atom_site_fract_x
_atom_site_fract_y
_atom_site_fract_z
Zn1	Zn	1.979302	-0.653942	-0.303664
Zn2	Zn	1.995453	-0.866138	-0.206373
Zn3	Zn	1.767036	-0.637696	-0.206385
Zn4	Zn	1.783319	-0.849870	-0.318591
O5	O	1.881278	-0.751912	-0.258753
O6	O	2.159058	-0.695698	-0.284506
O7	O	1.965098	-0.835844	-0.118699
O8	O	1.781620	-0.462252	-0.213047
O9	O	2.170923	-0.851598	-0.213027
O10	O	1.937571	-0.474187	-0.284518
O11	O	1.797281	-0.668009	-0.118708
O12	O	1.591583	-0.652234	-0.227521
O13	O	1.809372	-0.823870	-0.404286
O14	O	1.603546	-0.808117	-0.309959
O15	O	1.953360	-0.679923	-0.393320
O16	O	1.980887	-1.041580	-0.227501
O17	O	1.825033	-1.029628	-0.309947
C18	C	1.551512	-0.726648	-0.270361
C19	C	1.410439	-0.715871	-0.275343
C20	C	1.906514	-1.081656	-0.270355
C21	C	1.917426	-1.222731	-0.275335
C22	C	2.212331	-0.777275	-0.247100
C23	C	2.353407	-0.788083	-0.242134
C24	C	1.881381	-0.751894	-0.422172
C25	C	1.881425	-0.751887	-0.491811
C26	C	1.855978	-0.420882	-0.247119
C27	C	1.845197	-0.279817	-0.242161
C28	C	1.956396	-0.676930	-0.518815
C29	C	1.956390	-0.676875	-0.584249
C30	C	1.881428	-0.751801	-0.622676
C31	C	1.806442	-0.826762	-0.595665
C32	C	1.806441	-0.826805	-0.530233
C33	C	1.880152	-0.865309	-0.730725
C34	C	1.880163	-0.865269	-0.796156
C35	C	1.881426	-0.751667	-0.824492
C36	C	1.882705	-0.638104	-0.787388
C37	C	1.882703	-0.638147	-0.721955
C38	C	1.881421	-0.751762	-0.693627
C39	C	1.956394	-0.676645	-0.922446
C40	C	1.956379	-0.676587	-0.987881
C41	C	1.806439	-0.826486	-0.999297
C42	C	1.806446	-0.826532	-0.933863
C43	C	1.881431	-0.751613	-0.895441
C44	C	1.881241	-0.751843	-0.095964
C45	C	1.881415	-0.751512	-0.026304
H46	H	1.987616	-1.281784	-0.307542
H47	H	1.412511	-0.858166	-0.209892
H48	H	1.775011	-1.220760	-0.209946
H49	H	2.017453	-0.615924	-0.487536
H50	H	1.883735	-0.545599	-0.810457
H51	H	2.017437	-0.615829	-0.606239
H52	H	1.351342	-0.645804	-0.307590
O53	O	1.883877	-0.527718	-0.686008
C54	C	1.885027	-0.427439	-0.725040
H55	H	1.844679	-0.454182	-0.774240
H56	H	1.986732	-0.409021	-0.727430
C57	C	1.852952	-0.273805	-0.637562
C58	C	1.803387	-0.306648	-0.697988
H59	H	1.802598	-0.199293	-0.620874
H60	H	1.852183	-0.341365	-0.611264
H61	H	1.937705	-0.258465	-0.639561
H62	H	1.718642	-0.322002	-0.695987
H63	H	1.804140	-0.239087	-0.724286
H64	H	2.017443	-0.615634	-0.891161
H65	H	2.017427	-0.615541	-1.009865
H66	H	1.745405	-0.887578	-0.911877
H67	H	1.745390	-0.887478	-1.030584
H68	H	1.879129	-0.957740	-0.826361
O69	O	1.733703	-0.899730	-0.632926
C70	C	1.771127	-1.028359	-0.620434
H71	H	1.820116	-1.034755	-0.571307
H72	H	1.839651	-1.076084	-0.656479
C73	C	1.593098	-1.087899	-0.684799
C74	C	1.653257	-1.095756	-0.624458
H75	H	1.520393	-1.129476	-0.687284
H76	H	1.567887	-1.001241	-0.693217
H77	H	1.650215	-1.127669	-0.714829
H78	H	1.596147	-1.055973	-0.594430
H79	H	1.678457	-1.182410	-0.616035
O80	O	1.733800	-0.899704	-0.503925
C81	C	1.812336	-0.987259	-0.466450
H82	H	1.905103	-0.949873	-0.451700
H83	H	1.833466	-1.082362	-0.494497
C84	C	1.630331	-1.050850	-0.425667
C85	C	1.744264	-1.004927	-0.407547
H86	H	1.588340	-1.061754	-0.389334
H87	H	1.577418	-0.991867	-0.450916
H88	H	1.647955	-1.130097	-0.449040
H89	H	1.726637	-0.925674	-0.384181
H90	H	1.797172	-1.063897	-0.382292
H91	H	1.878782	-0.957768	-0.707671
