data_functionalizedCrystal
_audit_creation_method	'MofGen! by Chris Wilmer'
_symmetry_space_group_name_H-M	'P1'
_symmetry_Int_Tables_number	1
_symmetry_cell_setting	triclinic
loop_
_symmetry_equiv_pos_as_xyz
  x,y,z
_cell_length_a	16.625539
_cell_length_b	15.297475
_cell_length_c	15.297327
_cell_angle_alpha	91.625546
_cell_angle_beta	99.647259
_cell_angle_gamma	80.314414
loop_
_atom_site_label
_atom_site_type_symbol
_atom_site_fract_x
_atom_site_fract_y
_atom_site_fract_z
Zn1	Zn	-0.743124	1.278690	-0.580793
Zn2	Zn	-0.243124	1.778690	-0.080793
Zn3	Zn	-0.626999	1.253225	-0.727254
Zn4	Zn	-0.126999	1.753225	-0.227254
Zn5	Zn	-0.581768	1.132210	-0.555436
Zn6	Zn	-0.081768	1.632210	-0.055436
Zn7	Zn	-0.735255	1.106832	-0.701825
Zn8	Zn	-0.235255	1.606832	-0.201825
O9	O	-0.671786	1.192739	-0.641327
O10	O	-0.171786	1.692739	-0.141327
O11	O	-0.749943	1.397880	-0.621475
O12	O	-0.249943	1.897880	-0.121475
O13	O	-0.508166	1.237135	-0.704491
O14	O	-0.008166	1.737135	-0.204491
O15	O	-0.587536	1.172918	-0.436240
O16	O	-0.087536	1.672918	0.063760
O17	O	-0.664626	1.379171	-0.729079
O18	O	-0.164626	1.879171	-0.229079
O19	O	-0.706083	1.280537	-0.454870
O20	O	-0.206083	1.780537	0.045130
O21	O	-0.474934	1.148226	-0.578257
O22	O	0.025066	1.648226	-0.078257
O23	O	-0.579905	1.006275	-0.553601
O24	O	-0.079905	1.506275	-0.053601
O25	O	-0.849132	1.129666	-0.685740
O26	O	-0.349132	1.629666	-0.185740
O27	O	-0.692671	0.987631	-0.661153
O28	O	-0.192671	1.487631	-0.161153
O29	O	-0.854914	1.255929	-0.596818
O30	O	-0.354914	1.755929	-0.096818
O31	O	-0.656996	1.212528	-0.846440
O32	O	-0.156996	1.712528	-0.346440
O33	O	-0.736531	1.104974	-0.827758
O34	O	-0.236531	1.604974	-0.327758
C35	C	-0.630527	0.965172	-0.601867
C36	C	-0.130527	1.465172	-0.101867
C37	C	-0.612897	0.867814	-0.585006
C38	C	-0.112897	1.367814	-0.085006
C39	C	-0.882097	1.192807	-0.641271
C40	C	-0.382097	1.692807	-0.141271
C41	C	-0.971719	1.192836	-0.641248
C42	C	-0.471719	1.692836	-0.141248
C43	C	-0.797788	0.554586	-0.761835
C44	C	-0.297788	1.054586	-0.261835
C45	C	-0.814350	0.646057	-0.777683
C46	C	-0.314350	1.146057	-0.277683
C47	C	-0.763989	0.701501	-0.729515
C48	C	-0.263989	1.201501	-0.229515
C49	C	-0.697062	0.665465	-0.665497
C50	C	-0.197062	1.165465	-0.165497
C51	C	-0.680494	0.573983	-0.649653
C52	C	-0.180494	1.073983	-0.149653
C53	C	-0.646695	0.720898	-0.617333
C54	C	-0.146695	1.220898	-0.117333
C55	C	-0.579768	0.684862	-0.553315
C56	C	-0.079768	1.184862	-0.053315
C57	C	-0.563203	0.593390	-0.537473
C58	C	-0.063203	1.093390	-0.037473
C59	C	-0.613565	0.537946	-0.585641
C60	C	-0.113565	1.037946	-0.085641
C61	C	-0.663262	0.812380	-0.633177
C62	C	-0.163262	1.312380	-0.133177
C63	C	-0.545968	0.831777	-0.520994
C64	C	-0.045968	1.331777	-0.020994
C65	C	-0.529406	0.740306	-0.505147
C66	C	-0.029406	1.240306	-0.005147
C67	C	-1.299890	1.192894	-0.641157
C68	C	-0.799890	1.692894	-0.141157
C69	C	-1.208583	1.192875	-0.641184
C70	C	-0.708583	1.692875	-0.141184
C71	C	-1.135808	1.192865	-0.641203
C72	C	-0.635808	1.692865	-0.141203
C73	C	-1.044494	1.192846	-0.641229
C74	C	-0.544494	1.692846	-0.141229
C75	C	-0.462295	1.192732	-0.641327
C76	C	0.037705	1.692732	-0.141327
C77	C	-0.372672	1.192916	-0.641134
C78	C	0.127328	1.692916	-0.141134
C79	C	-0.700839	1.153257	-0.868881
C80	C	-0.200839	1.653257	-0.368881
C81	C	-0.713310	1.136447	-0.966243
C82	C	-0.213310	1.636447	-0.466243
C83	C	-0.713208	1.421194	-0.680942
C84	C	-0.213208	1.921194	-0.180942
C85	C	-0.730859	1.518549	-0.697823
C86	C	-0.230859	2.018549	-0.197823
C87	C	-0.582998	1.313246	-1.279507
C88	C	-0.082998	1.813246	-0.779507
C89	C	-0.571278	1.329040	-1.188030
C90	C	-0.071278	1.829040	-0.688030
C91	C	-0.606785	1.280893	-1.132579
C92	C	-0.106785	1.780893	-0.632579
C93	C	-0.654014	1.216950	-1.168614
C94	C	-0.154014	1.716950	-0.668614
C95	C	-0.665731	1.201150	-1.260099
C96	C	-0.165731	1.701150	-0.760099
C97	C	-0.689518	1.168797	-1.113171
C98	C	-0.189518	1.668797	-0.613171
C99	C	-0.736747	1.104853	-1.149206
C100	C	-0.236747	1.604853	-0.649206
C101	C	-0.748462	1.089057	-1.240682
C102	C	-0.248462	1.589057	-0.740682
C103	C	-0.712955	1.137203	-1.296133
C104	C	-0.212955	1.637203	-0.796133
C105	C	-0.677801	1.184597	-1.021686
C106	C	-0.177801	1.684597	-0.521686
C107	C	-0.760534	1.072500	-1.002278
C108	C	-0.260534	1.572500	-0.502278
C109	C	-0.772254	1.056707	-1.093755
C110	C	-0.272254	1.556707	-0.593755
C111	C	-0.642642	1.232399	-0.412888
C112	C	-0.142642	1.732399	0.087112
C113	C	-0.630222	1.249300	-0.315541
C114	C	-0.130222	1.749300	0.184459
H115	H	-0.717755	0.841711	-0.685300
H116	H	-0.217755	1.341711	-0.185300
H117	H	-0.777478	0.775981	-0.742421
H118	H	-0.277478	1.275981	-0.242421
H119	H	-0.532823	1.381101	-1.158694
H120	H	-0.032823	1.881101	-0.658694
C121	C	-0.928623	0.617689	-0.886973
C122	C	-0.428623	1.117689	-0.386973
C123	C	-0.887915	0.685667	-0.848043
C124	C	-0.387915	1.185667	-0.348043
H125	H	-0.974045	0.642146	-0.930408
H126	H	-0.474045	1.142146	-0.430408
H127	H	-0.891249	0.576194	-0.914241
H128	H	-0.391249	1.076194	-0.414241
H129	H	-0.948196	0.588636	-0.842669
H130	H	-0.448196	1.088636	-0.342669
H131	H	-0.868337	0.714716	-0.892346
H132	H	-0.368337	1.214716	-0.392346
H133	H	-0.925296	0.727178	-0.820775
H134	H	-0.425296	1.227178	-0.320775
H135	H	-0.597238	1.293756	-1.058095
H136	H	-0.097238	1.793756	-0.558095
C137	C	-0.564182	1.338743	-1.428353
C138	C	-0.064182	1.838743	-0.928353
C139	C	-0.543939	1.366132	-1.340453
C140	C	-0.043939	1.866132	-0.840453
H141	H	-0.540058	1.371391	-1.465977
H142	H	-0.040058	1.871391	-0.965977
H143	H	-0.543620	1.277301	-1.433176
H144	H	-0.043620	1.777301	-0.933176
H145	H	-0.622598	1.348980	-1.445524
H146	H	-0.122598	1.848980	-0.945524
H147	H	-0.485523	1.355889	-1.323280
H148	H	0.014477	1.855889	-0.823280
H149	H	-0.564496	1.427589	-1.335627
H150	H	-0.064496	1.927589	-0.835627
C151	C	-0.810498	1.136889	-1.430961
C152	C	-0.310498	1.636889	-0.930961
C153	C	-0.725842	1.119853	-1.396692
C154	C	-0.225842	1.619853	-0.896692
H155	H	-0.818451	1.126187	-1.493043
H156	H	-0.318451	1.626187	-0.993043
H157	H	-0.838391	1.099053	-1.403105
H158	H	-0.338391	1.599053	-0.903105
H159	H	-0.832059	1.196986	-1.419986
H160	H	-0.332059	1.696986	-0.919986
H161	H	-0.704282	1.059753	-1.407661
H162	H	-0.204282	1.559753	-0.907661
H163	H	-0.697938	1.157689	-1.424556
H164	H	-0.197938	1.657689	-0.924556
H165	H	-0.789445	1.033294	-0.957129
H166	H	-0.289445	1.533294	-0.457129
H167	H	-0.786909	1.036979	-1.270016
H168	H	-0.286909	1.536979	-0.770016
H169	H	-0.508700	0.564051	-0.485354
H170	H	-0.008700	1.064051	0.014646
C171	C	-0.852864	0.947493	-1.065389
C172	C	-0.352864	1.447493	-0.565389
C173	C	-0.824167	0.986419	-1.133369
C174	C	-0.324167	1.486419	-0.633369
H175	H	-0.884917	0.904106	-1.089849
H176	H	-0.384917	1.404106	-0.589849
H177	H	-0.807079	0.920159	-1.023961
H178	H	-0.307079	1.420159	-0.523961
H179	H	-0.886072	0.991817	-1.036263
H180	H	-0.386072	1.491817	-0.536263
H181	H	-0.790955	0.942096	-1.162491
H182	H	-0.290955	1.442096	-0.662491
H183	H	-0.869960	1.013754	-1.174813
H184	H	-0.369960	1.513754	-0.674813
C185	C	-0.824460	0.405743	-0.787350
C186	C	-0.324460	0.905743	-0.287350
C187	C	-0.853139	0.493642	-0.814776
C188	C	-0.353139	0.993642	-0.314776
H189	H	-0.858638	0.368120	-0.820034
H190	H	-0.358638	0.868120	-0.320034
H191	H	-0.769180	0.388526	-0.797492
H192	H	-0.269180	0.888526	-0.297492
H193	H	-0.826128	0.400969	-0.725922
H194	H	-0.326128	0.900969	-0.225922
H195	H	-0.851465	0.498418	-0.876203
H196	H	-0.351465	0.998418	-0.376203
H197	H	-0.908434	0.510865	-0.804641
H198	H	-0.408434	1.010865	-0.304641
H199	H	-0.600085	0.463462	-0.572740
H200	H	-0.100085	0.963462	-0.072740
H201	H	-0.504959	0.876919	-0.481773
H202	H	-0.004959	1.376919	0.018227
C203	C	-0.400754	0.639515	-0.475005
C204	C	0.099246	1.139515	0.024995
C205	C	-0.455835	0.700689	-0.434786
C206	C	0.044165	1.200689	0.065214
H207	H	-0.355332	0.615063	-0.431567
H208	H	0.144668	1.115063	0.068433
H209	H	-0.428379	0.593414	-0.501417
H210	H	0.071621	1.093414	-0.001417
H211	H	-0.381184	0.668587	-0.519298
H212	H	0.118816	1.168587	-0.019298
H213	H	-0.475409	0.671616	-0.390498
H214	H	0.024591	1.171616	0.109502
H215	H	-0.428204	0.746797	-0.408361
H216	H	0.071796	1.246797	0.091639
C217	C	-0.545451	1.232192	-1.001005
C218	C	-0.045451	1.732192	-0.501005
C219	C	-0.625892	1.254884	-0.982084
C220	C	-0.125892	1.754884	-0.482084
H221	H	-0.513407	1.275592	-0.976562
H222	H	-0.013407	1.775592	-0.476562
H223	H	-0.521034	1.175938	-0.975864
H224	H	-0.021034	1.675938	-0.475864
H225	H	-0.547361	1.229672	-1.063425
H226	H	-0.047361	1.729672	-0.563425
H227	H	-0.623983	1.257398	-0.919664
H228	H	-0.123983	1.757398	-0.419664
H229	H	-0.650316	1.311154	-1.007222
H230	H	-0.150316	1.811154	-0.507222
