data_functionalizedCrystal
_audit_creation_method	'MofGen! by Chris Wilmer'
_symmetry_space_group_name_H-M	'P1'
_symmetry_Int_Tables_number	1
_symmetry_cell_setting	triclinic
loop_
_symmetry_equiv_pos_as_xyz
  x,y,z
_cell_length_a	18.215407
_cell_length_b	12.759393
_cell_length_c	18.215399
_cell_angle_alpha	90.021556
_cell_angle_beta	89.982632
_cell_angle_gamma	89.987730
loop_
_atom_site_label
_atom_site_type_symbol
_atom_site_fract_x
_atom_site_fract_y
_atom_site_fract_z
Zn1	Zn	1.125123	0.418349	-0.416100
Zn2	Zn	1.625123	0.918349	0.083900
Zn3	Zn	1.125053	0.594046	-0.293048
Zn4	Zn	1.625053	1.094046	0.206952
Zn5	Zn	1.002056	0.418374	-0.293053
Zn6	Zn	1.502056	0.918374	0.206947
Zn7	Zn	1.002043	0.593979	-0.416078
Zn8	Zn	1.502043	1.093979	0.083922
O9	O	1.063569	0.506187	-0.354570
O10	O	1.563569	1.006187	0.145430
O11	O	1.228098	0.441673	-0.399784
O12	O	1.728098	0.941673	0.100216
O13	O	1.108713	0.570782	-0.190064
O14	O	1.608713	1.070782	0.309936
O15	O	1.018416	0.271350	-0.309387
O16	O	1.518416	0.771350	0.190613
O17	O	1.228047	0.570758	-0.309378
O18	O	1.728047	1.070758	0.190622
O19	O	1.108833	0.271331	-0.399789
O20	O	1.608833	0.771331	0.100211
O21	O	1.018348	0.441716	-0.190068
O22	O	1.518348	0.941716	0.309932
O23	O	0.899070	0.441651	-0.309365
O24	O	1.399070	0.941651	0.190635
O25	O	1.018394	0.570642	-0.519065
O26	O	1.518394	1.070642	-0.019065
O27	O	0.899061	0.570667	-0.399751
O28	O	1.399061	1.070667	0.100249
O29	O	1.108821	0.441608	-0.519082
O30	O	1.608821	0.941608	-0.019082
O31	O	1.108701	0.741059	-0.309356
O32	O	1.608701	1.241059	0.190644
O33	O	1.018326	0.741009	-0.399746
O34	O	1.518326	1.241009	0.100254
C35	C	0.872363	0.506155	-0.354557
C36	C	1.372363	1.006155	0.145443
C37	C	0.790564	0.506166	-0.354569
C38	C	1.290564	1.006166	0.145431
C39	C	0.602396	0.439090	-0.401718
C40	C	1.102396	0.939090	0.098282
C41	C	0.525537	0.439099	-0.401720
C42	C	1.025537	0.939099	0.098280
C43	C	0.525494	0.573313	-0.307435
C44	C	1.025494	1.073313	0.192565
C45	C	0.602352	0.573298	-0.307429
C46	C	1.102352	1.073298	0.192571
C47	C	0.640800	0.506188	-0.354575
C48	C	1.140800	1.006188	0.145425
C49	C	0.487084	0.506212	-0.354583
C50	C	0.987084	1.006212	0.145417
C51	C	0.403751	0.506223	-0.354585
C52	C	0.903751	1.006223	0.145415
C53	C	0.724139	0.506176	-0.354572
C54	C	1.224139	1.006176	0.145428
C55	C	1.063525	0.779155	-0.354564
C56	C	1.563525	1.279155	0.145436
C57	C	1.063573	0.895931	-0.354587
C58	C	1.563573	1.395931	0.145413
C59	C	1.157751	0.895930	-0.260534
C60	C	1.657751	1.395930	0.239466
C61	C	1.204860	0.950790	-0.213519
C62	C	1.704860	1.450790	0.286481
C63	C	1.204903	1.060511	-0.213544
C64	C	1.704903	1.560511	0.286456
C65	C	1.157834	1.115375	-0.260591
C66	C	1.657834	1.615375	0.239409
C67	C	1.110726	1.060515	-0.307606
C68	C	1.610726	1.560515	0.192394
C69	C	1.110686	0.950791	-0.307574
C70	C	1.610686	1.450791	0.192426
C71	C	1.016553	1.060517	-0.401661
C72	C	1.516553	1.560517	0.098339
C73	C	1.016505	0.950795	-0.401633
C74	C	1.516505	1.450795	0.098367
C75	C	0.969484	1.115381	-0.448707
C76	C	1.469484	1.615381	0.051293
C77	C	0.922371	1.060521	-0.495720
C78	C	1.422371	1.560521	0.004280
C79	C	0.922329	0.950793	-0.495692
C80	C	1.422329	1.450793	0.004308
C81	C	0.969397	0.895935	-0.448648
C82	C	1.469397	1.395935	0.051352
C83	C	1.255522	0.506220	-0.354583
C84	C	1.755522	1.006220	0.145417
C85	C	1.337321	0.506234	-0.354589
C86	C	1.837321	1.006234	0.145411
C87	C	1.063614	0.506115	-0.546523
C88	C	1.563614	1.006115	-0.046523
C89	C	1.063633	0.506084	-0.628322
C90	C	1.563633	1.006084	-0.128322
C91	C	1.063633	1.232154	-0.354603
C92	C	1.563633	1.732154	0.145397
C93	C	1.063661	1.115377	-0.354646
C94	C	1.563661	1.615377	0.145354
C95	C	1.110735	0.438833	-0.816525
C96	C	1.610735	0.938833	-0.316525
C97	C	1.110744	0.438802	-0.893384
C98	C	1.610744	0.938802	-0.393384
C99	C	1.016583	0.573172	-0.893356
C100	C	1.516583	1.073172	-0.393356
C101	C	1.016571	0.573197	-0.816498
C102	C	1.516571	1.073197	-0.316498
C103	C	1.063651	0.506029	-0.778085
C104	C	1.563651	1.006029	-0.278085
C105	C	1.063672	0.505973	-0.931801
C106	C	1.563672	1.005973	-0.431801
C107	C	1.063681	0.505941	-1.015135
C108	C	1.563681	1.005941	-0.515135
C109	C	1.063641	0.506060	-0.694746
C110	C	1.563641	1.006060	-0.194746
C111	C	1.063567	0.506183	-0.163363
C112	C	1.563567	1.006183	0.336637
C113	C	1.063690	0.505918	-0.081565
C114	C	1.563690	1.005918	0.418435
H115	H	0.494271	0.384460	-0.440107
H116	H	0.994271	0.884460	0.059893
H117	H	1.243266	1.105178	-0.175264
H118	H	1.743266	1.605178	0.324736
H119	H	0.978225	0.627915	-0.785199
H120	H	1.478225	1.127915	-0.285199
H121	H	0.633622	0.627938	-0.269036
H122	H	1.133622	1.127938	0.230964
C123	C	1.157702	0.775233	-0.260496
C124	C	1.657702	1.275233	0.239504
N125	N	1.157665	0.684323	-0.260465
N126	N	1.657665	1.184323	0.239535
H127	H	0.633698	0.384442	-0.440104
H128	H	1.133698	0.884442	0.059896
C129	C	0.964796	0.647051	-0.935617
C130	C	1.464796	1.147051	-0.435617
N131	N	0.925789	0.702698	-0.967448
N132	N	1.425789	1.202698	-0.467448
C133	C	1.256630	0.890431	-0.161768
C134	C	1.756630	1.390431	0.338232
N135	N	1.295624	0.844972	-0.122789
N136	N	1.795624	1.344972	0.377211
H137	H	0.494180	0.627952	-0.269051
H138	H	0.994180	1.127952	0.230949
C139	C	0.870600	1.120878	-0.547464
C140	C	1.370600	1.620878	-0.047464
N141	N	0.831604	1.166343	-0.586436
N142	N	1.331604	1.666343	-0.086436
H143	H	1.157880	1.204716	-0.260613
H144	H	1.657880	1.704716	0.239387
H145	H	0.969526	1.204722	-0.448728
H146	H	1.469526	1.704722	0.051272
C147	C	0.969359	0.775239	-0.448617
C148	C	1.469359	1.275239	0.051383
N149	N	0.969336	0.684328	-0.448595
N150	N	1.469336	1.184328	0.051405
C151	C	0.870511	0.890455	-0.547419
C152	C	1.370511	1.390455	-0.047419
N153	N	0.831482	0.845013	-0.586383
N154	N	1.331482	1.345013	-0.086383
C155	C	1.162518	0.364937	-0.774273
C156	C	1.662518	0.864937	-0.274273
N157	N	1.201520	0.309272	-0.742451
N158	N	1.701520	0.809272	-0.242451
C159	C	1.162541	0.364884	-0.935665
C160	C	1.662541	0.864884	-0.435665
N161	N	1.201557	0.309205	-0.967510
N162	N	1.701557	0.809205	-0.467510
