data_functionalizedCrystal
_audit_creation_method	'MofGen! by Chris Wilmer'
_symmetry_space_group_name_H-M	'P1'
_symmetry_Int_Tables_number	1
_symmetry_cell_setting	triclinic
loop_
_symmetry_equiv_pos_as_xyz
  x,y,z
_cell_length_a	16.625547
_cell_length_b	13.897447
_cell_length_c	13.897441
_cell_angle_alpha	89.970673
_cell_angle_beta	89.973876
_cell_angle_gamma	90.019467
loop_
_atom_site_label
_atom_site_type_symbol
_atom_site_fract_x
_atom_site_fract_y
_atom_site_fract_z
Zn1	Zn	1.232707	-0.383986	-0.545528
Zn2	Zn	1.482707	-0.133986	-0.295528
Zn3	Zn	1.732707	0.116014	-0.045528
Zn4	Zn	1.982707	0.366014	0.204472
Zn5	Zn	1.232614	-0.545307	-0.384233
Zn6	Zn	1.482614	-0.295307	-0.134233
Zn7	Zn	1.732614	-0.045307	0.115767
Zn8	Zn	1.982614	0.204693	0.365767
Zn9	Zn	1.097866	-0.384028	-0.384232
Zn10	Zn	1.347866	-0.134028	-0.134232
Zn11	Zn	1.597866	0.115972	0.115768
Zn12	Zn	1.847866	0.365972	0.365768
Zn13	Zn	1.097846	-0.545240	-0.545471
Zn14	Zn	1.347846	-0.295240	-0.295471
Zn15	Zn	1.597846	-0.045240	-0.045471
Zn16	Zn	1.847846	0.204760	0.204529
O17	O	1.165259	-0.464640	-0.464866
O18	O	1.415259	-0.214640	-0.214866
O19	O	1.665259	0.035360	0.035134
O20	O	1.915259	0.285360	0.285134
O21	O	1.345527	-0.405396	-0.524157
O22	O	1.595527	-0.155396	-0.274157
O23	O	1.845527	0.094604	-0.024157
O24	O	2.095527	0.344604	0.225843
O25	O	1.214709	-0.523959	-0.249251
O26	O	1.464709	-0.273959	0.000749
O27	O	1.714709	-0.023959	0.250749
O28	O	1.964709	0.226041	0.500749
O29	O	1.115800	-0.249041	-0.405651
O30	O	1.365800	0.000959	-0.155651
O31	O	1.615800	0.250959	0.094349
O32	O	1.865800	0.500959	0.344349
O33	O	1.345459	-0.523918	-0.405654
O34	O	1.595459	-0.273918	-0.155654
O35	O	1.845459	-0.023918	0.094346
O36	O	2.095459	0.226082	0.344346
O37	O	1.214867	-0.249010	-0.524155
O38	O	1.464867	0.000990	-0.274155
O39	O	1.714867	0.250990	-0.024155
O40	O	1.964867	0.500990	0.225845
O41	O	1.115710	-0.405468	-0.249250
O42	O	1.365710	-0.155468	0.000750
O43	O	1.615710	0.094532	0.250750
O44	O	1.865710	0.344532	0.500750
O45	O	0.985031	-0.405403	-0.405596
O46	O	1.235031	-0.155403	-0.155596
O47	O	1.485031	0.094597	0.094404
O48	O	1.735031	0.344597	0.344404
O49	O	1.115767	-0.523804	-0.680460
O50	O	1.365767	-0.273804	-0.430460
O51	O	1.615767	-0.023804	-0.180460
O52	O	1.865767	0.226196	0.069540
O53	O	0.985017	-0.523845	-0.524057
O54	O	1.235017	-0.273845	-0.274057
O55	O	1.485017	-0.023845	-0.024057
O56	O	1.735017	0.226155	0.225943
O57	O	1.214848	-0.405331	-0.680503
O58	O	1.464848	-0.155331	-0.430503
O59	O	1.714848	0.094669	-0.180503
O60	O	1.964848	0.344669	0.069497
O61	O	1.214690	-0.680280	-0.405599
O62	O	1.464690	-0.430280	-0.155599
O63	O	1.714690	-0.180280	0.094401
O64	O	1.964690	0.069720	0.344401
O65	O	1.115677	-0.680231	-0.524059
O66	O	1.365677	-0.430231	-0.274059
O67	O	1.615677	-0.180231	-0.024059
O68	O	1.865677	0.069769	0.225941
C69	C	1.165193	-0.715255	-0.464844
C70	C	1.415193	-0.465255	-0.214844
C71	C	1.665193	-0.215255	0.035156
C72	C	1.915193	0.034745	0.285156
C73	C	1.165239	-0.822469	-0.464866
C74	C	1.415239	-0.572469	-0.214866
C75	C	1.665239	-0.322469	0.035134
C76	C	1.915239	-0.072469	0.285134
C77	C	0.955768	-0.464622	-0.464821
C78	C	1.205768	-0.214622	-0.214821
C79	C	1.455768	0.035378	0.035179
C80	C	1.705768	0.285378	0.285179
C81	C	0.866147	-0.464637	-0.464824
C82	C	1.116147	-0.214637	-0.214824
C83	C	1.366147	0.035363	0.035176
C84	C	1.616147	0.285363	0.285176
C85	C	1.165278	-0.909538	-0.464888
C86	C	1.415278	-0.659538	-0.214888
C87	C	1.665278	-0.409538	0.035112
C88	C	1.915278	-0.159538	0.285112
C89	C	1.165334	-1.018771	-0.464913
C90	C	1.415334	-0.768771	-0.214913
C91	C	1.665334	-0.518771	0.035087
C92	C	1.915334	-0.268771	0.285087
C93	C	0.793364	-0.464639	-0.464836
C94	C	1.043364	-0.214639	-0.214836
C95	C	1.293364	0.035361	0.035164
C96	C	1.543364	0.285361	0.285164
C97	C	0.702056	-0.464644	-0.464860
C98	C	0.952056	-0.214644	-0.214860
C99	C	1.202056	0.035356	0.035140
C100	C	1.452056	0.285356	0.285140
C101	C	0.629279	-0.464653	-0.464884
C102	C	0.879279	-0.214653	-0.214884
C103	C	1.129279	0.035347	0.035116
C104	C	1.379279	0.285347	0.285116
C105	C	0.537965	-0.464659	-0.464908
C106	C	0.787965	-0.214659	-0.214908
C107	C	1.037965	0.035341	0.035092
C108	C	1.287965	0.285341	0.285092
C109	C	1.375567	-0.464660	-0.464912
C110	C	1.625567	-0.214660	-0.214912
C111	C	1.875567	0.035340	0.035088
C112	C	2.125567	0.285340	0.285088
C113	C	1.465189	-0.464668	-0.464932
C114	C	1.715189	-0.214668	-0.214932
C115	C	1.965189	0.035332	0.035068
C116	C	2.215189	0.285332	0.285068
C117	C	1.165316	-0.464555	-0.716459
C118	C	1.415316	-0.214555	-0.466459
C119	C	1.665316	0.035445	-0.216459
C120	C	1.915316	0.285445	0.033541
C121	C	1.165340	-0.464519	-0.823673
C122	C	1.415340	-0.214519	-0.573673
C123	C	1.665340	0.035481	-0.323673
C124	C	1.915340	0.285481	-0.073673
C125	C	1.165346	-0.213047	-0.464910
C126	C	1.415346	0.036953	-0.214910
C127	C	1.665346	0.286953	0.035090
C128	C	1.915346	0.536953	0.285090
C129	C	1.165384	-0.105833	-0.464928
C130	C	1.415384	0.144167	-0.214928
C131	C	1.665384	0.394167	0.035072
C132	C	1.915384	0.644167	0.285072
C133	C	1.165362	-0.464453	-1.019968
C134	C	1.415362	-0.214453	-0.769968
C135	C	1.665362	0.035547	-0.519968
C136	C	1.915362	0.285547	-0.269968
C137	C	1.165347	-0.464492	-0.910736
C138	C	1.415347	-0.214492	-0.660736
C139	C	1.665347	0.035508	-0.410736
C140	C	1.915347	0.285508	-0.160736
C141	C	1.165248	-0.464656	-0.214252
C142	C	1.415248	-0.214656	0.035748
C143	C	1.665248	0.035344	0.285748
C144	C	1.915248	0.285344	0.535748
C145	C	1.165380	-0.464420	-0.107038
C146	C	1.415380	-0.214420	0.142962
C147	C	1.665380	0.035580	0.392962
C148	C	1.915380	0.285580	0.642962
