data_functionalizedCrystal
_audit_creation_method	'MofGen! by Chris Wilmer'
_symmetry_space_group_name_H-M	'P1'
_symmetry_Int_Tables_number	1
_symmetry_cell_setting	triclinic
loop_
_symmetry_equiv_pos_as_xyz
  x,y,z
_cell_length_a	16.109302
_cell_length_b	10.654550
_cell_length_c	15.186229
_cell_angle_alpha	89.997420
_cell_angle_beta	89.994701
_cell_angle_gamma	83.973342
loop_
_atom_site_label
_atom_site_type_symbol
_atom_site_fract_x
_atom_site_fract_y
_atom_site_fract_z
O1	O	1.104090	0.161423	-0.073266
O2	O	0.862148	0.181511	-0.073259
O3	O	0.988681	-0.011348	-0.073259
O4	O	0.977556	0.354282	-0.073265
O5	O	0.988673	-0.011350	0.073198
O6	O	0.862139	0.181508	0.073199
O7	O	1.104081	0.161421	0.073191
Zn8	Zn	0.983109	0.171464	0.096448
Zn9	Zn	0.983120	0.171467	-0.096516
O10	O	0.977547	0.354279	0.073192
C11	C	0.831164	0.180695	-0.000029
C12	C	0.738854	0.178255	-0.000026
C13	C	0.526475	0.172612	0.079799
C14	C	0.439741	0.170306	0.079796
C15	C	0.439761	0.170315	-0.079880
C16	C	0.526494	0.172612	-0.079876
C17	C	0.569848	0.173767	-0.000034
C18	C	0.396381	0.169164	-0.000041
C19	C	0.302341	0.166664	-0.000045
C20	C	0.663895	0.176265	-0.000030
C21	C	0.987860	-0.058136	-0.000032
C22	C	0.985416	-0.197546	-0.000035
C23	C	1.059918	-0.278042	-0.000034
C24	C	1.057616	-0.409032	-0.000040
C25	C	0.906306	-0.379016	-0.000044
C26	C	0.908608	-0.248029	-0.000044
C27	C	1.136726	-0.227559	-0.000025
C28	C	1.211233	-0.308057	-0.000024
C29	C	1.208932	-0.439046	-0.000030
C30	C	1.132123	-0.489538	-0.000037
C31	C	1.135065	0.162236	-0.000040
C32	C	1.227375	0.164676	-0.000049
C33	C	0.978369	0.401067	-0.000038
C34	C	0.980813	0.540477	-0.000040
N35	N	0.983107	0.171461	0.228141
N36	N	0.983128	0.171461	-0.228208
C37	C	1.039156	0.086092	0.453864
C38	C	1.039158	0.086089	0.546053
C39	C	0.927074	0.256834	0.546063
C40	C	0.927068	0.256830	0.453875
C41	C	0.983113	0.171460	0.407778
C42	C	0.983122	0.171461	0.592155
C43	C	0.983124	0.171459	0.692111
C44	C	0.983110	0.171461	0.307815
H45	H	0.561771	0.173552	0.144811
O46	O	1.093565	0.002993	0.590724
C47	C	1.079323	-0.121332	0.568218
H48	H	1.047275	-0.121190	0.501289
H49	H	1.037721	-0.160189	0.620111
C50	C	1.202620	-0.205011	0.646151
C51	C	1.163264	-0.204839	0.563944
H52	H	1.254397	-0.256525	0.643518
H53	H	1.212214	-0.121252	0.661317
H54	H	1.167943	-0.237389	0.689386
H55	H	1.197936	-0.172447	0.520713
H56	H	1.153678	-0.288595	0.548771
O57	O	1.285790	-0.258864	-0.000138
C58	C	1.291662	-0.184009	-0.075997
H59	H	1.226324	-0.151354	-0.101284
H60	H	1.328114	-0.241889	-0.129114
C61	C	1.417350	-0.108274	-0.021894
C62	C	1.337099	-0.068157	-0.052947
H63	H	1.445380	-0.036814	-0.007678
H64	H	1.413395	-0.158708	0.029213
H65	H	1.447715	-0.156508	-0.066163
H66	H	1.306732	-0.019938	-0.008675
H67	H	1.341049	-0.017712	-0.104046
O68	O	0.397732	0.169247	0.157424
C69	C	0.454603	0.170725	0.227890
H70	H	0.513216	0.212101	0.204486
H71	H	0.471971	0.070280	0.252440
C72	C	0.342096	0.201312	0.332062
C73	C	0.414084	0.252141	0.303318
H74	H	0.317102	0.251528	0.378592
H75	H	0.303781	0.200312	0.284589
H76	H	0.356580	0.117609	0.352514
H77	H	0.399598	0.335836	0.282857
H78	H	0.452396	0.253157	0.350790
H79	H	0.404451	0.169377	-0.144885
H80	H	0.881443	0.326341	0.583604
O81	O	1.093527	0.003230	0.408948
C82	C	1.081475	0.021480	0.317697
H83	H	1.051027	0.121335	0.305090
H84	H	1.039315	-0.049572	0.291580
C85	C	1.203789	-0.120136	0.285811
C86	C	1.166399	0.002512	0.270327
H87	H	1.256173	-0.131842	0.256589
H88	H	1.211907	-0.132436	0.347288
H89	H	1.168648	-0.179332	0.264047
H90	H	1.201535	0.061705	0.292101
H91	H	1.158288	0.014821	0.208852
O92	O	1.281381	-0.517063	0.000006
C93	C	1.349663	-0.444410	-0.000010
H94	H	1.329120	-0.346642	0.027720
H95	H	1.373178	-0.435086	-0.070271
C96	C	1.445465	-0.629795	0.023370
C97	C	1.420236	-0.509717	0.057435
H98	H	1.489000	-0.670080	0.058800
H99	H	1.399463	-0.678744	0.023377
H100	H	1.465056	-0.622007	-0.035181
H101	H	1.400636	-0.517507	0.115980
H102	H	1.466236	-0.460771	0.057438
H103	H	0.561809	0.173550	-0.144889
O104	O	0.831770	-0.428270	-0.000005
C105	C	0.845715	-0.561144	-0.000025
H106	H	0.910417	-0.591930	0.027701
H107	H	0.841480	-0.597603	-0.070288
C108	C	0.699796	-0.577641	0.023359
C109	C	0.779262	-0.615452	0.057420
H110	H	0.658803	-0.611143	0.058790
H111	H	0.690400	-0.488121	0.023370
H112	H	0.696279	-0.608026	-0.035192
H113	H	0.782781	-0.585054	0.115966
H114	H	0.788656	-0.704969	0.057421
H115	H	0.847943	-0.182487	-0.000043
O116	O	0.872595	0.339884	0.409237
C117	C	0.823119	0.415221	0.469690
H118	H	0.857215	0.416664	0.535400
H119	H	0.761127	0.374416	0.479507
C120	C	0.764883	0.548913	0.352994
C121	C	0.806763	0.550694	0.433698
H122	H	0.754790	0.632477	0.330792
H123	H	0.798213	0.498155	0.312265
H124	H	0.713227	0.514903	0.361186
H125	H	0.858422	0.584688	0.425502
H126	H	0.773441	0.601461	0.474425
H127	H	1.130255	-0.596200	-0.000052
H128	H	1.138608	-0.120902	-0.000017
