data_functionalizedCrystal
_audit_creation_method	'MofGen! by Chris Wilmer'
_symmetry_space_group_name_H-M	'P1'
_symmetry_Int_Tables_number	1
_symmetry_cell_setting	triclinic
loop_
_symmetry_equiv_pos_as_xyz
  x,y,z
_cell_length_a	14.519709
_cell_length_b	13.596369
_cell_length_c	14.519731
_cell_angle_alpha	90.011346
_cell_angle_beta	83.684500
_cell_angle_gamma	89.999709
loop_
_atom_site_label
_atom_site_type_symbol
_atom_site_fract_x
_atom_site_fract_y
_atom_site_fract_z
O1	O	-1.223878	-0.081675	-0.120892
O2	O	-0.890544	0.251658	0.212442
O3	O	-0.557211	0.584991	0.545775
O4	O	-0.955402	-0.081707	-0.135128
O5	O	-0.622069	0.251626	0.198205
O6	O	-0.288735	0.584960	0.531539
O7	O	-1.096748	-0.081670	0.006227
O8	O	-0.763414	0.251663	0.339561
O9	O	-0.430081	0.584996	0.672894
O10	O	-1.082532	-0.081712	-0.262247
O11	O	-0.749198	0.251621	0.071086
O12	O	-0.415865	0.584955	0.404420
O13	O	-1.096734	0.081912	0.006235
O14	O	-0.763400	0.415246	0.339568
O15	O	-0.430067	0.748579	0.672902
O16	O	-0.955388	0.081876	-0.135120
O17	O	-0.622054	0.415209	0.198213
O18	O	-0.288721	0.748543	0.531546
O19	O	-1.223864	0.081908	-0.120884
O20	O	-0.890530	0.415241	0.212449
O21	O	-0.557197	0.748574	0.545783
Zn22	Zn	-1.089623	0.107864	-0.128001
Zn23	Zn	-0.756290	0.441197	0.205332
Zn24	Zn	-0.422957	0.774531	0.538666
Zn25	Zn	-1.089642	-0.107663	-0.128011
Zn26	Zn	-0.756309	0.225670	0.205322
Zn27	Zn	-0.422975	0.559003	0.538656
O28	O	-1.082518	0.081871	-0.262239
O29	O	-0.749184	0.415204	0.071094
O30	O	-0.415851	0.748538	0.404427
C31	C	-0.921035	0.000081	-0.134461
C32	C	-0.587702	0.333414	0.198873
C33	C	-0.254368	0.666747	0.532206
C34	C	-0.818654	0.000070	-0.132473
C35	C	-0.485320	0.333403	0.200861
C36	C	-0.151987	0.666736	0.534194
C37	C	-1.096075	0.000124	0.040591
C38	C	-0.762741	0.333457	0.373924
C39	C	-0.429408	0.666791	0.707257
C40	C	-1.094079	0.000133	0.142971
C41	C	-0.760745	0.333466	0.476304
C42	C	-0.427412	0.666799	0.809637
N43	N	-1.089617	0.254956	-0.127994
N44	N	-0.756284	0.588289	0.205340
N45	N	-0.422951	0.921623	0.538673
C46	C	-1.258230	0.000118	-0.121551
C47	C	-0.924897	0.333451	0.211782
C48	C	-0.591564	0.666784	0.545115
C49	C	-1.360612	0.000122	-0.123539
C50	C	-1.027279	0.333456	0.209794
C51	C	-0.693945	0.666789	0.543127
C52	C	-0.443757	0.000116	-0.125153
C53	C	-0.110424	0.333449	0.208180
C54	C	0.222909	0.666782	0.541514
C55	C	-0.548065	0.000102	-0.127186
C56	C	-0.214732	0.333436	0.206148
C57	C	0.118601	0.666769	0.539481
C58	C	-0.631202	0.000092	-0.128813
C59	C	-0.297869	0.333425	0.204521
C60	C	0.035465	0.666758	0.537854
C61	C	-0.735517	0.000080	-0.130846
C62	C	-0.402183	0.333414	0.202488
C63	C	-0.068850	0.666747	0.535821
N64	N	-1.089655	-0.254755	-0.128011
N65	N	-0.756322	0.078578	0.205322
N66	N	-0.422989	0.411911	0.538656
C67	C	-1.089641	0.656247	-0.128012
C68	C	-0.756307	0.989580	0.205321
C69	C	-0.422974	1.322914	0.538655
C70	C	-1.089632	0.544595	-0.128010
C71	C	-0.756298	0.877929	0.205323
C72	C	-0.422965	1.211262	0.538657
C73	C	-1.089630	0.455605	-0.128004
C74	C	-0.756296	0.788938	0.205330
C75	C	-0.422963	1.122272	0.538663
C76	C	-1.089619	0.343946	-0.128000
C77	C	-0.756286	0.677280	0.205333
C78	C	-0.422953	1.010613	0.538666
C79	C	-1.092457	0.000137	0.226115
C80	C	-0.759123	0.333470	0.559448
C81	C	-0.425790	0.666804	0.892782
C82	C	-1.090430	0.000138	0.330424
C83	C	-0.757097	0.333471	0.663757
C84	C	-0.423763	0.666804	0.997090
C85	C	-1.088822	0.000138	0.413563
C86	C	-0.755488	0.333471	0.746896
C87	C	-0.422155	0.666805	1.080229
C88	C	-1.086795	0.000141	0.517878
C89	C	-0.753462	0.333474	0.851211
C90	C	-0.420129	0.666807	1.184545
C91	C	-1.083191	0.000095	0.703397
C92	C	-0.749858	0.333428	1.036731
C93	C	-0.416524	0.666762	1.370064
C94	C	-1.085187	0.000141	0.601017
C95	C	-0.751854	0.333474	0.934351
C96	C	-0.418520	0.666808	1.267684
