data_functionalizedCrystal
_audit_creation_method	'MofGen! by Chris Wilmer'
_symmetry_space_group_name_H-M	'P1'
_symmetry_Int_Tables_number	1
_symmetry_cell_setting	triclinic
loop_
_symmetry_equiv_pos_as_xyz
  x,y,z
_cell_length_a	10.540539
_cell_length_b	10.654550
_cell_length_c	9.730223
_cell_angle_alpha	90.003496
_cell_angle_beta	89.999114
_cell_angle_gamma	95.494789
loop_
_atom_site_label
_atom_site_type_symbol
_atom_site_fract_x
_atom_site_fract_y
_atom_site_fract_z
O1	O	1.685821	-0.176990	-0.114225
O2	O	2.185821	0.323010	0.385775
O3	O	1.316402	-0.193666	-0.114242
O4	O	1.816402	0.306334	0.385758
O5	O	1.509605	-0.002592	-0.114224
O6	O	2.009605	0.497408	0.385776
O7	O	1.492618	-0.368065	-0.114242
O8	O	1.992618	0.131935	0.385758
O9	O	1.509594	-0.002590	0.114356
O10	O	2.009594	0.497410	0.614356
O11	O	1.316390	-0.193664	0.114338
O12	O	1.816390	0.306336	0.614338
O13	O	1.685809	-0.176988	0.114355
O14	O	2.185809	0.323012	0.614355
Zn15	Zn	1.501098	-0.185325	0.150639
Zn16	Zn	2.001098	0.314675	0.650639
Zn17	Zn	1.501113	-0.185329	-0.150525
Zn18	Zn	2.001113	0.314671	0.349475
O19	O	1.492606	-0.368062	0.114338
O20	O	1.992606	0.131938	0.614338
C21	C	1.269094	-0.192415	0.000046
C22	C	1.769094	0.307585	0.500046
C23	C	1.128147	-0.188673	0.000040
C24	C	1.628147	0.311327	0.500040
N25	N	1.501097	-0.185322	0.356175
N26	N	2.001097	0.314678	0.856175
C27	C	1.508352	0.044208	0.000065
C28	C	2.008352	0.544208	0.500065
C29	C	1.504620	0.183652	0.000063
C30	C	2.004620	0.683652	0.500063
C31	C	0.944772	-0.045302	0.000581
C32	C	1.444772	0.454698	0.500581
C33	C	1.091388	-0.049095	0.000051
C34	C	1.591388	0.450905	0.500051
C35	C	1.066457	-0.255845	-0.130489
C36	C	1.566457	0.244155	0.369511
C37	C	0.919914	-0.251082	-0.130584
C38	C	1.419914	0.248918	0.369416
C39	C	0.919411	-0.253918	0.129354
C40	C	1.419411	0.246082	0.629354
C41	C	1.066393	-0.255204	0.131065
C42	C	1.566393	0.244796	0.631065
C43	C	1.733118	-0.178240	0.000064
C44	C	2.233118	0.321760	0.500064
C45	C	1.874064	-0.181981	0.000062
C46	C	2.374064	0.318019	0.500062
C47	C	1.493859	-0.414862	0.000045
C48	C	1.993859	0.085138	0.500045
C49	C	1.497591	-0.554306	0.000039
C50	C	1.997591	-0.054306	0.500039
C51	C	1.618375	0.263098	0.000067
C52	C	2.118375	0.763098	0.500067
C53	C	1.614861	0.394120	0.000050
C54	C	2.114861	0.894120	0.500050
C55	C	1.383827	0.366238	0.000030
C56	C	1.883827	0.866238	0.500030
C57	C	1.387343	0.235218	0.000037
C58	C	1.887343	0.735218	0.500037
C59	C	1.586682	-0.100747	0.572001
C60	C	2.086682	0.399253	1.072001
C61	C	1.586675	-0.100748	0.428118
C62	C	2.086675	0.399252	0.928118
C63	C	1.415530	-0.269909	0.428123
C64	C	1.915530	0.230091	0.928123
C65	C	1.415544	-0.269913	0.572003
C66	C	1.915544	0.230087	1.072003
N67	N	1.501118	-0.185325	0.643938
N68	N	2.001118	0.314675	1.143938
H69	H	1.134017	0.003759	0.093620
H70	H	1.634017	0.503759	0.593620
H71	H	0.891726	-0.201437	-0.228150
H72	H	1.391726	0.298563	0.271850
H73	H	0.914589	0.009605	-0.092502
H74	H	1.414589	0.509605	0.407498
H75	H	0.887876	-0.208746	0.228294
H76	H	1.387876	0.291254	0.728294
H77	H	1.090582	-0.356966	0.138941
H78	H	1.590582	0.143034	0.638941
H79	H	0.916201	0.009841	0.094191
H80	H	1.416201	0.509841	0.594191
H81	H	0.871909	-0.351465	-0.136513
H82	H	1.371909	0.148535	0.363487
H83	H	1.088773	-0.358348	-0.135350
H84	H	1.588773	0.141652	0.364650
H85	H	1.288344	0.408240	0.000012
H86	H	1.788344	0.908240	0.500012
H87	H	1.133158	0.004130	-0.093674
H88	H	1.633158	0.504130	0.406326
H89	H	1.109067	-0.209185	-0.227626
H90	H	1.609067	0.290815	0.272374
H91	H	1.656349	-0.031879	0.369551
H92	H	2.156349	0.468121	0.869551
H93	H	1.345855	-0.338777	0.369538
H94	H	1.845855	0.161223	0.869538
H95	H	1.294704	0.170530	0.000029
H96	H	1.794704	0.670530	0.500029
H97	H	1.345868	-0.338793	0.630578
H98	H	1.845868	0.161207	1.130578
H99	H	1.107368	-0.206132	0.227630
H100	H	1.607368	0.293868	0.727630
H101	H	0.872148	-0.354735	0.130231
H102	H	1.372148	0.145265	0.630231
H103	H	1.713870	0.221117	0.000085
H104	H	2.213870	0.721117	0.500085
H105	H	1.656363	-0.031872	0.630568
H106	H	2.156363	0.468128	1.130568
H107	H	1.707492	0.458800	0.000051
H108	H	2.207492	0.958800	0.500051
