data_functionalizedCrystal
_audit_creation_method	'MofGen! by Chris Wilmer'
_symmetry_space_group_name_H-M	'P1'
_symmetry_Int_Tables_number	1
_symmetry_cell_setting	triclinic
loop_
_symmetry_equiv_pos_as_xyz
  x,y,z
_cell_length_a	14.044220
_cell_length_b	9.565339
_cell_length_c	14.044220
_cell_angle_alpha	90.002311
_cell_angle_beta	93.188878
_cell_angle_gamma	89.992574
loop_
_atom_site_label
_atom_site_type_symbol
_atom_site_fract_x
_atom_site_fract_y
_atom_site_fract_z
O1	O	1.277158	0.116117	0.230162
O2	O	1.000487	0.116152	0.221857
O3	O	1.134670	0.116121	0.087674
O4	O	1.142975	0.116148	0.364345
O5	O	1.134676	-0.116399	0.087679
O6	O	1.000493	-0.116368	0.221861
O7	O	1.277165	-0.116403	0.230167
Zn8	Zn	1.138830	-0.153303	0.226015
Zn9	Zn	1.138821	0.153052	0.226009
O10	O	1.142982	-0.116372	0.364350
C11	C	0.964868	-0.000104	0.218223
C12	C	0.858725	-0.000091	0.207379
C13	C	0.664388	-0.000120	0.187553
C14	C	0.613258	-0.000119	0.264467
C15	C	0.505122	-0.000135	0.253435
C16	C	0.772534	-0.000104	0.198583
N17	N	1.138843	-0.362383	0.226019
C18	C	1.200920	-0.453563	0.163970
C19	C	1.113081	-0.546724	0.138133
C20	C	1.226643	-0.546777	0.251792
C21	C	1.050957	-0.453492	0.200135
C22	C	1.164579	-0.453537	0.313837
C23	C	1.076681	-0.546656	0.288031
C24	C	1.312783	-0.000145	0.233800
C25	C	1.418926	-0.000148	0.244645
C26	C	1.131037	-0.000139	0.052054
C27	C	1.120193	-0.000139	-0.054088
N28	N	1.138815	0.362131	0.225998
C29	C	1.100366	-0.000117	-0.248426
C30	C	1.177281	-0.000122	-0.299556
C31	C	1.166249	-0.000110	-0.407692
C32	C	1.111397	-0.000129	-0.140280
C33	C	1.146614	-0.000109	0.399969
C34	C	1.157459	-0.000100	0.506112
H35	H	0.626951	-0.000135	0.113425
H36	H	1.251414	-0.000038	-0.262117
H37	H	1.253360	-0.412686	0.111464
H38	H	1.091296	-0.587658	0.063857
H39	H	1.024110	-0.587274	0.340492
C40	C	1.000221	-0.000113	-0.298996
C41	C	0.911109	-0.000118	-0.239871
C42	C	0.810965	-0.000121	-0.290454
C43	C	0.799933	-0.000120	-0.400162
C44	C	0.889048	-0.000115	-0.459293
C45	C	0.989192	-0.000111	-0.408710
H46	H	0.919273	-0.000119	-0.158653
H47	H	0.744996	-0.000125	-0.246681
H48	H	0.725800	-0.000122	-0.437607
H49	H	0.880884	-0.000114	-0.540511
H50	H	1.055160	-0.000108	-0.452483
C51	C	0.950600	-0.398386	0.170550
C52	C	0.935431	-0.305383	0.081497
C53	C	0.835077	-0.250274	0.051909
C54	C	0.749892	-0.288170	0.111373
C55	C	0.765059	-0.381178	0.200432
C56	C	0.865413	-0.436286	0.230020
H57	H	0.998492	-0.277326	0.037473
H58	H	0.823850	-0.181423	-0.014019
H59	H	0.675604	-0.247375	0.089470
H60	H	0.701998	-0.409235	0.244456
H61	H	0.876640	-0.505137	0.295948
H62	H	1.186389	-0.412573	0.388092
H63	H	1.300906	-0.587752	0.273600
H64	H	0.650697	-0.000105	0.338600
