data_functionalizedCrystal
_audit_creation_method	'MofGen! by Chris Wilmer'
_symmetry_space_group_name_H-M	'P1'
_symmetry_Int_Tables_number	1
_symmetry_cell_setting	triclinic
loop_
_symmetry_equiv_pos_as_xyz
  x,y,z
_cell_length_a	18.426585
_cell_length_b	14.560438
_cell_length_c	14.560438
_cell_angle_alpha	60.005799
_cell_angle_beta	90.001626
_cell_angle_gamma	59.999347
loop_
_atom_site_label
_atom_site_type_symbol
_atom_site_fract_x
_atom_site_fract_y
_atom_site_fract_z
Zr1	Zr	0.699172	1.005156	-0.120328
O2	O	0.583297	1.196750	-0.266957
O3	O	0.734690	0.813569	-0.075398
O4	O	0.734696	1.005157	-0.266974
O5	O	0.583291	1.005159	0.075760
O6	O	0.854127	1.005150	-0.266966
O7	O	0.583291	1.005161	-0.075381
O8	O	0.854116	0.662434	0.075729
O9	O	0.583301	1.347875	-0.266935
O10	O	0.838973	0.892364	-0.056206
O11	O	0.749843	0.892367	0.056582
O12	O	0.749850	1.117937	-0.168974
O13	O	0.660720	1.117940	-0.056186
Zr14	Zr	0.889651	1.005142	0.120738
Zr15	Zr	0.889651	1.005146	-0.120314
Zr16	Zr	0.699172	1.005152	0.120724
Zr17	Zr	0.699180	1.246184	-0.120293
Zr18	Zr	0.889643	0.764114	0.120702
O19	O	0.854133	1.196729	0.075808
O20	O	0.854133	1.196735	-0.266938
O21	O	0.583297	1.196744	0.075788
O22	O	1.005526	0.813548	0.267367
O23	O	1.005526	0.813554	-0.075378
O24	O	0.734690	0.813563	0.267347
O25	O	1.005532	1.005139	-0.075350
O26	O	0.854127	1.005141	0.267384
O27	O	0.734696	1.005148	0.267375
O28	O	1.005532	1.005136	0.075790
O29	O	0.734707	1.347867	-0.266924
O30	O	0.854116	0.662431	0.267334
O31	O	1.005521	0.662423	0.267345
O32	O	1.005521	0.662426	0.075740
O33	O	0.583302	1.347872	-0.075331
O34	O	0.734707	1.347864	-0.075320
O35	O	0.838973	0.892360	0.169384
O36	O	0.928103	0.892358	0.056595
O37	O	0.838980	1.117931	-0.056173
O38	O	0.749850	1.117934	0.056615
C39	C	0.794402	0.703660	0.000161
C40	C	0.794399	0.601338	0.000146
C41	C	0.728608	0.636469	-0.083081
C42	C	0.728623	0.540280	-0.083024
C43	C	0.860221	0.373829	0.083495
C44	C	0.860210	0.470017	0.083433
C45	C	0.652629	0.732568	-0.179217
C46	C	0.652643	0.636379	-0.179160
C47	C	0.556152	1.005162	0.000188
C48	C	0.475289	1.005166	0.000182
C49	C	0.409618	1.005171	0.000182
C50	C	0.327236	1.005165	0.000192
C51	C	0.261579	1.005152	0.000206
C52	C	0.179192	1.005146	0.000215
C53	C	1.032671	1.005136	0.000222
C54	C	1.113534	1.005132	0.000228
C55	C	0.794411	1.005154	-0.301315
C56	C	0.794411	1.005156	-0.403648
C57	C	0.794421	1.306638	0.000249
C58	C	0.794424	1.408960	0.000264
C59	C	0.747886	1.122900	-0.510588
C60	C	0.747889	1.122894	-0.606736
C61	C	0.840942	0.887388	-0.488991
C62	C	0.840944	0.887396	-0.392845
C63	C	0.694159	1.258868	-0.578568
C64	C	0.694162	1.258862	-0.674717
C65	C	0.794412	1.005144	0.301724
C66	C	0.794412	1.005142	0.404057
C67	C	1.032661	0.703647	0.000178
C68	C	1.113521	0.601320	0.000169
C69	C	0.794402	0.703655	0.301680
C70	C	0.794399	0.601331	0.403998
C71	C	1.032662	0.703642	0.301697
C72	C	1.113522	0.601314	0.404021
C73	C	0.556161	1.306656	-0.301288
C74	C	0.475301	1.408984	-0.403612
C75	C	0.556161	1.306650	0.000232
C76	C	0.475301	1.408977	0.000241
C77	C	0.794421	1.306643	-0.301270
C78	C	0.794424	1.408967	-0.403588
C79	C	1.104969	0.553270	-0.058727
C80	C	1.180938	0.457136	-0.058758
C81	C	1.265459	0.409048	0.000114
C82	C	1.274009	0.457108	0.059011
C83	C	1.198041	0.553247	0.059035
C84	C	1.198027	0.553257	0.393199
C85	C	1.274011	0.457122	0.489334
C86	C	1.265487	0.409038	0.596290
C87	C	1.180973	0.457104	0.607110
C88	C	1.104991	0.553244	0.510976
C89	C	0.390795	1.457052	-0.392790
C90	C	0.314812	1.553217	-0.488924
C91	C	0.323335	1.601306	-0.595880
C92	C	0.407850	1.553234	-0.606700
C93	C	0.483832	1.457078	-0.510566
C94	C	0.483854	1.457038	0.059126
C95	C	0.407884	1.553198	0.059131
C96	C	0.323364	1.601289	0.000256
C97	C	0.314813	1.553225	-0.058637
C98	C	0.390782	1.457073	-0.058647
C99	C	0.840924	0.553250	0.510948
C100	C	0.840914	0.457111	0.607083
C101	C	0.747853	0.457137	0.489303
C102	C	0.747858	0.553281	0.393171
C103	C	0.894655	0.553230	0.578948
C104	C	0.894645	0.457091	0.675083
H105	H	0.659169	0.795544	-0.261349
H106	H	0.383806	1.417945	-0.106596
H107	H	0.592202	0.792244	-0.162425
H108	H	0.913802	0.266899	0.151305
H109	H	0.414864	1.592316	0.107093
H110	H	0.552638	1.417942	-0.519391
C111	C	1.349079	0.303271	0.702030
N112	N	1.412044	0.223603	0.781669
C113	C	0.670551	0.636351	-0.282463
N114	N	0.684032	0.636335	-0.360273
H115	H	0.587758	0.647196	-0.170856
C116	C	0.932591	0.431363	0.174979
N117	N	0.987112	0.402245	0.243936
H118	H	0.383838	1.417903	-0.305709
H119	H	1.204984	0.592393	0.306119
H120	H	1.174046	0.417940	0.694206
H121	H	1.173959	0.418018	-0.106719
H122	H	1.342836	0.417941	0.106942
C123	C	0.417211	1.606135	-0.724362
N124	N	0.424259	1.645974	-0.812988
H125	H	0.878840	0.791517	-0.305772
C126	C	0.601234	1.315875	-0.566772
N127	N	0.531241	1.358814	-0.557888
C128	C	1.012003	0.606156	-0.123502
N129	N	0.941983	0.645991	-0.172301
H130	H	1.327310	0.330765	0.000086
C131	C	0.742085	1.315802	-0.743478
N132	N	0.778196	1.358662	-0.795257
C133	C	0.239804	1.707054	0.000285
N134	N	0.176870	1.786712	0.000314
H135	H	0.878828	0.791512	-0.480210
C136	C	1.207464	0.606079	0.123841
N137	N	1.214568	0.645866	0.172658
H138	H	0.724043	1.311077	-0.578580
H139	H	1.342820	0.417997	0.480504
H140	H	0.246004	1.592341	-0.480093
H141	H	0.709963	0.592438	0.306090
H142	H	1.036186	0.592359	0.519803
H143	H	0.623023	1.311062	-0.726909
H144	H	0.709960	0.418004	0.480502
H145	H	0.245986	1.592396	-0.106571
H146	H	0.859202	0.493220	0.726009
H147	H	0.261459	1.679603	-0.674149
C148	C	0.576820	1.404161	0.123892
N149	N	0.646840	1.364347	0.172671
H150	H	0.864776	0.643236	0.578977
H151	H	0.963441	0.517096	0.570219
H152	H	0.965782	0.367070	0.727274
