data_functionalizedCrystal
_audit_creation_method	'MofGen! by Chris Wilmer'
_symmetry_space_group_name_H-M	'P1'
_symmetry_Int_Tables_number	1
_symmetry_cell_setting	triclinic
loop_
_symmetry_equiv_pos_as_xyz
  x,y,z
_cell_length_a	18.215407
_cell_length_b	13.897447
_cell_length_c	13.897441
_cell_angle_alpha	90.028354
_cell_angle_beta	90.017432
_cell_angle_gamma	90.016973
loop_
_atom_site_label
_atom_site_type_symbol
_atom_site_fract_x
_atom_site_fract_y
_atom_site_fract_z
Zn1	Zn	1.125100	-0.384059	0.545360
Zn2	Zn	1.625100	0.115941	1.045360
Zn3	Zn	1.125020	-0.545378	0.384065
Zn4	Zn	1.625020	-0.045378	0.884065
Zn5	Zn	1.002032	-0.384092	0.384081
Zn6	Zn	1.502032	0.115908	0.884081
Zn7	Zn	1.002010	-0.545307	0.545321
Zn8	Zn	1.502010	-0.045307	1.045321
O9	O	1.063540	-0.464709	0.464707
O10	O	1.563540	0.035291	0.964707
O11	O	1.228073	-0.405475	0.523973
O12	O	1.728073	0.094525	1.023973
O13	O	1.108681	-0.524027	0.249085
O14	O	1.608681	-0.024027	0.749085
O15	O	1.018400	-0.249106	0.405499
O16	O	1.518400	0.250894	0.905499
O17	O	1.228014	-0.523995	0.405470
O18	O	1.728014	-0.023995	0.905470
O19	O	1.108818	-0.249082	0.523989
O20	O	1.608818	0.250918	1.023989
O21	O	1.018323	-0.405530	0.249097
O22	O	1.518323	0.094470	0.749097
O23	O	0.899045	-0.405461	0.405461
O24	O	1.399045	0.094539	0.905461
O25	O	1.018362	-0.523873	0.680307
O26	O	1.518362	-0.023873	1.180307
O27	O	0.899028	-0.523905	0.523922
O28	O	1.399028	-0.023905	1.023922
O29	O	1.108796	-0.405406	0.680336
O30	O	1.608796	0.094594	1.180336
O31	O	1.108659	-0.680350	0.405432
O32	O	1.608659	-0.180350	0.905432
O33	O	1.018284	-0.680298	0.523906
O34	O	1.518284	-0.180298	1.023906
C35	C	0.872334	-0.464679	0.464690
C36	C	1.372334	0.035321	0.964690
C37	C	0.790535	-0.464690	0.464705
C38	C	1.290535	0.035310	0.964705
C39	C	1.063480	-0.715323	0.464684
C40	C	1.563480	-0.215323	0.964684
C41	C	1.063522	-0.822537	0.464707
C42	C	1.563522	-0.322537	0.964707
C43	C	0.602371	-0.403103	0.526507
C44	C	1.102371	0.096897	1.026507
C45	C	0.525512	-0.403112	0.526510
C46	C	1.025512	0.096888	1.026510
C47	C	0.525462	-0.526342	0.402923
C48	C	1.025462	-0.026342	0.902923
C49	C	0.602319	-0.526328	0.402916
C50	C	1.102319	-0.026328	0.902916
C51	C	0.640772	-0.464710	0.464713
C52	C	1.140772	0.035290	0.964713
C53	C	0.487056	-0.464732	0.464724
C54	C	0.987056	0.035268	0.964724
C55	C	0.403722	-0.464742	0.464727
C56	C	0.903722	0.035258	0.964727
C57	C	0.724111	-0.464699	0.464709
C58	C	1.224111	0.035301	0.964709
C59	C	1.063558	-0.909607	0.464729
C60	C	1.563558	-0.409607	0.964729
C61	C	1.063609	-1.018839	0.464754
C62	C	1.563609	-0.518839	0.964754
C63	C	1.255493	-0.464739	0.464724
C64	C	1.755493	0.035261	0.964724
C65	C	1.337292	-0.464752	0.464732
C66	C	1.837292	0.035248	0.964732
C67	C	1.063585	-0.464628	0.716300
C68	C	1.563585	0.035372	1.216300
C69	C	1.063605	-0.464593	0.823514
C70	C	1.563605	0.035407	1.323514
C71	C	1.063620	-0.213116	0.464750
C72	C	1.563620	0.286884	0.964750
C73	C	1.063655	-0.105902	0.464769
C74	C	1.563655	0.394098	0.964769
C75	C	1.063538	-0.464720	0.214092
C76	C	1.563538	0.035280	0.714092
C77	C	1.063661	-0.464483	0.106879
C78	C	1.563661	0.035517	0.606879
C79	C	1.063620	-0.464566	0.910584
C80	C	1.563620	0.035434	1.410584
C81	C	1.063641	-0.464523	1.019816
C82	C	1.563641	0.035477	1.519816
H83	H	0.633677	-0.352927	0.576824
H84	H	1.133677	0.147073	1.076824
C85	C	0.483579	-0.593208	0.335943
C86	C	0.983579	-0.093208	0.835943
C87	C	0.408051	-0.580056	0.349194
C88	C	0.908051	-0.080056	0.849194
C89	C	0.369447	-0.641650	0.287519
C90	C	0.869447	-0.141650	0.787519
H91	H	0.496067	-0.579075	0.271116
H92	H	0.996067	-0.079075	0.771116
H93	H	0.496130	-0.658053	0.349960
H94	H	0.996130	-0.158053	0.849960
H95	H	0.395505	-0.515226	0.335170
H96	H	0.895505	-0.015226	0.835170
H97	H	0.395540	-0.594197	0.414008
H98	H	0.895540	-0.094197	0.914008
H99	H	0.381998	-0.706495	0.301536
H100	H	0.881998	-0.206495	0.801536
H101	H	0.381942	-0.627511	0.222695
H102	H	0.881942	-0.127511	0.722695
H103	H	0.318198	-0.632741	0.296507
H104	H	0.818198	-0.132741	0.796507
C105	C	0.643978	-0.593382	0.335941
C106	C	1.143978	-0.093382	0.835941
C107	C	0.625295	-0.688851	0.356800
C108	C	1.125295	-0.188851	0.856800
C109	C	0.663664	-0.750642	0.295132
C110	C	1.163664	-0.250642	0.795132
H111	H	0.631398	-0.579319	0.271120
H112	H	1.131398	-0.079319	0.771120
H113	H	0.695265	-0.584611	0.344794
H114	H	1.195265	-0.084611	0.844794
H115	H	0.574019	-0.697618	0.347939
H116	H	1.074019	-0.197618	0.847939
H117	H	0.637877	-0.702944	0.421609
H118	H	1.137877	-0.202944	0.921609
H119	H	0.714951	-0.741870	0.303986
H120	H	1.214951	-0.241870	0.803986
H121	H	0.651081	-0.736570	0.230316
H122	H	1.151081	-0.236570	0.730316
H123	H	0.650998	-0.815424	0.309283
H124	H	1.150998	-0.315424	0.809283
C125	C	0.483953	-0.336189	0.593711
C126	C	0.983953	0.163811	1.093711
C127	C	0.534081	-0.282245	0.647841
C128	C	1.034081	0.217755	1.147841
C129	C	0.495824	-0.220592	0.709766
C130	C	0.995824	0.279408	1.209766
H131	H	0.453964	-0.294034	0.556995
H132	H	0.953964	0.205966	1.056995
H133	H	0.453993	-0.373123	0.635729
H134	H	0.953993	0.126877	1.135729
H135	H	0.564029	-0.245315	0.605828
H136	H	1.064029	0.254685	1.105828
H137	H	0.564072	-0.324375	0.684576
H138	H	1.064072	0.175625	1.184576
H139	H	0.465864	-0.257526	0.751785
H140	H	0.965864	0.242474	1.251785
H141	H	0.465837	-0.178443	0.673043
H142	H	0.965837	0.321557	1.173043
H143	H	0.529830	-0.183990	0.746508
H144	H	1.029830	0.316010	1.246508
