data_functionalizedCrystal
_audit_creation_method	'MofGen! by Chris Wilmer'
_symmetry_space_group_name_H-M	'P1'
_symmetry_Int_Tables_number	1
_symmetry_cell_setting	triclinic
loop_
_symmetry_equiv_pos_as_xyz
  x,y,z
_cell_length_a	10.686220
_cell_length_b	19.805405
_cell_length_c	19.805399
_cell_angle_alpha	90.027486
_cell_angle_beta	94.351891
_cell_angle_gamma	85.590168
loop_
_atom_site_label
_atom_site_type_symbol
_atom_site_fract_x
_atom_site_fract_y
_atom_site_fract_z
Zn1	Zn	1.929009	0.189989	-0.303426
Zn2	Zn	2.429009	0.689989	0.196574
Zn3	Zn	1.928845	0.303184	-0.190244
Zn4	Zn	2.428845	0.803184	0.309756
Zn5	Zn	1.718001	0.198703	-0.198924
Zn6	Zn	2.218001	0.698703	0.301076
Zn7	Zn	1.717929	0.311840	-0.312061
Zn8	Zn	2.217929	0.811840	0.187939
O9	O	1.823446	0.250929	-0.251164
O10	O	2.323446	0.750929	0.248836
O11	O	2.105564	0.197736	-0.281165
O12	O	2.605564	0.697736	0.218835
O13	O	1.900838	0.289349	-0.096681
O14	O	2.400838	0.789349	0.403319
O15	O	1.746091	0.102826	-0.212805
O16	O	2.246091	0.602826	0.287195
O17	O	2.105444	0.280900	-0.198012
O18	O	2.605444	0.780900	0.301988
O19	O	1.901117	0.096424	-0.289582
O20	O	2.401117	0.596424	0.210418
O21	O	1.745932	0.212587	-0.103057
O22	O	2.245932	0.712587	0.396943
O23	O	1.541415	0.220980	-0.221178
O24	O	2.041415	0.720980	0.278822
O25	O	1.745967	0.295651	-0.405631
O26	O	2.245967	0.795651	0.094369
O27	O	1.541362	0.304101	-0.304300
O28	O	2.041362	0.804101	0.195700
O29	O	1.901047	0.206128	-0.399286
O30	O	2.401047	0.706128	0.100714
O31	O	1.900768	0.399053	-0.206385
O32	O	2.400768	0.899053	0.293615
O33	O	1.745808	0.405412	-0.295883
O34	O	2.245808	0.905412	0.204117
C35	C	1.495604	0.264426	-0.264618
C36	C	1.995604	0.764426	0.235382
C37	C	1.355352	0.270216	-0.270390
C38	C	1.855352	0.770216	0.229610
C39	C	1.823297	0.426791	-0.251143
C40	C	2.323297	0.926791	0.248857
C41	C	1.823348	0.502021	-0.251152
C42	C	2.323348	1.002021	0.248848
C43	C	1.904112	0.534028	-0.204593
C44	C	2.404112	1.034028	0.295407
C45	C	1.904163	0.604715	-0.204608
C46	C	2.404163	1.104715	0.295392
C47	C	1.823442	0.643393	-0.251179
C48	C	2.323442	1.143393	0.248821
C49	C	1.742674	0.611381	-0.297743
C50	C	2.242674	1.111381	0.202257
C51	C	1.742631	0.540695	-0.297730
C52	C	2.242631	1.040695	0.202270
C53	C	1.742848	0.896447	-0.297795
C54	C	2.242848	1.396447	0.202205
C55	C	1.742895	0.967137	-0.297802
C56	C	2.242895	1.467137	0.202198
C57	C	1.904380	0.960466	-0.204673
C58	C	2.404380	1.460466	0.295327
C59	C	1.904337	0.889781	-0.204660
C60	C	2.404337	1.389781	0.295340
C61	C	1.823574	0.857775	-0.251226
C62	C	2.323574	1.357775	0.248774
C63	C	1.823522	0.781128	-0.251210
C64	C	2.323522	1.281128	0.248790
C65	C	1.823487	0.720038	-0.251193
C66	C	2.323487	1.220038	0.248807
C67	C	2.152568	0.237380	-0.237657
C68	C	2.652568	0.737380	0.262343
C69	C	2.292820	0.231606	-0.231901
C70	C	2.792820	0.731606	0.268099
C71	C	1.823517	0.250883	-0.427704
C72	C	2.323517	0.750883	0.072296
C73	C	1.823547	0.250864	-0.502934
C74	C	2.323547	0.750864	-0.002934
C75	C	1.823620	1.074379	-0.251207
C76	C	2.323620	1.574379	0.248793
C77	C	1.823666	0.999145	-0.251246
C78	C	2.323666	1.499145	0.248754
C79	C	1.904299	0.204247	-0.534976
C80	C	2.404299	0.704247	-0.034976
C81	C	1.904312	0.204227	-0.605664
C82	C	2.404312	0.704227	-0.105664
C83	C	1.823578	0.250827	-0.644309
C84	C	2.323578	0.750827	-0.144309
C85	C	1.742818	0.297446	-0.612263
C86	C	2.242818	0.797446	-0.112263
C87	C	1.742799	0.297463	-0.541576
C88	C	2.242799	0.797463	-0.041576
C89	C	1.742889	0.297380	-0.897333
C90	C	2.242889	0.797380	-0.397333
C91	C	1.742916	0.297362	-0.968024
C92	C	2.242916	0.797362	-0.468024
C93	C	1.904401	0.204144	-0.961421
C94	C	2.404401	0.704144	-0.461421
C95	C	1.904383	0.204161	-0.890734
C96	C	2.404383	0.704161	-0.390734
C97	C	1.823618	0.250777	-0.858695
C98	C	2.323618	0.750777	-0.358695
C99	C	1.823603	0.250798	-0.782047
C100	C	2.323603	0.750798	-0.282047
C101	C	1.823599	0.250811	-0.720955
C102	C	2.323599	0.750811	-0.220955
C103	C	1.823448	0.250922	-0.075308
C104	C	2.323448	0.750922	0.424692
C105	C	1.823662	0.250741	-0.000067
C106	C	2.323662	0.750741	0.499933
H107	H	1.301590	0.307702	-0.307757
H108	H	1.801590	0.807702	0.192243
Cl109	Cl	2.005884	0.145577	-0.842156
Cl110	Cl	2.505884	0.645577	-0.342156
Cl111	Cl	1.641413	0.355949	-1.016606
Cl112	Cl	2.141413	0.855949	-0.516606
Cl113	Cl	2.005704	0.644949	-0.146077
Cl114	Cl	2.505704	1.144949	0.353923
Cl115	Cl	2.005889	0.145648	-0.645939
Cl116	Cl	2.505889	0.645648	-0.145939
H117	H	1.346588	0.194122	-0.194528
H118	H	1.846588	0.694122	0.305472
H119	H	1.677163	0.998627	-0.335731
H120	H	2.177163	1.498627	0.164269
H121	H	1.969839	0.502541	-0.166667
H122	H	2.469839	1.002541	0.333333
Cl123	Cl	2.005805	0.145663	-0.486400
Cl124	Cl	2.505805	0.645663	0.013600
Cl125	Cl	1.641356	0.355985	-0.857063
Cl126	Cl	2.141356	0.855985	-0.357063
Cl127	Cl	2.005819	0.841161	-0.146112
Cl128	Cl	2.505819	1.341161	0.353888
H129	H	1.970160	0.166185	-0.987516
H130	H	2.470160	0.666185	-0.487516
Cl131	Cl	1.641319	0.356028	-0.660845
Cl132	Cl	2.141319	0.856028	-0.160845
H133	H	1.677030	0.335417	-0.515490
H134	H	2.177030	0.835417	-0.015490
Cl135	Cl	1.641315	0.856220	-0.356333
Cl136	Cl	2.141315	1.356220	0.143667
Cl137	Cl	2.005919	1.000706	-0.146136
Cl138	Cl	2.505919	1.500706	0.353864
Cl139	Cl	1.641203	0.660004	-0.356293
Cl140	Cl	2.141203	1.160004	0.143707
H141	H	1.676866	0.514636	-0.335643
H142	H	2.176866	1.014636	0.164357
