data_functionalizedCrystal
_audit_creation_method	'MofGen! by Chris Wilmer'
_symmetry_space_group_name_H-M	'P1'
_symmetry_Int_Tables_number	1
_symmetry_cell_setting	triclinic
loop_
_symmetry_equiv_pos_as_xyz
  x,y,z
_cell_length_a	15.297475
_cell_length_b	16.625546
_cell_length_c	15.296720
_cell_angle_alpha	99.642470
_cell_angle_beta	91.617114
_cell_angle_gamma	80.324704
loop_
_atom_site_label
_atom_site_type_symbol
_atom_site_fract_x
_atom_site_fract_y
_atom_site_fract_z
Zn1	Zn	1.253404	-0.627523	-0.726565
Zn2	Zn	1.278668	-0.743625	-0.580074
Zn3	Zn	1.132282	-0.582227	-0.554808
Zn4	Zn	1.106894	-0.735700	-0.701203
O5	O	1.192812	-0.672269	-0.640662
O6	O	1.379334	-0.665198	-0.728320
O7	O	1.280447	-0.706576	-0.454149
O8	O	1.148401	-0.475417	-0.577632
O9	O	1.397894	-0.750498	-0.620694
O10	O	1.237389	-0.508696	-0.703821
O11	O	1.172898	-0.587997	-0.435586
O12	O	1.006336	-0.580312	-0.553039
O13	O	1.105131	-0.736989	-0.827141
O14	O	0.987683	-0.693068	-0.660595
O15	O	1.212772	-0.657513	-0.845774
O16	O	1.255829	-0.855392	-0.596102
O17	O	1.129628	-0.849569	-0.685095
C18	C	0.965226	-0.630915	-0.601324
C19	C	0.867861	-0.613246	-0.584516
C20	C	1.192735	-0.881740	-0.640611
C21	C	1.192778	-0.971371	-0.640633
C22	C	0.554716	-0.798559	-0.760796
C23	C	0.646196	-0.815166	-0.776586
C24	C	0.701616	-0.764687	-0.728570
C25	C	0.665548	-0.697599	-0.664761
C26	C	0.574060	-0.680995	-0.648965
C27	C	0.720961	-0.647123	-0.616739
C28	C	0.684892	-0.580034	-0.552930
C29	C	0.593412	-0.563433	-0.537137
C30	C	0.537992	-0.613911	-0.585153
C31	C	0.812449	-0.663727	-0.632535
C32	C	0.831793	-0.546163	-0.520704
C33	C	0.740313	-0.529556	-0.504914
C34	C	1.192915	-1.299586	-0.640750
C35	C	1.192873	-1.208266	-0.640720
C36	C	1.192845	-1.135481	-0.640691
C37	C	1.192805	-1.044156	-0.640661
C38	C	1.421286	-0.713785	-0.680155
C39	C	1.518648	-0.731476	-0.696984
C40	C	1.153301	-0.701420	-0.869128
C41	C	1.136464	-0.713842	-0.966487
C42	C	1.192909	-0.461986	-0.640737
C43	C	1.192951	-0.372377	-0.640769
C44	C	1.313182	-0.583349	-1.279731
C45	C	1.329006	-0.571680	-1.188259
C46	C	1.280872	-0.607219	-1.132811
C47	C	1.216911	-0.654430	-1.168845
C48	C	1.201089	-0.666105	-1.260327
C49	C	1.168779	-0.689976	-1.113407
C50	C	1.104818	-0.737187	-1.149441
C51	C	1.088999	-0.748860	-1.240914
C52	C	1.137133	-0.713320	-1.296362
C53	C	1.184601	-0.678300	-1.021925
C54	C	1.072508	-0.761057	-1.002521
C55	C	1.056684	-0.772726	-1.093994
C56	C	1.232219	-0.643182	-0.413094
C57	C	1.249226	-0.630564	-0.315765
H58	H	0.841806	-0.718351	-0.684489
H59	H	1.036924	-0.787310	-1.270251
C60	C	0.802245	-0.782949	-0.745943
C61	C	0.856465	-0.866625	-0.731918
C62	C	0.957097	-0.884887	-0.749299
C63	C	1.003508	-0.819473	-0.780704
C64	C	0.949287	-0.735792	-0.794731
C65	C	0.848656	-0.717530	-0.777350
H66	H	0.822109	-0.915053	-0.708669
H67	H	0.997234	-0.946834	-0.738915
H68	H	1.078001	-0.832992	-0.793570
H69	H	0.983643	-0.687364	-0.817980
H70	H	0.808518	-0.655583	-0.787734
C71	C	1.399357	-0.519747	-1.148627
C72	C	1.390077	-0.428403	-1.160005
C73	C	1.460431	-0.376465	-1.120374
C74	C	1.540065	-0.415871	-1.069365
C75	C	1.549348	-0.507220	-1.057984
C76	C	1.478994	-0.559157	-1.097615
H77	H	1.331124	-0.399228	-1.197767
H78	H	1.453558	-0.308843	-1.128799
H79	H	1.592145	-0.377424	-1.040028
H80	H	1.608301	-0.536395	-1.020222
H81	H	1.485867	-0.626780	-1.089190
H82	H	0.564050	-0.508812	-0.485171
H83	H	1.033315	-0.789998	-0.957376
H84	H	1.124252	-0.722819	-1.370847
H85	H	0.509586	-0.839656	-0.799878
C86	C	0.986339	-0.824668	-1.133643
C87	C	0.995624	-0.916014	-1.122272
C88	C	0.925284	-0.967958	-1.161924
C89	C	0.845658	-0.928557	-1.212948
C90	C	0.836370	-0.837206	-1.224321
C91	C	0.906711	-0.785262	-1.184669
H92	H	1.054571	-0.945185	-1.084499
H93	H	0.932160	-1.035582	-1.153504
H94	H	0.793588	-0.967009	-1.242301
H95	H	0.777423	-0.808035	-1.262094
H96	H	0.899834	-0.717638	-1.193089
H97	H	0.675556	-0.869791	-0.828537
H98	H	0.463500	-0.600392	-0.572302
C99	C	0.700630	-0.455764	-0.434723
C100	C	0.631174	-0.385971	-0.461955
C101	C	0.591489	-0.312180	-0.391765
C102	C	0.621261	-0.308182	-0.294342
C103	C	0.690720	-0.377977	-0.267104
C104	C	0.730405	-0.451768	-0.337294
H105	H	0.609132	-0.388929	-0.534078
H106	H	0.540070	-0.260513	-0.411929
H107	H	0.591884	-0.253557	-0.242382
H108	H	0.712762	-0.375020	-0.194981
H109	H	0.781824	-0.503436	-0.317131
H110	H	0.876917	-0.505060	-0.481604
H111	H	1.352371	-0.554423	-1.324884
H112	H	1.236678	-0.639860	-0.992596
H113	H	1.293761	-0.597715	-1.058331
