data_functionalizedCrystal
_audit_creation_method	'MofGen! by Chris Wilmer'
_symmetry_space_group_name_H-M	'P1'
_symmetry_Int_Tables_number	1
_symmetry_cell_setting	triclinic
loop_
_symmetry_equiv_pos_as_xyz
  x,y,z
_cell_length_a	6.817900
_cell_length_b	7.190339
_cell_length_c	17.078481
_cell_angle_alpha	87.381038
_cell_angle_beta	80.693839
_cell_angle_gamma	119.388276
loop_
_atom_site_label
_atom_site_type_symbol
_atom_site_fract_x
_atom_site_fract_y
_atom_site_fract_z
V1	V	4.066735	0.294598	-0.246802
V2	V	4.566735	0.794598	0.253198
O3	O	3.963708	-0.014669	-0.242681
O4	O	4.463708	0.485331	0.257319
O5	O	4.104324	0.584631	-0.244559
O6	O	4.604324	1.084631	0.255441
O7	O	3.996374	0.289842	-0.354694
O8	O	4.496374	0.789842	0.145306
O9	O	4.072406	0.282161	-0.131783
O10	O	4.572406	0.782161	0.368217
V11	V	4.542066	0.257633	-0.233112
V12	V	5.042066	0.757633	0.266888
O13	O	4.345962	0.375684	-0.276831
O14	O	4.845962	0.875684	0.223169
O15	O	4.713036	0.176546	-0.203083
O16	O	5.213036	0.676546	0.296917
O17	O	4.281270	-0.032400	-0.235355
O18	O	4.781270	0.467600	0.264645
O19	O	4.762489	0.566900	-0.237233
O20	O	5.262489	1.066900	0.262767
O21	O	4.653792	0.270069	-0.348130
O22	O	5.153792	0.770069	0.151870
O23	O	4.389220	0.262389	-0.125220
O24	O	4.889220	0.762389	0.374780
C25	C	3.833252	0.279306	-0.381009
C26	C	4.333252	0.779306	0.118991
C27	C	3.857577	0.277336	-0.469208
C28	C	4.357577	0.777336	0.030792
C29	C	4.053494	0.287058	-0.514665
C30	C	4.553494	0.787058	-0.014665
C31	C	4.076337	0.285206	-0.597537
C32	C	4.576337	0.785206	-0.097537
C33	C	3.903269	0.273647	-0.634950
C34	C	4.403269	0.773647	-0.134950
C35	C	3.707333	0.263918	-0.589487
C36	C	4.207333	0.763918	-0.089487
C37	C	3.684485	0.265755	-0.506616
C38	C	4.184485	0.765755	-0.006616
C39	C	3.951813	0.266998	-0.882366
C40	C	4.451813	0.766998	-0.382366
C41	C	3.974681	0.265169	-0.965244
C42	C	4.474681	0.765169	-0.465244
C43	C	4.343682	0.286452	-0.973288
C44	C	4.843682	0.786452	-0.473288
C45	C	4.320822	0.288301	-0.890416
C46	C	4.820822	0.788301	-0.390416
C47	C	4.124884	0.278561	-0.844959
C48	C	4.624884	0.778561	-0.344959
N49	N	3.926618	0.271761	-0.719659
N50	N	4.426618	0.771761	-0.219659
N51	N	4.101531	0.280432	-0.760251
N52	N	4.601531	0.780432	-0.260251
C53	C	3.970971	0.655344	-0.240526
C54	C	4.470971	1.155344	0.259474
C55	C	4.084948	0.896906	-0.239392
C56	C	4.584948	1.396906	0.260608
C57	C	4.215687	0.272932	-0.098900
C58	C	4.715687	0.772932	0.401100
C59	C	4.170598	0.274890	-0.010701
C60	C	4.670598	0.774890	0.489299
H61	H	4.503207	0.294379	-1.010308
H62	H	5.003207	0.794379	-0.510308
F63	F	4.237710	0.299375	-0.474855
F64	F	4.737710	0.799375	0.025145
H65	H	4.461756	0.297711	-0.859959
H66	H	4.961756	0.797711	-0.359959
F67	F	3.790467	0.252867	-1.005060
F68	F	4.290467	0.752867	-0.505060
F69	F	3.523140	0.251615	-0.629307
F70	F	4.023140	0.751615	-0.129307
F71	F	3.743304	0.256677	-0.834000
F72	F	4.243304	0.756677	-0.334000
F73	F	3.475957	0.255392	-0.458236
F74	F	3.975957	0.755392	0.041764
H75	H	4.235864	0.293110	-0.634544
H76	H	4.735864	0.793110	-0.134544
