data_functionalizedCrystal
_audit_creation_method	'MofGen! by Chris Wilmer'
_symmetry_space_group_name_H-M	'P1'
_symmetry_Int_Tables_number	1
_symmetry_cell_setting	triclinic
loop_
_symmetry_equiv_pos_as_xyz
  x,y,z
_cell_length_a	16.959455
_cell_length_b	21.295417
_cell_length_c	21.295420
_cell_angle_alpha	90.017552
_cell_angle_beta	90.014326
_cell_angle_gamma	90.027454
loop_
_atom_site_label
_atom_site_type_symbol
_atom_site_fract_x
_atom_site_fract_y
_atom_site_fract_z
Zn1	Zn	1.208326	-0.250758	0.355892
Zn2	Zn	1.208225	-0.356002	0.250617
Zn3	Zn	1.076155	-0.250745	0.250639
Zn4	Zn	1.076095	-0.355987	0.355851
O5	O	1.142200	-0.303373	0.303250
O6	O	1.318924	-0.264730	0.341935
O7	O	1.190688	-0.342040	0.162531
O8	O	1.093755	-0.162657	0.264627
O9	O	1.318849	-0.342053	0.264590
O10	O	1.190861	-0.162667	0.341956
O11	O	1.093657	-0.264708	0.162547
O12	O	0.965536	-0.264694	0.264588
O13	O	1.093654	-0.342028	0.443946
O14	O	0.965492	-0.342015	0.341887
O15	O	1.190803	-0.264716	0.443976
O16	O	1.190630	-0.444089	0.264551
O17	O	1.093555	-0.444079	0.341866
C18	C	0.936834	-0.303352	0.303236
C19	C	0.848978	-0.303358	0.303244
C20	C	1.142097	-0.466925	0.303215
C21	C	1.142125	-0.536893	0.303221
C22	C	0.477500	-0.263079	0.263084
C23	C	0.477504	-0.343719	0.343451
C24	C	0.560049	-0.343710	0.343448
C25	C	0.601325	-0.303385	0.303261
C26	C	0.560054	-0.263070	0.263078
C27	C	0.601326	-0.384029	0.383625
C28	C	0.683877	-0.384022	0.383622
C29	C	0.725154	-0.343694	0.343438
C30	C	0.683878	-0.303376	0.303254
C31	C	0.725153	-0.263052	0.263068
C32	C	0.683879	-0.222731	0.222887
C33	C	0.601330	-0.222742	0.222894
C34	C	0.807702	-0.343683	0.343431
C35	C	0.807707	-0.263043	0.263061
C36	C	1.192717	-0.569744	0.263005
C37	C	1.192754	-0.635487	0.263019
C38	C	1.142185	-0.668375	0.303243
C39	C	1.091589	-0.635516	0.343467
C40	C	1.091559	-0.569775	0.343456
N41	N	1.073038	-0.771639	0.308037
N42	N	1.073069	-0.834091	0.308044
C43	C	1.142273	-0.866450	0.303279
N44	N	1.211447	-0.833998	0.298495
N45	N	1.211416	-0.771541	0.298485
C46	C	1.142212	-0.739661	0.303259
C47	C	1.192910	-0.970587	0.263076
C48	C	1.192948	-1.036330	0.263094
C49	C	1.091777	-1.036359	0.343539
C50	C	1.091745	-0.970616	0.343524
C51	C	1.142311	-0.937734	0.303289
C52	C	1.348369	-0.303394	0.303265
C53	C	1.436225	-0.303403	0.303271
C54	C	1.142233	-0.303371	0.467440
C55	C	1.142247	-0.303371	0.537408
C56	C	1.142326	-0.139183	0.303299
C57	C	1.142379	-0.069215	0.303319
C58	C	1.091731	-0.263107	0.570273
C59	C	1.091716	-0.263110	0.636016
C60	C	1.142233	-0.303371	0.668891
C61	C	1.192753	-0.343642	0.636018
C62	C	1.192760	-0.343642	0.570277
N63	N	1.211407	-0.308205	0.772128
N64	N	1.211398	-0.308201	0.834579
C65	C	1.142212	-0.303374	0.866966
N66	N	1.073035	-0.298539	0.834541
N67	N	1.073045	-0.298539	0.772084
C68	C	1.142230	-0.303376	0.740176
C69	C	1.091676	-0.263112	0.971116
C70	C	1.091660	-0.263120	1.036860
C71	C	1.192703	-0.343649	1.036861
C72	C	1.192712	-0.343644	0.971118
C73	C	1.142199	-0.303372	0.938250
C74	C	1.142169	-0.303387	1.139698
C75	C	1.142176	-0.303381	1.069730
H76	H	0.841307	-0.230202	0.230340
Cl77	Cl	1.256296	-0.528410	0.212432
Cl78	Cl	0.735758	-0.434708	0.434137
H79	H	1.233883	-0.376423	0.662789
H80	H	1.050361	-0.543026	0.376206
Cl81	Cl	0.859587	-0.394372	0.393936
H82	H	1.234086	-0.943813	0.230316
H83	H	1.233954	-0.662239	0.230270
H84	H	0.717496	-0.189902	0.190164
Cl85	Cl	0.425614	-0.394423	0.393955
Cl86	Cl	0.549435	-0.434739	0.434122
H87	H	1.234151	-1.063077	0.230346
H88	H	1.050606	-1.063136	0.376293
Cl89	Cl	1.028225	-0.212483	0.528957
Cl90	Cl	1.028171	-0.212490	0.929793
Cl91	Cl	1.028021	-0.676861	0.394038
Cl92	Cl	1.028137	-0.929315	0.394082
H93	H	1.050581	-0.230320	0.662780
H94	H	1.233836	-0.376428	1.063627
Cl95	Cl	1.256273	-0.394263	0.528958
Cl96	Cl	0.549438	-0.172058	0.172385
H97	H	0.443891	-0.230249	0.230372
Cl98	Cl	1.028125	-0.212516	1.078177
Cl99	Cl	1.256228	-0.394260	0.929800
