data_functionalizedCrystal
_audit_creation_method	'MofGen! by Chris Wilmer'
_symmetry_space_group_name_H-M	'P1'
_symmetry_Int_Tables_number	1
_symmetry_cell_setting	triclinic
loop_
_symmetry_equiv_pos_as_xyz
  x,y,z
_cell_length_a	6.817900
_cell_length_b	15.300992
_cell_length_c	12.200875
_cell_angle_alpha	94.042235
_cell_angle_beta	107.143593
_cell_angle_gamma	104.175078
loop_
_atom_site_label
_atom_site_type_symbol
_atom_site_fract_x
_atom_site_fract_y
_atom_site_fract_z
V1	V	-4.071823	-0.124963	-0.358007
O2	O	-4.054877	0.005794	-0.350836
O3	O	-4.026495	-0.247578	-0.355900
O4	O	-4.041494	-0.123133	-0.513990
O5	O	-4.039774	-0.119512	-0.191652
V6	V	-4.552711	-0.109312	-0.338068
O7	O	-4.338861	-0.159295	-0.401745
O8	O	-4.735870	-0.074980	-0.294330
O9	O	-4.374832	0.013303	-0.340175
O10	O	-4.687053	-0.240069	-0.345239
O11	O	-4.702157	-0.114763	-0.504423
O12	O	-4.359832	-0.111142	-0.182085
C13	C	-3.871659	-0.277466	-0.350341
C14	C	-3.916005	-0.377706	-0.349658
C15	C	-3.884024	-0.411862	-0.244253
C16	C	-3.925712	-0.506049	-0.243615
C17	C	-3.999368	-0.566078	-0.348384
C18	C	-4.031357	-0.531917	-0.453798
C19	C	-3.989683	-0.437732	-0.454434
C20	C	-4.118211	-0.728228	-0.452463
C21	C	-4.159884	-0.822419	-0.451827
C22	C	-4.054240	-0.796544	-0.241644
C23	C	-4.012566	-0.702359	-0.242281
C24	C	-4.044554	-0.668205	-0.347695
C25	C	-3.890791	-0.118723	-0.551999
C26	C	-3.947298	-0.118039	-0.679518
C27	C	-4.050714	-0.116786	-0.912989
C28	C	-3.993158	-0.117483	-0.783069
C29	C	-4.193010	0.043186	-0.345731
C30	C	-4.127902	0.143425	-0.346421
C31	C	-4.173878	-0.115555	-0.144070
C32	C	-4.096609	-0.116235	-0.016550
H33	H	-4.028187	-0.824356	-0.155812
H34	H	-4.219856	-0.871294	-0.537138
N35	N	-4.150909	-0.693354	-0.560150
N36	N	-4.216667	-0.746959	-0.653687
H37	H	-4.239752	-0.722329	-0.729740
H38	H	-4.015749	-0.409926	-0.540267
H39	H	-3.952580	-0.653484	-0.156968
N40	N	-3.808762	-0.350559	-0.137221
N41	N	-3.780217	-0.381072	-0.043117
H42	H	-3.727065	-0.337779	0.032479
N43	N	-3.893030	-0.540922	-0.135935
N44	N	-3.827247	-0.487314	-0.042400
H45	H	-3.804160	-0.511941	0.033655
N46	N	-4.106574	-0.593248	-0.560804
N47	N	-4.000160	-0.645136	-0.579453
H48	H	-4.053275	-0.688452	-0.655027
