data_functionalizedCrystal
_audit_creation_method	'MofGen! by Chris Wilmer'
_symmetry_space_group_name_H-M	'P1'
_symmetry_Int_Tables_number	1
_symmetry_cell_setting	triclinic
loop_
_symmetry_equiv_pos_as_xyz
  x,y,z
_cell_length_a	14.519709
_cell_length_b	9.016244
_cell_length_c	14.519709
_cell_angle_alpha	90.003180
_cell_angle_beta	83.680145
_cell_angle_gamma	90.001728
loop_
_atom_site_label
_atom_site_type_symbol
_atom_site_fract_x
_atom_site_fract_y
_atom_site_fract_z
O1	O	1.223872	0.123150	0.120887
O2	O	1.723872	0.623150	0.620887
O3	O	0.955395	0.123196	0.135124
O4	O	1.455395	0.623196	0.635124
O5	O	1.096752	0.123159	-0.006233
O6	O	1.596752	0.623159	0.493767
O7	O	1.082515	0.123188	0.262244
O8	O	1.582515	0.623188	0.762244
O9	O	1.096731	-0.123522	-0.006230
O10	O	1.596731	0.376478	0.493770
O11	O	0.955374	-0.123485	0.135127
O12	O	1.455374	0.376515	0.635127
O13	O	1.223851	-0.123530	0.120891
O14	O	1.723851	0.376470	0.620891
Cu15	Cu	1.089611	-0.146031	0.128009
Cu16	Cu	1.589611	0.353969	0.628009
Cu17	Cu	1.089635	0.145697	0.128005
Cu18	Cu	1.589635	0.645697	0.628005
O19	O	1.082494	-0.123493	0.262247
O20	O	1.582494	0.376507	0.762247
C21	C	0.921025	-0.000139	0.134462
C22	C	1.421025	0.499861	0.634462
C23	C	0.818643	-0.000122	0.132474
C24	C	1.318643	0.499878	0.632474
N25	N	1.089600	-0.351218	0.128011
N26	N	1.589600	0.148782	0.628011
C27	C	0.443748	-0.000190	0.125154
C28	C	0.943748	0.499810	0.625154
C29	C	0.548056	-0.000170	0.127187
C30	C	1.048056	0.499830	0.627187
C31	C	0.631192	-0.000154	0.128814
C32	C	1.131192	0.499846	0.628814
C33	C	0.735507	-0.000138	0.130847
C34	C	1.235507	0.499862	0.630847
C35	C	1.013755	-0.586230	0.203378
C36	C	1.513755	-0.086230	0.703378
C37	C	1.013920	-0.414339	0.203657
C38	C	1.513920	0.085661	0.703657
C39	C	1.185864	-0.413570	0.149189
C40	C	1.685864	0.086430	0.649189
C41	C	1.185449	-0.585515	0.149722
C42	C	1.685449	-0.085515	0.649722
C43	C	1.070141	-0.585768	0.031215
C44	C	1.570141	-0.085768	0.531215
C45	C	1.067924	-0.413813	0.031860
C46	C	1.567924	0.086187	0.531860
C47	C	1.258221	-0.000192	0.121553
C48	C	1.758221	0.499808	0.621553
C49	C	1.360602	-0.000200	0.123541
C50	C	1.860602	0.499800	0.623541
C51	C	1.096078	-0.000182	-0.040591
C52	C	1.596078	0.499818	0.459409
C53	C	1.094090	-0.000182	-0.142972
C54	C	1.594090	0.499818	0.357028
N55	N	1.089653	0.350883	0.127996
N56	N	1.589653	0.850883	0.627996
C57	C	1.086770	-0.000143	-0.517868
C58	C	1.586770	0.499857	-0.017868
C59	C	1.088803	-0.000154	-0.413560
C60	C	1.588803	0.499846	0.086440
C61	C	1.090430	-0.000164	-0.330423
C62	C	1.590430	0.499836	0.169577
C63	C	1.092463	-0.000173	-0.226109
C64	C	1.592463	0.499827	0.273891
C65	C	1.083168	-0.000149	0.296606
C66	C	1.583168	0.499851	0.796606
C67	C	1.085156	-0.000139	0.398987
C68	C	1.585156	0.499861	0.898987
H69	H	0.942371	-0.372184	0.191015
H70	H	1.442371	0.127816	0.691015
Cl71	Cl	1.211955	-0.647409	0.258702
Cl72	Cl	1.711955	-0.147409	0.758702
Cl73	Cl	0.902932	-0.650086	0.184164
Cl74	Cl	1.402932	-0.150086	0.684164
Cl75	Cl	1.032763	-0.652874	0.313637
Cl76	Cl	1.532763	-0.152874	0.813637
Cl77	Cl	1.155589	-0.648554	-0.055397
Cl78	Cl	1.655589	-0.148554	0.444603
Cl79	Cl	1.033137	-0.350793	0.314548
Cl80	Cl	1.533137	0.149207	0.814548
H81	H	1.243698	-0.627112	0.096991
H82	H	1.743698	-0.127112	0.596991
H83	H	0.997111	-0.373061	0.015792
H84	H	1.497111	0.126939	0.515792
Cl85	Cl	1.275150	-0.350449	0.066689
Cl86	Cl	1.775150	0.149551	0.566689
H87	H	1.203434	-0.370488	0.218973
H88	H	1.703434	0.129512	0.718973
Cl89	Cl	0.964094	-0.652780	-0.000149
Cl90	Cl	1.464094	-0.152780	0.499851
Cl91	Cl	1.147711	-0.347507	-0.058824
Cl92	Cl	1.647711	0.152493	0.441176
