data_functionalizedCrystal
_audit_creation_method	'MofGen! by Chris Wilmer'
_symmetry_space_group_name_H-M	'P1'
_symmetry_Int_Tables_number	1
_symmetry_cell_setting	triclinic
loop_
_symmetry_equiv_pos_as_xyz
  x,y,z
_cell_length_a	10.489741
_cell_length_b	14.044220
_cell_length_c	9.565339
_cell_angle_alpha	90.008762
_cell_angle_beta	90.000235
_cell_angle_gamma	88.864026
loop_
_atom_site_label
_atom_site_type_symbol
_atom_site_fract_x
_atom_site_fract_y
_atom_site_fract_z
O1	O	-1.707625	-0.133840	-0.116177
O2	O	-1.337703	-0.146403	-0.116199
O3	O	-1.517112	-0.002099	-0.116175
O4	O	-1.528217	-0.278144	-0.116202
O5	O	-1.517100	-0.002086	0.116345
O6	O	-1.337692	-0.146389	0.116321
O7	O	-1.707614	-0.133827	0.116343
Zn8	Zn	-1.522651	-0.140106	0.153249
Zn9	Zn	-1.522666	-0.140123	-0.153106
O10	O	-1.528205	-0.278131	0.116318
C11	C	-1.512245	0.033255	0.000086
C12	C	-1.497745	0.138580	0.000086
C13	C	-1.290070	-0.145447	0.000058
C14	C	-1.148152	-0.142609	0.000050
C15	C	-1.755247	-0.134782	0.000082
C16	C	-1.897165	-0.137621	0.000081
C17	C	-1.070700	-0.050792	0.000072
C18	C	-0.982978	-0.094172	-0.114574
C19	C	-0.983003	-0.094181	0.114673
C20	C	-1.062300	-0.186026	-0.114691
C21	C	-1.062333	-0.186022	0.114659
C22	C	-0.974645	-0.229468	-0.000015
C23	C	-1.533072	-0.313485	0.000055
C24	C	-1.547572	-0.418810	0.000045
N25	N	-1.522650	-0.140094	0.362329
C26	C	-1.471237	0.331422	0.000065
C27	C	-1.574075	0.388354	0.000067
C28	C	-1.559325	0.495658	0.000055
C29	C	-1.485985	0.224108	0.000077
C30	C	-1.604865	-0.072832	0.546676
C31	C	-1.640383	-0.158463	0.453431
C32	C	-1.487189	-0.054470	0.453504
C33	C	-1.558258	-0.225801	0.546622
C34	C	-1.405007	-0.121751	0.546703
C35	C	-1.440484	-0.207444	0.453500
N36	N	-1.522677	-0.140126	0.637815
H37	H	-1.112734	0.024687	-0.000064
N38	N	-1.447423	0.041464	0.399346
H39	H	-1.367509	0.033549	0.341256
H40	H	-1.518008	0.069885	0.339825
N41	N	-1.697017	0.002437	0.600894
H42	H	-1.649317	0.050055	0.659040
H43	H	-1.739395	0.036128	0.519459
H44	H	-0.948028	-0.055328	-0.211493
H45	H	-1.739883	-0.173998	0.412461
H46	H	-1.588369	-0.298244	0.587354
H47	H	-1.372125	0.363268	0.000055
H48	H	-1.370972	-0.264401	0.412848
H49	H	-1.673194	0.356506	-0.000021
N50	N	-1.273248	-0.101148	0.601034
H51	H	-1.213566	-0.091147	0.519724
H52	H	-1.276891	-0.041817	0.660693
N53	N	-1.108331	-0.237449	-0.243236
H54	H	-1.158457	-0.294832	-0.214175
H55	H	-1.164648	-0.193058	-0.300197
N56	N	-0.919315	-0.329549	-0.000097
H57	H	-0.948256	-0.364098	-0.086735
H58	H	-0.823165	-0.327006	0.000783
H59	H	-0.948078	-0.055309	0.211598
N60	N	-1.108630	-0.237460	0.243038
H61	H	-1.079910	-0.202721	0.329602
H62	H	-1.204804	-0.239549	0.241494
