data_functionalizedCrystal
_audit_creation_method	'MofGen! by Chris Wilmer'
_symmetry_space_group_name_H-M	'P1'
_symmetry_Int_Tables_number	1
_symmetry_cell_setting	triclinic
loop_
_symmetry_equiv_pos_as_xyz
  x,y,z
_cell_length_a	17.640112
_cell_length_b	16.120484
_cell_length_c	17.640968
_cell_angle_alpha	82.192558
_cell_angle_beta	92.139080
_cell_angle_gamma	103.499326
loop_
_atom_site_label
_atom_site_type_symbol
_atom_site_fract_x
_atom_site_fract_y
_atom_site_fract_z
Zn1	Zn	1.246898	-0.023860	-0.196404
Zn2	Zn	1.214806	-0.195187	-0.078925
Zn3	Zn	1.092236	-0.077878	-0.098046
Zn4	Zn	1.113950	-0.184256	-0.230901
O5	O	1.166972	-0.120295	-0.151069
O6	O	1.349575	-0.028555	-0.158380
O7	O	1.176029	-0.206807	0.023304
O8	O	1.117096	0.045508	-0.104658
O9	O	1.325997	-0.154428	-0.072070
O10	O	1.230725	0.085195	-0.176921
O11	O	1.085978	-0.120621	0.009256
O12	O	0.988182	-0.110021	-0.138109
O13	O	1.154104	-0.135798	-0.331090
O14	O	1.004135	-0.188177	-0.235717
O15	O	1.251780	-0.017955	-0.305745
O16	O	1.197083	-0.309958	-0.105520
O17	O	1.122985	-0.301927	-0.217176
C18	C	0.968432	-0.153775	-0.192732
C19	C	0.883498	-0.168113	-0.210574
C20	C	0.562620	-0.011353	-0.015528
C21	C	0.482814	-0.024840	-0.032305
C22	C	0.499439	-0.106413	-0.133786
C23	C	0.579249	-0.092929	-0.117021
C24	C	0.610833	-0.045399	-0.057890
C25	C	0.627462	-0.126975	-0.159383
C26	C	0.707264	-0.113496	-0.142616
C27	C	0.738854	-0.065971	-0.083486
C28	C	0.690635	-0.031920	-0.041123
C29	C	0.595875	-0.174510	-0.218510
C30	C	0.644088	-0.208556	-0.260872
C31	C	0.723893	-0.195072	-0.244108
C32	C	0.755483	-0.147546	-0.184979
C33	C	0.772112	-0.229122	-0.286472
C34	C	0.851914	-0.215643	-0.269705
C35	C	0.835285	-0.134067	-0.168212
C36	C	1.158932	-0.336069	-0.163028
C37	C	1.155568	-0.428360	-0.168155
C38	C	1.149433	-0.597332	-0.177530
C39	C	1.184651	-0.642392	-0.124592
C40	C	1.181238	-0.736414	-0.129808
C41	C	1.152846	-0.503302	-0.172315
C42	C	1.366289	-0.086685	-0.109244
C43	C	1.451225	-0.072363	-0.091421
C44	C	1.208944	-0.069632	-0.346341
C45	C	1.226829	-0.048042	-0.429555
C46	C	1.175068	0.096329	-0.139075
C47	C	1.178518	0.188641	-0.133963
C48	C	1.031408	-0.283809	-0.769207
C49	C	1.048230	-0.263509	-0.847394
C50	C	1.149932	-0.140810	-0.820995
C51	C	1.133115	-0.161098	-0.742803
C52	C	1.073853	-0.232599	-0.716916
C53	C	1.175560	-0.109887	-0.690513
C54	C	1.158747	-0.130176	-0.612328
C55	C	1.099489	-0.201675	-0.586434
C56	C	1.057040	-0.252888	-0.638731
C57	C	1.234826	-0.038390	-0.716401
C58	C	1.277271	0.012820	-0.664110
C59	C	1.260455	-0.007464	-0.585924
C60	C	1.201197	-0.078964	-0.560030
C61	C	1.302904	0.043748	-0.533627
C62	C	1.286092	0.023459	-0.455442
C63	C	1.184384	-0.099252	-0.481846
C64	C	1.125211	-0.170694	0.043456
C65	C	1.107482	-0.192025	0.126714
H66	H	0.803834	-0.054999	-0.069834
H67	H	1.116721	-0.629366	-0.226764
H68	H	0.861005	-0.095349	-0.120072
H69	H	1.136109	-0.157459	-0.460770
C70	C	1.228120	-0.599689	-0.058861
C71	C	1.176328	-0.569739	-0.017202
C72	C	1.216336	-0.530405	0.043360
H73	H	1.268760	-0.552707	-0.078600
H74	H	1.249743	-0.640316	-0.026288
H75	H	1.154718	-0.529115	-0.049769
H76	H	1.135688	-0.616704	0.002555
H77	H	1.237959	-0.571032	0.075932
H78	H	1.256975	-0.483426	0.023614
H79	H	1.181200	-0.510086	0.071637
C80	C	0.904379	-0.252441	-0.315712
C81	C	0.962288	-0.185292	-0.351517
C82	C	1.010639	-0.219162	-0.393895
H83	H	0.874244	-0.282662	-0.353385
H84	H	0.928044	-0.290737	-0.282491
H85	H	0.938624	-0.147011	-0.384735
H86	H	0.992441	-0.155064	-0.313862
H87	H	1.034304	-0.257458	-0.360673
H88	H	0.980497	-0.249383	-0.431563
H89	H	1.049939	-0.173608	-0.418187
C90	C	1.332233	0.079190	-0.398788
C91	C	1.387715	0.146164	-0.438195
C92	C	1.430230	0.197525	-0.386031
H93	H	1.357852	0.045222	-0.363036
H94	H	1.297814	0.102581	-0.372431
H95	H	1.422129	0.122773	-0.464539
H96	H	1.362116	0.180152	-0.473944
H97	H	1.395811	0.220916	-0.359674
H98	H	1.455844	0.163550	-0.350281
H99	H	1.467874	0.242977	-0.412761
C100	C	0.509241	-0.189293	-0.236796
C101	C	0.491894	-0.238236	-0.297623
C102	C	0.412092	-0.251889	-0.314478
H103	H	0.495870	-0.135461	-0.250700
H104	H	0.480244	-0.219205	-0.193063
H105	H	0.520881	-0.208324	-0.341348
H106	H	0.505245	-0.292078	-0.283737
H107	H	0.383095	-0.281801	-0.270744
H108	H	0.398728	-0.198053	-0.328378
H109	H	0.400310	-0.285104	-0.355745
C110	C	0.596764	0.040233	0.048730
C111	C	0.537459	0.067151	0.082256
C112	C	0.568882	0.114656	0.141460
H113	H	0.635401	0.089123	0.028675
H114	H	0.619661	0.005299	0.086214
H115	H	0.514575	0.102083	0.044780
H116	H	0.498819	0.018279	0.102328
H117	H	0.591779	0.079722	0.178943
H118	H	0.607518	0.163542	0.121398
H119	H	0.528647	0.132919	0.164219
C120	C	0.967077	-0.361516	-0.741236
C121	C	0.933517	-0.402043	-0.803760
C122	C	0.874272	-0.473639	-0.778020
H123	H	0.928333	-0.343399	-0.715973
H124	H	0.988404	-0.400718	-0.706632
H125	H	0.912189	-0.362848	-0.838351
H126	H	0.972240	-0.420179	-0.829030
H127	H	0.895600	-0.512842	-0.743416
H128	H	0.835534	-0.455515	-0.752757
H129	H	0.851499	-0.501151	-0.820437
C130	C	0.725023	0.019557	0.023131
C131	C	0.758774	-0.032112	0.078195
C132	C	0.790471	0.015279	0.137388
H133	H	0.684958	0.037926	0.046053
H134	H	0.763709	0.068380	0.003007
H135	H	0.720091	-0.080919	0.098317
H136	H	0.798849	-0.050483	0.055296
H137	H	0.829157	0.064102	0.117265
H138	H	0.750401	0.033646	0.160304
H139	H	0.813380	-0.019769	0.174753
H140	H	0.746382	-0.267828	-0.334611
H141	H	1.085804	-0.218196	-0.522770
H142	H	1.008765	-0.311094	-0.617656
H143	H	1.013662	-0.305217	-0.889969
H144	H	0.443562	0.002895	0.002191
H145	H	1.198185	-0.082596	-0.842083
C146	C	0.609916	-0.260051	-0.325173
C147	C	0.645953	-0.219586	-0.394188
C148	C	0.614503	-0.266999	-0.453441
H149	H	0.555492	-0.263229	-0.329198
H150	H	0.618575	-0.316488	-0.314530
H151	H	0.637288	-0.163165	-0.404830
H152	H	0.700375	-0.216409	-0.390189
H153	H	0.623161	-0.323436	-0.442798
H154	H	0.560080	-0.270174	-0.457459
H155	H	0.638954	-0.239555	-0.500274
C156	C	1.253082	-0.016535	-0.801296
C157	C	1.275161	-0.085614	-0.827460
C158	C	1.291974	-0.065516	-0.905662
H159	H	1.294473	0.033340	-0.809324
H160	H	1.208108	-0.005931	-0.828573
H161	H	1.320129	-0.096207	-0.800192
H162	H	1.233781	-0.135495	-0.819452
H163	H	1.247000	-0.054912	-0.932938
H164	H	1.333363	-0.015640	-0.913682
H165	H	1.306950	-0.112385	-0.923425
H166	H	1.325525	0.071035	-0.685199
C167	C	1.367132	0.121462	-0.561800
C168	C	1.335507	0.179055	-0.612812
C169	C	1.394650	0.250660	-0.638771
H170	H	1.405830	0.103331	-0.587118
H171	H	1.389998	0.149110	-0.519483
H172	H	1.312654	0.151412	-0.655122
H173	H	1.296816	0.197210	-0.587511
H174	H	1.417515	0.278308	-0.596454
H175	H	1.433344	0.232521	-0.664086
H176	H	1.373199	0.289749	-0.673380
H177	H	0.473711	-0.145114	-0.181929
