data_functionalizedCrystal
_audit_creation_method	'MofGen! by Chris Wilmer'
_symmetry_space_group_name_H-M	'P1'
_symmetry_Int_Tables_number	1
_symmetry_cell_setting	triclinic
loop_
_symmetry_equiv_pos_as_xyz
  x,y,z
_cell_length_a	14.044209
_cell_length_b	10.540539
_cell_length_c	13.101039
_cell_angle_alpha	93.398267
_cell_angle_beta	93.659214
_cell_angle_gamma	91.143278
loop_
_atom_site_label
_atom_site_type_symbol
_atom_site_fract_x
_atom_site_fract_y
_atom_site_fract_z
O1	O	-1.264944	0.299837	-0.085081
O2	O	-0.764944	0.799837	0.414919
O3	O	-0.988902	0.288787	-0.085111
O4	O	-0.488902	0.788787	0.414889
O5	O	-1.133220	0.110242	-0.085094
O6	O	-0.633220	0.610242	0.414906
O7	O	-1.120625	0.478382	-0.085098
O8	O	-0.620625	0.978382	0.414902
O9	O	-1.122866	0.123076	0.085334
O10	O	-0.622866	0.623076	0.585334
O11	O	-0.978547	0.301620	0.085318
O12	O	-0.478547	0.801620	0.585318
O13	O	-1.254589	0.312671	0.085347
O14	O	-0.754589	0.812671	0.585347
Zn15	Zn	-1.114924	0.309183	0.112392
Zn16	Zn	-0.614924	0.809183	0.612392
Zn17	Zn	-1.128567	0.292274	-0.112155
Zn18	Zn	-0.628567	0.792274	0.387845
O19	O	-1.110271	0.491215	0.085331
O20	O	-0.610271	0.991215	0.585331
C21	C	-0.948377	0.290366	0.000100
C22	C	-0.448377	0.790366	0.500100
C23	C	-0.843054	0.275936	0.000088
C24	C	-0.343054	0.775936	0.500088
C25	C	-1.127099	0.069260	0.000118
C26	C	-0.627099	0.569260	0.500118
C27	C	-1.124273	-0.071974	0.000112
C28	C	-0.624273	0.428026	0.500112
C29	C	-0.650213	0.249559	0.000106
C30	C	-0.150213	0.749559	0.500106
C31	C	-0.593273	0.351902	0.000109
C32	C	-0.093273	0.851902	0.500109
C33	C	-0.485969	0.337225	0.000119
C34	C	0.014031	0.837225	0.500119
C35	C	-0.757527	0.264234	0.000096
C36	C	-0.257527	0.764234	0.500096
C37	C	-1.016007	-0.266377	-0.000282
C38	C	-0.516007	0.233623	0.499718
C39	C	-1.018849	-0.119440	0.000102
C40	C	-0.518849	0.380560	0.500102
C41	C	-1.169095	-0.121174	0.097441
C42	C	-0.669095	0.378826	0.597441
C43	C	-1.165492	-0.268076	0.097522
C44	C	-0.665492	0.231924	0.597522
C45	C	-1.179411	-0.282972	-0.096287
C46	C	-0.679411	0.217028	0.403713
C47	C	-1.180460	-0.135988	-0.097573
C48	C	-0.680460	0.364012	0.402427
C49	C	-0.295114	0.311094	0.000131
C50	C	0.204886	0.811094	0.500131
C51	C	-0.400437	0.325530	0.000127
C52	C	0.099563	0.825530	0.500127
C53	C	-1.116392	0.532197	0.000116
C54	C	-0.616392	1.032197	0.500116
C55	C	-1.119219	0.673431	0.000115
C56	C	-0.619219	1.173431	0.500115
N57	N	-1.105620	0.320723	0.265639
N58	N	-0.605620	0.820723	0.765639
N59	N	-1.137878	0.280725	-0.265403
N60	N	-0.637878	0.780725	0.234597
C61	C	-1.092962	0.336435	0.474680
C62	C	-0.592962	0.836435	0.974680
C63	C	-1.150533	0.265017	0.525563
C64	C	-0.650533	0.765017	1.025563
C65	C	-1.143490	0.273760	0.641880
C66	C	-0.643490	0.773760	1.141880
C67	C	-1.100004	0.327694	0.358352
C68	C	-0.600004	0.827694	0.858352
H69	H	-0.618376	0.150925	0.000113
H70	H	-0.118376	0.650925	0.500113
H71	H	-0.625112	0.450543	0.000103
H72	H	-0.125112	0.950543	0.500103
H73	H	-1.205111	0.197310	0.481767
H74	H	-0.705111	0.697310	0.981767
O75	O	-0.976366	-0.079864	-0.083239
O76	O	-0.476366	0.420136	0.416761
C77	C	-1.025498	-0.133763	-0.173159
C78	C	-0.525498	0.366237	0.326841
H79	H	-1.065729	-0.223735	-0.154790
H80	H	-0.565729	0.276265	0.345210
H81	H	-0.972192	-0.158475	-0.232916
H82	H	-0.472192	0.341525	0.267084
H83	H	-1.078299	-0.062666	-0.204483
H84	H	-0.578299	0.437334	0.295517
O85	O	-0.971253	-0.311613	-0.083514
O86	O	-0.471253	0.188387	0.416486
C87	C	-0.879003	-0.255882	-0.081575
C88	C	-0.379003	0.244118	0.418425
H89	H	-0.876727	-0.162197	-0.033213
H90	H	-0.376727	0.337803	0.466787
H91	H	-0.860780	-0.237350	-0.163015
H92	H	-0.360780	0.262650	0.336985
H93	H	-0.824906	-0.323029	-0.046930
H94	H	-0.324906	0.176971	0.453070
O95	O	-0.961638	-0.301240	0.082588
O96	O	-0.461638	0.198760	0.582588
C97	C	-1.016455	-0.379868	0.140902
C98	C	-0.516455	0.120132	0.640902
H99	H	-1.095474	-0.361358	0.124358
H100	H	-0.595474	0.138642	0.624358
H101	H	-0.996335	-0.358031	0.225897
H102	H	-0.496335	0.141969	0.725897
H103	H	-1.001882	-0.483794	0.119608
H104	H	-0.501882	0.016206	0.619608
O105	O	-0.965708	-0.068127	0.083358
O106	O	-0.465708	0.431873	0.583358
C107	C	-0.891279	0.008453	0.050961
C108	C	-0.391279	0.508453	0.550961
H109	H	-0.875911	-0.023197	-0.030954
H110	H	-0.375911	0.476803	0.469046
H111	H	-0.824350	-0.001545	0.103574
H112	H	-0.324350	0.498455	0.603574
H113	H	-0.913389	0.112022	0.054066
H114	H	-0.413389	0.612022	0.554066
H115	H	-1.038389	0.404139	0.518471
H116	H	-0.538389	0.904139	1.018471
H117	H	-1.123577	-0.294588	0.170269
H118	H	-0.623577	0.205412	0.670269
H119	H	-1.241043	-0.308047	0.101946
H120	H	-0.741043	0.191953	0.601946
H121	H	-1.246295	-0.090720	0.101068
H122	H	-0.746295	0.409280	0.601068
O123	O	-1.121672	-0.068040	0.183741
O124	O	-0.621672	0.431960	0.683741
C125	C	-1.048006	0.013675	0.156473
C126	C	-0.548006	0.513675	0.656473
H127	H	-1.027503	-0.015536	0.075763
H128	H	-0.527503	0.484464	0.575763
H129	H	-0.983224	0.006986	0.212760
H130	H	-0.483224	0.506986	0.712760
H131	H	-1.073722	0.115649	0.158846
H132	H	-0.573722	0.615649	0.658846
O133	O	-1.141527	-0.097879	-0.183448
O134	O	-0.641527	0.402121	0.316552
C135	C	-1.146425	0.035386	-0.185931
C136	C	-0.646425	0.535386	0.314069
H137	H	-1.205928	0.070945	-0.137149
H138	H	-0.705928	0.570945	0.362851
H139	H	-1.161825	0.062006	-0.268338
H140	H	-0.661825	0.562006	0.231662
H141	H	-1.075482	0.080969	-0.154317
H142	H	-0.575482	0.580969	0.345683
O143	O	-1.272567	-0.098273	-0.104401
O144	O	-0.772567	0.401727	0.395599
C145	C	-1.288283	-0.012716	-0.020633
C146	C	-0.788283	0.487284	0.479367
H147	H	-1.233380	-0.028202	0.045091
H148	H	-0.733380	0.471798	0.545091
H149	H	-1.363105	-0.029763	0.005520
H150	H	-0.863105	0.470237	0.505520
H151	H	-1.281075	0.089000	-0.044773
H152	H	-0.781075	0.589000	0.455227
O153	O	-1.143908	-0.331404	-0.184198
O154	O	-0.643908	0.168596	0.315802
C155	C	-1.064091	-0.405567	-0.159898
C156	C	-0.564091	0.094433	0.340102
H157	H	-1.032137	-0.374196	-0.079997
H158	H	-0.532137	0.125804	0.420003
H159	H	-1.008369	-0.392453	-0.218208
H160	H	-0.508369	0.107547	0.281792
H161	H	-1.087223	-0.510019	-0.161839
H162	H	-0.587223	-0.010019	0.338161
O163	O	-1.270250	-0.330336	-0.096937
O164	O	-0.770250	0.169664	0.403063
C165	C	-1.279445	-0.402476	-0.010698
C166	C	-0.779445	0.097524	0.489302
H167	H	-1.206235	-0.436116	0.017338
H168	H	-0.706235	0.063884	0.517338
H169	H	-1.328697	-0.488381	-0.032615
H170	H	-0.828697	0.011619	0.467385
H171	H	-1.310840	-0.341270	0.052915
H172	H	-0.810840	0.158730	0.552915
