data_functionalizedCrystal
_audit_creation_method	'MofGen! by Chris Wilmer'
_symmetry_space_group_name_H-M	'P1'
_symmetry_Int_Tables_number	1
_symmetry_cell_setting	triclinic
loop_
_symmetry_equiv_pos_as_xyz
  x,y,z
_cell_length_a	29.839131
_cell_length_b	17.640112
_cell_length_c	17.640968
_cell_angle_alpha	87.860920
_cell_angle_beta	78.768609
_cell_angle_gamma	78.733316
loop_
_atom_site_label
_atom_site_type_symbol
_atom_site_fract_x
_atom_site_fract_y
_atom_site_fract_z
Zn1	Zn	-0.012909	-1.247771	-0.195080
Zn2	Zn	-0.105602	-1.221948	-0.068098
Zn3	Zn	-0.042134	-1.095086	-0.093726
Zn4	Zn	-0.099688	-1.120692	-0.220680
O5	O	-0.065083	-1.171374	-0.144396
O6	O	-0.015449	-1.350620	-0.156796
O7	O	-0.111889	-1.183596	0.034776
O8	O	0.024621	-1.115431	-0.107183
O9	O	-0.083550	-1.331648	-0.063503
O10	O	0.046093	-1.227608	-0.181647
O11	O	-0.065260	-1.090391	0.015947
O12	O	-0.059525	-0.992208	-0.132006
O13	O	-0.073471	-1.159073	-0.323557
O14	O	-0.101810	-1.011020	-0.225278
O15	O	-0.009714	-1.252437	-0.304749
O16	O	-0.167697	-1.208425	-0.088326
O17	O	-0.163352	-1.134033	-0.200427
C18	C	-0.181824	-1.171229	-0.144386
C19	C	-0.231756	-1.171242	-0.144393
C20	C	-0.083197	-0.974058	-0.184201
C21	C	-0.090955	-0.889649	-0.201248
C22	C	-0.037673	-1.211491	-0.342479
C23	C	-0.025992	-1.228587	-0.426890
C24	C	-0.543616	-1.210213	-0.086078
C25	C	-0.731276	-1.210312	-0.086088
O26	O	-0.757439	-1.243332	-0.036500
N27	N	-0.752503	-1.171543	-0.144421
C28	C	-0.726811	-1.132750	-0.202759
O29	O	-0.749171	-1.099784	-0.252379
C30	C	-0.539151	-1.132656	-0.202750
C31	C	-0.517928	-1.171421	-0.144409
C32	C	-0.522392	-1.248976	-0.027742
C33	C	-0.475481	-1.248947	-0.027738
C34	C	-0.449792	-1.210155	-0.086069
C35	C	-0.471016	-1.171392	-0.144405
C36	C	-0.513459	-1.093868	-0.261090
C37	C	-0.466541	-1.093850	-0.261084
C38	C	-0.445318	-1.132615	-0.202743
C39	C	-0.398416	-1.132572	-0.202732
N40	N	-0.377189	-1.171341	-0.144399
C41	C	-0.402877	-1.210133	-0.086068
C42	C	-0.825336	-1.132802	-0.202758
C43	C	-0.872251	-1.132824	-0.202759
C44	C	-0.876713	-1.210387	-0.086090
C45	C	-0.829797	-1.210360	-0.086086
C46	C	-0.804109	-1.171571	-0.144425
C47	C	-0.304360	-1.210069	-0.086062
C48	C	-0.257444	-1.210034	-0.086061
C49	C	-0.252986	-1.132474	-0.202733
C50	C	-0.299898	-1.132505	-0.202732
C51	C	-0.325583	-1.171308	-0.144393
O52	O	-0.372224	-1.099577	-0.252299
O53	O	-0.380507	-1.243109	-0.036464
C54	C	-0.590527	-1.210242	-0.086082
C55	C	-0.611751	-1.171479	-0.144418
C56	C	-0.586063	-1.132687	-0.202750
C57	C	-0.658666	-1.171501	-0.144420
C58	C	-0.684354	-1.210293	-0.086088
C59	C	-0.663127	-1.249062	-0.027755
C60	C	-0.616215	-1.249033	-0.027751
C61	C	-0.607290	-1.093918	-0.261082
C62	C	-0.654202	-1.093949	-0.261082
C63	C	-0.679890	-1.132741	-0.202750
C64	C	0.052117	-1.171544	-0.144418
C65	C	0.102061	-1.171616	-0.144428
C66	C	-0.046899	-1.369461	-0.104435
C67	C	-0.039150	-1.453873	-0.087407
C68	C	-0.006143	-0.563036	-0.014898
C69	C	-0.013439	-0.483723	-0.030927
C70	C	-0.057573	-0.503332	-0.127883
C71	C	-0.050277	-0.582649	-0.111866
C72	C	-0.024563	-0.612494	-0.055372
C73	C	-0.068697	-0.632108	-0.152339
C74	C	-0.061405	-0.711417	-0.136320
C75	C	-0.035692	-0.741268	-0.079827
C76	C	-0.017270	-0.691803	-0.039352
C77	C	-0.094415	-0.602261	-0.208829
C78	C	-0.112835	-0.651719	-0.249303
C79	C	-0.105540	-0.731031	-0.233287
C80	C	-0.079827	-0.760882	-0.176794
C81	C	-0.123962	-0.780495	-0.273762
C82	C	-0.116670	-0.859805	-0.257742
C83	C	-0.072535	-0.840191	-0.160775
C84	C	-0.153550	-1.041792	-0.753463
C85	C	-0.142567	-1.057872	-0.832777
C86	C	-0.076183	-1.155084	-0.813183
C87	C	-0.087159	-1.139010	-0.733867
C88	C	-0.125843	-1.082364	-0.704013
C89	C	-0.059452	-1.179581	-0.684417
C90	C	-0.070429	-1.163511	-0.605107
C91	C	-0.109113	-1.106869	-0.575246
C92	C	-0.136820	-1.066293	-0.624703
C93	C	-0.020770	-1.236231	-0.714271
C94	C	0.006936	-1.276802	-0.664821
C95	C	-0.004039	-1.260728	-0.585510
C96	C	-0.042722	-1.204086	-0.555650
C97	C	0.023669	-1.301304	-0.536054
C98	C	0.012692	-1.285233	-0.456744
C99	C	-0.053699	-1.188016	-0.476340
C100	C	-0.092351	-1.131457	0.052925
C101	C	-0.103892	-1.114508	0.137366
H102	H	-0.240166	-1.241600	-0.038551
H103	H	-0.804423	-1.101213	-0.250266
H104	H	-0.165132	-1.024830	-0.873038
N105	N	0.046456	-1.334654	-0.695309
N106	N	0.071194	-1.370866	-0.651147
H107	H	0.099107	-1.411723	-0.672677
N108	N	-0.150223	-0.750006	-0.331474
N109	N	-0.136791	-0.773071	-0.399768
H110	H	-0.155338	-0.751539	-0.440529
H111	H	-0.131668	-0.900076	-0.290701
H112	H	-0.029756	-0.805847	-0.066783
H113	H	-0.078511	-0.479021	-0.173879
H114	H	-0.445627	-1.062264	-0.308593
N115	N	-0.101853	-0.521250	-0.225203
N116	N	-0.067860	-0.489132	-0.248337
H117	H	-0.073111	-0.431919	-0.259905
H118	H	-0.133774	-0.627408	-0.295298
H119	H	-0.085190	-1.141871	-0.452035
N120	N	0.009010	-0.722287	0.018343
N121	N	0.025462	-0.678123	0.054468
H122	H	0.044023	-0.699652	0.095211
H123	H	-0.118051	-1.093788	-0.510666
H124	H	-0.051587	-0.864494	-0.114783
H125	H	-0.044687	-1.201208	-0.837501
N126	N	-0.176332	-1.008417	-0.594216
N127	N	-0.201065	-0.972188	-0.638375
H128	H	-0.228968	-0.931314	-0.616844
H129	H	-0.185041	-0.995647	-0.729159
N130	N	0.063181	-1.359158	-0.566569
N131	N	0.095484	-1.341447	-0.616230
H132	H	0.123390	-1.382307	-0.637783
H133	H	-0.011835	-1.249315	-0.778851
N134	N	-0.321576	-1.092889	-0.262320
N135	N	-0.298634	-1.058250	-0.314392
H136	H	-0.313939	-1.030273	-0.356480
H137	H	0.035254	-1.318269	-0.416480
N138	N	-0.689375	-1.288674	0.031838
N139	N	-0.724732	-1.252197	0.074863
H140	H	-0.743271	-1.280172	0.116948
N141	N	-0.330589	-1.249693	-0.026457
N142	N	-0.335517	-1.230506	0.042614
H143	H	-0.354042	-1.258485	0.084715
N144	N	-0.453814	-1.288537	0.031869
N145	N	-0.469238	-1.269361	0.100941
H146	H	-0.453941	-1.297324	0.143044
N147	N	-0.548620	-1.288612	0.031850
N148	N	-0.529655	-1.323218	0.083924
H149	H	-0.548175	-1.351211	0.126018
N150	N	0.020138	-0.593537	0.042790
N151	N	0.061494	-0.585769	0.035832
H152	H	0.080055	-0.607313	0.076569
N153	N	-0.808123	-1.249948	-0.026486
N154	N	-0.823539	-1.230772	0.042588
H155	H	-0.808233	-1.258732	0.084684
N156	N	-0.902964	-1.250005	-0.026508
N157	N	-0.944852	-1.250015	-0.026526
H158	H	-0.963394	-1.277997	0.015549
H159	H	-0.889529	-1.101249	-0.250261
H160	H	-0.530732	-1.062297	-0.308595
H161	H	-0.598939	-1.280600	0.019756
N162	N	-0.226736	-1.092847	-0.262304
N163	N	-0.184850	-1.092833	-0.262284
H164	H	-0.166309	-1.064848	-0.304358
N165	N	-0.675880	-1.054333	-0.320671
N166	N	-0.677824	-0.983226	-0.329715
H167	H	-0.693133	-0.955251	-0.371801
N168	N	-0.581060	-1.054290	-0.320678
N169	N	-0.600023	-1.019682	-0.372753
H170	H	-0.581501	-0.991690	-0.414845
N171	N	0.005380	-0.433211	0.010428
N172	N	0.028337	-0.459872	0.060866
H173	H	0.041628	-0.424199	0.090074
