data_functionalizedCrystal
_audit_creation_method	'MofGen! by Chris Wilmer'
_symmetry_space_group_name_H-M	'P1'
_symmetry_Int_Tables_number	1
_symmetry_cell_setting	triclinic
loop_
_symmetry_equiv_pos_as_xyz
  x,y,z
_cell_length_a	12.759401
_cell_length_b	25.639239
_cell_length_c	12.759393
_cell_angle_alpha	90.036230
_cell_angle_beta	90.018173
_cell_angle_gamma	90.038847
loop_
_atom_site_label
_atom_site_type_symbol
_atom_site_fract_x
_atom_site_fract_y
_atom_site_fract_z
Zn1	Zn	1.606077	-0.208122	0.593941
Zn2	Zn	2.106077	0.291878	1.093941
Zn3	Zn	1.605899	-0.295567	0.418245
Zn4	Zn	2.105899	0.204433	0.918245
Zn5	Zn	1.430380	-0.208148	0.418281
Zn6	Zn	1.930380	0.291852	0.918281
Zn7	Zn	1.430294	-0.295528	0.593886
Zn8	Zn	1.930294	0.204472	1.093886
O9	O	1.518162	-0.251841	0.506088
O10	O	2.018162	0.248159	1.006088
O11	O	1.753074	-0.219727	0.570643
O12	O	2.253074	0.280273	1.070643
O13	O	1.582577	-0.283998	0.271228
O14	O	2.082577	0.216002	0.771228
O15	O	1.453797	-0.134979	0.441621
O16	O	1.953797	0.365021	0.941621
O17	O	1.752943	-0.283973	0.441559
O18	O	2.252943	0.216027	0.941559
O19	O	1.582881	-0.134960	0.570678
O20	O	2.082881	0.365040	1.070678
O21	O	1.453624	-0.219772	0.271255
O22	O	1.953624	0.280228	0.771255
O23	O	1.283347	-0.219734	0.441567
O24	O	1.783347	0.280266	0.941567
O25	O	1.453651	-0.283907	0.740914
O26	O	1.953651	0.216093	1.240914
O27	O	1.283284	-0.283932	0.570584
O28	O	1.783284	0.216068	1.070584
O29	O	1.582798	-0.219689	0.740955
O30	O	2.082798	0.280311	1.240955
O31	O	1.582494	-0.368727	0.441505
O32	O	2.082494	0.131273	0.941505
O33	O	1.453478	-0.368699	0.570549
O34	O	1.953478	0.131301	1.070549
C35	C	1.245195	-0.251832	0.506074
C36	C	1.745195	0.248168	1.006074
C37	C	1.128418	-0.251840	0.506093
C38	C	1.628418	0.248160	1.006093
C39	C	1.517986	-0.387684	0.506040
C40	C	2.017986	0.112316	1.006040
C41	C	1.518006	-0.445798	0.506055
C42	C	2.018006	0.054202	1.006055
C43	C	1.073551	-0.285322	0.573160
C44	C	1.573551	0.214678	1.073160
C45	C	0.963827	-0.285328	0.573172
C46	C	1.463827	0.214672	1.073172
C47	C	0.963847	-0.218371	0.439039
C48	C	1.463847	0.281629	0.939039
C49	C	1.073569	-0.218362	0.439033
C50	C	1.573569	0.281638	0.939033
C51	C	1.128400	-0.318800	0.640220
C52	C	1.628400	0.181200	1.140220
C53	C	1.073532	-0.352285	0.707292
C54	C	1.573532	0.147715	1.207292
C55	C	0.963808	-0.352291	0.707303
C56	C	1.463808	0.147709	1.207303
C57	C	0.908952	-0.318813	0.640242
C58	C	1.408952	0.181187	1.140242
C59	C	1.585516	-0.806163	0.439010
C60	C	2.085516	-0.306163	0.939010
C61	C	1.585557	-0.860768	0.439024
C62	C	2.085557	-0.360768	0.939024
O63	O	1.642773	-0.889006	0.381967
O64	O	2.142773	-0.389006	0.881967
N65	N	1.518347	-0.888081	0.506158
N66	N	2.018347	-0.388081	1.006158
C67	C	1.451099	-0.860786	0.573289
C68	C	1.951099	-0.360786	1.073289
O69	O	1.393937	-0.889032	0.630394
O70	O	1.893937	-0.389032	1.130394
C71	C	1.451065	-0.806183	0.573280
C72	C	1.951065	-0.306183	1.073280
C73	C	1.518272	-0.778873	0.506134
C74	C	2.018272	-0.278873	1.006134
C75	C	1.652719	-0.778853	0.371870
C76	C	2.152719	-0.278853	0.871870
C77	C	1.652676	-0.724253	0.371855
C78	C	2.152676	-0.224253	0.871855
C79	C	1.585432	-0.696962	0.438980
C80	C	2.085432	-0.196962	0.938980
C81	C	1.518229	-0.724272	0.506119
C82	C	2.018229	-0.224272	1.006119
C83	C	1.383823	-0.778889	0.640416
C84	C	1.883823	-0.278889	1.140416
C85	C	1.383795	-0.724282	0.640401
C86	C	1.883795	-0.224282	1.140401
C87	C	1.451002	-0.696972	0.573256
C88	C	1.951002	-0.196972	1.073256
C89	C	1.450942	-0.642381	0.573228
C90	C	1.950942	-0.142381	1.073228
N91	N	1.518152	-0.615069	0.506094
N92	N	2.018152	-0.115069	1.006094
C93	C	1.585397	-0.642359	0.438970
C94	C	2.085397	-0.142359	0.938970
C95	C	1.451179	-0.975457	0.573306
C96	C	1.951179	-0.475457	1.073306
C97	C	1.451207	-1.030059	0.573311
C98	C	1.951207	-0.530059	1.073311
C99	C	1.585666	-1.030037	0.439046
C100	C	2.085666	-0.530037	0.939046
C101	C	1.585632	-0.975434	0.439037
C102	C	2.085632	-0.475434	0.939037
C103	C	1.518389	-0.948144	0.506172
C104	C	2.018389	-0.448144	1.006172
C105	C	1.585302	-0.527694	0.438943
C106	C	2.085302	-0.027694	0.938943
C107	C	1.585251	-0.473089	0.438930
C108	C	2.085251	0.026911	0.938930
C109	C	1.450796	-0.473116	0.573198
C110	C	1.950796	0.026884	1.073198
C111	C	1.450843	-0.527716	0.573207
C112	C	1.950843	-0.027716	1.073207
C113	C	1.518105	-0.555004	0.506076
C114	C	2.018105	-0.055004	1.006076
O115	O	1.393758	-0.614108	0.630258
O116	O	1.893758	-0.114108	1.130258
O117	O	1.642560	-0.614107	0.381885
O118	O	2.142560	-0.114107	0.881885
C119	C	1.792196	-0.251852	0.506103
C120	C	2.292196	0.248148	1.006103
C121	C	1.908972	-0.251856	0.506109
C122	C	2.408972	0.248144	1.006109
C123	C	1.518234	-0.251791	0.780122
C124	C	2.018234	0.248209	1.280122
C125	C	1.518265	-0.251769	0.896898
C126	C	2.018265	0.248231	1.396898
C127	C	1.518368	-0.115468	0.506159
C128	C	2.018368	0.384532	1.006159
C129	C	1.518456	-0.057354	0.506190
C130	C	2.018456	0.442646	1.006190
C131	C	1.518151	-0.251854	0.233121
C132	C	2.018151	0.248146	0.733121
C133	C	1.518324	-0.251729	0.116345
C134	C	2.018324	0.248271	0.616345
C135	C	1.451072	-0.285174	1.061466
C136	C	1.951072	0.214826	1.561466
C137	C	1.451040	-0.285193	0.951742
C138	C	1.951040	0.214807	1.451742
C139	C	1.585520	-0.218320	0.951785
C140	C	2.085520	0.281680	1.451785
C141	C	1.585546	-0.218299	1.061507
C142	C	2.085546	0.281701	1.561507
C143	C	1.383850	-0.318604	1.116304
C144	C	1.883850	0.181396	1.616304
C145	C	1.316594	-0.352052	1.061425
C146	C	1.816594	0.147948	1.561425
C147	C	1.316562	-0.352071	0.951701
C148	C	1.816562	0.147929	1.451701
C149	C	1.383785	-0.318642	0.896855
C150	C	1.883785	0.181358	1.396855
H151	H	1.217743	-0.318800	0.640216
H152	H	1.717743	0.181200	1.140216
H153	H	1.329091	-0.801116	0.695088
H154	H	1.829091	-0.301116	1.195088
F155	F	1.724298	-0.807890	0.300423
F156	F	2.224298	-0.307890	0.800423
F157	F	1.312226	-0.695242	0.711860
F158	F	1.812226	-0.195242	1.211860
H159	H	1.396412	-0.953240	0.627972
H160	H	1.896412	-0.453240	1.127972
F161	F	1.724220	-0.695194	0.300401
F162	F	2.224220	-0.195194	0.800401
F163	F	0.792172	-0.318818	0.640266
F164	F	1.292172	0.181182	1.140266
H165	H	0.919174	-0.191115	0.384440
H166	H	1.419174	0.308885	0.884440
H167	H	1.396043	-0.450887	0.627847
H168	H	1.896043	0.049113	1.127847
F169	F	1.657100	-0.182691	1.119916
F170	F	2.157100	0.317309	1.619916
H171	H	1.640075	-0.549905	0.384280
H172	H	2.140075	-0.049905	0.884280
F173	F	1.383883	-0.318588	1.233081
F174	F	1.883883	0.181412	1.733081
H175	H	0.919138	-0.379552	0.761924
H176	H	1.419138	0.120448	1.261924
H177	H	1.118244	-0.191094	0.384429
H178	H	1.618244	0.308906	0.884429
F179	F	1.245046	-0.387624	1.119796
F180	F	1.745046	0.112376	1.619796
H181	H	1.639979	-0.450855	0.384249
H182	H	2.139979	0.049145	0.884249
H183	H	1.640251	-0.191104	0.907121
H184	H	2.140251	0.308896	1.407121
H185	H	1.118204	-0.379538	0.761897
H186	H	1.618204	0.120462	1.261897
H187	H	1.261790	-0.379302	0.907021
H188	H	1.761790	0.120698	1.407021
H189	H	1.640358	-0.953201	0.384362
H190	H	2.140358	-0.453201	0.884362
H191	H	1.640424	-1.052267	0.384394
H192	H	2.140424	-0.552267	0.884394
H193	H	1.396121	-0.549953	0.627886
H194	H	1.896121	-0.049953	1.127886
H195	H	1.383751	-0.318659	0.807510
H196	H	1.883751	0.181341	1.307510
F197	F	1.379665	-1.059118	0.644764
F198	F	1.879665	-0.559118	1.144764
