data_functionalizedCrystal
_audit_creation_method	'MofGen! by Chris Wilmer'
_symmetry_space_group_name_H-M	'P1'
_symmetry_Int_Tables_number	1
_symmetry_cell_setting	triclinic
loop_
_symmetry_equiv_pos_as_xyz
  x,y,z
_cell_length_a	12.827893
_cell_length_b	12.645330
_cell_length_c	12.827885
_cell_angle_alpha	89.968887
_cell_angle_beta	89.980918
_cell_angle_gamma	90.012807
loop_
_atom_site_label
_atom_site_type_symbol
_atom_site_fract_x
_atom_site_fract_y
_atom_site_fract_z
Zn1	Zn	1.597690	-0.421983	-0.590834
Zn2	Zn	2.097690	0.078017	-0.090834
Zn3	Zn	1.597592	-0.599284	-0.416090
Zn4	Zn	2.097592	-0.099284	0.083910
Zn5	Zn	1.422931	-0.422036	-0.416108
Zn6	Zn	1.922931	0.077964	0.083892
Zn7	Zn	1.422925	-0.599206	-0.590791
Zn8	Zn	1.922925	-0.099206	-0.090791
O9	O	1.510284	-0.510627	-0.503456
O10	O	2.010284	-0.010627	-0.003456
O11	O	1.743913	-0.445514	-0.567664
O12	O	2.243913	0.054486	-0.067664
O13	O	1.574385	-0.575826	-0.269856
O14	O	2.074385	-0.075826	0.230144
O15	O	1.446156	-0.273681	-0.439311
O16	O	1.946156	0.226319	0.060689
O17	O	1.743841	-0.575776	-0.439281
O18	O	2.243841	-0.075776	0.060719
O19	O	1.574551	-0.273643	-0.567682
O20	O	2.074551	0.226357	-0.067682
O21	O	1.446062	-0.445603	-0.269869
O22	O	1.946062	0.054397	0.230131
O23	O	1.276694	-0.445527	-0.439269
O24	O	1.776694	0.054473	0.060731
O25	O	1.446146	-0.575642	-0.737032
O26	O	1.946146	-0.075642	-0.237032
O27	O	1.276689	-0.575693	-0.567608
O28	O	1.776689	-0.075693	-0.067608
O29	O	1.574545	-0.445438	-0.737064
O30	O	2.074545	0.054562	-0.237064
O31	O	1.574379	-0.747621	-0.439239
O32	O	2.074379	-0.247621	0.060761
O33	O	1.446051	-0.747563	-0.567591
O34	O	1.946051	-0.247563	-0.067591
C35	C	1.238774	-0.510608	-0.503437
C36	C	1.738774	-0.010608	-0.003437
C37	C	1.122621	-0.510625	-0.503453
C38	C	1.622621	-0.010625	-0.003453
C39	C	0.950817	-0.575152	-0.566877
C40	C	1.450817	-0.075152	-0.066877
C41	C	1.070868	-0.575136	-0.566861
C42	C	1.570868	-0.075136	-0.066861
C43	C	1.510232	-0.786057	-0.503431
C44	C	2.010232	-0.286057	-0.003431
C45	C	1.510305	-0.903887	-0.503455
C46	C	2.010305	-0.403887	-0.003455
C47	C	1.590906	-1.071443	-0.422545
C48	C	2.090906	-0.571443	0.077455
C49	C	1.591169	-0.948883	-0.422743
C50	C	2.091169	-0.448883	0.077257
C51	C	1.540172	-0.948261	-0.613609
C52	C	2.040172	-0.448261	-0.113609
C53	C	1.540811	-1.070859	-0.613179
C54	C	2.040811	-0.570859	-0.113179
C55	C	1.399806	-1.071217	-0.475298
C56	C	1.899806	-0.571217	0.024702
C57	C	1.400335	-0.948613	-0.472827
C58	C	1.900335	-0.448613	0.027173
C59	C	1.782854	-0.510648	-0.503475
C60	C	2.282854	-0.010648	-0.003475
C61	C	1.899007	-0.510656	-0.503484
C62	C	2.399007	-0.010656	-0.003484
C63	C	1.510355	-0.510525	-0.776026
C64	C	2.010355	-0.010525	-0.276026
C65	C	1.510386	-0.510482	-0.892179
C66	C	2.010386	-0.010482	-0.392179
C67	C	1.510365	-0.234122	-0.503503
C68	C	2.010365	0.265878	-0.003503
C69	C	1.510400	-0.116292	-0.503524
C70	C	2.010400	0.383708	-0.003524
C71	C	1.573929	-0.446040	-0.943980
C72	C	2.073929	0.053960	-0.443980
C73	C	1.573961	-0.445994	-1.064030
C74	C	2.073961	0.054006	-0.564030
C75	C	1.510274	-0.510652	-0.231946
C76	C	2.010274	-0.010652	0.268054
C77	C	1.510446	-0.510397	-0.115793
C78	C	2.010446	-0.010397	0.384207
H79	H	1.115423	-0.630348	-0.621140
H80	H	1.615423	-0.130348	-0.121140
H81	H	1.456045	-0.565575	-1.071253
H82	H	1.956045	-0.065575	-0.571253
F83	F	1.064395	-0.438441	-0.432514
F84	F	1.564395	0.061559	0.067486
F85	F	1.645076	-0.373884	-1.122252
F86	F	2.145076	0.126116	-0.622252
H87	H	1.572482	-0.918886	-0.341066
H88	H	2.072482	-0.418886	0.158934
F89	F	1.439303	-0.582547	-0.950376
F90	F	1.939303	-0.082547	-0.450376
F91	F	1.644985	-0.373948	-0.885783
F92	F	2.144985	0.126052	-0.385783
F93	F	0.957193	-0.438470	-0.432521
F94	F	1.457193	0.061530	0.067479
H95	H	1.621650	-1.099370	-0.637089
H96	H	2.121650	-0.599370	-0.137089
H97	H	1.572454	-1.101002	-0.340629
H98	H	2.072454	-0.601002	0.159371
H99	H	1.673082	-0.919473	-0.441413
H100	H	2.173082	-0.419473	0.058587
H101	H	1.672380	-1.102172	-0.441006
H102	H	2.172380	-0.602172	0.058994
H103	H	1.483320	-0.919111	-0.675560
H104	H	1.983320	-0.419111	-0.175560
F105	F	0.892632	-0.647357	-0.637821
F106	F	1.392632	-0.147357	-0.137821
F107	F	1.467488	-1.109635	-0.694721
F108	F	1.967488	-0.609635	-0.194721
H109	H	1.620097	-0.917471	-0.637917
H110	H	2.120097	-0.417471	-0.137917
H111	H	1.372646	-1.102232	-0.396373
H112	H	1.872646	-0.602232	0.103627
H113	H	1.377816	-0.919622	-0.391763
H114	H	1.877816	-0.419622	0.108237
H115	H	1.337116	-0.917994	-0.527483
H116	H	1.837116	-0.417994	-0.027483
H117	H	1.339822	-1.100220	-0.534277
H118	H	1.839822	-0.600220	-0.034277
