data_functionalizedCrystal
_audit_creation_method	'MofGen! by Chris Wilmer'
_symmetry_space_group_name_H-M	'P1'
_symmetry_Int_Tables_number	1
_symmetry_cell_setting	triclinic
loop_
_symmetry_equiv_pos_as_xyz
  x,y,z
_cell_length_a	10.654543
_cell_length_b	7.681481
_cell_length_c	8.559649
_cell_angle_alpha	85.069100
_cell_angle_beta	77.130419
_cell_angle_gamma	95.783706
loop_
_atom_site_label
_atom_site_type_symbol
_atom_site_fract_x
_atom_site_fract_y
_atom_site_fract_z
O1	O	-1.631392	0.146234	-0.239095
O2	O	-1.263701	0.146279	-0.260470
O3	O	-1.479941	0.146251	-0.017538
O4	O	-1.415153	0.146262	-0.482027
O5	O	-1.506563	-0.146610	0.012431
O6	O	-1.290323	-0.146582	-0.230501
O7	O	-1.658014	-0.146627	-0.209126
Zn8	Zn	-1.478396	-0.193103	-0.215055
Zn9	Zn	-1.443320	0.192755	-0.254541
O10	O	-1.441775	-0.146599	-0.452058
C11	C	-1.230375	-0.000146	-0.243919
C12	C	-1.091414	-0.000129	-0.239233
C13	C	-0.997153	-0.000128	-0.382265
C14	C	-0.866591	-0.000154	-0.377848
C15	C	-0.924563	-0.000175	-0.087356
C16	C	-1.055124	-0.000161	-0.091773
N17	N	-1.502343	-0.456440	-0.188106
C18	C	-0.691337	-0.000189	-0.225686
C19	C	-0.830290	-0.000169	-0.230399
C20	C	-1.498161	-0.000177	0.056922
C21	C	-1.512775	-0.000169	0.234140
N22	N	-1.419383	0.456092	-0.281477
C23	C	-1.423554	-0.000167	-0.526518
C24	C	-1.408939	-0.000163	-0.703737
H25	H	-1.026696	-0.000115	-0.502335
H26	H	-1.587041	-0.531657	-0.092809
H27	H	-0.789847	-0.000157	-0.494319
H28	H	-1.131878	-0.000167	0.024709
O29	O	-0.885422	-0.000197	0.071686
H30	H	-0.778797	-0.000190	0.050730
O31	O	-1.307182	-0.444305	-0.407693
H32	H	-1.310278	-0.300668	-0.404167
O33	O	-1.645358	-0.000212	0.343277
H34	H	-1.687602	0.119140	0.307718
H35	H	-1.308860	-0.000157	0.213871
