data_functionalizedCrystal
_audit_creation_method	'MofGen! by Chris Wilmer'
_symmetry_space_group_name_H-M	'P1'
_symmetry_Int_Tables_number	1
_symmetry_cell_setting	triclinic
loop_
_symmetry_equiv_pos_as_xyz
  x,y,z
_cell_length_a	12.827893
_cell_length_b	12.594516
_cell_length_c	12.827885
_cell_angle_alpha	89.971598
_cell_angle_beta	90.019272
_cell_angle_gamma	89.973108
loop_
_atom_site_label
_atom_site_type_symbol
_atom_site_fract_x
_atom_site_fract_y
_atom_site_fract_z
Zn1	Zn	1.597587	0.423686	0.590859
Zn2	Zn	1.597447	0.601702	0.416123
Zn3	Zn	1.422829	0.423738	0.416132
Zn4	Zn	1.422779	0.601623	0.590823
O5	O	1.510161	0.512687	0.503484
O6	O	1.743805	0.447311	0.567691
O7	O	1.574245	0.578150	0.269888
O8	O	1.446090	0.274786	0.439329
O9	O	1.743701	0.578099	0.439313
O10	O	1.574485	0.274747	0.567700
O11	O	1.445954	0.447401	0.269895
O12	O	1.276586	0.447324	0.439294
O13	O	1.446006	0.577965	0.737064
O14	O	1.276550	0.578016	0.567639
O15	O	1.574437	0.447235	0.737090
O16	O	1.574197	0.750637	0.439279
O17	O	1.445870	0.750580	0.567630
C18	C	1.238651	0.512668	0.503464
C19	C	1.122497	0.512685	0.503481
C20	C	1.510041	0.789229	0.503472
C21	C	1.510086	0.907534	0.503502
C22	C	1.070764	0.448082	0.567105
C23	C	0.950713	0.448098	0.567123
C24	C	1.440269	0.976794	0.573263
C25	C	1.414794	1.047663	0.477907
C26	C	1.535618	1.047464	0.598873
C27	C	1.484561	0.976844	0.408096
C28	C	1.605429	0.976639	0.529126
C29	C	1.579990	1.047476	0.433705
C30	C	1.782731	0.512708	0.503505
C31	C	1.898884	0.512717	0.503514
C32	C	1.510232	0.512585	0.776055
C33	C	1.510262	0.512542	0.892208
C34	C	1.510263	1.235067	0.503518
C35	C	1.510189	1.116761	0.503528
C36	C	1.510150	0.512712	0.231974
C37	C	1.510322	0.512456	0.115822
C38	C	1.573820	0.447840	0.944006
C39	C	1.573853	0.447793	1.064056
H40	H	1.115349	0.392757	0.621559
H41	H	1.557172	1.078485	0.679517
F42	F	1.439198	0.584871	1.057609
F43	F	1.439162	0.584898	0.950408
H44	H	1.685991	0.945422	0.550823
F45	F	1.362985	0.936225	0.650263
F46	F	0.892565	0.375808	0.638329
H47	H	1.628207	0.392477	0.899475
F48	F	1.657222	1.087787	0.356524
H49	H	0.943367	0.568035	0.449046
F50	F	1.064227	0.584991	0.432293
F51	F	1.644985	0.375392	1.122275
H52	H	1.334214	1.078883	0.456256
F53	F	1.456269	0.936470	0.302658
