data_functionalizedCrystal
_audit_creation_method	'MofGen! by Chris Wilmer'
_symmetry_space_group_name_H-M	'P1'
_symmetry_Int_Tables_number	1
_symmetry_cell_setting	triclinic
loop_
_symmetry_equiv_pos_as_xyz
  x,y,z
_cell_length_a	17.699077
_cell_length_b	10.654551
_cell_length_c	16.176319
_cell_angle_alpha	89.996057
_cell_angle_beta	89.993140
_cell_angle_gamma	83.882969
loop_
_atom_site_label
_atom_site_type_symbol
_atom_site_fract_x
_atom_site_fract_y
_atom_site_fract_z
O1	O	1.005091	0.158773	-0.068730
O2	O	1.505091	0.658773	0.431270
O3	O	0.784844	0.179442	-0.068734
O4	O	1.284844	0.679442	0.431266
O5	O	0.900031	-0.013720	-0.068732
O6	O	1.400031	0.486280	0.431268
O7	O	0.889904	0.351936	-0.068732
O8	O	1.389904	0.851936	0.431268
O9	O	0.900015	-0.013733	0.068761
O10	O	1.400015	0.486267	0.568761
O11	O	0.784828	0.179430	0.068759
O12	O	1.284828	0.679430	0.568759
O13	O	1.005075	0.158761	0.068763
O14	O	1.505075	0.658761	0.568763
Cu15	Cu	0.894950	0.169094	0.081315
Cu16	Cu	1.394950	0.669094	0.581315
Cu17	Cu	0.894969	0.169109	-0.081286
Cu18	Cu	1.394969	0.669109	0.418714
O19	O	0.889888	0.351923	0.068761
O20	O	1.389888	0.851923	0.568761
C21	C	0.756634	0.178697	0.000012
C22	C	1.256634	0.678697	0.500012
C23	C	0.672602	0.176479	0.000011
C24	C	1.172602	0.676479	0.500011
C25	C	0.633119	0.175427	0.074959
C26	C	1.133119	0.675427	0.574959
C27	C	0.554163	0.173323	0.074960
C28	C	1.054163	0.673323	0.574960
C29	C	0.514691	0.172279	0.000012
C30	C	1.014691	0.672279	0.500012
C31	C	0.554179	0.173328	-0.074943
C32	C	1.054179	0.673328	0.425057
C33	C	0.633134	0.175423	-0.074943
C34	C	1.133134	0.675423	0.425057
C35	C	0.235762	0.164877	-0.074944
C36	C	0.735762	0.664877	0.425056
C37	C	0.156801	0.162785	-0.074938
C38	C	0.656801	0.662785	0.425062
C39	C	0.156791	0.162777	0.074958
C40	C	0.656791	0.662777	0.574958
C41	C	0.235746	0.164872	0.074958
C42	C	0.735746	0.664872	0.574958
C43	C	0.275228	0.165913	0.000005
C44	C	0.775228	0.665913	0.500005
C45	C	0.360841	0.168192	0.000005
C46	C	0.860841	0.668192	0.500005
C47	C	0.429078	0.170009	0.000011
C48	C	0.929078	0.670009	0.500011
C49	C	0.899279	-0.060511	0.000012
C50	C	1.399279	0.439489	0.500012
C51	C	0.897054	-0.199915	0.000007
C52	C	1.397054	0.300085	0.500007
C53	C	0.896019	-0.265402	-0.074939
C54	C	1.396019	0.234598	0.425061
C55	C	0.893922	-0.396386	-0.074936
C56	C	1.393922	0.103614	0.425064
C57	C	0.893898	-0.396385	0.074967
C58	C	1.393898	0.103615	0.574967
C59	C	0.895990	-0.265402	0.074962
C60	C	1.395990	0.234598	0.574962
C61	C	0.897083	-0.199916	-0.149895
C62	C	1.397083	0.300084	0.350105
C63	C	0.896049	-0.265403	-0.224847
C64	C	1.396049	0.234597	0.275153
C65	C	0.893952	-0.396386	-0.224844
C66	C	1.393952	0.103614	0.275156
C67	C	0.892889	-0.461883	-0.149888
C68	C	1.392889	0.038117	0.350112
C69	C	1.033285	0.159506	0.000015
C70	C	1.533285	0.659506	0.500015
C71	C	1.117318	0.161724	0.000011
C72	C	1.617318	0.661724	0.500011
C73	C	0.890640	0.398714	0.000015
C74	C	1.390640	0.898714	0.500015
C75	C	0.892865	0.538119	0.000015
C76	C	1.392865	1.038119	0.500015
N77	N	0.894942	0.169083	0.195680
N78	N	1.394942	0.669083	0.695680
N79	N	0.894983	0.169110	-0.195652
N80	N	1.394983	0.669110	0.304348
C81	C	0.945963	0.083586	0.238945
C82	C	1.445963	0.583586	0.738945
C83	C	0.945967	0.083584	0.325492
C84	C	1.445967	0.583584	0.825492
C85	C	0.894953	0.169088	0.368773
C86	C	1.394953	0.669088	0.868773
C87	C	0.843927	0.254589	0.325502
C88	C	1.343927	0.754589	0.825502
C89	C	0.843920	0.254584	0.238957
C90	C	1.343920	0.754584	0.738957
C91	C	0.843953	0.254613	0.674530
C92	C	1.343953	0.754613	1.174530
C93	C	0.843965	0.254614	0.761082
C94	C	1.343965	0.754614	1.261082
C95	C	0.946000	0.083614	0.761066
C96	C	1.446000	0.583614	1.261066
C97	C	0.945993	0.083608	0.674521
C98	C	1.445993	0.583608	1.174521
C99	C	0.894964	0.169105	0.631257
C100	C	1.394964	0.669105	1.131257
C101	C	0.894960	0.169103	0.537413
C102	C	1.394960	0.669103	1.037413
C103	C	0.894961	0.169096	0.462616
C104	C	1.394961	0.669096	0.962616
H105	H	0.522021	0.172445	0.135991
H106	H	1.022021	0.672445	0.635991
N107	N	0.890621	-0.603157	-0.149875
N108	N	1.390621	-0.103157	0.350125
H109	H	0.843285	-0.624377	-0.179301
H110	H	1.343285	-0.124377	0.320699
H111	H	0.936986	-0.644948	-0.179281
H112	H	1.436986	-0.144948	0.320719
N113	N	0.788930	0.346826	0.807763
N114	N	1.288930	0.846826	1.307763
H115	H	0.796682	0.333855	0.869154
H116	H	1.296682	0.833855	1.369154
H117	H	0.798127	0.435901	0.792628
H118	H	1.298127	0.935901	1.292628
H119	H	0.802373	0.324203	0.203731
H120	H	1.302373	0.824203	0.703731
H121	H	0.802387	0.324203	0.360746
H122	H	1.302387	0.824203	0.860746
H123	H	0.893033	-0.449722	0.135992
H124	H	1.393033	0.050278	0.635992
H125	H	0.665280	0.176282	-0.135973
H126	H	1.165280	0.676282	0.364027
H127	H	0.893102	-0.449701	-0.285873
H128	H	1.393102	0.050299	0.214127
H129	H	0.124665	0.161935	-0.135974
H130	H	0.624665	0.661935	0.364026
N131	N	0.897102	-0.194758	0.155795
N132	N	1.397102	0.305242	0.655795
H133	H	0.896115	-0.256117	0.203279
H134	H	1.396115	0.243883	0.703279
H135	H	0.944803	-0.150734	0.159060
H136	H	1.444803	0.349266	0.659060
H137	H	0.665251	0.176287	0.135991
H138	H	1.165251	0.676287	0.635991
N139	N	0.278319	0.166010	0.155795
N140	N	0.778319	0.666010	0.655795
H141	H	0.241325	0.165024	0.203276
H142	H	0.741325	0.665024	0.703276
H143	H	0.316809	0.089061	0.159060
H144	H	0.816809	0.589061	0.659060
H145	H	0.987548	0.013994	0.796300
H146	H	1.487548	0.513994	1.296300
H147	H	0.124635	0.161923	0.135989
H148	H	0.624635	0.661923	0.635989
N149	N	0.278342	0.165990	-0.155783
N150	N	0.778342	0.665990	0.344217
H151	H	0.241353	0.165013	-0.203260
H152	H	0.741353	0.665013	0.296740
H153	H	0.305375	0.244673	-0.159056
H154	H	0.805375	0.744673	0.340944
H155	H	0.987507	0.013965	0.203712
H156	H	1.487507	0.513965	0.703712
N157	N	1.001023	-0.008601	0.372145
N158	N	1.501023	0.491399	0.872145
H159	H	0.991866	-0.097726	0.357094
H160	H	1.491866	0.402274	0.857094
H161	H	1.054774	0.005909	0.357031
H162	H	1.554774	0.505909	0.857031
N163	N	1.001011	-0.008609	0.627833
N164	N	1.501011	0.491391	1.127833
H165	H	1.054803	0.005736	0.642878
H166	H	1.554803	0.505736	1.142878
H167	H	0.991764	-0.097680	0.642920
H168	H	1.491764	0.402320	1.142920
N169	N	0.511611	0.172187	-0.155782
N170	N	1.011611	0.672187	0.344218
H171	H	0.455601	0.170702	-0.144411
H172	H	0.955601	0.670702	0.355589
H173	H	0.519685	0.250372	-0.188515
H174	H	1.019685	0.750372	0.311485
N175	N	0.899350	-0.058644	-0.149898
N176	N	1.399350	0.441356	0.350102
H177	H	0.899867	-0.027092	-0.208753
H178	H	1.399867	0.472908	0.291247
H179	H	0.853012	-0.016860	-0.120440
H180	H	1.353012	0.483140	0.379560
N181	N	0.897125	-0.194755	-0.305689
N182	N	1.397125	0.305245	0.194311
H183	H	0.898591	-0.101836	-0.294321
H184	H	1.398591	0.398164	0.205679
H185	H	0.943578	-0.227934	-0.338464
H186	H	1.443578	0.272066	0.161536
N187	N	0.788914	0.346816	0.627874
N188	N	1.288914	0.846816	1.127874
H189	H	0.756601	0.400980	0.668427
H190	H	1.256601	0.900980	1.168427
H191	H	0.818167	0.402276	0.591950
H192	H	1.318167	0.902276	1.091950
