data_functionalizedCrystal
_audit_creation_method	'MofGen! by Chris Wilmer'
_symmetry_space_group_name_H-M	'P1'
_symmetry_Int_Tables_number	1
_symmetry_cell_setting	triclinic
loop_
_symmetry_equiv_pos_as_xyz
  x,y,z
_cell_length_a	21.295417
_cell_length_b	16.959455
_cell_length_c	16.959447
_cell_angle_alpha	89.976455
_cell_angle_beta	89.968373
_cell_angle_gamma	90.027526
loop_
_atom_site_label
_atom_site_type_symbol
_atom_site_fract_x
_atom_site_fract_y
_atom_site_fract_z
Zn1	Zn	-0.250669	1.208351	-0.447010
Zn2	Zn	0.249331	1.708351	0.052990
Zn3	Zn	-0.355939	1.208242	-0.314820
Zn4	Zn	0.144061	1.708242	0.185180
Zn5	Zn	-0.250682	1.076172	-0.314833
Zn6	Zn	0.249318	1.576172	0.185167
Zn7	Zn	-0.355899	1.076120	-0.446944
Zn8	Zn	0.144101	1.576120	0.053056
O9	O	-0.303297	1.142222	-0.380902
O10	O	0.196703	1.642222	0.119098
O11	O	-0.264645	1.318948	-0.429496
O12	O	0.235355	1.818948	0.070504
O13	O	-0.341999	1.190699	-0.204211
O14	O	0.158001	1.690699	0.295789
O15	O	-0.162591	1.093774	-0.332399
O16	O	0.337409	1.593774	0.167601
O17	O	-0.341986	1.318868	-0.332377
O18	O	0.158014	1.818868	0.167623
O19	O	-0.162581	1.190885	-0.429509
O20	O	0.337419	1.690885	0.070491
O21	O	-0.264667	1.093668	-0.204220
O22	O	0.235333	1.593668	0.295780
O23	O	-0.264628	0.965555	-0.332336
O24	O	0.235372	1.465555	0.167664
O25	O	-0.341917	1.093685	-0.557564
O26	O	0.158083	1.593685	-0.057564
O27	O	-0.341930	0.965516	-0.429398
O28	O	0.158070	1.465516	0.070602
O29	O	-0.264605	1.190834	-0.557612
O30	O	0.235395	1.690834	-0.057612
O31	O	-0.444023	1.190649	-0.332313
O32	O	0.055977	1.690649	0.167687
O33	O	-0.443994	1.093579	-0.429385
O34	O	0.056006	1.593579	0.070615
C35	C	-0.303277	0.936855	-0.380862
C36	C	0.196723	1.436855	0.119138
C37	C	-0.303283	0.848999	-0.380864
C38	C	0.196717	1.348999	0.119136
C39	C	-0.343529	0.477471	-0.330306
C40	C	0.156471	0.977471	0.169694
C41	C	-0.263118	0.477575	-0.431594
C42	C	0.236882	0.977575	0.068406
C43	C	-0.263107	0.560121	-0.431574
C44	C	0.236893	1.060121	0.068426
C45	C	-0.303309	0.601346	-0.380921
C46	C	0.196691	1.101346	0.119079
C47	C	-0.343521	0.560024	-0.330287
C48	C	0.156479	1.060024	0.169713
C49	C	-0.222900	0.601449	-0.482213
C50	C	0.277100	1.101449	0.017787
C51	C	-0.222889	0.684000	-0.482197
C52	C	0.277111	1.184000	0.017803
C53	C	-0.263088	0.725226	-0.431539
C54	C	0.236912	1.225226	0.068461
C55	C	-0.303301	0.683899	-0.380902
C56	C	0.196699	1.183899	0.119098
C57	C	-0.343503	0.725124	-0.330248
C58	C	0.156497	1.225124	0.169752
C59	C	-0.383714	0.683799	-0.279607
C60	C	0.116286	1.183799	0.220393
C61	C	-0.383720	0.601250	-0.279629
C62	C	0.116280	1.101250	0.220371
C63	C	-0.263081	0.807774	-0.431517
C64	C	0.236919	1.307774	0.068483
C65	C	-0.343495	0.807677	-0.330229
C66	C	0.156505	1.307677	0.169771
C67	C	-0.466849	1.142118	-0.380858
C68	C	0.033151	1.642118	0.119142
C69	C	-0.536817	1.142146	-0.380866
C70	C	-0.036817	1.642146	0.119134
C71	C	-0.569678	1.192735	-0.330372
C72	C	-0.069678	1.692735	0.169628
C73	C	-0.635421	1.192772	-0.330390
C74	C	-0.135421	1.692772	0.169610
C75	C	-0.668299	1.142206	-0.380893
C76	C	-0.168299	1.642206	0.119107
C77	C	-0.635430	1.091613	-0.431396
C78	C	-0.135430	1.591613	0.068604
C79	C	-0.569689	1.091583	-0.431382
C80	C	-0.069689	1.591583	0.068618
N81	N	-0.771562	1.073059	-0.386905
N82	N	-0.271562	1.573059	0.113095
N83	N	-0.834014	1.073090	-0.386914
N84	N	-0.334014	1.573090	0.113086
C85	C	-0.866374	1.142294	-0.380938
C86	C	-0.366374	1.642294	0.119062
N87	N	-0.833924	1.211468	-0.374939
N88	N	-0.333924	1.711468	0.125061
N89	N	-0.771467	1.211437	-0.374926
N90	N	-0.271467	1.711437	0.125074
C91	C	-0.739585	1.142233	-0.380914
C92	C	-0.239585	1.642233	0.119086
C93	C	-0.970521	1.192928	-0.330462
C94	C	-0.470521	1.692928	0.169538
C95	C	-1.036265	1.192966	-0.330485
C96	C	-0.536265	1.692966	0.169515
C97	C	-1.036273	1.091801	-0.431487
C98	C	-0.536273	1.591801	0.068513
C99	C	-0.970531	1.091769	-0.431467
C100	C	-0.470531	1.591769	0.068533
C101	C	-0.937658	1.142332	-0.380951
C102	C	-0.437658	1.642332	0.119049
C103	C	-0.139107	1.142347	-0.380963
C104	C	0.360893	1.642347	0.119037
C105	C	-0.069139	1.142401	-0.380989
C106	C	0.430861	1.642401	0.119011
C107	C	-0.303318	1.348390	-0.380942
C108	C	0.196682	1.848390	0.119058
C109	C	-0.303327	1.436246	-0.380959
C110	C	0.196673	1.936246	0.119041
C111	C	-0.303255	1.142266	-0.587070
C112	C	0.196745	1.642266	-0.087070
C113	C	-0.303238	1.142285	-0.674927
C114	C	0.196762	1.642285	-0.174927
C115	C	-0.343483	1.091713	-0.716177
C116	C	0.156517	1.591713	-0.216177
C117	C	-0.262972	1.192869	-0.716230
C118	C	0.237028	1.692869	-0.216230
C119	C	-0.262951	1.192886	-0.798776
C120	C	0.237049	1.692886	-0.298776
C121	C	-0.303196	1.142314	-0.840026
C122	C	0.196804	1.642314	-0.340026
C123	C	-0.343462	1.091727	-0.798731
C124	C	0.156538	1.591727	-0.298731
C125	C	-0.222682	1.243467	-0.840077
C126	C	0.277318	1.743467	-0.340077
C127	C	-0.222659	1.243485	-0.922628
C128	C	0.277341	1.743485	-0.422628
C129	C	-0.262908	1.192917	-0.963880
C130	C	0.237092	1.692917	-0.463880
C131	C	-0.303175	1.142328	-0.922580
C132	C	0.196825	1.642328	-0.422580
C133	C	-0.343420	1.091756	-0.963830
C134	C	0.156580	1.591756	-0.463830
C135	C	-0.383692	1.041170	-0.922531
C136	C	0.116308	1.541170	-0.422531
C137	C	-0.383710	1.041158	-0.839983
C138	C	0.116290	1.541158	-0.339983
C139	C	-0.262889	1.192929	-1.046429
C140	C	0.237111	1.692929	-0.546429
C141	C	-0.343400	1.091769	-1.046384
C142	C	0.156600	1.591769	-0.546384
C143	C	-0.303294	1.142223	-0.175535
C144	C	0.196706	1.642223	0.324465
C145	C	-0.303134	1.142357	-0.087679
C146	C	0.196866	1.642357	0.412321
H147	H	-0.376266	0.443820	-0.289073
H148	H	0.123734	0.943820	0.210927
H149	H	-0.190147	0.717640	-0.523432
H150	H	0.309853	1.217640	-0.023432
Br151	Br	-0.525069	1.261366	-0.261825
Br152	Br	-0.025069	1.761366	0.238175
H153	H	-0.416449	0.717374	-0.238369
H154	H	0.083551	1.217374	0.261631
Br155	Br	-1.080864	1.261637	-0.261960
Br156	Br	-0.580864	1.761637	0.238040
Br157	Br	-0.208519	0.863855	-0.500245
Br158	Br	0.291481	1.363855	-0.000245
Br159	Br	-0.208570	0.421628	-0.500345
Br160	Br	0.291430	0.921628	-0.000345
H161	H	-1.063042	1.050632	-0.472610
H162	H	-0.563042	1.550632	0.027390
Br163	Br	-0.168355	0.545499	-0.550967
Br164	Br	0.331645	1.045499	-0.050967
H165	H	-0.230203	1.234039	-0.682638
H166	H	0.269797	1.734039	-0.182638
H167	H	-0.662181	1.233970	-0.289273
H168	H	-0.162181	1.733970	0.210727
H169	H	-0.230096	1.234109	-1.080051
H170	H	0.269904	1.734109	-0.580051
H171	H	-0.416497	0.999974	-0.806350
H172	H	0.083503	1.499974	-0.306350
Br173	Br	-0.168027	1.312045	-0.784092
Br174	Br	0.331973	1.812045	-0.284092
H175	H	-0.662205	1.050444	-0.472517
H176	H	-0.162205	1.550444	0.027483
H177	H	-0.376231	0.841236	-0.288978
H178	H	0.123769	1.341236	0.211022
Br179	Br	-0.525088	1.022922	-0.499916
Br180	Br	-0.025088	1.522922	0.000084
Br181	Br	-0.438302	0.972533	-0.978524
Br182	Br	0.061698	1.472533	-0.478524
Br183	Br	-0.398026	1.023140	-1.102361
Br184	Br	0.101974	1.523140	-0.602361
H185	H	-0.376272	1.050530	-0.682548
H186	H	0.123728	1.550530	-0.182548
Br187	Br	-0.925905	1.261544	-0.261903
Br188	Br	-0.425905	1.761544	0.238097
H189	H	-0.943773	1.050572	-0.472580
H190	H	-0.443773	1.550572	0.027420
H191	H	-0.416457	0.567596	-0.238399
H192	H	0.083543	1.067596	0.261601
Br193	Br	-0.168021	1.312154	-0.978670
Br194	Br	0.331979	1.812154	-0.478670
