data_functionalizedCrystal
_audit_creation_method	'MofGen! by Chris Wilmer'
_symmetry_space_group_name_H-M	'P1'
_symmetry_Int_Tables_number	1
_symmetry_cell_setting	triclinic
loop_
_symmetry_equiv_pos_as_xyz
  x,y,z
_cell_length_a	16.120530
_cell_length_b	12.827893
_cell_length_c	12.827885
_cell_angle_alpha	89.975139
_cell_angle_beta	87.081295
_cell_angle_gamma	87.099296
loop_
_atom_site_label
_atom_site_type_symbol
_atom_site_fract_x
_atom_site_fract_y
_atom_site_fract_z
Zn1	Zn	1.274702	-0.497104	-0.671873
Zn2	Zn	1.274647	-0.671878	-0.497145
Zn3	Zn	1.135278	-0.488282	-0.488288
Zn4	Zn	1.135297	-0.662932	-0.662991
O5	O	1.204981	-0.580049	-0.580075
O6	O	1.391363	-0.527724	-0.656119
O7	O	1.256129	-0.647575	-0.349732
O8	O	1.153789	-0.343217	-0.512652
O9	O	1.391322	-0.656129	-0.527747
O10	O	1.256223	-0.349699	-0.647531
O11	O	1.153735	-0.512688	-0.343225
O12	O	1.018613	-0.504014	-0.504040
O13	O	1.153820	-0.640882	-0.810408
O14	O	1.018626	-0.632328	-0.632393
O15	O	1.256241	-0.519049	-0.816933
O16	O	1.256146	-0.816926	-0.519134
O17	O	1.153766	-0.810353	-0.640981
C18	C	0.988369	-0.566244	-0.566292
C19	C	0.895701	-0.560363	-0.560421
C20	C	1.204975	-0.851558	-0.580079
C21	C	1.205048	-0.967716	-0.580121
C22	C	1.205010	-0.307481	-0.580094
C23	C	1.205023	-0.191328	-0.580103
C24	C	0.726036	-0.549602	-0.549710
C25	C	0.684767	-0.610573	-0.610515
C26	C	0.590359	-0.604585	-0.604556
C27	C	0.820452	-0.555588	-0.555668
C28	C	1.422439	-0.593909	-0.593911
C29	C	1.515107	-0.599815	-0.599808
C30	C	1.205039	-0.579952	-0.852648
C31	C	1.205063	-0.579911	-0.968803
C32	C	1.255711	-0.142751	-0.646842
C33	C	1.255725	-0.022701	-0.646852
C34	C	1.154412	-0.513153	-1.017369
C35	C	1.154436	-0.513109	-1.137421
C36	C	1.204972	-0.580073	-0.308564
C37	C	1.205109	-0.579830	-0.192420
H38	H	0.720337	-0.667267	-0.667049
C39	C	0.678765	-0.473911	-0.474295
C40	C	0.735391	-0.418816	-0.419375
C41	C	0.691865	-0.349075	-0.349902
H42	H	0.644772	-0.511612	-0.426508
H43	H	0.644827	-0.426258	-0.512216
H44	H	0.769315	-0.466461	-0.381455
H45	H	0.769385	-0.381093	-0.467133
H46	H	0.657927	-0.301423	-0.387823
H47	H	0.657874	-0.386785	-0.302122
H48	H	0.730279	-0.311678	-0.312637
H49	H	1.161640	-0.144042	-0.522968
H50	H	1.248444	-0.637033	-1.016102
H51	H	1.299118	0.019086	-0.703994
C52	C	1.313419	-0.205846	-0.723144
C53	C	1.266165	-0.265451	-0.787065
C54	C	1.319296	-0.323577	-0.857378
H55	H	1.349717	-0.250840	-0.685559
H56	H	1.345210	-0.159840	-0.765084
H57	H	1.234389	-0.311451	-0.745131
H58	H	1.229870	-0.220482	-0.824674
H59	H	1.351087	-0.277571	-0.899318
H60	H	1.355591	-0.368565	-0.819784
H61	H	1.287242	-0.364018	-0.900763
H62	H	1.161646	-0.009497	-0.522985
C63	C	1.096578	-0.436780	-1.192927
C64	C	1.049839	-0.375218	-1.118913
C65	C	0.996538	-0.304881	-1.170009
H66	H	1.060214	-0.474343	-1.233195
H67	H	1.128496	-0.393246	-1.237516
H68	H	1.017923	-0.418746	-1.074342
H69	H	1.086181	-0.337632	-1.078642
H70	H	1.028456	-0.261347	-1.214598
H71	H	0.960179	-0.342453	-1.210275
H72	H	0.964825	-0.263097	-1.119799
H73	H	1.111026	-0.456036	-0.970070
C74	C	1.262797	-0.656167	-1.136666
C75	C	1.215523	-0.720117	-1.071011
C76	C	1.268635	-0.790460	-1.019635
H77	H	1.299105	-0.618607	-1.096314
H78	H	1.294576	-0.698083	-1.186710
H79	H	1.183758	-0.678207	-1.020972
H80	H	1.179217	-0.757701	-1.111336
H81	H	1.300414	-0.832375	-1.069680
H82	H	1.304940	-0.752890	-0.979290
H83	H	1.236567	-0.833864	-0.975090
