data_functionalizedCrystal
_audit_creation_method	'MofGen! by Chris Wilmer'
_symmetry_space_group_name_H-M	'P1'
_symmetry_Int_Tables_number	1
_symmetry_cell_setting	triclinic
loop_
_symmetry_equiv_pos_as_xyz
  x,y,z
_cell_length_a	12.759401
_cell_length_b	18.050589
_cell_length_c	12.759401
_cell_angle_alpha	90.008602
_cell_angle_beta	90.003120
_cell_angle_gamma	90.028382
loop_
_atom_site_label
_atom_site_type_symbol
_atom_site_fract_x
_atom_site_fract_y
_atom_site_fract_z
Zn1	Zn	1.605997	-0.295774	0.593988
Zn2	Zn	1.605897	-0.419936	0.418311
Zn3	Zn	1.430346	-0.295765	0.418327
Zn4	Zn	1.430246	-0.419927	0.593952
O5	O	1.518122	-0.357851	0.506145
O6	O	1.753005	-0.312252	0.570692
O7	O	1.582610	-0.403465	0.271292
O8	O	1.453730	-0.191842	0.441651
O9	O	1.752931	-0.403474	0.441623
O10	O	1.582780	-0.191848	0.570708
O11	O	1.453634	-0.312237	0.271304
O12	O	1.283312	-0.312228	0.441616
O13	O	1.453560	-0.403457	0.740978
O14	O	1.283239	-0.403449	0.570647
O15	O	1.582683	-0.312243	0.741004
O16	O	1.582513	-0.523860	0.441588
O17	O	1.453463	-0.523853	0.570631
C18	C	1.245154	-0.357837	0.506130
C19	C	1.128378	-0.357849	0.506149
C20	C	1.073505	-0.405424	0.573224
C21	C	0.963781	-0.405433	0.573236
C22	C	0.963812	-0.310291	0.439088
C23	C	1.073534	-0.310278	0.439082
C24	C	1.128349	-0.452994	0.640291
C25	C	1.073476	-0.500574	0.707371
C26	C	0.963752	-0.500583	0.707382
C27	C	0.908901	-0.453013	0.640314
C28	C	1.517995	-0.550803	0.506127
C29	C	1.518037	-0.633348	0.506155
C30	C	1.447928	-0.832822	0.576304
C31	C	1.422340	-0.882245	0.480436
C32	C	1.518140	-0.784479	0.506168
C33	C	1.543780	-0.882138	0.602048
C34	C	1.518238	-0.930464	0.506190
C35	C	1.492501	-0.832814	0.410249
C36	C	1.613986	-0.832703	0.531926
C37	C	1.588434	-0.882103	0.435992
C38	C	1.518081	-0.700381	0.506157
C39	C	1.518297	-1.014560	0.506190
C40	C	1.792155	-0.357865	0.506159
C41	C	1.908932	-0.357871	0.506166
C42	C	1.518122	-0.357850	0.780178
C43	C	1.518122	-0.357850	0.896954
C44	C	1.518278	-0.164145	0.506185
C45	C	1.518344	-0.081599	0.506202
C46	C	1.585351	-0.310365	0.951832
C47	C	1.585346	-0.310368	1.061556
C48	C	1.450881	-0.405347	1.061516
C49	C	1.450881	-0.405340	0.951793
C50	C	1.652592	-0.262875	0.896993
C51	C	1.719827	-0.215386	0.951870
C52	C	1.719823	-0.215389	1.061594
C53	C	1.652583	-0.262881	1.116441
C54	C	1.518115	-0.357866	1.233177
C55	C	1.518117	-0.357860	1.116401
H56	H	0.819556	-0.453018	0.640338
H57	H	1.647851	-0.903606	0.376622
C58	C	1.723393	-0.803278	0.561386
H59	H	1.750304	-0.774320	0.505334
H60	H	1.718312	-0.773566	0.622629
H61	H	1.769068	-0.843800	0.574359
H62	H	1.565428	-0.903803	0.683123
H63	H	1.652605	-0.262868	0.807650
H64	H	1.396121	-0.443995	0.907111
H65	H	1.774565	-0.176716	0.907207
H66	H	1.217691	-0.452993	0.640287
C67	C	1.133903	-0.257950	0.365302
H68	H	1.207104	-0.264751	0.374914
H69	H	1.115913	-0.268738	0.294684
H70	H	1.115947	-0.208068	0.380809
H71	H	1.118143	-0.539299	0.761982
H72	H	1.388465	-0.811182	0.635531
H73	H	0.919077	-0.539319	0.762009
H74	H	1.774561	-0.176717	1.106272
C75	C	0.903478	-0.257974	0.365313
H76	H	0.830273	-0.264800	0.374917
H77	H	0.921483	-0.208090	0.380806
H78	H	0.921448	-0.268768	0.294692
C79	C	1.312905	-0.911646	0.451008
H80	H	1.263062	-0.894778	0.500899
H81	H	1.294241	-0.894033	0.383386
H82	H	1.313893	-0.964270	0.450607
H83	H	1.470760	-0.811238	0.329152
C84	C	1.652580	-0.262884	1.237135
H85	H	1.702254	-0.227804	1.261965
H86	H	1.584793	-0.250041	1.261960
H87	H	1.670717	-0.310815	1.261938
C88	C	1.376936	-0.457590	1.121844
H89	H	1.386573	-0.450799	1.195050
H90	H	1.306352	-0.446721	1.103867
H91	H	1.392282	-0.507490	1.103844
