data_functionalizedCrystal
_audit_creation_method	'MofGen! by Chris Wilmer'
_symmetry_space_group_name_H-M	'P1'
_symmetry_Int_Tables_number	1
_symmetry_cell_setting	triclinic
loop_
_symmetry_equiv_pos_as_xyz
  x,y,z
_cell_length_a	12.645331
_cell_length_b	16.625546
_cell_length_c	16.625539
_cell_angle_alpha	90.028532
_cell_angle_beta	90.017266
_cell_angle_gamma	90.021447
loop_
_atom_site_label
_atom_site_type_symbol
_atom_site_fract_x
_atom_site_fract_y
_atom_site_fract_z
Zn1	Zn	1.620639	-0.321037	0.455902
Zn2	Zn	2.120639	0.178963	0.955902
Zn3	Zn	1.620523	-0.455876	0.321064
Zn4	Zn	2.120523	0.044124	0.821064
Zn5	Zn	1.443371	-0.321058	0.321082
Zn6	Zn	1.943371	0.178942	0.821082
Zn7	Zn	1.443321	-0.455829	0.455854
Zn8	Zn	1.943321	0.044171	0.955854
O9	O	1.531964	-0.388450	0.388476
O10	O	2.031964	0.111550	0.888476
O11	O	1.768971	-0.338934	0.438028
O12	O	2.268971	0.161066	0.938028
O13	O	1.596996	-0.438020	0.208234
O14	O	2.096996	0.061980	0.708234
O15	O	1.466955	-0.208223	0.338994
O16	O	1.966955	0.291777	0.838994
O17	O	1.768886	-0.438000	0.338964
O18	O	2.268886	0.062000	0.838964
O19	O	1.597194	-0.208207	0.438046
O20	O	2.097194	0.291793	0.938046
O21	O	1.466843	-0.338971	0.208247
O22	O	1.966843	0.161029	0.708247
O23	O	1.295017	-0.338925	0.338947
O24	O	1.795017	0.161075	0.838947
O25	O	1.466871	-0.437920	0.568693
O26	O	1.966871	0.062080	1.068693
O27	O	1.294980	-0.437941	0.437963
O28	O	1.794980	0.062059	0.937963
O29	O	1.597146	-0.338889	0.568728
O30	O	2.097146	0.161111	1.068728
O31	O	1.596947	-0.568702	0.338917
O32	O	2.096947	-0.068702	0.838917
O33	O	1.466758	-0.568668	0.437946
O34	O	1.966758	-0.068668	0.937946
C35	C	1.531863	-0.597941	0.388442
C36	C	2.031863	-0.097941	0.888442
C37	C	1.531917	-0.687562	0.388454
C38	C	2.031917	-0.187562	0.888454
C39	C	1.256534	-0.388431	0.388452
C40	C	1.756534	0.111569	0.888452
C41	C	1.138704	-0.388442	0.388461
C42	C	1.638704	0.111558	0.888461
C43	C	1.532102	-1.015738	0.388538
C44	C	2.032102	-0.515738	0.888538
C45	C	1.532047	-0.924429	0.388517
C46	C	2.032047	-0.424429	0.888517
C47	C	1.532009	-0.851653	0.388496
C48	C	2.032009	-0.351653	0.888496
C49	C	1.531956	-0.760338	0.388476
C50	C	2.031956	-0.260338	0.888476
C51	C	0.971127	-0.325865	0.326514
C52	C	1.471127	0.174135	0.826514
C53	C	1.093687	-0.326027	0.326241
C54	C	1.593687	0.173973	0.826241
C55	C	1.094177	-0.473380	0.365243
C56	C	1.594177	0.026620	0.865243
C57	C	0.971579	-0.473038	0.364820
C58	C	1.471579	0.026962	0.864820
C59	C	0.971546	-0.366890	0.473867
C60	C	1.471546	0.133110	0.973867
C61	C	1.094152	-0.364992	0.473392
C62	C	1.594152	0.135008	0.973392
C63	C	1.808469	-0.388470	0.388499
C64	C	2.308469	0.111530	0.888499
C65	C	1.926299	-0.388478	0.388510
C66	C	2.426299	0.111522	0.888510
C67	C	1.532016	-0.388397	0.598785
C68	C	2.032016	0.111603	1.098785
C69	C	1.532038	-0.388374	0.688406
C70	C	2.032038	0.111626	1.188406
C71	C	1.532093	-0.178141	0.388527
C72	C	2.032093	0.321859	0.888527
C73	C	1.532148	-0.088520	0.388549
C74	C	2.032148	0.411480	0.888549
C75	C	1.531973	-0.388445	0.178985
C76	C	2.031973	0.111555	0.678985
C77	C	1.532156	-0.388240	0.089364
C78	C	2.032156	0.111760	0.589364
C79	C	1.532055	-0.388356	0.761188
C80	C	2.032055	0.111644	1.261188
C81	C	1.532080	-0.388326	0.852497
C82	C	2.032080	0.111674	1.352497
C83	C	1.532105	-0.388298	0.925273
C84	C	2.032105	0.111702	1.425273
C85	C	1.532131	-0.388269	1.016588
C86	C	2.032131	0.111731	1.516588
H87	H	0.941668	-0.262691	0.340912
H88	H	1.441668	0.237309	0.840912
H89	H	0.940654	-0.306034	0.494981
H90	H	1.440654	0.193966	0.994981
H91	H	1.124799	-0.407270	0.522055
H92	H	1.624799	0.092730	1.022055
N93	N	1.130670	-0.286585	0.495371
N94	N	1.630670	0.213415	0.995371
N95	N	1.184945	-0.277335	0.557543
N96	N	1.684945	0.222665	1.057543
H97	H	1.210738	-0.221959	0.573065
H98	H	1.710738	0.278041	1.073065
H99	H	1.122971	-0.340295	0.262988
H100	H	1.622971	0.159705	0.762988
H101	H	0.940286	-0.339975	0.263633
H102	H	1.440286	0.160025	0.763633
H103	H	0.942939	-0.491346	0.302420
H104	H	1.442939	0.008654	0.802420
N105	N	0.934385	-0.533548	0.418992
N106	N	1.434385	-0.033548	0.918992
N107	N	0.998975	-0.575900	0.456985
N108	N	1.498975	-0.075900	0.956985
H109	H	0.972713	-0.618638	0.495239
H110	H	1.472713	-0.118638	0.995239
N111	N	1.130757	-0.533463	0.420115
N112	N	1.630757	-0.033463	0.920115
N113	N	1.190196	-0.514306	0.477081
N114	N	1.690196	-0.014306	0.977081
H115	H	1.216032	-0.556738	0.515837
H116	H	1.716032	-0.056738	1.015837
N117	N	1.132645	-0.496736	0.287802
N118	N	1.632645	0.003264	0.787802
N119	N	1.192840	-0.450974	0.249579
N120	N	1.692840	0.049026	0.749579
H121	H	1.220007	-0.467464	0.194884
H122	H	1.720007	0.032536	0.694884
N123	N	0.935198	-0.424117	0.531804
N124	N	1.435198	0.075883	1.031804
N125	N	0.876227	-0.480578	0.510434
N126	N	1.376227	0.019422	1.010434
H127	H	0.850559	-0.521002	0.551345
H128	H	1.350559	-0.021002	1.051345
H129	H	1.123793	-0.263042	0.340795
H130	H	1.623793	0.236958	0.840795
