data_functionalizedCrystal
_audit_creation_method	'MofGen! by Chris Wilmer'
_symmetry_space_group_name_H-M	'P1'
_symmetry_Int_Tables_number	1
_symmetry_cell_setting	triclinic
loop_
_symmetry_equiv_pos_as_xyz
  x,y,z
_cell_length_a	15.995350
_cell_length_b	17.038272
_cell_length_c	15.072220
_cell_angle_alpha	89.999202
_cell_angle_beta	89.991149
_cell_angle_gamma	87.301966
loop_
_atom_site_label
_atom_site_type_symbol
_atom_site_fract_x
_atom_site_fract_y
_atom_site_fract_z
O1	O	1.118174	0.100774	-0.073708
O2	O	0.875285	0.113219	-0.073726
O3	O	0.995286	-0.006819	-0.073710
O4	O	0.998173	0.220812	-0.073724
O5	O	0.995255	-0.006813	0.073855
O6	O	0.875254	0.113226	0.073839
O7	O	1.118143	0.100781	0.073857
Zn8	Zn	0.996694	0.107004	0.097277
Zn9	Zn	0.996735	0.106995	-0.097146
O10	O	0.998142	0.220819	0.073841
C11	C	0.844038	0.112708	0.000054
C12	C	0.750978	0.111165	0.000047
C13	C	0.412836	0.105626	0.000066
C14	C	0.454180	0.020137	0.000400
C15	C	0.550981	0.021680	0.000062
C16	C	0.580592	0.108374	0.000057
C17	C	0.542527	0.150536	-0.084209
C18	C	0.445738	0.148388	-0.084273
C19	C	0.445489	0.150162	0.083536
C20	C	0.542433	0.150142	0.084644
C21	C	0.675401	0.109931	0.000049
C22	C	0.318027	0.104071	0.000068
C23	C	0.992645	-0.035945	0.000072
C24	C	0.984810	-0.122740	0.000071
C25	C	1.056739	-0.172836	0.000078
C26	C	1.049373	-0.254389	0.000069
C27	C	0.970077	-0.285843	0.000060
C28	C	0.898143	-0.235740	0.000051
C29	C	0.905510	-0.154189	0.000053
C30	C	0.944051	-0.531607	0.000046
C31	C	0.936689	-0.613164	0.000046
C32	C	1.087920	-0.631807	0.000062
C33	C	1.095280	-0.550254	0.000070
C34	C	1.023346	-0.500158	0.000056
C35	C	0.962546	-0.369202	0.000053
C36	C	1.030878	-0.416801	0.000056
C37	C	1.149390	0.101292	0.000075
C38	C	1.242450	0.102834	0.000076
C39	C	1.000784	0.249944	0.000057
C40	C	1.008618	0.336739	0.000052
N41	N	0.996671	0.107010	0.229966
N42	N	0.996763	0.106984	-0.229835
C43	C	0.996733	0.106992	0.589168
C44	C	0.932276	0.171007	0.551552
C45	C	0.932451	0.171241	0.448726
C46	C	0.996702	0.107001	0.410963
C47	C	1.085336	0.124819	0.448260
C48	C	1.084981	0.125274	0.551118
C49	C	0.973321	0.024970	0.551271
C50	C	0.971355	0.025517	0.448408
C51	C	0.996689	0.107004	0.310250
C52	C	0.996751	0.106991	0.689881
H53	H	0.568828	0.121246	-0.146918
H54	H	1.105400	0.183956	0.422489
C55	C	0.887461	0.001834	0.586341
C56	C	0.873292	-0.007144	0.686819
C57	C	0.787429	-0.030270	0.721889
C58	C	0.715737	-0.044417	0.656482
C59	C	0.729904	-0.035439	0.555998
C60	C	0.815766	-0.012314	0.520928
H61	H	0.926365	0.003329	0.735243
H62	H	0.776942	-0.036916	0.796274
H63	H	0.652176	-0.061536	0.682443
H64	H	0.676831	-0.045912	0.507574
H65	H	0.826254	-0.005668	0.446543
C66	C	0.953044	0.252776	0.586446
C67	C	0.898649	0.325697	0.558900
C68	C	0.919420	0.407465	0.593794
C69	C	0.994586	0.416312	0.656235
C70	C	1.048986	0.343388	0.683784
C71	C	1.028215	0.261621	0.648890
H72	H	0.843002	0.319150	0.512674
H73	H	0.879149	0.461447	0.573400
H74	H	1.009962	0.476841	0.682066
H75	H	1.104633	0.349935	0.730010
H76	H	1.068486	0.207638	0.669284
C77	C	0.875319	-0.403799	0.000050
C78	C	0.813966	-0.384893	-0.076579
C79	C	0.726738	-0.419491	-0.076586
C80	C	0.700864	-0.472995	0.000036
C81	C	0.762219	-0.491904	0.076671
C82	C	0.849447	-0.457306	0.076678
H83	H	0.833118	-0.345284	-0.133305
H84	H	0.681320	-0.405493	-0.133317
H85	H	0.636293	-0.498606	0.000031
H86	H	0.743067	-0.531513	0.133397
H87	H	0.894865	-0.471304	0.133408
H88	H	1.134687	0.079434	0.423797
H89	H	0.872114	-0.638770	0.000053
C90	C	0.424279	-0.025724	-0.080773
C91	C	0.330400	-0.038730	-0.093359
C92	C	0.300412	-0.084538	-0.174533
C93	C	0.364304	-0.117341	-0.243121
C94	C	0.458188	-0.104336	-0.230537
C95	C	0.488176	-0.058528	-0.149363
H96	H	0.283098	-0.014446	-0.042585
H97	H	0.230912	-0.094165	-0.183849
H98	H	0.342105	-0.151252	-0.303211
H99	H	0.505490	-0.128620	-0.281312
H100	H	0.557676	-0.048901	-0.140048
H101	H	0.418217	0.213193	0.084103
C102	C	0.883235	0.007242	0.415479
C103	C	0.834495	0.066008	0.354876
C104	C	0.746375	0.047735	0.321941
C105	C	0.706995	-0.029304	0.349609
C106	C	0.755735	-0.088075	0.410216
C107	C	0.843855	-0.069802	0.443151
H108	H	0.863647	0.123042	0.334391
H109	H	0.710295	0.091242	0.277076
H110	H	0.641763	-0.042831	0.325229
H111	H	0.726583	-0.145109	0.430701
H112	H	0.879935	-0.113309	0.488016
H113	H	1.014806	-0.024351	0.422706
H114	H	0.948006	0.232108	0.424110
C115	C	0.576735	0.108641	0.168746
C116	C	0.626599	0.154640	0.237114
C117	C	0.661096	0.113177	0.321156
C118	C	0.645728	0.025715	0.336831
C119	C	0.595861	-0.020289	0.268461
C120	C	0.561364	0.021174	0.184419
H121	H	0.637978	0.219389	0.225512
H122	H	0.698011	0.147233	0.371768
H123	H	0.671265	-0.004978	0.399045
H124	H	0.584482	-0.085037	0.280063
H125	H	0.524449	-0.012881	0.133807
C126	C	0.415055	0.112410	0.169829
C127	C	0.320642	0.108390	0.188177
C128	C	0.290211	0.070630	0.274466
C129	C	0.354192	0.036888	0.342406
C130	C	0.448611	0.040907	0.324060
C131	C	0.479043	0.078668	0.237771
H132	H	0.273274	0.133369	0.137882
H133	H	0.220315	0.067655	0.288047
H134	H	0.331665	0.008935	0.406282
H135	H	0.495980	0.015929	0.374355
H136	H	0.548938	0.081643	0.224191
C137	C	1.128498	-0.309492	0.000078
C138	C	1.191869	-0.305972	0.076716
C139	C	1.271000	-0.361074	0.076724
C140	C	1.286759	-0.419695	0.000094
C141	C	1.223387	-0.423218	-0.076549
C142	C	1.144256	-0.368116	-0.076557
H143	H	1.180204	-0.262574	0.133447
H144	H	1.317912	-0.358466	0.133460
H145	H	1.345337	-0.460485	0.000100
H146	H	1.235052	-0.466615	-0.133280
H147	H	1.097344	-0.370724	-0.133294
H148	H	1.121310	-0.147233	0.000090
C149	C	0.843237	0.156932	0.584959
C150	C	0.772914	0.142054	0.518127
C151	C	0.683864	0.127986	0.551520
C152	C	0.665135	0.128798	0.651746
C153	C	0.735460	0.143676	0.718585
C154	C	0.824511	0.157744	0.685191
H155	H	0.786776	0.141453	0.443928
H156	H	0.631805	0.116972	0.502042
H157	H	0.599215	0.118384	0.676466
H158	H	0.721598	0.144277	0.792783
H159	H	0.876570	0.168758	0.734670
H160	H	0.425253	0.117636	-0.147261
C161	C	0.810915	-0.270333	0.000039
C162	C	0.749567	-0.251427	-0.076594
C163	C	0.662336	-0.286017	-0.076603
C164	C	0.636452	-0.339513	0.000022
C165	C	0.697801	-0.358423	0.076662
C166	C	0.785033	-0.323833	0.076670
H167	H	0.768726	-0.211823	-0.133322
H168	H	0.616921	-0.272018	-0.133337
H169	H	0.571878	-0.365119	0.000015
H170	H	0.678642	-0.398026	0.133389
H171	H	0.830447	-0.337831	0.133404
C172	C	1.111648	0.206085	0.583519
C173	C	1.190017	0.211926	0.642041
C174	C	1.216682	0.292739	0.674437
C175	C	1.164978	0.367711	0.648310
C176	C	1.086604	0.361872	0.589785
C177	C	1.059939	0.281059	0.557389
H178	H	1.228295	0.156425	0.661385
H179	H	1.274700	0.297061	0.717761
H180	H	1.184717	0.427534	0.672291
H181	H	1.048325	0.417373	0.570442
H182	H	1.001921	0.276737	0.514065
C183	C	1.036719	-0.039390	0.584139
C184	C	1.109377	-0.017679	0.645057
C185	C	1.172777	-0.082031	0.677932
C186	C	1.163519	-0.168096	0.649887
C187	C	1.090858	-0.189812	0.588965
C188	C	1.027458	-0.125459	0.556091
H189	H	1.116233	0.046035	0.665821
H190	H	1.226565	-0.065955	0.723030
H191	H	1.210451	-0.215734	0.674223
H192	H	1.084002	-0.253526	0.568202
H193	H	0.973670	-0.141535	0.510992
C194	C	0.569257	0.235554	0.091514
C195	C	0.626535	0.269020	0.020117
C196	C	0.653354	0.354437	0.026977
C197	C	0.622895	0.406389	0.105235
C198	C	0.565614	0.372924	0.176638
C199	C	0.538795	0.287507	0.169777
H200	H	0.649085	0.230562	-0.037819
H201	H	0.695757	0.379210	-0.025880
H202	H	0.642749	0.469620	0.110313
H203	H	0.543064	0.411383	0.234573
H204	H	0.496391	0.262734	0.222635
C205	C	1.167043	-0.686914	0.000068
C206	C	1.230421	-0.683396	0.076699
C207	C	1.309547	-0.738503	0.076700
C208	C	1.325296	-0.797127	0.000071
C209	C	1.261917	-0.800648	-0.076565
C210	C	1.182790	-0.745541	-0.076567
H211	H	1.218764	-0.639997	0.133429
H212	H	1.356465	-0.735897	0.133432
H213	H	1.383871	-0.837921	0.000073
H214	H	1.273573	-0.844047	-0.133296
H215	H	1.135872	-0.748147	-0.133299
H216	H	0.577036	-0.011462	0.060467
C217	C	0.826388	-0.099079	0.000048
C218	C	0.763013	-0.102600	-0.076586
C219	C	0.683889	-0.047490	-0.076597
C220	C	0.668140	0.011141	0.000026
C221	C	0.731516	0.014665	0.076665
C222	C	0.810641	-0.040445	0.076676
H223	H	0.774670	-0.146004	-0.133311
H224	H	0.636973	-0.050099	-0.133330
H225	H	0.609567	0.051937	0.000018
H226	H	0.719859	0.058070	0.133391
H227	H	0.857556	-0.037836	0.133410
H228	H	0.561189	0.214228	-0.087345
H229	H	0.433211	-0.014032	0.060831
H230	H	0.576474	-0.011692	-0.060445
H231	H	1.159850	-0.524651	0.000077
H232	H	0.885477	-0.490828	0.000035
C233	C	0.408200	0.233172	-0.089458
C234	C	0.351325	0.258405	-0.167834
C235	C	0.313789	0.343186	-0.173028
C236	C	0.333128	0.402734	-0.099846
C237	C	0.390005	0.377502	-0.021465
C238	C	0.427541	0.292721	-0.016271
H239	H	0.337007	0.214323	-0.222012
H240	H	0.271685	0.361864	-0.231051
H241	H	0.305341	0.465493	-0.103691
H242	H	0.404323	0.421584	0.032714
H243	H	0.469646	0.274044	0.041752
H244	H	1.095440	-0.391187	0.000044
H245	H	0.866755	0.160625	0.423511
H246	H	1.134752	0.080487	0.575999
