data_functionalizedCrystal
_audit_creation_method	'MofGen! by Chris Wilmer'
_symmetry_space_group_name_H-M	'P1'
_symmetry_Int_Tables_number	1
_symmetry_cell_setting	triclinic
loop_
_symmetry_equiv_pos_as_xyz
  x,y,z
_cell_length_a	23.532407
_cell_length_b	22.610064
_cell_length_c	16.109301
_cell_angle_alpha	90.002647
_cell_angle_beta	96.844921
_cell_angle_gamma	90.002839
loop_
_atom_site_label
_atom_site_type_symbol
_atom_site_fract_x
_atom_site_fract_y
_atom_site_fract_z
O1	O	0.755636	0.049113	-0.100914
O2	O	0.589826	0.049130	-0.115517
O3	O	0.677286	0.049115	0.012851
O4	O	0.668176	0.049128	-0.229283
O5	O	0.677271	-0.049254	0.012832
O6	O	0.589811	-0.049239	-0.115536
O7	O	0.755620	-0.049257	-0.100933
Zn8	Zn	0.672713	-0.064866	-0.108238
Zn9	Zn	0.672734	0.064740	-0.108213
O10	O	0.668161	-0.049241	-0.229301
C11	C	0.568601	-0.000052	-0.115155
C12	C	0.505380	-0.000046	-0.114037
C13	C	0.106531	-0.000069	-0.182990
C14	C	0.047127	-0.000072	-0.181951
O15	O	0.010619	-0.000090	-0.245872
N16	N	0.024220	-0.000076	-0.105636
C17	C	0.060719	-0.000081	-0.030355
O18	O	0.035780	-0.000085	0.034652
C19	C	0.120122	-0.000082	-0.031395
C20	C	0.143027	-0.000072	-0.107715
C21	C	0.129436	-0.000060	-0.259304
C22	C	0.188836	-0.000055	-0.260342
C23	C	0.225331	-0.000059	-0.185066
C24	C	0.202426	-0.000068	-0.108753
C25	C	0.156621	-0.000091	0.043886
C26	C	0.216027	-0.000092	0.042840
C27	C	0.238932	-0.000083	-0.033480
C28	C	0.298322	-0.000067	-0.034516
N29	N	0.321229	-0.000063	-0.110831
C30	C	0.284734	-0.000060	-0.186106
C31	C	-0.064031	-0.000081	-0.028178
C32	C	-0.123433	-0.000076	-0.027138
C33	C	-0.137021	-0.000069	-0.178734
C34	C	-0.077618	-0.000069	-0.179774
C35	C	-0.041123	-0.000078	-0.104493
C36	C	0.409479	-0.000049	-0.188281
C37	C	0.468885	-0.000042	-0.189312
C38	C	0.482468	-0.000053	-0.037716
C39	C	0.423067	-0.000057	-0.036684
C40	C	0.386574	-0.000057	-0.111973
O41	O	0.334865	-0.000051	0.029371
O42	O	0.309682	-0.000064	-0.251102
N43	N	0.672703	-0.153318	-0.108254
C44	C	0.711462	-0.561967	-0.051380
C45	C	0.711465	-0.623887	-0.051374
O46	O	0.744395	-0.655911	-0.003030
N47	N	0.672733	-0.654856	-0.108196
C48	C	0.633991	-0.623902	-0.165021
O49	O	0.601047	-0.655929	-0.213352
C50	C	0.633986	-0.561983	-0.165023
C51	C	0.672725	-0.531017	-0.108203
C52	C	0.750197	-0.531001	0.005436
C53	C	0.750195	-0.469085	0.005428
C54	C	0.711458	-0.438135	-0.051395
C55	C	0.672723	-0.469101	-0.108210
C56	C	0.595242	-0.531030	-0.221844
C57	C	0.595240	-0.469107	-0.221840
C58	C	0.633979	-0.438141	-0.165020
C59	C	0.633983	-0.376236	-0.165041
N60	N	0.672715	-0.345267	-0.108219
C61	C	0.711453	-0.376217	-0.051396
C62	C	0.634005	-0.753935	-0.165013
C63	C	0.634012	-0.815853	-0.165016
C64	C	0.711485	-0.815834	-0.051368
C65	C	0.711480	-0.753915	-0.051369
C66	C	0.672737	-0.722966	-0.108191
C67	C	0.711445	-0.246189	-0.051416
C68	C	0.711441	-0.184268	-0.051431
C69	C	0.633966	-0.184293	-0.165076
C70	C	0.633972	-0.246208	-0.165065
C71	C	0.672714	-0.277155	-0.108228
O72	O	0.601068	-0.344172	-0.213357
O73	O	0.744387	-0.344182	-0.003067
C74	C	0.776845	-0.000073	-0.101295
C75	C	0.840067	-0.000075	-0.102414
C76	C	0.676909	-0.000070	0.043814
C77	C	0.675803	-0.000071	0.136100
N78	N	0.672748	0.153192	-0.108190
C79	C	0.668537	-0.000055	-0.260264
C80	C	0.669644	-0.000050	-0.352551
C81	C	0.725127	-0.000067	0.358760
C82	C	0.724083	-0.000062	0.445473
C83	C	0.620315	-0.000053	0.424782
C84	C	0.621360	-0.000054	0.338072
C85	C	0.673768	-0.000063	0.305063
C86	C	0.671679	-0.000058	0.478486
C87	C	0.670547	-0.000052	0.572503
C88	C	0.674900	-0.000068	0.211040
H89	H	0.487530	-0.000034	-0.251464
H90	H	0.137983	-0.000099	0.106033
H91	H	0.404418	-0.000055	0.025462
H92	H	-0.142076	-0.000074	0.035010
H93	H	0.577647	-0.000046	0.451669
Br94	Br	0.764024	-0.288178	0.025721
Br95	Br	0.551652	-0.000041	0.265191
H96	H	0.245739	-0.000100	0.104144
H97	H	0.781738	-0.443876	0.051698
Br98	Br	0.532008	-0.000059	0.064438
Br99	Br	0.359961	-0.000051	-0.290459
Br100	Br	0.581397	-0.142280	-0.242193
H101	H	0.602457	-0.728740	-0.211292
H102	H	0.563689	-0.443911	-0.268111
Br103	Br	0.802776	-0.572993	0.082564
H104	H	0.207479	-0.000048	-0.322489
H105	H	0.742988	-0.159058	-0.005161
Br106	Br	0.764056	-0.711896	0.025746
Br107	Br	0.796251	-0.000080	0.313966
Br108	Br	0.079917	-0.000055	-0.361478
Br109	Br	0.764058	-0.857850	0.025750
H110	H	0.602433	-0.271421	-0.211341
H111	H	0.563698	-0.556234	-0.268111
Br112	Br	0.581446	-0.857871	-0.242145
Br113	Br	0.793789	-0.000062	0.518345
H114	H	-0.058974	-0.000065	-0.241920
H115	H	-0.166747	-0.000068	-0.240028
H116	H	-0.034320	-0.000083	0.033129
