data_functionalizedCrystal
_audit_creation_method	'MofGen! by Chris Wilmer'
_symmetry_space_group_name_H-M	'P1'
_symmetry_Int_Tables_number	1
_symmetry_cell_setting	triclinic
loop_
_symmetry_equiv_pos_as_xyz
  x,y,z
_cell_length_a	9.065215
_cell_length_b	13.596369
_cell_length_c	9.065218
_cell_angle_alpha	90.001486
_cell_angle_beta	94.984709
_cell_angle_gamma	90.005439
loop_
_atom_site_label
_atom_site_type_symbol
_atom_site_fract_x
_atom_site_fract_y
_atom_site_fract_z
O1	O	1.960408	0.081776	-0.216327
O2	O	2.293741	0.415109	0.117007
O3	O	2.627075	0.748442	0.450340
O4	O	1.531123	0.081780	-0.234078
O5	O	1.864456	0.415113	0.099256
O6	O	2.197789	0.748446	0.432589
O7	O	1.754639	0.081776	-0.010560
O8	O	2.087972	0.415109	0.322774
O9	O	2.421305	0.748442	0.656107
O10	O	1.736892	0.081780	-0.439845
O11	O	2.070225	0.415113	-0.106511
O12	O	2.403559	0.748446	0.226822
O13	O	1.754611	-0.081807	-0.010572
O14	O	2.087944	0.251526	0.322761
O15	O	2.421277	0.584859	0.656095
O16	O	1.531095	-0.081803	-0.234090
O17	O	1.864428	0.251530	0.099243
O18	O	2.197762	0.584863	0.432577
O19	O	1.960380	-0.081807	-0.216339
O20	O	2.293714	0.251526	0.116994
O21	O	2.627047	0.584859	0.450328
Zn22	Zn	1.745733	-0.107778	-0.225216
Zn23	Zn	2.079067	0.225556	0.108117
Zn24	Zn	2.412400	0.558889	0.441450
Zn25	Zn	1.745770	0.107750	-0.225200
Zn26	Zn	2.079103	0.441083	0.108133
Zn27	Zn	2.412436	0.774417	0.441466
O28	O	1.736864	-0.081803	-0.439857
O29	O	2.070198	0.251530	-0.106524
O30	O	2.403531	0.584863	0.226810
C31	C	1.476122	-0.000011	-0.232379
C32	C	1.809455	0.333322	0.100955
C33	C	2.142789	0.666655	0.434288
C34	C	1.312279	-0.000010	-0.227281
C35	C	1.645612	0.333324	0.106053
C36	C	1.978946	0.666657	0.439386
N37	N	1.745719	-0.254869	-0.225227
N38	N	2.079052	0.078464	0.108107
N39	N	2.412386	0.411797	0.441440
C40	C	1.745726	-0.343867	-0.225230
C41	C	2.079060	-0.010534	0.108103
C42	C	2.412393	0.322799	0.441437
C43	C	1.745741	-0.455519	-0.225220
C44	C	2.079074	-0.122185	0.108113
C45	C	2.412407	0.211148	0.441447
C46	C	1.745760	-0.544509	-0.225203
C47	C	2.079093	-0.211176	0.108130
C48	C	2.412426	0.122157	0.441463
C49	C	1.745776	-0.656168	-0.225195
C50	C	2.079110	-0.322834	0.108138
C51	C	2.412443	0.010499	0.441472
C52	C	2.015381	-0.000014	-0.218038
C53	C	2.348714	0.333319	0.115296
C54	C	2.682047	0.666652	0.448629
C55	C	2.179224	-0.000009	-0.223136
C56	C	2.512557	0.333324	0.110198
C57	C	2.845891	0.666657	0.443531
C58	C	1.752919	-0.000014	0.044421
C59	C	2.086252	0.333319	0.377754
C60	C	2.419586	0.666652	0.711087
C61	C	1.747819	-0.000010	0.208264
C62	C	2.081153	0.333324	0.541597
C63	C	2.414486	0.666657	0.874930
N64	N	1.745795	0.254842	-0.225179
N65	N	2.079129	0.588175	0.108155
N66	N	2.412462	0.921508	0.441488
C67	C	1.738584	-0.000011	-0.494837
C68	C	2.071917	0.333322	-0.161504
C69	C	2.405250	0.666655	0.171829
C70	C	1.743683	-0.000009	-0.658680
C71	C	2.077017	0.333324	-0.325347
C72	C	2.410350	0.666657	0.007986
