data_functionalizedCrystal
_audit_creation_method	'MofGen! by Chris Wilmer'
_symmetry_space_group_name_H-M	'P1'
_symmetry_Int_Tables_number	1
_symmetry_cell_setting	triclinic
loop_
_symmetry_equiv_pos_as_xyz
  x,y,z
_cell_length_a	21.295418
_cell_length_b	25.639233
_cell_length_c	21.295418
_cell_angle_alpha	90.016707
_cell_angle_beta	89.955800
_cell_angle_gamma	89.967403
loop_
_atom_site_label
_atom_site_type_symbol
_atom_site_fract_x
_atom_site_fract_y
_atom_site_fract_z
Zn1	Zn	0.962296	-0.295895	0.250420
Zn2	Zn	0.962223	-0.208463	0.355671
Zn3	Zn	0.857039	-0.208443	0.250448
Zn4	Zn	0.856992	-0.295837	0.355684
O5	O	0.909638	-0.252160	0.303056
O6	O	1.050375	-0.284330	0.264364
O7	O	0.948259	-0.135295	0.341718
O8	O	0.871052	-0.220061	0.162355
O9	O	1.050322	-0.220093	0.341691
O10	O	0.948384	-0.284311	0.162334
O11	O	0.870981	-0.135281	0.264412
O12	O	0.768944	-0.220004	0.264426
O13	O	0.870972	-0.369010	0.341715
O14	O	0.768909	-0.284211	0.341742
O15	O	0.948338	-0.369053	0.264378
O16	O	0.948213	-0.220037	0.443762
O17	O	0.870901	-0.284230	0.443772
C18	C	0.746086	-0.252099	0.303089
C19	C	0.676118	-0.252086	0.303118
C20	C	0.909658	-0.388533	0.303045
C21	C	0.909666	-0.446647	0.303040
C22	C	0.643250	-0.285469	0.343430
C23	C	0.577507	-0.285492	0.343415
C24	C	0.544635	-0.252124	0.303094
C25	C	0.577511	-0.218738	0.262774
C26	C	0.643253	-0.218720	0.262786
N27	N	0.441370	-0.206394	0.298166
N28	N	0.378918	-0.206413	0.298158
C29	C	0.346561	-0.252179	0.303054
N30	N	0.379013	-0.297926	0.307970
N31	N	0.441471	-0.297906	0.307981
C32	C	0.473350	-0.252141	0.303076
C33	C	0.242407	-0.285590	0.343351
C34	C	0.176663	-0.285615	0.343331
C35	C	0.176669	-0.218856	0.262694
C36	C	0.242411	-0.218836	0.262710
C37	C	0.275276	-0.252203	0.303042
C38	C	0.950002	-0.807038	0.262651
C39	C	0.950010	-0.861642	0.262634
O40	O	0.984254	-0.889903	0.228367
N41	N	0.909736	-0.888929	0.302892
C42	C	0.869447	-0.861609	0.343167
O43	O	0.835191	-0.889833	0.377408
C44	C	0.869436	-0.807006	0.343181
C45	C	0.909718	-0.779722	0.302924
C46	C	0.990279	-0.779754	0.222397
C47	C	0.990272	-0.725153	0.222415
C48	C	0.949988	-0.697837	0.262688
C49	C	0.909710	-0.725121	0.302942
C50	C	0.829145	-0.779687	0.383452
C51	C	0.829138	-0.725080	0.383461
C52	C	0.869419	-0.697795	0.343204
C53	C	0.869419	-0.643204	0.343233
N54	N	0.909693	-0.615917	0.302974
C55	C	0.949977	-0.643233	0.262701
C56	C	0.869471	-0.976280	0.343134
C57	C	0.869484	-1.030882	0.343124
C58	C	0.950047	-1.030912	0.262590
C59	C	0.950036	-0.976308	0.262603
C60	C	0.909745	-0.948993	0.302875
C61	C	0.949960	-0.528568	0.262744
C62	C	0.949951	-0.473963	0.262767
C63	C	0.869387	-0.473938	0.343299
C64	C	0.869398	-0.528539	0.343278
C65	C	0.909686	-0.555853	0.302995
O66	O	0.835191	-0.614909	0.377480
O67	O	0.984222	-0.615003	0.228460
C68	C	1.073828	-0.252220	0.303023
C69	C	1.143796	-0.252246	0.303009
C70	C	0.909561	-0.252140	0.466607
C71	C	0.909586	-0.252150	0.536576
C72	C	0.909654	-0.116317	0.303021
C73	C	0.909767	-0.058203	0.302849
C74	C	0.909731	-0.252190	0.138866
C75	C	0.909771	-0.252203	0.068897
C76	C	0.949982	-0.285682	1.035969
C77	C	0.949964	-0.285674	0.970227
C78	C	0.909723	-0.252192	0.937415
C79	C	0.869510	-0.218707	0.970351
C80	C	0.869534	-0.218713	1.036092
N81	N	0.854587	-0.248115	0.834260
N82	N	0.854566	-0.248112	0.771808
C83	C	0.909649	-0.252173	0.739340
N84	N	0.964756	-0.256245	0.771683
N85	N	0.964776	-0.256250	0.834140
C86	C	0.909693	-0.252182	0.866130
C87	C	0.949844	-0.285644	0.635127
C88	C	0.949826	-0.285632	0.569383
C89	C	0.869366	-0.218668	0.569508
C90	C	0.869389	-0.218678	0.635251
C91	C	0.909627	-0.252168	0.668056
H92	H	0.670004	-0.312639	0.376271
H93	H	0.982755	-0.451750	0.229985
H94	H	0.836604	-0.191405	0.542793
Br95	Br	0.132055	-0.330929	0.398040
Br96	Br	0.814827	-1.067904	0.397773
Br97	Br	1.004633	-0.565628	0.208069
H98	H	0.836590	-0.451688	0.376090
Br99	Br	0.814811	-0.173242	0.679942
H100	H	0.796344	-0.801892	0.416233
H101	H	0.149905	-0.191689	0.229861
Br102	Br	1.004719	-1.067994	0.207933
H103	H	0.550740	-0.312679	0.376241
H104	H	0.796320	-0.702842	0.416250
Br105	Br	1.044939	-0.688133	0.167774
Br106	Br	1.004457	-0.331089	0.679652
H107	H	0.550743	-0.191570	0.229943
Br108	Br	0.814789	-0.939215	0.397798
H109	H	0.836603	-0.550755	0.376064
H110	H	0.982752	-0.312948	1.062676
H111	H	0.269167	-0.312762	0.376189
Br112	Br	1.044966	-0.816815	0.167741
Br113	Br	0.814901	-0.173264	0.925822
Br114	Br	0.687863	-0.173412	0.208071
Br115	Br	0.287021	-0.173528	0.207998
Br116	Br	1.004541	-0.331111	0.925529
H117	H	0.982836	-0.954097	0.229821
H118	H	0.836788	-0.191450	1.062902
H119	H	0.982574	-0.312893	0.542573
