data_functionalizedCrystal
_audit_creation_method	'MofGen! by Chris Wilmer'
_symmetry_space_group_name_H-M	'P1'
_symmetry_Int_Tables_number	1
_symmetry_cell_setting	triclinic
loop_
_symmetry_equiv_pos_as_xyz
  x,y,z
_cell_length_a	12.837943
_cell_length_b	15.944551
_cell_length_c	11.295483
_cell_angle_alpha	94.094426
_cell_angle_beta	85.461227
_cell_angle_gamma	89.163839
loop_
_atom_site_label
_atom_site_type_symbol
_atom_site_fract_x
_atom_site_fract_y
_atom_site_fract_z
O1	O	1.382450	0.213265	-0.099009
O2	O	1.080644	0.202478	-0.099016
O3	O	1.239788	0.086257	-0.099002
O4	O	1.223306	0.329487	-0.099023
O5	O	1.225810	0.096448	0.099048
O6	O	1.066666	0.212669	0.099034
O7	O	1.368472	0.223456	0.099040
Cu8	Cu	1.216293	0.218993	0.117121
Cu9	Cu	1.232823	0.206941	-0.117096
O10	O	1.209328	0.339677	0.099026
C11	C	1.035034	0.203930	0.000008
C12	C	0.919957	0.193062	0.000006
C13	C	0.679007	0.323714	0.000011
C14	C	0.570881	0.313507	0.000010
C15	C	0.595575	0.162440	0.000011
C16	C	0.703701	0.172648	0.000012
C17	C	0.745413	0.253287	0.000011
C18	C	0.853542	0.263494	0.000003
C19	C	0.878234	0.112428	0.000013
C20	C	0.770107	0.102221	0.000011
C21	C	1.232115	0.060004	0.000023
C22	C	1.230063	-0.033407	0.000024
C23	C	1.126515	-0.256548	0.000005
C24	C	1.167708	-0.308694	0.097657
C25	C	1.226352	-0.204430	0.000015
C26	C	1.181513	-0.318722	-0.097604
C27	C	1.222761	-0.369631	0.000001
C28	C	1.267567	-0.255341	0.097747
C29	C	1.281364	-0.265369	-0.097602
C30	C	1.322627	-0.317491	0.000073
C31	C	1.228418	-0.109262	0.000024
C32	C	1.220702	-0.464796	0.000000
C33	C	1.414082	0.222005	0.000014
C34	C	1.529160	0.232872	0.000008
C35	C	1.217002	0.365931	-0.000001
C36	C	1.219054	0.459340	-0.000010
N37	N	1.204674	0.227469	0.281856
N38	N	1.244451	0.198459	-0.281831
C39	C	1.328092	0.137394	0.531156
C40	C	1.319318	0.143806	0.655819
C41	C	1.178349	0.246701	0.655847
C42	C	1.187123	0.240289	0.531184
C43	C	1.261997	0.185634	0.468843
C44	C	1.270775	0.179227	0.344178
C45	C	1.129802	0.282117	0.344208
C46	C	1.121028	0.288530	0.468871
H47	H	0.561586	0.096792	0.000111
H48	H	0.887502	0.329155	0.000004
C49	C	0.724893	0.412417	0.000002
N50	N	0.759453	0.479230	-0.000005
C51	C	1.410457	0.077278	0.462579
N52	N	1.472496	0.031997	0.410928
C53	C	1.102789	-0.334689	0.209181
N54	N	1.053886	-0.354267	0.293177
H55	H	1.373138	0.104523	0.706551
H56	H	1.331744	0.134727	0.293421
C57	C	1.095969	0.306795	0.724443
N58	N	1.033913	0.352052	0.776111
H59	H	1.075986	0.321401	0.293458
H60	H	0.736129	0.036567	0.000026
H61	H	0.932315	0.055081	0.000004
C62	C	1.038663	0.348640	0.537460
N63	N	0.976623	0.393916	0.589120
H64	H	1.043639	-0.229864	0.000101
C65	C	0.497837	0.390983	0.000012
N66	N	0.442819	0.449341	0.000015
C67	C	1.316682	-0.218033	0.209403
N68	N	1.353670	-0.189930	0.293504
H69	H	1.405566	-0.344011	0.000130
H70	H	1.329382	-0.246112	-0.180161
C71	C	1.132315	-0.356161	-0.209132
N72	N	1.095253	-0.384356	-0.293131
