data_functionalizedCrystal
_audit_creation_method	'MofGen! by Chris Wilmer'
_symmetry_space_group_name_H-M	'P1'
_symmetry_Int_Tables_number	1
_symmetry_cell_setting	triclinic
loop_
_symmetry_equiv_pos_as_xyz
  x,y,z
_cell_length_a	29.839131
_cell_length_b	19.121141
_cell_length_c	19.120904
_cell_angle_alpha	89.913687
_cell_angle_beta	92.409150
_cell_angle_gamma	92.405260
loop_
_atom_site_label
_atom_site_type_symbol
_atom_site_fract_x
_atom_site_fract_y
_atom_site_fract_z
Zn1	Zn	-0.219764	-1.054747	-0.442071
Zn2	Zn	-0.291826	-1.059635	-0.324826
Zn3	Zn	-0.213373	-0.942519	-0.319852
Zn4	Zn	-0.291523	-0.937447	-0.437025
O5	O	-0.254122	-0.998587	-0.380944
O6	O	-0.232125	-1.153500	-0.430712
O7	O	-0.278872	-1.048268	-0.226062
O8	O	-0.151357	-0.957484	-0.336095
O9	O	-0.285069	-1.157091	-0.344573
O10	O	-0.156052	-1.039937	-0.425889
O11	O	-0.221233	-0.962223	-0.222408
O12	O	-0.220939	-0.843742	-0.331202
O13	O	-0.284552	-0.948838	-0.535799
O14	O	-0.278355	-0.840015	-0.417288
O15	O	-0.231831	-1.035019	-0.539506
O16	O	-0.354650	-1.043349	-0.339680
O17	O	-0.354428	-0.953578	-0.422111
C18	C	-0.248921	-0.816442	-0.373158
C19	C	-0.246707	-0.738518	-0.369844
C20	C	-0.275602	-0.699991	-0.413037
C21	C	-0.273516	-0.626773	-0.409926
C22	C	-0.242537	-0.592085	-0.363618
C23	C	-0.213639	-0.630618	-0.320423
C24	C	-0.215723	-0.703834	-0.323538
C25	C	-0.234745	-0.371116	-0.351978
C26	C	-0.232663	-0.297895	-0.348865
C27	C	-0.292540	-0.294056	-0.438369
C28	C	-0.294624	-0.367273	-0.441477
C29	C	-0.265724	-0.405800	-0.398285
C30	C	-0.240405	-0.517245	-0.360436
C31	C	-0.267854	-0.480638	-0.401471
C32	C	-0.370840	-0.998462	-0.380904
C33	C	-0.420775	-0.998471	-0.380913
C34	C	-0.730530	-1.045410	-0.338091
C35	C	-0.918206	-1.045495	-0.338121
O36	O	-0.942562	-1.085304	-0.301682
N37	N	-0.941569	-0.998730	-0.381003
C38	C	-0.918011	-0.951944	-0.423883
O39	O	-0.942190	-0.912174	-0.460362
C40	C	-0.730336	-0.951862	-0.423855
C41	C	-0.706975	-0.998625	-0.380966
C42	C	-0.707168	-1.092169	-0.295205
C43	C	-0.660252	-1.092145	-0.295195
C44	C	-0.636697	-1.045361	-0.338070
C45	C	-0.660058	-0.998601	-0.380956
C46	C	-0.706779	-0.905080	-0.466738
C47	C	-0.659857	-0.905065	-0.466729
C48	C	-0.636496	-0.951828	-0.423840
C49	C	-0.589587	-0.951792	-0.423821
N50	N	-0.566223	-0.998557	-0.380939
C51	C	-0.589778	-1.045341	-0.338064
C52	C	-1.016543	-0.951989	-0.423893
C53	C	-1.063462	-0.952008	-0.423899
C54	C	-1.063653	-1.045560	-0.338139
C55	C	-1.016734	-1.045537	-0.338130
C56	C	-0.993180	-0.998754	-0.381012
C57	C	-0.491250	-1.045286	-0.338046
C58	C	-0.444330	-1.045256	-0.338037
C59	C	-0.444143	-0.951706	-0.423800
C60	C	-0.491059	-0.951734	-0.423806
C61	C	-0.514612	-0.998530	-0.380927
O62	O	-0.565202	-0.912009	-0.460247
O63	O	-0.565592	-1.085115	-0.301602
C64	C	-0.777446	-1.045434	-0.338101
C65	C	-0.800807	-0.998674	-0.380986
C66	C	-0.777252	-0.951890	-0.423861
C67	C	-0.847726	-0.998693	-0.380992
C68	C	-0.871281	-1.045478	-0.338117
C69	C	-0.847917	-1.092242	-0.295236
C70	C	-0.801001	-1.092218	-0.295225
C71	C	-0.800616	-0.905125	-0.466742
C72	C	-0.847532	-0.905153	-0.466748
C73	C	-0.871087	-0.951937	-0.423873
C74	C	-0.136949	-0.998731	-0.381000
C75	C	-0.087017	-0.998792	-0.381024
C76	C	-0.258871	-0.990818	-0.563801
C77	C	-0.260894	-0.987507	-0.641724
C78	C	-0.259341	-0.181444	-0.388752
C79	C	-0.261559	-0.259368	-0.392058
C80	C	-0.234397	-1.030818	-0.680264
C81	C	-0.236297	-1.027699	-0.753480
C82	C	-0.264696	-0.981271	-0.788156
C83	C	-0.291194	-0.937954	-0.749611
C84	C	-0.289292	-0.941071	-0.676396
C85	C	-0.271810	-0.969613	-1.009122
C86	C	-0.273711	-0.966502	-1.082343
C87	C	-0.218813	-1.056246	-1.086207
C88	C	-0.216915	-1.059361	-1.012991
C89	C	-0.243412	-1.016042	-0.974452
C90	C	-0.266639	-0.978083	-0.862995
C91	C	-0.241466	-1.019227	-0.899614
C92	C	-0.249360	-1.006367	-0.198799
C93	C	-0.247214	-1.009813	-0.120883
H94	H	-0.293075	-0.508884	-0.439177
H95	H	-0.316068	-0.262680	-0.473534
O96	O	-0.199246	-0.260476	-0.298922
H97	H	-0.179496	-0.299565	-0.269416
H98	H	-0.211273	-1.068627	-0.652037
H99	H	-0.211216	-0.402476	-0.316803
O100	O	-0.635058	-1.142587	-0.248940
H101	H	-0.615482	-1.176883	-0.281868
O102	O	-0.180235	-0.593210	-0.270458
H103	H	-0.183647	-0.535826	-0.275535
O104	O	-0.297270	-0.928011	-0.900400
H105	H	-0.315377	-0.898412	-0.861304
O106	O	-0.304763	-0.585222	-0.456377
H107	H	-0.326689	-0.621645	-0.489045
H108	H	-0.640682	-0.866969	-0.501651
H109	H	-0.296838	-0.928692	-1.110573
O110	O	-0.207008	-0.479819	-0.310472
H111	H	-0.184052	-0.445143	-0.340486
O112	O	-0.207718	-1.074416	-0.795047
H113	H	-0.229711	-1.108633	-0.829926
O114	O	-0.300362	-0.922858	-0.967557
H115	H	-0.320423	-0.890043	-1.003972
O116	O	-0.328033	-0.404688	-0.491429
H117	H	-0.347772	-0.365596	-0.520948
H118	H	-0.997369	-0.913890	-0.458814
O119	O	-0.419134	-1.095705	-0.291786
H120	H	-0.395968	-1.065870	-0.254740
O121	O	-0.516643	-1.095766	-0.291798
H122	H	-0.539813	-1.130096	-0.324732
H123	H	-0.314315	-0.900149	-0.777849
O124	O	-0.317869	-0.894356	-0.634822
H125	H	-0.295872	-0.860132	-0.599956
O126	O	-0.732570	-1.142629	-0.248953
H127	H	-0.708436	-1.175131	-0.219132
O128	O	-0.309013	-0.737394	-0.462994
H129	H	-0.290814	-0.769260	-0.500135
O130	O	-0.186287	-1.109442	-0.975594
H131	H	-0.151050	-1.096866	-0.989142
O132	O	-0.210840	-1.069308	-0.862216
H133	H	-0.186224	-1.039382	-0.827521
H134	H	-0.997716	-1.083616	-0.303206
H135	H	-0.192191	-0.735202	-0.288370
H136	H	-1.082840	-1.083654	-0.303228
O137	O	-1.088657	-0.901567	-0.470153
H138	H	-1.064391	-0.869040	-0.499969
H139	H	-0.197241	-1.091512	-1.117593
O140	O	-0.731970	-0.854646	-0.513003
H141	H	-0.707701	-0.822123	-0.542818
O142	O	-0.516261	-0.901297	-0.470062
H143	H	-0.491997	-0.868764	-0.499876
H144	H	-0.424957	-0.913613	-0.458707
O145	O	-0.775806	-1.142662	-0.248974
H146	H	-0.800075	-1.175199	-0.219172
H147	H	-0.867104	-1.130334	-0.260323
H148	H	-0.781441	-0.867028	-0.501658
O149	O	-0.872728	-0.854713	-0.513011
H150	H	-0.848462	-0.822185	-0.542826
