data_functionalizedCrystal
_audit_creation_method	'MofGen! by Chris Wilmer'
_symmetry_space_group_name_H-M	'P1'
_symmetry_Int_Tables_number	1
_symmetry_cell_setting	triclinic
loop_
_symmetry_equiv_pos_as_xyz
  x,y,z
_cell_length_a	10.723024
_cell_length_b	23.532407
_cell_length_c	9.798715
_cell_angle_alpha	89.992208
_cell_angle_beta	90.004017
_cell_angle_gamma	96.341727
loop_
_atom_site_label
_atom_site_type_symbol
_atom_site_fract_x
_atom_site_fract_y
_atom_site_fract_z
O1	O	-1.654699	0.079871	-0.113518
O2	O	-1.291309	0.087516	-0.113519
O3	O	-1.483962	0.000833	-0.113493
O4	O	-1.462046	0.166554	-0.113543
O5	O	-1.483948	0.000833	0.113489
O6	O	-1.291294	0.087516	0.113463
O7	O	-1.654685	0.079871	0.113465
Zn8	Zn	-1.472987	0.083693	0.149502
Zn9	Zn	-1.473006	0.083693	-0.149557
O10	O	-1.462032	0.166554	0.113439
C11	C	-1.244819	0.086960	-0.000028
C12	C	-1.106317	0.085295	-0.000028
C13	C	-0.916170	0.033588	-0.000012
C14	C	-1.059320	0.035308	-0.000013
C15	C	-1.483397	-0.020387	0.000001
C16	C	-1.481719	-0.083615	0.000012
C17	C	-1.585203	-0.482046	-0.000063
C18	C	-1.583644	-0.541457	-0.000073
O19	O	-1.679575	-0.577579	-0.000123
N20	N	-1.469112	-0.564826	-0.000073
C21	C	-1.356131	-0.528782	-0.000076
O22	O	-1.258569	-0.554114	-0.000078
C23	C	-1.357691	-0.469373	-0.000075
C24	C	-1.472230	-0.446007	-0.000062
C25	C	-1.699733	-0.458680	-0.000051
C26	C	-1.701291	-0.399274	-0.000038
C27	C	-1.588319	-0.363234	-0.000037
C28	C	-1.473789	-0.386600	-0.000049
C29	C	-1.244711	-0.433329	-0.000088
C30	C	-1.246281	-0.373917	-0.000088
C31	C	-1.360821	-0.350551	-0.000075
C32	C	-1.362374	-0.291154	-0.000035
N33	N	-1.476907	-0.267785	-0.000035
C34	C	-1.589879	-0.303825	-0.000036
C35	C	-1.352863	-0.653545	-0.000079
C36	C	-1.351302	-0.712953	-0.000070
C37	C	-1.578816	-0.725625	-0.000070
C38	C	-1.580376	-0.666215	-0.000069
C39	C	-1.467395	-0.630176	-0.000080
C40	C	-1.593143	-0.179067	-0.000008
C41	C	-1.594691	-0.119655	0.000011
C42	C	-1.367178	-0.106989	0.000003
C43	C	-1.365629	-0.166396	-0.000008
C44	C	-1.478622	-0.202434	-0.000018
O45	O	-1.266494	-0.254997	0.000010
O46	O	-1.687425	-0.278484	-0.000052
C47	C	-0.701174	0.080427	-0.000027
C48	C	-0.839677	0.082092	-0.000027
C49	C	-1.462597	0.187774	-0.000059
C50	C	-1.464275	0.251001	-0.000078
N51	N	-1.472984	0.083693	0.353602
N52	N	-1.473020	0.083689	-0.353656
C53	C	-1.553878	0.047136	0.421390
C54	C	-1.553899	0.047134	0.578552
H55	H	-1.125046	-0.006215	-0.000009
H56	H	-1.258032	-0.731972	-0.000057
H57	H	-0.875681	-0.009210	0.000022
H58	H	-1.623117	0.015838	0.363076
Br59	Br	-0.996784	0.154509	-0.000065
H60	H	-1.623161	0.015839	0.636847
Br61	Br	-1.357586	0.135863	0.549198
H62	H	-1.275199	-0.077635	0.000009
H63	H	-0.880165	0.124890	-0.000032
Br64	Br	-1.750148	-0.087948	0.000030
H65	H	-1.794561	-0.380255	-0.000032
H66	H	-1.403737	0.114986	0.411917
H67	H	-1.260855	-0.624205	-0.000076
Br68	Br	-1.746491	-0.227966	-0.000023
Br69	Br	-1.735827	-0.634511	-0.000048
Br70	Br	-1.853074	-0.507581	-0.000053
Br71	Br	-1.089254	-0.465024	-0.000111
H72	H	-1.154276	-0.344576	-0.000099
Br73	Br	-1.732137	-0.774547	-0.000077
H74	H	-1.272361	-0.185421	0.000019
