data_functionalizedCrystal
_audit_creation_method	'MofGen! by Chris Wilmer'
_symmetry_space_group_name_H-M	'P1'
_symmetry_Int_Tables_number	1
_symmetry_cell_setting	triclinic
loop_
_symmetry_equiv_pos_as_xyz
  x,y,z
_cell_length_a	18.215407
_cell_length_b	17.639999
_cell_length_c	18.215399
_cell_angle_alpha	101.225562
_cell_angle_beta	89.982632
_cell_angle_gamma	101.196378
loop_
_atom_site_label
_atom_site_type_symbol
_atom_site_fract_x
_atom_site_fract_y
_atom_site_fract_z
Zn1	Zn	1.184349	0.314728	-0.356895
Zn2	Zn	1.684349	0.814728	0.143105
Zn3	Zn	1.209153	0.446906	-0.208978
Zn4	Zn	1.709153	0.946906	0.291022
Zn5	Zn	1.061285	0.314746	-0.233844
Zn6	Zn	1.561285	0.814746	0.266156
Zn7	Zn	1.086133	0.446855	-0.332018
Zn8	Zn	1.586133	0.946855	0.167982
O9	O	1.135230	0.380809	-0.282934
O10	O	1.635230	0.880809	0.217066
O11	O	1.290626	0.332275	-0.337278
O12	O	1.790626	0.832275	0.162722
O13	O	1.189519	0.429404	-0.109287
O14	O	1.689519	0.929404	0.390713
O15	O	1.056831	0.204139	-0.270985
O16	O	1.556831	0.704139	0.229015
O17	O	1.308849	0.429386	-0.228604
O18	O	1.808849	0.929386	0.271396
O19	O	1.147245	0.204125	-0.361390
O20	O	1.647245	0.704125	0.138610
O21	O	1.080882	0.332307	-0.127556
O22	O	1.580882	0.832307	0.372444
O23	O	0.961595	0.332258	-0.246862
O24	O	1.461595	0.832258	0.253138
O25	O	1.099180	0.429299	-0.438307
O26	O	1.599180	0.929299	0.061693
O27	O	0.979850	0.429317	-0.318990
O28	O	1.479850	0.929317	0.181010
O29	O	1.171339	0.332225	-0.456585
O30	O	1.671339	0.832225	0.043415
O31	O	1.213613	0.557505	-0.204481
O32	O	1.713613	1.057505	0.295519
O33	O	1.123231	0.557467	-0.294878
O34	O	1.623231	1.057467	0.205122
C35	C	0.944019	0.380785	-0.282925
C36	C	1.444019	0.880785	0.217075
C37	C	0.862222	0.380793	-0.282936
C38	C	1.362222	0.880793	0.217064
C39	C	0.664558	0.330332	-0.339577
C40	C	1.164558	0.830332	0.160423
C41	C	0.587700	0.330338	-0.339578
C42	C	1.087700	0.830338	0.160422
C43	C	0.606658	0.431308	-0.226299
C44	C	1.106658	0.931308	0.273701
C45	C	0.683514	0.431297	-0.226295
C46	C	1.183514	0.931297	0.273705
C47	C	0.712462	0.380810	-0.282938
C48	C	1.212462	0.880810	0.217062
C49	C	0.558749	0.380828	-0.282943
C50	C	1.058749	0.880828	0.217057
C51	C	0.475417	0.380836	-0.282944
C52	C	0.975417	0.880836	0.217056
C53	C	0.795799	0.380801	-0.282937
C54	C	1.295799	0.880801	0.217063
C55	C	1.173830	0.586165	-0.244298
C56	C	1.673830	1.086165	0.255702
C57	C	1.190410	0.674017	-0.227794
C58	C	1.690410	1.174017	0.272206
C59	C	1.009456	0.962991	-0.408564
C60	C	1.509456	1.462991	0.091436
C61	C	1.025038	1.045542	-0.393033
C62	C	1.525038	1.545542	0.106967
C63	C	1.119211	1.045515	-0.298998
C64	C	1.619211	1.545515	0.201002
C65	C	1.103640	0.962963	-0.314524
C66	C	1.603640	1.462963	0.185476
C67	C	1.048761	0.921708	-0.369307
C68	C	1.548761	1.421708	0.130693
C69	C	1.142945	0.921680	-0.275267
C70	C	1.642945	1.421680	0.224733
C71	C	1.127372	0.839135	-0.290789
C72	C	1.627372	1.339135	0.209211
C73	C	1.072495	0.797874	-0.345569
C74	C	1.572495	1.297874	0.154431
C75	C	1.033189	0.839163	-0.384830
C76	C	1.533189	1.339163	0.115170
C77	C	1.197820	0.962937	-0.220480
C78	C	1.697820	1.462937	0.279520
C79	C	1.237125	0.921653	-0.181223
C80	C	1.737125	1.421653	0.318777
C81	C	1.221556	0.839107	-0.196749
C82	C	1.721556	1.339107	0.303251
C83	C	1.166678	0.797845	-0.251528
C84	C	1.666678	1.297845	0.248472
C85	C	1.260862	0.797817	-0.157488
C86	C	1.760862	1.297817	0.342512
C87	C	1.245289	0.715272	-0.173010
C88	C	1.745289	1.215272	0.326990
C89	C	1.151106	0.715300	-0.267051
C90	C	1.651106	1.215300	0.232949
C91	C	1.327188	0.380834	-0.282942
C92	C	1.827188	0.880834	0.217058
C93	C	1.408988	0.380845	-0.282946
C94	C	1.908988	0.880845	0.217054
C95	C	1.135265	0.380754	-0.474897
C96	C	1.635265	0.880754	0.025103
C97	C	1.135279	0.380731	-0.556700
C98	C	1.635279	0.880731	-0.056700
C99	C	1.096476	1.174651	-0.321733
C100	C	1.596476	1.674651	0.178267
C101	C	1.079903	1.086799	-0.338259
C102	C	1.579903	1.586799	0.161741
C103	C	1.172860	0.330138	-0.754421
C104	C	1.672860	0.830138	-0.254421
C105	C	1.172865	0.330115	-0.831284
C106	C	1.672865	0.830115	-0.331284
C107	C	1.097727	0.431203	-0.812240
C108	C	1.597727	0.931203	-0.312240
C109	C	1.097719	0.431221	-0.735379
C110	C	1.597719	0.931221	-0.235379
C111	C	1.135290	0.380690	-0.706472
C112	C	1.635290	0.880690	-0.206472
C113	C	1.135303	0.380648	-0.860196
C114	C	1.635303	0.880648	-0.360196
C115	C	1.135307	0.380624	-0.943534
C116	C	1.635307	0.880624	-0.443534
C117	C	1.135284	0.380713	-0.623128
C118	C	1.635284	0.880713	-0.123128
C119	C	1.135227	0.380806	-0.091728
C120	C	1.635227	0.880806	0.408272
C121	C	1.135313	0.380607	-0.009967
C122	C	1.635313	0.880607	0.490033
H123	H	0.688124	0.289219	-0.385698
H124	H	1.188124	0.789219	0.114302
H125	H	1.067119	0.472386	-0.696336
H126	H	1.567119	0.972386	-0.196336
H127	H	1.203457	0.288949	-0.870323
H128	H	1.703457	0.788949	-0.370323
H129	H	0.583079	0.472414	-0.180183
H130	H	1.083079	0.972414	0.319817
F131	F	1.287116	0.671333	-0.131223
F132	F	1.787116	1.171333	0.368777
H133	H	0.722519	0.472403	-0.180169
H134	H	1.222519	0.972403	0.319831
F135	F	1.057747	0.484981	-0.843012
F136	F	1.557747	0.984981	-0.343012
F137	F	0.951054	0.919080	-0.466878
F138	F	1.451054	1.419080	0.033122
F139	F	1.092703	0.671389	-0.325364
F140	F	1.592703	1.171389	0.174636
H141	H	1.305539	0.831420	-0.112878
H142	H	1.805539	1.331420	0.387122
H143	H	0.548699	0.289233	-0.385698
H144	H	1.048699	0.789233	0.114302
H145	H	1.203451	0.288990	-0.730888
H146	H	1.703451	0.788990	-0.230888
F147	F	1.056053	0.710021	-0.362222
F148	F	1.556053	1.210021	0.137778
H149	H	0.988506	0.805571	-0.429445
H150	H	1.488506	1.305571	0.070555
F151	F	0.983193	1.089476	-0.434813
F152	F	1.483193	1.589476	0.065187
F153	F	1.177616	1.089431	-0.240696
F154	F	1.677616	1.589431	0.259304
F155	F	1.295529	0.965569	-0.122921
F156	F	1.795529	1.465569	0.377079
F157	F	1.214413	1.050789	-0.203981
F158	F	1.714413	1.550789	0.296019
