data_functionalizedCrystal
_audit_creation_method	'MofGen! by Chris Wilmer'
_symmetry_space_group_name_H-M	'P1'
_symmetry_Int_Tables_number	1
_symmetry_cell_setting	triclinic
loop_
_symmetry_equiv_pos_as_xyz
  x,y,z
_cell_length_a	10.868271
_cell_length_b	17.699083
_cell_length_c	17.699083
_cell_angle_alpha	83.283015
_cell_angle_beta	89.993975
_cell_angle_gamma	90.001712
loop_
_atom_site_label
_atom_site_type_symbol
_atom_site_fract_x
_atom_site_fract_y
_atom_site_fract_z
O1	O	0.102152	-1.004076	-0.095712
O2	O	0.435486	-0.670742	0.237622
O3	O	0.768819	-0.337409	0.570955
O4	O	0.102193	-0.783697	-0.108164
O5	O	0.435526	-0.450364	0.225169
O6	O	0.768860	-0.117030	0.558503
O7	O	0.102161	-0.900113	0.008251
O8	O	0.435494	-0.566779	0.341585
O9	O	0.768827	-0.233446	0.674918
O10	O	0.102185	-0.887660	-0.212127
O11	O	0.435518	-0.554327	0.121206
O12	O	0.768851	-0.220993	0.454540
O13	O	-0.102484	-0.900103	0.008256
O14	O	0.230849	-0.566770	0.341589
O15	O	0.564183	-0.233436	0.674922
O16	O	-0.102452	-0.783688	-0.108160
O17	O	0.230882	-0.450354	0.225174
O18	O	0.564215	-0.117021	0.558507
O19	O	-0.102492	-1.004066	-0.095707
O20	O	0.230841	-0.670733	0.237626
O21	O	0.564174	-0.337399	0.570959
Zn22	Zn	-0.134964	-0.893875	-0.101933
Zn23	Zn	0.198369	-0.560542	0.231401
Zn24	Zn	0.531703	-0.227209	0.564734
Zn25	Zn	0.134664	-0.893888	-0.101939
Zn26	Zn	0.467998	-0.560555	0.231395
Zn27	Zn	0.801331	-0.227221	0.564728
O28	O	-0.102460	-0.887651	-0.212123
O29	O	0.230873	-0.554317	0.121211
O30	O	0.564207	-0.220984	0.454544
C31	C	-0.000124	-0.755495	-0.107716
C32	C	0.333209	-0.422162	0.225618
C33	C	0.666542	-0.088829	0.558951
C34	C	-0.000109	-0.671477	-0.106377
C35	C	0.333224	-0.338144	0.226956
C36	C	0.666557	-0.004811	0.560290
N37	N	-0.318978	-0.893872	-0.101928
N38	N	0.014355	-0.560539	0.231405
N39	N	0.347689	-0.227206	0.564738
C40	C	-0.000162	-0.899662	0.036451
C41	C	0.333171	-0.566328	0.369784
C42	C	0.666505	-0.232995	0.703117
C43	C	-0.000162	-0.898323	0.120469
C44	C	0.333171	-0.564990	0.453802
C45	C	0.666505	-0.231656	0.787135
C46	C	-0.569984	-0.893884	-0.101937
C47	C	-0.236651	-0.560551	0.231396
C48	C	0.096683	-0.227217	0.564730
C49	C	-0.430306	-0.893875	-0.101934
C50	C	-0.096973	-0.560542	0.231399
C51	C	0.236360	-0.227208	0.564732
N52	N	0.318678	-0.893897	-0.101937
N53	N	0.652012	-0.560564	0.231396
N54	N	0.985345	-0.227230	0.564730
C55	C	-0.000173	-1.032268	-0.096156
C56	C	0.333161	-0.698934	0.237178
C57	C	0.666494	-0.365601	0.570511
C58	C	-0.000180	-1.116286	-0.097494
C59	C	0.333154	-0.782953	0.235839
C60	C	0.666487	-0.449619	0.569172
C61	C	-0.000102	-0.622856	-0.174710
C62	C	0.333231	-0.289523	0.158623
C63	C	0.666564	0.043810	0.491956
C64	C	-0.000118	-0.543913	-0.173448
C65	C	0.333215	-0.210580	0.159885
C66	C	0.666548	0.122754	0.493218
C67	C	-0.000133	-0.513592	-0.103852
C68	C	0.333201	-0.180259	0.229482
C69	C	0.666534	0.153074	0.562815
C70	C	-0.000143	-0.562219	-0.035513
C71	C	0.333190	-0.228886	0.297820
C72	C	0.666523	0.104447	0.631154
C73	C	-0.000136	-0.641161	-0.036776
C74	C	0.333197	-0.307828	0.296557
C75	C	0.666531	0.025505	0.629891
C76	C	-0.000174	-0.243856	-0.030418
C77	C	0.333159	0.089477	0.302915
C78	C	0.666492	0.422810	0.636249
C79	C	-0.000178	-0.164908	-0.029160
C80	C	0.333155	0.168425	0.304173
C81	C	0.666489	0.501758	0.637507
C82	C	-0.000156	-0.146608	-0.167090
C83	C	0.333177	0.186725	0.166243
C84	C	0.666510	0.520058	0.499577
C85	C	-0.000149	-0.225550	-0.168353
C86	C	0.333184	0.107783	0.164980
C87	C	0.666517	0.441117	0.498314
C88	C	-0.000166	-0.274170	-0.100015
C89	C	0.333167	0.059163	0.233319
C90	C	0.666500	0.392496	0.566652
C91	C	-0.000151	-0.359769	-0.101384
C92	C	0.333182	-0.026436	0.231949
C93	C	0.666515	0.306897	0.565282
C94	C	-0.000139	-0.427995	-0.102481
C95	C	0.333194	-0.094661	0.230852
C96	C	0.666528	0.238672	0.564185
C97	C	-0.000135	-0.888102	-0.240322
C98	C	0.333198	-0.554768	0.093011
C99	C	0.666532	-0.221435	0.426345
C100	C	-0.000127	-0.889440	-0.324340
C101	C	0.333207	-0.556107	0.008993
C102	C	0.666540	-0.222773	0.342327
C103	C	-0.000176	-0.966656	0.169090
C104	C	0.333157	-0.633323	0.502423
C105	C	0.666490	-0.299990	0.835756
C106	C	-0.000165	-0.965394	0.248033
C107	C	0.333168	-0.632061	0.581366
C108	C	0.666501	-0.298727	0.914700
C109	C	-0.000149	-0.895798	0.278354
C110	C	0.333185	-0.562464	0.611687
C111	C	0.666518	-0.229131	0.945020
C112	C	-0.000131	-0.827459	0.229727
C113	C	0.333203	-0.494126	0.563060
C114	C	0.666536	-0.160792	0.896393
C115	C	-0.000133	-0.828722	0.150785
C116	C	0.333200	-0.495389	0.484118
C117	C	0.666534	-0.162055	0.817451
C118	C	-0.000120	-0.822364	0.548090
C119	C	0.333214	-0.489030	0.881423
C120	C	0.666547	-0.155697	1.214756
C121	C	-0.000121	-0.821106	0.627038
C122	C	0.333212	-0.487773	0.960371
C123	C	0.666546	-0.154439	1.293704
C124	C	-0.000152	-0.959036	0.645338
C125	C	0.333181	-0.625703	0.978671
C126	C	0.666515	-0.292369	1.312004
C127	C	-0.000154	-0.960299	0.566396
C128	C	0.333179	-0.626966	0.899729
C129	C	0.666512	-0.293632	1.233063
C130	C	-0.000130	-0.891961	0.517776
C131	C	0.333203	-0.558627	0.851109
C132	C	0.666537	-0.225294	1.184442
C133	C	-0.000140	-0.893330	0.432177
C134	C	0.333194	-0.559997	0.765510
C135	C	0.666527	-0.226664	1.098843
C136	C	-0.000148	-0.894427	0.363951
C137	C	0.333186	-0.561094	0.697285
C138	C	0.666519	-0.227761	1.030618
H139	H	-0.000111	-0.504328	-0.229092
H140	H	0.333222	-0.170995	0.104241
H141	H	0.666556	0.162338	0.437574
H142	H	-0.000198	-1.023330	0.144409
H143	H	0.333136	-0.689997	0.477742
H144	H	0.666469	-0.356663	0.811076
C145	C	-0.000173	-1.023478	0.453510
C146	C	0.333161	-0.690145	0.786843
C147	C	0.666494	-0.356811	1.120176
C148	C	-0.000171	-1.036801	0.533067
C149	C	0.333162	-0.703467	0.866401
C150	C	0.666496	-0.370134	1.199734
H151	H	-0.000186	-1.070709	0.432937
H152	H	0.333147	-0.737376	0.766270
H153	H	0.666480	-0.404042	1.099603
H154	H	0.071191	-0.995355	0.436814
H155	H	0.404524	-0.662021	0.770147
H156	H	0.737857	-0.328688	1.103480
H157	H	-0.071538	-0.995345	0.436825
H158	H	0.261795	-0.662012	0.770158
H159	H	0.595128	-0.328679	1.103491
H160	H	0.071200	-1.064929	0.549753
H161	H	0.404533	-0.731595	0.883086
H162	H	0.737866	-0.398262	1.216420
H163	H	-0.071542	-1.064936	0.549770
H164	H	0.261792	-0.731603	0.883104
H165	H	0.595125	-0.398269	1.216437
C166	C	-0.000056	-0.684883	0.601022
C167	C	0.333277	-0.351549	0.934355
C168	C	0.666610	-0.018216	1.267689
C169	C	-0.000087	-0.744600	0.660367
C170	C	0.333247	-0.411266	0.993701
C171	C	0.666580	-0.077933	1.327034
H172	H	-0.000028	-0.637655	0.621601
H173	H	0.333306	-0.304322	0.954934
H174	H	0.666639	0.029012	1.288268
H175	H	-0.071418	-0.688231	0.570617
H176	H	0.261916	-0.354898	0.903951
H177	H	0.595249	-0.021564	1.237284
H178	H	0.071311	-0.688257	0.570608
H179	H	0.404645	-0.354924	0.903941
H180	H	0.737978	-0.021591	1.237274
H181	H	-0.071460	-0.741228	0.690779
H182	H	0.261874	-0.407895	1.024112
H183	H	0.595207	-0.074562	1.357445
H184	H	0.071282	-0.741250	0.690785
H185	H	0.404615	-0.407916	1.024118
H186	H	0.737948	-0.074583	1.357451
H187	H	-0.000100	-0.766718	0.508512
H188	H	0.333233	-0.433385	0.841845
H189	H	0.666567	-0.100052	1.175179
C190	C	-0.000191	-1.095509	0.655497
C191	C	0.333143	-0.762176	0.988830
C192	C	0.666476	-0.428843	1.322164
C193	C	-0.000165	-1.034158	0.698783
C194	C	0.333168	-0.700824	1.032116
C195	C	0.666501	-0.367491	1.365450
H196	H	-0.000209	-1.141884	0.688492
H197	H	0.333125	-0.808550	1.021825
H198	H	0.666458	-0.475217	1.355158
H199	H	0.071167	-1.093137	0.624322
H200	H	0.404501	-0.759804	0.957655
H201	H	0.737834	-0.426470	1.290988
H202	H	-0.071562	-1.093120	0.624330
H203	H	0.261772	-0.759787	0.957663
H204	H	0.595105	-0.426453	1.290996
H205	H	0.071211	-1.036544	0.729946
H206	H	0.404544	-0.703210	1.063280
H207	H	0.737877	-0.369877	1.396613
H208	H	-0.071530	-1.036531	0.729971
H209	H	0.261803	-0.703198	1.063305
H210	H	0.595136	-0.369864	1.396638
C211	C	-0.000114	-0.769413	0.021644
C212	C	0.333220	-0.436080	0.354977
C213	C	0.666553	-0.102746	0.688311
C214	C	-0.000117	-0.753608	0.097336
C215	C	0.333217	-0.420275	0.430670
C216	C	0.666550	-0.086942	0.764003
H217	H	-0.000092	-0.723039	-0.011351
H218	H	0.333242	-0.389705	0.321982
H219	H	0.666575	-0.056372	0.655316
H220	H	-0.071481	-0.797946	0.012474
H221	H	0.261852	-0.464612	0.345808
H222	H	0.595186	-0.131279	0.679141
H223	H	0.071248	-0.797964	0.012473
H224	H	0.404581	-0.464630	0.345806
H225	H	0.737915	-0.131297	0.679140
H226	H	-0.071484	-0.725063	0.106509
H227	H	0.261850	-0.391729	0.439842
H228	H	0.595183	-0.058396	0.773176
H229	H	0.071258	-0.725064	0.106510
H230	H	0.404591	-0.391730	0.439843
H231	H	0.737924	-0.058397	0.773176
H232	H	-0.000149	-0.107012	-0.222734
H233	H	0.333184	0.226322	0.110599
H234	H	0.666518	0.559655	0.443933
C235	C	-0.000127	-0.764276	0.342611
C236	C	0.333206	-0.430943	0.675944
C237	C	0.666539	-0.097609	1.009278
C238	C	-0.000117	-0.750956	0.263053
C239	C	0.333216	-0.417623	0.596387
C240	C	0.666550	-0.084290	0.929720
H241	H	-0.000130	-0.717044	0.363182
H242	H	0.333204	-0.383711	0.696516
H243	H	0.666537	-0.050378	1.029849
H244	H	0.071227	-0.792403	0.359301
H245	H	0.404561	-0.459069	0.692634
H246	H	0.737894	-0.125736	1.025968
H247	H	-0.071502	-0.792405	0.359304
H248	H	0.261832	-0.459071	0.692637
H249	H	0.595165	-0.125738	1.025971
H250	H	0.071262	-0.722832	0.246360
H251	H	0.404596	-0.389499	0.579693
H252	H	0.737929	-0.056166	0.913026
H253	H	-0.071479	-0.722818	0.246356
H254	H	0.261854	-0.389484	0.579690
H255	H	0.595188	-0.056151	0.913023
H256	H	-0.000090	-0.647537	-0.231384
H257	H	0.333244	-0.314204	0.101949
H258	H	0.666577	0.019130	0.435283
H259	H	-0.000173	-0.537526	0.021154
H260	H	0.333161	-0.204193	0.354487
H261	H	0.666494	0.129141	0.687820
C262	C	0.105069	-0.234236	-0.286315
C263	C	0.438402	0.099097	0.047019
C264	C	0.771736	0.432430	0.380352
C265	C	-0.000132	-0.258871	-0.244859
C266	C	0.333202	0.074463	0.088474
C267	C	0.666535	0.407796	0.421808
H268	H	0.105071	-0.254802	-0.333549
H269	H	0.438404	0.078531	-0.000216
H270	H	0.771738	0.411865	0.333117
H271	H	0.176417	-0.250937	-0.258188
H272	H	0.509751	0.082397	0.075146
H273	H	0.843084	0.415730	0.408479
H274	H	0.105051	-0.180262	-0.295332
H275	H	0.438385	0.153071	0.038002
H276	H	0.771718	0.486405	0.371335
H277	H	-0.000109	-0.312845	-0.235837
H278	H	0.333224	0.020488	0.097497
H279	H	0.666557	0.353821	0.430830
H280	H	-0.071498	-0.242175	-0.272992
H281	H	0.261835	0.091159	0.060342
H282	H	0.595168	0.424492	0.393675
C283	C	-0.000138	-0.651327	0.099693
C284	C	0.333195	-0.317993	0.433026
C285	C	0.666529	0.015340	0.766359
C286	C	-0.000132	-0.694609	0.038338
C287	C	0.333201	-0.361275	0.371671
C288	C	0.666534	-0.027942	0.705005
H289	H	-0.000131	-0.684324	0.146066
H290	H	0.333203	-0.350991	0.479399
H291	H	0.666536	-0.017657	0.812732
H292	H	-0.071501	-0.620162	0.097320
H293	H	0.261832	-0.286829	0.430653
H294	H	0.595166	0.046504	0.763987
H295	H	0.071228	-0.620149	0.097308
H296	H	0.404561	-0.286816	0.430642
H297	H	0.737895	0.046518	0.763975
H298	H	-0.071504	-0.725782	0.040719
H299	H	0.261830	-0.392449	0.374053
H300	H	0.595163	-0.059116	0.707386
H301	H	0.071238	-0.725786	0.040712
H302	H	0.404571	-0.392453	0.374046
H303	H	0.737904	-0.059120	0.707379
C304	C	-0.000228	-0.190924	0.107063
C305	C	0.333105	0.142409	0.440397
C306	C	0.666439	0.475743	0.773730
C307	C	-0.000206	-0.131579	0.047346
C308	C	0.333127	0.201755	0.380680
C309	C	0.666460	0.535088	0.714013
H310	H	-0.000252	-0.170345	0.154291
H311	H	0.333081	0.162988	0.487624
H312	H	0.666415	0.496322	0.820958
H313	H	0.071134	-0.221330	0.103709
H314	H	0.404467	0.112003	0.437042
H315	H	0.737801	0.445336	0.770376
H316	H	-0.071595	-0.221337	0.103695
H317	H	0.261738	0.111997	0.437028
H318	H	0.595072	0.445330	0.770361
H319	H	0.071166	-0.101169	0.050712
H320	H	0.404499	0.232164	0.384045
H321	H	0.737832	0.565498	0.717378
H322	H	-0.071576	-0.101160	0.050702
H323	H	0.261758	0.232174	0.384036
H324	H	0.595091	0.565507	0.717369
H325	H	-0.000189	-0.283434	0.025228
H326	H	0.333144	0.049899	0.358561
H327	H	0.666477	0.383233	0.691894
H328	H	-0.000180	-1.021038	0.287618
H329	H	0.333154	-0.687705	0.620951
H330	H	0.666487	-0.354372	0.954284
