data_functionalizedCrystal
_audit_creation_method	'MofGen! by Chris Wilmer'
_symmetry_space_group_name_H-M	'P1'
_symmetry_Int_Tables_number	1
_symmetry_cell_setting	triclinic
loop_
_symmetry_equiv_pos_as_xyz
  x,y,z
_cell_length_a	21.395364
_cell_length_b	21.395363
_cell_length_c	21.395355
_cell_angle_alpha	90.004913
_cell_angle_beta	89.974702
_cell_angle_gamma	89.981608
loop_
_atom_site_label
_atom_site_type_symbol
_atom_site_fract_x
_atom_site_fract_y
_atom_site_fract_z
Zn1	Zn	-0.957985	-0.249232	0.354333
Zn2	Zn	-0.624652	0.084102	0.687667
Zn3	Zn	-0.291319	0.417435	1.021000
Zn4	Zn	-0.957941	-0.353992	0.249581
Zn5	Zn	-0.624608	-0.020658	0.582914
Zn6	Zn	-0.291274	0.312675	0.916247
Zn7	Zn	-0.853200	-0.249262	0.249569
Zn8	Zn	-0.519867	0.084071	0.582902
Zn9	Zn	-0.186534	0.417404	0.916235
Zn10	Zn	-0.853223	-0.354006	0.354319
Zn11	Zn	-0.519889	-0.020673	0.687653
Zn12	Zn	-0.186556	0.312661	1.020986
O13	O	-0.905587	-0.301623	0.301950
O14	O	-0.572254	0.031710	0.635284
O15	O	-0.238921	0.365044	0.968617
O16	O	-1.045657	-0.263110	0.340448
O17	O	-0.712324	0.070224	0.673782
O18	O	-0.378991	0.403557	1.007115
O19	O	-0.944019	-0.340106	0.161901
O20	O	-0.610686	-0.006773	0.495234
O21	O	-0.277352	0.326561	0.828568
O22	O	-0.867110	-0.161581	0.263467
O23	O	-0.533776	0.171753	0.596800
O24	O	-0.200443	0.505086	0.930133
O25	O	-1.045625	-0.340076	0.263487
O26	O	-0.712291	-0.006743	0.596820
O27	O	-0.378958	0.326591	0.930154
O28	O	-0.944095	-0.161558	0.340437
O29	O	-0.610761	0.171775	0.673770
O30	O	-0.277428	0.505109	1.007103
O31	O	-0.867067	-0.263162	0.161892
O32	O	-0.533733	0.070172	0.495226
O33	O	-0.200400	0.403505	0.828559
O34	O	-0.765526	-0.263176	0.263453
O35	O	-0.432192	0.070158	0.596786
O36	O	-0.098859	0.403491	0.930120
O37	O	-0.867148	-0.340101	0.441999
O38	O	-0.533814	-0.006767	0.775332
O39	O	-0.200481	0.326566	1.108666
O40	O	-0.765542	-0.340130	0.340413
O41	O	-0.432209	-0.006797	0.673746
O42	O	-0.098875	0.326536	1.007080
O43	O	-0.944116	-0.263123	0.442009
O44	O	-0.610783	0.070210	0.775343
O45	O	-0.277450	0.403543	1.108676
O46	O	-0.944041	-0.441671	0.263474
O47	O	-0.610707	-0.108338	0.596807
O48	O	-0.277374	0.224995	0.930140
O49	O	-0.867105	-0.441682	0.340425
O50	O	-0.533771	-0.108349	0.673758
O51	O	-0.200438	0.224985	1.007092
C52	C	-0.742800	-0.301658	0.301931
C53	C	-0.409466	0.031675	0.635264
C54	C	-0.076133	0.365008	0.968597
C55	C	-0.673159	-0.301689	0.301937
C56	C	-0.339825	0.031645	0.635270
C57	C	-0.006492	0.364978	0.968604
C58	C	-0.640485	-0.261679	0.342072
C59	C	-0.307151	0.071655	0.675406
C60	C	0.026182	0.404988	1.008739
C61	C	-0.575049	-0.261664	0.342074
C62	C	-0.241716	0.071669	0.675407
C63	C	0.091617	0.405003	1.008741
C64	C	-0.542290	-0.301671	0.301947
C65	C	-0.208957	0.031663	0.635280
C66	C	0.124376	0.364996	0.968614
C67	C	-0.574972	-0.341683	0.261804
C68	C	-0.241639	-0.008350	0.595137
C69	C	0.091695	0.324983	0.928470
C70	C	-0.640406	-0.341692	0.261799
C71	C	-0.307073	-0.008359	0.595132
C72	C	0.026261	0.324974	0.928466
C73	C	-0.438594	-0.358098	0.296921
C74	C	-0.105261	-0.024765	0.630255
C75	C	0.228072	0.308568	0.963588
C76	C	-0.373162	-0.358090	0.296931
C77	C	-0.039828	-0.024757	0.630264
C78	C	0.293505	0.308576	0.963597
C79	C	-0.340470	-0.301642	0.301958
C80	C	-0.007136	0.031691	0.635291
C81	C	0.326197	0.365024	0.968625
C82	C	-0.373219	-0.245200	0.306990
C83	C	-0.039885	0.088133	0.640323
C84	C	0.293448	0.421466	0.973656
C85	C	-0.438653	-0.245209	0.306985
C86	C	-0.105319	0.088124	0.640318
C87	C	0.228014	0.421457	0.973651
C88	C	-0.471338	-0.301665	0.301947
C89	C	-0.138005	0.031668	0.635281
C90	C	0.195329	0.365002	0.968614
C91	C	-0.236843	-0.261613	0.342097
C92	C	0.096490	0.071720	0.675431
C93	C	0.429823	0.405054	1.008764
C94	C	-0.171407	-0.261597	0.342094
C95	C	0.161927	0.071736	0.675428
C96	C	0.495260	0.405069	1.008761
C97	C	-0.171330	-0.341622	0.261828
C98	C	0.162003	-0.008289	0.595161
C99	C	0.495336	0.325045	0.928494
C100	C	-0.236766	-0.341632	0.261827
C101	C	0.096568	-0.008299	0.595160
C102	C	0.429901	0.325035	0.928494
C103	C	-0.269518	-0.301629	0.301965
C104	C	0.063815	0.031705	0.635299
C105	C	0.397148	0.365038	0.968632
C106	C	-0.905587	-0.464411	0.301963
C107	C	-0.572254	-0.131077	0.635296
C108	C	-0.238921	0.202256	0.968629
C109	C	-0.905644	-0.534052	0.301989
C110	C	-0.572311	-0.200718	0.635322
C111	C	-0.238978	0.132615	0.968656
C112	C	-0.905639	-0.301610	0.465374
C113	C	-0.572306	0.031723	0.798707
C114	C	-0.238973	0.365056	1.132040
C115	C	-0.905662	-0.301605	0.535015
C116	C	-0.572328	0.031728	0.868348
C117	C	-0.238995	0.365062	1.201682
C118	C	-0.069011	-0.301595	0.301967
C119	C	0.264323	0.031738	0.635301
C120	C	0.597656	0.365071	0.968634
C121	C	-0.138652	-0.301603	0.301966
C122	C	0.194681	0.031730	0.635299
C123	C	0.528015	0.365063	0.968633
C124	C	-0.905605	-0.138200	0.301952
C125	C	-0.572271	0.195134	0.635285
C126	C	-0.238938	0.528467	0.968618
C127	C	-0.905612	-0.068558	0.301952
C128	C	-0.572279	0.264775	0.635286
C129	C	-0.238945	0.598108	0.968619
C130	C	-0.865556	-0.035855	0.342013
C131	C	-0.532222	0.297478	0.675347
C132	C	-0.198889	0.630811	1.008680
C133	C	-0.865562	0.029580	0.342022
C134	C	-0.532228	0.362913	0.675355
C135	C	-0.198895	0.696247	1.008689
C136	C	-0.905617	0.062310	0.301959
C137	C	-0.572284	0.395643	0.635292
C138	C	-0.238951	0.728977	0.968625
C139	C	-0.945682	0.029599	0.261895
C140	C	-0.612348	0.362932	0.595228
C141	C	-0.279015	0.696266	0.928561
C142	C	-0.945679	-0.035835	0.261892
C143	C	-0.612346	0.297498	0.595225
C144	C	-0.279012	0.630831	0.928558
C145	C	-0.910549	0.165976	0.245515
C146	C	-0.577216	0.499310	0.578848
C147	C	-0.243882	0.832643	0.912181
C148	C	-0.910547	0.231409	0.245517
C149	C	-0.577214	0.564743	0.578850
C150	C	-0.243880	0.898076	0.912183
C151	C	-0.905629	0.264131	0.301969
C152	C	-0.572296	0.597464	0.635302
C153	C	-0.238963	0.930797	0.968635
C154	C	-0.900700	0.231411	0.358420
C155	C	-0.567367	0.564744	0.691753
C156	C	-0.234033	0.898078	1.025087
C157	C	-0.900697	0.165977	0.358417
C158	C	-0.567364	0.499310	0.691750
C159	C	-0.234031	0.832643	1.025084
C160	C	-0.905625	0.133262	0.301958
C161	C	-0.572292	0.466596	0.635291
C162	C	-0.238958	0.799929	0.968624
C163	C	-0.865577	0.367786	0.342042
C164	C	-0.532244	0.701120	0.675376
C165	C	-0.198911	1.034453	1.008709
C166	C	-0.865588	0.433223	0.342052
C167	C	-0.532254	0.766556	0.675385
C168	C	-0.198921	1.099890	1.008719
C169	C	-0.945704	0.433241	0.261919
C170	C	-0.612371	0.766574	0.595253
C171	C	-0.279037	1.099907	0.928586
C172	C	-0.945697	0.367805	0.261915
C173	C	-0.612364	0.701138	0.595248
C174	C	-0.279030	1.034472	0.928582
C175	C	-0.905630	0.335082	0.301976
C176	C	-0.572297	0.668415	0.635309
C177	C	-0.238964	1.001749	0.968642
C178	C	-0.905572	-0.301590	0.139163
C179	C	-0.572238	0.031743	0.472496
C180	C	-0.238905	0.365076	0.805830
C181	C	-0.905671	-0.301419	0.069522
C182	C	-0.572338	0.031914	0.402855
C183	C	-0.239004	0.365247	0.736189
C184	C	-0.945738	-0.261521	0.567734
C185	C	-0.612404	0.071812	0.901068
C186	C	-0.279071	0.405146	1.234401
C187	C	-0.945737	-0.261494	0.633170
C188	C	-0.612403	0.071839	0.966503
C189	C	-0.279070	0.405172	1.299837
C190	C	-0.905666	-0.301562	0.665883
C191	C	-0.572333	0.031771	0.999217
C192	C	-0.239000	0.365105	1.332550
C193	C	-0.865583	-0.341649	0.633156
C194	C	-0.532249	-0.008315	0.966489
C195	C	-0.198916	0.325018	1.299823
C196	C	-0.865580	-0.341670	0.567722
C197	C	-0.532247	-0.008337	0.901055
C198	C	-0.198914	0.324997	1.234389
C199	C	-0.900719	-0.357979	0.769562
C200	C	-0.567386	-0.024646	1.102896
C201	C	-0.234052	0.308688	1.436229
C202	C	-0.900726	-0.357959	0.834995
C203	C	-0.567393	-0.024625	1.168329
C204	C	-0.234059	0.308708	1.501662
C205	C	-0.905670	-0.301496	0.867704
C206	C	-0.572337	0.031837	1.201038
C207	C	-0.239004	0.365171	1.534371
C208	C	-0.910621	-0.245052	0.834972
C209	C	-0.577288	0.088281	1.168306
C210	C	-0.243954	0.421615	1.501639
C211	C	-0.910619	-0.245073	0.769538
C212	C	-0.577285	0.088260	1.102871
C213	C	-0.243952	0.421593	1.436205
C214	C	-0.905664	-0.301543	0.736836
C215	C	-0.572331	0.031790	1.070169
C216	C	-0.238998	0.365123	1.403502
C217	C	-0.945747	-0.261380	0.971376
C218	C	-0.612414	0.071954	1.304710
C219	C	-0.279081	0.405287	1.638043
C220	C	-0.945742	-0.261352	1.036813
C221	C	-0.612409	0.071982	1.370146
C222	C	-0.279076	0.405315	1.703480
C223	C	-0.865592	-0.341512	1.036798
C224	C	-0.532258	-0.008178	1.370131
C225	C	-0.198925	0.325155	1.703465
C226	C	-0.865594	-0.341534	0.971362
C227	C	-0.532260	-0.008201	1.304696
C228	C	-0.198927	0.325133	1.638029
C229	C	-0.905675	-0.301469	0.938656
C230	C	-0.572341	0.031864	1.271989
C231	C	-0.239008	0.365198	1.605322
H232	H	-0.465314	-0.199253	0.311080
H233	H	-0.131981	0.134081	0.644413
H234	H	0.201352	0.467414	0.977746
Br235	Br	-1.000061	0.323419	0.207542
Br236	Br	-0.666728	0.656752	0.540875
Br237	Br	-0.333394	0.990086	0.874209
Br238	Br	-1.000145	-0.206957	1.081219
Br239	Br	-0.666812	0.126376	1.414553
Br240	Br	-0.333479	0.459710	1.747886
Br241	Br	-0.126879	-0.395911	0.207361
Br242	Br	0.206455	-0.062578	0.540695
Br243	Br	0.539788	0.270756	0.874028
H244	H	-0.548441	-0.229080	0.374756
H245	H	-0.215108	0.104253	0.708089
H246	H	0.118225	0.437587	1.041423
H247	H	-0.832961	0.341142	0.374671
H248	H	-0.499627	0.674475	0.708004
H249	H	-0.166294	1.007808	1.041337
H250	H	-0.832959	-0.374129	1.063433
H251	H	-0.499626	-0.040796	1.396766
H252	H	-0.166293	0.292537	1.730099
Br253	Br	-0.811196	0.073973	0.396395
Br254	Br	-0.477863	0.407306	0.729728
Br255	Br	-0.144529	0.740640	1.063061
H256	H	-0.914557	0.258047	0.199552
H257	H	-0.581224	0.591380	0.532885
H258	H	-0.247890	0.924714	0.866218
H259	H	-0.978321	0.459889	0.229301
H260	H	-0.644987	0.793222	0.562635
H261	H	-0.311654	1.126555	0.895968
Br262	Br	-0.894040	0.121573	0.435028
Br263	Br	-0.560707	0.454906	0.768361
Br264	Br	-0.227373	0.788240	1.101695
Br265	Br	-0.917337	-0.168419	0.879354
Br266	Br	-0.584004	0.164915	1.212687
Br267	Br	-0.250670	0.498248	1.546021
Br268	Br	-0.328860	-0.168586	0.313815
Br269	Br	0.004474	0.164747	0.647148
Br270	Br	0.337807	0.498080	0.980481
Br271	Br	-0.917230	0.121576	0.168895
Br272	Br	-0.583896	0.454909	0.502228
Br273	Br	-0.250563	0.788242	0.835561
Br274	Br	-0.893930	0.275810	0.435031
Br275	Br	-0.560597	0.609143	0.768364
Br276	Br	-0.227263	0.942476	1.101698
Br277	Br	-0.684932	-0.207388	0.396545
Br278	Br	-0.351599	0.125945	0.729879
Br279	Br	-0.018265	0.459278	1.063212
H280	H	-0.465207	-0.404068	0.292827
H281	H	-0.131874	-0.070735	0.626160
H282	H	0.201460	0.262598	0.959493
Br283	Br	-0.684752	-0.395993	0.207322
Br284	Br	-0.351419	-0.062659	0.540655
Br285	Br	-0.018086	0.270674	0.873989
Br286	Br	-1.000131	-0.207145	0.523349
Br287	Br	-0.666797	0.126188	0.856683
Br288	Br	-0.333464	0.459522	1.190016
Br289	Br	-0.917334	-0.168475	0.725117
Br290	Br	-0.584001	0.164858	1.058451
Br291	Br	-0.250667	0.498192	1.391784
Br292	Br	-1.000048	0.074016	0.207527
Br293	Br	-0.666715	0.407349	0.540861
Br294	Br	-0.333382	0.740683	0.874194
H295	H	-0.548295	-0.374256	0.229132
H296	H	-0.214962	-0.040923	0.562465
H297	H	0.118372	0.292410	0.895798
H298	H	-0.978380	-0.228753	0.944745
H299	H	-0.645047	0.104581	1.278078
H300	H	-0.311714	0.437914	1.611412
Br301	Br	-1.000046	-0.080221	0.207520
Br302	Br	-0.666713	0.253112	0.540853
Br303	Br	-0.333380	0.586445	0.874186
Br304	Br	-0.811227	0.477607	0.396432
Br305	Br	-0.477893	0.810941	0.729766
Br306	Br	-0.144560	1.144274	1.063099
Br307	Br	-0.811188	-0.080263	0.396390
Br308	Br	-0.477855	0.253071	0.729723
Br309	Br	-0.144522	0.586404	1.063056
Br310	Br	-0.328723	-0.434690	0.290116
Br311	Br	0.004610	-0.101356	0.623449
Br312	Br	0.337944	0.231977	0.956782
Br313	Br	-0.281112	-0.395930	0.207350
Br314	Br	0.052221	-0.062596	0.540683
Br315	Br	0.385555	0.270737	0.874016
H316	H	-0.832955	-0.374270	0.659796
H317	H	-0.499622	-0.040937	0.993129
H318	H	-0.166289	0.292396	1.326462
Br319	Br	-1.000114	-0.207076	0.677585
Br320	Br	-0.666780	0.126258	1.010918
Br321	Br	-0.333447	0.459591	1.344251
H322	H	-0.832963	-0.374178	0.944722
H323	H	-0.499630	-0.040845	1.278055
H324	H	-0.166296	0.292488	1.611389
Br325	Br	-0.894016	-0.434560	0.879411
Br326	Br	-0.560683	-0.101227	1.212744
Br327	Br	-0.227349	0.232106	1.546077
H328	H	-0.896525	-0.403946	0.742936
H329	H	-0.563192	-0.070613	1.076270
H330	H	-0.229858	0.262721	1.409603
H331	H	-0.832943	-0.374310	0.541082
H332	H	-0.499609	-0.040977	0.874415
H333	H	-0.166276	0.292357	1.207749
H334	H	-0.144805	-0.229013	0.374776
H335	H	0.188529	0.104321	0.708110
H336	H	0.521862	0.437654	1.041443
Br337	Br	-0.281297	-0.207320	0.396565
Br338	Br	0.052036	0.126013	0.729899
Br339	Br	0.385370	0.459346	1.063232
