data_functionalizedCrystal
_audit_creation_method	'MofGen! by Chris Wilmer'
_symmetry_space_group_name_H-M	'P1'
_symmetry_Int_Tables_number	1
_symmetry_cell_setting	triclinic
loop_
_symmetry_equiv_pos_as_xyz
  x,y,z
_cell_length_a	8.497374
_cell_length_b	12.759401
_cell_length_c	12.759399
_cell_angle_alpha	90.014202
_cell_angle_beta	89.991562
_cell_angle_gamma	89.999384
loop_
_atom_site_label
_atom_site_type_symbol
_atom_site_fract_x
_atom_site_fract_y
_atom_site_fract_z
Zn1	Zn	0.891910	-1.606064	0.418474
Zn2	Zn	0.628112	-1.606013	0.594121
Zn3	Zn	0.628142	-1.430422	0.418454
Zn4	Zn	0.891849	-1.430354	0.594109
O5	O	0.760003	-1.518213	0.506289
O6	O	0.856929	-1.753079	0.441788
O7	O	0.407354	-1.582728	0.570815
O8	O	0.663169	-1.453771	0.271435
O9	O	0.663119	-1.753041	0.570834
O10	O	0.856958	-1.582815	0.271450
O11	O	0.407376	-1.453722	0.441753
O12	O	0.663110	-1.283392	0.441741
O13	O	1.112619	-1.453655	0.570814
O14	O	0.856855	-1.283342	0.570794
O15	O	1.112664	-1.582749	0.441776
O16	O	0.663060	-1.582661	0.741140
O17	O	0.856826	-1.453605	0.741131
C18	C	0.759980	-1.245246	0.506265
C19	C	0.760008	-1.128469	0.506280
C20	C	0.759967	-1.518149	0.779257
C21	C	0.760005	-1.518217	0.896033
C22	C	0.760027	-1.792246	0.506315
C23	C	0.760038	-1.909023	0.506325
C24	C	1.171484	-1.518205	0.506291
C25	C	1.350128	-1.518208	0.506302
C26	C	0.760074	-1.518306	0.232256
C27	C	0.760104	-1.518346	0.115479
C28	C	0.861091	-0.963890	0.439231
C29	C	0.861081	-1.073614	0.439210
C30	C	0.658949	-1.073594	0.573382
C31	C	0.658969	-0.963872	0.573407
C32	C	0.659225	-1.585494	0.950865
C33	C	0.659278	-1.585561	1.060589
C34	C	0.860894	-1.451067	1.060640
C35	C	0.860848	-1.451006	0.950918
H36	H	0.943388	-0.919235	0.384608
H37	H	0.942922	-1.396221	0.906271
F38	F	0.551901	-1.657028	0.892456
F39	F	0.968641	-1.132003	0.367802
H40	H	0.576678	-0.919198	0.628049
H41	H	0.576660	-1.118266	0.627995
F42	F	0.552019	-1.657168	1.118940
H43	H	0.942995	-1.396344	1.105341
