data_functionalizedCrystal
_audit_creation_method	'MofGen! by Chris Wilmer'
_symmetry_space_group_name_H-M	'P1'
_symmetry_Int_Tables_number	1
_symmetry_cell_setting	triclinic
loop_
_symmetry_equiv_pos_as_xyz
  x,y,z
_cell_length_a	19.805407
_cell_length_b	18.101395
_cell_length_c	19.805399
_cell_angle_alpha	90.025118
_cell_angle_beta	90.019573
_cell_angle_gamma	90.031104
loop_
_atom_site_label
_atom_site_type_symbol
_atom_site_fract_x
_atom_site_fract_y
_atom_site_fract_z
Zn1	Zn	1.034714	-0.294847	0.382731
Zn2	Zn	1.534714	0.205153	0.882731
Zn3	Zn	1.034619	-0.418690	0.269548
Zn4	Zn	1.534619	0.081310	0.769548
Zn5	Zn	0.921528	-0.294867	0.269556
Zn6	Zn	1.421528	0.205133	0.769556
Zn7	Zn	0.921482	-0.418651	0.382695
Zn8	Zn	1.421482	0.081349	0.882695
O9	O	0.978086	-0.356764	0.326132
O10	O	1.478086	0.143236	0.826132
O11	O	1.129418	-0.311283	0.367729
O12	O	1.629418	0.188717	0.867729
O13	O	1.019597	-0.402290	0.174832
O14	O	1.519597	0.097710	0.674832
O15	O	0.936601	-0.191232	0.284587
O16	O	1.436601	0.308768	0.784587
O17	O	1.129348	-0.402270	0.284574
O18	O	1.629348	0.097730	0.784574
O19	O	1.019758	-0.191217	0.367737
O20	O	1.519758	0.308783	0.867737
O21	O	0.936510	-0.311318	0.174838
O22	O	1.436510	0.188682	0.674838
O23	O	0.826806	-0.311279	0.284552
O24	O	1.326806	0.188721	0.784552
O25	O	0.936523	-0.402203	0.477416
O26	O	1.436523	0.097797	0.977416
O27	O	0.826772	-0.402223	0.367674
O28	O	1.326772	0.097777	0.867674
O29	O	1.019714	-0.311245	0.477443
O30	O	1.519714	0.188755	0.977443
O31	O	1.019553	-0.522318	0.284538
O32	O	1.519553	-0.022318	0.784538
O33	O	0.936432	-0.522289	0.367667
O34	O	1.436432	-0.022289	0.867667
C35	C	0.802230	-0.356750	0.326110
C36	C	1.302230	0.143250	0.826110
C37	C	0.726998	-0.356761	0.326117
C38	C	1.226998	0.143239	0.826117
C39	C	0.691654	-0.404187	0.369329
C40	C	1.191654	0.095813	0.869329
C41	C	0.620965	-0.404188	0.369339
C42	C	1.120965	0.095812	0.869339
C43	C	0.585622	-0.356767	0.326132
C44	C	1.085622	0.143233	0.826132
C45	C	0.620971	-0.309336	0.282919
C46	C	1.120971	0.190664	0.782919
C47	C	0.691658	-0.309332	0.282913
C48	C	1.191658	0.190668	0.782913
C49	C	0.335898	-0.309353	0.282941
C50	C	0.835898	0.190647	0.782941
C51	C	0.265206	-0.309363	0.282948
C52	C	0.765206	0.190637	0.782948
C53	C	0.265205	-0.404209	0.369367
C54	C	0.765205	0.095791	0.869367
C55	C	0.335892	-0.404205	0.369361
C56	C	0.835892	0.095795	0.869361
C57	C	0.371235	-0.356771	0.326150
C58	C	0.871235	0.143229	0.826150
C59	C	0.447883	-0.356770	0.326141
C60	C	0.947883	0.143230	0.826141
C61	C	0.508975	-0.356772	0.326137
C62	C	1.008975	0.143228	0.826137
C63	C	0.977995	-0.549174	0.326112
C64	C	1.477995	-0.049174	0.826112
C65	C	0.978018	-0.631489	0.326127
C66	C	1.478018	-0.131489	0.826127
C67	C	0.978167	-0.930579	0.326163
C68	C	1.478167	-0.430579	0.826163
C69	C	0.925991	-0.899267	0.378595
C70	C	1.425991	-0.399267	0.878595
C71	C	0.925743	-0.813649	0.378431
C72	C	1.425743	-0.313649	0.878431
C73	C	0.978093	-0.782197	0.326146
C74	C	1.478093	-0.282197	0.826146
C75	C	0.958782	-0.813345	0.254811
C76	C	1.458782	-0.313345	0.754811
C77	C	0.958446	-0.898990	0.255125
C78	C	1.458446	-0.398990	0.755125
C79	C	1.049768	-0.898924	0.344438
C80	C	1.549768	-0.398924	0.844438
C81	C	1.049347	-0.813273	0.346002
C82	C	1.549347	-0.313273	0.846002
C83	C	0.978053	-0.698337	0.326131
C84	C	1.478053	-0.198337	0.826131
C85	C	0.978206	-1.014439	0.326173
C86	C	1.478206	-0.514439	0.826173
C87	C	1.154629	-0.356779	0.326155
C88	C	1.654629	0.143221	0.826155
C89	C	1.229861	-0.356785	0.326164
C90	C	1.729861	0.143215	0.826164
C91	C	0.978124	-0.356717	0.502675
C92	C	1.478124	0.143283	1.002675
C93	C	0.978140	-0.356697	0.577907
C94	C	1.478140	0.143303	1.077907
C95	C	0.978195	-0.163602	0.326167
C96	C	1.478195	0.336398	0.826167
C97	C	0.978242	-0.081288	0.326182
C98	C	1.478242	0.418712	0.826182
C99	C	0.978087	-0.356757	0.150276
C100	C	1.478087	0.143243	0.650276
C101	C	0.978202	-0.356568	0.075045
C102	C	1.478202	0.143432	0.575045
C103	C	1.021458	-0.309333	0.613266
C104	C	1.521458	0.190667	1.113266
C105	C	1.021465	-0.309311	0.683955
C106	C	1.521465	0.190689	1.183955
C107	C	0.978157	-0.356659	0.719283
C108	C	1.478157	0.143341	1.219283
C109	C	0.934834	-0.404025	0.683919
C110	C	1.434834	0.095975	1.183919
C111	C	0.934824	-0.404042	0.613231
C112	C	1.434824	0.095958	1.113231
C113	C	0.934872	-0.403956	0.968992
C114	C	1.434872	0.096044	1.468992
C115	C	0.934887	-0.403937	1.039684
C116	C	1.434887	0.096063	1.539684
C117	C	1.021513	-0.309225	1.039716
C118	C	1.521513	0.190775	1.539716
C119	C	1.021503	-0.309242	0.969028
C120	C	1.521503	0.190758	1.469028
C121	C	0.978178	-0.356606	0.933670
C122	C	1.478178	0.143394	1.433670
C123	C	0.978170	-0.356628	0.857022
C124	C	1.478170	0.143372	1.357022
C125	C	0.978168	-0.356641	0.795930
C126	C	1.478168	0.143359	1.295930
H127	H	0.937825	-0.792587	0.431325
H128	H	1.437825	-0.292587	0.931325
Br129	Br	0.383855	-0.468568	0.427996
Br130	Br	0.883855	0.031432	0.927996
H131	H	0.236420	-0.442829	0.404554
H132	H	0.736420	0.057171	0.904554
H133	H	1.056741	-0.270744	0.712741
H134	H	1.556741	0.229256	1.212741
Br135	Br	1.080285	-0.244987	0.921087
Br136	Br	1.580285	0.255013	1.421087
H137	H	0.899617	-0.442494	1.068446
H138	H	1.399617	0.057506	1.568446
Br139	Br	1.117573	-0.777575	0.286998
Br140	Br	1.617573	-0.277575	0.786998
Br141	Br	0.876053	-0.468279	0.731863
Br142	Br	1.376053	0.031721	1.231863
Br143	Br	1.114563	-0.932687	0.280800
Br144	Br	1.614563	-0.432687	0.780800
Br145	Br	0.945923	-0.933519	0.467045
Br146	Br	1.445923	-0.433519	0.967045
Br147	Br	0.217240	-0.245001	0.224307
Br148	Br	0.717240	0.254999	0.724307
H149	H	0.592189	-0.270722	0.247742
H150	H	1.092189	0.229278	0.747742
Br151	Br	0.383854	-0.244975	0.224301
Br152	Br	0.883854	0.255025	0.724301
Br153	Br	1.080312	-0.244944	1.087705
Br154	Br	1.580312	0.255056	1.587705
Br155	Br	0.739626	-0.244962	0.224270
Br156	Br	1.239626	0.255038	0.724270
Br157	Br	0.876072	-0.468234	0.921015
Br158	Br	1.376072	0.031766	1.421015
Br159	Br	1.080242	-0.245078	0.565328
Br160	Br	1.580242	0.254922	1.065328
H161	H	0.906106	-0.919033	0.239644
H162	H	1.406106	-0.419033	0.739644
Br163	Br	0.838073	-0.935264	0.358692
Br164	Br	1.338073	-0.435264	0.858692
H165	H	0.899543	-0.442604	0.584443
H166	H	1.399543	0.057396	1.084443
H167	H	0.720425	-0.442805	0.404510
H168	H	1.220425	0.057195	0.904510
Br169	Br	1.073622	-0.779340	0.433504
Br170	Br	1.573622	-0.279340	0.933504
Br171	Br	0.837283	-0.779601	0.358260
Br172	Br	1.337283	-0.279601	0.858260
H173	H	0.592192	-0.442808	0.404525
H174	H	1.092192	0.057192	0.904525
Br175	Br	1.019031	-0.933523	0.187788
Br176	Br	1.519031	-0.433523	0.687788
Br177	Br	1.020129	-0.779396	0.187919
Br178	Br	1.520129	-0.279396	0.687919
H179	H	0.906997	-0.791960	0.239053
H180	H	1.406997	-0.291960	0.739053
H181	H	1.067374	-0.920474	0.395569
H182	H	1.567374	-0.420474	0.895569
