data_functionalizedCrystal
_audit_creation_method	'MofGen! by Chris Wilmer'
_symmetry_space_group_name_H-M	'P1'
_symmetry_Int_Tables_number	1
_symmetry_cell_setting	triclinic
loop_
_symmetry_equiv_pos_as_xyz
  x,y,z
_cell_length_a	11.792241
_cell_length_b	11.792241
_cell_length_c	16.176319
_cell_angle_alpha	90.006929
_cell_angle_beta	90.003197
_cell_angle_gamma	84.193416
loop_
_atom_site_label
_atom_site_type_symbol
_atom_site_fract_x
_atom_site_fract_y
_atom_site_fract_z
O1	O	-1.506913	-0.155571	-0.068667
O2	O	-1.006913	0.344429	0.431333
O3	O	-1.176572	-0.171604	-0.068686
O4	O	-0.676572	0.328396	0.431314
O5	O	-1.349759	0.001583	-0.068670
O6	O	-0.849759	0.501583	0.431330
O7	O	-1.333726	-0.328758	-0.068683
O8	O	-0.833726	0.171242	0.431317
O9	O	-1.349735	0.001595	0.068823
O10	O	-0.849735	0.501595	0.568823
O11	O	-1.176548	-0.171592	0.068807
O12	O	-0.676548	0.328408	0.568807
O13	O	-1.506889	-0.155559	0.068827
O14	O	-1.006889	0.344441	0.568827
Cu15	Cu	-1.341716	-0.163575	0.081371
Cu16	Cu	-0.841716	0.336425	0.581371
Cu17	Cu	-1.341745	-0.163588	-0.081230
Cu18	Cu	-0.841745	0.336412	0.418770
O19	O	-1.333702	-0.328746	0.068811
O20	O	-0.833702	0.171254	0.568811
C21	C	-1.134269	-0.170591	0.000058
C22	C	-0.634269	0.329409	0.500058
C23	C	-1.008255	-0.167576	0.000051
C24	C	-0.508255	0.332424	0.500051
C25	C	-1.348740	0.043880	0.000076
C26	C	-0.848740	0.543880	0.500076
C27	C	-1.345726	0.169894	0.000075
C28	C	-0.845726	0.669894	0.500075
C29	C	-1.549192	-0.156572	0.000081
C30	C	-1.049192	0.343428	0.500081
C31	C	-1.675206	-0.159587	0.000082
C32	C	-1.175206	0.340413	0.500082
C33	C	-0.777543	-0.162034	0.000075
C34	C	-0.277543	0.337966	0.500075
C35	C	-0.905928	-0.165113	0.000062
C36	C	-0.405928	0.334887	0.500062
C37	C	-1.334721	-0.371043	0.000063
C38	C	-0.834721	0.128957	0.500063
C39	C	-1.337736	-0.497057	0.000058
C40	C	-0.837736	0.002943	0.500058
C41	C	-1.340183	0.400606	0.000061
C42	C	-0.840183	0.900606	0.500061
C43	C	-1.343262	0.272221	0.000069
C44	C	-0.843262	0.772221	0.500069
N45	N	-1.341705	-0.163565	0.195736
N46	N	-0.841705	0.336435	0.695736
N47	N	-1.341766	-0.163589	-0.195596
N48	N	-0.841766	0.336411	0.304404
C49	C	-1.418415	-0.086909	0.239008
C50	C	-0.918415	0.413091	0.739008
C51	C	-1.418421	-0.086908	0.325555
C52	C	-0.918421	0.413092	0.825555
C53	C	-1.341721	-0.163569	0.368829
C54	C	-0.841721	0.336431	0.868829
C55	C	-1.265002	-0.240228	0.325552
C56	C	-0.765002	0.259772	0.825552
C57	C	-1.264992	-0.240223	0.239006
C58	C	-0.764992	0.259777	0.739006
C59	C	-1.265041	-0.240250	0.674580
C60	C	-0.765041	0.259750	1.174580
C61	C	-1.265059	-0.240251	0.761131
C62	C	-0.765059	0.259749	1.261131
C63	C	-1.418470	-0.086935	0.761128
C64	C	-0.918470	0.413065	1.261128
C65	C	-1.418460	-0.086930	0.674583
C66	C	-0.918460	0.413070	1.174583
C67	C	-1.341738	-0.163584	0.631313
C68	C	-0.841738	0.336416	1.131313
C69	C	-1.341731	-0.163583	0.537469
C70	C	-0.841731	0.336417	1.037469
C71	C	-1.341732	-0.163576	0.462672
C72	C	-0.841732	0.336424	0.962672
H73	H	-1.480878	-0.024488	0.203779
H74	H	-0.980878	0.475512	0.703779
N75	N	-1.186684	-0.318555	0.805324
N76	N	-0.686684	0.181445	1.305324
N77	N	-1.081770	-0.316277	0.795673
N78	N	-0.581770	0.183723	1.295673
H79	H	-1.026420	-0.371576	0.826883
H80	H	-0.526420	0.128424	1.326883
N81	N	-1.186663	-0.318550	0.630401
N82	N	-0.686663	0.181450	1.130401
N83	N	-1.118188	-0.386989	0.669052
N84	N	-0.618188	0.113011	1.169052
H85	H	-1.062827	-0.442292	0.637849
H86	H	-0.562827	0.057708	1.137849
N87	N	-1.186652	-0.318520	0.369765
N88	N	-0.686652	0.181480	0.869765
N89	N	-1.186671	-0.318516	0.447037
N90	N	-0.686671	0.181484	0.947037
H91	H	-1.131336	-0.373812	0.478263
H92	H	-0.631336	0.126188	0.978263
H93	H	-1.202525	-0.302642	0.203776
H94	H	-0.702525	0.197358	0.703776
H95	H	-1.480884	-0.024489	0.360786
H96	H	-0.980884	0.475511	0.860786
H97	H	-1.480920	-0.024509	0.639352
H98	H	-0.980920	0.475491	1.139352
H99	H	-1.480939	-0.024515	0.796368
H100	H	-0.980939	0.475485	1.296368
