data_functionalizedCrystal
_audit_creation_method	'MofGen! by Chris Wilmer'
_symmetry_space_group_name_H-M	'P1'
_symmetry_Int_Tables_number	1
_symmetry_cell_setting	triclinic
loop_
_symmetry_equiv_pos_as_xyz
  x,y,z
_cell_length_a	19.188930
_cell_length_b	19.188930
_cell_length_c	18.266242
_cell_angle_alpha	89.988525
_cell_angle_beta	89.977082
_cell_angle_gamma	83.144779
loop_
_atom_site_label
_atom_site_type_symbol
_atom_site_fract_x
_atom_site_fract_y
_atom_site_fract_z
O1	O	0.926149	0.087169	-0.061124
O2	O	1.426149	0.587169	0.438876
O3	O	0.722838	0.098903	-0.061075
O4	O	1.222838	0.598903	0.438925
O5	O	0.830361	-0.008620	-0.061087
O6	O	1.330361	0.491380	0.438913
O7	O	0.818627	0.194691	-0.061113
O8	O	1.318627	0.694691	0.438887
O9	O	0.830343	-0.008625	0.060675
O10	O	1.330343	0.491375	0.560675
O11	O	0.722820	0.098897	0.060687
O12	O	1.222820	0.598897	0.560687
O13	O	0.926131	0.087163	0.060638
O14	O	1.426131	0.587163	0.560638
Zn15	Zn	0.824473	0.093029	0.079994
Zn16	Zn	1.324473	0.593029	0.579994
Zn17	Zn	0.824497	0.093037	-0.080432
Zn18	Zn	1.324497	0.593037	0.419568
O19	O	0.818608	0.194686	0.060649
O20	O	1.318608	0.694686	0.560649
C21	C	0.696818	0.098520	-0.000188
C22	C	1.196818	0.598520	0.499812
C23	C	0.619313	0.097380	-0.000169
C24	C	1.119313	0.597380	0.499831
C25	C	0.574389	0.160470	-0.000188
C26	C	1.074389	0.660470	0.499812
C27	C	0.501566	0.159399	-0.000196
C28	C	1.001566	0.659399	0.499804
C29	C	0.473669	0.095233	-0.000199
C30	C	0.973669	0.595233	0.499801
C31	C	0.518603	0.032133	-0.000175
C32	C	1.018603	0.532133	0.499825
C33	C	0.591425	0.033207	-0.000160
C34	C	1.091425	0.533207	0.499840
N35	N	0.365695	0.046188	-0.041663
N36	N	0.865695	0.546188	0.458337
N37	N	0.296516	0.045172	-0.041679
N38	N	0.796516	0.545172	0.458321
C39	C	0.254260	0.091994	-0.000243
C40	C	0.754260	0.591994	0.499757
N41	N	0.283795	0.139881	0.041200
N42	N	0.783795	0.639881	0.541200
N43	N	0.352980	0.140899	0.041213
N44	N	0.852980	0.640899	0.541213
C45	C	0.394707	0.094062	-0.000215
C46	C	0.894707	0.594062	0.499785
C47	C	0.130372	0.153928	-0.000270
C48	C	0.630372	0.653928	0.499730
C49	C	0.057547	0.152853	-0.000274
C50	C	0.557547	0.652853	0.499726
C51	C	0.074586	0.025586	-0.000261
C52	C	0.574586	0.525586	0.499739
C53	C	0.147409	0.026662	-0.000250
C54	C	0.647409	0.526662	0.499750
C55	C	0.175298	0.090835	-0.000258
C56	C	0.675298	0.590835	0.499742
C57	C	0.829972	-0.034634	-0.000204
C58	C	1.329972	0.465366	0.499796
C59	C	0.828831	-0.112138	-0.000197
C60	C	1.328831	0.387862	0.499803
C61	C	0.891922	-0.157062	-0.000209
C62	C	1.391922	0.342938	0.499791
C63	C	0.890850	-0.229886	-0.000220
C64	C	1.390850	0.270114	0.499780
C65	C	0.826684	-0.257782	-0.000206
C66	C	1.326684	0.242218	0.499794
C67	C	0.763585	-0.212849	-0.000198
C68	C	1.263585	0.287151	0.499802
C69	C	0.764658	-0.140026	-0.000194
C70	C	1.264658	0.359974	0.499806
N71	N	0.777631	-0.365789	0.041244
N72	N	1.277631	0.134211	0.541244
N73	N	0.776615	-0.434968	0.041242
N74	N	1.276615	0.065032	0.541242
C75	C	0.823446	-0.477191	-0.000220
C76	C	1.323446	0.022809	0.499780
N77	N	0.871341	-0.447624	-0.041669
N78	N	1.371341	0.052376	0.458331
N79	N	0.872359	-0.378439	-0.041664
N80	N	1.372359	0.121561	0.458336
C81	C	0.825513	-0.336745	-0.000210
C82	C	1.325513	0.163255	0.499790
C83	C	0.885379	-0.601079	-0.000245
C84	C	1.385379	-0.101079	0.499755
C85	C	0.884305	-0.673904	-0.000261
C86	C	1.384305	-0.173904	0.499739
C87	C	0.757038	-0.656865	-0.000231
C88	C	1.257038	-0.156865	0.499769
C89	C	0.758114	-0.584042	-0.000222
C90	C	1.258114	-0.084042	0.499778
C91	C	0.822287	-0.556154	-0.000226
C92	C	1.322287	-0.056154	0.499774
C93	C	0.952151	0.087546	-0.000252
C94	C	1.452151	0.587546	0.499748
C95	C	1.029656	0.088687	-0.000276
C96	C	1.529656	0.588687	0.499724
C97	C	0.818997	0.220700	-0.000236
C98	C	1.318997	0.720700	0.499764
C99	C	0.820138	0.298204	-0.000247
C100	C	1.320138	0.798204	0.499753
N101	N	0.824461	0.093024	0.189481
N102	N	1.324461	0.593024	0.689481
N103	N	0.824513	0.093037	-0.189919
N104	N	1.324513	0.593037	0.310081
C105	C	0.872088	0.045436	0.227785
C106	C	1.372088	0.545436	0.727785
C107	C	0.872092	0.045433	0.304430
C108	C	1.372092	0.545433	0.804430
C109	C	0.824477	0.093030	0.342768
C110	C	1.324477	0.593030	0.842768
C111	C	0.776841	0.140621	0.304455
C112	C	1.276841	0.640621	0.804455
C113	C	0.776834	0.140618	0.227812
C114	C	1.276834	0.640618	0.727812
N115	N	0.815401	0.154837	0.463094
N116	N	1.315401	0.654837	0.963094
N117	N	0.815413	0.154838	0.535902
N118	N	1.315413	0.654838	1.035902
C119	C	0.824496	0.093040	0.573691
C120	C	1.324496	0.593040	1.073691
N121	N	0.833582	0.031239	0.535920
N122	N	1.333582	0.531239	1.035920
N123	N	0.833574	0.031240	0.463106
N124	N	1.333574	0.531240	0.963106
C125	C	0.824480	0.093038	0.425875
C126	C	1.324480	0.593038	0.925875
C127	C	0.872131	0.045444	0.695101
C128	C	1.372131	0.545444	1.195101
C129	C	0.872130	0.045440	0.771748
C130	C	1.372130	0.545440	1.271748
C131	C	0.776882	0.140634	0.771772
C132	C	1.276882	0.640634	1.271772
C133	C	0.776879	0.140632	0.695127
C134	C	1.276879	0.640632	1.195127
C135	C	0.824507	0.093038	0.656796
C136	C	1.324507	0.593038	1.156796
H137	H	0.495885	-0.020111	-0.000188
H138	H	0.995885	0.479889	0.499812
H139	H	0.713281	-0.103448	-0.000184
H140	H	1.213281	0.396552	0.499816
H141	H	0.706738	-0.547464	-0.000208
H142	H	1.206738	-0.047464	0.499792
H143	H	0.910877	0.006680	0.335623
H144	H	1.410877	0.506680	0.835623
N145	N	0.725483	0.191953	0.345805
N146	N	1.225483	0.691953	0.845805
H147	H	0.752068	0.222806	0.377580
H148	H	1.252068	0.722806	0.877580
H149	H	0.695320	0.222053	0.309861
H150	H	1.195320	0.722053	0.809861
N151	N	0.923453	-0.005897	0.186443
N152	N	1.423453	0.494103	0.686443
H153	H	0.953625	-0.036046	0.222343
H154	H	1.453625	0.463954	0.722343
H155	H	0.896818	-0.036702	0.154667
H156	H	1.396818	0.463298	0.654667
H157	H	0.704792	-0.679578	-0.000222
H158	H	1.204792	-0.179578	0.499778
H159	H	0.937632	-0.578372	-0.000251
H160	H	1.437632	-0.078372	0.499749
H161	H	0.020970	0.204232	-0.000285
H162	H	0.520970	0.704232	0.499715
N163	N	0.694374	-0.242928	-0.000173
N164	N	1.194374	0.257072	0.499827
H165	H	0.666749	-0.226523	-0.045304
H166	H	1.166749	0.273477	0.454696
H167	H	0.703323	-0.295873	-0.000146
H168	H	1.203323	0.204127	0.499854
N169	N	0.639884	-0.034844	-0.000136
N170	N	1.139884	0.465156	0.499864
H171	H	0.611165	-0.075657	-0.000135
H172	H	1.111165	0.424343	0.499865
H173	H	0.670495	-0.037170	-0.045268
H174	H	1.170495	0.462830	0.454732
H175	H	0.738110	0.179386	0.802986
H176	H	1.238110	0.679386	1.302986
H177	H	0.738049	0.179371	0.196624
H178	H	1.238049	0.679371	0.696624
H179	H	0.910910	0.006688	0.663892
H180	H	1.410910	0.506688	1.163892
H181	H	0.910911	0.006685	0.802935
H182	H	1.410911	0.506685	1.302935
N183	N	0.952356	-0.722362	-0.000276
N184	N	1.452356	-0.222362	0.499724
H185	H	0.993169	-0.693642	-0.000276
H186	H	1.493169	-0.193642	0.499724
H187	H	0.954670	-0.752959	0.044859
H188	H	1.454670	-0.252959	0.544859
H189	H	0.153080	0.206181	-0.000267
H190	H	0.653080	0.706181	0.499733
H191	H	0.051874	-0.026659	-0.000309
H192	H	0.551874	0.473341	0.499691
H193	H	0.464982	0.210776	-0.000210
H194	H	0.964982	0.710776	0.499790
H195	H	0.942228	-0.266470	-0.000233
H196	H	1.442228	0.233530	0.499767
H197	H	0.738100	0.179386	0.663938
H198	H	1.238100	0.679386	1.163938
N199	N	0.195866	-0.041388	-0.000246
N200	N	0.695866	0.458612	0.499754
H201	H	0.246231	-0.030971	-0.000237
H202	H	0.746231	0.469029	0.499763
H203	H	0.186833	-0.069367	0.044892
H204	H	0.686833	0.430633	0.544892
N205	N	0.604469	0.229682	-0.000202
N206	N	1.104469	0.729682	0.499798
H207	H	0.564955	0.269487	-0.000218
H208	H	1.064955	0.769487	0.499782
H209	H	0.634288	0.232905	0.044940
H210	H	1.134288	0.732905	0.544940
N211	N	0.961133	-0.126982	-0.000214
N212	N	1.461133	0.373018	0.499786
H213	H	1.000939	-0.166496	-0.000224
H214	H	1.500939	0.333504	0.499776
H215	H	0.964361	-0.097129	-0.045352
H216	H	1.464361	0.402871	0.454648
