data_functionalizedCrystal
_audit_creation_method	'MofGen! by Chris Wilmer'
_symmetry_space_group_name_H-M	'P1'
_symmetry_Int_Tables_number	1
_symmetry_cell_setting	triclinic
loop_
_symmetry_equiv_pos_as_xyz
  x,y,z
_cell_length_a	14.853558
_cell_length_b	14.853567
_cell_length_c	11.804365
_cell_angle_alpha	101.851263
_cell_angle_beta	78.135926
_cell_angle_gamma	83.633032
loop_
_atom_site_label
_atom_site_type_symbol
_atom_site_fract_x
_atom_site_fract_y
_atom_site_fract_z
O1	O	1.214556	0.099488	-0.099003
O2	O	0.952096	0.113517	-0.099008
O3	O	1.090338	-0.024728	-0.099009
O4	O	1.076315	0.237733	-0.099002
O5	O	1.053944	0.011630	0.099047
O6	O	0.915703	0.149875	0.099049
O7	O	1.178163	0.135846	0.099053
Cu8	Cu	1.043610	0.146180	0.117135
Cu9	Cu	1.086649	0.103183	-0.117090
O10	O	1.039921	0.274091	0.099054
C11	C	0.900311	0.131062	0.000020
C12	C	0.800227	0.129161	0.000018
C13	C	0.773046	0.108450	-0.107947
C14	C	0.733366	0.148078	0.107981
C15	C	0.639332	0.146288	0.107983
C16	C	0.612151	0.125577	0.000018
C17	C	0.679004	0.106656	-0.107949
C18	C	0.572474	0.165199	0.215948
C19	C	0.478434	0.163409	0.215954
C20	C	0.451250	0.142704	0.107988
C21	C	0.518110	0.123784	0.000017
C22	C	0.490928	0.103073	-0.107948
C23	C	0.557785	0.084159	-0.215921
C24	C	0.651821	0.085952	-0.215915
C25	C	0.357215	0.140911	0.107982
C26	C	0.396887	0.101279	-0.107950
C27	C	1.071506	-0.040139	0.000016
C28	C	1.069604	-0.140224	0.000005
C29	C	0.979434	-0.552751	0.000027
C30	C	1.143667	-0.574037	0.000029
C31	C	1.145459	-0.480005	0.000022
C32	C	1.064236	-0.422341	0.000019
C33	C	0.981223	-0.458709	0.000023
C34	C	1.228469	-0.443627	0.000030
C35	C	1.230263	-0.349589	0.000025
C36	C	1.149041	-0.291925	0.000013
C37	C	1.066025	-0.328299	0.000016
C38	C	0.984802	-0.270635	0.000013
C39	C	0.901786	-0.307008	0.000007
C40	C	0.900001	-0.401045	0.000012
C41	C	1.150827	-0.197888	0.000008
C42	C	0.986590	-0.176592	0.000009
C43	C	1.229949	0.118301	0.000023
C44	C	1.330034	0.120200	0.000017
C45	C	1.058753	0.289501	0.000027
C46	C	1.060657	0.389585	0.000030
N47	N	1.013344	0.176422	0.281876
N48	N	1.116922	0.072934	-0.281830
C49	C	1.189600	0.000295	0.655823
C50	C	1.212494	-0.022586	0.531161
C51	C	1.162708	0.027164	0.468834
C52	C	1.090025	0.099799	0.531180
C53	C	1.067133	0.122688	0.655854
C54	C	1.040241	0.149556	0.468865
C55	C	0.967558	0.222192	0.531212
C56	C	0.944669	0.245076	0.655874
C57	C	0.994455	0.195327	0.718201
C58	C	1.063133	0.126668	0.344191
C59	C	0.940666	0.249060	0.344223
C60	C	0.917772	0.271942	0.468884
H61	H	0.302783	0.156319	0.195892
H62	H	0.832413	-0.430669	0.000008
Cl63	Cl	0.523605	0.058102	-0.351642
H64	H	1.294593	-0.490581	0.000044
Cl65	Cl	1.334628	-0.303874	0.000012
Cl66	Cl	1.252188	-0.062233	0.734178
H67	H	0.975812	0.213954	0.819711
H68	H	0.827484	0.093054	-0.195856
Cl69	Cl	0.767540	0.174112	0.243701
H70	H	0.900128	0.289573	0.293476
H71	H	1.122313	0.067528	0.293439
H72	H	1.209793	-0.620990	0.000041
Cl73	Cl	0.875078	-0.598477	0.000008
Cl74	Cl	0.606649	0.191237	0.351666
H75	H	0.920449	-0.129649	0.000002
H76	H	0.885492	0.304227	0.706637
Cl77	Cl	0.394393	0.187199	0.351688
Cl78	Cl	1.255177	-0.152160	0.000038
Cl79	Cl	0.362724	0.075248	-0.243686
Cl80	Cl	0.735874	0.062164	-0.351638
H81	H	1.181353	0.008530	0.367328
Cl82	Cl	0.799680	-0.234504	0.000013
H83	H	1.271673	-0.081724	0.480403
H84	H	0.858591	0.331084	0.519663
