data_functionalizedCrystal
_audit_creation_method	'MofGen! by Chris Wilmer'
_symmetry_space_group_name_H-M	'P1'
_symmetry_Int_Tables_number	1
_symmetry_cell_setting	triclinic
loop_
_symmetry_equiv_pos_as_xyz
  x,y,z
_cell_length_a	18.050591
_cell_length_b	18.050589
_cell_length_c	18.215399
_cell_angle_alpha	89.976397
_cell_angle_beta	89.974300
_cell_angle_gamma	90.024227
loop_
_atom_site_label
_atom_site_type_symbol
_atom_site_fract_x
_atom_site_fract_y
_atom_site_fract_z
Zn1	Zn	1.135328	-0.295746	-0.416253
Zn2	Zn	1.635328	0.204254	0.083747
Zn3	Zn	1.135228	-0.419941	-0.293196
Zn4	Zn	1.635228	0.080059	0.206804
Zn5	Zn	1.011136	-0.295761	-0.293188
Zn6	Zn	1.511136	0.204239	0.206812
Zn7	Zn	1.011095	-0.419890	-0.416209
Zn8	Zn	1.511095	0.080110	0.083791
O9	O	1.073197	-0.357835	-0.354712
O10	O	1.573197	0.142165	0.145288
O11	O	1.239239	-0.312236	-0.399952
O12	O	1.739239	0.187764	0.100048
O13	O	1.118743	-0.403496	-0.190211
O14	O	1.618743	0.096504	0.309789
O15	O	1.027670	-0.191834	-0.309528
O16	O	1.527670	0.308166	0.190472
O17	O	1.239166	-0.403482	-0.309542
O18	O	1.739166	0.096518	0.190458
O19	O	1.118912	-0.191824	-0.399944
O20	O	1.618912	0.308176	0.100056
O21	O	1.027573	-0.312261	-0.190205
O22	O	1.527573	0.187739	0.309795
O23	O	0.907206	-0.312212	-0.309485
O24	O	1.407206	0.187788	0.190515
O25	O	1.027599	-0.403395	-0.519199
O26	O	1.527599	0.096605	-0.019199
O27	O	0.907176	-0.403409	-0.399868
O28	O	1.407176	0.096591	0.100132
O29	O	1.118872	-0.312187	-0.519232
O30	O	1.618872	0.187813	-0.019232
O31	O	1.118702	-0.523859	-0.309499
O32	O	1.618702	-0.023859	0.190501
O33	O	1.027502	-0.523822	-0.399876
O34	O	1.527502	-0.023822	0.100124
C35	C	0.880245	-0.357807	-0.354671
C36	C	1.380245	0.142193	0.145329
C37	C	0.797699	-0.357813	-0.354671
C38	C	1.297699	0.142187	0.145329
C39	C	0.598243	-0.308162	-0.305634
C40	C	1.098243	0.191838	0.194366
C41	C	0.548822	-0.375900	-0.287528
C42	C	1.048822	0.124100	0.212472
C43	C	0.646568	-0.357836	-0.354704
C44	C	1.146568	0.142164	0.145296
C45	C	0.548908	-0.290121	-0.372808
C46	C	1.048908	0.209879	0.127192
C47	C	0.500583	-0.357851	-0.354735
C48	C	1.000583	0.142149	0.145265
C49	C	0.598234	-0.425609	-0.336563
C50	C	1.098234	0.074391	0.163437
C51	C	0.598325	-0.339784	-0.421874
C52	C	1.098325	0.160216	0.078126
C53	C	0.548926	-0.407569	-0.403794
C54	C	1.048926	0.092431	0.096206
C55	C	0.730667	-0.357825	-0.354685
C56	C	1.230667	0.142175	0.145315
C57	C	0.416487	-0.357869	-0.354755
C58	C	0.916487	0.142131	0.145245
C59	C	1.073107	-0.550787	-0.354699
C60	C	1.573107	-0.050787	0.145301
C61	C	1.073137	-0.633333	-0.354719
C62	C	1.573137	-0.133333	0.145281
C63	C	1.023591	-0.832790	-0.403848
C64	C	1.523591	-0.332790	0.096152
C65	C	1.005487	-0.882229	-0.336692
C66	C	1.505487	-0.382229	0.163308
C67	C	1.073210	-0.784463	-0.354728
C68	C	1.573210	-0.284463	0.145272
C69	C	1.091350	-0.882105	-0.421892
C70	C	1.591350	-0.382105	0.078108
C71	C	1.073279	-0.930448	-0.354743
C72	C	1.573279	-0.430448	0.145257
C73	C	1.055070	-0.832815	-0.287537
C74	C	1.555070	-0.332815	0.212463
C75	C	1.140964	-0.832687	-0.372782
C76	C	1.640964	-0.332687	0.127218
C77	C	1.122886	-0.882104	-0.305579
C78	C	1.622886	-0.382104	0.194421
C79	C	1.073168	-0.700365	-0.354721
C80	C	1.573168	-0.200365	0.145279
C81	C	1.073320	-1.014544	-0.354744
C82	C	1.573320	-0.514544	0.145256
C83	C	1.266902	-0.357863	-0.354753
C84	C	1.766902	0.142137	0.145247
C85	C	1.349448	-0.357875	-0.354770
C86	C	1.849448	0.142125	0.145230
C87	C	1.073242	-0.357783	-0.546665
C88	C	1.573242	0.142217	-0.046665
C89	C	1.073261	-0.357762	-0.628463
C90	C	1.573261	0.142238	-0.128463
C91	C	1.073307	-0.164129	-0.354740
C92	C	1.573307	0.335871	0.145260
C93	C	1.073354	-0.081583	-0.354752
C94	C	1.573354	0.418417	0.145248
C95	C	1.120804	-0.310225	-0.816676
C96	C	1.620804	0.189775	-0.316676
C97	C	1.120813	-0.310203	-0.893535
C98	C	1.620813	0.189797	-0.393535
C99	C	1.025771	-0.405183	-0.893489
C100	C	1.525771	0.094817	-0.393489
C101	C	1.025759	-0.405201	-0.816632
C102	C	1.525759	0.094799	-0.316632
C103	C	1.073280	-0.357723	-0.778227
C104	C	1.573280	0.142277	-0.278227
C105	C	1.073301	-0.357684	-0.931943
C106	C	1.573301	0.142316	-0.431943
C107	C	1.073310	-0.357660	-1.015277
C108	C	1.573310	0.142340	-0.515277
C109	C	1.073270	-0.357745	-0.694888
C110	C	1.573270	0.142255	-0.194888
C111	C	1.073194	-0.357832	-0.163505
C112	C	1.573194	0.142168	0.336495
C113	C	1.073319	-0.357645	-0.081707
C114	C	1.573319	0.142355	0.418293
H115	H	0.620085	-0.324484	-0.478648
H116	H	1.120085	0.175516	0.021352
H117	H	0.619897	-0.266201	-0.264092
H118	H	1.119897	0.233799	0.235908
C119	C	0.519442	-0.396539	-0.210808
C120	C	1.019442	0.103461	0.289192
N121	N	0.497314	-0.412078	-0.153020
N122	N	0.997314	0.087922	0.346980
H123	H	0.987082	-0.443840	-0.924768
H124	H	1.487082	0.056160	-0.424768
C125	C	0.519639	-0.212750	-0.393480
C126	C	1.019639	0.287250	0.106520
N127	N	0.497596	-0.154472	-0.409046
N128	N	0.997596	0.345528	0.090954
H129	H	0.619812	-0.482897	-0.321201
H130	H	1.119812	0.017103	0.178799
H131	H	0.987053	-0.443878	-0.785326
H132	H	1.487053	0.056122	-0.285326
C133	C	1.173096	-0.257954	-0.935825
C134	C	1.673096	0.242046	-0.435825
N135	N	1.212478	-0.218598	-0.967677
N136	N	1.712478	0.281402	-0.467677
C137	C	0.966821	-0.803529	-0.459883
C138	C	1.466821	-0.303529	0.040117
N139	N	0.924060	-0.781486	-0.502084
N140	N	1.424060	-0.281486	-0.002084
C141	C	0.928120	-0.911628	-0.316066
C142	C	1.428120	-0.411628	0.183934
N143	N	0.869846	-0.933769	-0.300536
N144	N	1.369846	-0.433769	0.199464
C145	C	0.519847	-0.464392	-0.459869
C146	C	1.019847	0.035608	0.040131
N147	N	0.497942	-0.507194	-0.502100
N148	N	0.997942	-0.007194	-0.002100
C149	C	1.173072	-0.257992	-0.774433
C150	C	1.673072	0.242008	-0.274433
N151	N	1.212439	-0.218645	-0.742618
N152	N	1.712439	0.281355	-0.242618
H153	H	1.164877	-0.903620	-0.263999
H154	H	1.664877	-0.403620	0.236001
C155	C	1.034287	-0.803688	-0.210790
C156	C	1.534287	-0.303688	0.289210
N157	N	1.018629	-0.781748	-0.152987
N158	N	1.518629	-0.281748	0.347013
C159	C	1.218304	-0.803253	-0.393442
C160	C	1.718304	-0.303253	0.106558
N161	N	1.276554	-0.781078	-0.409014
N162	N	1.776554	-0.281078	0.090986
C163	C	1.112041	-0.911355	-0.498617
C164	C	1.612041	-0.411355	0.001383
N165	N	1.127621	-0.933383	-0.556408
N166	N	1.627621	-0.433383	-0.056408
