data_functionalizedCrystal
_audit_creation_method	'MofGen! by Chris Wilmer'
_symmetry_space_group_name_H-M	'P1'
_symmetry_Int_Tables_number	1
_symmetry_cell_setting	triclinic
loop_
_symmetry_equiv_pos_as_xyz
  x,y,z
_cell_length_a	19.121102
_cell_length_b	19.120904
_cell_length_c	13.897447
_cell_angle_alpha	92.415897
_cell_angle_beta	87.573956
_cell_angle_gamma	90.088173
loop_
_atom_site_label
_atom_site_type_symbol
_atom_site_fract_x
_atom_site_fract_y
_atom_site_fract_z
Zn1	Zn	1.054878	-0.442077	-0.471841
Zn2	Zn	1.059808	-0.324845	-0.626569
Zn3	Zn	0.942646	-0.319860	-0.458122
Zn4	Zn	0.937620	-0.437047	-0.625920
O5	O	0.998738	-0.380957	-0.545613
O6	O	1.153638	-0.430717	-0.498379
O7	O	1.048433	-0.226079	-0.598753
O8	O	0.957574	-0.336091	-0.324963
O9	O	1.157260	-0.344587	-0.612057
O10	O	1.040031	-0.425883	-0.335043
O11	O	0.962355	-0.222416	-0.474996
O12	O	0.843874	-0.331214	-0.474367
O13	O	0.949008	-0.535820	-0.610952
O14	O	0.840181	-0.417311	-0.597648
O15	O	1.035157	-0.539515	-0.497751
O16	O	1.043560	-0.339710	-0.761461
O17	O	0.953788	-0.422145	-0.760984
C18	C	0.816589	-0.373177	-0.534449
C19	C	0.738665	-0.369865	-0.529698
C20	C	0.990972	-0.563816	-0.555809
C21	C	0.987662	-0.641739	-0.560154
C22	C	0.998682	-0.380939	-0.796223
C23	C	0.998721	-0.380957	-0.903440
C24	C	0.700154	-0.413064	-0.591740
C25	C	0.626935	-0.409955	-0.587263
C26	C	0.592229	-0.363643	-0.520747
C27	C	0.630744	-0.320442	-0.458698
C28	C	0.703962	-0.323555	-0.463171
C29	C	0.371255	-0.352009	-0.504021
C30	C	0.298033	-0.348898	-0.499554
C31	C	0.294229	-0.438413	-0.628119
C32	C	0.367448	-0.441519	-0.632590
C33	C	0.405957	-0.398320	-0.570537
C34	C	0.517388	-0.360463	-0.516171
C35	C	0.480796	-0.401504	-0.575109
C36	C	1.181598	-0.388769	-0.556821
C37	C	1.259522	-0.392098	-0.561597
C38	C	1.030958	-0.680273	-0.503261
C39	C	1.027840	-0.753490	-0.507339
C40	C	0.981428	-0.788172	-0.568317
C41	C	0.938127	-0.749633	-0.625213
C42	C	0.941243	-0.676418	-0.621129
C43	C	0.969775	-1.009140	-0.583592
C44	C	0.966664	-1.082361	-0.587674
C45	C	1.056376	-1.086213	-0.469799
C46	C	1.059490	-1.012995	-0.465724
C47	C	1.016187	-0.974463	-0.522616
C48	C	0.978241	-0.863012	-0.572489
C49	C	1.019371	-0.899625	-0.518438
C50	C	1.006515	-0.198812	-0.535389
C51	C	1.009960	-0.120895	-0.530781
C52	C	0.998754	-0.380974	-0.990513
C53	C	0.998802	-0.380994	-1.099749
C54	C	0.998813	-0.380992	-0.294026
C55	C	0.998845	-0.381007	-0.186815
H56	H	0.595583	-0.445132	-0.637786
H57	H	0.602480	-0.282737	-0.404535
H58	H	0.728407	-0.450774	-0.645908
H59	H	0.395701	-0.479229	-0.686756
H60	H	0.262867	-0.473584	-0.678637
H61	H	0.269777	-0.311190	-0.445378
O62	O	1.109549	-0.975593	-0.399951
H63	H	1.104446	-0.918208	-0.406676
O64	O	0.518230	-0.451464	-0.646833
H65	H	0.552910	-0.421445	-0.696125
O66	O	0.894536	-0.634859	-0.682489
H67	H	0.927309	-0.602828	-0.731626
O68	O	0.412788	-0.305397	-0.437126
H69	H	0.376351	-0.272660	-0.390140
O70	O	0.745504	-0.276953	-0.396266
H71	H	0.709071	-0.244219	-0.349270
H72	H	0.489121	-0.322754	-0.462016
H73	H	0.900336	-0.777877	-0.674859
H74	H	1.091630	-1.117594	-0.423479
O75	O	0.916600	-1.119773	-0.653439
H76	H	0.887006	-1.080679	-0.692307
H77	H	1.068753	-0.652040	-0.453609
H78	H	1.057156	-0.871383	-0.468786
O79	O	1.074541	-0.795054	-0.445982
H80	H	1.107344	-0.758637	-0.402905
O81	O	0.923036	-0.967582	-0.644900
H82	H	0.890233	-1.004001	-0.687973
H83	H	0.940456	-0.891258	-0.622142
