data_functionalizedCrystal
_audit_creation_method	'MofGen! by Chris Wilmer'
_symmetry_space_group_name_H-M	'P1'
_symmetry_Int_Tables_number	1
_symmetry_cell_setting	triclinic
loop_
_symmetry_equiv_pos_as_xyz
  x,y,z
_cell_length_a	19.805407
_cell_length_b	19.077068
_cell_length_c	19.805399
_cell_angle_alpha	92.269429
_cell_angle_beta	89.980427
_cell_angle_gamma	92.327086
loop_
_atom_site_label
_atom_site_type_symbol
_atom_site_fract_x
_atom_site_fract_y
_atom_site_fract_z
Zn1	Zn	1.023904	-0.280218	-0.393534
Zn2	Zn	1.273904	-0.030218	-0.143534
Zn3	Zn	1.523904	0.219782	0.106466
Zn4	Zn	1.773904	0.469782	0.356466
Zn5	Zn	1.019269	-0.397917	-0.284888
Zn6	Zn	1.269269	-0.147917	-0.034888
Zn7	Zn	1.519269	0.102083	0.215112
Zn8	Zn	1.769269	0.352083	0.465112
Zn9	Zn	0.910718	-0.280237	-0.280359
Zn10	Zn	1.160718	-0.030237	-0.030359
Zn11	Zn	1.410718	0.219763	0.219641
Zn12	Zn	1.660718	0.469763	0.469641
Zn13	Zn	0.906134	-0.397880	-0.398033
Zn14	Zn	1.156134	-0.147880	-0.148033
Zn15	Zn	1.406134	0.102120	0.101967
Zn16	Zn	1.656134	0.352120	0.351967
O17	O	0.965006	-0.339063	-0.339204
O18	O	1.215006	-0.089063	-0.089204
O19	O	1.465006	0.160937	0.160796
O20	O	1.715006	0.410937	0.410796
O21	O	1.118005	-0.295839	-0.379134
O22	O	1.368005	-0.045839	-0.129134
O23	O	1.618005	0.204161	0.120866
O24	O	1.868005	0.454161	0.370866
O25	O	1.004848	-0.382330	-0.189571
O26	O	1.254848	-0.132330	0.060429
O27	O	1.504848	0.117670	0.310429
O28	O	1.754848	0.367670	0.560429
O29	O	0.929590	-0.181744	-0.291594
O30	O	1.179590	0.068256	-0.041594
O31	O	1.429590	0.318256	0.208406
O32	O	1.679590	0.568256	0.458406
O33	O	1.114600	-0.382312	-0.299312
O34	O	1.364600	-0.132312	-0.049312
O35	O	1.614600	0.117688	0.200688
O36	O	1.864600	0.367688	0.450688
O37	O	1.012748	-0.181729	-0.374743
O38	O	1.262748	0.068271	-0.124743
O39	O	1.512748	0.318271	0.125257
O40	O	1.762748	0.568271	0.375257
O41	O	0.925096	-0.295872	-0.186244
O42	O	1.175096	-0.045872	0.063756
O43	O	1.425096	0.204128	0.313756
O44	O	1.675096	0.454128	0.563756
O45	O	0.815394	-0.295835	-0.295957
O46	O	1.065394	-0.045835	-0.045957
O47	O	1.315394	0.204165	0.204043
O48	O	1.565394	0.454165	0.454043
O49	O	0.921778	-0.382248	-0.492152
O50	O	1.171778	-0.132248	-0.242152
O51	O	1.421778	0.117752	0.007848
O52	O	1.671778	0.367752	0.257848
O53	O	0.812026	-0.382267	-0.382411
O54	O	1.062026	-0.132267	-0.132411
O55	O	1.312026	0.117733	0.117589
O56	O	1.562026	0.367733	0.367589
O57	O	1.008303	-0.295802	-0.488846
O58	O	1.258303	-0.045802	-0.238846
O59	O	1.508303	0.204198	0.011154
O60	O	1.758303	0.454198	0.261154
O61	O	1.000404	-0.496403	-0.303675
O62	O	1.250404	-0.246403	-0.053675
O63	O	1.500404	0.003597	0.196325
O64	O	1.750404	0.253597	0.446325
O65	O	0.917284	-0.496376	-0.386802
O66	O	1.167284	-0.246376	-0.136802
O67	O	1.417284	0.003624	0.113198
O68	O	1.667284	0.253624	0.363198
C69	C	0.789151	-0.339050	-0.339181
C70	C	1.039151	-0.089050	-0.089181
C71	C	1.289151	0.160950	0.160819
C72	C	1.539151	0.410950	0.410819
C73	C	0.713918	-0.339061	-0.339188
C74	C	0.963918	-0.089061	-0.089188
C75	C	1.213918	0.160939	0.160812
C76	C	1.463918	0.410939	0.410812
C77	C	0.676836	-0.384133	-0.384138
C78	C	0.926836	-0.134133	-0.134138
C79	C	1.176836	0.115867	0.115862
C80	C	1.426836	0.365867	0.365862
C81	C	0.606147	-0.384135	-0.384147
C82	C	0.856147	-0.134135	-0.134147
C83	C	1.106147	0.115865	0.115853
C84	C	1.356147	0.365865	0.365853
C85	C	0.572543	-0.339066	-0.339204
C86	C	0.822543	-0.089066	-0.089204
C87	C	1.072543	0.160934	0.160796
C88	C	1.322543	0.410934	0.410796
C89	C	0.609630	-0.293989	-0.294252
C90	C	0.859630	-0.043989	-0.044252
C91	C	1.109630	0.206011	0.205748
C92	C	1.359630	0.456011	0.455748
C93	C	0.680318	-0.293985	-0.294246
C94	C	0.930318	-0.043985	-0.044246
C95	C	1.180318	0.206015	0.205754
C96	C	1.430318	0.456015	0.455754
C97	C	0.324556	-0.294004	-0.294275
C98	C	0.574556	-0.044004	-0.044275
C99	C	0.824556	0.205996	0.205725
C100	C	1.074556	0.455996	0.455725
C101	C	0.253864	-0.294014	-0.294283
C102	C	0.503864	-0.044014	-0.044283
C103	C	0.753864	0.205986	0.205717
C104	C	1.003864	0.455986	0.455717
C105	C	0.250386	-0.384154	-0.384176
C106	C	0.500386	-0.134154	-0.134176
C107	C	0.750386	0.115846	0.115824
C108	C	1.000386	0.365846	0.365824
C109	C	0.321073	-0.384150	-0.384170
C110	C	0.571073	-0.134150	-0.134170
C111	C	0.821073	0.115850	0.115830
C112	C	1.071073	0.365850	0.365830
C113	C	0.358155	-0.339070	-0.339221
C114	C	0.608155	-0.089070	-0.089221
C115	C	0.858155	0.160930	0.160779
C116	C	1.108155	0.410930	0.410779
C117	C	0.434804	-0.339069	-0.339212
C118	C	0.684804	-0.089069	-0.089212
C119	C	0.934804	0.160931	0.160788
C120	C	1.184804	0.410931	0.410788
C121	C	0.495895	-0.339071	-0.339209
C122	C	0.745895	-0.089071	-0.089209
C123	C	0.995895	0.160929	0.160791
C124	C	1.245895	0.410929	0.410791
C125	C	0.957862	-0.521927	-0.346233
C126	C	1.207862	-0.271927	-0.096233
C127	C	1.457862	-0.021927	0.153767
C128	C	1.707862	0.228073	0.403767
C129	C	0.954867	-0.600157	-0.349263
C130	C	1.204867	-0.350157	-0.099263
C131	C	1.454867	-0.100157	0.150737
C132	C	1.704867	0.149843	0.400737
C133	C	0.996770	-0.636901	-0.307443
C134	C	1.246770	-0.386901	-0.057443
C135	C	1.496770	-0.136901	0.192557
C136	C	1.746770	0.113099	0.442557
C137	C	0.993957	-0.710406	-0.310296
C138	C	1.243957	-0.460406	-0.060296
C139	C	1.493957	-0.210406	0.189704
C140	C	1.743957	0.039594	0.439704
C141	C	0.949238	-0.747167	-0.354968
C142	C	1.199238	-0.497167	-0.104968
C143	C	1.449238	-0.247167	0.145032
C144	C	1.699238	0.002833	0.395032
C145	C	0.907333	-0.710418	-0.396793
C146	C	1.157333	-0.460418	-0.146793
C147	C	1.407333	-0.210418	0.103207
C148	C	1.657333	0.039582	0.353207
C149	C	0.910150	-0.636914	-0.393942
C150	C	1.160150	-0.386914	-0.143942
C151	C	1.410150	-0.136914	0.106058
C152	C	1.660150	0.113086	0.356058
C153	C	0.936174	-0.967002	-0.368135
C154	C	1.186174	-0.717002	-0.118135
C155	C	1.436174	-0.467002	0.131865
C156	C	1.686174	-0.217002	0.381865
C157	C	0.933359	-1.040511	-0.370981
C158	C	1.183359	-0.790511	-0.120981
C159	C	1.433359	-0.540511	0.129019
C160	C	1.683359	-0.290511	0.379019
C161	C	1.019984	-1.040494	-0.284485
C162	C	1.269984	-0.790494	-0.034485
C163	C	1.519984	-0.540494	0.215515
C164	C	1.769984	-0.290494	0.465515
C165	C	1.022794	-0.966989	-0.281635
C166	C	1.272794	-0.716989	-0.031635
C167	C	1.522794	-0.466989	0.218365
C168	C	1.772794	-0.216989	0.468365
C169	C	0.980892	-0.930246	-0.323463
C170	C	1.230892	-0.680246	-0.073463
C171	C	1.480892	-0.430246	0.176537
C172	C	1.730892	-0.180246	0.426537
N173	N	0.946361	-0.822301	-0.357884
N174	N	1.196361	-0.572301	-0.107884
N175	N	1.446361	-0.322301	0.142116
N176	N	1.696361	-0.072301	0.392116
N177	N	0.983773	-0.855113	-0.320549
N178	N	1.233773	-0.605113	-0.070549
N179	N	1.483773	-0.355113	0.179451
N180	N	1.733773	-0.105113	0.429451
C181	C	1.141548	-0.339077	-0.339226
C182	C	1.391548	-0.089077	-0.089226
C183	C	1.641548	0.160923	0.160774
C184	C	1.891548	0.410923	0.410774
C185	C	1.216780	-0.339083	-0.339236
C186	C	1.466780	-0.089083	-0.089236
C187	C	1.716780	0.160917	0.160764
C188	C	1.966780	0.410917	0.410764
C189	C	0.965046	-0.339019	-0.515745
C190	C	1.215046	-0.089019	-0.265745
C191	C	1.465046	0.160981	-0.015745
C192	C	1.715046	0.410981	0.234255
C193	C	0.965063	-0.339000	-0.590976
C194	C	1.215063	-0.089000	-0.340976
C195	C	1.465063	0.161000	-0.090976
C196	C	1.715063	0.411000	0.159024
C197	C	0.972197	-0.155485	-0.332161
C198	C	1.222197	0.094515	-0.082161
C199	C	1.472197	0.344515	0.167839
C200	C	1.722197	0.594515	0.417839
C201	C	0.975262	-0.077255	-0.329160
C202	C	1.225262	0.172745	-0.079160
C203	C	1.475262	0.422745	0.170840
C204	C	1.725262	0.672745	0.420840
C205	C	1.010118	-0.293985	-0.624600
C206	C	1.260118	-0.043985	-0.374600
C207	C	1.510118	0.206015	-0.124600
C208	C	1.760118	0.456015	0.125400
C209	C	1.010125	-0.293965	-0.695288
C210	C	1.260125	-0.043965	-0.445288
C211	C	1.510125	0.206035	-0.195288
C212	C	1.760125	0.456035	0.054712
C213	C	0.965081	-0.338963	-0.732350
C214	C	1.215081	-0.088963	-0.482350
C215	C	1.465081	0.161037	-0.232350
C216	C	1.715081	0.411037	0.017650
C217	C	0.920022	-0.383980	-0.698721
C218	C	1.170022	-0.133980	-0.448721
C219	C	1.420022	0.116020	-0.198721
C220	C	1.670022	0.366020	0.051279
C221	C	0.920011	-0.383996	-0.628035
C222	C	1.170011	-0.133996	-0.378035
C223	C	1.420011	0.116004	-0.128035
C224	C	1.670011	0.366004	0.121965
C225	C	0.920062	-0.383914	-0.983792
C226	C	1.170062	-0.133914	-0.733792
C227	C	1.420062	0.116086	-0.483792
C228	C	1.670062	0.366086	-0.233792
C229	C	0.920078	-0.383896	-1.054484
C230	C	1.170078	-0.133896	-0.804484
C231	C	1.420078	0.116104	-0.554484
C232	C	1.670078	0.366104	-0.304484
C233	C	1.010177	-0.293883	-1.051045
C234	C	1.260177	-0.043883	-0.801045
C235	C	1.510177	0.206117	-0.551045
C236	C	1.760177	0.456117	-0.301045
C237	C	1.010166	-0.293899	-0.980358
C238	C	1.260166	-0.043899	-0.730358
C239	C	1.510166	0.206101	-0.480358
C240	C	1.760166	0.456101	-0.230358
C241	C	0.965104	-0.338913	-0.946736
C242	C	1.215104	-0.088913	-0.696736
C243	C	1.465104	0.161087	-0.446736
C244	C	1.715104	0.411087	-0.196736
C245	C	0.965096	-0.338934	-0.870088
C246	C	1.215096	-0.088934	-0.620088
C247	C	1.465096	0.161066	-0.370088
C248	C	1.715096	0.411066	-0.120088
C249	C	0.965093	-0.338947	-0.808997
C250	C	1.215093	-0.088947	-0.558997
C251	C	1.465093	0.161053	-0.308997
C252	C	1.715093	0.411053	-0.058997
C253	C	0.965008	-0.339056	-0.163347
C254	C	1.215008	-0.089056	0.086653
C255	C	1.465008	0.160944	0.336653
C256	C	1.715008	0.410944	0.586653
C257	C	0.965130	-0.338877	-0.088109
C258	C	1.215130	-0.088877	0.161891
C259	C	1.465130	0.161123	0.411891
C260	C	1.715130	0.411123	0.661891
H261	H	0.226505	-0.257309	-0.257684
H262	H	0.476505	-0.007309	-0.007684
H263	H	0.726505	0.242691	0.242316
H264	H	0.976505	0.492691	0.492316
Cl265	Cl	1.066797	-0.237404	-0.737556
Cl266	Cl	1.316797	0.012596	-0.487556
Cl267	Cl	1.566797	0.262596	-0.237556
Cl268	Cl	1.816797	0.512596	0.012444
Cl269	Cl	0.863445	-0.440468	-1.101076
Cl270	Cl	1.113445	-0.190468	-0.851076
Cl271	Cl	1.363445	0.059532	-0.601076
Cl272	Cl	1.613445	0.309532	-0.351076
H273	H	1.028079	-0.740320	-0.276241
H274	H	1.278079	-0.490320	-0.026241
H275	H	1.528079	-0.240320	0.223759
H276	H	1.778079	0.009680	0.473759
Cl277	Cl	0.883495	-0.920821	-0.420717
Cl278	Cl	1.133495	-0.670821	-0.170717
Cl279	Cl	1.383495	-0.420821	0.079283
Cl280	Cl	1.633495	-0.170821	0.329283
Cl281	Cl	0.857472	-0.590722	-0.446521
Cl282	Cl	1.107472	-0.340722	-0.196521
Cl283	Cl	1.357472	-0.090722	0.053479
Cl284	Cl	1.607472	0.159278	0.303479
Cl285	Cl	1.072662	-1.086689	-0.231909
Cl286	Cl	1.322662	-0.836689	0.018091
Cl287	Cl	1.572662	-0.586689	0.268091
Cl288	Cl	1.822662	-0.336689	0.518091
H289	H	1.059207	-0.937060	-0.245260
H290	H	1.309207	-0.687060	0.004740
H291	H	1.559207	-0.437060	0.254740
H292	H	1.809207	-0.187060	0.504740
Cl293	Cl	0.863414	-0.440503	-0.941533
Cl294	Cl	1.113414	-0.190503	-0.691533
Cl295	Cl	1.363414	0.059497	-0.441533
Cl296	Cl	1.613414	0.309497	-0.191533
H297	H	0.896951	-1.070439	-0.407369
H298	H	1.146951	-0.820439	-0.157369
H299	H	1.396951	-0.570439	0.092631
H300	H	1.646951	-0.320439	0.342631
H301	H	1.046848	-0.257260	-0.950185
H302	H	1.296848	-0.007260	-0.700185
H303	H	1.546848	0.242740	-0.450185
H304	H	1.796848	0.492740	-0.200185
Cl305	Cl	0.851118	-0.756632	-0.452956
Cl306	Cl	1.101118	-0.506632	-0.202956
Cl307	Cl	1.351118	-0.256632	0.047044
Cl308	Cl	1.601118	-0.006632	0.297044
H309	H	0.354740	-0.257303	-0.257670
H310	H	0.604740	-0.007303	-0.007670
H311	H	0.854740	0.242697	0.242330
H312	H	1.104740	0.492697	0.492330
Cl313	Cl	0.863366	-0.440586	-0.585765
Cl314	Cl	1.113366	-0.190586	-0.335765
Cl315	Cl	1.363366	0.059414	-0.085765
Cl316	Cl	1.613366	0.309414	0.164235
H317	H	0.704191	-0.420836	-0.420734
H318	H	0.954191	-0.170836	-0.170734
H319	H	1.204191	0.079164	0.079266
H320	H	1.454191	0.329164	0.329266
H321	H	0.582264	-0.257290	-0.257661
H322	H	0.832264	-0.007290	-0.007661
H323	H	1.082264	0.242710	0.242339
H324	H	1.332264	0.492710	0.492339
Cl325	Cl	1.052987	-0.590695	-0.251277
Cl326	Cl	1.302987	-0.340695	-0.001277
Cl327	Cl	1.552987	-0.090695	0.248723
Cl328	Cl	1.802987	0.159305	0.498723
Cl329	Cl	0.726936	-0.237318	-0.237738
Cl330	Cl	0.976936	0.012682	0.012262
Cl331	Cl	1.226936	0.262682	0.262262
Cl332	Cl	1.476936	0.512682	0.512262
Cl333	Cl	1.066751	-0.237416	-0.578014
Cl334	Cl	1.316751	0.012584	-0.328014
Cl335	Cl	1.566751	0.262584	-0.078014
Cl336	Cl	1.816751	0.512584	0.171986
H337	H	1.046866	-0.257228	-1.078429
H338	H	1.296866	-0.007228	-0.828429
H339	H	1.546866	0.242772	-0.578429
H340	H	1.796866	0.492772	-0.328429
H341	H	0.883343	-0.420615	-0.728903
H342	H	1.133343	-0.170615	-0.478903
H343	H	1.383343	0.079385	-0.228903
H344	H	1.633343	0.329385	0.021097
H345	H	0.575957	-0.420838	-0.420749
H346	H	0.825957	-0.170838	-0.170749
H347	H	1.075957	0.079162	0.079251
H348	H	1.325957	0.329162	0.329251
H349	H	0.348430	-0.420852	-0.420766
H350	H	0.598430	-0.170852	-0.170766
H351	H	0.848430	0.079148	0.079234
H352	H	1.098430	0.329148	0.329234
Cl353	Cl	0.203765	-0.440827	-0.440685
Cl354	Cl	0.453765	-0.190827	-0.190685
Cl355	Cl	0.703765	0.059173	0.059315
Cl356	Cl	0.953765	0.309173	0.309315
