data_functionalizedCrystal
_audit_creation_method	'MofGen! by Chris Wilmer'
_symmetry_space_group_name_H-M	'P1'
_symmetry_Int_Tables_number	1
_symmetry_cell_setting	triclinic
loop_
_symmetry_equiv_pos_as_xyz
  x,y,z
_cell_length_a	6.817900
_cell_length_b	13.212833
_cell_length_c	12.908943
_cell_angle_alpha	89.852088
_cell_angle_beta	100.860631
_cell_angle_gamma	106.298119
loop_
_atom_site_label
_atom_site_type_symbol
_atom_site_fract_x
_atom_site_fract_y
_atom_site_fract_z
V1	V	-4.004569	-0.143204	-0.315030
O2	O	-3.983830	0.008223	-0.323209
O3	O	-3.964581	-0.285240	-0.299242
O4	O	-3.942683	-0.140413	-0.458646
O5	O	-4.005879	-0.137607	-0.162702
V6	V	-4.488854	-0.125161	-0.298467
O7	O	-4.264155	-0.182783	-0.351364
O8	O	-4.679466	-0.085583	-0.262133
O9	O	-4.305636	0.016875	-0.314255
O10	O	-4.626990	-0.276589	-0.290288
O11	O	-4.604941	-0.130759	-0.450795
O12	O	-4.327534	-0.127953	-0.154851
C13	C	-3.812064	-0.319884	-0.290754
C14	C	-3.860566	-0.435996	-0.278803
C15	C	-3.896817	-0.585126	-0.166818
C16	C	-3.851237	-0.476026	-0.178037
C17	C	-3.915475	-0.505075	-0.368355
C18	C	-3.961055	-0.614174	-0.357135
C19	C	-3.951726	-0.654195	-0.256364
C20	C	-3.997322	-0.763298	-0.245145
C21	C	-4.061545	-0.792343	-0.435461
C22	C	-4.015965	-0.683244	-0.446681
C23	C	-3.784131	-0.135141	-0.494089
C24	C	-3.814871	-0.133798	-0.611405
C25	C	-4.236501	-0.141641	-0.841604
C26	C	-4.265394	-0.140380	-0.951835
C27	C	-3.901549	-0.130008	-0.942097
C28	C	-3.872656	-0.131269	-0.831867
C29	C	-4.040141	-0.137087	-0.781625
C30	C	-4.011249	-0.138355	-0.671393
C31	C	-3.647403	-0.127976	-0.661658
C32	C	-3.676296	-0.126716	-0.771888
C33	C	-4.121495	0.051513	-0.322739
C34	C	-4.052231	0.167624	-0.334698
C35	C	-4.149429	-0.133228	-0.119402
C36	C	-4.097927	-0.134565	-0.002085
H37	H	-3.889235	-0.617712	-0.084766
H38	H	-3.765198	-0.125265	-0.983023
C39	C	-4.626259	-0.238992	-0.999682
C40	C	-4.481239	-0.145398	-1.017771
H41	H	-4.759513	-0.242092	-1.040396
H42	H	-4.633018	-0.240565	-0.926851
H43	H	-4.584609	-0.297796	-1.019549
H44	H	-4.522882	-0.086593	-0.997897
H45	H	-4.474486	-0.143816	-1.090618
H46	H	-4.147627	-0.143097	-0.630488
H47	H	-3.539941	-0.121975	-0.812810
C48	C	-3.445811	-0.213647	-0.537753
C49	C	-3.431551	-0.123052	-0.595769
H50	H	-3.312560	-0.210629	-0.497086
H51	H	-3.493177	-0.274486	-0.584795
H52	H	-3.541346	-0.217254	-0.492020
H53	H	-3.336027	-0.119448	-0.641508
H54	H	-3.384157	-0.062196	-0.548722
C55	C	-3.929219	-0.723621	-0.058153
C56	C	-3.987058	-0.807292	-0.134380
H57	H	-3.922865	-0.750781	0.010230
H58	H	-4.029161	-0.685063	-0.069526
H59	H	-3.796385	-0.678284	-0.063458
H60	H	-4.119900	-0.852625	-0.129080
H61	H	-3.887111	-0.845868	-0.123003
H62	H	-4.372879	-0.146389	-0.800697
H63	H	-3.806521	-0.419792	-0.105120
H64	H	-4.023545	-0.650643	-0.528726
C65	C	-3.874072	-0.350722	-0.470045
C66	C	-3.925693	-0.461068	-0.479115
H67	H	-3.880387	-0.323557	-0.538425
H68	H	-3.737035	-0.323505	-0.429739
H69	H	-3.969812	-0.330269	-0.435834
H70	H	-3.829944	-0.481521	-0.513319
H71	H	-4.062751	-0.488295	-0.519437
H72	H	-4.106256	-0.848593	-0.508376
