data_functionalizedCrystal
_audit_creation_method	'MofGen! by Chris Wilmer'
_symmetry_space_group_name_H-M	'P1'
_symmetry_Int_Tables_number	1
_symmetry_cell_setting	triclinic
loop_
_symmetry_equiv_pos_as_xyz
  x,y,z
_cell_length_a	16.974800
_cell_length_b	11.792254
_cell_length_c	15.455313
_cell_angle_alpha	92.683372
_cell_angle_beta	90.973911
_cell_angle_gamma	83.793472
loop_
_atom_site_label
_atom_site_type_symbol
_atom_site_fract_x
_atom_site_fract_y
_atom_site_fract_z
O1	O	1.049697	0.144683	0.001582
O2	O	1.383031	0.478016	0.334915
O3	O	1.716364	0.811349	0.668249
O4	O	0.820339	0.162015	-0.014526
O5	O	1.153673	0.495349	0.318807
O6	O	1.487006	0.828682	0.652141
O7	O	0.940579	-0.011852	-0.006075
O8	O	1.273912	0.321482	0.327258
O9	O	1.607245	0.654815	0.660591
O10	O	0.929458	0.318550	-0.006869
O11	O	1.262791	0.651883	0.326465
O12	O	1.596125	0.985216	0.659798
O13	O	0.933703	-0.001950	0.137704
O14	O	1.267036	0.331383	0.471037
O15	O	1.600369	0.664716	0.804370
O16	O	0.813463	0.171917	0.129253
O17	O	1.146797	0.505250	0.462586
O18	O	1.480130	0.838584	0.795920
O19	O	1.042821	0.154584	0.145361
O20	O	1.376155	0.487917	0.478694
O21	O	1.709488	0.821251	0.812028
Cu22	Cu	0.927514	0.164155	0.150435
Cu23	Cu	1.260848	0.497488	0.483768
Cu24	Cu	1.594181	0.830821	0.817102
Cu25	Cu	0.935646	0.152445	-0.019600
Cu26	Cu	1.268979	0.485778	0.313733
Cu27	Cu	1.602313	0.819112	0.647067
O28	O	0.922582	0.328451	0.136910
O29	O	1.255915	0.661785	0.470244
O30	O	1.589249	0.995118	0.803577
C31	C	0.787538	0.166126	0.055301
C32	C	1.120872	0.499459	0.388635
C33	C	1.454205	0.832792	0.721968
C34	C	0.700046	0.163607	0.049157
C35	C	1.033379	0.496940	0.382490
C36	C	1.366712	0.830274	0.715823
C37	C	0.655198	0.167818	0.124646
C38	C	0.988532	0.501152	0.457979
C39	C	1.321865	0.834485	0.791313
C40	C	0.572991	0.165434	0.118875
C41	C	0.906325	0.498767	0.452208
C42	C	1.239658	0.832101	0.785542
C43	C	0.535633	0.158846	0.037614
C44	C	0.868966	0.492180	0.370947
C45	C	1.202299	0.825513	0.704281
C46	C	0.580487	0.154631	-0.037881
C47	C	0.913820	0.487965	0.295453
C48	C	1.247153	0.821298	0.628786
C49	C	0.662693	0.157008	-0.032109
C50	C	0.996026	0.490341	0.301224
C51	C	1.329359	0.823674	0.634558
C52	C	0.290175	0.151153	0.011948
C53	C	0.623508	0.484486	0.345281
C54	C	0.956842	0.817820	0.678614
C55	C	0.207963	0.148781	0.006181
C56	C	0.541296	0.482114	0.339515
C57	C	0.874629	0.815447	0.672848
C58	C	0.200473	0.159581	0.162938
C59	C	0.533806	0.492915	0.496271
C60	C	0.867140	0.826248	0.829605
C61	C	0.282681	0.161964	0.168703
C62	C	0.616014	0.495297	0.502036
C63	C	0.949347	0.828631	0.835369
C64	C	0.327528	0.157743	0.093208
C65	C	0.660861	0.491076	0.426541
C66	C	0.994195	0.824409	0.759875
N67	N	0.451604	0.156413	0.031713
N68	N	0.784937	0.489746	0.365047
N69	N	1.118270	0.823079	0.698380
N70	N	0.411556	0.160168	0.099110
N71	N	0.744889	0.493502	0.432443
N72	N	1.078223	0.826835	0.765776
C73	C	0.936440	-0.049188	0.065765
C74	C	1.269773	0.284146	0.399098
C75	C	1.603107	0.617479	0.732431
C76	C	0.934343	-0.175189	0.065617
C77	C	1.267677	0.158144	0.398950
C78	C	1.601010	0.491478	0.732283
C79	C	0.932640	-0.277516	0.065494
C80	C	1.265973	0.055817	0.398827
C81	C	1.599306	0.389151	0.732161
C82	C	0.930510	-0.405891	0.065336
C83	C	1.263843	-0.072558	0.398670
C84	C	1.597176	0.260776	0.732003
C85	C	1.075622	0.150474	0.075532
C86	C	1.408956	0.483807	0.408865
C87	C	1.742289	0.817141	0.742198
C88	C	1.163115	0.152992	0.081671
C89	C	1.496448	0.486325	0.415004
C90	C	1.829782	0.819659	0.748337
C91	C	0.926720	0.365787	0.065068
C92	C	1.260054	0.699120	0.398402
C93	C	1.593387	1.032454	0.731735
C94	C	0.928818	0.491788	0.065211
C95	C	1.262151	0.825121	0.398544
C96	C	1.595484	1.158454	0.731877
N97	N	0.921801	0.172390	0.270029
N98	N	1.255134	0.505723	0.603362
N99	N	1.588467	0.839056	0.936696
N100	N	0.941366	0.144201	-0.139194
N101	N	1.274699	0.477534	0.194140
N102	N	1.608033	0.810867	0.527473
C103	C	0.972901	0.098552	0.319015
C104	C	1.306234	0.431886	0.652348
C105	C	1.639567	0.765219	0.985681
C106	C	0.968587	0.104791	0.409519
C107	C	1.301920	0.438124	0.742853
C108	C	1.635254	0.771457	1.076186
C109	C	0.913177	0.184873	0.451037
C110	C	1.246510	0.518206	0.784370
C111	C	1.579843	0.851540	1.117704
C112	C	0.862071	0.258714	0.402045
C113	C	1.195405	0.592047	0.735378
C114	C	1.528738	0.925380	1.068711
C115	C	0.866382	0.252469	0.311541
C116	C	1.199715	0.585802	0.644875
C117	C	1.533048	0.919136	0.978208
C118	C	0.894571	0.211797	0.721311
C119	C	1.227904	0.545130	1.054644
C120	C	1.561238	0.878464	1.387977
C121	C	0.890266	0.218038	0.811821
C122	C	1.223599	0.551372	1.145154
C123	C	1.556933	0.884705	1.478487
C124	C	0.996781	0.064113	0.819289
C125	C	1.330115	0.397446	1.152622
C126	C	1.663448	0.730780	1.485956
C127	C	1.001090	0.057880	0.728784
C128	C	1.334423	0.391213	1.062117
C129	C	1.667757	0.724547	1.395451
C130	C	0.949982	0.131717	0.679799
C131	C	1.283315	0.465050	1.013133
C132	C	1.616649	0.798383	1.346466
N133	N	0.908768	0.191254	0.543547
N134	N	1.242101	0.524587	0.876881
N135	N	1.575434	0.857921	1.210214
N136	N	0.954388	0.125330	0.587290
N137	N	1.287721	0.458663	0.920624
N138	N	1.621054	0.791996	1.253957
H139	H	0.550063	0.149259	-0.104045
H140	H	0.883397	0.482593	0.229288
H141	H	1.216730	0.815926	0.562621
H142	H	0.313093	0.167323	0.234874
H143	H	0.646426	0.500656	0.568207
H144	H	0.979759	0.833990	0.901540
H145	H	1.018025	0.033346	0.285217
H146	H	1.351358	0.366679	0.618551
H147	H	1.684692	0.700012	0.951884
Br148	Br	0.139606	0.165307	0.265389
Br149	Br	0.472939	0.498641	0.598723
Br150	Br	0.806272	0.831974	0.932056
Br151	Br	0.351029	0.145423	-0.090510
Br152	Br	0.684362	0.478756	0.242823
Br153	Br	1.017696	0.812089	0.576156
H154	H	0.177548	0.143419	-0.059994
H155	H	0.510881	0.476753	0.273339
H156	H	0.844215	0.810086	0.606672
H157	H	0.699207	0.153580	-0.093580
H158	H	1.032540	0.486914	0.239753
H159	H	1.365873	0.820247	0.573086
Br160	Br	0.797023	0.352675	0.245060
Br161	Br	1.130357	0.686008	0.578394
Br162	Br	1.463690	1.019341	0.911727
H163	H	1.010196	0.044666	0.449403
H164	H	1.343529	0.377999	0.782736
H165	H	1.676863	0.711332	1.116070
Br166	Br	1.076293	-0.050799	0.672437
Br167	Br	1.409626	0.282534	1.005770
Br168	Br	1.742960	0.615868	1.339104
H169	H	1.038390	0.003997	0.859180
H170	H	1.371724	0.337331	1.192514
H171	H	1.705057	0.670664	1.525847
Br172	Br	0.815063	0.326736	0.868161
Br173	Br	1.148396	0.660070	1.201494
Br174	Br	1.481729	0.993403	1.534827
H175	H	0.536481	0.168845	0.180346
H176	H	0.869815	0.502178	0.513680
H177	H	1.203148	0.835511	0.847013
Br178	Br	0.786864	0.367391	0.458386
Br179	Br	1.120197	0.700725	0.791719
Br180	Br	1.453531	1.034058	1.125053
H181	H	0.852958	0.271920	0.681435
H182	H	1.186291	0.605253	1.014768
H183	H	1.519625	0.938587	1.348101
H184	H	0.685608	0.173192	0.190817
H185	H	1.018942	0.506525	0.524151
H186	H	1.352275	0.839859	0.857484
