data_functionalizedCrystal
_audit_creation_method	'MofGen! by Chris Wilmer'
_symmetry_space_group_name_H-M	'P1'
_symmetry_Int_Tables_number	1
_symmetry_cell_setting	triclinic
loop_
_symmetry_equiv_pos_as_xyz
  x,y,z
_cell_length_a	17.699097
_cell_length_b	14.971486
_cell_length_c	13.448316
_cell_angle_alpha	90.006811
_cell_angle_beta	89.989643
_cell_angle_gamma	96.548721
loop_
_atom_site_label
_atom_site_type_symbol
_atom_site_fract_x
_atom_site_fract_y
_atom_site_fract_z
O1	O	1.004350	-0.113169	-0.082775
O2	O	1.504350	0.386831	0.417225
O3	O	0.784009	-0.127873	-0.082759
O4	O	1.284009	0.372127	0.417241
O5	O	0.900086	0.009699	-0.082760
O6	O	1.400086	0.509699	0.417240
O7	O	0.888274	-0.250741	-0.082774
O8	O	1.388274	0.249259	0.417226
O9	O	0.900071	0.009708	0.082624
O10	O	1.400071	0.509708	0.582624
O11	O	0.783995	-0.127864	0.082625
O12	O	1.283995	0.372136	0.582625
O13	O	1.004336	-0.113161	0.082609
O14	O	1.504336	0.386839	0.582609
Cu15	Cu	0.894164	-0.120512	0.097718
Cu16	Cu	1.394164	0.379488	0.597718
Cu17	Cu	0.894181	-0.120522	-0.097868
Cu18	Cu	1.394181	0.379478	0.402132
O19	O	0.888260	-0.250733	0.082610
O20	O	1.388260	0.249267	0.582610
C21	C	0.755804	-0.127340	-0.000065
C22	C	1.255804	0.372660	0.499935
C23	C	0.671783	-0.125753	-0.000059
C24	C	1.171783	0.374247	0.499941
C25	C	0.156048	-0.116032	-0.090249
C26	C	0.656048	0.383968	0.409751
C27	C	0.234996	-0.117517	-0.090244
C28	C	0.734996	0.382483	0.409756
C29	C	0.274456	-0.118256	-0.000089
C30	C	0.774456	0.381744	0.499911
C31	C	0.234965	-0.117501	0.090066
C32	C	0.734965	0.382499	0.590066
C33	C	0.156019	-0.116010	0.090061
C34	C	0.656019	0.383990	0.590061
C35	C	0.553344	-0.123514	0.090092
C36	C	1.053344	0.376486	0.590092
C37	C	0.632295	-0.125008	0.090091
C38	C	1.132295	0.374992	0.590091
C39	C	0.632321	-0.125020	-0.090212
C40	C	1.132321	0.374980	0.409788
C41	C	0.553375	-0.123529	-0.090218
C42	C	1.053375	0.376471	0.409782
C43	C	0.513891	-0.122770	-0.000063
C44	C	1.013891	0.377230	0.499937
C45	C	0.428287	-0.121158	-0.000069
C46	C	0.928287	0.378842	0.499931
C47	C	0.360058	-0.119874	-0.000082
C48	C	0.860058	0.380126	0.499918
C49	C	0.899550	0.043026	-0.000069
C50	C	1.399550	0.543026	0.499931
C51	C	0.897967	0.142318	-0.000069
C52	C	1.397967	0.642318	0.499931
C53	C	1.032541	-0.113694	-0.000087
C54	C	1.532541	0.386306	0.499913
C55	C	1.116563	-0.115280	-0.000100
C56	C	1.616563	0.384720	0.499900
C57	C	0.888795	-0.284060	-0.000084
C58	C	1.388795	0.215940	0.499916
C59	C	0.890378	-0.383351	-0.000089
C60	C	1.390378	0.116649	0.499911
N61	N	0.894157	-0.120504	0.235282
N62	N	1.394157	0.379496	0.735282
C63	C	0.966159	0.199774	-0.000074
C64	C	1.466159	0.699774	0.499926
C65	C	0.964667	0.293068	-0.000084
C66	C	1.464667	0.793068	0.499916
C67	C	0.894983	0.328905	-0.000082
C68	C	1.394983	0.828905	0.499918
C69	C	0.826786	0.271442	-0.000081
C70	C	1.326786	0.771442	0.499919
C71	C	0.828278	0.178149	-0.000078
C72	C	1.328278	0.678149	0.499922
C73	C	0.823679	0.465894	-0.000084
C74	C	1.323679	0.965894	0.499916
C75	C	0.822186	0.559193	-0.000085
C76	C	1.322186	1.059193	0.499915
C77	C	0.960068	0.580813	-0.000090
C78	C	1.460068	1.080813	0.499910
C79	C	0.961561	0.487520	-0.000087
C80	C	1.461561	0.987520	0.499913
C81	C	0.893363	0.430063	-0.000084
C82	C	1.393363	0.930063	0.499916
N83	N	0.894194	-0.120522	-0.235432
N84	N	1.394194	0.379478	0.264568
C85	C	0.945572	-0.059612	0.287322
C86	C	1.445572	0.440388	0.787322
C87	C	0.945577	-0.059612	0.391425
C88	C	1.445577	0.440388	0.891425
C89	C	0.894170	-0.120508	0.443487
C90	C	1.394170	0.379492	0.943487
C91	C	0.842750	-0.181402	0.391440
C92	C	1.342750	0.318598	0.891440
C93	C	0.842742	-0.181398	0.287338
C94	C	1.342742	0.318602	0.787338
C95	C	0.842771	-0.181408	0.608420
C96	C	1.342771	0.318592	1.108420
C97	C	0.842779	-0.181414	0.712528
C98	C	1.342779	0.318586	1.212528
C99	C	0.945605	-0.059622	0.712506
C100	C	1.445605	0.440378	1.212506
C101	C	0.945598	-0.059617	0.608405
C102	C	1.445598	0.440383	1.108405
C103	C	0.894178	-0.120514	0.556365
C104	C	1.394178	0.379486	1.056365
H105	H	0.123870	-0.115407	0.163469
H106	H	0.623870	0.384593	0.663469
C107	C	1.047205	0.060780	0.297768
C108	C	1.547205	0.560780	0.797768
C109	C	1.002079	0.007330	0.230101
C110	C	1.502079	0.507330	0.730101
H111	H	1.082086	0.102112	0.262442
H112	H	1.582086	0.602112	0.762442
H113	H	1.074462	0.023584	0.338350
H114	H	1.574462	0.523584	0.838350
H115	H	1.015667	0.092903	0.338392
H116	H	1.515667	0.592903	0.838392
H117	H	1.033616	-0.024799	0.189481
H118	H	1.533616	0.475201	0.689481
H119	H	0.974820	0.044530	0.189501
H120	H	1.474820	0.544530	0.689501
C121	C	0.356026	-0.119808	-0.170299
C122	C	0.856026	0.380192	0.329701
C123	C	0.278399	-0.118349	-0.189338
C124	C	0.778399	0.381651	0.310662
H125	H	0.382820	-0.120316	-0.231480
H126	H	0.882820	0.379684	0.268520
H127	H	0.363231	-0.172182	-0.133259
H128	H	0.863231	0.327818	0.366741
H129	H	0.374674	-0.067903	-0.133259
H130	H	0.874674	0.432097	0.366741
H131	H	0.259750	-0.170258	-0.226372
H132	H	0.759750	0.329742	0.273628
H133	H	0.271189	-0.065970	-0.226393
H134	H	0.771189	0.434030	0.273607
H135	H	0.664421	-0.125609	0.163511
H136	H	1.164421	0.374391	0.663511
H137	H	0.123925	-0.115437	-0.163664
H138	H	0.623925	0.384563	0.336336
H139	H	0.521250	-0.122932	-0.163631
H140	H	1.021250	0.377068	0.336369
H141	H	1.020195	0.339846	-0.000085
H142	H	1.520195	0.839846	0.499915
H143	H	0.800897	-0.230994	0.566052
H144	H	1.300897	0.269006	1.066052
C145	C	0.989938	0.095294	0.744549
C146	C	1.489938	0.595294	1.244549
C147	C	1.002130	0.007320	0.769698
C148	C	1.502130	0.507320	1.269698
H149	H	1.024839	0.136614	0.779855
H150	H	1.524839	0.636614	1.279855
H151	H	0.939430	0.104938	0.761639
H152	H	1.439430	0.604938	1.261639
H153	H	0.997289	0.103994	0.675097
H154	H	1.497289	0.603994	1.175097
H155	H	0.994773	-0.001383	0.839149
H156	H	1.494773	0.498617	1.339149
H157	H	1.052649	-0.002329	0.752615
H158	H	1.552649	0.497671	1.252615
H159	H	0.521207	-0.122882	0.163502
H160	H	1.021207	0.377118	0.663502
H161	H	0.987460	-0.010036	0.566017
H162	H	1.487460	0.489964	1.066017
H163	H	0.768146	0.419114	-0.000084
H164	H	1.268146	0.919114	0.499916
C165	C	1.038400	0.698244	-0.085132
C166	C	1.538400	1.198244	0.414868
C167	C	1.035035	0.643961	-0.000106
C168	C	1.535035	1.143961	0.499894
H169	H	1.084683	0.737226	-0.085141
H170	H	1.584683	1.237226	0.414859
H171	H	0.996694	0.732939	-0.085127
H172	H	1.496694	1.232939	0.414873
H173	H	1.036118	0.661378	-0.142793
H174	H	1.536118	1.161378	0.357207
H175	H	1.037311	0.680827	0.057555
H176	H	1.537311	1.180827	0.557555
H177	H	1.076753	0.609264	-0.000102
H178	H	1.576753	1.109264	0.499898
C179	C	1.043215	0.395155	0.084933
C180	C	1.543215	0.895155	0.584933
C181	C	1.038157	0.448125	-0.000087
C182	C	1.538157	0.948125	0.499913
H183	H	1.090505	0.370840	0.084932
H184	H	1.590505	0.870840	0.584932
H185	H	1.002817	0.347592	0.084929
H186	H	1.502817	0.847592	0.584929
H187	H	1.039764	0.431117	0.142598
H188	H	1.539764	0.931117	0.642598
H189	H	1.041602	0.412162	-0.057752
H190	H	1.541602	0.912162	0.442248
H191	H	1.078566	0.495695	-0.000092
H192	H	1.578566	0.995695	0.499908
H193	H	0.267100	-0.118098	0.163472
H194	H	0.767100	0.381902	0.663472
C195	C	0.769345	0.025535	-0.000078
C196	C	1.269345	0.525535	0.499922
C197	C	0.753321	0.114989	-0.000074
C198	C	1.253321	0.614989	0.499926
H199	H	0.723067	-0.013455	-0.000086
H200	H	1.223067	0.486545	0.499914
H201	H	0.797903	0.014698	0.057591
H202	H	1.297903	0.514698	0.557591
H203	H	0.797924	0.014694	-0.057756
H204	H	1.297924	0.514694	0.442244
H205	H	0.724747	0.125831	0.057608
H206	H	1.224747	0.625831	0.557608
H207	H	0.724751	0.125830	-0.057749
H208	H	1.224751	0.625830	0.442251
C209	C	0.798433	-0.336309	0.255265
C210	C	1.298433	0.163691	0.755265
C211	C	0.786230	-0.248335	0.230130
C212	C	1.286230	0.251665	0.730130
H213	H	0.763545	-0.377630	0.219941
H214	H	1.263545	0.122370	0.719941
H215	H	0.791078	-0.345022	0.324705
H216	H	1.291078	0.154978	0.824705
H217	H	0.848952	-0.345939	0.238178
H218	H	1.348952	0.154061	0.738178
H219	H	0.735712	-0.238703	0.247224
H220	H	1.235712	0.261297	0.747224
H221	H	0.793579	-0.239618	0.160674
H222	H	1.293579	0.260382	0.660674
C223	C	0.739783	-0.200960	0.508556
C224	C	1.239783	0.299040	1.008556
C225	C	0.786243	-0.248339	0.448668
C226	C	1.286243	0.251661	0.948668
H227	H	0.704902	-0.242288	0.543890
H228	H	1.204902	0.257712	1.043890
H229	H	0.712524	-0.163774	0.467963
H230	H	1.212524	0.336226	0.967963
H231	H	0.770415	-0.164698	0.554443
H232	H	1.270415	0.335302	1.054443
H233	H	0.755611	-0.284597	0.402776
H234	H	1.255611	0.215403	0.902776
H235	H	0.813503	-0.285541	0.489265
H236	H	1.313503	0.214459	0.989265
H237	H	1.022904	0.170604	-0.000069
H238	H	1.522904	0.670604	0.499931
H239	H	0.800918	-0.231001	0.754912
H240	H	1.300918	0.268999	1.254912
H241	H	0.664478	-0.125635	-0.163621
H242	H	1.164478	0.374365	0.336379
H243	H	0.765444	0.588368	-0.000068
H244	H	1.265444	1.088368	0.499932
H245	H	0.987441	-0.010028	0.433795
H246	H	1.487441	0.489972	0.933795
C247	C	0.745130	0.363811	-0.085093
C248	C	1.245130	0.863811	0.414907
C249	C	0.750188	0.310835	-0.000079
C250	C	1.250188	0.810835	0.499921
H251	H	0.697843	0.388133	-0.085085
H252	H	1.197843	0.888133	0.414915
H253	H	0.748579	0.327860	-0.142756
H254	H	1.248579	0.827860	0.357244
H255	H	0.785534	0.411379	-0.085085
H256	H	1.285534	0.911379	0.414915
H257	H	0.709787	0.263263	-0.000091
H258	H	1.209787	0.763263	0.499909
H259	H	0.746732	0.346788	0.057599
H260	H	1.246732	0.846788	0.557599
