data_functionalizedCrystal
_audit_creation_method	'MofGen! by Chris Wilmer'
_symmetry_space_group_name_H-M	'P1'
_symmetry_Int_Tables_number	1
_symmetry_cell_setting	triclinic
loop_
_symmetry_equiv_pos_as_xyz
  x,y,z
_cell_length_a	8.497374
_cell_length_b	19.077105
_cell_length_c	19.077068
_cell_angle_alpha	89.884684
_cell_angle_beta	92.284024
_cell_angle_gamma	92.300019
loop_
_atom_site_label
_atom_site_type_symbol
_atom_site_fract_x
_atom_site_fract_y
_atom_site_fract_z
Zn1	Zn	1.016648	1.062860	0.323110
Zn2	Zn	0.762970	1.058079	0.440586
Zn3	Zn	0.741875	0.945387	0.318369
Zn4	Zn	1.015701	0.940595	0.435851
O5	O	0.884299	1.001730	0.379479
O6	O	0.992222	1.160556	0.342659
O7	O	0.539410	1.043135	0.424372
O8	O	0.769893	0.964977	0.220667
O9	O	0.805846	1.157044	0.428968
O10	O	0.971767	1.051283	0.224150
O11	O	0.523911	0.960341	0.334579
O12	O	0.768974	0.846421	0.329988
O13	O	1.236588	0.956809	0.420898
O14	O	0.970152	0.842901	0.416301
O15	O	1.237285	1.046636	0.338067
O16	O	0.804927	1.038488	0.538289
O17	O	0.990607	0.952173	0.534810
C18	C	0.867172	0.819165	0.372117
C19	C	0.859884	0.741062	0.368984
C20	C	0.961050	0.702552	0.412519
C21	C	0.954209	0.629166	0.409566
C22	C	0.846193	0.594292	0.363082
C23	C	0.745023	0.632808	0.319542
C24	C	0.751873	0.706192	0.322492
C25	C	0.814499	0.375011	0.349430
C26	C	0.807654	0.301621	0.346485
C27	C	1.016843	0.297985	0.436509
C28	C	1.023677	0.371371	0.439457
C29	C	0.922512	0.409880	0.395915
N30	N	0.839195	0.519280	0.360064
N31	N	0.929519	0.484891	0.398930
C32	C	0.899989	0.994311	0.562047
C33	C	0.906761	0.991201	0.640152
C34	C	1.295778	1.001725	0.379480
C35	C	1.474423	1.001726	0.379487
C36	C	0.901493	1.185009	0.386870
C37	C	0.908820	1.263111	0.390020
C38	C	0.868583	1.009198	0.196199
C39	C	0.861886	1.012380	0.118097
C40	C	0.813355	1.034715	0.678636
C41	C	0.819734	1.031794	0.752025
C42	C	0.919510	0.985356	0.786928
C43	C	1.012926	0.941841	0.748439
C44	C	1.006555	0.944765	0.675052
C45	C	0.948930	0.971789	1.006221
C46	C	0.955291	0.968866	1.079613
C47	C	0.762100	1.058821	1.083193
C48	C	0.755730	1.061739	1.009804
C49	C	0.849152	1.018226	0.971322
N50	N	0.926029	0.982368	0.861943
N51	N	0.842641	1.021218	0.896309
H52	H	1.111631	0.399760	0.477312
H53	H	1.049004	0.730941	0.450374
C54	C	0.647658	1.112203	0.971819
C55	C	0.737623	1.158873	0.931430
C56	C	0.638115	1.205362	0.896419
H57	H	0.592900	1.137773	1.005169
H58	H	0.573899	1.086506	0.942105
H59	H	0.811354	1.184568	0.961141
H60	H	0.792379	1.133323	0.898068
H61	H	0.564356	1.179665	0.866705
H62	H	0.583361	1.230927	0.929774
H63	H	0.699139	1.237029	0.869006
H64	H	1.024995	0.936358	0.974894
C65	C	1.121367	0.891532	0.786428
C66	C	1.229906	0.929600	0.830124
C67	C	1.329810	0.883276	0.865135
H68	H	1.176242	0.866016	0.753077
H69	H	1.060626	0.859805	0.813900
H70	H	1.290640	0.961314	0.802654
H71	H	1.175075	0.955114	0.863488
H72	H	1.269069	0.851550	0.892608
H73	H	1.384674	0.857763	0.831779
H74	H	1.403456	0.909098	0.894792
H75	H	1.036588	0.597814	0.445018
H76	H	0.743672	1.067227	0.783355
H77	H	1.082618	0.909333	0.643719
H78	H	1.099208	0.266623	0.471957
H79	H	0.732112	0.406356	0.313981
C80	C	0.660881	1.106040	1.125101
C81	C	0.687846	1.093558	1.196841
C82	C	0.594654	1.137056	1.235468
H83	H	0.552806	1.096324	1.112779
H84	H	0.687473	1.153736	1.114967
H85	H	0.661243	1.045874	1.206970
H86	H	0.795902	1.103279	1.209184
H87	H	0.621246	1.184752	1.225334
H88	H	0.486584	1.127336	1.223140
H89	H	0.612947	1.128598	1.284148
H90	H	0.719703	0.273229	0.308624
H91	H	0.657081	0.604407	0.281691
C92	C	0.642286	0.748045	0.275141
C93	C	0.731842	0.791993	0.231845
C94	C	0.630946	0.830550	0.188207
H95	H	0.578394	0.775639	0.303042
H96	H	0.577000	0.716788	0.246996
H97	H	0.797101	0.823246	0.259988
H98	H	0.795730	0.764417	0.203929
H99	H	0.565660	0.799293	0.160061
H100	H	0.567059	0.858140	0.216114
H101	H	0.691694	0.860368	0.158821
C102	C	0.704977	1.085205	0.640874
C103	C	0.624574	1.122700	0.690288
C104	C	0.524739	1.169226	0.655530
H105	H	0.631056	1.059570	0.611200
H106	H	0.765729	1.116979	0.613457
H107	H	0.563826	1.090931	0.717693
H108	H	0.698455	1.148350	0.719964
H109	H	0.585491	1.200999	0.628113
H110	H	0.450828	1.143585	0.625858
H111	H	0.470184	1.194676	0.689053
C112	C	1.063799	0.918428	1.117382
C113	C	1.144287	0.880962	1.067975
C114	C	1.244266	0.834503	1.102743
H115	H	1.003190	0.886628	1.144815
H116	H	1.137656	0.944133	1.147042
H117	H	1.070440	0.855259	1.038328
H118	H	1.204926	0.912744	1.040540
H119	H	1.318123	0.860208	1.132403
H120	H	1.183645	0.802707	1.130175
H121	H	1.298900	0.809081	1.069226
