data_functionalizedCrystal
_audit_creation_method	'MofGen! by Chris Wilmer'
_symmetry_space_group_name_H-M	'P1'
_symmetry_Int_Tables_number	1
_symmetry_cell_setting	triclinic
loop_
_symmetry_equiv_pos_as_xyz
  x,y,z
_cell_length_a	13.635800
_cell_length_b	17.110477
_cell_length_c	17.078481
_cell_angle_alpha	83.093745
_cell_angle_beta	99.306161
_cell_angle_gamma	80.939702
loop_
_atom_site_label
_atom_site_type_symbol
_atom_site_fract_x
_atom_site_fract_y
_atom_site_fract_z
V1	V	1.978826	-0.109298	0.247259
O2	O	1.984570	0.005442	0.242658
O3	O	1.943924	-0.216902	0.245467
O4	O	1.944526	-0.107533	0.355144
O5	O	1.983964	-0.104684	0.132222
V6	V	2.223335	-0.095584	0.233512
O7	O	2.103427	-0.139382	0.277415
O8	O	2.323832	-0.065500	0.203357
O9	O	2.146634	0.012021	0.235305
O10	O	2.276289	-0.210324	0.238114
O11	O	2.276895	-0.100198	0.348550
O12	O	2.146031	-0.097348	0.125628
V13	V	2.478826	-0.109298	0.247259
O14	O	2.484570	0.005442	0.242658
O15	O	2.443924	-0.216902	0.245467
O16	O	2.444526	-0.107533	0.355144
O17	O	2.483964	-0.104684	0.132222
V18	V	2.723335	-0.095584	0.233512
O19	O	2.603427	-0.139382	0.277415
O20	O	2.823832	-0.065500	0.203357
O21	O	2.646634	0.012021	0.235305
O22	O	2.776289	-0.210324	0.238114
O23	O	2.776895	-0.100198	0.348550
O24	O	2.646031	-0.097348	0.125628
C25	C	1.864147	-0.243137	0.241540
C26	C	1.876187	-0.331104	0.240794
C27	C	1.972115	-0.376459	0.244397
C28	C	1.983423	-0.459114	0.243700
C29	C	1.898800	-0.496412	0.239395
C30	C	1.802864	-0.451052	0.235795
C31	C	1.791559	-0.368399	0.236497
C32	C	1.928419	-0.745769	0.237082
C33	C	1.939731	-0.828428	0.236378
C34	C	2.120289	-0.836485	0.244285
C35	C	2.108975	-0.753829	0.244982
C36	C	2.013042	-0.708477	0.241386
C37	C	1.910355	-0.580898	0.238681
C38	C	2.001489	-0.623993	0.242106
C39	C	1.864915	-0.103625	0.381443
C40	C	1.877442	-0.102894	0.469639
C41	C	2.058081	0.038251	0.239229
C42	C	2.035659	0.126217	0.239981
C43	C	2.057313	-0.101260	0.099324
C44	C	2.034406	-0.101986	0.011128
C45	C	2.364147	-0.243137	0.241540
C46	C	2.376187	-0.331104	0.240794
C47	C	2.364915	-0.103625	0.381443
C48	C	2.377442	-0.102894	0.469639
C49	C	1.973601	-0.106501	0.515111
C50	C	1.985366	-0.105813	0.597980
C51	C	1.900971	-0.101525	0.635376
C52	C	1.804805	-0.097916	0.589897
C53	C	1.793041	-0.098597	0.507029
C54	C	1.926475	-0.099058	0.882781
C55	C	1.938247	-0.098380	0.965656
C56	C	2.118807	-0.106276	0.973733
C57	C	2.107035	-0.106962	0.890864
C58	C	2.010869	-0.103348	0.845391
N59	N	1.912995	-0.100825	0.720081
N60	N	1.998846	-0.104042	0.760687
C61	C	2.558081	0.038251	0.239229
C62	C	2.535659	0.126217	0.239981
C63	C	2.557313	-0.101260	0.099324
C64	C	2.534406	-0.101986	0.011128
C65	C	2.472124	-0.376446	0.244404
C66	C	2.483453	-0.459103	0.243715
C67	C	2.398842	-0.496416	0.239410
C68	C	2.302898	-0.451068	0.235803
C69	C	2.291571	-0.368413	0.236498
C70	C	2.473608	-0.106493	0.515096
C71	C	2.485391	-0.105796	0.597964
C72	C	2.401008	-0.101505	0.635374
C73	C	2.304835	-0.097904	0.589910
C74	C	2.293052	-0.098595	0.507043
C75	C	2.612216	0.171559	0.236373
C76	C	2.591159	0.254216	0.237066
C77	C	2.493546	0.291528	0.241372
C78	C	2.416984	0.246181	0.244978
C79	C	2.438040	0.163527	0.244279
C80	C	2.436557	-0.106268	-0.026261
C81	C	2.415016	-0.106941	-0.109132
C82	C	2.491328	-0.103339	-0.154611
C83	C	2.589184	-0.099055	-0.117217
C84	C	2.610721	-0.098376	-0.034348
H85	H	2.041025	-0.346096	0.247895
H86	H	2.690402	-0.094894	-0.003912
H87	H	2.175760	-0.110453	0.860422
H88	H	2.061536	-0.496039	0.246636
H89	H	2.375695	0.126614	0.247224
H90	H	2.541029	-0.346077	0.247904
H91	H	2.561582	-0.496014	0.246650
H92	H	1.736090	-0.094419	0.620350
H93	H	2.177887	-0.723468	0.248494
O94	O	2.411072	-0.585566	0.238658
H95	H	2.336124	-0.603902	0.235064
O96	O	2.673741	0.303120	0.233185
H97	H	2.684595	0.332567	0.287630
H98	H	2.198395	-0.873419	0.247213
O99	O	1.848458	-0.868663	0.231742
H100	H	1.779851	-0.823243	0.229368
H101	H	2.476414	0.358831	0.241940
O102	O	2.188087	-0.319515	0.232598
H103	H	2.194412	-0.255771	0.233809
H104	H	1.850305	-0.708852	0.234149
H105	H	2.337507	0.276573	0.248483
H106	H	2.542328	-0.109989	0.484649
H107	H	2.374407	-0.109201	0.010758
H108	H	1.848177	-0.096144	0.845772
O109	O	2.671482	-0.095172	-0.166279
H110	H	2.743148	-0.092075	-0.126365
H111	H	1.713446	-0.331472	0.233566
O112	O	1.711589	-0.491275	0.231159
H113	H	1.735563	-0.556368	0.231270
H114	H	2.563707	-0.108732	0.634971
H115	H	1.841457	-0.611275	0.235173
O116	O	2.092766	-0.583776	0.246753
H117	H	2.082908	-0.537906	0.192943
H118	H	2.042327	-0.109998	0.484671
H119	H	2.063666	-0.108746	0.635000
O120	O	2.222524	-0.110159	1.022773
H121	H	2.216529	-0.108957	1.086678
O122	O	1.847205	-0.093666	1.005981
H123	H	1.778351	-0.091230	0.960434
O124	O	1.689328	-0.094713	0.457978
H125	H	1.632620	-0.091625	0.497903
H126	H	2.234012	-0.481460	0.232298
H127	H	2.335332	-0.110430	-0.139566
O128	O	2.213880	-0.093369	0.630324
H129	H	2.177179	-0.145822	0.620908
O130	O	2.413730	-0.100775	0.724756
H131	H	2.447045	-0.048126	0.739926
O132	O	2.189329	-0.094727	0.458017
H133	H	2.132642	-0.091638	0.497960
O134	O	2.717497	0.131325	0.231713
H135	H	2.771526	0.140715	0.284257
H136	H	2.473780	-0.103902	-0.222086
