data_functionalizedCrystal
_audit_creation_method	'MofGen! by Chris Wilmer'
_symmetry_space_group_name_H-M	'P1'
_symmetry_Int_Tables_number	1
_symmetry_cell_setting	triclinic
loop_
_symmetry_equiv_pos_as_xyz
  x,y,z
_cell_length_a	13.635800
_cell_length_b	7.190334
_cell_length_c	12.530001
_cell_angle_alpha	97.065354
_cell_angle_beta	90.000251
_cell_angle_gamma	60.611776
loop_
_atom_site_label
_atom_site_type_symbol
_atom_site_fract_x
_atom_site_fract_y
_atom_site_fract_z
V1	V	-2.078843	0.663513	0.145852
O2	O	-2.105325	0.652431	-0.008759
O3	O	-2.021481	0.657486	0.290882
O4	O	-2.098099	0.953574	0.142840
O5	O	-2.028176	0.354294	0.140308
V6	V	-2.319323	0.626709	0.127449
O7	O	-2.212283	0.744246	0.186219
O8	O	-2.410981	0.545976	0.087082
O9	O	-2.265081	0.632736	-0.017582
O10	O	-2.351539	0.637791	0.282060
O11	O	-2.428687	0.935928	0.132992
O12	O	-2.188463	0.336648	0.130461
V13	V	-1.578843	0.663513	0.145852
O14	O	-1.605325	0.652431	-0.008759
O15	O	-1.521481	0.657486	0.290882
O16	O	-1.598099	0.953574	0.142840
O17	O	-1.528176	0.354294	0.140308
V18	V	-1.819323	0.626709	0.127449
O19	O	-1.712283	0.744246	0.186219
O20	O	-1.910981	0.545976	0.087082
O21	O	-1.765081	0.632736	-0.017582
O22	O	-1.851539	0.637791	0.282060
O23	O	-1.928687	0.935928	0.132992
O24	O	-1.688463	0.336648	0.130461
C25	C	-1.934517	0.646644	0.326263
C26	C	-1.928439	0.643598	0.447052
C27	C	-2.032248	1.024321	0.137414
C28	C	-2.089470	1.265893	0.135881
C29	C	-2.183731	0.643584	-0.052956
C30	C	-2.179244	0.646680	-0.173741
C31	C	-1.434517	0.646644	0.326263
C32	C	-1.428439	0.643598	0.447052
V33	V	-2.043644	0.663545	0.645860
O34	O	-1.934285	0.354326	0.640329
O35	O	-2.174499	0.953605	0.642835
O36	O	-2.097896	0.657544	0.790891
O37	O	-2.011418	0.652436	0.491248
V38	V	-1.784112	0.626722	0.627464
O39	O	-1.951985	0.744276	0.686227
O40	O	-1.650669	0.545976	0.587102
O41	O	-1.764863	0.336668	0.630486
O42	O	-1.834773	0.935937	0.632995
O43	O	-1.757639	0.637826	0.782076
O44	O	-1.841466	0.632729	0.482430
C45	C	-1.532248	1.024321	0.137414
C46	C	-1.589470	1.265893	0.135881
C47	C	-1.683731	0.643584	-0.052956
C48	C	-1.679244	0.646680	-0.173741
C49	C	-2.276969	1.024372	0.637416
C50	C	-2.344767	1.265950	0.635902
V51	V	-1.543634	0.663505	0.645867
O52	O	-1.434277	0.354284	0.640336
O53	O	-1.674486	0.953568	0.642844
O54	O	-1.597883	0.657508	0.790900
O55	O	-1.511410	0.652395	0.491255
V56	V	-1.284099	0.626667	0.627464
O57	O	-1.451971	0.744230	0.686231
O58	O	-1.150656	0.545915	0.587099
O59	O	-1.264853	0.336618	0.630487
O60	O	-1.334755	0.935881	0.632995
O61	O	-1.257622	0.637770	0.782076
O62	O	-1.341456	0.632678	0.482431
C63	C	-1.830716	0.265926	0.635905
C64	C	-1.773499	0.024356	0.637446
