data_functionalizedCrystal
_audit_creation_method	'MofGen! by Chris Wilmer'
_symmetry_space_group_name_H-M	'P1'
_symmetry_Int_Tables_number	1
_symmetry_cell_setting	triclinic
loop_
_symmetry_equiv_pos_as_xyz
  x,y,z
_cell_length_a	10.686220
_cell_length_b	12.759400
_cell_length_c	12.759393
_cell_angle_alpha	89.968436
_cell_angle_beta	94.349657
_cell_angle_gamma	94.396325
loop_
_atom_site_label
_atom_site_type_symbol
_atom_site_fract_x
_atom_site_fract_y
_atom_site_fract_z
Zn1	Zn	1.929120	-0.294834	-0.470993
Zn2	Zn	1.928993	-0.470561	-0.295322
Zn3	Zn	1.718106	-0.308384	-0.308786
Zn4	Zn	1.718092	-0.483967	-0.484409
O5	O	1.823578	-0.389437	-0.389877
O6	O	2.105676	-0.306864	-0.436441
O7	O	1.900971	-0.449108	-0.150090
O8	O	1.746156	-0.159561	-0.330323
O9	O	2.105583	-0.435970	-0.307376
O10	O	1.901187	-0.149607	-0.449497
O11	O	1.746033	-0.329957	-0.159982
O12	O	1.541531	-0.342956	-0.343332
O13	O	1.746133	-0.458819	-0.629647
O14	O	1.541521	-0.471957	-0.472361
O15	O	1.901174	-0.319863	-0.619791
O16	O	1.900958	-0.619364	-0.320384
O17	O	1.746010	-0.629214	-0.459306
C18	C	1.495743	-0.410382	-0.410764
C19	C	1.355493	-0.419368	-0.419724
C20	C	1.823503	-0.662409	-0.389860
C21	C	1.823586	-0.779180	-0.389881
C22	C	1.904357	-0.828873	-0.317613
C23	C	1.904434	-0.938592	-0.317640
C24	C	1.742959	-0.948916	-0.462207
C25	C	1.742889	-0.839199	-0.462184
C26	C	1.985054	-0.768854	-0.245310
C27	C	2.065830	-0.818547	-0.173035
C28	C	2.065908	-0.928266	-0.173063
C29	C	1.985209	-0.988292	-0.245365
C30	C	2.152693	-0.368410	-0.368910
C31	C	2.292942	-0.359450	-0.359975
C32	C	1.823666	-0.389325	-0.663905
C33	C	1.823704	-0.389277	-0.780680
C34	C	1.823687	-0.115396	-0.389915
C35	C	1.823734	0.001383	-0.389932
C36	C	1.904445	-0.316916	-0.830410
C37	C	1.904475	-0.316876	-0.940133
C38	C	1.743019	-0.461568	-0.950384
C39	C	1.742984	-0.461602	-0.840664
C40	C	1.985165	-0.244592	-0.770426
C41	C	2.065913	-0.172225	-0.820157
C42	C	2.065943	-0.172185	-0.929879
C43	C	1.985224	-0.244512	-0.989871
C44	C	1.823562	-0.389467	-0.116911
C45	C	1.823769	-0.389203	-0.000122
H46	H	1.984996	-0.679515	-0.245277
Br47	Br	1.985245	-0.244439	-1.138782
H48	H	2.131623	-0.113334	-0.771305
Br49	Br	1.985136	-0.244648	-0.621517
H50	H	1.677257	-0.997798	-0.521071
H51	H	2.131683	-0.113254	-0.970367
H52	H	1.677301	-0.520452	-0.999237
Br53	Br	1.633399	-0.559804	-0.773165
H54	H	1.346684	-0.301278	-0.301966
Br55	Br	1.265920	-0.516349	-0.516404
H56	H	2.131540	-0.769667	-0.114175
H57	H	1.985288	-1.077632	-0.245389
Br58	Br	2.175545	-0.995703	-0.074990
Br59	Br	1.633276	-0.771751	-0.560268
