data_functionalizedCrystal
_audit_creation_method	'MofGen! by Chris Wilmer'
_symmetry_space_group_name_H-M	'P1'
_symmetry_Int_Tables_number	1
_symmetry_cell_setting	triclinic
loop_
_symmetry_equiv_pos_as_xyz
  x,y,z
_cell_length_a	10.908937
_cell_length_b	12.996460
_cell_length_c	11.026623
_cell_angle_alpha	89.995715
_cell_angle_beta	95.663670
_cell_angle_gamma	90.007756
loop_
_atom_site_label
_atom_site_type_symbol
_atom_site_fract_x
_atom_site_fract_y
_atom_site_fract_z
O1	O	1.662449	0.085597	0.179056
O2	O	2.162449	0.585597	0.679056
O3	O	1.309517	0.085592	0.088520
O4	O	1.809517	0.585592	0.588520
O5	O	1.456732	0.085589	0.304538
O6	O	1.956732	0.585589	0.804538
O7	O	1.515235	0.085600	-0.036962
O8	O	2.015235	0.585600	0.463038
O9	O	1.456710	-0.085545	0.304544
O10	O	1.956710	0.414455	0.804544
O11	O	1.309496	-0.085542	0.088526
O12	O	1.809496	0.414458	0.588526
O13	O	1.662427	-0.085537	0.179062
O14	O	2.162427	0.414463	0.679062
Cu15	Cu	1.485960	-0.101165	0.133795
Cu16	Cu	1.985960	0.398835	0.633795
Cu17	Cu	1.485985	0.101220	0.133788
Cu18	Cu	1.985985	0.601220	0.633788
O19	O	1.515213	-0.085534	-0.036956
O20	O	2.015213	0.414466	0.463044
C21	C	1.263621	0.000024	0.080062
C22	C	1.763621	0.500024	0.580062
C23	C	1.126895	0.000022	0.054865
C24	C	1.626895	0.500022	0.554865
N25	N	1.485950	-0.243512	0.133802
N26	N	1.985950	0.256488	0.633802
C27	C	0.915316	0.000039	0.120775
C28	C	1.415316	0.500039	0.620775
C29	C	1.056630	0.000025	0.146820
C30	C	1.556630	0.500025	0.646820
C31	C	1.485984	-0.663327	0.133786
C32	C	1.985984	-0.163327	0.633786
C33	C	1.485972	-0.546522	0.133786
C34	C	1.985972	-0.046522	0.633786
C35	C	1.485968	-0.453423	0.133793
C36	C	1.985968	0.046577	0.633793
C37	C	1.485954	-0.336611	0.133795
C38	C	1.985954	0.163389	0.633795
C39	C	1.708324	0.000033	0.187520
C40	C	2.208324	0.500033	0.687520
C41	C	1.845050	0.000041	0.212717
C42	C	2.345050	0.500041	0.712717
C43	C	1.445928	0.000022	0.347574
C44	C	1.945928	0.500022	0.847574
C45	C	1.413754	0.000024	0.475796
C46	C	1.913754	0.500024	0.975796
N47	N	1.486002	0.243567	0.133791
N48	N	1.986002	0.743567	0.633791
C49	C	1.502588	0.000027	0.567527
C50	C	2.002588	0.500027	1.067527
C51	C	1.469338	0.000029	0.700052
C52	C	1.969338	0.500029	1.200052
C53	C	1.526015	0.000033	0.920008
C54	C	2.026015	0.500033	1.420008
C55	C	1.558184	0.000031	0.791785
C56	C	2.058184	0.500031	1.291785
H57	H	1.101086	0.000024	0.244824
H58	H	1.601086	0.500024	0.744824
H59	H	0.870855	0.000053	0.022779
H60	H	1.370855	0.500053	0.522779
H61	H	0.889512	0.000040	0.310714
H62	H	1.389512	0.500040	0.810714
H63	H	1.082440	0.000033	-0.043139
H64	H	1.582440	0.500033	0.456861
O65	O	1.622628	-0.000019	0.543972
O66	O	2.122628	0.499981	1.043972
C67	C	1.765217	0.000044	0.390412
C68	C	2.265217	0.500044	0.890412
C69	C	1.629220	0.000071	0.416910
C70	C	2.129220	0.500071	0.916910
H71	H	1.770591	0.000139	0.287684
H72	H	2.270591	0.500139	0.787684
H73	H	1.812890	-0.071592	0.431905
H74	H	2.312890	0.428408	0.931905
H75	H	1.812856	0.071647	0.432044
H76	H	2.312856	0.571647	0.932044
H77	H	1.581476	-0.071483	0.375280
H78	H	2.081476	0.428517	0.875280
H79	H	1.581639	0.071755	0.375441
H80	H	2.081639	0.571755	0.875441
H81	H	1.658862	0.000110	0.772217
H82	H	2.158862	0.500110	1.272217
O83	O	1.349291	-0.000015	0.723600
O84	O	1.849291	0.499985	1.223600
C85	C	1.206702	0.000055	0.877161
C86	C	1.706702	0.500055	1.377161
C87	C	1.342699	0.000080	0.850663
C88	C	1.842699	0.500080	1.350663
H89	H	1.201328	0.000154	0.979888
H90	H	1.701328	0.500154	1.479888
H91	H	1.159006	-0.071582	0.835682
H92	H	1.659006	0.428418	1.335682
H93	H	1.159086	0.071657	0.835513
H94	H	1.659086	0.571657	1.335513
H95	H	1.390421	-0.071473	0.892306
H96	H	1.890421	0.428527	1.392306
H97	H	1.390303	0.071764	0.892117
H98	H	1.890303	0.571764	1.392117
H99	H	1.313084	0.000029	0.495372
H100	H	1.813084	0.500029	0.995372
