data_functionalizedCrystal
_audit_creation_method	'MofGen! by Chris Wilmer'
_symmetry_space_group_name_H-M	'P1'
_symmetry_Int_Tables_number	1
_symmetry_cell_setting	triclinic
loop_
_symmetry_equiv_pos_as_xyz
  x,y,z
_cell_length_a	9.065218
_cell_length_b	22.010155
_cell_length_c	9.065218
_cell_angle_alpha	90.006172
_cell_angle_beta	94.984115
_cell_angle_gamma	90.008655
loop_
_atom_site_label
_atom_site_type_symbol
_atom_site_fract_x
_atom_site_fract_y
_atom_site_fract_z
O1	O	1.960412	0.050524	-0.216337
O2	O	1.531127	0.050525	-0.234083
O3	O	1.754643	0.050523	-0.010567
O4	O	1.736896	0.050526	-0.439852
O5	O	1.754602	-0.050527	-0.010601
O6	O	1.531087	-0.050526	-0.234116
O7	O	1.960371	-0.050526	-0.216370
Cu8	Cu	1.745725	-0.059753	-0.225246
Cu9	Cu	1.745773	0.059751	-0.225207
O10	O	1.736856	-0.050525	-0.439886
C11	C	1.476120	-0.000000	-0.232394
C12	C	1.312277	-0.000000	-0.227294
N13	N	1.745702	-0.143805	-0.225273
C14	C	1.844752	-0.563585	-0.126248
C15	C	1.844759	-0.627193	-0.126238
O16	O	1.928916	-0.660085	-0.042062
N17	N	1.745772	-0.659012	-0.225176
C18	C	1.646762	-0.627221	-0.324120
O19	O	1.562566	-0.660126	-0.408272
C20	C	1.646749	-0.563614	-0.324121
C21	C	1.745753	-0.531798	-0.225187
C22	C	1.943746	-0.531769	-0.027321
C23	C	1.943741	-0.468166	-0.027334
C24	C	1.844742	-0.436379	-0.126273
C25	C	1.745747	-0.468195	-0.225200
C26	C	1.547733	-0.531824	-0.423057
C27	C	1.547728	-0.468213	-0.423049
C28	C	1.646732	-0.436397	-0.324115
C29	C	1.646743	-0.372805	-0.324151
N30	N	1.745730	-0.340985	-0.225214
C31	C	1.844729	-0.372772	-0.126275
C32	C	1.646794	-0.760799	-0.324107
C33	C	1.646813	-0.824404	-0.324113
C34	C	1.844809	-0.824372	-0.126230
C35	C	1.844796	-0.760765	-0.126231
C36	C	1.745781	-0.728979	-0.225169
C37	C	1.844711	-0.239201	-0.126309
C38	C	1.844702	-0.175592	-0.126334
C39	C	1.646702	-0.175630	-0.324212
C40	C	1.646716	-0.239233	-0.324192
C41	C	1.745726	-0.271017	-0.225229
O42	O	1.562625	-0.339872	-0.408281
O43	O	1.928898	-0.339859	-0.042123
C44	C	2.015378	0.000000	-0.218059
C45	C	2.179221	0.000004	-0.223158
C46	C	1.752917	-0.000001	0.044403
C47	C	1.747817	0.000002	0.208245
N48	N	1.745808	0.143803	-0.225168
C49	C	1.738582	0.000001	-0.494855
C50	C	1.743681	0.000002	-0.658698
H51	H	1.925327	-0.149689	-0.045770
C52	C	1.347319	-0.396707	-0.452289
C53	C	1.438888	-0.433276	-0.531812
H54	H	1.280124	-0.375142	-0.519438
H55	H	1.406272	-0.368654	-0.393392
H56	H	1.293440	-0.421526	-0.390121
H57	H	1.492774	-0.408456	-0.593972
H58	H	1.379927	-0.461332	-0.590734
H59	H	1.925333	-0.265072	-0.045722
H60	H	1.566113	-0.265139	-0.404768
C61	C	1.450985	-0.182036	-0.519808
C62	C	1.537884	-0.140682	-0.432964
H63	H	1.383808	-0.160458	-0.586947
H64	H	1.397099	-0.206844	-0.457644
H65	H	1.513118	-0.206844	-0.573748
H66	H	1.475751	-0.115877	-0.379015
H67	H	1.591774	-0.115863	-0.495135
C68	C	2.139429	-0.474543	0.168276
C69	C	2.052553	-0.433199	0.081436
H70	H	2.206597	-0.452957	0.235438
H71	H	2.193324	-0.499346	0.106113
H72	H	2.077280	-0.499357	0.222191
H73	H	2.114701	-0.408388	0.027513
H74	H	1.998653	-0.408385	0.143608
H75	H	1.467115	-0.557720	-0.503617
H76	H	2.024363	-0.557644	0.053254
C77	C	1.446381	-0.689294	-0.353381
C78	C	1.537966	-0.725862	-0.432888
H79	H	1.379192	-0.667732	-0.420540
H80	H	1.505323	-0.661240	-0.294478
H81	H	1.392496	-0.714114	-0.291220
H82	H	1.591859	-0.701041	-0.495041
H83	H	1.479017	-0.753920	-0.491817
H84	H	1.925412	-0.734864	-0.045670
H85	H	1.925417	-0.850264	-0.045666
H86	H	1.566211	-0.850304	-0.404690
