data_functionalizedCrystal
_audit_creation_method	'MofGen! by Chris Wilmer'
_symmetry_space_group_name_H-M	'P1'
_symmetry_Int_Tables_number	1
_symmetry_cell_setting	triclinic
loop_
_symmetry_equiv_pos_as_xyz
  x,y,z
_cell_length_a	15.995350
_cell_length_b	15.995350
_cell_length_c	15.072220
_cell_angle_alpha	90.008851
_cell_angle_beta	90.001101
_cell_angle_gamma	96.507625
loop_
_atom_site_label
_atom_site_type_symbol
_atom_site_fract_x
_atom_site_fract_y
_atom_site_fract_z
O1	O	0.107921	-1.110996	-0.073703
O2	O	0.121249	-0.867221	-0.073721
O3	O	-0.007303	-0.995772	-0.073710
O4	O	0.236472	-0.982444	-0.073713
O5	O	-0.007296	-0.995740	0.073855
O6	O	0.121256	-0.867189	0.073844
O7	O	0.107928	-1.110964	0.073862
Zn8	Zn	0.114593	-0.989071	0.097283
Zn9	Zn	0.114584	-0.989113	-0.097141
O10	O	0.236480	-0.982413	0.073852
C11	C	0.120701	-0.836010	0.000060
C12	C	0.119049	-0.743060	0.000053
C13	C	-0.038494	-0.995205	0.000070
C14	C	-0.131444	-0.993553	0.000065
C15	C	0.108476	-1.142175	0.000080
C16	C	0.110127	-1.235125	0.000081
C17	C	-0.469192	-0.987621	0.000068
C18	C	-0.421758	-0.896069	-0.000270
C19	C	-0.325068	-0.897721	0.000063
C20	C	-0.301631	-0.990564	0.000066
C21	C	-0.342705	-1.035702	0.084335
C22	C	-0.439341	-1.033402	0.084405
C23	C	-0.439707	-1.035330	-0.083404
C24	C	-0.342761	-1.035308	-0.084518
C25	C	-0.206934	-0.992231	0.000068
C26	C	-0.563890	-0.985956	0.000072
C27	C	0.267671	-0.982980	0.000069
C28	C	0.360621	-0.984631	0.000069
N29	N	0.114599	-0.989049	0.229971
C30	C	0.113117	-0.405312	0.000071
C31	C	0.021565	-0.452746	0.000401
C32	C	0.023217	-0.549436	0.000063
C33	C	0.116060	-0.572873	0.000063
C34	C	0.161212	-0.531804	-0.084201
C35	C	0.158912	-0.435168	-0.084266
C36	C	0.160812	-0.434793	0.083543
C37	C	0.160790	-0.531738	0.084651
C38	C	0.117727	-0.667570	0.000055
C39	C	0.111452	-0.310614	0.000073
N40	N	0.114571	-0.989142	-0.229830
C41	C	0.114580	-0.989112	0.589173
C42	C	0.183135	-0.920095	0.551560
C43	C	0.183385	-0.920254	0.448735
C44	C	0.114590	-0.989080	0.410969
C45	C	0.133671	-1.076445	0.448266
C46	C	0.134159	-1.076058	0.551124
C47	C	0.026741	-0.971542	0.551272
C48	C	0.027327	-0.969537	0.448409
C49	C	0.114593	-0.989067	0.310255
C50	C	0.114579	-0.989130	0.689886
H51	H	-0.296649	-0.862238	-0.060344
H52	H	0.130885	-0.414244	0.147414
H53	H	-0.457639	-1.000460	0.147395
H54	H	0.228312	-0.403031	0.084113
C55	C	0.116263	-0.568614	0.168867
H56	H	0.070605	-0.608914	0.152555
H57	H	0.095698	-0.524713	0.201961
H58	H	0.155019	-0.594986	0.204033
C59	C	0.219224	-1.097867	0.413463
H60	H	0.230207	-1.150855	0.436401
H61	H	0.262311	-1.055718	0.432019
H62	H	0.217926	-1.100258	0.350493
C63	C	-0.446790	-0.846645	-0.081903
H64	H	-0.417477	-0.791568	-0.080868
H65	H	-0.505669	-0.843139	-0.080788
H66	H	-0.432654	-0.874732	-0.134423
H67	H	0.198219	-1.091540	0.575106
H68	H	0.228494	-0.547102	0.089741
C69	C	-0.482618	-1.126513	-0.084175
H70	H	-0.518334	-1.135499	-0.033905
H71	H	-0.440956	-1.164340	-0.082326
H72	H	-0.515057	-1.135944	-0.136767
H73	H	0.171953	-0.854945	0.576317
H74	H	-0.471588	-1.100617	0.088231
H75	H	-0.297200	-0.861974	0.060568
H76	H	0.085068	-1.129029	0.423801
H77	H	-0.328579	-1.103910	0.087471
C78	C	0.168043	-0.832523	0.414666
H79	H	0.161605	-0.796464	0.463689
H80	H	0.118431	-0.837117	0.379529
H81	H	0.214646	-0.809855	0.379774
C82	C	-0.304375	-0.993310	0.169049
H83	H	-0.263352	-0.948109	0.153244
H84	H	-0.278635	-1.033289	0.203148
H85	H	-0.347498	-0.972357	0.203012
H86	H	-0.460250	-1.005411	-0.147274
C87	C	-0.305885	-0.990792	-0.168738
H88	H	-0.265587	-0.945130	-0.152430
H89	H	-0.349787	-0.970233	-0.201827
H90	H	-0.279511	-1.029551	-0.203907
H91	H	-0.327400	-1.103014	-0.089603
C92	C	-0.448211	-0.846837	0.080908
H93	H	-0.488036	-0.881835	0.115007
H94	H	-0.472757	-0.798643	0.061533
H95	H	-0.400157	-0.829675	0.116279
C96	C	0.270700	-0.935041	0.586457
H97	H	0.265661	-0.983160	0.623846
H98	H	0.294013	-0.887244	0.619200
H99	H	0.306444	-0.943957	0.537846
C100	C	0.007761	-0.882719	0.415484
H101	H	0.052577	-0.858478	0.379068
H102	H	0.001592	-0.847103	0.464933
H103	H	-0.042953	-0.889019	0.382120
C104	C	-0.027655	-0.426293	-0.080775
H105	H	0.007348	-0.386470	-0.114868
H106	H	-0.075851	-0.401747	-0.061396
H107	H	-0.044813	-0.474348	-0.116151
C108	C	0.271440	-0.935414	0.415477
H109	H	0.307196	-0.941508	0.464830
H110	H	0.294189	-0.888915	0.380495
H111	H	0.267261	-0.985188	0.380599
C112	C	0.069272	-1.147515	0.584739
H113	H	0.042737	-1.176657	0.535530
H114	H	0.028127	-1.124493	0.619768
H115	H	0.096931	-1.185491	0.619645
H116	H	-0.012275	-0.577852	0.060467
H117	H	0.129845	-0.560191	-0.146912
C118	C	-0.042184	-1.039521	0.584136
H119	H	-0.095114	-1.028571	0.561012
H120	H	-0.044091	-1.038701	0.647119
H121	H	-0.029868	-1.093234	0.564537
H122	H	0.008392	-0.909219	0.577258
C123	C	-0.027871	-0.427703	0.082032
H124	H	0.006876	-0.388090	0.116643
H125	H	-0.044703	-0.476278	0.116728
H126	H	-0.076280	-0.403269	0.063085
H127	H	-0.026078	-1.016540	0.422704
C128	C	-0.025046	-0.587096	-0.081684
H129	H	-0.024205	-0.646388	-0.082168
H130	H	0.000922	-0.563616	-0.134096
H131	H	-0.081640	-0.574528	-0.079215
C132	C	0.114417	-0.410449	-0.169352
H133	H	0.097910	-0.459445	-0.203550
H134	H	0.151823	-0.372482	-0.203041
H135	H	0.066051	-0.384185	-0.153952
H136	H	0.226128	-0.402920	-0.088090
C137	C	0.253353	-0.550889	-0.088445
H138	H	0.265131	-0.584157	-0.038748
H139	H	0.289659	-0.499603	-0.087661
H140	H	0.262109	-0.580702	-0.141542
