data_functionalizedCrystal
_audit_creation_method	'MofGen! by Chris Wilmer'
_symmetry_space_group_name_H-M	'P1'
_symmetry_Int_Tables_number	1
_symmetry_cell_setting	triclinic
loop_
_symmetry_equiv_pos_as_xyz
  x,y,z
_cell_length_a	17.077404
_cell_length_b	17.077402
_cell_length_c	18.101379
_cell_angle_alpha	90.088401
_cell_angle_beta	90.063685
_cell_angle_gamma	90.021987
loop_
_atom_site_label
_atom_site_type_symbol
_atom_site_fract_x
_atom_site_fract_y
_atom_site_fract_z
Zn1	Zn	-1.200382	0.312073	-0.418767
Zn2	Zn	-0.867049	0.645406	-0.085434
Zn3	Zn	-0.533715	0.978739	0.247899
Zn4	Zn	-1.200192	0.443482	-0.294924
Zn5	Zn	-0.866859	0.776815	0.038409
Zn6	Zn	-0.533526	1.110149	0.371743
Zn7	Zn	-1.069017	0.312232	-0.294936
Zn8	Zn	-0.735684	0.645565	0.038398
Zn9	Zn	-0.402350	0.978899	0.371731
Zn10	Zn	-1.069082	0.443298	-0.418720
Zn11	Zn	-0.735748	0.776632	-0.085387
Zn12	Zn	-0.402415	1.109965	0.247946
O13	O	-1.134668	0.377771	-0.356837
O14	O	-0.801335	0.711105	-0.023504
O15	O	-0.468002	1.044438	0.309830
O16	O	-1.310204	0.329514	-0.402354
O17	O	-0.976870	0.662848	-0.069021
O18	O	-0.643537	0.996181	0.264313
O19	O	-1.182685	0.426215	-0.191292
O20	O	-0.849352	0.759548	0.142041
O21	O	-0.516018	1.092881	0.475374
O22	O	-1.086495	0.202364	-0.311387
O23	O	-0.753162	0.535697	0.021946
O24	O	-0.419828	0.869031	0.355280
O25	O	-1.310064	0.426060	-0.311367
O26	O	-0.976731	0.759394	0.021966
O27	O	-0.643398	1.092727	0.355300
O28	O	-1.183008	0.202247	-0.402366
O29	O	-0.849675	0.535580	-0.069032
O30	O	-0.516342	0.868913	0.264301
O31	O	-1.086311	0.329786	-0.191301
O32	O	-0.752978	0.663119	0.142032
O33	O	-0.419645	0.996453	0.475366
O34	O	-0.959179	0.329608	-0.311341
O35	O	-0.625845	0.662941	0.021992
O36	O	-0.292512	0.996275	0.355325
O37	O	-1.086605	0.425748	-0.522360
O38	O	-0.753272	0.759081	-0.189026
O39	O	-0.419939	1.092414	0.144307
O40	O	-0.959226	0.425902	-0.402285
O41	O	-0.625893	0.759235	-0.068952
O42	O	-0.292560	1.092569	0.264381
O43	O	-1.183071	0.329337	-0.522394
O44	O	-0.849738	0.662670	-0.189061
O45	O	-0.516405	0.996003	0.144272
O46	O	-1.182748	0.553304	-0.311321
O47	O	-0.849415	0.886638	0.022012
O48	O	-0.516081	1.219971	0.355345
O49	O	-1.086422	0.553170	-0.402274
O50	O	-0.753088	0.886503	-0.068941
O51	O	-0.419755	1.219836	0.264393
C52	C	-0.930720	0.377753	-0.356810
C53	C	-0.597387	0.711086	-0.023477
C54	C	-0.264054	1.044420	0.309857
C55	C	-0.843471	0.377764	-0.356816
C56	C	-0.510137	0.711097	-0.023483
C57	C	-0.176804	1.044431	0.309851
C58	C	-1.134592	0.581719	-0.356807
C59	C	-0.801259	0.915052	-0.023474
C60	C	-0.467926	1.248386	0.309859
C61	C	-1.134632	0.668969	-0.356819
C62	C	-0.801299	1.002302	-0.023486
C63	C	-0.467965	1.335636	0.309847
C64	C	-0.802526	0.427979	-0.404093
C65	C	-0.469192	0.761313	-0.070760
C66	C	-0.135859	1.094646	0.262573
C67	C	-0.720545	0.427980	-0.404102
C68	C	-0.387212	0.761313	-0.070769
C69	C	-0.053879	1.094646	0.262564
C70	C	-0.679511	0.377768	-0.356830
C71	C	-0.346178	0.711101	-0.023497
C72	C	-0.012845	1.044434	0.309837
C73	C	-0.720462	0.327547	-0.309551
C74	C	-0.387128	0.660880	0.023783
C75	C	-0.053795	0.994214	0.357116
C76	C	-0.802441	0.327543	-0.309546
C77	C	-0.469107	0.660877	0.023788
C78	C	-0.135774	0.994210	0.357121
C79	C	-0.549592	0.327559	-0.309563
C80	C	-0.216258	0.660892	0.023770
C81	C	0.117075	0.994226	0.357104
C82	C	-0.467607	0.327563	-0.309567
C83	C	-0.134274	0.660897	0.023767
C84	C	0.199059	0.994230	0.357100
C85	C	-0.467696	0.427995	-0.404120
C86	C	-0.134363	0.761328	-0.070786
C87	C	0.198970	1.094662	0.262547
C88	C	-0.549675	0.427992	-0.404115
C89	C	-0.216342	0.761325	-0.070781
C90	C	0.116991	1.094658	0.262552
C91	C	-0.590620	0.377772	-0.356834
C92	C	-0.257287	0.711105	-0.023501
C93	C	0.076046	1.044438	0.309833
C94	C	-1.134867	0.377504	-0.549999
C95	C	-0.801533	0.710837	-0.216666
C96	C	-0.468200	1.044171	0.116667
C97	C	-1.134951	0.377390	-0.632314
C98	C	-0.801618	0.710723	-0.298980
C99	C	-0.468285	1.044057	0.034353
C100	C	-0.339412	0.377785	-0.356856
C101	C	-0.006079	0.711118	-0.023523
C102	C	0.327254	1.044452	0.309810
C103	C	-0.426662	0.377779	-0.356844
C104	C	-0.093329	0.711112	-0.023511
C105	C	0.240004	1.044445	0.309823
C106	C	-1.134766	0.173027	-0.356883
C107	C	-0.801432	0.506360	-0.023549
C108	C	-0.468099	0.839694	0.309784
C109	C	-1.134807	0.085777	-0.356902
C110	C	-0.801474	0.419110	-0.023569
C111	C	-0.468141	0.752444	0.309764
C112	C	-1.184840	0.710003	-0.309511
C113	C	-0.851507	1.043336	0.023822
C114	C	-0.518174	1.376670	0.357155
C115	C	-1.184879	0.791984	-0.309530
C116	C	-0.851545	1.125317	0.023803
C117	C	-0.518212	1.458650	0.357136
C118	C	-1.134704	0.832928	-0.356854
C119	C	-0.801371	1.166262	-0.023521
C120	C	-0.468037	1.499595	0.309813
C121	C	-1.084493	0.791888	-0.404167
C122	C	-0.751160	1.125222	-0.070834
C123	C	-0.417827	1.458555	0.262499
C124	C	-1.084460	0.709909	-0.404152
C125	C	-0.751126	1.043243	-0.070818
C126	C	-0.417793	1.376576	0.262515
C127	C	-1.084566	0.962758	-0.404196
C128	C	-0.751233	1.296092	-0.070862
C129	C	-0.417900	1.629425	0.262471
C130	C	-1.084599	1.044743	-0.404211
C131	C	-0.751265	1.378076	-0.070877
C132	C	-0.417932	1.711409	0.262456
C133	C	-1.184985	1.044832	-0.309574
C134	C	-0.851652	1.378166	0.023759
C135	C	-0.518319	1.711499	0.357093
C136	C	-1.184951	0.962853	-0.309558
C137	C	-0.851618	1.296187	0.023775
C138	C	-0.518285	1.629520	0.357108
C139	C	-1.134740	0.921819	-0.356871
C140	C	-0.801406	1.255153	-0.023538
C141	C	-0.468073	1.588486	0.309796
C142	C	-1.134516	0.377981	-0.164426
C143	C	-0.801182	0.711314	0.168907
C144	C	-0.467849	1.044648	0.502241
C145	C	-1.134583	0.377874	-0.082112
C146	C	-0.801250	0.711207	0.251221
C147	C	-0.467917	1.044540	0.584555
C148	C	-1.134707	0.377712	0.068596
C149	C	-0.801373	0.711045	0.401929
C150	C	-0.468040	1.044379	0.735263
C151	C	-1.073661	0.317450	0.099901
C152	C	-0.740328	0.650783	0.433234
C153	C	-0.406994	0.984116	0.766567
C154	C	-1.073494	0.317538	0.185520
C155	C	-0.740161	0.650871	0.518853
C156	C	-0.406828	0.984204	0.852186
C157	C	-1.134828	0.377552	0.216978
C158	C	-0.801495	0.710885	0.550312
C159	C	-0.468161	1.044218	0.883645
C160	C	-1.113180	0.460530	0.186136
C161	C	-0.779847	0.793864	0.519469
C162	C	-0.446514	1.127197	0.852803
C163	C	-1.112667	0.460275	0.100491
C164	C	-0.779334	0.793608	0.433825
C165	C	-0.446001	1.126942	0.767158
C166	C	-1.217584	0.355684	0.099955
C167	C	-0.884250	0.689017	0.433288
C168	C	-0.550917	1.022350	0.766621
C169	C	-1.217197	0.353769	0.185601
C170	C	-0.883864	0.687103	0.518935
C171	C	-0.550531	1.020436	0.852268
C172	C	-1.134898	0.377466	0.300838
C173	C	-0.801565	0.710799	0.634171
C174	C	-0.468231	1.044133	0.967504
C175	C	-1.134635	0.377803	-0.015263
C176	C	-0.801301	0.711137	0.318070
C177	C	-0.467968	1.044470	0.651403
H178	H	-0.835930	0.468870	-0.442585
H179	H	-0.502596	0.802204	-0.109252
H180	H	-0.169263	1.135537	0.224081
Br181	Br	-0.664980	0.496130	-0.468269
Br182	Br	-0.331646	0.829463	-0.134936
Br183	Br	0.001687	1.162797	0.198398
H184	H	-1.233530	0.292699	0.205732
H185	H	-0.900196	0.626032	0.539065
H186	H	-0.566863	0.959366	0.872399
Br187	Br	-1.016405	0.847455	-0.468400
Br188	Br	-0.683072	1.180788	-0.135067
Br189	Br	-0.349738	1.514122	0.198267
Br190	Br	-1.253044	0.907286	-0.245331
Br191	Br	-0.919711	1.240619	0.088003
Br192	Br	-0.586378	1.573952	0.421336
H193	H	-1.053328	0.479353	0.207743
H194	H	-0.719994	0.812686	0.541076
H195	H	-0.386661	1.146020	0.874409
H196	H	-0.835777	0.286649	-0.271052
H197	H	-0.502444	0.619982	0.062282
H198	H	-0.169110	0.953316	0.395615
H199	H	-0.434199	0.286667	-0.271082
H200	H	-0.100866	0.620000	0.062251
H201	H	0.232467	0.953334	0.395584
H202	H	-1.263060	0.399562	0.079708
H203	H	-0.929726	0.732895	0.413041
H204	H	-0.596393	1.066228	0.746375
Br205	Br	-0.971181	0.341877	0.219926
Br206	Br	-0.637847	0.675210	0.553259
Br207	Br	-0.304514	1.008543	0.886593
H208	H	-1.043681	0.929351	-0.442725
H209	H	-0.710348	1.262684	-0.109392
H210	H	-0.377014	1.596018	0.223941
Br211	Br	-1.016322	0.654219	-0.468363
Br212	Br	-0.682989	0.987552	-0.135030
Br213	Br	-0.349655	1.320886	0.198304
Br214	Br	-0.605364	0.496144	-0.468263
Br215	Br	-0.272031	0.829478	-0.134930
Br216	Br	0.061302	1.162811	0.198403
H217	H	-1.012589	0.331925	0.078529
H218	H	-0.679256	0.665258	0.411862
H219	H	-0.345923	0.998592	0.745196
H220	H	-1.156339	0.506635	0.206524
H221	H	-0.823005	0.839969	0.539857
H222	H	-0.489672	1.173302	0.873190
Br223	Br	-1.016492	1.100311	-0.468425
Br224	Br	-0.683159	1.433644	-0.135092
Br225	Br	-0.349826	1.766978	0.198241
Br226	Br	-1.252931	0.654443	-0.245275
Br227	Br	-0.919598	0.987777	0.088058
Br228	Br	-0.586264	1.321110	0.421391
H229	H	-1.086949	0.256037	0.206362
H230	H	-0.753616	0.589371	0.539695
H231	H	-0.420283	0.922704	0.873029
H232	H	-1.237405	0.296218	0.078173
H233	H	-0.904071	0.629552	0.411507
H234	H	-0.570738	0.962885	0.744840
Br235	Br	-1.095749	0.214696	0.065283
Br236	Br	-0.762416	0.548029	0.398617
Br237	Br	-0.429082	0.881363	0.731950
Br238	Br	-1.253027	0.847670	-0.245328
Br239	Br	-0.919693	1.181003	0.088006
Br240	Br	-0.586360	1.514337	0.421339
H241	H	-1.265087	0.394345	0.207004
H242	H	-0.931753	0.727678	0.540337
H243	H	-0.598420	1.061012	0.873671
H244	H	-1.052113	0.478835	0.080673
H245	H	-0.718779	0.812168	0.414007
H246	H	-0.385446	1.145501	0.747340
H247	H	-1.155244	0.506747	0.079794
H248	H	-0.821911	0.840080	0.413128
H249	H	-0.488578	1.173413	0.746461
H250	H	-0.434355	0.468884	-0.442619
H251	H	-0.101022	0.802217	-0.109286
H252	H	0.232312	1.135550	0.224047
Br253	Br	-0.664774	0.259394	-0.245401
Br254	Br	-0.331440	0.592727	0.087932
Br255	Br	0.001893	0.926060	0.421265
Br256	Br	-0.605160	0.259401	-0.245398
Br257	Br	-0.271826	0.592734	0.087936
Br258	Br	0.061507	0.926068	0.421269
H259	H	-1.225872	1.078246	-0.271053
H260	H	-0.892539	1.411580	0.062281
H261	H	-0.559206	1.744913	0.395614
