data_functionalizedCrystal
_audit_creation_method	'MofGen! by Chris Wilmer'
_symmetry_space_group_name_H-M	'P1'
_symmetry_Int_Tables_number	1
_symmetry_cell_setting	triclinic
loop_
_symmetry_equiv_pos_as_xyz
  x,y,z
_cell_length_a	21.395362
_cell_length_b	18.050590
_cell_length_c	18.050583
_cell_angle_alpha	89.997484
_cell_angle_beta	89.960444
_cell_angle_gamma	89.983387
loop_
_atom_site_label
_atom_site_type_symbol
_atom_site_fract_x
_atom_site_fract_y
_atom_site_fract_z
Zn1	Zn	-0.249614	-1.135292	-0.419528
Zn2	Zn	0.250386	-0.635292	0.080472
Zn3	Zn	-0.354409	-1.135197	-0.295331
Zn4	Zn	0.145591	-0.635197	0.204669
Zn5	Zn	-0.249625	-1.011109	-0.295392
Zn6	Zn	0.250375	-0.511109	0.204608
Zn7	Zn	-0.354334	-1.011056	-0.419520
Zn8	Zn	0.145666	-0.511056	0.080480
O9	O	-0.301995	-1.073164	-0.357443
O10	O	0.198005	-0.573164	0.142557
O11	O	-0.263542	-1.239204	-0.403031
O12	O	0.236458	-0.739204	0.096969
O13	O	-0.340545	-1.118719	-0.191415
O14	O	0.159455	-0.618719	0.308585
O15	O	-0.161946	-1.027644	-0.311889
O16	O	0.338054	-0.527644	0.188111
O17	O	-0.340534	-1.239134	-0.311784
O18	O	0.159466	-0.739134	0.188216
O19	O	-0.161938	-1.118881	-0.403091
O20	O	0.338062	-0.618881	0.096909
O21	O	-0.263561	-1.027552	-0.191460
O22	O	0.236439	-0.527552	0.308540
O23	O	-0.263488	-0.907178	-0.311880
O24	O	0.236512	-0.407178	0.188120
O25	O	-0.340407	-1.027554	-0.523446
O26	O	0.159593	-0.527554	-0.023446
O27	O	-0.340417	-0.907139	-0.403076
O28	O	0.159583	-0.407139	0.096924
O29	O	-0.263470	-1.118830	-0.523452
O30	O	0.236530	-0.618830	-0.023452
O31	O	-0.442077	-1.118668	-0.311776
O32	O	0.057923	-0.618668	0.188224
O33	O	-0.442022	-1.027462	-0.403017
O34	O	0.057978	-0.527462	0.096983
C35	C	-0.301946	-0.880212	-0.357484
C36	C	0.198054	-0.380212	0.142516
C37	C	-0.301940	-0.797666	-0.357520
C38	C	0.198060	-0.297666	0.142480
C39	C	-0.464783	-1.073069	-0.357405
C40	C	0.035217	-0.573069	0.142595
C41	C	-0.534424	-1.073096	-0.357413
C42	C	-0.034424	-0.573096	0.142587
C43	C	-0.343887	-0.598216	-0.407004
C44	C	0.156113	-0.098216	0.092996
C45	C	-0.286752	-0.548825	-0.425286
C46	C	0.213248	-0.048825	0.074714
C47	C	-0.301970	-0.646536	-0.357491
C48	C	0.198030	-0.146536	0.142509
C49	C	-0.359132	-0.548845	-0.339216
C50	C	0.140868	-0.048845	0.160784
C51	C	-0.302003	-0.500550	-0.357465
C52	C	0.197997	-0.000550	0.142535
C53	C	-0.244805	-0.598232	-0.375808
C54	C	0.255195	-0.098232	0.124192
C55	C	-0.317223	-0.598256	-0.289707
C56	C	0.182777	-0.098256	0.210293
C57	C	-0.260049	-0.548888	-0.307963
C58	C	0.239951	-0.048888	0.192037
C59	C	-0.301951	-0.730634	-0.357508
C60	C	0.198049	-0.230634	0.142492
C61	C	-0.302016	-0.416454	-0.357448
C62	C	0.197984	0.083546	0.142552
C63	C	-0.567076	-1.120576	-0.404936
C64	C	-0.067076	-0.620576	0.095064
C65	C	-0.632512	-1.120602	-0.404954
C66	C	-0.132512	-0.620602	0.095046
C67	C	-0.665293	-1.073156	-0.357436
C68	C	-0.165293	-0.573156	0.142564
C69	C	-0.632633	-1.025667	-0.309910
C70	C	-0.132633	-0.525667	0.190090
C71	C	-0.567198	-1.025637	-0.309899
C72	C	-0.067198	-0.525637	0.190101
C73	C	-0.769010	-1.067385	-0.290541
C74	C	-0.269010	-0.567385	0.209459
C75	C	-0.834443	-1.067421	-0.290552
C76	C	-0.334443	-0.567421	0.209448
C77	C	-0.867113	-1.073244	-0.357472
C78	C	-0.367113	-0.573244	0.142528
C79	C	-0.834342	-1.079048	-0.424385
C80	C	-0.334342	-0.579048	0.075615
C81	C	-0.768908	-1.079018	-0.424373
C82	C	-0.268908	-0.579018	0.075627
C83	C	-0.736245	-1.073183	-0.357444
C84	C	-0.236245	-0.573183	0.142556
C85	C	-0.970718	-1.120755	-0.405019
C86	C	-0.470718	-0.620755	0.094981
C87	C	-1.036154	-1.120776	-0.405038
C88	C	-0.536154	-0.620776	0.094962
C89	C	-1.036274	-1.025845	-0.309987
C90	C	-0.536274	-0.525845	0.190013
C91	C	-0.970839	-1.025820	-0.309975
C92	C	-0.470839	-0.525820	0.190025
C93	C	-0.938065	-1.073279	-0.357489
C94	C	-0.438065	-0.573279	0.142511
C95	C	-0.138572	-1.073279	-0.357497
C96	C	0.361428	-0.573279	0.142503
C97	C	-0.068931	-1.073329	-0.357521
C98	C	0.431069	-0.573329	0.142479
C99	C	-0.301928	-1.073197	-0.551149
C100	C	0.198072	-0.573197	-0.051149
C101	C	-0.301900	-1.073211	-0.633694
C102	C	0.198100	-0.573211	-0.133694
C103	C	-0.302037	-0.266869	-0.357414
C104	C	0.197963	0.233131	0.142586
C105	C	-0.302032	-0.349415	-0.357434
C106	C	0.197968	0.150585	0.142566
C107	C	-0.260041	-1.122896	-0.833148
C108	C	0.239959	-0.622896	-0.333148
C109	C	-0.244694	-1.055163	-0.882566
C110	C	0.255306	-0.555163	-0.382566
C111	C	-0.301889	-1.073240	-0.784825
C112	C	0.198111	-0.573240	-0.284825
C113	C	-0.317197	-1.141001	-0.882489
C114	C	0.182803	-0.641001	-0.382489
C115	C	-0.301878	-1.073275	-0.930810
C116	C	0.198122	-0.573275	-0.430810
C117	C	-0.286512	-1.005471	-0.833155
C118	C	0.213488	-0.505471	-0.333155
C119	C	-0.359042	-1.091355	-0.833074
C120	C	0.140958	-0.591355	-0.333074
C121	C	-0.343716	-1.023575	-0.882469
C122	C	0.156284	-0.523575	-0.382469
C123	C	-0.301894	-1.073221	-0.700726
C124	C	0.198106	-0.573221	-0.200726
C125	C	-0.301873	-1.073286	-1.014907
C126	C	0.198127	-0.573286	-0.514907
C127	C	-0.302017	-1.073174	-0.164491
C128	C	0.197983	-0.573174	0.335509
C129	C	-0.301869	-1.073304	-0.081945
C130	C	0.198131	-0.573304	0.418055
H131	H	-0.379275	-0.619877	-0.448920
H132	H	0.120725	-0.119877	0.051080
H133	H	-0.196356	-1.039852	-0.904306
H134	H	0.303644	-0.539852	-0.404306
H135	H	-0.224574	-0.527365	-0.266080
H136	H	0.275426	-0.027365	0.233920
C137	C	-0.732859	-1.085395	-0.497968
C138	C	-0.232859	-0.585395	0.002032
H139	H	-0.689211	-1.084547	-0.488373
H140	H	-0.189211	-0.584547	0.011627
H141	H	-0.743582	-1.044981	-0.529185
H142	H	-0.243582	-0.544981	-0.029185
H143	H	-0.743537	-1.130601	-0.521744
H144	H	-0.243537	-0.630601	-0.021744
H145	H	-0.379101	-0.981549	-0.903988
H146	H	0.120899	-0.481549	-0.403988
H147	H	-0.330149	-1.198290	-0.904162
H148	H	0.169851	-0.698290	-0.404162
C149	C	-0.179500	-0.627406	-0.396768
C150	C	0.320500	-0.127406	0.103232
H151	H	-0.152254	-0.586774	-0.405481
H152	H	0.347746	-0.086774	0.094519
H153	H	-0.182424	-0.656692	-0.440350
H154	H	0.317576	-0.156692	0.059650
H155	H	-0.163530	-0.656741	-0.357393
H156	H	0.336470	-0.156741	0.142607
C157	C	-0.870489	-1.061028	-0.216955
C158	C	-0.370489	-0.561028	0.283045
H159	H	-0.914137	-1.061886	-0.226545
H160	H	-0.414137	-0.561886	0.273455
H161	H	-0.859806	-1.015822	-0.193190
H162	H	-0.359806	-0.515822	0.306810
H163	H	-0.859765	-1.101441	-0.185730
H164	H	-0.359765	-0.601441	0.314270
H165	H	-0.224630	-1.164819	-0.811490
H166	H	0.275370	-0.664819	-0.311490
H167	H	-0.407458	-0.527147	-0.323772
H168	H	0.092542	-0.027147	0.176228
C169	C	-0.668686	-0.973476	-0.257642
C170	C	-0.168686	-0.473476	0.242358
H171	H	-0.639865	-0.945189	-0.229340
H172	H	-0.139865	-0.445189	0.270660
H173	H	-0.694218	-1.001915	-0.225303
H174	H	-0.194218	-0.501915	0.274697
H175	H	-0.694209	-0.941110	-0.286042
H176	H	-0.194209	-0.441110	0.213958
H177	H	-0.540393	-1.159218	-0.443627
H178	H	-0.040393	-0.659218	0.056373
H179	H	-0.273503	-0.948165	-0.811575
H180	H	0.226497	-0.448165	-0.311575
C181	C	-0.668437	-1.172839	-0.457224
C182	C	-0.168437	-0.672839	0.042776
H183	H	-0.639546	-1.201103	-0.485515
H184	H	-0.139546	-0.701103	0.014485
H185	H	-0.693960	-1.144430	-0.489572
H186	H	-0.193960	-0.644430	0.010428
H187	H	-0.693960	-1.205225	-0.428823
H188	H	-0.193960	-0.705225	0.071177
H189	H	-0.330130	-0.619985	-0.232411
H190	H	0.169870	-0.119985	0.267589
C191	C	-0.424323	-1.112061	-0.803678
C192	C	0.075677	-0.612061	-0.303678
H193	H	-0.440348	-1.072408	-0.774729
H194	H	0.059652	-0.572408	-0.274729
H195	H	-0.421349	-1.155353	-0.773964
H196	H	0.078651	-0.655353	-0.273964
H197	H	-0.451550	-1.121189	-0.844212
H198	H	0.048450	-0.621189	-0.344212
C199	C	-0.269345	-0.519474	-0.502703
C200	C	0.230655	-0.019474	-0.002703
H201	H	-0.299158	-0.536355	-0.537836
H202	H	0.200842	-0.036355	-0.037836
H203	H	-0.229038	-0.537103	-0.516027
H204	H	0.270962	-0.037103	-0.016027
H205	H	-0.269117	-0.466850	-0.502009
H206	H	0.230883	0.033150	-0.002009
H207	H	-0.860940	-1.083792	-0.478878
H208	H	-0.360940	-0.583792	0.021122
H209	H	-0.944032	-1.159397	-0.443710
H210	H	-0.444032	-0.659397	0.056290
C211	C	-0.531280	-0.973412	-0.257617
C212	C	-0.031280	-0.473412	0.242383
H213	H	-0.560172	-0.945160	-0.229316
H214	H	-0.060172	-0.445160	0.270684
H215	H	-0.505749	-0.941026	-0.285999
H216	H	-0.005749	-0.441026	0.214001
H217	H	-0.505764	-1.001837	-0.225267
H218	H	-0.005764	-0.501837	0.274733
H219	H	-1.062739	-1.159439	-0.443740
H220	H	-0.562739	-0.659439	0.056260
H221	H	-0.944252	-0.987161	-0.271274
H222	H	-0.444252	-0.487161	0.228726
C223	C	-1.072325	-0.973651	-0.257723
C224	C	-0.572325	-0.473651	0.242277
H225	H	-1.115972	-0.980469	-0.264534
H226	H	-0.615972	-0.480469	0.235466
H227	H	-1.061619	-0.923742	-0.268562
H228	H	-0.561619	-0.423742	0.231438
H229	H	-1.061633	-0.984549	-0.207825
H230	H	-0.561633	-0.484549	0.292175
C231	C	-0.733077	-1.060982	-0.216926
C232	C	-0.233077	-0.560982	0.283074
H233	H	-0.689414	-1.061789	-0.226501
H234	H	-0.189414	-0.561789	0.273499
H235	H	-0.743800	-1.101407	-0.185715
H236	H	-0.243800	-0.601407	0.314285
H237	H	-0.743842	-1.015787	-0.193153
H238	H	-0.243842	-0.515787	0.306847
