data_functionalizedCrystal
_audit_creation_method	'MofGen! by Chris Wilmer'
_symmetry_space_group_name_H-M	'P1'
_symmetry_Int_Tables_number	1
_symmetry_cell_setting	triclinic
loop_
_symmetry_equiv_pos_as_xyz
  x,y,z
_cell_length_a	16.120490
_cell_length_b	12.645330
_cell_length_c	16.120297
_cell_angle_alpha	87.125115
_cell_angle_beta	89.870317
_cell_angle_gamma	87.105131
loop_
_atom_site_label
_atom_site_type_symbol
_atom_site_fract_x
_atom_site_fract_y
_atom_site_fract_z
Zn1	Zn	1.247526	-0.537168	0.534551
Zn2	Zn	1.497526	-0.287168	0.784551
Zn3	Zn	1.747526	-0.037168	1.034551
Zn4	Zn	1.997526	0.212832	1.284551
Zn5	Zn	1.254502	-0.705931	0.395499
Zn6	Zn	1.504502	-0.455931	0.645499
Zn7	Zn	1.754502	-0.205931	0.895499
Zn8	Zn	2.004502	0.044069	1.145499
Zn9	Zn	1.115513	-0.519245	0.388472
Zn10	Zn	1.365513	-0.269245	0.638472
Zn11	Zn	1.615513	-0.019245	0.888472
Zn12	Zn	1.865513	0.230755	1.138472
Zn13	Zn	1.108457	-0.704945	0.527472
Zn14	Zn	1.358457	-0.454945	0.777472
Zn15	Zn	1.608457	-0.204945	1.027472
Zn16	Zn	1.858457	0.045055	1.277472
O17	O	1.181500	-0.616823	0.461498
O18	O	1.431500	-0.366823	0.711498
O19	O	1.681500	-0.116823	0.961498
O20	O	1.931500	0.133177	1.211498
O21	O	1.364820	-0.567469	0.522009
O22	O	1.614820	-0.317469	0.772009
O23	O	1.864820	-0.067469	1.022009
O24	O	2.114820	0.182531	1.272009
O25	O	1.241937	-0.674079	0.278201
O26	O	1.491937	-0.424079	0.528201
O27	O	1.741937	-0.174079	0.778201
O28	O	1.991937	0.075921	1.028201
O29	O	1.133058	-0.373279	0.407872
O30	O	1.383058	-0.123279	0.657872
O31	O	1.633058	0.126721	0.907872
O32	O	1.883058	0.376721	1.157872
O33	O	1.369944	-0.691458	0.419848
O34	O	1.619944	-0.441458	0.669848
O35	O	1.869944	-0.191458	0.919848
O36	O	2.119944	0.058542	1.169848
O37	O	1.230048	-0.386447	0.515196
O38	O	1.480048	-0.136447	0.765196
O39	O	1.730048	0.113553	1.015196
O40	O	1.980048	0.363553	1.265196
O41	O	1.139822	-0.536922	0.273038
O42	O	1.389822	-0.286922	0.523038
O43	O	1.639822	-0.036922	0.773038
O44	O	1.889822	0.213078	1.023038
O45	O	0.998209	-0.535965	0.401007
O46	O	1.248209	-0.285965	0.651007
O47	O	1.498209	-0.035965	0.901007
O48	O	1.748209	0.214035	1.151007
O49	O	1.121033	-0.689777	0.644777
O50	O	1.371033	-0.439777	0.894777
O51	O	1.621033	-0.189777	1.144777
O52	O	1.871033	0.060223	1.394777
O53	O	0.993025	-0.672398	0.503129
O54	O	1.243025	-0.422398	0.753129
O55	O	1.493025	-0.172398	1.003129
O56	O	1.743025	0.077602	1.253129
O57	O	1.223206	-0.566512	0.649978
O58	O	1.473206	-0.316512	0.899978
O59	O	1.723206	-0.066512	1.149978
O60	O	1.973206	0.183488	1.399978
O61	O	1.235095	-0.854144	0.412983
O62	O	1.485095	-0.604144	0.662983
O63	O	1.735095	-0.354144	0.912983
O64	O	1.985095	-0.104144	1.162983
O65	O	1.127797	-0.853419	0.509943
O66	O	1.377797	-0.603419	0.759943
O67	O	1.627797	-0.353419	1.009943
O68	O	1.877797	-0.103419	1.259943
C69	C	0.965444	-0.602130	0.450538
C70	C	1.215444	-0.352130	0.700538
C71	C	1.465444	-0.102130	0.950538
C72	C	1.715444	0.147870	1.200538
C73	C	0.873014	-0.595872	0.445869
C74	C	1.123014	-0.345872	0.695869
C75	C	1.373014	-0.095872	0.945869
C76	C	1.623014	0.154128	1.195869
C77	C	0.660060	-0.649279	0.485720
C78	C	0.910060	-0.399279	0.735720
C79	C	1.160060	-0.149279	0.985720
C80	C	1.410060	0.100721	1.235720
C81	C	0.703787	-0.584455	0.437343
C82	C	0.953787	-0.334455	0.687343
C83	C	1.203787	-0.084455	0.937343
C84	C	1.453787	0.165545	1.187343
C85	C	0.797954	-0.590809	0.442088
C86	C	1.047954	-0.340809	0.692088
C87	C	1.297954	-0.090809	0.942088
C88	C	1.547954	0.159191	1.192088
C89	C	0.565885	-0.642926	0.480976
C90	C	0.815885	-0.392926	0.730976
C91	C	1.065885	-0.142926	0.980976
C92	C	1.315885	0.107074	1.230976
C93	C	1.181459	-0.892248	0.461477
C94	C	1.431459	-0.642248	0.711477
C95	C	1.681459	-0.392248	0.961477
C96	C	1.931459	-0.142248	1.211477
C97	C	1.181516	-1.010083	0.461499
C98	C	1.431516	-0.760083	0.711499
C99	C	1.681516	-0.510083	0.961499
C100	C	1.931516	-0.260083	1.211499
C101	C	1.248921	-1.178044	0.400366
C102	C	1.498921	-0.928044	0.650366
C103	C	1.748921	-0.678044	0.900366
C104	C	1.998921	-0.428044	1.150366
C105	C	1.249122	-1.055508	0.400534
C106	C	1.499122	-0.805508	0.650534
C107	C	1.749122	-0.555508	0.900534
C108	C	1.999122	-0.305508	1.150534
C109	C	1.200837	-1.061450	0.550355
C110	C	1.450837	-0.811450	0.800355
C111	C	1.700837	-0.561450	1.050355
C112	C	1.950837	-0.311450	1.300355
C113	C	1.201363	-1.184062	0.550039
C114	C	1.451363	-0.934062	0.800039
C115	C	1.701363	-0.684062	1.050039
C116	C	1.951363	-0.434062	1.300039
C117	C	1.094722	-1.170067	0.434638
C118	C	1.344722	-0.920067	0.684638
C119	C	1.594722	-0.670067	0.934638
C120	C	1.844722	-0.420067	1.184638
C121	C	1.095243	-1.047371	0.432694
C122	C	1.345243	-0.797371	0.682694
C123	C	1.595243	-0.547371	0.932694
C124	C	1.845243	-0.297371	1.182694
C125	C	1.398399	-0.631573	0.472502
C126	C	1.648399	-0.381573	0.722502
C127	C	1.898399	-0.131573	0.972502
C128	C	2.148399	0.118427	1.222502
C129	C	1.490828	-0.637859	0.477191
C130	C	1.740828	-0.387859	0.727191
C131	C	1.990828	-0.137859	0.977191
C132	C	2.240828	0.112141	1.227191
C133	C	1.170554	-0.630034	0.678393
C134	C	1.420554	-0.380034	0.928393
C135	C	1.670554	-0.130034	1.178393
C136	C	1.920554	0.119966	1.428393
C137	C	1.165890	-0.635664	0.770821
C138	C	1.415890	-0.385664	1.020821
C139	C	1.665890	-0.135664	1.270821
C140	C	1.915890	0.114336	1.520821
C141	C	1.181562	-0.340324	0.461540
C142	C	1.431562	-0.090324	0.711540
C143	C	1.681562	0.159676	0.961540
C144	C	1.931562	0.409676	1.211540
C145	C	1.181589	-0.222497	0.461557
C146	C	1.431589	0.027503	0.711557
C147	C	1.681589	0.277503	0.961557
C148	C	1.931589	0.527503	1.211557
C149	C	1.192450	-0.603589	0.245450
C150	C	1.442450	-0.353589	0.495450
C151	C	1.692450	-0.103589	0.745450
C152	C	1.942450	0.146411	0.995450
C153	C	1.197275	-0.597672	0.153031
C154	C	1.447275	-0.347672	0.403031
C155	C	1.697275	-0.097672	0.653031
C156	C	1.947275	0.152328	0.903031
C157	C	1.157344	-0.645917	0.940046
C158	C	1.407344	-0.395917	1.190046
C159	C	1.657344	-0.145917	1.440046
C160	C	1.907344	0.104083	1.690046
C161	C	1.205819	-0.587421	0.983811
C162	C	1.455819	-0.337421	1.233811
C163	C	1.705819	-0.087421	1.483811
C164	C	1.955819	0.162579	1.733811
C165	C	1.201064	-0.593126	1.077974
C166	C	1.451064	-0.343126	1.327974
C167	C	1.701064	-0.093126	1.577974
C168	C	1.951064	0.156874	1.827974
C169	C	1.162098	-0.640214	0.845875
C170	C	1.412098	-0.390214	1.095875
C171	C	1.662098	-0.140214	1.345875
C172	C	1.912098	0.109786	1.595875
H173	H	1.237549	-1.020513	0.334788
H174	H	1.487549	-0.770513	0.584788
H175	H	1.737549	-0.520513	0.834788
H176	H	1.987549	-0.270513	1.084788
H177	H	1.154226	-1.213743	0.597443
H178	H	1.404226	-0.963743	0.847443
H179	H	1.654226	-0.713743	1.097443
H180	H	1.904226	-0.463743	1.347443
O181	O	0.659698	-0.504632	0.377752
O182	O	0.909698	-0.254632	0.627752
O183	O	1.159698	-0.004632	0.877752
O184	O	1.409698	0.245368	1.127752
H185	H	0.675578	-0.423427	0.392941
H186	H	0.925578	-0.173427	0.642941
H187	H	1.175578	0.076573	0.892941
H188	H	1.425578	0.326573	1.142941
H189	H	0.693342	-0.709545	0.530697
H190	H	0.943342	-0.459545	0.780697
H191	H	1.193342	-0.209545	1.030697
H192	H	1.443342	0.040455	1.280697
O193	O	1.097643	-0.717925	0.984085
O194	O	1.347643	-0.467925	1.234085
O195	O	1.597643	-0.217925	1.484085
O196	O	1.847643	0.032075	1.734085
H197	H	1.112706	-0.801108	0.968194
H198	H	1.362706	-0.551108	1.218194
H199	H	1.612706	-0.301108	1.468194
H200	H	1.862706	-0.051108	1.718194
H201	H	1.153095	-1.032253	0.597360
H202	H	1.403095	-0.782253	0.847360
H203	H	1.653095	-0.532253	1.097360
H204	H	1.903095	-0.282253	1.347360
H205	H	1.313009	-1.214077	0.418340
H206	H	1.563009	-0.964077	0.668340
H207	H	1.813009	-0.714077	0.918340
H208	H	2.063009	-0.464077	1.168340
O209	O	1.234348	-1.211461	0.313189
O210	O	1.484348	-0.961461	0.563189
O211	O	1.734348	-0.711461	0.813189
O212	O	1.984348	-0.461461	1.063189
H213	H	1.178895	-1.259993	0.312518
H214	H	1.428895	-1.009993	0.562518
H215	H	1.678895	-0.759993	0.812518
H216	H	1.928895	-0.509993	1.062518
H217	H	1.313551	-1.031436	0.418692
H218	H	1.563551	-0.781436	0.668692
H219	H	1.813551	-0.531436	0.918692
H220	H	2.063551	-0.281436	1.168692
H221	H	1.080595	-1.013205	0.367282
H222	H	1.330595	-0.763205	0.617282
H223	H	1.580595	-0.513205	0.867282
H224	H	1.830595	-0.263205	1.117282
H225	H	1.264726	-1.218108	0.572324
H226	H	1.514726	-0.968108	0.822324
H227	H	1.764726	-0.718108	1.072324
H228	H	2.014726	-0.468108	1.322324
H229	H	1.250891	-0.533056	0.950561
H230	H	1.500891	-0.283056	1.200561
H231	H	1.750891	-0.033056	1.450561
H232	H	2.000891	0.216944	1.700561
O233	O	1.283789	-1.027980	0.580250
O234	O	1.533789	-0.777980	0.830250
O235	O	1.783789	-0.527980	1.080250
O236	O	2.033789	-0.277980	1.330250
H237	H	1.311384	-0.974793	0.531975
H238	H	1.561384	-0.724793	0.781975
H239	H	1.811384	-0.474793	1.031975
H240	H	2.061384	-0.224793	1.281975
H241	H	1.076295	-1.195761	0.370741
H242	H	1.326295	-0.945761	0.620741
H243	H	1.576295	-0.695761	0.870741
H244	H	1.826295	-0.445761	1.120741
O245	O	1.025674	-1.005826	0.486919
O246	O	1.275674	-0.755826	0.736919
O247	O	1.525674	-0.505826	0.986919
O248	O	1.775674	-0.255826	1.236919
H249	H	1.051619	-0.957745	0.535468
H250	H	1.301619	-0.707745	0.785468
H251	H	1.551619	-0.457745	1.035468
H252	H	1.801619	-0.207745	1.285468
H253	H	1.044609	-1.198709	0.479152
H254	H	1.294609	-0.948709	0.729152
H255	H	1.544609	-0.698709	0.979152
H256	H	1.794609	-0.448709	1.229152
