data_functionalizedCrystal
_audit_creation_method	'MofGen! by Chris Wilmer'
_symmetry_space_group_name_H-M	'P1'
_symmetry_Int_Tables_number	1
_symmetry_cell_setting	triclinic
loop_
_symmetry_equiv_pos_as_xyz
  x,y,z
_cell_length_a	12.759401
_cell_length_b	12.645330
_cell_length_c	12.759393
_cell_angle_alpha	89.967817
_cell_angle_beta	89.981504
_cell_angle_gamma	90.012807
loop_
_atom_site_label
_atom_site_type_symbol
_atom_site_fract_x
_atom_site_fract_y
_atom_site_fract_z
Zn1	Zn	1.606270	-0.421972	-0.593977
Zn2	Zn	2.106270	0.078028	-0.093977
Zn3	Zn	1.606171	-0.599276	-0.418295
Zn4	Zn	2.106171	-0.099276	0.081705
Zn5	Zn	1.430572	-0.422028	-0.418316
Zn6	Zn	1.930572	0.077972	0.081684
Zn7	Zn	1.430567	-0.599195	-0.593937
Zn8	Zn	1.930567	-0.099195	-0.093937
O9	O	1.518395	-0.510618	-0.506131
O10	O	2.018395	-0.010618	-0.006131
O11	O	1.753278	-0.445503	-0.570680
O12	O	2.253278	0.054497	-0.070680
O13	O	1.582838	-0.575821	-0.271277
O14	O	2.082838	-0.075821	0.228723
O15	O	1.453923	-0.273673	-0.441644
O16	O	1.953923	0.226327	0.058356
O17	O	1.753205	-0.575767	-0.441608
O18	O	2.253205	-0.075767	0.058392
O19	O	1.583007	-0.273632	-0.570701
O20	O	2.083007	0.226368	-0.070701
O21	O	1.453826	-0.445598	-0.271292
O22	O	1.953826	0.054402	0.228708
O23	O	1.283551	-0.445518	-0.441605
O24	O	1.783551	0.054482	0.058395
O25	O	1.453914	-0.575628	-0.740963
O26	O	1.953914	-0.075628	-0.240963
O27	O	1.283547	-0.575682	-0.570632
O28	O	1.783547	-0.075682	-0.070632
O29	O	1.583002	-0.445424	-0.740993
O30	O	2.083002	0.054576	-0.240993
O31	O	1.582833	-0.747613	-0.441569
O32	O	2.082833	-0.247613	0.058431
O33	O	1.453818	-0.747553	-0.570612
O34	O	1.953818	-0.247553	-0.070612
C35	C	1.245428	-0.510598	-0.506117
C36	C	1.745428	-0.010598	-0.006117
C37	C	1.128651	-0.510615	-0.506136
C38	C	1.628651	-0.010615	-0.006136
C39	C	1.073815	-0.578500	-0.573209
C40	C	1.573815	-0.078500	-0.073209
C41	C	0.964091	-0.578514	-0.573221
C42	C	1.464091	-0.078514	-0.073221
C43	C	0.964049	-0.442755	-0.439076
C44	C	1.464049	0.057245	0.060924
C45	C	1.073771	-0.442737	-0.439071
C46	C	1.573771	0.057263	0.060929
C47	C	1.128695	-0.646379	-0.640274
C48	C	1.628695	-0.146379	-0.140274
C49	C	1.073858	-0.714270	-0.707352
C50	C	1.573858	-0.214270	-0.207352
C51	C	0.964134	-0.714284	-0.707364
C52	C	1.464134	-0.214284	-0.207364
C53	C	0.909247	-0.646406	-0.640297
C54	C	1.409247	-0.146406	-0.140297
C55	C	1.518343	-0.786047	-0.506106
C56	C	2.018343	-0.286047	-0.006106
C57	C	1.518416	-0.903877	-0.506131
C58	C	2.018416	-0.403877	-0.006131
C59	C	1.599449	-1.071435	-0.424785
C60	C	2.099449	-0.571435	0.075215
C61	C	1.599713	-0.948875	-0.424984
C62	C	2.099713	-0.448875	0.075016
C63	C	1.548444	-0.948249	-0.616875
C64	C	2.048444	-0.448249	-0.116875
C65	C	1.549087	-1.070848	-0.616443
C66	C	2.049087	-0.570848	-0.116443
C67	C	1.407324	-1.071208	-0.477824
C68	C	1.907324	-0.571208	0.022176
C69	C	1.407856	-0.948604	-0.475340
C70	C	1.907856	-0.448604	0.024660
C71	C	1.792428	-0.510638	-0.506146
C72	C	2.292428	-0.010638	-0.006146
C73	C	1.909205	-0.510647	-0.506152
C74	C	2.409205	-0.010647	-0.006152
C75	C	1.518469	-0.510511	-0.780165
C76	C	2.018469	-0.010511	-0.280165
C77	C	1.518500	-0.510465	-0.896941
C78	C	2.018500	-0.010465	-0.396941
C79	C	1.518477	-0.234112	-0.506179
C80	C	2.018477	0.265888	-0.006179
C81	C	1.518511	-0.116282	-0.506200
C82	C	2.018511	0.383718	-0.006200
C83	C	1.585726	-0.442661	-0.951821
C84	C	2.085726	0.057339	-0.451821
C85	C	1.585751	-0.442623	-1.061545
C86	C	2.085751	0.057377	-0.561545
C87	C	1.451322	-0.578202	-1.061501
C88	C	1.951322	-0.078202	-0.561501
C89	C	1.451292	-0.578234	-0.951779
C90	C	1.951292	-0.078234	-0.451779
C91	C	1.652934	-0.374893	-0.896983
C92	C	2.152934	0.125107	-0.396983
C93	C	1.720166	-0.307084	-0.951862
C94	C	2.220166	0.192916	-0.451862
C95	C	1.720191	-0.307046	-1.061587
C96	C	2.220191	0.192954	-0.561587
C97	C	1.652984	-0.374816	-1.116432
C98	C	2.152984	0.125184	-0.616432
C99	C	1.518382	-0.510648	-0.233164
C100	C	2.018382	-0.010648	0.266836
C101	C	1.518555	-0.510395	-0.116388
C102	C	2.018555	-0.010395	0.383612
H103	H	1.580926	-0.918879	-0.342869
H104	H	2.080926	-0.418879	0.157131
H105	H	1.580897	-1.100995	-0.342430
H106	H	2.080897	-0.600995	0.157570
H107	H	1.630360	-1.099358	-0.640480
H108	H	2.130360	-0.599358	-0.140480
H109	H	1.652997	-0.374767	-1.205776
H110	H	2.152997	0.125233	-0.705776
H111	H	1.774876	-0.251901	-0.907201
H112	H	2.274876	0.248099	-0.407201
H113	H	1.118420	-0.387451	-0.384461
H114	H	1.618420	0.112549	0.115539
H115	H	1.491287	-0.919098	-0.679160
H116	H	1.991287	-0.419098	-0.179160
H117	H	1.681361	-1.102163	-0.443343
H118	H	2.181361	-0.602163	0.056657
H119	H	1.344298	-0.917984	-0.530291
H120	H	1.844298	-0.417984	-0.030291
H121	H	1.492718	-1.100509	-0.679193
H122	H	1.992718	-0.600509	-0.179193
H123	H	1.628799	-0.917459	-0.641312
H124	H	2.128799	-0.417459	-0.141312
H125	H	1.380017	-1.102224	-0.398476
H126	H	1.880017	-0.602224	0.101524
H127	H	1.396605	-0.633376	-1.106164
H128	H	1.896605	-0.133376	-0.606164
H129	H	1.396535	-0.633429	-0.907095
H130	H	1.896535	-0.133429	-0.407095
H131	H	1.218038	-0.646378	-0.640271
H132	H	1.718038	-0.146378	-0.140271
H133	H	0.919351	-0.387493	-0.384473
H134	H	1.419351	0.112507	0.115527
H135	H	0.819902	-0.646413	-0.640321
H136	H	1.319902	-0.146413	-0.140321
H137	H	1.118555	-0.769527	-0.761962
H138	H	1.618555	-0.269527	-0.261962
H139	H	0.919489	-0.769556	-0.761989
H140	H	1.419489	-0.269556	-0.261989
H141	H	1.385215	-0.919614	-0.393842
H142	H	1.885215	-0.419614	0.106158
H143	H	1.652923	-0.374918	-0.807640
H144	H	2.152923	0.125082	-0.307640
H145	H	1.682066	-0.919465	-0.443752
H146	H	2.182066	-0.419465	0.056248
H147	H	1.347018	-1.100210	-0.537121
H148	H	1.847018	-0.600210	-0.037121
H149	H	1.774926	-0.251825	-1.106266
H150	H	2.274926	0.248175	-0.606266
