data_functionalizedCrystal
_audit_creation_method	'MofGen! by Chris Wilmer'
_symmetry_space_group_name_H-M	'P1'
_symmetry_Int_Tables_number	1
_symmetry_cell_setting	triclinic
loop_
_symmetry_equiv_pos_as_xyz
  x,y,z
_cell_length_a	12.759401
_cell_length_b	12.759399
_cell_length_c	12.759393
_cell_angle_alpha	89.969730
_cell_angle_beta	89.980677
_cell_angle_gamma	90.014202
loop_
_atom_site_label
_atom_site_type_symbol
_atom_site_fract_x
_atom_site_fract_y
_atom_site_fract_z
Zn1	Zn	1.606258	-0.418248	-0.593985
Zn2	Zn	1.606150	-0.593961	-0.418304
Zn3	Zn	1.430559	-0.418294	-0.418324
Zn4	Zn	1.430548	-0.593882	-0.593945
O5	O	1.518379	-0.506096	-0.506140
O6	O	1.753265	-0.441570	-0.570689
O7	O	1.582816	-0.570711	-0.271286
O8	O	1.453916	-0.271267	-0.441651
O9	O	1.753185	-0.570666	-0.441617
O10	O	1.583001	-0.271233	-0.570709
O11	O	1.453810	-0.441649	-0.271300
O12	O	1.283536	-0.441573	-0.441612
O13	O	1.453897	-0.570532	-0.740971
O14	O	1.283528	-0.570577	-0.570640
O15	O	1.582991	-0.441494	-0.741001
O16	O	1.582806	-0.740972	-0.441578
O17	O	1.453792	-0.740914	-0.570620
C18	C	1.245411	-0.506072	-0.506124
C19	C	1.128635	-0.506087	-0.506142
C20	C	0.964078	-0.439012	-0.573461
C21	C	1.073802	-0.438992	-0.573454
C22	C	1.073738	-0.573214	-0.438841
C23	C	0.964016	-0.573240	-0.438854
C24	C	1.518314	-0.779064	-0.506116
C25	C	1.518383	-0.895840	-0.506141
C26	C	1.585637	-0.950698	-0.439024
C27	C	1.585704	-1.060422	-0.439060
C28	C	1.451254	-1.060422	-0.573330
C29	C	1.451193	-0.950699	-0.573299
C30	C	1.792412	-0.506122	-0.506156
C31	C	1.909188	-0.506133	-0.506162
C32	C	1.518455	-0.505999	-0.780173
C33	C	1.518487	-0.505957	-0.896950
C34	C	1.518472	-0.232063	-0.506186
C35	C	1.518512	-0.115286	-0.506207
C36	C	1.585688	-0.573081	-1.061540
C37	C	1.585663	-0.573131	-0.951816
C38	C	1.451325	-0.438736	-0.951814
C39	C	1.451346	-0.438693	-1.061536
C40	C	1.518363	-0.506118	-0.233172
C41	C	1.518534	-0.505864	-0.116396
H42	H	0.919441	-0.384369	-0.628268
Br43	Br	1.360181	-0.347482	-1.135991
Br44	Br	0.889516	-0.664341	-0.347515
H45	H	1.118488	-0.384337	-0.628257
H46	H	1.640348	-0.906034	-0.384341
Br47	Br	1.676801	-0.664363	-0.877371
H48	H	1.396625	-0.384047	-0.907133
H49	H	1.640471	-1.105082	-0.384409
H50	H	1.396549	-1.105101	-0.628007
H51	H	1.396426	-0.906032	-0.627958
H52	H	1.640396	-0.627778	-1.106204
H53	H	1.118391	-0.627849	-0.384038
