data_functionalizedCrystal
_audit_creation_method	'MofGen! by Chris Wilmer'
_symmetry_space_group_name_H-M	'P1'
_symmetry_Int_Tables_number	1
_symmetry_cell_setting	triclinic
loop_
_symmetry_equiv_pos_as_xyz
  x,y,z
_cell_length_a	15.995292
_cell_length_b	27.732048
_cell_length_c	14.472310
_cell_angle_alpha	89.993924
_cell_angle_beta	89.985801
_cell_angle_gamma	83.055635
loop_
_atom_site_label
_atom_site_type_symbol
_atom_site_fract_x
_atom_site_fract_y
_atom_site_fract_z
O1	O	1.110222	0.062168	-0.076876
O2	O	1.610222	0.562168	0.423124
O3	O	0.866341	0.069891	-0.076874
O4	O	1.366341	0.569891	0.423126
O5	O	0.995856	-0.004336	-0.076857
O6	O	1.495856	0.495664	0.423143
O7	O	0.980707	0.136394	-0.076892
O8	O	1.480707	0.636394	0.423108
O9	O	0.995823	-0.004332	0.076825
O10	O	1.495823	0.495668	0.576825
O11	O	0.866307	0.069895	0.076808
O12	O	1.366307	0.569895	0.576808
O13	O	1.110189	0.062172	0.076806
O14	O	1.610189	0.562172	0.576806
Cu15	Cu	0.988245	0.066034	0.090839
Cu16	Cu	1.488245	0.566034	0.590839
Cu17	Cu	0.988285	0.066029	-0.090907
Cu18	Cu	1.488285	0.566029	0.409093
O19	O	0.980674	0.136398	0.076790
O20	O	1.480674	0.636398	0.576790
C21	C	0.835133	0.069579	-0.000032
C22	C	1.335133	0.569579	0.499968
C23	C	0.742192	0.068636	-0.000031
C24	C	1.242192	0.568636	0.499969
C25	C	0.404498	0.065172	-0.000040
C26	C	0.904498	0.565172	0.499960
C27	C	0.427117	0.118746	-0.000397
C28	C	0.927117	0.618746	0.499603
C29	C	0.523780	0.119765	-0.000047
C30	C	1.023780	0.619765	0.499953
C31	C	0.572032	0.066891	-0.000036
C32	C	1.072032	0.566891	0.499964
C33	C	0.543258	0.040108	0.087728
C34	C	1.043258	0.540108	0.587728
C35	C	0.446475	0.039463	0.087797
C36	C	0.946475	0.539463	0.587797
C37	C	0.446672	0.038365	-0.086968
C38	C	0.946672	0.538365	0.413032
C39	C	0.543139	0.040350	-0.088124
C40	C	1.043139	0.540350	0.411876
C41	C	0.666715	0.067859	-0.000030
C42	C	1.166715	0.567859	0.499970
C43	C	0.309815	0.064201	-0.000039
C44	C	0.809815	0.564201	0.499961
C45	C	0.995521	-0.022342	-0.000014
C46	C	1.495521	0.477658	0.499986
C47	C	0.994564	-0.076001	-0.000006
C48	C	1.494564	0.423999	0.499994
C49	C	1.065071	-0.414520	-0.000054
C50	C	1.565071	0.085480	0.499946
C51	C	1.061518	-0.616195	-0.000067
C52	C	1.561518	-0.116195	0.499933
O53	O	1.125992	-0.647180	-0.000108
O54	O	1.625992	-0.147180	0.499892
N55	N	0.984721	-0.635641	-0.000066
N56	N	1.484721	-0.135641	0.499934
C57	C	0.908806	-0.604664	-0.000067
C58	C	1.408806	-0.104664	0.499933
O59	O	0.843404	-0.625831	-0.000075
O60	O	1.343404	-0.125831	0.499925
C61	C	0.912360	-0.402991	-0.000061
C62	C	1.412360	0.097009	0.499939
C63	C	0.989162	-0.383548	-0.000053
C64	C	1.489162	0.116452	0.499947
C65	C	1.141867	-0.395077	-0.000048
C66	C	1.641867	0.104923	0.499952
C67	C	1.142754	-0.344662	-0.000039
C68	C	1.642754	0.155338	0.499961
C69	C	1.066845	-0.313689	-0.000038
C70	C	1.566845	0.186311	0.499962
C71	C	0.990049	-0.333132	-0.000045
C72	C	1.490049	0.166868	0.499955
C73	C	0.836446	-0.372015	-0.000069
C74	C	1.336446	0.127985	0.499931
C75	C	0.837342	-0.321594	-0.000069
C76	C	1.337342	0.178406	0.499931
C77	C	0.914144	-0.302151	-0.000062
C78	C	1.414144	0.197849	0.499938
C79	C	0.915028	-0.251744	-0.000035
C80	C	1.415028	0.248256	0.499965
N81	N	0.991825	-0.232298	-0.000036
N82	N	1.491825	0.267702	0.499964
C83	C	1.067734	-0.263271	-0.000038
C84	C	1.567734	0.236729	0.499962
C85	C	0.906946	-0.710546	-0.000068
C86	C	1.406946	-0.210546	0.499932
C87	C	0.906057	-0.760964	-0.000068
C88	C	1.406057	-0.260964	0.499932
C89	C	1.058770	-0.772492	-0.000070
C90	C	1.558770	-0.272492	0.499930
C91	C	1.059657	-0.722072	-0.000064
C92	C	1.559657	-0.222072	0.499936
C93	C	0.983743	-0.691100	-0.000070
C94	C	1.483743	-0.191100	0.499930
C95	C	1.069592	-0.157394	-0.000020
C96	C	1.569592	0.342606	0.499980
C97	C	1.070473	-0.106973	-0.000008
C98	C	1.570473	0.393027	0.499992
C99	C	0.917761	-0.095450	-0.000011
C100	C	1.417761	0.404550	0.499989
C101	C	0.916880	-0.145867	-0.000018
C102	C	1.416880	0.354133	0.499982
C103	C	0.992802	-0.176838	-0.000026
C104	C	1.492802	0.323162	0.499974
O105	O	0.850589	-0.220730	-0.000004
O106	O	1.350589	0.279270	0.499996
O107	O	1.133127	-0.242094	-0.000050
O108	O	1.633127	0.257906	0.499950
C109	C	1.064183	-0.464936	-0.000063
C110	C	1.564183	0.035064	0.499937
C111	C	0.987387	-0.484379	-0.000069
C112	C	1.487387	0.015621	0.499931
C113	C	0.911479	-0.453407	-0.000068
C114	C	1.411479	0.046593	0.499932
C115	C	0.986499	-0.534797	-0.000069
C116	C	1.486499	-0.034797	0.499931
C117	C	1.062407	-0.565770	-0.000071
C118	C	1.562407	-0.065770	0.499929
C119	C	1.139205	-0.546324	-0.000072
C120	C	1.639205	-0.046324	0.499928
C121	C	1.140092	-0.495909	-0.000064
C122	C	1.640092	0.004091	0.499936
C123	C	0.834682	-0.472852	-0.000066
C124	C	1.334682	0.027148	0.499934
C125	C	0.833800	-0.523269	-0.000073
C126	C	1.333800	-0.023269	0.499927
C127	C	0.909709	-0.554241	-0.000075
C128	C	1.409709	-0.054241	0.499925
C129	C	1.141397	0.062484	-0.000038
C130	C	1.641397	0.562484	0.499962
C131	C	1.234338	0.063426	-0.000045
C132	C	1.734338	0.563426	0.499955
C133	C	0.981008	0.154404	-0.000056
C134	C	1.481008	0.654404	0.499944
C135	C	0.981966	0.208063	-0.000070
C136	C	1.481966	0.708063	0.499930
N137	N	0.988224	0.066037	0.218670
N138	N	1.488224	0.566037	0.718670
N139	N	0.988313	0.066022	-0.218738
N140	N	1.488313	0.566022	0.281262
C141	C	0.988283	0.066027	0.592762
C142	C	1.488283	0.566027	1.092762
C143	C	0.918753	0.105611	0.553587
C144	C	1.418753	0.605611	1.053587
C145	C	0.918911	0.105755	0.446499
C146	C	1.418911	0.605755	0.946499
C147	C	0.988253	0.066032	0.407171
C148	C	1.488253	0.566032	0.907171
C149	C	1.075478	0.077037	0.446003
C150	C	1.575478	0.577037	0.946003
C151	C	1.075086	0.077318	0.553125
C152	C	1.575086	0.577318	1.053125
C153	C	0.971370	0.015320	0.553304
C154	C	1.471370	0.515320	1.053304
C155	C	0.969362	0.015659	0.446176
C156	C	1.469362	0.515659	0.946176
C157	C	0.988242	0.066034	0.302282
C158	C	1.488242	0.566034	0.802282
C159	C	0.988301	0.066026	0.697650
C160	C	1.488301	0.566026	1.197650
H161	H	0.418142	0.055108	-0.153487
H162	H	0.918142	0.555108	0.346513
H163	H	1.128407	0.049624	0.579037
H164	H	1.628407	0.549624	1.079037
Cl165	Cl	0.573829	0.068828	0.188558
Cl166	Cl	1.073829	0.568828	0.688558
H167	H	0.575629	0.001200	0.090999
H168	H	1.075629	0.501200	0.590999
Cl169	Cl	0.820327	-0.170310	-0.000010
Cl170	Cl	1.320327	0.329690	0.499990
H171	H	0.398868	0.139395	-0.063337
H172	H	0.898868	0.639395	0.436663
Cl173	Cl	0.404675	0.068109	0.189071
Cl174	Cl	0.904675	0.568109	0.689071
Cl175	Cl	0.571480	0.070440	-0.188370
Cl176	Cl	1.071480	0.570440	0.311630
H177	H	1.022083	-0.014137	0.578637
H178	H	1.522083	0.485863	1.078637
H179	H	0.433189	-0.001070	-0.087553
H180	H	0.933189	0.498930	0.412447
Cl181	Cl	1.099226	0.133480	0.404558
Cl182	Cl	1.599226	0.633480	0.904558
H183	H	0.772866	-0.447639	-0.000067
H184	H	1.272866	0.052361	0.499933
Cl185	Cl	0.594807	-0.019238	-0.096294
Cl186	Cl	1.094807	0.480762	0.403706
Cl187	Cl	1.165039	-0.196321	-0.000028
Cl188	Cl	1.665039	0.303679	0.499972
H189	H	1.133017	-0.091146	0.000001
H190	H	1.633017	0.408854	0.500001
Cl191	Cl	1.239311	-0.320227	-0.000056
Cl192	Cl	1.739311	0.179773	0.499944
H193	H	0.542548	0.140737	-0.062962
H194	H	1.042548	0.640737	0.437038
Cl195	Cl	1.157230	0.033708	0.406674
Cl196	Cl	1.657230	0.533708	0.906674
Cl197	Cl	1.098250	0.134412	0.591675
Cl198	Cl	1.598250	0.634412	1.091675
H199	H	0.855958	-0.070224	-0.000006
H200	H	1.355958	0.429776	0.499994
Cl201	Cl	1.156212	-0.697636	-0.000055
Cl202	Cl	1.656212	-0.197636	0.499945
Cl203	Cl	0.818761	0.095666	0.405962
Cl204	Cl	1.318761	0.595666	0.905962
H205	H	0.909182	0.004735	0.580375
H206	H	1.409182	0.504735	1.080375
H207	H	1.203684	-0.420291	-0.000052
H208	H	1.703684	0.079709	0.499948
H209	H	0.905202	0.007306	0.420797
H210	H	1.405202	0.507306	0.920797
H211	H	0.397819	0.139284	0.062179
H212	H	0.897819	0.639284	0.562179
Cl213	Cl	0.818285	0.095651	0.593383
Cl214	Cl	1.318285	0.595651	1.093383
Cl215	Cl	0.424789	-0.021180	0.094019
Cl216	Cl	0.924789	0.478820	0.594019
Cl217	Cl	0.935097	0.163382	0.595097
Cl218	Cl	1.435097	0.663382	1.095097
Cl219	Cl	1.236649	-0.471474	-0.000062
Cl220	Cl	1.736649	0.028526	0.499938
Cl221	Cl	1.042557	-0.031951	0.404865
Cl222	Cl	1.542557	0.468049	0.904865
Cl223	Cl	1.154197	-0.811437	-0.000077
Cl224	Cl	1.654197	-0.311437	0.499923
Cl225	Cl	0.809502	-0.785400	-0.000060
Cl226	Cl	1.309502	-0.285400	0.499940
H227	H	0.845124	-0.685332	-0.000073
H228	H	1.345124	-0.185332	0.499927
Cl229	Cl	0.739889	-0.396445	-0.000084
Cl230	Cl	1.239889	0.103555	0.499916
H231	H	0.775522	-0.296378	-0.000076
H232	H	1.275522	0.203622	0.499924
Cl233	Cl	1.234632	-0.585271	-0.000070
Cl234	Cl	1.734632	-0.085271	0.499930
H235	H	0.929644	0.143384	0.420855
H236	H	1.429644	0.643384	0.920855
Cl237	Cl	0.737239	-0.547704	-0.000079
Cl238	Cl	1.237239	-0.047704	0.499921
Cl239	Cl	0.551758	0.152346	0.097241
Cl240	Cl	1.051758	0.652346	0.597241
