data_functionalizedCrystal
_audit_creation_method	'MofGen! by Chris Wilmer'
_symmetry_space_group_name_H-M	'P1'
_symmetry_Int_Tables_number	1
_symmetry_cell_setting	triclinic
loop_
_symmetry_equiv_pos_as_xyz
  x,y,z
_cell_length_a	18.215407
_cell_length_b	21.295417
_cell_length_c	18.215399
_cell_angle_alpha	90.031105
_cell_angle_beta	90.019833
_cell_angle_gamma	90.030150
loop_
_atom_site_label
_atom_site_type_symbol
_atom_site_fract_x
_atom_site_fract_y
_atom_site_fract_z
Zn1	Zn	1.125047	-0.250608	0.416100
Zn2	Zn	1.625047	0.249392	0.916100
Zn3	Zn	1.124945	-0.355879	0.293027
Zn4	Zn	1.624945	0.144121	0.793027
Zn5	Zn	1.001980	-0.250629	0.293047
Zn6	Zn	1.501980	0.249371	0.793047
Zn7	Zn	1.001935	-0.355844	0.416052
Zn8	Zn	1.501935	0.144156	0.916052
O9	O	1.063477	-0.303240	0.354556
O10	O	1.563477	0.196760	0.854556
O11	O	1.228018	-0.264579	0.399785
O12	O	1.728018	0.235421	0.899785
O13	O	1.108610	-0.341941	0.190045
O14	O	1.608610	0.158059	0.690045
O15	O	1.018366	-0.162537	0.309399
O16	O	1.518366	0.337463	0.809399
O17	O	1.227943	-0.341921	0.309364
O18	O	1.727943	0.158079	0.809364
O19	O	1.108783	-0.162521	0.399805
O20	O	1.608783	0.337479	0.899805
O21	O	1.018267	-0.264614	0.190060
O22	O	1.518267	0.235386	0.690060
O23	O	0.898990	-0.264580	0.309352
O24	O	1.398990	0.235420	0.809352
O25	O	1.018291	-0.341861	0.519042
O26	O	1.518291	0.158139	1.019042
O27	O	0.898957	-0.341881	0.399723
O28	O	1.398957	0.158119	0.899723
O29	O	1.108740	-0.264545	0.519078
O30	O	1.608740	0.235455	1.019078
O31	O	1.108567	-0.443964	0.309317
O32	O	1.608567	0.056036	0.809317
O33	O	1.018192	-0.443938	0.399703
O34	O	1.518192	0.056062	0.899703
C35	C	0.872271	-0.303229	0.354535
C36	C	1.372271	0.196771	0.854535
C37	C	0.790472	-0.303240	0.354544
C38	C	1.290472	0.196760	0.854544
C39	C	0.602280	-0.343554	0.401541
C40	C	1.102280	0.156446	0.901541
C41	C	0.525421	-0.343556	0.401550
C42	C	1.025421	0.156444	0.901550
C43	C	0.525426	-0.262938	0.307588
C44	C	1.025426	0.237062	0.807588
C45	C	0.602283	-0.262933	0.307583
C46	C	1.102283	0.237067	0.807583
C47	C	0.640708	-0.303245	0.354558
C48	C	1.140708	0.196755	0.854558
C49	C	0.486992	-0.303251	0.354572
C50	C	0.986992	0.196749	0.854572
C51	C	0.403659	-0.303253	0.354582
C52	C	0.903659	0.196747	0.854582
C53	C	0.724047	-0.303242	0.354550
C54	C	1.224047	0.196758	0.854550
C55	C	1.063383	-0.466792	0.354519
C56	C	1.563383	0.033208	0.854519
C57	C	1.063410	-0.536760	0.354528
C58	C	1.563410	-0.036760	0.854528
C59	C	1.110464	-0.569561	0.401636
C60	C	1.610464	-0.069561	0.901636
C61	C	1.110490	-0.635304	0.401654
C62	C	1.610490	-0.135304	0.901654
C63	C	1.063470	-0.668242	0.354551
C64	C	1.563470	-0.168242	0.854551
C65	C	1.016408	-0.635433	0.307439
C66	C	1.516408	-0.135433	0.807439
C67	C	1.016378	-0.569692	0.307428
C68	C	1.516378	-0.069692	0.807428
N69	N	1.057911	-0.771505	0.290145
N70	N	1.557911	-0.271505	0.790145
N71	N	1.057944	-0.833956	0.290158
N72	N	1.557944	-0.333956	0.790158
C73	C	1.063556	-0.866317	0.354584
C74	C	1.563556	-0.366317	0.854584
N75	N	1.069149	-0.833867	0.418998
N76	N	1.569149	-0.333867	0.918998
N77	N	1.069120	-0.771410	0.418984
N78	N	1.569120	-0.271410	0.918984
C79	C	1.063497	-0.739528	0.354559
C80	C	1.563497	-0.239528	0.854559
C81	C	1.110640	-0.970404	0.401716
C82	C	1.610640	-0.470404	0.901716
C83	C	1.110661	-1.036148	0.401735
C84	C	1.610661	-0.536148	0.901735
C85	C	1.016583	-1.036275	0.307514
C86	C	1.516583	-0.536275	0.807514
C87	C	1.016558	-0.970533	0.307501
C88	C	1.516558	-0.470533	0.807501
C89	C	1.063591	-0.937601	0.354601
C90	C	1.563591	-0.437601	0.854601
C91	C	1.255430	-0.303251	0.354578
C92	C	1.755430	0.196749	0.854578
C93	C	1.337229	-0.303256	0.354587
C94	C	1.837229	0.196744	0.854587
C95	C	1.063522	-0.303197	0.546509
C96	C	1.563522	0.196803	1.046509
C97	C	1.063541	-0.303178	0.628308
C98	C	1.563541	0.196822	1.128308
C99	C	1.063591	-0.139050	0.354610
C100	C	1.563591	0.360950	0.854610
C101	C	1.063640	-0.069082	0.354633
C102	C	1.563640	0.430918	0.854633
C103	C	1.063475	-0.303238	0.163350
C104	C	1.563475	0.196762	0.663350
C105	C	1.063598	-0.303079	0.081552
C106	C	1.563598	0.196921	0.581552
C107	C	1.110655	-0.262882	0.816522
C108	C	1.610655	0.237118	1.316522
C109	C	1.110664	-0.262863	0.893381
C110	C	1.610664	0.237137	1.393381
C111	C	1.016479	-0.343377	0.893333
C112	C	1.516479	0.156623	1.393333
C113	C	1.016467	-0.343392	0.816475
C114	C	1.516467	0.156608	1.316475
C115	C	1.063559	-0.303145	0.778072
C116	C	1.563559	0.196855	1.278072
C117	C	1.063580	-0.303112	0.931788
C118	C	1.563580	0.196888	1.431788
C119	C	1.063589	-0.303093	1.015122
C120	C	1.563589	0.196907	1.515122
C121	C	1.063549	-0.303164	0.694733
C122	C	1.563549	0.196836	1.194733
H123	H	0.494137	-0.376379	0.439809
H124	H	0.994137	0.123621	0.939809
H125	H	1.149013	-0.230076	0.924683
H126	H	1.649013	0.269924	1.424683
O127	O	1.156266	-1.068040	0.447578
O128	O	1.656266	-0.568040	0.947578
C129	C	1.114363	-1.106081	0.495074
C130	C	1.614363	-0.606081	0.995074
H131	H	1.056391	-1.086312	0.499568
H132	H	1.556391	-0.586312	0.999568
H133	H	1.140955	-1.106770	0.551731
H134	H	1.640955	-0.606770	1.051731
H135	H	1.111861	-1.155922	0.472330
H136	H	1.611861	-0.655922	0.972330
H137	H	0.494131	-0.230118	0.269341
H138	H	0.994131	0.269882	0.769341
O139	O	1.156170	-0.537670	0.447459
O140	O	1.656170	-0.037670	0.947459
C141	C	1.197721	-0.580725	0.489029
C142	C	1.697721	-0.080725	0.989029
H143	H	1.167596	-0.627609	0.491558
H144	H	1.667596	-0.127609	0.991558
H145	H	1.205534	-0.561691	0.547016
H146	H	1.705534	-0.061691	1.047016
H147	H	1.253630	-0.587689	0.462127
H148	H	1.753630	-0.087689	0.962127
H149	H	0.978294	-1.063093	0.269166
H150	H	1.478294	-0.563093	0.769166
O151	O	0.970593	-0.537797	0.261767
O152	O	1.470593	-0.037797	0.761767
C153	C	0.923034	-0.499766	0.303614
C154	C	1.423034	0.000234	0.803614
H155	H	0.918463	-0.519546	0.361576
H156	H	1.418463	-0.019546	0.861576
H157	H	0.866413	-0.499078	0.276945
H158	H	1.366413	0.000922	0.776945
H159	H	0.945768	-0.449924	0.306160
H160	H	1.445768	0.050076	0.806160
H161	H	1.148800	-0.662016	0.440024
H162	H	1.648800	-0.162016	0.940024
O163	O	1.156214	-0.938338	0.447508
O164	O	1.656214	-0.438338	0.947508
C165	C	1.114266	-0.900325	0.495001
C166	C	1.614266	-0.400325	0.995001
H167	H	1.058507	-0.890537	0.468988
H168	H	1.558507	-0.390537	0.968988
H169	H	1.144214	-0.854065	0.504881
H170	H	1.644214	-0.354065	1.004881
H171	H	1.106157	-0.925632	0.549537
H172	H	1.606157	-0.425632	1.049537
H173	H	1.148999	-0.230109	0.785256
H174	H	1.648999	0.269891	1.285256
H175	H	0.978140	-0.376146	0.924610
H176	H	1.478140	0.123854	1.424610
O177	O	0.639640	-0.382773	0.447071
O178	O	1.139640	0.117227	0.947071
C179	C	0.684073	-0.423376	0.405089
C180	C	1.184073	0.076624	0.905089
H181	H	0.660887	-0.427207	0.347120
H182	H	1.160887	0.072793	0.847120
H183	H	0.684928	-0.471847	0.431608
H184	H	1.184928	0.028153	0.931608
H185	H	0.742331	-0.403907	0.402591
H186	H	1.242331	0.096093	0.902591
O187	O	0.970697	-0.667495	0.261785
O188	O	1.470697	-0.167495	0.761785
C189	C	0.923148	-0.705525	0.303648
C190	C	1.423148	-0.205525	0.803648
H191	H	0.949078	-0.715321	0.359444
H192	H	1.449078	-0.215321	0.859444
H193	H	0.913324	-0.751779	0.273670
H194	H	1.413324	-0.251779	0.773670
H195	H	0.868594	-0.680227	0.311681
H196	H	1.368594	-0.180227	0.811681
O197	O	0.970834	-0.938763	0.261663
O198	O	1.470834	-0.438763	0.761663
C199	C	0.929324	-0.981930	0.220104
C200	C	1.429324	-0.481930	0.720104
H201	H	0.959489	-1.028771	0.217594
H202	H	1.459489	-0.528771	0.717594
H203	H	0.921502	-0.962976	0.162109
H204	H	1.421502	-0.462976	0.662109
H205	H	0.873418	-0.988948	0.247001
H206	H	1.373418	-0.488948	0.747001
H207	H	0.633572	-0.230104	0.269324
H208	H	1.133572	0.269896	0.769324
O209	O	0.970693	-0.382567	0.779234
O210	O	1.470693	0.117433	1.279234
C211	C	0.929123	-0.418080	0.829608
C212	C	1.429123	0.081920	1.329608
H213	H	0.959271	-0.420252	0.884401
H214	H	1.459271	0.079748	1.384401
H215	H	0.921237	-0.467680	0.807378
H216	H	1.421237	0.032320	1.307378
H217	H	0.873246	-0.395025	0.837779
H218	H	1.373246	0.104975	1.337779
