data_functionalizedCrystal
_audit_creation_method	'MofGen! by Chris Wilmer'
_symmetry_space_group_name_H-M	'P1'
_symmetry_Int_Tables_number	1
_symmetry_cell_setting	triclinic
loop_
_symmetry_equiv_pos_as_xyz
  x,y,z
_cell_length_a	31.640172
_cell_length_b	14.395555
_cell_length_c	14.395555
_cell_angle_alpha	59.995932
_cell_angle_beta	90.001724
_cell_angle_gamma	59.999894
loop_
_atom_site_label
_atom_site_type_symbol
_atom_site_fract_x
_atom_site_fract_y
_atom_site_fract_z
Zr1	Zr	0.407197	1.016685	-0.121804
O2	O	0.339711	1.210506	-0.270157
O3	O	0.427883	0.822881	-0.076324
O4	O	0.427887	1.016686	-0.270129
O5	O	0.339706	1.016694	0.076521
O6	O	0.497444	1.016666	-0.270108
O7	O	0.339707	1.016701	-0.076353
O8	O	0.497437	0.669985	0.076573
O9	O	0.339713	1.363375	-0.270160
O10	O	0.488617	0.902574	-0.056915
O11	O	0.436707	0.902584	0.057158
O12	O	0.436712	1.130763	-0.171022
O13	O	0.384801	1.130773	-0.056949
Zr14	Zr	0.518130	1.016643	0.122045
Zr15	Zr	0.518132	1.016654	-0.121772
Zr16	Zr	0.407195	1.016674	0.122012
Zr17	Zr	0.407200	1.260494	-0.121808
Zr18	Zr	0.518127	0.772834	0.122048
O19	O	0.497444	1.210446	0.076564
O20	O	0.497447	1.210462	-0.270111
O21	O	0.339708	1.210490	0.076518
O22	O	0.585616	0.822822	0.270398
O23	O	0.585619	0.822837	-0.076278
O24	O	0.427880	0.822865	0.270352
O25	O	0.585622	1.016633	-0.076281
O26	O	0.497440	1.016642	0.270369
O27	O	0.427883	1.016661	0.270349
O28	O	0.585620	1.016626	0.076593
O29	O	0.427892	1.363351	-0.270134
O30	O	0.497435	0.669977	0.270374
O31	O	0.585614	0.669952	0.270400
O32	O	0.585616	0.669961	0.076598
O33	O	0.339712	1.363367	-0.076358
O34	O	0.427890	1.363342	-0.076332
O35	O	0.488615	0.902564	0.171262
O36	O	0.540526	0.902555	0.057189
O37	O	0.488620	1.130744	-0.056918
O38	O	0.436710	1.130753	0.057155
C39	C	0.462659	0.711696	0.000125
C40	C	0.462658	0.608192	0.000126
C41	C	0.434356	0.547605	0.062328
C42	C	0.413844	0.561872	-0.044958
C43	C	0.483157	0.409529	0.107380
C44	C	0.442118	0.623885	-0.107223
C45	C	0.511458	0.471480	0.045192
C46	C	0.490959	0.485794	-0.062157
C47	C	0.323900	1.016702	0.000079
C48	C	0.276805	1.016715	0.000066
C49	C	0.011893	0.897539	0.059706
C50	C	-0.165092	0.897516	0.059728
O51	O	-0.164935	0.796215	0.110426
N52	N	-0.214316	1.016628	0.000164
C53	C	-0.219292	1.135753	-0.059404
O54	O	-0.265221	1.237064	-0.110057
C55	C	-0.042308	1.135775	-0.059419
C56	C	0.006916	1.016655	0.000140
C57	C	0.061115	0.778429	0.119261
C58	C	0.105358	0.778436	0.119249
C59	C	0.100380	0.897553	0.059683
C60	C	0.051159	1.016662	0.000128
C61	C	-0.047285	1.254899	-0.118979
C62	C	-0.003034	1.254894	-0.118976
C63	C	0.046190	1.135775	-0.059417
C64	C	0.090424	1.135786	-0.059449
N65	N	0.139648	1.016674	0.000115
C66	C	0.144626	0.897558	0.059681
C67	C	-0.312210	1.135734	-0.059393
C68	C	-0.356456	1.135729	-0.059392
C69	C	-0.302252	0.897491	0.059742
C70	C	-0.258006	0.897497	0.059733
C71	C	-0.262986	1.016622	0.000171
C72	C	0.237538	0.897581	0.059652
C73	C	0.281783	0.897599	0.059632
C74	C	0.227576	1.135836	-0.059497
C75	C	0.183334	1.135819	-0.059482
C76	C	0.188319	1.016681	0.000101
O77	O	0.090307	1.237034	-0.110109
O78	O	0.190559	0.796262	0.110347
C79	C	-0.032350	0.897532	0.059717
C80	C	-0.081571	1.016642	0.000162
C81	C	-0.086549	1.135758	-0.059404
C82	C	-0.125817	1.016637	0.000164
C83	C	-0.120839	0.897520	0.059730
C84	C	-0.071615	0.778409	0.119294
C85	C	-0.027372	0.778416	0.119283
C86	C	-0.135773	1.254870	-0.118968
C87	C	-0.180014	1.254853	-0.118953
C88	C	-0.175036	1.135737	-0.059387
C89	C	0.601427	1.016625	0.000161
C90	C	0.648522	1.016612	0.000175
C91	C	0.462666	1.016678	-0.304857
C92	C	0.462667	1.016682	-0.408364
C93	C	0.462668	1.321632	0.000116
C94	C	0.462669	1.425135	0.000114
C95	C	0.434360	1.141101	-0.531169
C96	C	0.483166	1.078894	-0.561993
C97	C	0.413863	1.078884	-0.561963
C98	C	0.511502	0.954475	-0.437824
C99	C	0.442164	0.954482	-0.437798
C100	C	0.490999	0.892185	-0.468548
C101	C	0.462661	1.016650	0.305097
C102	C	0.462660	1.016645	0.408604
C103	C	0.601423	0.711657	0.000165
C104	C	0.648516	0.608141	0.000181
C105	C	0.462657	0.711682	0.305102
C106	C	0.462655	0.608174	0.408610
C107	C	0.601420	0.711643	0.305143
C108	C	0.648513	0.608122	0.408665
C109	C	0.323907	1.321684	-0.304902
C110	C	0.276814	1.425205	-0.408424
C111	C	0.323904	1.321670	0.000075
C112	C	0.276811	1.425187	0.000060
C113	C	0.462670	1.321646	-0.304862
C114	C	0.462672	1.425154	-0.408370
C115	C	0.643536	0.559538	-0.059383
C116	C	0.687781	0.462287	-0.059391
C117	C	0.737006	0.413633	0.000171
C118	C	0.741985	0.462245	0.059737
C119	C	0.697741	0.559501	0.059738
C120	C	0.697730	0.559503	0.397735
C121	C	0.741983	0.462247	0.494995
C122	C	0.737018	0.413606	0.603184
C123	C	0.687796	0.462235	0.614112
C124	C	0.643544	0.559496	0.516853
C125	C	0.227597	1.473836	-0.397494
C126	C	0.183345	1.571122	-0.494755
C127	C	0.188309	1.619768	-0.602944
C128	C	0.237531	1.571133	-0.613872
C129	C	0.281783	1.473856	-0.516613
C130	C	0.281791	1.473799	0.059613
C131	C	0.237546	1.571077	0.059595
C132	C	0.188321	1.619735	0.000028
C133	C	0.183342	1.571118	-0.059533
C134	C	0.227587	1.473848	-0.059520
C135	C	0.434350	0.547597	0.406988
C136	C	0.483159	0.409478	0.500027
C137	C	0.413858	0.561830	0.500011
C138	C	0.511493	0.471355	0.500285
C139	C	0.442157	0.623781	0.500256
C140	C	0.490996	0.485671	0.593311
H141	H	0.514892	0.458846	-0.114838
H142	H	0.410389	0.574835	0.114850
H143	H	0.514967	0.458631	0.672950
H144	H	0.552714	0.434300	0.083347
Br145	Br	0.067884	0.616749	0.200117
H146	H	0.152298	1.698938	0.000028
Br147	Br	0.348576	1.407861	-0.531467
H148	H	0.773029	0.334440	0.000162
H149	H	0.143257	1.610750	-0.108030
Br150	Br	-0.009798	1.416573	-0.199810
H151	H	0.410452	0.574691	0.327219
Br152	Br	0.576752	0.625462	0.531707
Br153	Br	-0.423255	1.297397	-0.140245
H154	H	0.012705	0.681416	0.167784
H155	H	0.683761	0.422617	0.702213
H156	H	0.152273	1.698977	-0.682130
H157	H	0.223524	1.434271	-0.108013
H158	H	0.143254	1.232815	-0.107994
Br159	Br	0.345079	1.166579	-0.651160
Br160	Br	0.348586	0.735926	0.140461
H161	H	0.223531	1.232817	-0.107998
Br162	Br	0.244311	0.735893	0.140514
H163	H	0.424811	0.901951	-0.384284
H164	H	0.143270	1.610705	-0.485835
Br165	Br	0.413235	0.776540	0.498624
Br166	Br	0.512071	1.166519	-0.651190
H167	H	0.500501	0.317853	0.500960
H168	H	0.701782	0.599092	0.309650
Br169	Br	0.172156	0.616766	0.200091
H170	H	0.782057	0.422663	0.486077
H171	H	0.241568	1.610753	-0.701971
H172	H	-0.067569	0.681420	0.167788
Br173	Br	0.808795	0.396197	0.140571
H174	H	0.552780	0.433969	0.499473
Br175	Br	0.220845	1.407835	-0.250678
Br176	Br	0.797080	0.281608	0.735170
Br177	Br	0.345070	0.623881	0.501484
H178	H	0.410464	1.246308	-0.556620
Br179	Br	0.580321	0.866881	-0.348882
Br180	Br	0.348591	1.407790	0.140459
Br181	Br	0.244315	1.637033	0.140436
H182	H	0.372579	0.599070	-0.083086
Br183	Br	-0.114080	1.416572	-0.199805
Br184	Br	0.413152	0.776509	-0.258482
H185	H	0.500489	0.317912	0.198087
H186	H	-0.217928	0.800500	0.108241
Br187	Br	-0.295505	0.735833	0.140580
H188	H	-0.220093	1.351862	-0.167464
Br189	Br	0.530945	0.716689	-0.425771
Br190	Br	0.576736	0.625551	-0.140232
Br191	Br	-0.318979	1.297420	-0.140238
H192	H	-0.139834	1.351871	-0.167477
H193	H	0.683717	0.422719	-0.107897
Br194	Br	0.704509	0.625443	0.140590
