data_functionalizedCrystal
_audit_creation_method	'MofGen! by Chris Wilmer'
_symmetry_space_group_name_H-M	'P1'
_symmetry_Int_Tables_number	1
_symmetry_cell_setting	triclinic
loop_
_symmetry_equiv_pos_as_xyz
  x,y,z
_cell_length_a	14.853566
_cell_length_b	15.944551
_cell_length_c	13.930277
_cell_angle_alpha	89.996314
_cell_angle_beta	90.003759
_cell_angle_gamma	83.566576
loop_
_atom_site_label
_atom_site_type_symbol
_atom_site_fract_x
_atom_site_fract_y
_atom_site_fract_z
O1	O	1.196229	0.109648	0.079770
O2	O	0.933752	0.122713	0.079786
O3	O	1.072158	-0.006086	0.079768
O4	O	1.057823	0.238447	0.079787
O5	O	1.072138	-0.006067	-0.079893
O6	O	0.933732	0.122733	-0.079876
O7	O	1.196209	0.109668	-0.079892
Zn8	Zn	1.064967	0.116203	-0.105234
Zn9	Zn	1.064994	0.116177	0.105127
O10	O	1.057803	0.238467	-0.079875
C11	C	0.900154	0.122131	-0.000043
C12	C	0.800073	0.120358	-0.000037
C13	C	0.376909	0.112846	0.086977
C14	C	0.376908	0.112868	-0.087093
C15	C	0.470940	0.114533	-0.087090
C16	C	0.517960	0.115356	-0.000052
C17	C	0.470949	0.114514	0.086983
C18	C	0.517957	0.115385	-0.174123
C19	C	0.611995	0.117051	-0.174123
C20	C	0.659018	0.117868	-0.087084
C21	C	0.612001	0.117024	-0.000046
C22	C	0.659021	0.117847	0.086991
C23	C	0.612007	0.116998	0.174030
C24	C	0.517972	0.115331	0.174021
C25	C	0.753052	0.119535	-0.087075
C26	C	0.753061	0.119515	0.086997
C27	C	1.071553	-0.037371	-0.000063
C28	C	1.069769	-0.130619	-0.000063
C29	C	0.979714	-0.345576	-0.000044
C30	C	1.021522	-0.406537	-0.078770
C31	C	1.066541	-0.301349	-0.000055
C32	C	1.021563	-0.406540	0.078644
C33	C	1.063417	-0.466265	-0.000044
C34	C	1.108374	-0.361081	-0.078846
C35	C	1.108402	-0.361078	0.078639
C36	C	1.150274	-0.422021	-0.000106
C37	C	1.068338	-0.206344	-0.000063
C38	C	1.061626	-0.561268	-0.000043
C39	C	1.229807	0.110250	-0.000061
C40	C	1.329888	0.112023	-0.000061
C41	C	1.058408	0.269752	-0.000042
C42	C	1.060192	0.363000	-0.000035
N43	N	1.064955	0.116221	-0.248800
C44	C	1.119684	0.167200	-0.701059
C45	C	1.010331	0.065121	-0.701049
C46	C	1.010318	0.065134	-0.600554
C47	C	1.064989	0.116180	-0.550306
C48	C	1.119674	0.167213	-0.600554
C49	C	0.955640	0.014096	-0.550298
C50	C	0.955625	0.014107	-0.449796
C51	C	1.010293	0.065158	-0.399547
C52	C	1.064979	0.116194	-0.449801
C53	C	1.119650	0.167240	-0.399553
C54	C	1.174333	0.218281	-0.449805
C55	C	1.174341	0.218265	-0.550304
C56	C	1.010284	0.065174	-0.299048
C57	C	1.119641	0.167253	-0.299048
N58	N	1.065013	0.116154	0.248693
H59	H	0.479685	0.114639	0.244884
O60	O	1.178607	0.222312	-0.244852
H61	H	1.216633	0.257794	-0.296681
H62	H	0.650266	0.117741	-0.244996
O63	O	0.803763	0.120457	-0.180939
H64	H	0.755269	0.119606	-0.241462
O65	O	0.662736	0.117883	0.267900
H66	H	0.636666	0.174763	0.309642
H67	H	0.338626	0.112151	0.157842
H68	H	0.338617	0.112204	-0.157955
O69	O	1.156974	-0.334542	-0.167101
H70	H	1.179827	-0.391077	-0.210924
O71	O	0.467135	0.115315	-0.267990
H72	H	0.393809	0.114300	-0.253368
H73	H	1.218850	0.259839	-0.408881
H74	H	0.911099	-0.027453	-0.408889
H75	H	1.145103	-0.340915	0.145194
H76	H	0.907643	-0.312348	-0.000118
H77	H	0.984789	-0.426678	-0.145321
O78	O	1.245816	-0.465852	-0.000164
H79	H	1.281622	-0.447651	-0.065576
O80	O	1.233336	0.273295	-0.604501
H81	H	1.224170	0.264696	-0.682826
H82	H	1.164202	0.208758	-0.741979
O83	O	0.803781	0.120399	0.180872
H84	H	0.777707	0.177279	0.222612
O85	O	0.972920	-0.433214	0.166808
H86	H	0.902149	-0.402290	0.166639
H87	H	0.965765	0.023616	-0.258137
O88	O	0.951364	0.010066	-0.755237
H89	H	0.960555	0.018634	-0.833563
O90	O	0.896679	-0.040958	-0.604495
H91	H	0.824625	-0.022806	-0.585214
