data_functionalizedCrystal
_audit_creation_method	'MofGen! by Chris Wilmer'
_symmetry_space_group_name_H-M	'P1'
_symmetry_Int_Tables_number	1
_symmetry_cell_setting	triclinic
loop_
_symmetry_equiv_pos_as_xyz
  x,y,z
_cell_length_a	15.995350
_cell_length_b	16.992695
_cell_length_c	16.053802
_cell_angle_alpha	87.249318
_cell_angle_beta	87.418149
_cell_angle_gamma	92.919701
loop_
_atom_site_label
_atom_site_type_symbol
_atom_site_fract_x
_atom_site_fract_y
_atom_site_fract_z
O1	O	1.114433	-0.104367	0.069360
O2	O	1.614433	0.395633	0.569360
O3	O	0.871492	-0.116848	0.069377
O4	O	1.371492	0.383152	0.569377
O5	O	0.991989	0.003536	0.069362
O6	O	1.491989	0.503536	0.569362
O7	O	0.993936	-0.224750	0.069375
O8	O	1.493936	0.275250	0.569375
O9	O	0.998615	0.010142	-0.069498
O10	O	1.498615	0.510142	0.430502
O11	O	0.878118	-0.110242	-0.069483
O12	O	1.378118	0.389758	0.430517
O13	O	1.121059	-0.097760	-0.069500
O14	O	1.621059	0.402240	0.430500
Zn15	Zn	1.000641	-0.102952	-0.091538
Zn16	Zn	1.500641	0.397048	0.408462
Zn17	Zn	0.991911	-0.111656	0.091415
Zn18	Zn	1.491911	0.388344	0.591415
O19	O	1.000562	-0.218144	-0.069485
O20	O	1.500562	0.281856	0.430515
C21	C	0.843576	-0.113029	-0.000051
C22	C	1.343576	0.386971	0.499949
C23	C	0.750522	-0.111483	-0.000044
C24	C	1.250522	0.388517	0.499956
C25	C	0.992796	0.036051	-0.000068
C26	C	1.492796	0.536051	0.499932
C27	C	0.985320	0.123095	-0.000067
C28	C	1.485320	0.623095	0.499933
N29	N	0.985953	-0.117591	0.216276
N30	N	1.485953	0.382409	0.716276
C31	C	0.412403	-0.105926	-0.000062
C32	C	0.912403	0.394074	0.499938
C33	C	0.454115	-0.020177	-0.000377
C34	C	0.954115	0.479823	0.499623
C35	C	0.550894	-0.021739	-0.000058
C36	C	1.050894	0.478261	0.499942
C37	C	0.580148	-0.108682	-0.000054
C38	C	1.080148	0.391318	0.499946
C39	C	0.538106	-0.154742	0.079241
C40	C	1.038106	0.345258	0.579241
C41	C	0.441324	-0.152591	0.079301
C42	C	0.941324	0.347409	0.579301
C43	C	0.448638	-0.146850	-0.078608
C44	C	0.948638	0.353150	0.421392
C45	C	0.545632	-0.146780	-0.079650
C46	C	1.045632	0.353220	0.420350
C47	C	0.674949	-0.110245	-0.000046
C48	C	1.174949	0.389755	0.499954
C49	C	0.317601	-0.104367	-0.000064
C50	C	0.817601	0.395633	0.499936
C51	C	1.148975	-0.101579	-0.000071
C52	C	1.648975	0.398421	0.499929
C53	C	1.242029	-0.103126	-0.000072
C54	C	1.742029	0.396874	0.499928
C55	C	0.999755	-0.250660	-0.000054
C56	C	1.499755	0.249340	0.499946
C57	C	1.007231	-0.337704	-0.000049
C58	C	1.507231	0.162296	0.499951
C59	C	1.057456	0.173336	-0.000073
C60	C	1.557456	0.673336	0.499927
C61	C	1.050426	0.255122	-0.000065
C62	C	1.550426	0.755122	0.499935
C63	C	0.971259	0.286666	-0.000056
C64	C	1.471259	0.786666	0.499944
C65	C	0.899118	0.236419	-0.000048
C66	C	1.399118	0.736419	0.499952
C67	C	0.906149	0.154634	-0.000050
C68	C	1.406149	0.654634	0.499950
C69	C	0.942120	0.530264	-0.000043
C70	C	1.442120	1.030264	0.499957
C71	C	0.935095	0.612055	-0.000043
C72	C	1.435095	1.112055	0.499957
C73	C	1.086403	0.630752	-0.000058
C74	C	1.586403	1.130752	0.499942
C75	C	1.093427	0.548965	-0.000066
C76	C	1.593427	1.048965	0.499934
C77	C	1.021286	0.498725	-0.000053
C78	C	1.521286	0.998725	0.499947
N79	N	0.964072	0.370265	-0.000050
N80	N	1.464072	0.870265	0.499950
N81	N	1.028474	0.415128	-0.000053
N82	N	1.528474	0.915128	0.499947
N83	N	1.006605	-0.097012	-0.216400
N84	N	1.506605	0.402988	0.283600
C85	C	1.037336	-0.066465	0.259964
C86	C	1.537336	0.433535	0.759964
C87	C	1.033166	-0.070615	0.347371
C88	C	1.533166	0.429385	0.847371
C89	C	0.977609	-0.125887	0.391089
C90	C	1.477609	0.374113	0.891089
C91	C	0.926224	-0.177018	0.347396
C92	C	1.426224	0.322982	0.847396
C93	C	0.930398	-0.172871	0.259990
C94	C	1.430398	0.327129	0.759990
C95	C	0.959394	-0.143996	0.652501
C96	C	1.459394	0.356004	1.152501
C97	C	0.955222	-0.148137	0.739913
C98	C	1.455222	0.351863	1.239913
C99	C	1.062166	-0.041735	0.739882
C100	C	1.562166	0.458265	1.239882
C101	C	1.066332	-0.037590	0.652475
C102	C	1.566332	0.462410	1.152475
C103	C	1.014950	-0.088724	0.608789
C104	C	1.514950	0.411276	1.108789
N105	N	0.973343	-0.130128	0.480434
N106	N	1.473343	0.369872	0.980434
N107	N	1.019220	-0.084485	0.519446
N108	N	1.519220	0.415515	1.019446
H109	H	0.579811	0.014205	-0.056900
H110	H	1.079811	0.514205	0.443100
Cl111	Cl	1.156984	0.133690	-0.000092
Cl112	Cl	1.656984	0.633690	0.499908
H113	H	0.418123	-0.124573	0.138573
H114	H	0.918123	0.375427	0.638573
H115	H	0.421132	-0.210036	-0.079141
H116	H	0.921132	0.289964	0.420859
H117	H	1.157892	0.523289	-0.000073
H118	H	1.657892	1.023289	0.499927
Cl119	Cl	0.586235	0.025512	0.088000
Cl120	Cl	1.086235	0.525512	0.588000
Cl121	Cl	0.865802	-0.237150	0.205069
Cl122	Cl	1.365802	0.262850	0.705069
H123	H	1.104000	-0.000105	0.775459
H124	H	1.604000	0.499895	1.275459
H125	H	1.145136	0.671666	-0.000067
H126	H	1.645136	1.171666	0.499933
Cl127	Cl	0.835565	0.651709	-0.000037
Cl128	Cl	1.335565	1.151709	0.499963
Cl129	Cl	0.851427	0.467115	-0.000024
Cl130	Cl	1.351427	0.967115	0.499976
Cl131	Cl	0.799594	0.276074	-0.000027
Cl132	Cl	1.299594	0.776074	0.499973
Cl133	Cl	0.815460	0.091474	-0.000040
Cl134	Cl	1.315460	0.591474	0.499960
H135	H	0.909977	-0.193148	0.775504
H136	H	1.409977	0.306852	1.275504
H137	H	0.429541	0.011245	0.056171
H138	H	0.929541	0.511245	0.556171
Cl139	Cl	0.894798	-0.208273	0.597587
Cl140	Cl	1.394798	0.291727	1.097587
Cl141	Cl	0.397768	-0.250035	0.084864
Cl142	Cl	0.897768	0.249965	0.584864
Cl143	Cl	0.856383	-0.246508	0.402354
Cl144	Cl	1.356383	0.253492	0.902354
H145	H	1.082573	-0.021454	0.224374
H146	H	1.582573	0.478546	0.724374
H147	H	0.436014	0.016799	-0.057242
H148	H	0.936014	0.516799	0.442758
H149	H	0.556365	-0.218757	0.082192
H150	H	1.056365	0.281243	0.582192
H151	H	0.561700	-0.128179	0.138251
H152	H	1.061700	0.371821	0.638251
H153	H	0.429095	-0.115962	-0.138711
H154	H	0.929095	0.384038	0.361289
H155	H	0.573682	-0.113120	-0.138312
H156	H	1.073682	0.386880	0.361688
H157	H	0.565468	-0.209954	-0.084437
H158	H	1.065468	0.290046	0.415563
H159	H	1.075007	-0.028985	0.382941
H160	H	1.575007	0.471015	0.882941
Cl161	Cl	1.136175	0.031896	0.597515
Cl162	Cl	1.636175	0.531896	1.097515
H163	H	1.109166	0.296026	-0.000071
H164	H	1.609166	0.796026	0.499929
