data_functionalizedCrystal
_audit_creation_method	'MofGen! by Chris Wilmer'
_symmetry_space_group_name_H-M	'P1'
_symmetry_Int_Tables_number	1
_symmetry_cell_setting	triclinic
loop_
_symmetry_equiv_pos_as_xyz
  x,y,z
_cell_length_a	35.277628
_cell_length_b	35.288095
_cell_length_c	35.277682
_cell_angle_alpha	59.997929
_cell_angle_beta	89.998958
_cell_angle_gamma	60.000166
loop_
_atom_site_label
_atom_site_type_symbol
_atom_site_fract_x
_atom_site_fract_y
_atom_site_fract_z
O1	O	-0.323087	-0.271234	0.011271
O2	O	-0.267964	-0.193634	-0.011228
O3	O	-0.267962	-0.271233	0.066395
O4	O	-0.323089	-0.193635	-0.066351
O5	O	-0.204915	-0.334261	0.066394
O6	O	-0.204918	-0.256661	-0.011228
O7	O	-0.260040	-0.334261	0.011271
Zn8	Zn	-0.222469	-0.305468	0.000022
Zn9	Zn	-0.305535	-0.222427	0.000022
O10	O	-0.260043	-0.256662	-0.066351
C11	C	-0.163481	-0.071298	-0.023519
C12	C	-0.186872	-0.024531	-0.020298
C13	C	-0.117860	-0.093995	-0.023838
C14	C	-0.163483	-0.139918	-0.023524
C15	C	-0.186875	-0.166518	-0.020308
C16	C	-0.117862	-0.162510	-0.023843
C17	C	-0.094838	-0.139921	-0.023519
C18	C	-0.044836	-0.166525	-0.020298
C19	C	-0.186401	-0.093991	-0.023843
C20	C	-0.004439	-0.188019	-0.017694
C21	C	-0.205769	0.013252	-0.017695
C22	C	-0.205774	-0.188010	-0.017709
C23	C	0.046241	-0.214983	-0.014429
C24	C	-0.229477	0.060653	-0.014430
C25	C	-0.229483	-0.214971	-0.014450
C26	C	-0.500364	-0.466062	0.034181
C27	C	-0.477341	-0.511990	0.034503
C28	C	-0.431722	-0.466060	0.034178
C29	C	-0.408804	-0.511988	0.034500
C30	C	-0.431721	-0.534685	0.034181
C31	C	-0.477342	-0.443470	0.034500
C32	C	-0.665895	-0.342485	0.021756
C33	C	-0.712772	-0.317221	0.018243
C34	C	-0.736287	-0.338907	0.016481
C35	C	-0.787116	-0.311512	0.012664
C36	C	-0.712921	-0.385861	0.018236
C37	C	-0.666047	-0.411125	0.021755
C38	C	-0.642533	-0.389434	0.023515
C39	C	-0.389805	-0.687746	0.021758
C40	C	-0.368199	-0.731097	0.018245
C41	C	-0.322995	-0.752841	0.016478
C42	C	-0.299567	-0.799839	0.012662
C43	C	-0.299393	-0.731235	0.018230
C44	C	-0.320995	-0.687892	0.021751
C45	C	-0.366205	-0.666148	0.023512
C46	C	-0.389808	-0.342477	0.021744
C47	C	-0.368205	-0.317208	0.018222
C48	C	-0.322998	-0.338892	0.016457
C49	C	-0.299573	-0.311495	0.012637
C50	C	-0.299398	-0.385842	0.018210
C51	C	-0.321003	-0.411107	0.021730
C52	C	-0.366208	-0.389423	0.023501
C53	C	-0.591706	-0.416830	0.027326
C54	C	-0.551191	-0.438667	0.030366
C55	C	-0.408299	-0.438663	0.030360
C56	C	-0.389629	-0.416824	0.027317
C57	C	-0.408298	-0.581682	0.030365
C58	C	-0.389627	-0.619146	0.027325
C59	C	-0.432024	-0.061845	-0.438511
C60	C	-0.477645	-0.015917	-0.461431
C61	C	-0.432025	-0.061844	-0.369869
C62	C	-0.477645	-0.015916	-0.392892
C63	C	-0.500668	0.006779	-0.438513
C64	C	-0.409106	-0.084435	-0.392891
C65	C	-0.320834	-0.185425	-0.480424
C66	C	-0.299076	-0.210690	-0.502029
C67	C	-0.322531	-0.189005	-0.547237
C68	C	-0.298945	-0.216401	-0.570661
C69	C	-0.367745	-0.142051	-0.570839
C70	C	-0.389497	-0.116787	-0.549237
C71	C	-0.366040	-0.138476	-0.504027
C72	C	-0.666200	0.159838	-0.549704
C73	C	-0.713077	0.203188	-0.571462
C74	C	-0.736595	0.224934	-0.548009
C75	C	-0.787423	0.271931	-0.571594
C76	C	-0.713230	0.203329	-0.502796
C77	C	-0.666353	0.159987	-0.481041
C78	C	-0.642841	0.138241	-0.504500
C79	C	-0.320836	-0.185423	-0.204335
C80	C	-0.299080	-0.210691	-0.157455
C81	C	-0.322536	-0.189006	-0.133940
C82	C	-0.298950	-0.216402	-0.083110
C83	C	-0.367748	-0.142056	-0.157305
C84	C	-0.389502	-0.116792	-0.204182
C85	C	-0.366040	-0.138478	-0.227695
C86	C	-0.389632	-0.111079	-0.480604
C87	C	-0.408436	-0.089241	-0.461934
C88	C	-0.408437	-0.089240	-0.319041
C89	C	-0.389634	-0.111078	-0.278525
C90	C	-0.551496	0.053776	-0.462102
C91	C	-0.592011	0.091239	-0.480906
O92	O	0.196122	-0.334274	0.011291
O93	O	0.063378	-0.256674	-0.011208
O94	O	0.140994	-0.334276	0.066414
O95	O	0.118506	-0.256671	-0.066331
O96	O	0.140996	-0.271251	0.066419
O97	O	0.063380	-0.193649	-0.011203
O98	O	0.196124	-0.271249	0.011296
Zn99	Zn	0.129752	-0.222442	0.000047
Zn100	Zn	0.129750	-0.305480	0.000041
O101	O	0.118508	-0.193647	-0.066327
O102	O	-0.260036	0.184774	0.011294
O103	O	-0.204910	0.074561	-0.011204
O104	O	-0.204913	0.074554	0.066418
O105	O	-0.260033	0.184781	-0.066328
O106	O	-0.267961	0.074557	0.066413
O107	O	-0.267958	0.074564	-0.011209
O108	O	-0.323083	0.184777	0.011289
Zn109	Zn	-0.305531	0.129671	0.000039
Zn110	Zn	-0.222463	0.129667	0.000046
O111	O	-0.323081	0.184784	-0.066333
O112	O	-0.936929	0.397535	-0.602582
O113	O	-0.804185	0.287317	-0.547454
O114	O	-0.881802	0.287315	-0.547452
O115	O	-0.859312	0.397537	-0.602584
O116	O	-0.881801	0.287314	-0.610498
O117	O	-0.804183	0.287316	-0.610500
O118	O	-0.936927	0.397533	-0.665628
Zn119	Zn	-0.870555	0.342425	-0.648073
Zn120	Zn	-0.870557	0.342426	-0.565008
O121	O	-0.859310	0.397536	-0.665629
O122	O	-0.267961	-0.271234	-0.665316
O123	O	-0.323086	-0.193638	-0.610192
O124	O	-0.323085	-0.271236	-0.610189
O125	O	-0.267962	-0.193636	-0.665319
O126	O	-0.260038	-0.334264	-0.547142
O127	O	-0.260039	-0.256666	-0.547145
O128	O	-0.204914	-0.334262	-0.602269
Zn129	Zn	-0.222466	-0.305471	-0.564697
Zn130	Zn	-0.305534	-0.222429	-0.647764
O131	O	-0.204915	-0.256664	-0.602272
C132	C	-0.094840	-0.456607	0.293255
C133	C	-0.044837	-0.503376	0.316647
C134	C	-0.117862	-0.433912	0.316174
C135	C	-0.163483	-0.387984	0.224612
C136	C	-0.186875	-0.361381	0.174609
C137	C	-0.186401	-0.365393	0.247634
C138	C	-0.163483	-0.387984	0.293255
C139	C	-0.186874	-0.361382	0.316646
C140	C	-0.117862	-0.433912	0.247635
C141	C	-0.205772	-0.339889	0.335543
C142	C	-0.004440	-0.541160	0.335545
C143	C	-0.205773	-0.339888	0.134212
C144	C	-0.229480	-0.312925	0.359250
C145	C	0.046239	-0.588562	0.359254
C146	C	-0.229481	-0.312924	0.083532
C147	C	0.153295	-0.388013	0.293279
C148	C	0.150076	-0.361413	0.316673
C149	C	0.153614	-0.433940	0.316196
C150	C	0.153297	-0.388008	0.224634
C151	C	0.150079	-0.361403	0.174632
C152	C	0.153616	-0.433935	0.247655
C153	C	0.153293	-0.456633	0.293275
C154	C	0.150072	-0.503401	0.316665
C155	C	0.153617	-0.365420	0.247659
C156	C	0.147469	-0.541185	0.335561
C157	C	0.147474	-0.339922	0.335572
C158	C	0.147479	-0.339908	0.134234
C159	C	0.144204	-0.588587	0.359267
C160	C	0.144211	-0.312962	0.359282
C161	C	0.144218	-0.312942	0.083555
C162	C	-0.163482	-0.139963	0.293267
C163	C	-0.186875	-0.166567	0.316654
C164	C	-0.117861	-0.162559	0.316187
C165	C	-0.163482	-0.071333	0.224628
C166	C	-0.186873	-0.024557	0.174627
C167	C	-0.117860	-0.094033	0.247653
C168	C	-0.094838	-0.139967	0.293272
C169	C	-0.044835	-0.166574	0.316665
C170	C	-0.186401	-0.094030	0.247648
C171	C	-0.004438	-0.188070	0.335563
C172	C	-0.205773	-0.188061	0.335549
C173	C	-0.205771	0.013233	0.134231
C174	C	0.046242	-0.215038	0.359273
C175	C	-0.229482	-0.215026	0.359253
C176	C	-0.229479	0.060643	0.083553
C177	C	0.095627	0.006487	-0.438489
C178	C	0.095306	-0.016206	-0.461409
C179	C	0.095623	-0.062137	-0.369847
C180	C	0.095303	-0.084726	-0.392871
C181	C	0.095625	-0.062133	-0.438492
C182	C	0.095305	-0.016210	-0.392868
C183	C	0.108059	0.159543	-0.480399
C184	C	0.111575	0.202893	-0.502003
C185	C	0.113340	0.224640	-0.547210
C186	C	0.117161	0.271637	-0.570634
C187	C	0.111587	0.203038	-0.570814
C188	C	0.108065	0.159695	-0.549212
C189	C	0.106302	0.137948	-0.504002
C190	C	0.108054	-0.116452	-0.549685
C191	C	0.111568	-0.141562	-0.571444
C192	C	0.113332	-0.188519	-0.547992
C193	C	0.117148	-0.215753	-0.571578
C194	C	0.111577	-0.210363	-0.502779
C195	C	0.108055	-0.185249	-0.481023
C196	C	0.106297	-0.138292	-0.504481
C197	C	0.108046	-0.116473	-0.204312
C198	C	0.111564	-0.141591	-0.157432
C199	C	0.113326	-0.188548	-0.133918
C200	C	0.117142	-0.215786	-0.083088
C201	C	0.111574	-0.210388	-0.157283
C202	C	0.108058	-0.185270	-0.204161
C203	C	0.106290	-0.138308	-0.227673
C204	C	0.102487	0.090947	-0.480580
C205	C	0.099445	0.053484	-0.461911
C206	C	0.099438	-0.089371	-0.319019
C207	C	0.102477	-0.111078	-0.278503
C208	C	0.099442	-0.089362	-0.462081
C209	C	0.102482	-0.111066	-0.480886
O210	O	0.118477	-0.256700	0.452885
O211	O	0.140984	-0.334299	0.397762
O212	O	0.063360	-0.256699	0.397752
O213	O	0.196101	-0.334300	0.452895
O214	O	0.063367	-0.193672	0.334708
O215	O	0.140992	-0.271271	0.334718
O216	O	0.118484	-0.193673	0.389842
Zn217	Zn	0.129739	-0.222465	0.352270
Zn218	Zn	0.129729	-0.305506	0.435333
O219	O	0.196108	-0.271272	0.389852
C220	C	-0.500364	0.533998	-0.438484
C221	C	-0.477341	0.556591	-0.461399
C222	C	-0.431721	0.465364	-0.369840
C223	C	-0.408802	0.488061	-0.392859
C224	C	-0.431720	0.533995	-0.438478
C225	C	-0.477342	0.488064	-0.392865
C226	C	-0.665898	0.588334	-0.480407
C227	C	-0.712776	0.613450	-0.502014
C228	C	-0.736291	0.660414	-0.547220
C229	C	-0.787122	0.687654	-0.570647
C230	C	-0.712926	0.682257	-0.570819
C231	C	-0.666050	0.657138	-0.549214
C232	C	-0.642536	0.610174	-0.504006
C233	C	-0.389802	0.657585	-0.549654
C234	C	-0.368196	0.682850	-0.571408
C235	C	-0.322990	0.661164	-0.547952
C236	C	-0.299561	0.688558	-0.571532
C237	C	-0.299388	0.614205	-0.502740
C238	C	-0.320990	0.588935	-0.480990
C239	C	-0.366202	0.610633	-0.504452
C240	C	-0.389804	0.312282	-0.204314
C241	C	-0.368201	0.268929	-0.157436
C242	C	-0.322993	0.247179	-0.133918
C243	C	-0.299567	0.200174	-0.083089
C244	C	-0.299392	0.268786	-0.157278
C245	C	-0.320998	0.312139	-0.204154
C246	C	-0.366204	0.333881	-0.227670
C247	C	-0.591708	0.582942	-0.480581
C248	C	-0.551193	0.561234	-0.461909
C249	C	-0.408297	0.418359	-0.319013
C250	C	-0.389626	0.380890	-0.278499
C251	C	-0.408296	0.561393	-0.462062
C252	C	-0.389624	0.583232	-0.480862
H253	H	-0.371321	-0.530978	0.035012
Cl254	Cl	-0.089336	-0.219598	0.374068
Cl255	Cl	-0.244270	-0.064703	0.219105
Cl256	Cl	0.113778	-0.114103	-0.628278
Cl257	Cl	-0.089320	-0.064710	0.219119
Cl258	Cl	0.094473	-0.141762	-0.364347
Cl259	Cl	-0.636643	0.132506	-0.579196
H260	H	0.094791	0.002793	-0.498893
H261	H	-0.099380	-0.199466	-0.024359
Cl262	Cl	-0.089328	-0.463239	0.219099
H263	H	-0.099379	-0.074998	-0.024355
Cl264	Cl	0.154411	-0.463271	0.374068
Cl265	Cl	0.113769	-0.114136	-0.128062
Cl266	Cl	-0.244272	-0.064667	-0.024640
H267	H	0.106608	-0.078237	-0.223453
Cl268	Cl	0.105841	0.132209	-0.423566
H269	H	-0.731792	-0.278991	0.016812
H270	H	-0.301770	0.550701	-0.444180
H271	H	-0.495827	-0.530983	0.035020
Cl272	Cl	0.094514	0.013108	-0.364326
Cl273	Cl	0.154416	-0.308362	0.219123
H274	H	-0.426308	-0.078556	-0.568458
Cl275	Cl	-0.742488	0.741292	-0.627647
H276	H	0.113006	-0.248593	-0.483685
Cl277	Cl	0.113783	0.230043	-0.472328
H278	H	0.113022	0.220750	-0.607622
H279	H	0.106637	0.142110	-0.568432
H280	H	-0.646757	0.550094	-0.443598
H281	H	0.113009	-0.248624	-0.138135
H282	H	0.106623	-0.203035	-0.444212
H283	H	-0.426614	0.329984	-0.223458
Cl284	Cl	-0.505879	-0.386410	0.035292
H285	H	-0.732097	0.220775	-0.608274
Cl286	Cl	-0.742483	-0.413123	0.016024
H287	H	-0.387425	-0.278978	0.016792
Cl288	Cl	-0.446638	-0.315213	0.023966
Cl289	Cl	0.105837	-0.057419	-0.579177
Cl290	Cl	-0.242242	-0.269714	-0.472355
Cl291	Cl	-0.397237	-0.114791	-0.127745
Cl292	Cl	0.105856	-0.212727	-0.233531
Cl293	Cl	-0.636676	-0.470149	0.023962
Cl294	Cl	-0.350926	0.458723	-0.364326
Cl295	Cl	-0.636339	-0.315216	0.023970
H296	H	-0.426615	-0.670047	0.023195
Cl297	Cl	0.154410	-0.463257	0.219115
H298	H	-0.387419	-0.748683	0.016816
Cl299	Cl	-0.505875	0.613651	-0.519270
Cl300	Cl	-0.505880	0.458739	-0.364329
H301	H	-0.262584	-0.748943	0.016794
Cl302	Cl	-0.291325	-0.660735	0.023955
H303	H	-0.731797	0.595663	-0.482796
Cl304	Cl	-0.397873	0.241771	-0.128071
Cl305	Cl	-0.636679	0.684596	-0.578881
H306	H	-0.496124	0.003081	-0.498917
H307	H	-0.301784	-0.449335	0.023157
H308	H	-0.426614	0.675254	-0.568760
Cl309	Cl	-0.397868	0.741882	-0.628240
Cl310	Cl	-0.242554	0.586935	-0.473253
H311	H	-0.223883	-0.328432	0.229146
Cl312	Cl	-0.291326	0.339297	-0.233519
H313	H	-0.262587	-0.403497	0.016771
H314	H	-0.262581	0.251075	-0.138127
Cl315	Cl	-0.291341	-0.212691	-0.423593
Cl316	Cl	-0.506182	0.013414	-0.364359
Cl317	Cl	-0.089329	-0.463242	0.374048
H318	H	-0.262268	-0.248920	-0.138435
Cl319	Cl	-0.351236	-0.141496	-0.364350
H320	H	-0.301727	-0.203079	-0.223479
H321	H	-0.732378	0.221040	-0.483702
Cl322	Cl	-0.636983	0.132832	-0.424207
Cl323	Cl	-0.446337	-0.057770	-0.233552
Cl324	Cl	-0.397226	-0.114789	-0.627671
