data_functionalizedCrystal
_audit_creation_method	'MofGen! by Chris Wilmer'
_symmetry_space_group_name_H-M	'P1'
_symmetry_Int_Tables_number	1
_symmetry_cell_setting	triclinic
loop_
_symmetry_equiv_pos_as_xyz
  x,y,z
_cell_length_a	29.839134
_cell_length_b	29.839131
_cell_length_c	29.839125
_cell_angle_alpha	90.017709
_cell_angle_beta	90.021980
_cell_angle_gamma	90.036281
loop_
_atom_site_label
_atom_site_type_symbol
_atom_site_fract_x
_atom_site_fract_y
_atom_site_fract_z
Zn1	Zn	0.686720	-0.178978	0.254125
Zn2	Zn	0.936720	0.071022	0.504125
Zn3	Zn	1.186720	0.321022	0.754125
Zn4	Zn	1.436720	0.571022	1.004125
Zn5	Zn	0.686652	-0.254090	0.178995
Zn6	Zn	0.936652	-0.004090	0.428995
Zn7	Zn	1.186652	0.245910	0.678995
Zn8	Zn	1.436652	0.495910	0.928995
Zn9	Zn	0.611602	-0.178968	0.178995
Zn10	Zn	0.861602	0.071032	0.428995
Zn11	Zn	1.111602	0.321032	0.678995
Zn12	Zn	1.361602	0.571032	0.928995
Zn13	Zn	0.611550	-0.254075	0.254083
Zn14	Zn	0.861550	-0.004075	0.504083
Zn15	Zn	1.111550	0.245925	0.754083
Zn16	Zn	1.361550	0.495925	1.004083
O17	O	0.649131	-0.216528	0.216549
O18	O	0.899131	0.033472	0.466549
O19	O	1.149131	0.283472	0.716549
O20	O	1.399131	0.533472	0.966549
O21	O	0.749578	-0.188952	0.244176
O22	O	0.999578	0.061048	0.494176
O23	O	1.249578	0.311048	0.744176
O24	O	1.499578	0.561048	0.994176
O25	O	0.676690	-0.244127	0.116128
O26	O	0.926690	0.005873	0.366128
O27	O	1.176690	0.255873	0.616128
O28	O	1.426690	0.505873	0.866128
O29	O	0.621617	-0.116102	0.188978
O30	O	0.871617	0.133898	0.438978
O31	O	1.121617	0.383898	0.688978
O32	O	1.371617	0.633898	0.938978
O33	O	0.749528	-0.244137	0.188979
O34	O	0.999528	0.005863	0.438979
O35	O	1.249528	0.255863	0.688979
O36	O	1.499528	0.505863	0.938979
O37	O	0.676805	-0.116109	0.244176
O38	O	0.926805	0.133891	0.494176
O39	O	1.176805	0.383891	0.744176
O40	O	1.426805	0.633891	0.994176
O41	O	0.621551	-0.188935	0.116127
O42	O	0.871551	0.061065	0.366127
O43	O	1.121551	0.311065	0.616127
O44	O	1.371551	0.561065	0.866127
O45	O	0.548728	-0.188921	0.188938
O46	O	0.798728	0.061079	0.438938
O47	O	1.048728	0.311079	0.688938
O48	O	1.298728	0.561079	0.938938
O49	O	0.621528	-0.244111	0.316956
O50	O	0.871528	0.005889	0.566956
O51	O	1.121528	0.255889	0.816956
O52	O	1.371528	0.505889	1.066956
O53	O	0.548690	-0.244101	0.244105
O54	O	0.798690	0.005899	0.494105
O55	O	1.048690	0.255899	0.744105
O56	O	1.298690	0.505899	0.994105
O57	O	0.676755	-0.188937	0.316987
O58	O	0.926755	0.061063	0.566987
O59	O	1.176755	0.311063	0.816987
O60	O	1.426755	0.561063	1.066987
O61	O	0.676639	-0.316955	0.188938
O62	O	0.926639	-0.066955	0.438938
O63	O	1.176639	0.183045	0.688938
O64	O	1.426639	0.433045	0.938938
O65	O	0.621462	-0.316944	0.244105
O66	O	0.871462	-0.066944	0.494105
O67	O	1.121462	0.183056	0.744105
O68	O	1.371462	0.433056	0.994105
C69	C	0.532408	-0.216509	0.216517
C70	C	0.782408	0.033491	0.466517
C71	C	1.032408	0.283491	0.716517
C72	C	1.282408	0.533491	0.966517
C73	C	0.482474	-0.216511	0.216514
C74	C	0.732474	0.033489	0.466514
C75	C	0.982474	0.283489	0.716514
C76	C	1.232474	0.533489	0.966514
C77	C	0.649050	-0.333250	0.216527
C78	C	0.899050	-0.083250	0.466527
C79	C	1.149050	0.166750	0.716527
C80	C	1.399050	0.416750	0.966527
C81	C	0.649056	-0.383185	0.216533
C82	C	0.899056	-0.133185	0.466533
C83	C	1.149056	0.116815	0.716533
C84	C	1.399056	0.366815	0.966533
C85	C	0.172820	-0.245303	0.245240
C86	C	0.422820	0.004697	0.495240
C87	C	0.672820	0.254697	0.745240
C88	C	0.922820	0.504697	0.995240
C89	C	-0.014853	-0.245315	0.245260
C90	C	0.235147	0.004685	0.495260
C91	C	0.485147	0.254685	0.745260
C92	C	0.735147	0.504685	0.995260
O93	O	-0.039127	-0.269774	0.269665
O94	O	0.210873	-0.019774	0.519665
O95	O	0.460873	0.230226	0.769665
O96	O	0.710873	0.480226	1.019665
N97	N	-0.038311	-0.216544	0.216583
N98	N	0.211689	0.033456	0.466583
N99	N	0.461689	0.283456	0.716583
N100	N	0.711689	0.533456	0.966583
C101	C	-0.014848	-0.187766	0.187902
C102	C	0.235152	0.062234	0.437902
C103	C	0.485152	0.312234	0.687902
C104	C	0.735152	0.562234	0.937902
O105	O	-0.039107	-0.163291	0.163514
O106	O	0.210893	0.086709	0.413514
O107	O	0.460893	0.336709	0.663514
O108	O	0.710893	0.586709	0.913514
C109	C	0.172824	-0.187751	0.187884
C110	C	0.422824	0.062249	0.437884
C111	C	0.672824	0.312249	0.687884
C112	C	0.922824	0.562249	0.937884
C113	C	0.196280	-0.216527	0.216560
C114	C	0.446280	0.033473	0.466560
C115	C	0.696280	0.283473	0.716560
C116	C	0.946280	0.533473	0.966560
C117	C	0.196276	-0.274076	0.273913
C118	C	0.446276	-0.024076	0.523913
C119	C	0.696276	0.225924	0.773913
C120	C	0.946276	0.475924	1.023913
C121	C	0.243191	-0.274075	0.273906
C122	C	0.493191	-0.024075	0.523906
C123	C	0.743191	0.225925	0.773906
C124	C	0.993191	0.475925	1.023906
C125	C	0.266651	-0.245299	0.245226
C126	C	0.516651	0.004701	0.495226
C127	C	0.766651	0.254701	0.745226
C128	C	1.016651	0.504701	0.995226
C129	C	0.243195	-0.216526	0.216553
C130	C	0.493195	0.033474	0.466553
C131	C	0.743195	0.283474	0.716553
C132	C	0.993195	0.533474	0.966553
C133	C	0.196286	-0.158971	0.159205
C134	C	0.446286	0.091029	0.409205
C135	C	0.696286	0.341029	0.659205
C136	C	0.946286	0.591029	0.909205
C137	C	0.243207	-0.158969	0.159204
C138	C	0.493207	0.091031	0.409204
C139	C	0.743207	0.341031	0.659204
C140	C	0.993207	0.591031	0.909204
C141	C	0.266663	-0.187745	0.187880
C142	C	0.516663	0.062255	0.437880
C143	C	0.766663	0.312255	0.687880
C144	C	1.016663	0.562255	0.937880
C145	C	0.313570	-0.187749	0.187865
C146	C	0.563570	0.062251	0.437865
C147	C	0.813570	0.312251	0.687865
C148	C	1.063570	0.562251	0.937865
N149	N	0.337029	-0.216520	0.216542
N150	N	0.587029	0.033480	0.466542
N151	N	0.837029	0.283480	0.716542
N152	N	1.087029	0.533480	0.966542
C153	C	0.313569	-0.245295	0.245222
C154	C	0.563569	0.004705	0.495222
C155	C	0.813569	0.254705	0.745222
C156	C	1.063569	0.504705	0.995222
C157	C	-0.113379	-0.187776	0.187912
C158	C	0.136621	0.062224	0.437912
C159	C	0.386621	0.312224	0.687912
C160	C	0.636621	0.562224	0.937912
C161	C	-0.160297	-0.187780	0.187916
C162	C	0.089703	0.062220	0.437916
C163	C	0.339703	0.312220	0.687916
C164	C	0.589703	0.562220	0.937916
C165	C	-0.160298	-0.245329	0.245275
C166	C	0.089702	0.004671	0.495275
C167	C	0.339702	0.254671	0.745275
C168	C	0.589702	0.504671	0.995275
C169	C	-0.113380	-0.245327	0.245269
C170	C	0.136620	0.004673	0.495269
C171	C	0.386620	0.254673	0.745269
C172	C	0.636620	0.504673	0.995269
C173	C	-0.089921	-0.216547	0.216589
C174	C	0.160079	0.033453	0.466589
C175	C	0.410079	0.283453	0.716589
C176	C	0.660079	0.533453	0.966589
C177	C	0.412095	-0.245290	0.245205
C178	C	0.662095	0.004710	0.495205
C179	C	0.912095	0.254710	0.745205
C180	C	1.162095	0.504710	0.995205
C181	C	0.459014	-0.245287	0.245194
C182	C	0.709014	0.004713	0.495194
C183	C	0.959014	0.254713	0.745194
C184	C	1.209014	0.504713	0.995194
C185	C	0.459012	-0.187736	0.187837
C186	C	0.709012	0.062264	0.437837
C187	C	0.959012	0.312264	0.687837
C188	C	1.209012	0.562264	0.937837
C189	C	0.412096	-0.187740	0.187846
C190	C	0.662096	0.062260	0.437846
C191	C	0.912096	0.312260	0.687846
C192	C	1.162096	0.562260	0.937846
C193	C	0.388639	-0.216519	0.216534
C194	C	0.638639	0.033481	0.466534
C195	C	0.888639	0.283481	0.716534
C196	C	1.138639	0.533481	0.966534
O197	O	0.337873	-0.163299	0.163477
O198	O	0.587873	0.086701	0.413477
O199	O	0.837873	0.336701	0.663477
O200	O	1.087873	0.586701	0.913477
O201	O	0.337836	-0.269759	0.269613
O202	O	0.587836	-0.019759	0.519613
O203	O	0.837836	0.230241	0.769613
O204	O	1.087836	0.480241	1.019613
C205	C	0.125905	-0.245304	0.245247
C206	C	0.375905	0.004696	0.495247
C207	C	0.625905	0.254696	0.745247
C208	C	0.875905	0.504696	0.995247
C209	C	0.102449	-0.216531	0.216574
C210	C	0.352449	0.033469	0.466574
C211	C	0.602449	0.283469	0.716574
C212	C	0.852449	0.533469	0.966574
C213	C	0.125909	-0.187755	0.187893
C214	C	0.375909	0.062245	0.437893
C215	C	0.625909	0.312245	0.687893
C216	C	0.875909	0.562245	0.937893
C217	C	0.055531	-0.216535	0.216577
C218	C	0.305531	0.033465	0.466577
C219	C	0.555531	0.283465	0.716577
C220	C	0.805531	0.533465	0.966577
C221	C	0.032071	-0.245310	0.245258
C222	C	0.282071	0.004690	0.495258
C223	C	0.532071	0.254690	0.745258
C224	C	0.782071	0.504690	0.995258
C225	C	0.055529	-0.274082	0.273934
C226	C	0.305529	-0.024082	0.523934
C227	C	0.555529	0.225918	0.773934
C228	C	0.805529	0.475918	1.023934
C229	C	0.102445	-0.274080	0.273927
C230	C	0.352445	-0.024080	0.523927
C231	C	0.602445	0.225920	0.773927
C232	C	0.852445	0.475920	1.023927
C233	C	0.102451	-0.158984	0.159217
C234	C	0.352451	0.091016	0.409217
C235	C	0.602451	0.341016	0.659217
C236	C	0.852451	0.591016	0.909217
C237	C	0.055535	-0.158989	0.159226
C238	C	0.305535	0.091011	0.409226
C239	C	0.555535	0.341011	0.659226
C240	C	0.805535	0.591011	0.909226
C241	C	0.032075	-0.187764	0.187906
C242	C	0.282075	0.062236	0.437906
C243	C	0.532075	0.312236	0.687906
C244	C	0.782075	0.562236	0.937906
C245	C	0.677914	-0.692821	0.187866
C246	C	0.927914	-0.442821	0.437866
C247	C	1.177914	-0.192821	0.687866
C248	C	1.427914	0.057179	0.937866
C249	C	0.677969	-0.880494	0.187883
C250	C	0.927969	-0.630494	0.437883
C251	C	1.177969	-0.380494	0.687883
C252	C	1.427969	-0.130494	0.937883
O253	O	0.702441	-0.904753	0.163493
O254	O	0.952441	-0.654753	0.413493
O255	O	1.202441	-0.404753	0.663493
O256	O	1.452441	-0.154753	0.913493
N257	N	0.649224	-0.903970	0.216583
N258	N	0.899224	-0.653970	0.466583
N259	N	1.149224	-0.403970	0.716583
N260	N	1.399224	-0.153970	0.966583
C261	C	0.620465	-0.880524	0.245283
C262	C	0.870465	-0.630524	0.495283
C263	C	1.120465	-0.380524	0.745283
C264	C	1.370465	-0.130524	0.995283
O265	O	0.596020	-0.904798	0.269698
O266	O	0.846020	-0.654798	0.519698
O267	O	1.096020	-0.404798	0.769698
O268	O	1.346020	-0.154798	1.019698
C269	C	0.620412	-0.692852	0.245268
C270	C	0.870412	-0.442852	0.495268
C271	C	1.120412	-0.192852	0.745268
C272	C	1.370412	0.057148	0.995268
C273	C	0.649156	-0.669379	0.216563
C274	C	0.899156	-0.419379	0.466563
C275	C	1.149156	-0.169379	0.716563
C276	C	1.399156	0.080621	0.966563
C277	C	0.706656	-0.669348	0.159164
C278	C	0.956656	-0.419348	0.409164
C279	C	1.206656	-0.169348	0.659164
C280	C	1.456656	0.080652	0.909164
C281	C	0.706640	-0.622433	0.159158
C282	C	0.956640	-0.372433	0.409158
C283	C	1.206640	-0.122433	0.659158
C284	C	1.456640	0.127567	0.909158
C285	C	0.677882	-0.598990	0.187854
C286	C	0.927882	-0.348990	0.437854
C287	C	1.177882	-0.098990	0.687854
C288	C	1.427882	0.151010	0.937854
C289	C	0.649140	-0.622463	0.216557
C290	C	0.899140	-0.372463	0.466557
C291	C	1.149140	-0.122463	0.716557
C292	C	1.399140	0.127537	0.966557
C293	C	0.591656	-0.669407	0.273969
C294	C	0.841656	-0.419407	0.523969
C295	C	1.091656	-0.169407	0.773969
C296	C	1.341656	0.080593	1.023969
C297	C	0.591646	-0.622486	0.273964
C298	C	0.841646	-0.372486	0.523964
C299	C	1.091646	-0.122486	0.773964
C300	C	1.341646	0.127514	1.023964
C301	C	0.620390	-0.599013	0.245259
C302	C	0.870390	-0.349013	0.495259
C303	C	1.120390	-0.099013	0.745259
C304	C	1.370390	0.150987	0.995259
C305	C	0.620367	-0.552106	0.245248
C306	C	0.870367	-0.302106	0.495248
C307	C	1.120367	-0.052106	0.745248
C308	C	1.370367	0.197894	0.995248
N309	N	0.649112	-0.528630	0.216548
N310	N	0.899112	-0.278630	0.466548
N311	N	1.149112	-0.028630	0.716548
N312	N	1.399112	0.221370	0.966548
C313	C	0.677869	-0.552072	0.187851
C314	C	0.927869	-0.302072	0.437851
C315	C	1.177869	-0.052072	0.687851
C316	C	1.427869	0.197928	0.937851
C317	C	0.620494	-0.979055	0.245289
C318	C	0.870494	-0.729055	0.495289
C319	C	1.120494	-0.479055	0.745289
C320	C	1.370494	-0.229055	0.995289
C321	C	0.620507	-1.025973	0.245292
C322	C	0.870507	-0.775973	0.495292
C323	C	1.120507	-0.525973	0.745292
C324	C	1.370507	-0.275973	0.995292
C325	C	0.678012	-1.025939	0.187893
C326	C	0.928012	-0.775939	0.437893
C327	C	1.178012	-0.525939	0.687893
C328	C	1.428012	-0.275939	0.937893
C329	C	0.677996	-0.979021	0.187887
C330	C	0.927996	-0.729021	0.437887
C331	C	1.177996	-0.479021	0.687887
C332	C	1.427996	-0.229021	0.937887
C333	C	0.649239	-0.955579	0.216589
C334	C	0.899239	-0.705579	0.466589
C335	C	1.149239	-0.455579	0.716589
C336	C	1.399239	-0.205579	0.966589
C337	C	0.677834	-0.453547	0.187841
C338	C	0.927834	-0.203547	0.437841
C339	C	1.177834	0.046453	0.687841
C340	C	1.427834	0.296453	0.937841
C341	C	0.677814	-0.406627	0.187836
C342	C	0.927814	-0.156627	0.437836
C343	C	1.177814	0.093373	0.687836
C344	C	1.427814	0.343373	0.937836
C345	C	0.620311	-0.406664	0.245237
C346	C	0.870311	-0.156664	0.495237
C347	C	1.120311	0.093336	0.745237
C348	C	1.370311	0.343336	0.995237
C349	C	0.620329	-0.453580	0.245240
C350	C	0.870329	-0.203580	0.495240
C351	C	1.120329	0.046420	0.745240
C352	C	1.370329	0.296420	0.995240
C353	C	0.649094	-0.477020	0.216540
C354	C	0.899094	-0.227020	0.466540
C355	C	1.149094	0.022980	0.716540
C356	C	1.399094	0.272980	0.966540
O357	O	0.595912	-0.527818	0.269629
O358	O	0.845912	-0.277818	0.519629
O359	O	1.095912	-0.027818	0.769629
O360	O	1.345912	0.222182	1.019629
O361	O	0.702318	-0.527791	0.163447
O362	O	0.952318	-0.277791	0.413447
O363	O	1.202318	-0.027791	0.663447
O364	O	1.452318	0.222209	0.913447
C365	C	0.677930	-0.739737	0.187872
C366	C	0.927930	-0.489737	0.437872
C367	C	1.177930	-0.239737	0.687872
C368	C	1.427930	0.010263	0.937872
C369	C	0.649188	-0.763210	0.216574
C370	C	0.899188	-0.513210	0.466574
C371	C	1.149188	-0.263210	0.716574
C372	C	1.399188	-0.013210	0.966574
C373	C	0.620430	-0.739767	0.245271
C374	C	0.870430	-0.489767	0.495271
C375	C	1.120430	-0.239767	0.745271
C376	C	1.370430	0.010233	0.995271
C377	C	0.649200	-0.810128	0.216578
C378	C	0.899200	-0.560128	0.466578
C379	C	1.149200	-0.310128	0.716578
C380	C	1.399200	-0.060128	0.966578
C381	C	0.677958	-0.833570	0.187881
C382	C	0.927958	-0.583570	0.437881
C383	C	1.177958	-0.333570	0.687881
C384	C	1.427958	-0.083570	0.937881
C385	C	0.706703	-0.810094	0.159181
C386	C	0.956703	-0.560094	0.409181
C387	C	1.206703	-0.310094	0.659181
C388	C	1.456703	-0.060094	0.909181
C389	C	0.706687	-0.763179	0.159175
C390	C	0.956687	-0.513179	0.409175
C391	C	1.206687	-0.263179	0.659175
C392	C	1.456687	-0.013179	0.909175
C393	C	0.591685	-0.763243	0.273971
C394	C	0.841685	-0.513243	0.523971
C395	C	1.091685	-0.263243	0.773971
C396	C	1.341685	-0.013243	1.023971
C397	C	0.591703	-0.810158	0.273974
C398	C	0.841703	-0.560158	0.523974
C399	C	1.091703	-0.310158	0.773974
C400	C	1.341703	-0.060158	1.023974
C401	C	0.620461	-0.833601	0.245277
C402	C	0.870461	-0.583601	0.495277
C403	C	1.120461	-0.333601	0.745277
C404	C	1.370461	-0.083601	0.995277
C405	C	0.766309	-0.216547	0.216582
C406	C	1.016309	0.033453	0.466582
C407	C	1.266309	0.283453	0.716582
C408	C	1.516309	0.533453	0.966582
C409	C	0.816244	-0.216555	0.216596
C410	C	1.066244	0.033445	0.466596
C411	C	1.316244	0.283445	0.716596
C412	C	1.566244	0.533445	0.966596
C413	C	0.649143	-0.216524	0.333728
C414	C	0.899143	0.033476	0.583728
C415	C	1.149143	0.283476	0.833728
C416	C	1.399143	0.533476	1.083728
C417	C	0.649148	-0.216522	0.383662
C418	C	0.899148	0.033478	0.633662
C419	C	1.149148	0.283478	0.883662
C420	C	1.399148	0.533478	1.133662
C421	C	0.649225	-0.099349	0.216582
C422	C	0.899225	0.150651	0.466582
C423	C	1.149225	0.400651	0.716582
C424	C	1.399225	0.650651	0.966582
C425	C	0.649265	-0.049415	0.216595
C426	C	0.899265	0.200585	0.466595
C427	C	1.149265	0.450585	0.716595
C428	C	1.399265	0.700585	0.966595
C429	C	0.649145	-0.216499	0.099827
C430	C	0.899145	0.033501	0.349827
C431	C	1.149145	0.283501	0.599827
C432	C	1.399145	0.533501	0.849827
C433	C	0.649227	-0.216374	0.049893
C434	C	0.899227	0.033626	0.299893
C435	C	1.149227	0.283626	0.549893
C436	C	1.399227	0.533626	0.799893
C437	C	0.677935	-0.187718	0.693325
C438	C	0.927935	0.062282	0.943325
C439	C	1.177935	0.312282	1.193325
C440	C	1.427935	0.562282	1.443325
C441	C	0.677957	-0.187680	0.880998
C442	C	0.927957	0.062320	1.130998
C443	C	1.177957	0.312320	1.380998
C444	C	1.427957	0.562320	1.630998
O445	O	0.702399	-0.163232	0.905279
O446	O	0.952399	0.086768	1.155279
O447	O	1.202399	0.336768	1.405279
O448	O	1.452399	0.586768	1.655279
N449	N	0.649208	-0.216402	0.904448
N450	N	0.899208	0.033598	1.154448
N451	N	1.149208	0.283598	1.404448
N452	N	1.399208	0.533598	1.654448
C453	C	0.620449	-0.245133	0.880976
C454	C	0.870449	0.004867	1.130976
C455	C	1.120449	0.254867	1.380976
C456	C	1.370449	0.504867	1.630976
O457	O	0.595993	-0.269559	0.905228
O458	O	0.845993	-0.019559	1.155228
O459	O	1.095993	0.230441	1.405228
O460	O	1.345993	0.480441	1.655228
C461	C	0.620424	-0.245169	0.693304
C462	C	0.870424	0.004831	0.943304
C463	C	1.120424	0.254831	1.193304
C464	C	1.370424	0.504831	1.443304
C465	C	0.649179	-0.216448	0.669857
C466	C	0.899179	0.033552	0.919857
C467	C	1.149179	0.283552	1.169857
C468	C	1.399179	0.533552	1.419857
C469	C	0.706687	-0.158999	0.669877
C470	C	0.956687	0.091001	0.919877
C471	C	1.206687	0.341001	1.169877
C472	C	1.456687	0.591001	1.419877
C473	C	0.706683	-0.159011	0.622962
C474	C	0.956683	0.090989	0.872962
C475	C	1.206683	0.340989	1.122962
C476	C	1.456683	0.590989	1.372962
C477	C	0.677927	-0.187741	0.599494
C478	C	0.927927	0.062259	0.849494
C479	C	1.177927	0.312259	1.099494
C480	C	1.427927	0.562259	1.349494
C481	C	0.649175	-0.216460	0.622941
C482	C	0.899175	0.033540	0.872941
C483	C	1.149175	0.283540	1.122941
C484	C	1.399175	0.533540	1.372941
C485	C	0.591663	-0.273898	0.669833
C486	C	0.841663	-0.023898	0.919833
C487	C	1.091663	0.226102	1.169833
C488	C	1.341663	0.476102	1.419833
C489	C	0.591659	-0.273903	0.622912
C490	C	0.841659	-0.023903	0.872912
C491	C	1.091659	0.226097	1.122912
C492	C	1.341659	0.476097	1.372912
C493	C	0.620414	-0.245183	0.599465
C494	C	0.870414	0.004817	0.849465
C495	C	1.120414	0.254817	1.099465
C496	C	1.370414	0.504817	1.349465
C497	C	0.620415	-0.245202	0.552558
C498	C	0.870415	0.004798	0.802558
C499	C	1.120415	0.254798	1.052558
C500	C	1.370415	0.504798	1.302558
N501	N	0.649164	-0.216480	0.529108
N502	N	0.899164	0.033520	0.779108
N503	N	1.149164	0.283520	1.029108
N504	N	1.399164	0.533520	1.279108
C505	C	0.677920	-0.187749	0.552576
C506	C	0.927920	0.062251	0.802576
C507	C	1.177920	0.312251	1.052576
C508	C	1.427920	0.562251	1.302576
C509	C	0.620464	-0.245113	0.979507
C510	C	0.870464	0.004887	1.229507
C511	C	1.120464	0.254887	1.479507
C512	C	1.370464	0.504887	1.729507
C513	C	0.620471	-0.245105	1.026425
C514	C	0.870471	0.004895	1.276425
C515	C	1.120471	0.254895	1.526425
C516	C	1.370471	0.504895	1.776425
C517	C	0.677979	-0.187650	1.026443
C518	C	0.927979	0.062350	1.276443
C519	C	1.177979	0.312350	1.526443
C520	C	1.427979	0.562350	1.776443
C521	C	0.677974	-0.187661	0.979524
C522	C	0.927974	0.062339	1.229524
C523	C	1.177974	0.312339	1.479524
C524	C	1.427974	0.562339	1.729524
C525	C	0.649214	-0.216391	0.956057
C526	C	0.899214	0.033609	1.206057
C527	C	1.149214	0.283609	1.456057
C528	C	1.399214	0.533609	1.706057
C529	C	0.677910	-0.187776	0.454050
C530	C	0.927910	0.062224	0.704050
C531	C	1.177910	0.312224	0.954050
C532	C	1.427910	0.562224	1.204050
C533	C	0.677904	-0.187792	0.407130
C534	C	0.927904	0.062208	0.657130
C535	C	1.177904	0.312208	0.907130
C536	C	1.427904	0.562208	1.157130
C537	C	0.620395	-0.245244	0.407116
C538	C	0.870395	0.004756	0.657116
C539	C	1.120395	0.254756	0.907116
C540	C	1.370395	0.504756	1.157116
C541	C	0.620401	-0.245230	0.454032
C542	C	0.870401	0.004770	0.704032
C543	C	1.120401	0.254770	0.954032
C544	C	1.370401	0.504770	1.204032
C545	C	0.649161	-0.216493	0.477497
C546	C	0.899161	0.033507	0.727497
C547	C	1.149161	0.283507	0.977497
C548	C	1.399161	0.533507	1.227497
O549	O	0.595982	-0.269633	0.528248
O550	O	0.845982	-0.019633	0.778248
O551	O	1.095982	0.230367	1.028248
O552	O	1.345982	0.480367	1.278248
O553	O	0.702366	-0.163320	0.528316
O554	O	0.952366	0.086680	0.778316
O555	O	1.202366	0.336680	1.028316
O556	O	1.452366	0.586680	1.278316
C557	C	0.677939	-0.187706	0.740240
C558	C	0.927939	0.062294	0.990240
C559	C	1.177939	0.312294	1.240240
C560	C	1.427939	0.562294	1.490240
C561	C	0.649187	-0.216425	0.763688
C562	C	0.899187	0.033575	1.013688
C563	C	1.149187	0.283575	1.263688
C564	C	1.399187	0.533575	1.513688
C565	C	0.620431	-0.245155	0.740219
C566	C	0.870431	0.004845	0.990219
C567	C	1.120431	0.254845	1.240219
C568	C	1.370431	0.504845	1.490219
C569	C	0.649194	-0.216417	0.810605
C570	C	0.899194	0.033583	1.060605
C571	C	1.149194	0.283583	1.310605
C572	C	1.399194	0.533583	1.560605
C573	C	0.677950	-0.187686	0.834074
C574	C	0.927950	0.062314	1.084074
C575	C	1.177950	0.312314	1.334074
C576	C	1.427950	0.562314	1.584074
C577	C	0.706699	-0.158964	0.810624
C578	C	0.956699	0.091036	1.060624
C579	C	1.206699	0.341036	1.310624
C580	C	1.456699	0.591036	1.560624
C581	C	0.706695	-0.158976	0.763708
C582	C	0.956695	0.091024	1.013708
C583	C	1.206695	0.341024	1.263708
C584	C	1.456695	0.591024	1.513708
C585	C	0.591682	-0.273877	0.763669
C586	C	0.841682	-0.023877	1.013669
C587	C	1.091682	0.226123	1.263669
C588	C	1.341682	0.476123	1.513669
C589	C	0.591689	-0.273864	0.810585
C590	C	0.841689	-0.023864	1.060585
C591	C	1.091689	0.226136	1.310585
C592	C	1.341689	0.476136	1.560585
C593	C	0.620445	-0.245133	0.834053
C594	C	0.870445	0.004867	1.084053
C595	C	1.120445	0.254867	1.334053
C596	C	1.370445	0.504867	1.584053
H597	H	0.478110	-0.268721	0.268545
H598	H	0.728110	-0.018721	0.518545
H599	H	0.978110	0.231279	0.768545
H600	H	1.228110	0.481279	1.018545
H601	H	0.568229	-0.603402	0.297337
H602	H	0.818229	-0.353402	0.547337
H603	H	1.068229	-0.103402	0.797337
H604	H	1.318229	0.146598	1.047337
O605	O	0.589474	-0.953771	0.276243
O606	O	0.839474	-0.703771	0.526243
O607	O	1.089474	-0.453771	0.776243
O608	O	1.339474	-0.203771	1.026243
H609	H	0.566629	-0.932422	0.256107
H610	H	0.816629	-0.682422	0.506107
H611	H	1.066629	-0.432422	0.756107
H612	H	1.316629	-0.182422	1.006107
O613	O	0.737708	-0.127995	0.738424
O614	O	0.987708	0.122005	0.988424
O615	O	1.237708	0.372005	1.238424
O616	O	1.487708	0.622005	1.488424
H617	H	0.760552	-0.148109	0.717056
H618	H	1.010552	0.101891	0.967056
H619	H	1.260552	0.351891	1.217056
H620	H	1.510552	0.601891	1.467056
H621	H	0.597097	-1.045080	0.268662
H622	H	0.847097	-0.795080	0.518662
H623	H	1.097097	-0.545080	0.768662
H624	H	1.347097	-0.295080	1.018662
O625	O	0.560655	-0.694715	0.304935
O626	O	0.810655	-0.444715	0.554935
O627	O	1.060655	-0.194715	0.804935
O628	O	1.310655	0.055285	1.054935
H629	H	0.537811	-0.716118	0.284811
H630	H	0.787811	-0.466118	0.534811
H631	H	1.037811	-0.216118	0.784811
H632	H	1.287811	0.033882	1.034811
O633	O	0.030241	-0.305135	0.304869
O634	O	0.280241	-0.055135	0.554869
O635	O	0.530241	0.194865	0.804869
O636	O	0.780241	0.444865	1.054869
H637	H	0.008888	-0.285077	0.327777
H638	H	0.258888	-0.035077	0.577777
H639	H	0.508888	0.214923	0.827777
H640	H	0.758888	0.464923	1.077777
O641	O	0.030238	-0.127948	0.128297
O642	O	0.280238	0.122052	0.378297
O643	O	0.530238	0.372052	0.628297
O644	O	0.780238	0.622052	0.878297
H645	H	0.054438	-0.107937	0.108358
H646	H	0.304438	0.142063	0.358358
H647	H	0.554438	0.392063	0.608358
H648	H	0.804438	0.642063	0.858358
O649	O	0.589294	-0.381373	0.276185
O650	O	0.839294	-0.131373	0.526185
O651	O	1.089294	0.118627	0.776185
O652	O	1.339294	0.368627	1.026185
H653	H	0.569305	-0.405574	0.296144
H654	H	0.819305	-0.155574	0.546144
H655	H	1.069305	0.094426	0.796144
H656	H	1.319305	0.344426	1.046144
O657	O	0.709005	-0.953702	0.156935
O658	O	0.959005	-0.703702	0.406935
O659	O	1.209005	-0.453702	0.656935
O660	O	1.459005	-0.203702	0.906935
H661	H	0.701332	-0.962728	0.121667
H662	H	0.951332	-0.712728	0.371667
H663	H	1.201332	-0.462728	0.621667
H664	H	1.451332	-0.212728	0.871667
H665	H	0.478121	-0.164309	0.164485
H666	H	0.728121	0.085691	0.414485
H667	H	0.978121	0.335691	0.664485
H668	H	1.228121	0.585691	0.914485
H669	H	0.597044	-0.268511	0.960404
H670	H	0.847044	-0.018511	1.210404
H671	H	1.097044	0.231489	1.460404
H672	H	1.347044	0.481489	1.710404
O673	O	0.560657	-0.737961	0.304914
O674	O	0.810657	-0.487961	0.554914
O675	O	1.060657	-0.237961	0.804914
O676	O	1.310657	0.012039	1.054914
H677	H	0.540669	-0.762171	0.324864
H678	H	0.790669	-0.512171	0.574864
H679	H	1.040669	-0.262171	0.824864
H680	H	1.290669	-0.012171	1.074864
H681	H	0.701220	-0.387517	0.164459
H682	H	0.951220	-0.137517	0.414459
H683	H	1.201220	0.112483	0.664459
H684	H	1.451220	0.362483	0.914459
H685	H	0.701388	-0.164274	0.960437
H686	H	0.951388	0.085726	1.210437
H687	H	1.201388	0.335726	1.460437
H688	H	1.451388	0.585726	1.710437
H689	H	-0.179407	-0.268759	0.268628
H690	H	0.070593	-0.018759	0.518628
H691	H	0.320593	0.231241	0.768628
H692	H	0.570593	0.481241	1.018628
H693	H	0.393001	-0.268723	0.268566
H694	H	0.643001	-0.018723	0.518566
H695	H	0.893001	0.231277	0.768566
H696	H	1.143001	0.481277	1.018566
H697	H	0.177197	-0.135539	0.135854
H698	H	0.427197	0.114461	0.385854
H699	H	0.677197	0.364461	0.635854
H700	H	0.927197	0.614461	0.885854
O701	O	-0.185594	-0.156746	0.156986
O702	O	0.064406	0.093254	0.406986
O703	O	0.314406	0.343254	0.656986
O704	O	0.564406	0.593254	0.906986
H705	H	-0.161394	-0.136734	0.137047
H706	H	0.088606	0.113266	0.387047
H707	H	0.338606	0.363266	0.637047
H708	H	0.588606	0.613266	0.887047
H709	H	0.568248	-0.297285	0.688916
H710	H	0.818248	-0.047285	0.938916
H711	H	1.068248	0.202715	1.188916
H712	H	1.318248	0.452715	1.438916
O713	O	0.268510	-0.127932	0.128265
O714	O	0.518510	0.122068	0.378265
O715	O	0.768510	0.372068	0.628265
O716	O	1.018510	0.622068	0.878265
H717	H	0.244315	-0.107930	0.108325
H718	H	0.494315	0.142070	0.358325
H719	H	0.744315	0.392070	0.608325
H720	H	0.994315	0.642070	0.858325
H721	H	0.568265	-0.297274	0.744566
H722	H	0.818265	-0.047274	0.994566
H723	H	1.068265	0.202726	1.244566
H724	H	1.318265	0.452726	1.494566
O725	O	0.708995	-0.156659	1.051758
O726	O	0.958995	0.093341	1.301758
O727	O	1.208995	0.343341	1.551758
O728	O	1.458995	0.593341	1.801758
H729	H	0.701313	-0.121402	1.042751
H730	H	0.951313	0.128598	1.292751
H731	H	1.201313	0.378598	1.542751
H732	H	1.451313	0.628598	1.792751
O733	O	0.268488	-0.305105	0.304841
O734	O	0.518488	-0.055105	0.554841
O735	O	0.768488	0.194895	0.804841
O736	O	1.018488	0.444895	1.054841
H737	H	0.244286	-0.325108	0.324787
H738	H	0.494286	-0.075108	0.574787
H739	H	0.744286	0.174892	0.824787
H740	H	0.994286	0.424892	1.074787
O741	O	0.560671	-0.304844	0.835869
O742	O	0.810671	-0.054844	1.085869
O743	O	1.060671	0.195156	1.335869
O744	O	1.310671	0.445156	1.585869
H745	H	0.565502	-0.300015	0.872438
H746	H	0.815502	-0.050015	1.122438
H747	H	1.065502	0.199985	1.372438
H748	H	1.315502	0.449985	1.622438
O749	O	0.708854	-0.478826	0.156884
O750	O	0.958854	-0.228826	0.406884
O751	O	1.208854	0.021174	0.656884
O752	O	1.458854	0.271174	0.906884
H753	H	0.728831	-0.454615	0.136923
H754	H	0.978831	-0.204615	0.386923
H755	H	1.228831	0.045385	0.636923
H756	H	1.478831	0.295385	0.886923
H757	H	-0.094283	-0.164339	0.164556
H758	H	0.155717	0.085661	0.414556
H759	H	0.405717	0.335661	0.664556
H760	H	0.655717	0.585661	0.914556
O761	O	0.386793	-0.156705	0.156918
O762	O	0.636793	0.093295	0.406918
O763	O	0.886793	0.343295	0.656918
O764	O	1.136793	0.593295	0.906918
H765	H	0.410990	-0.136695	0.136975
H766	H	0.660990	0.113305	0.386975
H767	H	0.910990	0.363305	0.636975
H768	H	1.160990	0.613305	0.886975
H769	H	-0.094285	-0.268759	0.268619
H770	H	0.155715	-0.018759	0.518619
H771	H	0.405715	0.231241	0.768619
H772	H	0.655715	0.481241	1.018619
O773	O	0.589376	-0.276225	0.381798
O774	O	0.839376	-0.026225	0.631798
O775	O	1.089376	0.223775	0.881798
O776	O	1.339376	0.473775	1.131798
H777	H	0.597048	-0.311487	0.390793
H778	H	0.847048	-0.061487	0.640793
H779	H	1.097048	0.188513	0.890793
H780	H	1.347048	0.438513	1.140793
O781	O	0.589327	-0.478902	0.276198
O782	O	0.839327	-0.228902	0.526198
O783	O	1.089327	0.021098	0.776198
O784	O	1.339327	0.271098	1.026198
H785	H	0.569329	-0.454716	0.296153
H786	H	0.819329	-0.204716	0.546153
H787	H	1.069329	0.045284	0.796153
H788	H	1.319329	0.295284	1.046153
O789	O	0.737645	-0.597118	0.128200
O790	O	0.987645	-0.347118	0.378200
O791	O	1.237645	-0.097118	0.628200
O792	O	1.487645	0.152882	0.878200
H793	H	0.760480	-0.575712	0.148331
H794	H	1.010480	-0.325712	0.398331
H795	H	1.260480	-0.075712	0.648331
H796	H	1.510480	0.174288	0.898331
H797	H	0.730093	-0.744071	0.135801
H798	H	0.980093	-0.494071	0.385801
H799	H	1.230093	-0.244071	0.635801
H800	H	1.480093	0.005929	0.885801
H801	H	0.730076	-0.688430	0.135795
H802	H	0.980076	-0.438430	0.385795
H803	H	1.230076	-0.188430	0.635795
H804	H	1.480076	0.061570	0.885795
O805	O	0.709038	-1.051227	0.156948
O806	O	0.959038	-0.801227	0.406948
O807	O	1.209038	-0.551227	0.656948
O808	O	1.459038	-0.301227	0.906948
H809	H	0.704220	-1.087795	0.161781
H810	H	0.954220	-0.837795	0.411781
H811	H	1.204220	-0.587795	0.661781
H812	H	1.454220	-0.337795	0.911781
H813	H	0.177180	-0.297509	0.297271
H814	H	0.427180	-0.047509	0.547271
H815	H	0.677180	0.202491	0.797271
H816	H	0.927180	0.452491	1.047271
H817	H	0.597061	-0.268497	1.045512
H818	H	0.847061	-0.018497	1.295512
H819	H	1.097061	0.231503	1.545512
H820	H	1.347061	0.481503	1.795512
H821	H	0.568233	-0.297294	0.603808
H822	H	0.818233	-0.047294	0.853808
H823	H	1.068233	0.202706	1.103808
H824	H	1.318233	0.452706	1.353808
O825	O	0.737731	-0.835382	0.128237
O826	O	0.987731	-0.585382	0.378237
O827	O	1.237731	-0.335382	0.628237
O828	O	1.487731	-0.085382	0.878237
H829	H	0.732914	-0.871950	0.133073
H830	H	0.982914	-0.621950	0.383073
H831	H	1.232914	-0.371950	0.633073
H832	H	1.482914	-0.121950	0.883073
O833	O	0.589388	-0.276205	0.479326
O834	O	0.839388	-0.026205	0.729326
O835	O	1.089388	0.223795	0.979326
O836	O	1.339388	0.473795	1.229326
H837	H	0.597059	-0.311470	0.470323
H838	H	0.847059	-0.061470	0.720323
H839	H	1.097059	0.188530	0.970323
H840	H	1.347059	0.438530	1.220323
O841	O	0.127741	-0.305113	0.304860
O842	O	0.377741	-0.055113	0.554860
O843	O	0.627741	0.194887	0.804860
O844	O	0.877741	0.444887	1.054860
H845	H	0.103540	-0.325116	0.324805
H846	H	0.353540	-0.075116	0.574805
H847	H	0.603540	0.174884	0.824805
H848	H	0.853540	0.424884	1.074805
O849	O	0.560699	-0.835474	0.304937
O850	O	0.810699	-0.585474	0.554937
O851	O	1.060699	-0.335474	0.804937
O852	O	1.310699	-0.085474	1.054937
H853	H	0.540705	-0.811286	0.324892
H854	H	0.790705	-0.561286	0.574892
H855	H	1.040705	-0.311286	0.824892
H856	H	1.290705	-0.061286	1.074892
H857	H	0.701321	-0.164403	0.388042
H858	H	0.951321	0.085597	0.638042
H859	H	1.201321	0.335597	0.888042
H860	H	1.451321	0.585597	1.138042
H861	H	0.701327	-0.164374	0.473150
H862	H	0.951327	0.085626	0.723150
H863	H	1.201327	0.335626	0.973150
H864	H	1.451327	0.585626	1.223150
H865	H	0.730097	-0.135623	0.603875
H866	H	0.980097	0.114377	0.853875
H867	H	1.230097	0.364377	1.103875
H868	H	1.480097	0.614377	1.353875
O869	O	0.737708	-0.128012	0.695186
O870	O	0.987708	0.121988	0.945186
O871	O	1.237708	0.371988	1.195186
O872	O	1.487708	0.621988	1.445186
H873	H	0.757699	-0.108050	0.670992
H874	H	1.007699	0.141950	0.920992
H875	H	1.257699	0.391950	1.170992
H876	H	1.507699	0.641950	1.420992
O877	O	0.127751	-0.127956	0.128272
O878	O	0.377751	0.122044	0.378272
O879	O	0.627751	0.372044	0.628272
O880	O	0.877751	0.622044	0.878272
H881	H	0.103553	-0.107958	0.108330
H882	H	0.353553	0.142042	0.358330
H883	H	0.603553	0.392042	0.608330
H884	H	0.853553	0.642042	0.858330
O885	O	0.737707	-0.127966	0.835940
O886	O	0.987707	0.122034	1.085940
O887	O	1.237707	0.372034	1.335940
O888	O	1.487707	0.622034	1.585940
H889	H	0.732870	-0.132782	0.872503
H890	H	0.982870	0.117218	1.122503
H891	H	1.232870	0.367218	1.372503
H892	H	1.482870	0.617218	1.622503
