data_functionalizedCrystal
_audit_creation_method	'MofGen! by Chris Wilmer'
_symmetry_space_group_name_H-M	'P1'
_symmetry_Int_Tables_number	1
_symmetry_cell_setting	triclinic
loop_
_symmetry_equiv_pos_as_xyz
  x,y,z
_cell_length_a	10.723024
_cell_length_b	10.489741
_cell_length_c	9.798715
_cell_angle_alpha	89.997135
_cell_angle_beta	89.996609
_cell_angle_gamma	84.503522
loop_
_atom_site_label
_atom_site_type_symbol
_atom_site_fract_x
_atom_site_fract_y
_atom_site_fract_z
O1	O	1.657297	0.178906	-0.113481
O2	O	1.294155	0.196031	-0.113486
O3	O	1.483989	0.001865	-0.113475
O4	O	1.467463	0.373072	-0.113492
O5	O	1.483975	0.001865	0.113507
O6	O	1.294141	0.196030	0.113496
O7	O	1.657283	0.178906	0.113501
Zn8	Zn	1.475709	0.187468	0.149537
Zn9	Zn	1.475728	0.187469	-0.149522
O10	O	1.467448	0.373071	0.113490
C11	C	1.247647	0.194785	0.000005
C12	C	1.109091	0.191056	0.000003
C13	C	1.034175	0.299701	-0.000003
C14	C	0.890969	0.295850	-0.000004
C15	C	1.482734	-0.045666	0.000015
C16	C	1.478999	-0.187293	0.000012
C17	C	1.358213	-0.255356	0.000001
C18	C	1.415265	-0.347515	0.111915
C19	C	1.415307	-0.347489	-0.111871
C20	C	1.536100	-0.277587	0.112019
C21	C	1.536126	-0.277551	-0.111868
C22	C	1.593265	-0.369683	0.000074
C23	C	1.703790	0.180152	0.000007
C24	C	1.842347	0.183881	-0.000000
C25	C	1.468704	0.420602	-0.000003
C26	C	1.472438	0.562229	-0.000009
N27	N	1.475706	0.187467	0.353637
N28	N	1.475742	0.187460	-0.353622
C29	C	1.555412	0.105583	0.421418
C30	C	1.555432	0.105578	0.578581
H31	H	0.826593	0.388858	-0.000015
H32	H	0.906715	0.090867	-0.000004
O33	O	1.394154	0.271049	0.577008
C34	C	1.178018	0.344279	0.532996
C35	C	1.270275	0.249563	0.611679
H36	H	1.077841	0.326924	0.560977
H37	H	1.195351	0.446575	0.561031
H38	H	1.192573	0.329400	0.418641
H39	H	1.255774	0.264326	0.726053
H40	H	1.252919	0.147302	0.583531
H41	H	1.587196	-0.246539	-0.206487
H42	H	1.587157	-0.246787	0.206741
H43	H	1.364191	-0.378420	-0.206495
H44	H	1.407476	0.257563	0.411957
O45	O	1.636683	0.021796	0.351885
C46	C	1.707278	-0.199401	0.307860
C47	C	1.615144	-0.104669	0.386680
H48	H	1.689914	-0.301668	0.335984
H49	H	1.692735	-0.184572	0.193494
H50	H	1.807465	-0.182082	0.335820
H51	H	1.514921	-0.121930	0.358834
H52	H	1.629797	-0.119520	0.501026
O53	O	1.711863	-0.428676	0.000385
C54	C	1.909468	-0.459879	0.118618
C55	C	1.775184	-0.393009	0.118444
H56	H	1.960710	-0.431046	0.214045
H57	H	1.905833	-0.568139	0.117800
H58	H	1.961304	-0.429886	0.024071
H59	H	1.723270	-0.422898	0.212976
H60	H	1.778909	-0.284762	0.119192
O61	O	1.059081	0.076714	-0.000236
C62	C	0.927903	-0.061747	-0.117785
C63	C	0.984474	0.067780	-0.117699
H64	H	0.867550	-0.069000	-0.212728
H65	H	1.006531	-0.143001	-0.117870
H66	H	0.867676	-0.069093	-0.022749
H67	H	1.044688	0.075252	-0.212718
H68	H	0.905785	0.148973	-0.117542
O69	O	1.239720	-0.196095	0.000367
C70	C	1.042201	-0.164389	0.118731
C71	C	1.176364	-0.231561	0.118495
H72	H	0.990930	-0.193059	0.214213
H73	H	1.046081	-0.056163	0.117846
H74	H	0.990240	-0.194289	0.024241
H75	H	1.228402	-0.201766	0.212970
H76	H	1.172394	-0.339774	0.119310
H77	H	1.623676	0.035479	0.636870
H78	H	1.076055	0.395567	0.000001
H79	H	1.364151	-0.378494	0.206530
