data_functionalizedCrystal
_audit_creation_method	'MofGen! by Chris Wilmer'
_symmetry_space_group_name_H-M	'P1'
_symmetry_Int_Tables_number	1
_symmetry_cell_setting	triclinic
loop_
_symmetry_equiv_pos_as_xyz
  x,y,z
_cell_length_a	17.699077
_cell_length_b	16.974813
_cell_length_c	16.776229
_cell_angle_alpha	86.338786
_cell_angle_beta	89.993415
_cell_angle_gamma	83.338069
loop_
_atom_site_label
_atom_site_type_symbol
_atom_site_fract_x
_atom_site_fract_y
_atom_site_fract_z
O1	O	1.004154	0.099970	-0.072725
O2	O	0.783784	0.112984	-0.073568
O3	O	0.900112	-0.008639	-0.065717
O4	O	0.887826	0.221592	-0.080577
O5	O	0.900096	-0.008646	0.066860
O6	O	0.783769	0.112976	0.059009
O7	O	1.004138	0.099962	0.059852
Zn8	Zn	0.893951	0.106468	0.080480
Zn9	Zn	0.893971	0.106478	-0.094196
O10	O	0.887810	0.221585	0.052000
C11	C	0.755579	0.112514	-0.007250
C12	C	0.671560	0.111118	-0.007162
C13	C	0.632083	0.110456	0.065149
C14	C	0.553140	0.109131	0.065236
C15	C	0.513673	0.108474	-0.006990
C16	C	0.553155	0.109134	-0.079307
C17	C	0.632098	0.110453	-0.079392
C18	C	0.234788	0.103813	-0.078965
C19	C	0.155840	0.102496	-0.078874
C20	C	0.155830	0.102491	0.065663
C21	C	0.234773	0.103810	0.065578
C22	C	0.274248	0.104465	-0.006738
C23	C	0.359848	0.105900	-0.006831
C24	C	0.428074	0.107045	-0.006899
C25	C	0.899637	-0.038100	0.002471
C26	C	0.898235	-0.125875	0.008131
C27	C	0.897586	-0.167103	-0.061477
C28	C	0.896264	-0.249575	-0.056157
C29	C	0.895595	-0.290819	0.018773
C30	C	0.896242	-0.249585	0.088386
C31	C	0.897559	-0.167113	0.083065
C32	C	0.891651	-0.537474	0.042437
C33	C	0.890336	-0.619951	0.047754
C34	C	0.890357	-0.619936	-0.096790
C35	C	0.891678	-0.537463	-0.102105
C36	C	0.892321	-0.496236	-0.032491
N37	N	0.894246	-0.375120	0.024213
N38	N	0.893664	-0.411936	-0.037933
C39	C	1.032343	0.100431	-0.006468
C40	C	1.116363	0.101828	-0.006562
C41	C	0.888286	0.251046	-0.016189
C42	C	0.889688	0.338820	-0.021855
N43	N	0.893943	0.106461	0.199691
N44	N	0.893986	0.106479	-0.213408
C45	C	0.945468	0.052628	0.244884
C46	C	0.945472	0.052628	0.328336
C47	C	0.893954	0.106464	0.366594
C48	C	0.842423	0.160299	0.321396
C49	C	0.842416	0.160295	0.237945
C50	C	0.842450	0.160314	0.657942
C51	C	0.842463	0.160316	0.741398
C52	C	0.945507	0.052647	0.748332
C53	C	0.945500	0.052643	0.664882
C54	C	0.893966	0.106475	0.619691
C55	C	0.893962	0.106474	0.529203
C56	C	0.893962	0.106469	0.457080
H57	H	0.266902	0.104349	0.124391
H58	H	0.664239	0.110994	-0.138275
O59	O	0.792433	0.212540	0.613931
C60	C	0.746792	0.260311	0.482297
C61	C	0.803462	0.201102	0.532048
H62	H	0.755699	0.251096	0.416085
H63	H	0.686166	0.250101	0.499318
H64	H	0.756592	0.323618	0.494665
H65	H	0.793732	0.137773	0.519707
H66	H	0.864068	0.211382	0.515019
H67	H	0.987428	0.008793	0.365131
O68	O	0.895702	-0.289511	-0.123853
C69	C	0.895893	-0.280796	-0.267781
C70	C	0.896529	-0.235472	-0.191176
H71	H	0.896545	-0.237124	-0.322231
H72	H	0.948243	-0.326713	-0.268453
H73	H	0.842359	-0.312109	-0.269365
H74	H	0.950028	-0.204112	-0.189540
H75	H	0.844143	-0.189601	-0.190534
O76	O	0.670305	0.111056	0.135385
C77	C	0.661949	0.110951	0.278757
C78	C	0.618574	0.110255	0.199273
H79	H	0.620141	0.110321	0.330430
H80	H	0.705876	0.056241	0.285956
H81	H	0.691943	0.166870	0.278721
H82	H	0.588535	0.054374	0.199253
H83	H	0.574690	0.165003	0.192105
H84	H	0.895693	-0.283172	0.149395
H85	H	0.892224	-0.503888	-0.163120
O86	O	0.792306	0.212532	0.778534
C87	C	0.660659	0.259054	0.801065
C88	C	0.717373	0.199868	0.758977
H89	H	0.600064	0.248847	0.785256
H90	H	0.669455	0.249810	0.868481
H91	H	0.670481	0.322369	0.780572
H92	H	0.707586	0.136530	0.779405
H93	H	0.708564	0.209181	0.691568
H94	H	0.800472	0.204131	0.352550
O95	O	0.514692	0.108586	0.135419
C96	C	0.416923	0.175572	0.214999
C97	C	0.460395	0.176285	0.135473
H98	H	0.373025	0.230309	0.215077
H99	H	0.386903	0.119672	0.222225
H100	H	0.458704	0.176231	0.266600
H101	H	0.418665	0.175655	0.083826
H102	H	0.490427	0.232181	0.128318
O103	O	0.792337	0.212667	0.194161
C104	C	0.690098	0.319432	0.196087
C105	C	0.746787	0.260178	0.245766
H106	H	0.653245	0.357849	0.237790
H107	H	0.722686	0.358943	0.154476
H108	H	0.652359	0.285324	0.159211
H109	H	0.784541	0.294221	0.282690
H110	H	0.714151	0.220668	0.287327
O111	O	0.889611	-0.659889	-0.164460
C112	C	0.823620	-0.676063	-0.286911
C113	C	0.824394	-0.630740	-0.210316
H114	H	0.770890	-0.652525	-0.323999
H115	H	0.876781	-0.667176	-0.323197
H116	H	0.822594	-0.742090	-0.270209
H117	H	0.825394	-0.564698	-0.226947
H118	H	0.771237	-0.639693	-0.174051
H119	H	0.889788	-0.653529	0.108773
H120	H	0.266920	0.104344	-0.137849
H121	H	0.123680	0.101953	0.124546
O122	O	0.898123	-0.126946	-0.134224
C123	C	0.834028	-0.024794	-0.224724
C124	C	0.833346	-0.070190	-0.142303
H125	H	0.781654	0.021091	-0.231289
H126	H	0.887547	0.006544	-0.230390
H127	H	0.833367	-0.068457	-0.273538
H128	H	0.833980	-0.026580	-0.093440
H129	H	0.779832	-0.101541	-0.136705
H130	H	0.892189	-0.503918	0.099122
H131	H	0.123708	0.101960	-0.137693
O132	O	0.898212	-0.127187	0.150762
C133	C	0.897982	-0.135891	0.294689
C134	C	0.897270	-0.181208	0.218085
H135	H	0.897204	-0.179545	0.349139
H136	H	0.951546	-0.104634	0.296354
H137	H	0.845663	-0.089929	0.295280
H138	H	0.949552	-0.227208	0.217443
H139	H	0.843671	-0.212411	0.216451
H140	H	0.987453	0.008807	0.633735
H141	H	0.521016	0.108593	-0.138114
H142	H	0.987424	0.008792	0.213739
H143	H	0.987466	0.008811	0.785136
