data_functionalizedCrystal
_audit_creation_method	'MofGen! by Chris Wilmer'
_symmetry_space_group_name_H-M	'P1'
_symmetry_Int_Tables_number	1
_symmetry_cell_setting	triclinic
loop_
_symmetry_equiv_pos_as_xyz
  x,y,z
_cell_length_a	11.026660
_cell_length_b	11.026607
_cell_length_c	9.130313
_cell_angle_alpha	90.000037
_cell_angle_beta	89.999618
_cell_angle_gamma	108.585426
loop_
_atom_site_label
_atom_site_type_symbol
_atom_site_fract_x
_atom_site_fract_y
_atom_site_fract_z
O1	O	1.726711	0.533598	-0.121801
O2	O	2.226711	1.033598	0.378199
O3	O	1.360134	0.472838	-0.121802
O4	O	1.860134	0.972838	0.378198
O5	O	1.513041	0.319928	-0.121796
O6	O	2.013041	0.819928	0.378204
O7	O	1.573804	0.686507	-0.121806
O8	O	2.073804	1.186507	0.378194
O9	O	1.513039	0.319933	0.121803
O10	O	2.013039	0.819933	0.621803
O11	O	1.360132	0.472843	0.121797
O12	O	1.860132	0.972843	0.621797
O13	O	1.726709	0.533602	0.121798
O14	O	2.226709	1.033602	0.621798
Cu15	Cu	1.543421	0.503223	0.144040
Cu16	Cu	2.043421	1.003223	0.644040
Cu17	Cu	1.543422	0.503217	-0.144044
Cu18	Cu	2.043422	1.003217	0.355956
O19	O	1.573802	0.686512	0.121792
O20	O	2.073802	1.186512	0.621792
C21	C	1.312474	0.461631	-0.000003
C22	C	1.812474	0.961631	0.499997
C23	C	1.170461	0.428216	-0.000003
C24	C	1.670461	0.928216	0.499997
C25	C	0.970035	0.485957	-0.000009
C26	C	1.470035	0.985957	0.499991
C27	C	1.116813	0.520496	-0.000007
C28	C	1.616813	1.020496	0.499993
C29	C	1.501830	0.272271	0.000002
C30	C	2.001830	0.772271	0.500002
C31	C	1.468414	0.130257	-0.000004
C32	C	1.968414	0.630257	0.499996
C33	C	1.560682	0.076607	-0.000005
C34	C	2.060682	0.576607	0.499995
C35	C	1.526147	-0.070171	-0.000011
C36	C	2.026147	0.429829	0.499989
C37	C	1.774369	0.544809	-0.000004
C38	C	2.274369	1.044809	0.499996
C39	C	1.916382	0.578225	-0.000013
C40	C	2.416382	1.078225	0.499987
C41	C	1.585013	0.734169	-0.000008
C42	C	2.085013	1.234169	0.499992
C43	C	1.618429	0.876183	-0.000013
C44	C	2.118429	1.376183	0.499987
N45	N	1.543429	0.503228	0.346663
N46	N	2.043429	1.003228	0.846663
N47	N	1.543422	0.503204	-0.346666
N48	N	2.043422	1.003204	0.153334
C49	C	1.611164	0.435554	0.423317
C50	C	2.111164	0.935554	0.923317
C51	C	1.611158	0.435538	0.576654
C52	C	2.111158	0.935538	1.076654
C53	C	1.475678	0.570881	0.576668
C54	C	1.975678	1.070881	1.076668
C55	C	1.475678	0.570889	0.423334
C56	C	1.975678	1.070889	0.923334
C57	C	1.689387	0.357419	0.423310
C58	C	2.189387	0.857419	0.923310
C59	C	1.689380	0.357403	0.576647
C60	C	2.189380	0.857403	1.076647
H61	H	1.107737	0.323645	-0.000098
H62	H	1.607737	0.823645	0.499902
Br63	Br	1.734966	0.181152	-0.000020
Br64	Br	2.234966	0.681152	0.499980
H65	H	1.639062	0.258519	0.624197
H66	H	2.139062	0.758519	1.124197
Br67	Br	1.294130	0.025713	-0.000026
Br68	Br	1.794130	0.525713	0.499974
H69	H	1.421578	-0.132899	-0.000021
H70	H	1.921578	0.367101	0.499979
H71	H	1.722999	-0.061091	-0.000122
H72	H	2.222999	0.438909	0.499878
H73	H	1.647125	0.255087	0.381693
H74	H	2.147125	0.755087	0.881693
Br75	Br	1.383724	0.662708	0.319299
Br76	Br	1.883724	1.162708	0.819299
H77	H	1.420516	0.625967	0.639111
H78	H	1.920516	1.125967	1.139111
Br79	Br	1.854151	0.441417	0.344027
Br80	Br	2.354151	0.941417	0.844027
Br81	Br	1.859924	0.427943	0.646025
Br82	Br	2.359924	0.927943	1.146025
H83	H	1.179538	0.625067	-0.000001
H84	H	1.679538	1.125067	0.499999
Br85	Br	0.865494	0.311672	0.000010
Br86	Br	1.365494	0.811672	0.500010
H87	H	0.979112	0.682788	-0.000007
H88	H	1.479112	1.182788	0.499993
