data_functionalizedCrystal
_audit_creation_method	'MofGen! by Chris Wilmer'
_symmetry_space_group_name_H-M	'P1'
_symmetry_Int_Tables_number	1
_symmetry_cell_setting	triclinic
loop_
_symmetry_equiv_pos_as_xyz
  x,y,z
_cell_length_a	13.032831
_cell_length_b	16.959454
_cell_length_c	13.034356
_cell_angle_alpha	97.208019
_cell_angle_beta	105.184960
_cell_angle_gamma	82.825094
loop_
_atom_site_label
_atom_site_type_symbol
_atom_site_fract_x
_atom_site_fract_y
_atom_site_fract_z
Zn1	Zn	1.700172	-0.400712	0.806468
Zn2	Zn	1.677480	-0.547793	0.628847
Zn3	Zn	1.499977	-0.400719	0.606350
Zn4	Zn	1.522511	-0.517930	0.783898
O5	O	1.600035	-0.466789	0.706391
O6	O	1.845799	-0.432717	0.801767
O7	O	1.635006	-0.540784	0.477224
O8	O	1.526600	-0.290110	0.632927
O9	O	1.829127	-0.540777	0.671270
O10	O	1.673682	-0.290105	0.779952
O11	O	1.504596	-0.432729	0.460695
O12	O	1.354329	-0.403772	0.611042
O13	O	1.565006	-0.489881	0.935532
O14	O	1.370885	-0.489887	0.741486
O15	O	1.695533	-0.403761	0.952113
O16	O	1.656857	-0.654439	0.649385
O17	O	1.543002	-0.632499	0.763300
C18	C	1.324067	-0.443591	0.671374
C19	C	1.206010	-0.433683	0.656419
C20	C	1.161583	-0.471959	0.714196
C21	C	1.039565	-0.461721	0.698741
C22	C	1.599944	-0.672149	0.706362
C23	C	1.600006	-0.760008	0.706397
C24	C	1.540849	-1.120102	0.765712
C25	C	1.659531	-1.142888	0.647216
C26	C	1.659493	-1.060340	0.647201
C27	C	1.600130	-1.007669	0.706442
C28	C	1.540806	-1.037546	0.765697
C29	C	1.718808	-1.030457	0.587939
C30	C	1.718771	-0.947904	0.587921
C31	C	1.659413	-0.895231	0.647168
C32	C	1.600087	-0.925112	0.706427
C33	C	1.540725	-0.872441	0.765667
C34	C	1.481404	-0.902321	0.824932
C35	C	1.481448	-0.984873	0.824944
C36	C	1.659369	-0.812679	0.647156
C37	C	1.540682	-0.789885	0.765652
C38	C	1.877081	-0.490078	0.741545
C39	C	1.995141	-0.500002	0.756526
C40	C	1.635314	-0.443489	0.983440
C41	C	1.650348	-0.433560	1.101502
C42	C	1.600159	-0.260627	0.706447
C43	C	1.600211	-0.172773	0.706471
C44	C	1.564954	-0.489946	0.430427
C45	C	1.550126	-0.499669	0.312392
C46	C	1.608004	-0.461486	1.267957
C47	C	1.592463	-0.471748	1.145934
H48	H	1.153712	-0.393330	0.595517
O49	O	1.064403	-0.553449	0.837220
H50	H	1.040814	-0.615237	0.816197
O51	O	1.511555	-0.525102	1.076682
H52	H	1.532403	-0.586899	1.100193
H53	H	1.711412	-0.393272	1.153793
O54	O	1.723561	-1.199683	0.583318
H55	H	1.809225	-1.189242	0.612182
O56	O	1.476640	-0.733075	0.829534
H57	H	1.435392	-0.767723	0.870732
O58	O	1.469241	-0.553034	1.243135
H59	H	1.469721	-0.552714	1.158160
H60	H	1.213881	-0.512306	0.775107
H61	H	1.433065	-0.859427	0.873161
H62	H	1.669064	-0.421203	1.320253
H63	H	0.987271	-0.421365	0.637834
O64	O	1.782766	-0.915678	0.524020
H65	H	1.754020	-0.937035	0.438339
O66	O	1.417447	-1.017098	0.888838
H67	H	1.427435	-1.083350	0.878878
H68	H	1.492555	-1.144434	0.813967
H69	H	1.767129	-1.073347	0.539700
H70	H	1.707661	-0.788355	0.598898
