data_functionalizedCrystal
_audit_creation_method	'MofGen! by Chris Wilmer'
_symmetry_space_group_name_H-M	'P1'
_symmetry_Int_Tables_number	1
_symmetry_cell_setting	triclinic
loop_
_symmetry_equiv_pos_as_xyz
  x,y,z
_cell_length_a	12.759395
_cell_length_b	16.625545
_cell_length_c	12.759387
_cell_angle_alpha	90.033397
_cell_angle_beta	89.979491
_cell_angle_gamma	89.974426
loop_
_atom_site_label
_atom_site_type_symbol
_atom_site_fract_x
_atom_site_fract_y
_atom_site_fract_z
Zn1	Zn	1.606201	0.320926	-0.593986
Zn2	Zn	2.106201	0.820926	-0.093986
Zn3	Zn	1.606063	0.455781	-0.418299
Zn4	Zn	2.106063	0.955781	0.081701
Zn5	Zn	1.430499	0.320970	-0.418323
Zn6	Zn	1.930499	0.820970	0.081677
Zn7	Zn	1.430462	0.455724	-0.593938
Zn8	Zn	1.930462	0.955724	-0.093938
O9	O	1.518306	0.388350	-0.506136
O10	O	2.018306	0.888350	-0.006136
O11	O	1.753203	0.338820	-0.570691
O12	O	2.253203	0.838820	-0.070691
O13	O	1.582731	0.437941	-0.271281
O14	O	2.082731	0.937941	0.228719
O15	O	1.453879	0.208132	-0.441656
O16	O	1.953879	0.708132	0.058344
O17	O	1.753102	0.437898	-0.441614
O18	O	2.253102	0.937898	0.058386
O19	O	1.582966	0.208099	-0.570714
O20	O	2.082966	0.708099	-0.070714
O21	O	1.453745	0.338895	-0.271299
O22	O	1.953745	0.838895	0.228701
O23	O	1.283473	0.338840	-0.441609
O24	O	1.783473	0.838840	0.058391
O25	O	1.453817	0.437800	-0.740965
O26	O	1.953817	0.937800	-0.240965
O27	O	1.283446	0.437843	-0.570632
O28	O	1.783446	0.937843	-0.070632
O29	O	1.582931	0.338765	-0.741001
O30	O	2.082931	0.838765	-0.241001
O31	O	1.582696	0.568606	-0.441567
O32	O	2.082696	1.068606	0.058433
O33	O	1.453683	0.568564	-0.570608
O34	O	1.953683	1.068564	-0.070608
C35	C	1.245339	0.388341	-0.506118
C36	C	1.745339	0.888341	-0.006118
C37	C	1.128562	0.388356	-0.506135
C38	C	1.628562	0.888356	-0.006135
C39	C	1.518199	0.597841	-0.506103
C40	C	2.018199	1.097841	-0.006103
C41	C	1.518250	0.687462	-0.506123
C42	C	2.018250	1.187462	-0.006123
C43	C	1.128573	0.491615	-0.640270
C44	C	1.628573	0.991615	-0.140270
C45	C	1.073717	0.543250	-0.707340
C46	C	1.573717	1.043250	-0.207340
C47	C	0.963996	0.543260	-0.707353
C48	C	1.463996	1.043260	-0.207353
C49	C	0.909127	0.491627	-0.640291
C50	C	1.409127	0.991627	-0.140291
C51	C	0.963982	0.439991	-0.573221
C52	C	1.463982	0.939991	-0.073221
C53	C	1.073706	0.439989	-0.573213
C54	C	1.573706	0.939989	-0.073213
C55	C	0.963972	0.336730	-0.439093
C56	C	1.463972	0.836730	0.060907
C57	C	1.073693	0.336723	-0.439073
C58	C	1.573693	0.836723	0.060927
C59	C	0.909103	0.285096	-0.372030
C60	C	1.409103	0.785096	0.127970
C61	C	0.963958	0.233463	-0.304953
C62	C	1.463958	0.733463	0.195047
C63	C	1.073686	0.233456	-0.304942
C64	C	1.573686	0.733456	0.195058
C65	C	1.128549	0.285087	-0.372003
C66	C	1.628549	0.785087	0.127997
C67	C	1.518421	1.015638	-0.506249
C68	C	2.018421	1.515638	-0.006249
C69	C	1.518370	0.924329	-0.506217
C70	C	2.018370	1.424329	-0.006217
C71	C	1.518334	0.851553	-0.506186
C72	C	2.018334	1.351553	-0.006186
C73	C	1.518285	0.760239	-0.506155
C74	C	2.018285	1.260239	-0.006155
C75	C	1.792339	0.388361	-0.506155
C76	C	2.292339	0.888361	-0.006155
C77	C	1.909116	0.388365	-0.506163
C78	C	2.409116	0.888365	-0.006163
C79	C	1.518385	0.388271	-0.780170
C80	C	2.018385	0.888271	-0.280170
C81	C	1.518419	0.388238	-0.896947
C82	C	2.018419	0.888238	-0.396947
C83	C	1.518433	1.178041	-0.506205
C84	C	2.018433	1.678041	-0.006205
C85	C	1.518464	1.088420	-0.506267
C86	C	2.018464	1.588420	-0.006267
C87	C	1.652875	0.285119	-0.897004
C88	C	2.152875	0.785119	-0.397004
C89	C	1.720117	0.233547	-0.951893
C90	C	2.220117	0.733547	-0.451893
C91	C	1.720143	0.233518	-1.061614
C92	C	2.220143	0.733518	-0.561614
C93	C	1.652916	0.285064	-1.116449
C94	C	2.152916	0.785064	-0.616449
C95	C	1.585674	0.336635	-1.061560
C96	C	2.085674	0.836635	-0.561560
C97	C	1.585658	0.336661	-0.951836
C98	C	2.085658	0.836661	-0.451836
C99	C	1.451215	0.439749	-1.061503
C100	C	1.951215	0.939749	-0.561503
C101	C	1.451193	0.439784	-0.951782
C102	C	1.951193	0.939784	-0.451782
C103	C	1.383988	0.491295	-1.116338
C104	C	1.883988	0.991295	-0.616338
C105	C	1.316750	0.542872	-1.061449
C106	C	1.816750	1.042872	-0.561449
C107	C	1.316728	0.542900	-0.951721
C108	C	1.816728	1.042900	-0.451721
C109	C	1.383950	0.491355	-0.896892
C110	C	1.883950	0.991355	-0.396892
C111	C	1.518287	0.388371	-0.233169
C112	C	2.018287	0.888371	0.266831
C113	C	1.518457	0.388177	-0.116393
C114	C	2.018457	0.888177	0.383607
H115	H	1.217914	0.491618	-0.640259
H116	H	1.717914	0.991618	-0.140259
O117	O	1.132893	0.598921	-0.779696
O118	O	1.632893	1.098921	-0.279696
H119	H	1.218406	0.590241	-0.768426
H120	H	1.718406	1.090241	-0.268426
O121	O	0.904819	0.598998	-0.779628
O122	O	1.404819	1.098998	-0.279628
H123	H	0.961401	0.634920	-0.826233
H124	H	1.461401	1.134920	-0.326233
O125	O	1.383935	0.491399	-0.778550
O126	O	1.883935	0.991399	-0.278550
H127	H	1.304699	0.475109	-0.749603
H128	H	1.804699	0.975109	-0.249603
O129	O	0.904763	0.177788	-0.232630
O130	O	1.404763	0.677788	0.267370
H131	H	0.925846	0.114519	-0.250794
H132	H	1.425846	0.614519	0.249206
O133	O	1.792623	0.177952	-0.892752
O134	O	2.292623	0.677952	-0.392752
H135	H	1.875072	0.191783	-0.913830
H136	H	2.375072	0.691783	-0.413830
O137	O	0.790784	0.491659	-0.640267
O138	O	1.290784	0.991659	-0.140267
H139	H	0.761858	0.536249	-0.698157
H140	H	1.261858	1.036249	-0.198157
O141	O	0.790760	0.285134	-0.371996
O142	O	1.290760	0.785134	0.128004
H143	H	0.761831	0.329730	-0.429877
H144	H	1.261831	0.829730	0.070123
H145	H	1.118343	0.191402	-0.250332
H146	H	1.618343	0.691402	0.249668
O147	O	1.244245	0.598456	-1.120596
O148	O	1.744245	1.098456	-0.620596
H149	H	1.197480	0.634322	-1.063998
H150	H	1.697480	1.134322	-0.563998
O151	O	1.246891	0.285086	-0.371986
O152	O	1.746891	0.785086	0.128014
H153	H	1.275866	0.224290	-0.393359
H154	H	1.775866	0.724290	0.106641
O155	O	1.652848	0.285155	-0.778661
O156	O	2.152848	0.785155	-0.278661
H157	H	1.710885	0.240648	-0.749752
H158	H	2.210885	0.740648	-0.249752
O159	O	1.384004	0.491264	-1.234681
O160	O	1.884004	0.991264	-0.734681
H161	H	1.463236	0.507571	-1.263622
H162	H	1.963236	1.007571	-0.763622
H163	H	1.774891	0.191519	-1.106305
H164	H	2.274891	0.691519	-0.606305
O165	O	1.652932	0.285030	-1.234792
O166	O	2.152932	0.785030	-0.734792
H167	H	1.710983	0.240510	-1.263748
H168	H	2.210983	0.740510	-0.763748
H169	H	1.261959	0.584887	-0.907036
H170	H	1.761959	1.084887	-0.407036
