data_functionalizedCrystal
_audit_creation_method	'MofGen! by Chris Wilmer'
_symmetry_space_group_name_H-M	'P1'
_symmetry_Int_Tables_number	1
_symmetry_cell_setting	triclinic
loop_
_symmetry_equiv_pos_as_xyz
  x,y,z
_cell_length_a	13.185408
_cell_length_b	10.540510
_cell_length_c	11.804365
_cell_angle_alpha	101.952739
_cell_angle_beta	82.233045
_cell_angle_gamma	68.243405
loop_
_atom_site_label
_atom_site_type_symbol
_atom_site_fract_x
_atom_site_fract_y
_atom_site_fract_z
O1	O	1.466188	-0.362868	-0.098945
O2	O	1.149682	-0.234543	-0.098963
O3	O	1.315173	-0.485964	-0.098954
O4	O	1.300697	-0.111448	-0.098955
O5	O	1.271605	-0.419826	0.099100
O6	O	1.106115	-0.168406	0.099090
O7	O	1.422620	-0.296731	0.099108
Cu8	Cu	1.260389	-0.226529	0.117183
Cu9	Cu	1.311913	-0.304745	-0.117038
O10	O	1.257130	-0.045310	0.099098
C11	C	1.087370	-0.188465	0.000061
C12	C	0.966610	-0.149717	0.000054
C13	C	0.897803	-0.011746	0.000051
C14	C	0.784338	0.024670	0.000061
C15	C	0.739672	-0.076885	0.000066
C16	C	0.808481	-0.214861	0.000060
C17	C	0.921955	-0.251278	0.000059
C18	C	0.763824	-0.316416	0.000074
C19	C	0.832633	-0.454393	0.000068
C20	C	0.946096	-0.490803	0.000066
C21	C	0.990762	-0.389248	0.000062
C22	C	0.650350	-0.280000	0.000075
C23	C	0.674502	-0.519531	0.000083
C24	C	0.787967	-0.555947	0.000073
C25	C	1.292311	-0.499819	0.000071
C26	C	1.289085	-0.639635	0.000063
C27	C	1.403951	-0.897428	0.000523
C28	C	1.407493	-0.752196	0.000071
C29	C	1.253350	-0.700813	-0.113036
C30	C	1.250766	-0.846687	-0.113125
C31	C	1.198755	-0.770416	0.112099
C32	C	1.204044	-0.625556	0.113588
C33	C	1.484933	-0.342810	0.000081
C34	C	1.605695	-0.381560	0.000080
C35	C	1.279992	-0.031455	0.000071
C36	C	1.283220	0.108358	0.000071
N37	N	1.224158	-0.171520	0.281921
N38	N	1.348153	-0.359767	-0.281777
C39	C	1.435157	-0.491888	0.655882
C40	C	1.462565	-0.533508	0.531222
C41	C	1.402965	-0.443014	0.468891
C42	C	1.315954	-0.310894	0.531232
C43	C	1.288549	-0.269266	0.655904
C44	C	1.256357	-0.220392	0.468913
C45	C	1.169346	-0.088272	0.531254
C46	C	1.141946	-0.046652	0.655914
C47	C	1.201545	-0.137145	0.718245
C48	C	1.283762	-0.262021	0.344240
C49	C	1.137154	-0.039399	0.344262
C50	C	1.109746	0.002221	0.468922
H51	H	1.002115	-0.603147	0.000077
H52	H	1.432240	-0.928545	0.081633
H53	H	1.116095	-0.543763	0.120412
Br54	Br	0.881363	-0.743195	0.000066
H55	H	1.437085	-0.712483	0.081144
Br56	Br	0.690962	0.211913	0.000065
Br57	Br	1.516773	-0.778042	-0.135284
Br58	Br	0.958424	0.126064	0.000056
Br59	Br	1.144759	-0.438670	0.000035
H60	H	1.088624	0.034291	0.293513
H61	H	1.313959	-0.712888	-0.197199
Br62	Br	0.613891	-0.657360	0.000102
H63	H	1.217526	-0.797222	0.197828
H64	H	1.229744	-0.584537	0.197258
Br65	Br	1.509972	-1.041750	-0.133888
Br66	Br	1.516047	-0.614678	0.740474
Br67	Br	0.585682	-0.027462	0.000077
Br68	Br	1.350809	-0.985094	-0.254023
H69	H	1.109686	-0.761002	0.112856
Br70	Br	1.105045	-0.835898	-0.121695
H71	H	1.167105	-0.624129	-0.117246
Br72	Br	1.164339	-0.080663	0.887434
Br73	Br	1.401845	-0.441318	0.259650
H74	H	1.425284	-0.476907	0.367387
H75	H	1.533409	-0.641077	0.480469
Br76	Br	0.991661	0.181521	0.553539
Br77	Br	1.023876	0.132665	0.740523
H78	H	0.594335	-0.167657	0.000081
