data_functionalizedCrystal
_audit_creation_method	'MofGen! by Chris Wilmer'
_symmetry_space_group_name_H-M	'P1'
_symmetry_Int_Tables_number	1
_symmetry_cell_setting	triclinic
loop_
_symmetry_equiv_pos_as_xyz
  x,y,z
_cell_length_a	21.295417
_cell_length_b	21.295418
_cell_length_c	21.295411
_cell_angle_alpha	89.952143
_cell_angle_beta	90.020597
_cell_angle_gamma	89.952090
loop_
_atom_site_label
_atom_site_type_symbol
_atom_site_fract_x
_atom_site_fract_y
_atom_site_fract_z
Zn1	Zn	-0.250375	-0.962359	0.356307
Zn2	Zn	0.082958	-0.629026	0.689641
Zn3	Zn	0.416292	-0.295693	1.022974
Zn4	Zn	-0.355627	-0.962263	0.251035
Zn5	Zn	-0.022293	-0.628930	0.584368
Zn6	Zn	0.311040	-0.295597	0.917701
Zn7	Zn	-0.250409	-0.857083	0.251010
Zn8	Zn	0.082924	-0.523749	0.584343
Zn9	Zn	0.416258	-0.190416	0.917676
Zn10	Zn	-0.355644	-0.857053	0.356224
Zn11	Zn	-0.022310	-0.523720	0.689557
Zn12	Zn	0.311023	-0.190387	1.022890
O13	O	-0.303014	-0.909690	0.303644
O14	O	0.030320	-0.576356	0.636977
O15	O	0.363653	-0.243023	0.970310
O16	O	-0.264316	-1.050436	0.342388
O17	O	0.069018	-0.717103	0.675722
O18	O	0.402351	-0.383769	1.009055
O19	O	-0.341677	-0.948283	0.162942
O20	O	-0.008343	-0.614949	0.496275
O21	O	0.324990	-0.281616	0.829609
O22	O	-0.162315	-0.871100	0.265002
O23	O	0.171018	-0.537767	0.598335
O24	O	0.504352	-0.204434	0.931669
O25	O	-0.341644	-1.050365	0.265045
O26	O	-0.008310	-0.717032	0.598378
O27	O	0.325023	-0.383699	0.931712
O28	O	-0.162290	-0.948447	0.342364
O29	O	0.171043	-0.615113	0.675697
O30	O	0.504377	-0.281780	1.009031
O31	O	-0.264373	-0.871007	0.162924
O32	O	0.068960	-0.537674	0.496257
O33	O	0.402293	-0.204340	0.829590
O34	O	-0.264390	-0.768989	0.264921
O35	O	0.068944	-0.435656	0.598254
O36	O	0.402277	-0.102323	0.931588
O37	O	-0.341672	-0.871051	0.444324
O38	O	-0.008339	-0.537717	0.777657
O39	O	0.324994	-0.204384	1.110991
O40	O	-0.341705	-0.768968	0.342221
O41	O	-0.008372	-0.435635	0.675555
O42	O	0.324961	-0.102301	1.008888
O43	O	-0.264332	-0.948418	0.444386
O44	O	0.069001	-0.615085	0.777719
O45	O	0.402335	-0.281752	1.111052
O46	O	-0.443718	-0.948255	0.264964
O47	O	-0.110385	-0.614921	0.598297
O48	O	0.222948	-0.281588	0.931630
O49	O	-0.443731	-0.870957	0.342245
O50	O	-0.110398	-0.537624	0.675579
O51	O	0.222936	-0.204291	1.008912
C52	C	-0.303054	-0.746138	0.303560
C53	C	0.030280	-0.412805	0.636893
C54	C	0.363613	-0.079471	0.970226
C55	C	-0.303086	-0.676170	0.303538
C56	C	0.030248	-0.342837	0.636872
C57	C	0.363581	-0.009503	0.970205
C58	C	-0.343399	-0.643309	0.343726
C59	C	-0.010065	-0.309975	0.677060
C60	C	0.323268	0.023358	1.010393
C61	C	-0.343386	-0.577566	0.343750
C62	C	-0.010053	-0.244233	0.677083
C63	C	0.323281	0.089101	1.010416
C64	C	-0.303067	-0.544687	0.303574
C65	C	0.030266	-0.211354	0.636908
C66	C	0.363600	0.121979	0.970241
C67	C	-0.262746	-0.577557	0.263384
C68	C	0.070587	-0.244223	0.596717
C69	C	0.403920	0.089110	0.930050
C70	C	-0.262756	-0.643298	0.263366
C71	C	0.070578	-0.309965	0.596699
C72	C	0.403911	0.023369	0.930033
N73	N	-0.298144	-0.441411	0.248509
N74	N	0.035189	-0.108078	0.581843
N75	N	0.368523	0.225255	0.915176
N76	N	-0.298139	-0.378960	0.248528
N77	N	0.035194	-0.045627	0.581861
N78	N	0.368528	0.287707	0.915195
C79	C	-0.303035	-0.346613	0.303627
C80	C	0.030298	-0.013279	0.636960
C81	C	0.363632	0.320054	0.970294
N82	N	-0.307949	-0.379076	0.358707
N83	N	0.025384	-0.045743	0.692041
N84	N	0.358718	0.287590	1.025374
N85	N	-0.307958	-0.441533	0.358688
N86	N	0.025376	-0.108200	0.692021
N87	N	0.358709	0.225133	1.025355
C88	C	-0.303052	-0.473402	0.303590
C89	C	0.030281	-0.140069	0.636923
C90	C	0.363615	0.193265	0.970256
C91	C	-0.343336	-0.242466	0.343843
C92	C	-0.010003	0.090867	0.677177
C93	C	0.323330	0.424201	1.010510
C94	C	-0.343319	-0.176722	0.343868
C95	C	-0.009986	0.156611	0.677201
C96	C	0.323348	0.489945	1.010535
C97	C	-0.262683	-0.176714	0.263497
C98	C	0.070651	0.156619	0.596830
C99	C	0.403984	0.489953	0.930163
C100	C	-0.262696	-0.242456	0.263478
C101	C	0.070637	0.090877	0.596811
C102	C	0.403970	0.424210	0.930144
C103	C	-0.303027	-0.275328	0.303650
C104	C	0.030307	0.058005	0.636983
C105	C	0.363640	0.391338	0.970317
C106	C	-0.466565	-0.909609	0.303612
C107	C	-0.133232	-0.576276	0.636945
C108	C	0.200101	-0.242943	0.970279
C109	C	-0.536533	-0.909633	0.303619
C110	C	-0.203200	-0.576299	0.636953
C111	C	0.130133	-0.242966	0.970286
C112	C	-0.569330	-0.949884	0.343930
C113	C	-0.235997	-0.616551	0.677264
C114	C	0.097337	-0.283217	1.010597
C115	C	-0.635072	-0.949906	0.343946
C116	C	-0.301739	-0.616573	0.677279
C117	C	0.031594	-0.283240	1.010613
C118	C	-0.668016	-0.909684	0.303639
C119	C	-0.334682	-0.576350	0.636973
C120	C	-0.001349	-0.243017	0.970306
C121	C	-0.635211	-0.869425	0.263325
C122	C	-0.301878	-0.536091	0.596659
C123	C	0.031455	-0.202758	0.929992
C124	C	-0.569470	-0.869399	0.263315
C125	C	-0.236137	-0.536066	0.596649
C126	C	0.097197	-0.202732	0.929982
N127	N	-0.771270	-0.904924	0.248546
N128	N	-0.437936	-0.571591	0.581880
N129	N	-0.104603	-0.238258	0.915213
N130	N	-0.833721	-0.904952	0.248557
N131	N	-0.500388	-0.571619	0.581891
N132	N	-0.167054	-0.238286	0.915224
C133	C	-0.866090	-0.909757	0.303668
C134	C	-0.532757	-0.576424	0.637001
C135	C	-0.199424	-0.243091	0.970334
N136	N	-0.833649	-0.914546	0.358767
N137	N	-0.500316	-0.581212	0.692101
N138	N	-0.166983	-0.247879	1.025434
N139	N	-0.771192	-0.914521	0.358755
N140	N	-0.437859	-0.581188	0.692089
N141	N	-0.104525	-0.247854	1.025422
C142	C	-0.739301	-0.909707	0.303646
C143	C	-0.405968	-0.576373	0.636979
C144	C	-0.072635	-0.243040	0.970312
C145	C	-0.970173	-0.950035	0.343999
C146	C	-0.636839	-0.616701	0.677332
C147	C	-0.303506	-0.283368	1.010666
C148	C	-1.035916	-0.950053	0.344016
C149	C	-0.702583	-0.616719	0.677349
C150	C	-0.369250	-0.283386	1.010682
C151	C	-1.036054	-0.869574	0.263389
C152	C	-0.702721	-0.536241	0.596723
C153	C	-0.369387	-0.202908	0.930056
C154	C	-0.970312	-0.869553	0.263378
C155	C	-0.636978	-0.536220	0.596712
C156	C	-0.303645	-0.202887	0.930045
C157	C	-0.937375	-0.909787	0.303682
C158	C	-0.604041	-0.576453	0.637016
C159	C	-0.270708	-0.243120	0.970349
C160	C	-0.138823	-0.909787	0.303690
C161	C	0.194510	-0.576454	0.637023
C162	C	0.527843	-0.243121	0.970356
C163	C	-0.068855	-0.909829	0.303709
C164	C	0.264478	-0.576496	0.637042
C165	C	0.597812	-0.243162	0.970376
C166	C	-0.303000	-0.909742	0.467834
C167	C	0.030333	-0.576409	0.801167
C168	C	0.363666	-0.243075	1.134501
C169	C	-0.302995	-0.909764	0.537802
C170	C	0.030339	-0.576431	0.871136
C171	C	0.363672	-0.243098	1.204469
C172	C	-0.302984	-0.073880	0.303711
C173	C	0.030349	0.259453	0.637044
C174	C	0.363682	0.592787	0.970377
C175	C	-0.302999	-0.143848	0.303693
C176	C	0.030334	0.189485	0.637026
C177	C	0.363668	0.522819	0.970360
C178	C	-0.302981	-0.909674	0.140092
C179	C	0.030352	-0.576341	0.473426
C180	C	0.363685	-0.243007	0.806759
C181	C	-0.302810	-0.909774	0.070125
C182	C	0.030524	-0.576440	0.403458
C183	C	0.363857	-0.243107	0.736791
C184	C	-0.262722	-0.950048	0.570702
C185	C	0.070612	-0.616715	0.904035
C186	C	0.403945	-0.283381	1.237369
C187	C	-0.262694	-0.950047	0.636445
C188	C	0.070639	-0.616714	0.969778
C189	C	0.403972	-0.283380	1.303111
C190	C	-0.302951	-0.909769	0.669285
C191	C	0.030382	-0.576436	1.002618
C192	C	0.363715	-0.243102	1.335952
C193	C	-0.343227	-0.869478	0.636377
C194	C	-0.009894	-0.536144	0.969711
C195	C	0.323440	-0.202811	1.303044
C196	C	-0.343249	-0.869475	0.570636
C197	C	-0.009915	-0.536142	0.903969
C198	C	0.323418	-0.202808	1.237303
N199	N	-0.358021	-0.904913	0.772499
N200	N	-0.024687	-0.571580	1.105833
N201	N	0.308646	-0.238246	1.439166
N202	N	-0.357998	-0.904919	0.834951
N203	N	-0.024665	-0.571586	1.168284
N204	N	0.308668	-0.238252	1.501617
C205	C	-0.302887	-0.909773	0.867360
C206	C	0.030446	-0.576440	1.200693
C207	C	0.363779	-0.243106	1.534026
N208	N	-0.247799	-0.914633	0.834958
N209	N	0.085535	-0.581300	1.168291
N210	N	0.418868	-0.247966	1.501625
N211	N	-0.247822	-0.914630	0.772501
N212	N	0.085512	-0.581297	1.105834
N213	N	0.418845	-0.247964	1.439167
C214	C	-0.302932	-0.909767	0.740570
C215	C	0.030401	-0.576434	1.073904
C216	C	0.363735	-0.243100	1.407237
C217	C	-0.262581	-0.950058	0.971545
C218	C	0.070752	-0.616725	1.304878
C219	C	0.404085	-0.283391	1.638212
C220	C	-0.262553	-0.950053	1.037289
C221	C	0.070780	-0.616719	1.370622
C222	C	0.404114	-0.283386	1.703955
C223	C	-0.343092	-0.869487	1.037220
C224	C	-0.009758	-0.536153	1.370554
C225	C	0.323575	-0.202820	1.703887
C226	C	-0.343114	-0.869488	0.971478
C227	C	-0.009781	-0.536155	1.304811
C228	C	0.323552	-0.202822	1.638144
C229	C	-0.302860	-0.909778	0.938644
C230	C	0.030473	-0.576444	1.271977
C231	C	0.363807	-0.243111	1.605311
H232	H	-0.229851	-0.149945	0.230788
H233	H	0.103482	0.183388	0.564121
H234	H	0.436816	0.516722	0.897455
N235	N	-0.221450	-0.991194	0.938001
N236	N	0.111883	-0.657861	1.271334
N237	N	0.445216	-0.324528	1.604667
N238	N	-0.181357	-0.969065	0.901299
N239	N	0.151976	-0.635732	1.234633
N240	N	0.485310	-0.302399	1.567966
H241	H	-0.152307	-0.998117	0.877609
H242	H	0.181027	-0.664783	1.210943
H243	H	0.514360	-0.331450	1.544276
H244	H	-0.376213	-0.550805	0.376478
H245	H	-0.042880	-0.217472	0.709811
H246	H	0.290453	0.115862	1.043144
N247	N	-0.384382	-0.828325	0.537017
N248	N	-0.051049	-0.494992	0.870351
N249	N	0.282285	-0.161658	1.203684
N250	N	-0.362253	-0.788227	0.500299
N251	N	-0.028920	-0.454894	0.833633
N252	N	0.304414	-0.121561	1.166966
H253	H	-0.391303	-0.759164	0.476554
H254	H	-0.057970	-0.425831	0.809888
H255	H	0.275363	-0.092498	1.143221
H256	H	-0.229926	-0.670053	0.230640
H257	H	0.103407	-0.336720	0.563973
H258	H	0.436741	-0.003387	0.897307
N259	N	-0.668592	-0.991019	0.385122
N260	N	-0.335258	-0.657685	0.718455
N261	N	-0.001925	-0.324352	1.051789
N262	N	-0.705286	-0.968870	0.425210
N263	N	-0.371953	-0.635536	0.758544
N264	N	-0.038619	-0.302203	1.091877
H265	H	-0.728959	-0.997905	0.454291
H266	H	-0.395625	-0.664572	0.787624
H267	H	-0.062292	-0.331239	1.120957
N268	N	-0.221571	-0.543975	0.222336
N269	N	0.111762	-0.210642	0.555669
N270	N	0.445096	0.122692	0.889003
N271	N	-0.225662	-0.551250	0.164240
N272	N	0.107671	-0.217916	0.497574
N273	N	0.441005	0.115417	0.830907
H274	H	-0.196579	-0.527533	0.135250
H275	H	0.136754	-0.194200	0.468583
H276	H	0.470087	0.139134	0.801916
N277	N	-0.936529	-0.991111	0.385189
N278	N	-0.603195	-0.657778	0.718523
N279	N	-0.269862	-0.324444	1.051856
N280	N	-0.899857	-0.968920	0.425268
N281	N	-0.566523	-0.635587	0.758601
N282	N	-0.233190	-0.302254	1.091934
H283	H	-0.876099	-0.997928	0.454363
H284	H	-0.542765	-0.664594	0.787696
H285	H	-0.209432	-0.331261	1.121030
N286	N	-0.535956	-0.828288	0.222138
N287	N	-0.202623	-0.494955	0.555471
N288	N	0.130710	-0.161621	0.888805
N289	N	-0.477259	-0.828272	0.222135
N290	N	-0.143926	-0.494938	0.555468
N291	N	0.189407	-0.161605	0.888802
H292	H	-0.453588	-0.799236	0.193054
H293	H	-0.120254	-0.465903	0.526387
H294	H	0.213079	-0.132569	0.859720
N295	N	-0.384514	-0.276058	0.384885
N296	N	-0.051181	0.057275	0.718218
N297	N	0.282153	0.390609	1.051551
N298	N	-0.384517	-0.334755	0.384864
N299	N	-0.051184	-0.001422	0.718197
N300	N	0.282149	0.331912	1.051531
H301	H	-0.413598	-0.358480	0.413851
H302	H	-0.080264	-0.025146	0.747184
H303	H	0.253069	0.308187	1.080517
H304	H	-0.376145	-0.149968	0.376598
H305	H	-0.042812	0.183366	0.709931
H306	H	0.290521	0.516699	1.043264
H307	H	-0.229754	-0.982856	1.064075
H308	H	0.103579	-0.649522	1.397408
H309	H	0.436912	-0.316189	1.730741
N310	N	-0.384249	-0.828334	0.937869
N311	N	-0.050916	-0.495001	1.271203
N312	N	0.282418	-0.161667	1.604536
N313	N	-0.380082	-0.770251	0.945167
N314	N	-0.046749	-0.436918	1.278500
N315	N	0.286584	-0.103584	1.611833
H316	H	-0.409134	-0.741181	0.921431
H317	H	-0.075800	-0.407847	1.254765
H318	H	0.257533	-0.074514	1.588098
N319	N	-0.221515	-0.276018	0.222420
N320	N	0.111818	0.057316	0.555754
N321	N	0.445152	0.390649	0.889087
N322	N	-0.185516	-0.246657	0.186553
N323	N	0.147817	0.086676	0.519887
N324	N	0.481150	0.420010	0.853220
H325	H	-0.156428	-0.270359	0.157556
H326	H	0.176905	0.062975	0.490889
H327	H	0.510239	0.396308	0.824222
N328	N	-0.535697	-0.990984	0.385103
N329	N	-0.202363	-0.657650	0.718436
N330	N	0.130970	-0.324317	1.051769
N331	N	-0.564993	-1.026920	0.421093
N332	N	-0.231659	-0.693586	0.754427
N333	N	0.101674	-0.360253	1.087760
H334	H	-0.541239	-1.055947	0.450173
H335	H	-0.207905	-0.722614	0.783506
H336	H	0.125428	-0.389280	1.116839
N337	N	-0.668845	-0.828335	0.222145
N338	N	-0.335512	-0.495001	0.555478
N339	N	-0.002178	-0.161668	0.888812
N340	N	-0.661571	-0.770243	0.226235
N341	N	-0.328238	-0.436910	0.559569
N342	N	0.005095	-0.103577	0.892902
H343	H	-0.685322	-0.741221	0.197149
H344	H	-0.351989	-0.407887	0.530482
H345	H	-0.018656	-0.074554	0.863816
H346	H	-1.062618	-0.982830	0.376845
H347	H	-0.729285	-0.649496	0.710178
H348	H	-0.395951	-0.316163	1.043511
H349	H	-0.943607	-0.836780	0.230551
H350	H	-0.610274	-0.503446	0.563884
H351	H	-0.276940	-0.170113	0.897217
N352	N	-0.384597	-0.676875	0.384765
N353	N	-0.051263	-0.343542	0.718098
N354	N	0.282070	-0.010209	1.051431
N355	N	-0.420588	-0.647522	0.420645
N356	N	-0.087254	-0.314188	0.753979
N357	N	0.246079	0.019145	1.087312
H358	H	-0.449684	-0.671229	0.449630
H359	H	-0.116351	-0.337896	0.782964
H360	H	0.216983	-0.004562	1.116297
N361	N	-0.221602	-0.991206	0.537174
N362	N	0.111732	-0.657873	0.870508
N363	N	0.445065	-0.324539	1.203841
N364	N	-0.185646	-1.027172	0.566562
N365	N	0.147687	-0.693839	0.899896
N366	N	0.481020	-0.360506	1.233229
H367	H	-0.156605	-1.056241	0.542883
H368	H	0.176728	-0.722908	0.876216
H369	H	0.510062	-0.389574	1.209549
H370	H	-1.062876	-0.836821	0.230575
H371	H	-0.729543	-0.503487	0.563908
H372	H	-0.396209	-0.170154	0.897241
H373	H	-0.229896	-0.982849	0.663237
H374	H	0.103438	-0.649516	0.996570
H375	H	0.436771	-0.316183	1.329903
N376	N	-0.384204	-0.828341	1.070767
N377	N	-0.050870	-0.495007	1.404100
N378	N	0.282463	-0.161674	1.737434
N379	N	-0.384177	-0.828344	1.129464
N380	N	-0.050843	-0.495011	1.462797
N381	N	0.282490	-0.161678	1.796131
H382	H	-0.413211	-0.799282	1.153160
H383	H	-0.079878	-0.465949	1.486494
H384	H	0.253456	-0.132615	1.819827
N385	N	-0.384341	-0.828334	0.669929
N386	N	-0.051007	-0.495001	1.003263
N387	N	0.282326	-0.161668	1.336596
N388	N	-0.384317	-0.828342	0.728626
N389	N	-0.050983	-0.495008	1.061960
N390	N	0.282350	-0.161675	1.395293
H391	H	-0.413352	-0.799281	0.752323
H392	H	-0.080019	-0.465948	1.085656
H393	H	0.253315	-0.132614	1.418990
