data_functionalizedCrystal
_audit_creation_method	'MofGen! by Chris Wilmer'
_symmetry_space_group_name_H-M	'P1'
_symmetry_Int_Tables_number	1
_symmetry_cell_setting	triclinic
loop_
_symmetry_equiv_pos_as_xyz
  x,y,z
_cell_length_a	19.077068
_cell_length_b	21.395364
_cell_length_c	19.076919
_cell_angle_alpha	87.720454
_cell_angle_beta	94.470751
_cell_angle_gamma	87.656234
loop_
_atom_site_label
_atom_site_type_symbol
_atom_site_fract_x
_atom_site_fract_y
_atom_site_fract_z
Zn1	Zn	-0.296378	-0.932567	-0.409852
Zn2	Zn	-0.409531	-0.932489	-0.296697
Zn3	Zn	-0.291695	-0.832179	-0.291982
Zn4	Zn	-0.414263	-0.823373	-0.414540
O5	O	-0.352967	-0.880152	-0.353268
O6	O	-0.311367	-1.020235	-0.394853
O7	O	-0.389959	-0.922836	-0.197424
O8	O	-0.193665	-0.849213	-0.303682
O9	O	-0.394500	-1.020178	-0.311718
O10	O	-0.197106	-0.922968	-0.390281
O11	O	-0.303386	-0.849138	-0.193960
O12	O	-0.307974	-0.743332	-0.308228
O13	O	-0.402566	-0.834204	-0.512565
O14	O	-0.398025	-0.736863	-0.398271
O15	O	-0.315956	-0.914429	-0.509121
O16	O	-0.508809	-0.914297	-0.316264
O17	O	-0.512286	-0.834129	-0.402843
C18	C	-0.353006	-0.717363	-0.353247
C19	C	-0.353040	-0.647721	-0.353256
C20	C	-0.309830	-0.615054	-0.396616
C21	C	-0.309814	-0.549619	-0.396617
C22	C	-0.353020	-0.516853	-0.353266
C23	C	-0.396233	-0.549527	-0.309897
C24	C	-0.396243	-0.614961	-0.309892
C25	C	-0.416283	-0.410981	-0.350145
C26	C	-0.416275	-0.345548	-0.350155
C27	C	-0.352989	-0.315033	-0.353277
C28	C	-0.289710	-0.349958	-0.356404
C29	C	-0.289720	-0.415392	-0.356399
C30	C	-0.353014	-0.445901	-0.353266
C31	C	-0.309757	-0.211414	-0.396641
C32	C	-0.309740	-0.145979	-0.396637
C33	C	-0.396165	-0.145887	-0.309921
C34	C	-0.396176	-0.211322	-0.309920
C35	C	-0.352974	-0.244082	-0.353285
C36	C	-0.536127	-0.873265	-0.360589
C37	C	-0.614485	-0.870376	-0.363745
C38	C	-0.649466	-0.910787	-0.320188
C39	C	-0.723091	-0.908073	-0.323160
C40	C	-0.761735	-0.864944	-0.369686
C41	C	-0.726750	-0.824531	-0.413248
C42	C	-0.653125	-0.827249	-0.410279
C43	C	-0.982125	-0.852340	-0.383400
C44	C	-1.055754	-0.849624	-0.386364
C45	C	-1.052091	-0.933166	-0.296277
C46	C	-0.978465	-0.935878	-0.293309
C47	C	-0.943486	-0.895467	-0.336873
N48	N	-0.836992	-0.862167	-0.372724
N49	N	-0.868230	-0.898247	-0.333838
C50	C	-0.169091	-0.887082	-0.345933
C51	C	-0.090735	-0.890035	-0.342807
C52	C	-0.360311	-0.873343	-0.537136
C53	C	-0.363441	-0.870441	-0.615490
C54	C	-0.352937	-0.043576	-0.353285
C55	C	-0.352945	-0.113216	-0.353284
C56	C	-0.319820	-0.910845	-0.650509
C57	C	-0.322758	-0.908111	-0.724131
C58	C	-0.369321	-0.864976	-0.762732
C59	C	-0.412944	-0.824569	-0.727709
C60	C	-0.410002	-0.827300	-0.654088
C61	C	-0.382952	-0.852326	-0.983106
C62	C	-0.385892	-0.849599	-1.056732
C63	C	-0.295705	-0.933141	-1.053149
C64	C	-0.292771	-0.935871	-0.979527
C65	C	-0.336390	-0.895461	-0.944510
N66	N	-0.372327	-0.862182	-0.837986
N67	N	-0.333381	-0.898253	-0.869258
C68	C	-0.345600	-0.886972	-0.170112
C69	C	-0.342272	-0.890002	-0.091751
H70	H	-0.431344	-0.119209	-0.274623
C71	C	-0.511083	-0.809218	-0.814277
C72	C	-0.464128	-0.777154	-0.770137
H73	H	-0.542685	-0.779945	-0.840466
H74	H	-0.485525	-0.832884	-0.845667
H75	H	-0.536891	-0.836562	-0.786628
H76	H	-0.438315	-0.749812	-0.797786
H77	H	-0.489688	-0.753477	-0.738743
C78	C	-0.570813	-0.745657	-0.416655
C79	C	-0.614672	-0.782828	-0.458158
H80	H	-0.547072	-0.718237	-0.446218
H81	H	-0.598349	-0.721788	-0.387084
H82	H	-0.537265	-0.771738	-0.388524
H83	H	-0.648223	-0.756747	-0.486285
H84	H	-0.587134	-0.806698	-0.487742
H85	H	-0.445515	-0.794393	-0.625577
H86	H	-0.431365	-0.237919	-0.274615
H87	H	-0.618006	-0.945904	-0.282298
H88	H	-0.751569	-0.940979	-0.287691
H89	H	-0.254856	-0.970997	-0.948103
H90	H	-0.431411	-0.522845	-0.274599
H91	H	-0.274651	-0.641723	-0.431926
H92	H	-0.953651	-0.819435	-0.418870
C93	C	-0.204182	-0.942346	-1.132154
C94	C	-0.247753	-0.977552	-1.091640
H95	H	-0.174572	-0.969765	-1.155912
H96	H	-0.232335	-0.916275	-1.165678
H97	H	-0.176080	-0.917130	-1.102345
H98	H	-0.275858	-1.002765	-1.121451
H99	H	-0.219597	-1.003634	-1.058113
H100	H	-0.287239	-0.941013	-0.752640
C101	C	-0.951052	-0.971751	-0.173062
C102	C	-0.935995	-0.983293	-0.242169
H103	H	-0.924836	-1.001026	-0.141491
H104	H	-0.938622	-0.930495	-0.162218
H105	H	-0.999909	-0.975914	-0.168608
H106	H	-0.887139	-0.979125	-0.246625
H107	H	-0.948421	-1.024559	-0.253017
C108	C	-0.174125	-0.441716	-0.301614
C109	C	-0.220168	-0.453784	-0.359825
H110	H	-0.131189	-0.465421	-0.303726
H111	H	-0.165059	-0.398385	-0.302072
H112	H	-0.194900	-0.453167	-0.259566
H113	H	-0.199396	-0.442328	-0.401874
H114	H	-0.229233	-0.497124	-0.359374
H115	H	-0.467800	-0.317117	-0.347612
H116	H	-0.431430	-0.641558	-0.274581
H117	H	-0.423811	-0.814472	-1.088160
H118	H	-0.281905	-0.945971	-0.619085
H119	H	-1.080579	-0.966067	-0.260810
C120	C	-0.472377	-0.769464	-0.994053
C121	C	-0.430890	-0.807901	-0.944621
H122	H	-0.501972	-0.742036	-0.970290
H123	H	-0.442810	-0.745604	-1.021544
H124	H	-0.500494	-0.794685	-1.023841
H125	H	-0.402769	-0.782679	-0.914835
H126	H	-0.460460	-0.831762	-0.917118
C127	C	-0.541394	-0.400049	-0.343990
C128	C	-0.485855	-0.444519	-0.346721
H129	H	-0.584342	-0.420755	-0.341882
H130	H	-0.533523	-0.376258	-0.303352
H131	H	-0.543988	-0.372980	-0.384893
H132	H	-0.483258	-0.471585	-0.305815
H133	H	-0.493728	-0.468321	-0.387363
C134	C	-1.083194	-0.813773	-0.506622
C135	C	-1.098238	-0.802219	-0.437514
H136	H	-1.109427	-0.784511	-0.538195
H137	H	-1.034347	-0.809602	-0.511090
H138	H	-1.095617	-0.855040	-0.517450
H139	H	-1.085810	-0.760953	-0.426683
H140	H	-1.147096	-0.806385	-0.433043
C141	C	-0.280450	-0.526358	-0.514684
C142	C	-0.262322	-0.513699	-0.444288
H143	H	-0.251134	-0.504180	-0.544114
H144	H	-0.274264	-0.570011	-0.520883
H145	H	-0.328243	-0.513459	-0.526800
H146	H	-0.214530	-0.526603	-0.432170
H147	H	-0.268502	-0.470037	-0.438085
C148	C	-0.189554	-0.331168	-0.421832
C149	C	-0.220136	-0.316428	-0.359839
H150	H	-0.146606	-0.310464	-0.423955
H151	H	-0.180511	-0.375132	-0.422273
H152	H	-0.220802	-0.317896	-0.461312
H153	H	-0.188890	-0.329705	-0.320358
H154	H	-0.229176	-0.272455	-0.359392
C155	C	-0.224328	-0.204935	-0.482356
C156	C	-0.262266	-0.247429	-0.444301
H157	H	-0.195008	-0.227169	-0.511776
H158	H	-0.256155	-0.177251	-0.510498
H159	H	-0.196085	-0.181572	-0.450599
H160	H	-0.290514	-0.270788	-0.476057
H161	H	-0.230436	-0.275124	-0.416157
C162	C	-0.303876	-0.069261	-0.491094
C163	C	-0.262240	-0.110068	-0.444304
H164	H	-0.274550	-0.047090	-0.520518
H165	H	-0.335709	-0.092626	-0.519230
H166	H	-0.329598	-0.040387	-0.465262
H167	H	-0.236522	-0.138946	-0.470135
H168	H	-0.230395	-0.086702	-0.416164
C169	C	-0.841235	-0.783265	-0.457795
C170	C	-0.769225	-0.777121	-0.464390
H171	H	-0.867455	-0.753991	-0.489364
H172	H	-0.853656	-0.824522	-0.468643
H173	H	-0.851431	-0.775437	-0.410906
H174	H	-0.759028	-0.784953	-0.511278
H175	H	-0.756800	-0.735854	-0.453546
