data_functionalizedCrystal
_audit_creation_method	'MofGen! by Chris Wilmer'
_symmetry_space_group_name_H-M	'P1'
_symmetry_Int_Tables_number	1
_symmetry_cell_setting	triclinic
loop_
_symmetry_equiv_pos_as_xyz
  x,y,z
_cell_length_a	23.532407
_cell_length_b	14.853579
_cell_length_c	13.330367
_cell_angle_alpha	90.005712
_cell_angle_beta	89.998492
_cell_angle_gamma	83.244241
loop_
_atom_site_label
_atom_site_type_symbol
_atom_site_fract_x
_atom_site_fract_y
_atom_site_fract_z
O1	O	-0.755743	-0.109424	0.083297
O2	O	-0.255743	0.390576	0.583297
O3	O	-0.589949	-0.125259	0.083326
O4	O	-0.089949	0.374741	0.583326
O5	O	-0.677271	0.013936	0.083306
O6	O	-0.177271	0.513936	0.583306
O7	O	-0.668421	-0.248619	0.083317
O8	O	-0.168421	0.251381	0.583317
O9	O	-0.677258	0.013914	-0.083541
O10	O	-0.177258	0.513914	0.416459
O11	O	-0.589936	-0.125281	-0.083521
O12	O	-0.089936	0.374719	0.416479
O13	O	-0.755730	-0.109447	-0.083550
O14	O	-0.255730	0.390553	0.416450
Cu15	Cu	-0.672832	-0.117366	-0.098770
Cu16	Cu	-0.172832	0.382634	0.401230
Cu17	Cu	-0.672847	-0.117340	0.098546
Cu18	Cu	-0.172847	0.382660	0.598546
O19	O	-0.668408	-0.248641	-0.083530
O20	O	-0.168408	0.251359	0.416470
C21	C	-0.568725	-0.124867	-0.000094
C22	C	-0.068725	0.375133	0.499906
C23	C	-0.505502	-0.123655	-0.000083
C24	C	-0.005502	0.376345	0.499917
C25	C	-0.676862	0.047509	-0.000117
C26	C	-0.176862	0.547509	0.499883
C27	C	-0.675657	0.147579	-0.000114
C28	C	-0.175657	0.647579	0.499886
C29	C	-0.776954	-0.109839	-0.000128
C30	C	-0.276954	0.390161	0.499872
C31	C	-0.840177	-0.111051	-0.000133
C32	C	-0.340177	0.388949	0.499867
C33	C	-0.106728	-0.198423	-0.000125
C34	C	0.393272	0.301577	0.499875
C35	C	-0.047322	-0.197297	-0.000131
C36	C	0.452678	0.302703	0.499869
O37	O	-0.010882	-0.266608	-0.000165
O38	O	0.489118	0.233392	0.499835
N39	N	-0.024333	-0.114546	-0.000133
N40	N	0.475667	0.385454	0.499867
C41	C	-0.060752	-0.032915	-0.000139
C42	C	0.439248	0.467085	0.499861
O43	O	-0.035743	0.037574	-0.000142
O44	O	0.464257	0.537574	0.499858
C45	C	-0.120156	-0.034042	-0.000140
C46	C	0.379844	0.465958	0.499860
C47	C	-0.143142	-0.116799	-0.000128
C48	C	0.356858	0.383201	0.499872
C49	C	-0.129714	-0.281173	-0.000114
C50	C	0.370286	0.218827	0.499886
C51	C	-0.189115	-0.282299	-0.000106
C52	C	0.310885	0.217701	0.499894
C53	C	-0.225530	-0.200675	-0.000109
C54	C	0.274470	0.299325	0.499891
C55	C	-0.202543	-0.117925	-0.000120
C56	C	0.297457	0.382075	0.499880
C57	C	-0.156574	0.047587	-0.000153
C58	C	0.343426	0.547587	0.499847
C59	C	-0.215981	0.046453	-0.000154
C60	C	0.284019	0.546453	0.499846
C61	C	-0.238967	-0.036304	-0.000142
C62	C	0.261033	0.463696	0.499858
C63	C	-0.298359	-0.037427	-0.000114
C64	C	0.201641	0.462573	0.499886
N65	N	-0.321348	-0.120178	-0.000113
N66	N	0.178652	0.379822	0.499887
C67	C	-0.284934	-0.201802	-0.000110
C68	C	0.215066	0.298198	0.499890
C69	C	0.064001	-0.030554	-0.000138
C70	C	0.564001	0.469446	0.499862
C71	C	0.123404	-0.029426	-0.000130
C72	C	0.623404	0.470574	0.499870
C73	C	0.136829	-0.193808	-0.000124
C74	C	0.636829	0.306192	0.499876
C75	C	0.077425	-0.194936	-0.000125
C76	C	0.577425	0.305064	0.499875
C77	C	0.041011	-0.113306	-0.000137
C78	C	0.541011	0.386694	0.499863
C79	C	-0.409681	-0.204160	-0.000092
C80	C	0.090319	0.295840	0.499908
C81	C	-0.469088	-0.205279	-0.000080
C82	C	0.030912	0.294721	0.499920
C83	C	-0.482508	-0.040897	-0.000091
C84	C	0.017492	0.459103	0.499909
C85	C	-0.423106	-0.039778	-0.000098
C86	C	0.076894	0.460222	0.499902
C87	C	-0.386694	-0.121417	-0.000102
C88	C	0.113306	0.378583	0.499898
O89	O	-0.334834	0.031848	-0.000085
O90	O	0.165166	0.531848	0.499915
O91	O	-0.309951	-0.272280	-0.000120
O92	O	0.190049	0.227720	0.499880
N93	N	-0.672825	-0.117384	-0.237552
N94	N	-0.172825	0.382616	0.262448
C95	C	-0.675097	0.194600	0.090839
C96	C	-0.175097	0.694600	0.590839
C97	C	-0.675089	0.194589	-0.091064
C98	C	-0.175089	0.694589	0.408936
C99	C	-0.673960	0.288610	-0.091065
C100	C	-0.173960	0.788610	0.408935
C101	C	-0.673400	0.335631	-0.000112
C102	C	-0.173400	0.835631	0.499888
C103	C	-0.673969	0.288630	0.090841
C104	C	-0.173969	0.788630	0.590841
C105	C	-0.673396	0.335619	-0.182016
C106	C	-0.173396	0.835619	0.317984
C107	C	-0.672267	0.429647	-0.182020
C108	C	-0.172267	0.929647	0.317980
C109	C	-0.671703	0.476669	-0.091066
C110	C	-0.171703	0.976669	0.408934
C111	C	-0.672272	0.429662	-0.000110
C112	C	-0.172272	0.929662	0.499890
C113	C	-0.671712	0.476683	0.090843
C114	C	-0.171712	0.976683	0.590843
C115	C	-0.672277	0.429677	0.181801
C116	C	-0.172277	0.929677	0.681801
C117	C	-0.673405	0.335652	0.181795
C118	C	-0.173405	0.835652	0.681795
C119	C	-0.670575	0.570693	-0.091061
C120	C	-0.170575	1.070693	0.408939
C121	C	-0.670584	0.570713	0.090845
C122	C	-0.170584	1.070713	0.590845
C123	C	-0.668815	0.717785	-0.000107
C124	C	-0.168815	1.217785	0.499893
C125	C	-0.670015	0.617714	-0.000108
C126	C	-0.170015	1.117714	0.499892
C127	C	-0.707438	-0.171724	-0.710168
C128	C	-0.207438	0.328276	-0.210168
C129	C	-0.638274	-0.062919	-0.710149
C130	C	-0.138274	0.437081	-0.210149
C131	C	-0.638266	-0.062933	-0.605131
C132	C	-0.138266	0.437067	-0.105131
C133	C	-0.672845	-0.117342	-0.552626
C134	C	-0.172845	0.382658	-0.052626
C135	C	-0.707432	-0.171738	-0.605140
C136	C	-0.207432	0.328262	-0.105140
C137	C	-0.603684	-0.008531	-0.552609
C138	C	-0.103684	0.491469	-0.052609
C139	C	-0.603675	-0.008542	-0.447584
C140	C	-0.103675	0.491458	0.052416
C141	C	-0.638251	-0.062957	-0.395078
C142	C	-0.138251	0.437043	0.104922
C143	C	-0.672839	-0.117356	-0.447598
C144	C	-0.172839	0.382644	0.052402
C145	C	-0.707417	-0.171766	-0.395093
C146	C	-0.207417	0.328234	0.104907
C147	C	-0.742003	-0.226170	-0.447612
C148	C	-0.242003	0.273830	0.052388
C149	C	-0.742008	-0.226153	-0.552633
C150	C	-0.242008	0.273847	-0.052633
C151	C	-0.638246	-0.062974	-0.290056
C152	C	-0.138246	0.437026	0.209944
C153	C	-0.707411	-0.171779	-0.290065
C154	C	-0.207411	0.328221	0.209935
N155	N	-0.672859	-0.117314	0.237327
N156	N	-0.172859	0.382686	0.737327
H157	H	-0.487799	-0.272672	-0.000069
H158	H	0.012201	0.227328	0.499931
F159	F	0.147860	0.058654	-0.000120
F160	F	0.647860	0.558654	0.499880
H161	H	-0.770159	-0.270466	-0.404849
H162	H	-0.270159	0.229534	0.095151
H163	H	0.034355	0.035923	-0.000139
H164	H	0.534355	0.535923	0.499861
H165	H	-0.735594	-0.216021	-0.752933
H166	H	-0.235594	0.283979	-0.252933
H167	H	-0.380040	-0.270638	-0.000098
H168	H	0.119960	0.229362	0.499902
F169	F	-0.673996	0.285573	-0.278807
F170	F	-0.173996	0.785573	0.221193
H171	H	-0.137870	0.114976	-0.000163
H172	H	0.362130	0.614976	0.499837
H173	H	-0.575537	0.035774	-0.595366
H174	H	-0.075537	0.535774	-0.095366
F175	F	0.175595	-0.280681	-0.000126
F176	F	0.675595	0.219319	0.499874
H177	H	-0.673867	0.297372	0.255848
H178	H	-0.173867	0.797372	0.755848
H179	H	-0.770166	-0.270444	-0.595403
H180	H	-0.270166	0.229556	-0.095403
F181	F	-0.566859	0.049346	-0.391700
F182	F	-0.066859	0.549346	0.108300
H183	H	-0.610089	-0.018677	-0.247300
H184	H	-0.110089	0.481323	0.252700
F185	F	-0.675706	0.144575	0.187638
F186	F	-0.175706	0.644575	0.687638
H187	H	-0.671807	0.467911	-0.256084
H188	H	-0.171807	0.967911	0.243916
F189	F	-0.744212	-0.229696	-0.234194
F190	F	-0.244212	0.270304	0.265806
H191	H	-0.245627	0.112927	-0.000164
H192	H	0.254373	0.612927	0.499836
F193	F	-0.675689	0.144545	-0.187856
F194	F	-0.175689	0.644545	0.312144
H195	H	-0.404390	0.027609	-0.000093
H196	H	0.095610	0.527609	0.499907
F197	F	-0.601477	-0.005013	-0.766031
F198	F	-0.101477	0.494987	-0.266031
H199	H	-0.207825	-0.349688	-0.000096
H200	H	0.292175	0.150312	0.499904
H201	H	-0.100071	-0.347645	-0.000115
H202	H	0.399929	0.152355	0.499885
F203	F	-0.521273	0.045968	-0.000095
F204	F	-0.021273	0.545968	0.499905
F205	F	-0.669984	0.620748	0.187652
F206	F	-0.169984	1.120748	0.687652
F207	F	0.052967	-0.283015	-0.000115
F208	F	0.552967	0.216985	0.499885
F209	F	-0.671687	0.479732	0.278596
F210	F	-0.171687	0.979732	0.778596
H211	H	-0.670117	0.608962	-0.165117
H212	H	-0.170117	1.108962	0.334883
