data_functionalizedCrystal
_audit_creation_method	'MofGen! by Chris Wilmer'
_symmetry_space_group_name_H-M	'P1'
_symmetry_Int_Tables_number	1
_symmetry_cell_setting	triclinic
loop_
_symmetry_equiv_pos_as_xyz
  x,y,z
_cell_length_a	18.760492
_cell_length_b	14.560432
_cell_length_c	14.560432
_cell_angle_alpha	90.001357
_cell_angle_beta	60.000060
_cell_angle_gamma	60.000027
loop_
_atom_site_label
_atom_site_type_symbol
_atom_site_fract_x
_atom_site_fract_y
_atom_site_fract_z
Zr1	Zr	0.780268	-0.120563	0.884713
O2	O	0.928975	-0.267215	0.738061
O3	O	0.631557	-0.075601	0.929675
O4	O	0.780266	-0.267208	0.929668
O5	O	0.780269	0.075530	0.738068
O6	O	0.780269	-0.267208	1.080806
O7	O	0.780266	-0.075608	0.738068
O8	O	0.514256	0.075542	1.080818
O9	O	1.046282	-0.267221	0.738055
O10	O	0.692728	-0.056431	1.061637
O11	O	0.692728	0.056361	0.948844
O12	O	0.867813	-0.169232	0.948836
O13	O	0.867813	-0.056439	0.836044
Zr14	Zr	0.780278	0.120484	1.125760
Zr15	Zr	0.780273	-0.120563	1.125760
Zr16	Zr	0.780273	0.120485	0.884713
Zr17	Zr	0.967359	-0.120571	0.884705
Zr18	Zr	0.593187	0.120493	1.125769
O19	O	0.928989	0.075522	1.080799
O20	O	0.928982	-0.267216	1.080799
O21	O	0.928982	0.075523	0.738061
O22	O	0.631571	0.267136	1.272413
O23	O	0.631564	-0.075601	1.272413
O24	O	0.631564	0.267137	0.929675
O25	O	0.780277	-0.075609	1.272406
O26	O	0.780280	0.267130	1.080805
O27	O	0.780277	0.267130	0.929668
O28	O	0.780280	0.075529	1.272406
O29	O	1.046286	-0.267221	0.929656
O30	O	0.514260	0.267142	1.080818
O31	O	0.514264	0.267142	1.272418
O32	O	0.514260	0.075542	1.272418
O33	O	1.046286	-0.075620	0.738055
O34	O	1.046290	-0.075621	0.929656
O35	O	0.692733	0.169153	1.061637
O36	O	0.692733	0.056361	1.174429
O37	O	0.867818	-0.056440	1.061629
O38	O	0.867818	0.056353	0.948836
C39	C	0.546250	-0.000028	1.005247
C40	C	0.466825	-0.000024	1.005251
C41	C	0.780267	-0.000039	0.703723
C42	C	0.780265	-0.000038	0.601393
C43	C	0.780279	0.301474	1.005237
C44	C	0.780281	0.403805	1.005237
C45	C	0.131031	0.058827	0.946346
C46	C	0.131035	-0.058930	1.064103
C47	C	0.205651	-0.058924	1.064111
C48	C	0.242961	-0.000042	1.005235
C49	C	0.205655	0.058833	0.946350
C50	C	0.242969	-0.117807	1.122986
C51	C	0.317590	-0.117804	1.122996
C52	C	0.354896	-0.058915	1.064125
C53	C	0.317585	-0.000036	1.005239
C54	C	0.354895	0.058845	0.946362
C55	C	0.317581	0.117731	0.887481
C56	C	0.242961	0.117722	0.887479
C57	C	0.429515	-0.058906	1.064128
C58	C	0.429520	0.058851	0.946366
C59	C	1.014296	-0.000050	1.005226
C60	C	1.093721	-0.000054	1.005222
C61	C	0.780267	-0.301552	1.005237
C62	C	0.780265	-0.403883	1.005237
C63	C	0.963072	0.286057	0.887483
C64	C	1.054464	0.275260	0.828611
C65	C	1.054460	0.371413	0.828613
C66	C	0.963054	0.478371	0.887491
C67	C	0.871661	0.489168	0.946363
C68	C	0.871676	0.393006	0.946357
C69	C	0.688873	0.606914	1.064108
C70	C	0.688875	0.510763	1.064114
C71	C	0.597466	0.713872	1.122986
C72	C	0.506072	0.724670	1.181866
C73	C	0.506080	0.628509	1.181862
C74	C	0.597482	0.521560	1.122986
C75	C	0.597474	0.117715	0.719140
C76	C	0.506082	0.176587	0.729937
C77	C	0.506086	0.176584	0.633785
C78	C	0.597492	0.117706	0.526827
C79	C	0.688885	0.058834	0.516030
C80	C	0.688870	0.058841	0.612191
C81	C	0.871673	-0.058911	0.398284
C82	C	0.871671	-0.058916	0.494435
C83	C	0.963080	-0.117789	0.291326
C84	C	1.054474	-0.176669	0.280528
C85	C	1.054466	-0.176664	0.376688
C86	C	0.963064	-0.117788	0.483638
C87	C	0.780279	-0.000040	1.306750
C88	C	0.780281	-0.000040	1.409081
C89	C	0.546256	-0.000029	1.306761
C90	C	0.466833	-0.000025	1.409095
C91	C	0.546256	0.301485	1.005247
C92	C	0.466833	0.403820	1.005251
C93	C	0.546263	0.301485	1.306760
C94	C	0.466842	0.403819	1.409095
C95	C	1.014283	-0.301563	0.703713
C96	C	1.093704	-0.403897	0.601378
C97	C	1.014289	-0.000050	0.703713
C98	C	1.093713	-0.000053	0.601378
C99	C	1.014289	-0.301564	1.005226
C100	C	1.093713	-0.403898	1.005222
C101	C	0.429533	-0.058910	1.398276
C102	C	0.354917	-0.058929	1.494421
C103	C	0.317598	-0.000056	1.601384
C104	C	0.354905	0.058830	1.612201
C105	C	0.429525	0.058842	1.516057
C106	C	0.429538	0.510764	1.064129
C107	C	0.354922	0.606927	1.064128
C108	C	0.317598	0.596144	1.005255
C109	C	0.354901	0.489189	0.946370
C110	C	0.429520	0.393028	0.946365
C111	C	0.429545	0.393000	1.516039
C112	C	0.354931	0.489145	1.612202
C113	C	0.317610	0.596108	1.601419
C114	C	0.354914	0.606925	1.494464
C115	C	0.429532	0.510781	1.398303
C116	C	1.131010	-0.393078	0.494434
C117	C	1.205648	-0.489223	0.398271
C118	C	1.242972	-0.596186	0.409054
C119	C	1.205663	-0.607003	0.516009
C120	C	1.131033	-0.510859	0.612170
C121	C	1.131021	0.058821	0.612197
C122	C	1.205657	0.058814	0.516052
C123	C	1.242979	-0.000062	0.409090
C124	C	1.205668	-0.058944	0.398273
C125	C	1.131038	-0.058943	0.494416
C126	C	1.131013	-0.393079	1.064107
C127	C	1.205630	-0.489224	1.064125
C128	C	1.242949	-0.596187	1.005252
C129	C	1.205641	-0.607004	0.946366
C130	C	1.131021	-0.510860	0.946355
H131	H	0.459891	0.106802	0.898423
H132	H	0.431666	0.224526	0.642581
Br133	Br	1.344265	-0.000053	0.278618
H134	H	1.236039	-0.694106	0.898433
Br135	Br	0.963088	-0.117782	0.160831
H136	H	0.100660	-0.106877	1.112032
Br137	Br	0.597496	0.117728	0.396334
Br138	Br	0.368234	0.197627	0.807569
H139	H	0.459920	0.305914	1.524840
Br140	Br	0.382034	0.869821	1.261750
H141	H	1.100639	-0.305993	1.112048
Br142	Br	1.178512	-0.256553	0.135376
H143	H	0.459918	-0.106865	1.311190
Br144	Br	0.304317	0.474438	1.757341
Br145	Br	1.344222	-0.726658	1.005278
H146	H	0.324500	0.480426	0.898437
Br147	Br	1.178506	-0.256555	0.362023
H148	H	0.963058	0.556658	0.887476
Br149	Br	0.216341	0.726579	1.731936
Br150	Br	0.480123	0.247893	0.866455
Br151	Br	0.304244	0.138728	1.757374
Br152	Br	0.304254	0.752098	1.479849
Br153	Br	0.963045	-0.117785	0.614140
Br154	Br	1.080410	-0.138846	0.479713
H155	H	0.459919	0.519565	1.112071
H156	H	0.459889	0.519606	1.311228
H157	H	1.235998	-0.480395	1.112076
Br158	Br	0.304299	-0.138849	1.479714
Br159	Br	1.080369	-0.247926	0.479769
Br160	Br	0.368225	-0.197718	1.202902
Br161	Br	1.256264	-0.474516	0.253133
H162	H	1.303741	-0.674463	0.330745
Br163	Br	1.080416	-0.525563	0.866421
H164	H	0.100643	0.106774	0.898410
Br165	Br	0.216326	-0.000084	1.731855
Br166	Br	1.256327	-0.752176	0.530624
H167	H	0.459885	0.106800	1.524882
Br168	Br	0.192304	0.197647	0.807593
H169	H	0.324559	0.694005	1.112084
H170	H	0.212594	-0.165753	1.170915
H171	H	1.100659	-0.519682	0.699246
Br172	Br	0.216327	0.726662	1.005273
H173	H	1.100639	0.106773	0.699283
H174	H	1.236023	0.106767	0.524882
H175	H	1.236067	-0.106880	0.311171
H176	H	0.459898	-0.106856	1.112061
H177	H	0.963085	0.207759	0.887489
H178	H	1.128886	0.188166	0.780672
Br179	Br	0.382036	0.256517	0.875093
H180	H	1.128880	0.362617	0.780668
H181	H	0.597469	0.792160	1.122978
H182	H	0.597498	0.443259	1.122984
Br183	Br	0.382040	0.643175	1.261753
H184	H	0.597461	0.117715	0.797438
