data_functionalizedCrystal
_audit_creation_method	'MofGen! by Chris Wilmer'
_symmetry_space_group_name_H-M	'P1'
_symmetry_Int_Tables_number	1
_symmetry_cell_setting	triclinic
loop_
_symmetry_equiv_pos_as_xyz
  x,y,z
_cell_length_a	11.169417
_cell_length_b	11.169409
_cell_length_c	11.169416
_cell_angle_alpha	89.969126
_cell_angle_beta	89.991438
_cell_angle_gamma	90.021649
loop_
_atom_site_label
_atom_site_type_symbol
_atom_site_fract_x
_atom_site_fract_y
_atom_site_fract_z
Zn1	Zn	-1.834962	-0.678613	-0.477767
Zn2	Zn	-1.334962	-0.178613	0.022233
Zn3	Zn	-1.834852	-0.477935	-0.678507
Zn4	Zn	-1.334852	0.022065	-0.178507
Zn5	Zn	-1.634248	-0.477941	-0.477831
Zn6	Zn	-1.134248	0.022059	0.022169
Zn7	Zn	-1.634256	-0.678574	-0.678400
Zn8	Zn	-1.134256	-0.178574	-0.178400
O9	O	-1.734579	-0.578266	-0.578126
O10	O	-1.234579	-0.078266	-0.078126
O11	O	-2.002897	-0.652007	-0.504414
O12	O	-1.502897	-0.152007	-0.004414
O13	O	-1.808192	-0.309986	-0.651959
O14	O	-1.308192	0.190014	-0.151959
O15	O	-1.660917	-0.504580	-0.309873
O16	O	-1.160917	-0.004580	0.190127
O17	O	-2.002816	-0.504570	-0.651897
O18	O	-1.502816	-0.004570	-0.151897
O19	O	-1.808380	-0.652013	-0.309826
O20	O	-1.308380	-0.152013	0.190174
O21	O	-1.660809	-0.309991	-0.504522
O22	O	-1.160809	0.190009	-0.004522
O23	O	-1.466300	-0.504542	-0.504419
O24	O	-0.966300	-0.004542	-0.004419
O25	O	-1.660929	-0.846529	-0.651714
O26	O	-1.160929	-0.346529	-0.151714
O27	O	-1.466305	-0.651945	-0.651776
O28	O	-0.966305	-0.151945	-0.151776
O29	O	-1.808388	-0.846558	-0.504310
O30	O	-1.308388	-0.346558	-0.004310
O31	O	-1.808199	-0.504531	-0.846443
O32	O	-1.308199	-0.004531	-0.346443
O33	O	-1.660822	-0.651940	-0.846364
O34	O	-1.160822	-0.151940	-0.346364
C35	C	-1.422755	-0.578241	-0.578094
C36	C	-0.922755	-0.078241	-0.078094
C37	C	-1.289355	-0.578258	-0.578109
C38	C	-0.789355	-0.078258	-0.078109
C39	C	-1.734532	-0.578257	-0.889951
C40	C	-1.234532	-0.078257	-0.389951
C41	C	-1.734621	-0.578293	-1.023351
C42	C	-1.234621	-0.078293	-0.523351
C43	C	-1.734672	-0.891309	-0.577993
C44	C	-1.234672	-0.391309	-0.077993
C45	C	-1.734711	-1.024709	-0.577936
C46	C	-1.234711	-0.524709	-0.077936
C47	C	-1.047622	-0.578284	-0.578148
C48	C	-0.547622	-0.078284	-0.078148
C49	C	-1.181022	-0.578271	-0.578128
C50	C	-0.681022	-0.078271	-0.078128
C51	C	-1.734557	-0.266441	-0.578172
C52	C	-1.234557	0.233559	-0.078172
C53	C	-1.734750	-0.133042	-0.577891
C54	C	-1.234750	0.366958	-0.077891
C55	C	-1.734660	-0.578301	-0.265084
C56	C	-1.234660	-0.078301	0.234916
C57	C	-1.734694	-0.578316	-0.131684
C58	C	-1.234694	-0.078316	0.368316
