data_functionalizedCrystal
_audit_creation_method	'MofGen! by Chris Wilmer'
_symmetry_space_group_name_H-M	'P1'
_symmetry_Int_Tables_number	1
_symmetry_cell_setting	triclinic
loop_
_symmetry_equiv_pos_as_xyz
  x,y,z
_cell_length_a	33.592126
_cell_length_b	33.591377
_cell_length_c	33.588093
_cell_angle_alpha	60.004089
_cell_angle_beta	60.008299
_cell_angle_gamma	59.994549
loop_
_atom_site_label
_atom_site_type_symbol
_atom_site_fract_x
_atom_site_fract_y
_atom_site_fract_z
O1	O	0.055297	-0.581666	0.486338
O2	O	0.020882	-0.452873	0.391864
O3	O	0.102445	-0.534352	0.391775
O4	O	-0.026266	-0.500187	0.486427
O5	O	0.129510	-0.507292	0.418747
O6	O	0.047947	-0.425814	0.418835
O7	O	0.082362	-0.554606	0.513309
Cu8	Cu	0.067626	-0.487739	0.468535
Cu9	Cu	0.035618	-0.519740	0.436638
O10	O	0.000799	-0.473128	0.513398
N11	N	0.090139	-0.465235	0.490972
N12	N	0.013110	-0.542249	0.414202
C13	C	0.124394	-0.431229	0.734914
C14	C	0.334265	-0.431145	0.524799
C15	C	0.124204	-0.431200	0.524965
C16	C	0.124184	-0.221175	0.524955
C17	C	0.158017	-0.322536	0.558710
C18	C	0.158027	-0.397406	0.558711
C19	C	0.176763	-0.378688	0.577408
C20	C	0.258412	-0.364594	0.534386
C21	C	0.309454	-0.381596	0.517340
C22	C	0.309485	-0.464188	0.548836
C23	C	0.258444	-0.447186	0.565883
C24	C	0.170304	-0.297002	0.508532
C25	C	0.153260	-0.245956	0.491537
C26	C	0.111648	-0.245983	0.574901
C27	C	0.128691	-0.297029	0.591896
C28	C	0.107841	-0.385091	0.571080
C29	C	0.090813	-0.402108	0.554078
C30	C	0.174153	-0.443755	0.512351
C31	C	0.191183	-0.426739	0.529347
C32	C	0.107923	-0.385106	0.659111
C33	C	0.090955	-0.402138	0.710156
C34	C	0.174335	-0.443795	0.710087
C35	C	0.191302	-0.426764	0.659041
C36	C	0.158095	-0.397418	0.633555
C37	C	0.232909	-0.397388	0.558656
C38	C	0.105069	-0.449619	0.791057
C39	C	0.390406	-0.449193	0.505789
C40	C	0.104813	-0.449599	0.506607
C41	C	0.105125	-0.165028	0.506915
C42	C	-0.020560	-0.576246	0.169890
C43	C	-0.020889	-0.786183	0.379970
C44	C	-0.020859	-0.576235	0.380063
C45	C	-0.230772	-0.576015	0.379658
C46	C	-0.129417	-0.609898	0.346025
C47	C	-0.054587	-0.609979	0.346172
C48	C	-0.073269	-0.628671	0.327396
C49	C	-0.087401	-0.710299	0.370335
C50	C	-0.070424	-0.761345	0.387369
C51	C	0.012165	-0.761428	0.356003
C52	C	-0.004813	-0.710383	0.338967
C53	C	-0.155001	-0.622196	0.396191
C54	C	-0.206043	-0.605128	0.413125
C55	C	-0.205914	-0.563467	0.329724
C56	C	-0.154872	-0.580535	0.312790
C57	C	-0.066886	-0.559797	0.333828
C58	C	-0.049903	-0.542809	0.350903
C59	C	-0.008321	-0.626180	0.392654
C60	C	-0.025304	-0.643170	0.375585
C61	C	-0.066758	-0.559805	0.245702
C62	C	-0.049671	-0.542819	0.194658
C63	C	-0.008026	-0.626194	0.194706
C64	C	-0.025111	-0.643179	0.245752
C65	C	-0.054479	-0.609983	0.271248
C66	C	-0.054597	-0.684821	0.346135
C67	C	-0.002109	-0.556901	0.113746
C68	C	-0.002869	-0.842328	0.398966
C69	C	-0.002496	-0.556887	0.398501
C70	C	-0.286914	-0.556929	0.397631
N71	N	0.436349	-0.465146	0.490703
O72	O	0.592194	-0.469605	0.374236
O73	O	0.592389	-0.564393	0.502890
O74	O	0.592305	-0.564176	0.421300
O75	O	0.592277	-0.469822	0.455826
O76	O	0.511216	-0.537214	0.448415
O77	O	0.511300	-0.537431	0.530004
O78	O	0.511104	-0.442643	0.401350
Cu79	Cu	0.503798	-0.487575	0.468153
Cu80	Cu	0.599695	-0.519461	0.436087
O81	O	0.511188	-0.442860	0.482940
N82	N	0.667145	-0.541890	0.413532
N83	N	0.090108	-0.119085	0.490958
O84	O	-0.026275	0.036848	0.486394
O85	O	0.102381	0.036888	0.391584
O86	O	0.020751	0.036852	0.391854
O87	O	0.055356	0.036884	0.486124
O88	O	0.047821	-0.044242	0.418876
O89	O	0.129452	-0.044207	0.418606
O90	O	0.000796	-0.044246	0.513417
Cu91	Cu	0.067596	-0.051631	0.468479
Cu92	Cu	0.035582	0.044273	0.436522
O93	O	0.082426	-0.044211	0.513146
N94	N	0.013063	0.111726	0.414043
N95	N	0.090453	-0.465282	0.837001
O96	O	0.085913	-0.581648	0.992925
O97	O	-0.008857	-0.452947	0.992970
O98	O	-0.008635	-0.534562	0.992946
O99	O	0.085691	-0.500033	0.992949
O100	O	0.018365	-0.507512	0.911855
O101	O	0.018143	-0.425898	0.911878
O102	O	0.112912	-0.554598	0.911834
Cu103	Cu	0.067993	-0.487778	0.904452
Cu104	Cu	0.036063	-0.519767	1.000352
O105	O	0.112691	-0.472984	0.911857
N106	N	0.013602	-0.542269	1.067803
C107	C	0.031188	-0.423114	0.392334
C108	C	0.132194	-0.524016	0.392223
C109	C	0.072056	-0.584366	0.512840
C110	C	-0.028950	-0.483464	0.512950
C111	C	0.551868	-0.563965	0.532655
C112	C	0.551766	-0.563697	0.431617
C113	C	0.551623	-0.443070	0.371586
C114	C	0.551728	-0.443339	0.472623
C115	C	0.132090	-0.003555	0.392006
C116	C	0.031035	-0.003698	0.392374
C117	C	-0.028947	-0.003703	0.512961
C118	C	0.072143	-0.003661	0.512626
C119	C	-0.008408	-0.423209	0.952430
C120	C	-0.008128	-0.524272	0.952385
C121	C	0.112464	-0.584336	0.952374
C122	C	0.112190	-0.483267	0.952401
H123	H	0.050098	-0.392105	0.730957
C124	C	0.035610	-0.388567	0.567683
H125	H	0.018301	-0.368665	0.587612
H126	H	0.027207	-0.371244	0.538838
H127	H	0.027264	-0.417441	0.585004
H128	H	0.052703	-0.782242	0.350169
H129	H	0.551560	-0.413310	0.334638
C130	C	0.181890	-0.003211	0.351685
H131	H	0.181892	-0.003149	0.323369
H132	H	0.187659	0.025144	0.344104
H133	H	0.206842	-0.031417	0.362706
C134	C	0.551713	-0.403296	0.482600
H135	H	0.551751	-0.415215	0.514878
H136	H	0.579964	-0.394386	0.460086
H137	H	0.523406	-0.375583	0.478999
H138	H	0.023621	-0.003702	0.362756
C139	C	0.021255	-0.373137	0.352245
H140	H	-0.011025	-0.352723	0.364122
H141	H	0.043767	-0.358490	0.343345
H142	H	0.024888	-0.377367	0.324538
H143	H	-0.065895	-0.003715	0.542725
C144	C	-0.048603	-0.373278	0.952449
H145	H	-0.036829	-0.352791	0.952457
H146	H	-0.057475	-0.358685	0.924175
H147	H	-0.076303	-0.377555	0.980735
H148	H	0.551779	-0.593338	0.424228
H149	H	0.142219	-0.621297	0.952354
C150	C	0.182131	-0.533847	0.352070
H151	H	0.202596	-0.566119	0.363891
H152	H	0.177866	-0.530181	0.324370
H153	H	0.196745	-0.511309	0.343183
C154	C	-0.048146	-0.534231	0.952338
H155	H	-0.076525	-0.506044	0.952342
H156	H	-0.036871	-0.541960	0.924046
H157	H	-0.055736	-0.560832	0.980607
H158	H	0.079554	-0.003651	0.542242
C159	C	0.152225	-0.473287	0.952391
H160	H	0.140308	-0.440997	0.952396
H161	H	0.161122	-0.495782	0.980661
H162	H	0.179944	-0.476915	0.924101
H163	H	0.080878	-0.361206	0.638363
C164	C	0.081985	-0.634344	0.552928
H165	H	0.053790	-0.634480	0.581292
H166	H	0.089706	-0.659127	0.541708
H167	H	0.108581	-0.640253	0.560522
C168	C	0.210625	-0.476083	0.480116
H169	H	0.193297	-0.484477	0.471783
H170	H	0.230552	-0.458807	0.451233
H171	H	0.230522	-0.504934	0.497468
C172	C	0.210863	-0.476065	0.738118
H173	H	0.193574	-0.484442	0.772178
H174	H	0.230779	-0.504922	0.729739
H175	H	0.230765	-0.458732	0.729736
C176	C	0.246494	-0.440310	0.630933
H177	H	0.263838	-0.460221	0.653423
H178	H	0.254850	-0.457623	0.611019
H179	H	0.254842	-0.411438	0.611020
H180	H	0.551918	-0.593721	0.569607
C181	C	0.246386	-0.440279	0.515740
H182	H	0.263695	-0.460186	0.495819
H183	H	0.254733	-0.411408	0.498422
H184	H	0.254788	-0.457604	0.544588
C185	C	-0.078888	-0.473637	0.553103
H186	H	-0.078962	-0.501869	0.581434
H187	H	-0.084820	-0.447056	0.560731
H188	H	-0.103693	-0.465932	0.541917
C189	C	0.230391	-0.483261	0.592578
H190	H	0.252910	-0.515352	0.594435
H191	H	0.210502	-0.481966	0.624561
H192	H	0.210458	-0.474723	0.575202
H193	H	0.080840	-0.361208	0.594989
H194	H	0.330277	-0.504737	0.554712
H195	H	0.237625	-0.324046	0.528499
C196	C	0.337510	-0.345525	0.490640
H197	H	0.371566	-0.362784	0.481526
H198	H	0.329117	-0.322152	0.462284
H199	H	0.329161	-0.329389	0.511642
C200	C	0.202556	-0.325059	0.472031
H201	H	0.207425	-0.302539	0.439712
H202	H	0.233165	-0.344965	0.476906
H203	H	0.186968	-0.344977	0.476950
H204	H	-0.015291	-0.684031	0.385637
H205	H	0.087777	-0.225214	0.601924
C206	C	0.166773	-0.217866	0.436339
H207	H	0.186682	-0.240368	0.419010
H208	H	0.137896	-0.197959	0.427994
H209	H	0.184087	-0.197947	0.427960
H210	H	0.118680	-0.317820	0.632757
H211	H	-0.090673	-0.532769	0.266460
C212	C	-0.063189	-0.487620	0.166565
H213	H	-0.083130	-0.470285	0.189063
H214	H	-0.034316	-0.479278	0.146695
H215	H	-0.080472	-0.479241	0.146610
C216	C	-0.011605	-0.698377	0.273849
H217	H	0.008326	-0.715713	0.251352
H218	H	0.005674	-0.706765	0.293809
H219	H	-0.040487	-0.706709	0.293715
C220	C	0.024265	-0.662708	0.166663
H221	H	0.032680	-0.645408	0.132605
H222	H	0.053099	-0.682650	0.175084
H223	H	0.006932	-0.682590	0.174996
C224	C	-0.063427	-0.487612	0.337329
H225	H	-0.049122	-0.482248	0.351713
H226	H	-0.051640	-0.473293	0.302891
H227	H	-0.097868	-0.473241	0.349018
C228	C	0.023894	-0.662690	0.425000
H229	H	0.032253	-0.645387	0.433398
H230	H	0.006545	-0.682580	0.453842
H231	H	0.052768	-0.682624	0.407710
C232	C	0.031272	-0.682354	0.312348
H233	H	0.014032	-0.648292	0.303223
H234	H	0.047371	-0.690731	0.333392
H235	H	0.054671	-0.690743	0.283996
C236	C	-0.106508	-0.789374	0.414000
H237	H	-0.089266	-0.823436	0.423117
H238	H	-0.129902	-0.780985	0.442349
H239	H	-0.122613	-0.781000	0.392959
C240	C	-0.142160	-0.682185	0.378211
H241	H	-0.159263	-0.704673	0.395059
H242	H	-0.154157	-0.662262	0.396913
H243	H	-0.146843	-0.662279	0.347515
C244	C	-0.127002	-0.654490	0.432747
H245	H	-0.149551	-0.659363	0.465051
H246	H	-0.107097	-0.685097	0.427867
H247	H	-0.107090	-0.638927	0.427882
H248	H	-0.226875	-0.615140	0.453976
C249	C	-0.233918	-0.531171	0.293170
H250	H	-0.267981	-0.522767	0.310441
H251	H	-0.225519	-0.502330	0.273266
H252	H	-0.225535	-0.548498	0.273255
C253	C	-0.126727	-0.567013	0.257606
H254	H	-0.149198	-0.547085	0.240238
H255	H	-0.106806	-0.549725	0.249274
H256	H	-0.106820	-0.595892	0.249259
H257	H	-0.090726	-0.532768	0.309877
