data_functionalizedCrystal
_audit_creation_method	'MofGen! by Chris Wilmer'
_symmetry_space_group_name_H-M	'P1'
_symmetry_Int_Tables_number	1
_symmetry_cell_setting	triclinic
loop_
_symmetry_equiv_pos_as_xyz
  x,y,z
_cell_length_a	27.732048
_cell_length_b	27.732048
_cell_length_c	26.210047
_cell_angle_alpha	90.018179
_cell_angle_beta	89.983939
_cell_angle_gamma	82.642655
loop_
_atom_site_label
_atom_site_type_symbol
_atom_site_fract_x
_atom_site_fract_y
_atom_site_fract_z
O1	O	0.640916	0.057524	0.042369
O2	O	1.140916	0.557524	0.542369
O3	O	0.500122	0.066270	0.042385
O4	O	1.000122	0.566270	0.542385
O5	O	0.574892	-0.008500	0.042367
O6	O	1.074892	0.491500	0.542367
O7	O	0.566146	0.132294	0.042387
O8	O	1.066146	0.632294	0.542387
O9	O	0.574908	-0.008517	-0.042491
O10	O	1.074908	0.491483	0.457509
O11	O	0.500139	0.066253	-0.042473
O12	O	1.000139	0.566253	0.457527
O13	O	0.640932	0.057507	-0.042489
O14	O	1.140932	0.557507	0.457511
Cu15	Cu	0.570537	0.061878	-0.050229
Cu16	Cu	1.070537	0.561878	0.449771
Cu17	Cu	0.570517	0.061899	0.050125
Cu18	Cu	1.070517	0.561899	0.550125
O19	O	0.566163	0.132277	-0.042471
O20	O	1.066163	0.632277	0.457529
C21	C	0.482124	0.066078	-0.000042
C22	C	0.982124	0.566078	0.499958
C23	C	0.428469	0.065525	-0.000036
C24	C	0.928469	0.565525	0.499964
C25	C	0.574716	-0.026515	-0.000064
C26	C	1.074716	0.473485	0.499936
C27	C	0.574164	-0.080170	-0.000068
C28	C	1.074164	0.419830	0.499932
C29	C	0.089654	0.106229	-0.000053
C30	C	0.589654	0.606229	0.499947
C31	C	-0.112006	0.104178	-0.000057
C32	C	0.387994	0.604178	0.499943
O33	O	-0.143262	0.141398	-0.000074
O34	O	0.356738	0.641398	0.499926
N35	N	-0.131130	0.059843	-0.000063
N36	N	0.368870	0.559843	0.499937
C37	C	-0.099835	0.016017	-0.000071
C38	C	0.400165	0.516017	0.499929
O39	O	-0.120728	-0.021740	-0.000081
O40	O	0.379272	0.478260	0.499919
C41	C	0.101824	0.018068	-0.000069
C42	C	0.601824	0.518068	0.499931
C43	C	0.120944	0.062407	-0.000059
C44	C	0.620944	0.562407	0.499941
C45	C	0.108775	0.150563	-0.000043
C46	C	0.608775	0.650563	0.499957
C47	C	0.159187	0.151075	-0.000039
C48	C	0.659187	0.651075	0.499961
C49	C	0.190478	0.107253	-0.000045
C50	C	0.690478	0.607253	0.499955
C51	C	0.171356	0.062919	-0.000055
C52	C	0.671356	0.562919	0.499945
C53	C	0.133117	-0.025757	-0.000081
C54	C	0.633117	0.474243	0.499919
C55	C	0.183535	-0.025240	-0.000082
C56	C	0.683535	0.474760	0.499918
C57	C	0.202655	0.019098	-0.000071
C58	C	0.702655	0.519098	0.499929
C59	C	0.253059	0.019609	-0.000057
C60	C	0.753059	0.519609	0.499943
N61	N	0.272183	0.063944	-0.000051
N62	N	0.772183	0.563944	0.499949
C63	C	0.240892	0.107766	-0.000045
C64	C	0.740892	0.607766	0.499955
C65	C	-0.205709	0.014943	-0.000070
C66	C	0.294291	0.514943	0.499930
C67	C	-0.256124	0.014430	-0.000070
C68	C	0.243876	0.514430	0.499930
C69	C	-0.268291	0.102591	-0.000057
C70	C	0.231709	0.602591	0.499943
C71	C	-0.217876	0.103103	-0.000054
C72	C	0.282124	0.603103	0.499946
C73	C	-0.186585	0.059278	-0.000065
C74	C	0.313415	0.559278	0.499935
C75	C	0.346761	0.108839	-0.000036
C76	C	0.846761	0.608839	0.499964
C77	C	0.397178	0.109347	-0.000030
C78	C	0.897178	0.609347	0.499970
C79	C	0.409341	0.021186	-0.000045
C80	C	0.909341	0.521186	0.499955
C81	C	0.358929	0.020678	-0.000049
C82	C	0.858929	0.520678	0.499951
C83	C	0.327639	0.064508	-0.000046
C84	C	0.827639	0.564508	0.499954
O85	O	0.284343	-0.017592	-0.000046
O86	O	0.784343	0.482408	0.499954
O87	O	0.261794	0.145518	-0.000047
O88	O	0.761794	0.645518	0.499953
C89	C	0.039242	0.105716	-0.000057
C90	C	0.539242	0.605716	0.499943
C91	C	0.020120	0.061382	-0.000067
C92	C	0.520120	0.561382	0.499933
C93	C	0.051411	0.017560	-0.000073
C94	C	0.551411	0.517560	0.499927
C95	C	-0.030294	0.060869	-0.000066
C96	C	0.469706	0.560869	0.499934
C97	C	-0.061585	0.104691	-0.000060
C98	C	0.438415	0.604691	0.499940
C99	C	-0.042461	0.149026	-0.000054
C100	C	0.457539	0.649026	0.499946
C101	C	0.007951	0.149539	-0.000050
C102	C	0.507951	0.649539	0.499950
C103	C	0.032287	-0.026775	-0.000078
C104	C	0.532287	0.473225	0.499922
C105	C	-0.018125	-0.027284	-0.000082
C106	C	0.481875	0.472716	0.499918
C107	C	-0.049416	0.016538	-0.000076
C108	C	0.450584	0.516538	0.499924
C109	C	0.614867	-0.418985	-0.000046
C110	C	1.114867	0.081015	0.499954
C111	C	0.612816	-0.620645	-0.000039
C112	C	1.112816	-0.120645	0.499961
O113	O	0.650037	-0.651900	-0.000021
O114	O	1.150037	-0.151900	0.499979
N115	N	0.568481	-0.639768	-0.000034
N116	N	1.068481	-0.139768	0.499966
C117	C	0.524656	-0.608474	-0.000028
C118	C	1.024656	-0.108474	0.499972
O119	O	0.486899	-0.629367	-0.000019
O120	O	0.986899	-0.129367	0.499981
C121	C	0.526707	-0.406815	-0.000032
C122	C	1.026707	0.093185	0.499968
C123	C	0.571045	-0.387694	-0.000042
C124	C	1.071045	0.112306	0.499958
C125	C	0.659202	-0.399864	-0.000056
C126	C	1.159202	0.100136	0.499944
C127	C	0.659714	-0.349452	-0.000060
C128	C	1.159714	0.150548	0.499940
C129	C	0.615892	-0.318161	-0.000056
C130	C	1.115892	0.181839	0.499944
C131	C	0.571557	-0.337282	-0.000046
C132	C	1.071557	0.162718	0.499954
C133	C	0.482882	-0.375521	-0.000022
C134	C	0.982882	0.124479	0.499978
C135	C	0.483399	-0.325104	-0.000022
C136	C	0.983399	0.174896	0.499978
C137	C	0.527737	-0.305983	-0.000032
C138	C	1.027737	0.194017	0.499968
C139	C	0.528248	-0.255580	-0.000046
C140	C	1.028248	0.244420	0.499954
N141	N	0.572583	-0.236456	-0.000051
N142	N	1.072583	0.263544	0.499949
C143	C	0.616405	-0.267747	-0.000056
C144	C	1.116405	0.232253	0.499944
C145	C	0.523582	-0.714348	-0.000027
C146	C	1.023582	-0.214348	0.499973
C147	C	0.523069	-0.764762	-0.000027
C148	C	1.023069	-0.264762	0.499973
C149	C	0.611230	-0.776930	-0.000037
C150	C	1.111230	-0.276930	0.499963
C151	C	0.611742	-0.726514	-0.000041
C152	C	1.111742	-0.226514	0.499959
C153	C	0.567917	-0.695224	-0.000032
C154	C	1.067917	-0.195224	0.499968
C155	C	0.617477	-0.161878	-0.000066
C156	C	1.117477	0.338122	0.499934
C157	C	0.617986	-0.111461	-0.000073
C158	C	1.117986	0.388539	0.499927
C159	C	0.529825	-0.099298	-0.000060
C160	C	1.029825	0.400702	0.499940
C161	C	0.529316	-0.149710	-0.000056
C162	C	1.029316	0.350290	0.499944
C163	C	0.573147	-0.180999	-0.000057
C164	C	1.073147	0.319001	0.499943
O165	O	0.491047	-0.224296	-0.000059
O166	O	0.991047	0.275704	0.499941
O167	O	0.654156	-0.246844	-0.000054
O168	O	1.154156	0.253156	0.499946
C169	C	0.614355	-0.469397	-0.000042
C170	C	1.114355	0.030603	0.499958
C171	C	0.570021	-0.488518	-0.000033
C172	C	1.070021	0.011482	0.499967
C173	C	0.526198	-0.457228	-0.000028
C174	C	1.026198	0.042772	0.499972
C175	C	0.569508	-0.538933	-0.000033
C176	C	1.069508	-0.038933	0.499967
C177	C	0.613330	-0.570223	-0.000037
C178	C	1.113330	-0.070223	0.499963
C179	C	0.657665	-0.551100	-0.000042
C180	C	1.157665	-0.051100	0.499958
C181	C	0.658177	-0.500688	-0.000046
C182	C	1.158177	-0.000688	0.499954
C183	C	0.481863	-0.476351	-0.000023
C184	C	0.981863	0.023649	0.499977
C185	C	0.481355	-0.526764	-0.000019
C186	C	0.981355	-0.026764	0.499981
C187	C	0.525177	-0.558054	-0.000024
C188	C	1.025177	-0.058054	0.499976
C189	C	0.658931	0.057699	-0.000061
C190	C	1.158931	0.557699	0.499939
C191	C	0.712586	0.058252	-0.000064
C192	C	1.212586	0.558252	0.499936
C193	C	0.566338	0.150292	-0.000040
C194	C	1.066338	0.650292	0.499960
C195	C	0.566891	0.203947	-0.000032
C196	C	1.066891	0.703947	0.499968
N197	N	0.570504	0.061909	0.120709
N198	N	1.070504	0.561909	0.620709
N199	N	0.570554	0.061864	-0.120813
N200	N	1.070554	0.561864	0.379187
C201	C	0.537363	0.094936	0.526684
C202	C	1.037363	0.594936	1.026684
C203	C	0.537349	0.094945	0.313026
C204	C	1.037349	0.594945	0.813026
O205	O	0.509151	0.123059	0.285414
O206	O	1.009151	0.623059	0.785414
N207	N	0.570516	0.061905	0.286293
N208	N	1.070516	0.561905	0.786293
C209	C	0.603692	0.028862	0.312977
C210	C	1.103692	0.528862	0.812977
O211	O	0.631906	0.000762	0.285337
O212	O	1.131906	0.500762	0.785337
C213	C	0.603708	0.028855	0.526635
C214	C	1.103708	0.528855	1.026635
C215	C	0.570535	0.061895	0.553365
C216	C	1.070535	0.561895	1.053365
C217	C	0.504193	0.127973	0.553415
C218	C	1.004193	0.627973	1.053415
C219	C	0.504195	0.127969	0.606826
C220	C	1.004195	0.627969	1.106826
C221	C	0.537367	0.094927	0.633507
C222	C	1.037367	0.594927	1.133507
C223	C	0.570537	0.061890	0.606777
C224	C	1.070537	0.561890	1.106777
C225	C	0.636886	-0.004185	0.553319
C226	C	1.136886	0.495815	1.053319
C227	C	0.636888	-0.004183	0.606737
C228	C	1.136888	0.495817	1.106737
C229	C	0.603715	0.028856	0.633467
C230	C	1.103715	0.528856	1.133467
C231	C	0.603712	0.028844	0.686869
C232	C	1.103712	0.528844	1.186869
N233	N	0.570544	0.061885	0.713603
N234	N	1.070544	0.561885	1.213603
C235	C	0.537372	0.094926	0.686922
C236	C	1.037372	0.594926	1.186922
C237	C	0.603681	0.028867	0.200804
C238	C	1.103681	0.528867	0.700804
C239	C	0.603676	0.028868	0.147390
C240	C	1.103676	0.528868	0.647390
C241	C	0.537333	0.094952	0.147442
C242	C	1.037333	0.594952	0.647442
C243	C	0.537336	0.094948	0.200857
C244	C	1.037336	0.594948	0.700857
C245	C	0.570513	0.061907	0.227537
C246	C	1.070513	0.561907	0.727537
C247	C	0.537378	0.094914	0.799089
C248	C	1.037378	0.594914	1.299089
C249	C	0.537382	0.094905	0.852506
C250	C	1.037382	0.594905	1.352506
C251	C	0.603727	0.028823	0.852449
C252	C	1.103727	0.528823	1.352449
C253	C	0.603721	0.028830	0.799037
C254	C	1.103721	0.528830	1.299037
C255	C	0.570545	0.061879	0.772359
C256	C	1.070545	0.561879	1.272359
O257	O	0.631898	0.000749	0.714514
O258	O	1.131898	0.500749	1.214514
O259	O	0.509169	0.123029	0.714571
O260	O	1.009169	0.623029	1.214571
C261	C	0.537361	0.094940	0.473273
C262	C	1.037361	0.594940	0.973273
C263	C	0.570531	0.061903	0.446543
C264	C	1.070531	0.561903	0.946543
C265	C	0.603703	0.028862	0.473224
C266	C	1.103703	0.528862	0.973224
C267	C	0.570526	0.061904	0.393128
C268	C	1.070526	0.561904	0.893128
C269	C	0.537354	0.094946	0.366447
C270	C	1.037354	0.594946	0.866447
C271	C	0.504186	0.127986	0.393181
C272	C	1.004186	0.627986	0.893181
C273	C	0.504188	0.127982	0.446592
C274	C	1.004188	0.627982	0.946592
C275	C	0.636871	-0.004179	0.446490
C276	C	1.136871	0.495821	0.946490
C277	C	0.636866	-0.004172	0.393079
C278	C	1.136866	0.495828	0.893079
C279	C	0.603693	0.028870	0.366398
C280	C	1.103693	0.528870	0.866398
H281	H	0.321291	0.144530	-0.000036
H282	H	0.821291	0.644530	0.499964
H283	H	0.663899	-0.031089	0.531562
H284	H	1.163899	0.468911	1.031562
H285	H	0.663906	-0.031089	0.628457
H286	H	1.163906	0.468911	1.128457
O287	O	0.439692	-0.021413	-0.000119
O288	O	0.939692	0.478587	0.499881
C289	C	0.431099	-0.048356	-0.044081
C290	C	0.931099	0.451644	0.455919
H291	H	0.392769	-0.036200	-0.058731
H292	H	0.892769	0.463800	0.441269
H293	H	0.434942	-0.088697	-0.034206
H294	H	0.934942	0.411303	0.465794
H295	H	0.458638	-0.041957	-0.074853
H296	H	0.958638	0.458043	0.425147
O297	O	0.177676	0.194189	-0.000057
O298	O	0.677676	0.694189	0.499943
C299	C	0.139240	0.232752	-0.000041
C300	C	0.639240	0.732752	0.499959
H301	H	0.105094	0.219452	-0.016106
H302	H	0.605094	0.719452	0.483894
H303	H	0.149551	0.263724	-0.024677
H304	H	0.649551	0.763724	0.475323
H305	H	0.131994	0.246262	0.040670
H306	H	0.631994	0.746262	0.540670
H307	H	0.477176	0.154886	0.468352
H308	H	0.977176	0.654886	0.968352
H309	H	0.647846	-0.710950	-0.000048
H310	H	1.147846	-0.210950	0.499952
H311	H	0.493213	-0.165279	-0.000062
H312	H	0.993213	0.334721	0.499938
O313	O	0.653755	-0.807399	-0.000015
O314	O	1.153755	-0.307399	0.499985
C315	C	0.643789	-0.855994	-0.000025
C316	C	1.143789	-0.355994	0.499975
H317	H	0.605829	-0.857637	0.016038
H318	H	1.105829	-0.357637	0.516038
H319	H	0.671733	-0.879034	0.024616
H320	H	1.171733	-0.379034	0.524616
H321	H	0.645746	-0.870606	-0.040734
H322	H	1.145746	-0.370606	0.459266
H323	H	0.510322	0.121855	0.125709
H324	H	1.010322	0.621855	0.625709
H325	H	0.486964	-0.780325	-0.000028
H326	H	0.986964	-0.280325	0.499972
O327	O	0.635962	-0.003203	0.773016
O328	O	1.135962	0.496797	1.273016
C329	C	0.665543	0.022542	0.742132
C330	C	1.165543	0.522542	1.242132
H331	H	0.645941	0.060473	0.734147
H332	H	1.145941	0.560473	1.234147
H333	H	0.673382	0.002323	0.704563
H334	H	1.173382	0.502323	1.204563
H335	H	0.701225	0.025649	0.762713
H336	H	1.201225	0.525649	1.262713
H337	H	-0.033688	-0.063392	-0.000086
H338	H	0.466312	0.436608	0.499914
O339	O	0.635897	-0.003263	0.878444
O340	O	1.135897	0.496737	1.378444
C341	C	0.610329	-0.032978	0.909355
C342	C	1.110329	0.467022	1.409355
H343	H	0.572317	-0.013562	0.917357
H344	H	1.072317	0.486438	1.417357
H345	H	0.630572	-0.040678	0.946914
H346	H	1.130572	0.459322	1.446914
H347	H	0.607422	-0.068720	0.888789
H348	H	1.107422	0.431280	1.388789
O349	O	0.439824	-0.394112	-0.000098
O350	O	0.939824	0.105888	0.499902
C351	C	0.436890	-0.422936	-0.044035
C352	C	0.936890	0.077064	0.455965
H353	H	0.462061	-0.411214	-0.074763
H354	H	0.962061	0.088786	0.425237
H355	H	0.397898	-0.418126	-0.058774
H356	H	0.897898	0.081874	0.441226
H357	H	0.448337	-0.462776	-0.034098
H358	H	0.948337	0.037224	0.465902
H359	H	-0.271687	-0.021674	-0.000070
H360	H	0.228313	0.478326	0.499930
O361	O	0.471930	0.160002	0.632813
O362	O	0.971930	0.660002	1.132813
C363	C	0.442365	0.134266	0.663725
C364	C	0.942365	0.634266	1.163725
H365	H	0.441902	0.096138	0.647621
H366	H	0.941902	0.596138	1.147621
H367	H	0.403771	0.154190	0.664350
H368	H	0.903771	0.654190	1.164350
H369	H	0.457515	0.131658	0.704201
H370	H	0.957515	0.631658	1.204201
H371	H	0.023514	0.185643	-0.000042
H372	H	0.523514	0.685643	0.499958
H373	H	0.447710	-0.299629	-0.000014
H374	H	0.947710	0.200371	0.499986
H375	H	0.057760	-0.062462	-0.000085
H376	H	0.557760	0.437538	0.499915
H377	H	-0.180236	-0.020747	-0.000079
H378	H	0.319764	0.479253	0.499921
H379	H	0.083302	0.186251	-0.000039
H380	H	0.583302	0.686251	0.499961
H381	H	0.477174	0.154888	0.371448
H382	H	0.977174	0.654888	0.871448
O383	O	0.480962	-0.684024	-0.000046
O384	O	0.980962	-0.184024	0.499954
C385	C	0.441727	-0.711721	-0.000031
C386	C	0.941727	-0.211721	0.499969
H387	H	0.454295	-0.749446	-0.016096
H388	H	0.954295	-0.249446	0.483904
H389	H	0.411050	-0.692913	-0.024667
H390	H	0.911050	-0.192913	0.475333
H391	H	0.428108	-0.715199	0.040680
H392	H	0.928108	-0.215199	0.540680
H393	H	0.494146	-0.073812	-0.000058
H394	H	0.994146	0.426188	0.499942
O395	O	0.439304	-0.445940	0.000070
O396	O	0.939304	0.054060	0.500070
C397	C	0.436951	-0.416386	0.044009
C398	C	0.936951	0.083614	0.544009
H399	H	0.461806	-0.435014	0.074727
H400	H	0.961806	0.064986	0.574727
H401	H	0.397967	-0.410434	0.058763
H402	H	0.897967	0.089566	0.558763
H403	H	0.449177	-0.379814	0.034067
H404	H	0.949177	0.120186	0.534067
O405	O	0.701290	-0.482198	-0.000030
O406	O	1.201290	0.017802	0.499970
C407	C	0.739853	-0.520634	-0.000045
C408	C	1.239853	-0.020634	0.499955
H409	H	0.726555	-0.554779	0.016022
H410	H	1.226555	-0.054779	0.516022
H411	H	0.770828	-0.510321	0.024588
H412	H	1.270828	-0.010321	0.524588
H413	H	0.753360	-0.527884	-0.040757
H414	H	1.253360	-0.027884	0.459243
H415	H	0.654093	-0.095896	-0.000082
H416	H	1.154093	0.404104	0.499918
O417	O	0.700222	-0.581520	0.000045
O418	O	1.200222	-0.081520	0.500045
C419	C	0.702541	-0.611036	0.043990
C420	C	1.202541	-0.111036	0.543990
H421	H	0.677676	-0.592373	0.074708
H422	H	1.177676	-0.092373	0.574708
H423	H	0.741517	-0.616990	0.058741
H424	H	1.241517	-0.116990	0.558741
H425	H	0.690306	-0.647610	0.034058
H426	H	1.190306	-0.147610	0.534058
O427	O	0.415691	0.152451	0.000048
O428	O	0.915691	0.652451	0.500048
C429	C	0.399661	0.179143	0.044006
C430	C	0.899661	0.679143	0.544006
H431	H	0.364784	0.166235	0.058653
H432	H	0.864784	0.666235	0.558653
H433	H	0.392367	0.219448	0.034128
H434	H	0.892367	0.719448	0.534128
H435	H	0.428867	0.173331	0.074782
H436	H	0.928867	0.673331	0.574782
O437	O	-0.199384	0.146216	-0.000070
O438	O	0.300616	0.646216	0.499930
C439	C	-0.237819	0.184781	-0.000049
C440	C	0.262181	0.684781	0.499951
H441	H	-0.271966	0.171485	-0.016115
H442	H	0.228034	0.671485	0.483885
H443	H	-0.227507	0.215755	-0.024682
H444	H	0.272493	0.715755	0.475318
H445	H	-0.245063	0.198287	0.040664
H446	H	0.254937	0.698287	0.540664
H447	H	0.663878	-0.031081	0.371319
H448	H	1.163878	0.468919	0.871319
O449	O	0.471899	0.160023	0.527525
O450	O	0.971899	0.660023	1.027525
C451	C	0.424141	0.152401	0.540612
C452	C	0.924141	0.652401	1.040612
H453	H	0.424279	0.113688	0.555277
H454	H	0.924279	0.613688	1.055277
H455	H	0.399825	0.158086	0.505502
H456	H	0.899825	0.658086	1.005502
H457	H	0.409700	0.179265	0.571638
H458	H	0.909700	0.679265	1.071638
O459	O	0.438238	-0.545254	0.000012
O460	O	0.938238	-0.045254	0.500012
C461	C	0.399673	-0.506819	0.000004
C462	C	0.899673	-0.006819	0.500004
H463	H	0.412964	-0.472661	0.016060
H464	H	0.912964	0.027339	0.516060
H465	H	0.368692	-0.517114	0.024650
H466	H	0.868692	-0.017114	0.524650
H467	H	0.386179	-0.499603	-0.040705
H468	H	0.886179	0.000397	0.459295
O469	O	0.505138	0.127049	0.878392
O470	O	1.005138	0.627049	1.378392
C471	C	0.475854	0.156205	0.843384
C472	C	0.975854	0.656205	1.343384
H473	H	0.495662	0.156654	0.805303
H474	H	0.995662	0.656654	1.305303
H475	H	0.468117	0.194855	0.858833
H476	H	0.968117	0.694855	1.358833
H477	H	0.440103	0.140684	0.837708
H478	H	0.940103	0.640684	1.337708
H479	H	0.630698	0.001960	0.222523
H480	H	1.130698	0.501960	0.722523
O481	O	0.660098	-0.192199	-0.000092
O482	O	1.160098	0.307801	0.499908
C483	C	0.699333	-0.164502	-0.000088
C484	C	1.199333	0.335498	0.499912
H485	H	0.686772	-0.126788	-0.016153
H486	H	1.186772	0.373212	0.483847
H487	H	0.730020	-0.183328	-0.024730
H488	H	1.230020	0.316672	0.475270
H489	H	0.712935	-0.160994	0.040620
H490	H	1.212935	0.339006	0.540620
H491	H	-0.293777	0.138273	-0.000053
H492	H	0.206223	0.638273	0.499947
O493	O	0.505162	0.127112	0.226798
O494	O	1.005162	0.627112	0.726798
C495	C	0.512557	0.174935	0.213744
C496	C	1.012557	0.674935	0.713744
H497	H	0.551245	0.174978	0.199047
H498	H	1.051245	0.674978	0.699047
H499	H	0.506770	0.199232	0.248878
H500	H	1.006770	0.699232	0.748878
H501	H	0.485637	0.189266	0.182752
H502	H	0.985637	0.689266	0.682752
O503	O	0.114632	-0.068870	-0.000119
O504	O	0.614632	0.431130	0.499881
C505	C	0.153070	-0.107432	-0.000116
C506	C	0.653070	0.392568	0.499884
H507	H	0.187225	-0.094137	-0.016173
H508	H	0.687225	0.405863	0.483827
H509	H	0.142775	-0.138413	-0.024765
H510	H	0.642775	0.361587	0.475235
H511	H	0.160291	-0.120929	0.040591
H512	H	0.660291	0.379071	0.540591
O513	O	0.213978	-0.067781	-0.000022
O514	O	0.713978	0.432219	0.499978
C515	C	0.243481	-0.070123	0.043935
C516	C	0.743481	0.429877	0.543935
H517	H	0.245747	-0.031773	0.058595
H518	H	0.745747	0.468227	0.558595
H519	H	0.281510	-0.088422	0.034050
H520	H	0.781510	0.411578	0.534050
H521	H	0.227042	-0.092067	0.074704
H522	H	0.727042	0.407933	0.574704
O523	O	0.340408	-0.022421	0.000015
O524	O	0.840408	0.477579	0.500015
C525	C	0.356399	-0.049097	0.043968
C526	C	0.856399	0.450903	0.543968
H527	H	0.391267	-0.036189	0.058627
H528	H	0.891267	0.463811	0.558627
H529	H	0.363695	-0.089407	0.034078
H530	H	0.863695	0.410593	0.534078
H531	H	0.327169	-0.043268	0.074739
H532	H	0.827169	0.456732	0.574739
O533	O	0.635943	-0.003249	0.121506
O534	O	1.135943	0.496751	0.621506
C535	C	0.665213	-0.032418	0.156516
C536	C	1.165213	0.467582	0.656516
H537	H	0.665571	-0.012595	0.194597
H538	H	1.165571	0.487405	0.694597
H539	H	0.703875	-0.039986	0.141070
H540	H	1.203875	0.460014	0.641070
H541	H	0.649861	-0.068258	0.162192
H542	H	1.149861	0.431742	0.662192
O543	O	-0.072911	0.191564	0.000019
O544	O	0.427089	0.691564	0.500019
C545	C	-0.102444	0.193917	0.043973
C546	C	0.397556	0.693917	0.543973
H547	H	-0.104712	0.155571	0.058620
H548	H	0.395288	0.655571	0.558620
H549	H	-0.140469	0.212204	0.034088
H550	H	0.359531	0.712204	0.534088
H551	H	-0.086032	0.215878	0.074751
H552	H	0.413968	0.715878	0.574751
O553	O	0.702797	-0.330906	0.000026
O554	O	1.202797	0.169094	0.500026
C555	C	0.729479	-0.346928	0.043967
C556	C	1.229479	0.153072	0.543967
H557	H	0.703536	-0.357210	0.074686
H558	H	1.203536	0.142790	0.574686
H559	H	0.749815	-0.316534	0.058717
H560	H	1.249815	0.183466	0.558717
H561	H	0.756662	-0.379994	0.034029
H562	H	1.256662	0.120006	0.534029
O563	O	0.701762	-0.430274	0.000029
O564	O	1.201762	0.069726	0.500029
C565	C	0.704100	-0.459797	0.043970
C566	C	1.204100	0.040203	0.543970
H567	H	0.679233	-0.441148	0.074693
H568	H	1.179233	0.058852	0.574693
H569	H	0.743079	-0.465737	0.058714
H570	H	1.243079	0.034263	0.558714
H571	H	0.691880	-0.496377	0.034035
H572	H	1.191880	0.003623	0.534035
O573	O	0.669113	-0.036325	0.472325
O574	O	1.169113	0.463675	0.972325
C575	C	0.698392	-0.065474	0.437270
C576	C	1.198392	0.434526	0.937270
H577	H	0.678579	-0.065912	0.399202
H578	H	1.178579	0.434088	0.899202
H579	H	0.706128	-0.104128	0.452678
H580	H	1.206128	0.395872	0.952678
H581	H	0.734143	-0.049955	0.431583
H582	H	1.234143	0.450045	0.931583
H583	H	0.510364	0.121827	0.777374
H584	H	1.010364	0.621827	1.277374
