data_functionalizedCrystal
_audit_creation_method	'MofGen! by Chris Wilmer'
_symmetry_space_group_name_H-M	'P1'
_symmetry_Int_Tables_number	1
_symmetry_cell_setting	triclinic
loop_
_symmetry_equiv_pos_as_xyz
  x,y,z
_cell_length_a	25.639239
_cell_length_b	16.120490
_cell_length_c	16.120297
_cell_angle_alpha	90.129683
_cell_angle_beta	92.868703
_cell_angle_gamma	87.130891
loop_
_atom_site_label
_atom_site_type_symbol
_atom_site_fract_x
_atom_site_fract_y
_atom_site_fract_z
Zn1	Zn	-0.264925	1.247336	-0.534506
Zn2	Zn	-0.348157	1.254252	-0.395439
Zn3	Zn	-0.256086	1.115330	-0.388428
Zn4	Zn	-0.347671	1.108208	-0.527412
O5	O	-0.304210	1.181282	-0.461446
O6	O	-0.279869	1.364619	-0.521961
O7	O	-0.332448	1.241699	-0.278144
O8	O	-0.184097	1.132927	-0.407840
O9	O	-0.341019	1.369700	-0.419789
O10	O	-0.190591	1.229911	-0.515163
O11	O	-0.264804	1.139633	-0.272993
O12	O	-0.264332	0.998020	-0.400961
O13	O	-0.340190	1.120789	-0.644718
O14	O	-0.331619	0.992788	-0.503072
O15	O	-0.279397	1.223006	-0.649930
O16	O	-0.421254	1.234793	-0.412911
O17	O	-0.420897	1.127495	-0.509871
C18	C	-0.296964	0.965232	-0.450487
C19	C	-0.293877	0.872803	-0.445818
C20	C	-0.320217	0.659830	-0.485665
C21	C	-0.288246	0.703581	-0.437293
C22	C	-0.291380	0.797745	-0.442038
C23	C	-0.317084	0.565658	-0.480921
C24	C	-0.440046	1.181144	-0.461401
C25	C	-0.498161	1.181159	-0.461413
C26	C	-0.858710	1.237286	-0.411057
C27	C	-0.913316	1.237318	-0.411069
O28	O	-0.941705	1.284895	-0.368205
N29	N	-0.940455	1.181425	-0.461509
C30	C	-0.912986	1.125503	-0.511945
O31	O	-0.941085	1.077965	-0.554849
C32	C	-0.858382	1.125476	-0.511936
C33	C	-0.831245	1.181366	-0.461487
C34	C	-0.831573	1.293173	-0.360613
C35	C	-0.776971	1.293140	-0.360599
C36	C	-0.749506	1.237220	-0.411029
C37	C	-0.776643	1.181333	-0.461473
C38	C	-0.830914	1.069558	-0.562375
C39	C	-0.776306	1.069536	-0.562363
C40	C	-0.749169	1.125427	-0.511914
C41	C	-0.694576	1.125381	-0.511890
N42	N	-0.667437	1.181274	-0.461451
C43	C	-0.694902	1.237193	-0.411020
C44	C	-1.027660	1.125565	-0.511960
C45	C	-1.082263	1.125587	-0.511966
C46	C	-1.082589	1.237403	-0.411091
C47	C	-1.027984	1.237376	-0.411083
C48	C	-1.000520	1.181457	-0.461521
C49	C	-0.580234	1.237119	-0.410995
C50	C	-0.525627	1.237079	-0.410983
C51	C	-0.525306	1.125266	-0.511860
C52	C	-0.579908	1.125303	-0.511869
C53	C	-0.607370	1.181237	-0.461434
O54	O	-0.666153	1.077830	-0.554734
O55	O	-0.666797	1.284730	-0.368132
C56	C	-0.167844	1.181442	-0.461511
C57	C	-0.109733	1.181510	-0.461538
C58	C	-0.310725	1.170332	-0.678340
C59	C	-0.313502	1.165666	-0.770767
C60	C	-0.311484	1.398176	-0.472449
C61	C	-0.314584	1.490603	-0.477137
C62	C	-0.318559	1.157116	-0.939991
C63	C	-0.289709	1.205612	-0.983761
C64	C	-0.292523	1.200854	-1.077923
C65	C	-0.315746	1.161872	-0.845820
C66	C	-0.297683	1.192237	-0.245399
C67	C	-0.294765	1.197064	-0.152980
H68	H	-0.258522	0.670317	-0.392317
F69	F	-0.359070	0.703306	-0.544441
H70	H	-0.602587	1.282667	-0.369928
F71	F	-0.353603	1.098184	-0.983443
F72	F	-0.254673	1.264564	-0.940310
H73	H	-1.104352	1.080068	-0.553038
H74	H	-0.754880	1.338653	-0.319522
F75	F	-0.496748	1.296568	-0.357286
H76	H	-0.853000	1.024042	-0.603452
F77	F	-0.860796	1.352696	-0.306935
F78	F	-0.747080	1.010020	-0.616050
F79	F	-0.999108	1.296862	-0.357389
F80	F	-0.998435	1.066039	-0.565642
F81	F	-1.111828	1.296917	-0.357417
F82	F	-0.608789	1.065804	-0.565546
H83	H	-0.502935	1.079735	-0.552917
