data_functionalizedCrystal
_audit_creation_method	'MofGen! by Chris Wilmer'
_symmetry_space_group_name_H-M	'P1'
_symmetry_Int_Tables_number	1
_symmetry_cell_setting	triclinic
loop_
_symmetry_equiv_pos_as_xyz
  x,y,z
_cell_length_a	16.625548
_cell_length_b	11.169416
_cell_length_c	11.169409
_cell_angle_alpha	89.969126
_cell_angle_beta	89.976847
_cell_angle_gamma	90.011408
loop_
_atom_site_label
_atom_site_type_symbol
_atom_site_fract_x
_atom_site_fract_y
_atom_site_fract_z
Zn1	Zn	1.232769	-0.477676	-0.678662
Zn2	Zn	1.732769	0.022324	-0.178662
Zn3	Zn	1.232695	-0.678416	-0.477984
Zn4	Zn	1.732695	-0.178416	0.022016
Zn5	Zn	1.097925	-0.477750	-0.477984
Zn6	Zn	1.597925	0.022250	0.022016
Zn7	Zn	1.097930	-0.678319	-0.678617
Zn8	Zn	1.597930	-0.178319	-0.178617
O9	O	1.165330	-0.578040	-0.578312
O10	O	1.665330	-0.078040	-0.078312
O11	O	1.345592	-0.504314	-0.652060
O12	O	1.845592	-0.004314	-0.152060
O13	O	1.214784	-0.651869	-0.310034
O14	O	1.714784	-0.151869	0.189966
O15	O	1.115841	-0.309790	-0.504624
O16	O	1.615841	0.190210	-0.004624
O17	O	1.345537	-0.651797	-0.504622
O18	O	1.845537	-0.151797	-0.004622
O19	O	1.214911	-0.309736	-0.652060
O20	O	1.714911	0.190264	-0.152060
O21	O	1.115769	-0.504440	-0.310034
O22	O	1.615769	-0.004440	0.189966
O23	O	0.985093	-0.504346	-0.504580
O24	O	1.485093	-0.004346	-0.004580
O25	O	1.115850	-0.651632	-0.846573
O26	O	1.615850	-0.151632	-0.346573
O27	O	0.985097	-0.651703	-0.651984
O28	O	1.485097	-0.151703	-0.151984
O29	O	1.214915	-0.504220	-0.846605
O30	O	1.714915	-0.004220	-0.346605
O31	O	1.214789	-0.846353	-0.504579
O32	O	1.714789	-0.346353	-0.004579
O33	O	1.115778	-0.846282	-0.651983
O34	O	1.615778	-0.346282	-0.151983
C35	C	1.165298	-0.889865	-0.578302
C36	C	1.665298	-0.389865	-0.078302
C37	C	1.165358	-1.023265	-0.578339
C38	C	1.665358	-0.523265	-0.078339
C39	C	0.955839	-0.578023	-0.578278
C40	C	1.455839	-0.078023	-0.078278
C41	C	0.866218	-0.578045	-0.578292
C42	C	1.366218	-0.078045	-0.078292
C43	C	0.538042	-0.578052	-0.578343
C44	C	1.038042	-0.078052	-0.078343
C45	C	0.629350	-0.578047	-0.578325
C46	C	1.129350	-0.078047	-0.078325
C47	C	0.702127	-0.578049	-0.578317
C48	C	1.202127	-0.078049	-0.078317
C49	C	0.793441	-0.578042	-0.578301
C50	C	1.293441	-0.078042	-0.078301
C51	C	1.375638	-0.578058	-0.578346
C52	C	1.875638	-0.078058	-0.078346
C53	C	1.465260	-0.578066	-0.578361
C54	C	1.965260	-0.078066	-0.078361
C55	C	1.165391	-0.577907	-0.891354
C56	C	1.665391	-0.077907	-0.391354
C57	C	1.165418	-0.577850	-1.024754
C58	C	1.665418	-0.077850	-0.524754
C59	C	1.165384	-0.264998	-0.578347
C60	C	1.665384	0.235002	-0.078347
C61	C	1.165407	-0.131598	-0.578362
C62	C	1.665407	0.368402	-0.078362
C63	C	1.165314	-0.578086	-0.266487
C64	C	1.665314	-0.078086	0.233513
C65	C	1.165444	-0.577805	-0.133087
C66	C	1.665444	-0.077805	0.366913
