data_functionalizedCrystal
_audit_creation_method	'MofGen! by Chris Wilmer'
_symmetry_space_group_name_H-M	'P1'
_symmetry_Int_Tables_number	1
_symmetry_cell_setting	triclinic
loop_
_symmetry_equiv_pos_as_xyz
  x,y,z
_cell_length_a	16.109301
_cell_length_b	12.376457
_cell_length_c	16.109301
_cell_angle_alpha	101.271640
_cell_angle_beta	96.538519
_cell_angle_gamma	101.287118
loop_
_atom_site_label
_atom_site_type_symbol
_atom_site_fract_x
_atom_site_fract_y
_atom_site_fract_z
O1	O	1.119069	0.093935	-0.090939
O2	O	1.619069	0.593935	0.409061
O3	O	0.877010	0.093954	-0.104235
O4	O	1.377010	0.593954	0.395765
O5	O	1.004687	0.093933	0.023442
O6	O	1.504687	0.593933	0.523442
O7	O	0.991392	0.093957	-0.218616
O8	O	1.491392	0.593957	0.281384
O9	O	0.972779	-0.094074	-0.008434
O10	O	1.472779	0.405926	0.491566
O11	O	0.845102	-0.094053	-0.136111
O12	O	1.345102	0.405947	0.363889
O13	O	1.087161	-0.094071	-0.122815
O14	O	1.587161	0.405929	0.377185
Zn15	Zn	0.961065	-0.123912	-0.134524
Zn16	Zn	1.461065	0.376088	0.365476
Zn17	Zn	1.003105	0.123795	-0.092526
Zn18	Zn	1.503105	0.623795	0.407474
O19	O	0.959484	-0.094050	-0.250492
O20	O	1.459484	0.405950	0.249508
C21	C	0.830081	-0.000047	-0.119634
C22	C	1.330081	0.499953	0.380366
C23	C	0.737787	-0.000041	-0.118018
C24	C	1.237787	0.499959	0.381982
N25	N	0.932380	-0.292966	-0.163185
N26	N	1.432380	0.207034	0.336815
C27	C	0.515514	-0.000047	-0.190026
C28	C	1.015514	0.499953	0.309974
C29	C	0.428792	-0.000054	-0.188503
C30	C	0.928792	0.499946	0.311497
C31	C	0.448665	-0.000064	-0.037016
C32	C	0.948665	0.499936	0.462984
C33	C	0.535383	-0.000065	-0.038541
C34	C	1.035383	0.499935	0.461459
C35	C	0.568806	-0.000050	-0.115048
C36	C	1.068806	0.499950	0.384952
C37	C	0.395366	-0.000057	-0.112000
C38	C	0.895366	0.499943	0.388000
C39	C	0.301339	-0.000065	-0.110348
C40	C	0.801339	0.499935	0.389652
C41	C	0.662839	-0.000045	-0.116700
C42	C	1.162839	0.499955	0.383300
C43	C	1.098385	-0.647978	0.002692
C44	C	1.598385	-0.147978	0.502692
C45	C	1.118457	-0.529642	0.022753
C46	C	1.618457	-0.029642	0.522753
C47	C	1.071939	-0.470467	-0.023730
C48	C	1.571939	0.029533	0.476270
C49	C	1.005346	-0.529640	-0.090277
C50	C	1.505346	-0.029640	0.409723
C51	C	0.985277	-0.647988	-0.110344
C52	C	1.485277	-0.147988	0.389656
C53	C	0.958831	-0.470477	-0.136766
C54	C	1.458831	0.029523	0.363234
C55	C	0.892238	-0.529650	-0.203313
C56	C	1.392238	-0.029650	0.296687
C57	C	0.872172	-0.647987	-0.223376
C58	C	1.372172	-0.147987	0.276624
C59	C	0.918689	-0.707162	-0.176894
C60	C	1.418689	-0.207162	0.323106
C61	C	0.978901	-0.352129	-0.116699
C62	C	1.478901	0.147871	0.383301
C63	C	0.865793	-0.352139	-0.229735
C64	C	1.365793	0.147861	0.270265
C65	C	0.845721	-0.470476	-0.249796
C66	C	1.345721	0.029524	0.250204
C67	C	1.134090	-0.000068	-0.107415
C68	C	1.634090	0.499932	0.392585
C69	C	1.226385	-0.000067	-0.109030
C70	C	1.726385	0.499933	0.390970
C71	C	0.988194	-0.000071	0.038479
C72	C	1.488194	0.499929	0.538479
C73	C	0.986579	-0.000073	0.130774
C74	C	1.486579	0.499927	0.630774
N75	N	1.031797	0.292848	-0.063858
N76	N	1.531797	0.792848	0.436142
C77	C	0.975977	-0.000044	-0.265528
C78	C	1.475977	0.499956	0.234472
C79	C	0.977594	-0.000035	-0.357822
C80	C	1.477594	0.499965	0.142178
C81	C	1.058589	-0.000060	0.353049
C82	C	1.558589	0.499940	0.853049
C83	C	1.057066	-0.000051	0.439771
C84	C	1.557066	0.499949	0.939771
C85	C	0.905579	-0.000044	0.419897
C86	C	1.405579	0.499956	0.919897
C87	C	0.907103	-0.000045	0.333178
C88	C	1.407103	0.499955	0.833178
C89	C	0.983610	-0.000059	0.299756
C90	C	1.483610	0.499941	0.799756
C91	C	0.980563	-0.000048	0.473197
C92	C	1.480563	0.499952	0.973197
C93	C	0.978911	-0.000038	0.567224
C94	C	1.478911	0.499962	1.067224
C95	C	0.985262	-0.000067	0.205722
C96	C	1.485262	0.499933	0.705722
H97	H	0.385404	-0.000053	-0.249559
H98	H	0.885404	0.499947	0.250441
H99	H	0.817954	-0.696166	-0.277569
H100	H	1.317954	-0.196166	0.222431
H101	H	0.542722	-0.000043	-0.252324
H102	H	1.042722	0.499957	0.247676
O103	O	0.416328	-0.000114	0.037364
O104	O	0.916328	0.499886	0.537364
C105	C	0.481969	-0.000088	0.103221
C106	C	0.981969	0.499912	0.603221
H107	H	0.534830	-0.035688	0.073895
H108	H	1.034830	0.464312	0.573895
H109	H	0.454600	-0.054667	0.147386
H110	H	0.954600	0.445333	0.647386
H111	H	0.509555	0.090108	0.141633
H112	H	1.009555	0.590108	0.641633
H113	H	0.578776	-0.000071	0.022518
H114	H	1.078776	0.499929	0.522518
H115	H	0.846043	-0.000041	0.289785
H116	H	1.346043	0.499959	0.789785
O117	O	0.831199	0.000013	0.452236
O118	O	1.331199	0.500013	0.952236
C119	C	0.765343	-0.000012	0.386594
C120	C	1.265343	0.499988	0.886594
H121	H	0.794675	0.035580	0.333724
H122	H	1.294675	0.535580	0.833724
H123	H	0.721192	0.054575	0.413952
H124	H	1.221192	0.554575	0.913952
H125	H	0.726910	-0.090207	0.359029
H126	H	1.226910	0.409793	0.859029
H127	H	0.791500	-0.518669	-0.303980
H128	H	1.291500	-0.018669	0.196020
H129	H	1.033121	-0.303961	-0.062517
H130	H	1.533121	0.196039	0.437483
H131	H	0.827915	-0.303960	-0.267587
H132	H	1.327915	0.196040	0.232413
H133	H	1.088285	-0.374112	-0.007393
H134	H	1.588285	0.125888	0.492607
H135	H	1.172676	-0.481467	0.076934
H136	H	1.672676	0.018533	0.576934
H137	H	1.136258	-0.696166	0.040528
H138	H	1.636258	-0.196166	0.540528
O139	O	0.899062	-0.822117	-0.196313
O140	O	1.399062	-0.322117	0.303687
C141	C	0.813438	-0.861668	-0.186115
C142	C	1.313438	-0.361668	0.313885
H143	H	0.792525	-0.793475	-0.140065
H144	H	1.292525	-0.293475	0.359935
H145	H	0.808302	-0.940838	-0.159094
H146	H	1.308302	-0.440838	0.340906
H147	H	0.770249	-0.882673	-0.250937
H148	H	1.270249	-0.382673	0.249063
H149	H	1.118122	-0.000049	0.483159
H150	H	1.618122	0.499951	0.983159
H151	H	1.120885	-0.000069	0.325839
H152	H	1.620885	0.499931	0.825839
