data_functionalizedCrystal
_audit_creation_method	'MofGen! by Chris Wilmer'
_symmetry_space_group_name_H-M	'P1'
_symmetry_Int_Tables_number	1
_symmetry_cell_setting	triclinic
loop_
_symmetry_equiv_pos_as_xyz
  x,y,z
_cell_length_a	29.839131
_cell_length_b	17.640112
_cell_length_c	29.839135
_cell_angle_alpha	78.815776
_cell_angle_beta	90.015241
_cell_angle_gamma	101.262129
loop_
_atom_site_label
_atom_site_type_symbol
_atom_site_fract_x
_atom_site_fract_y
_atom_site_fract_z
Zn1	Zn	-0.039919	1.208270	0.115396
Zn2	Zn	-0.115029	1.208178	0.040266
Zn3	Zn	-0.055111	1.076115	0.055436
Zn4	Zn	-0.130241	1.076024	0.130525
O5	O	-0.085075	1.142147	0.085406
O6	O	-0.037159	1.318872	0.092749
O7	O	-0.107072	1.190659	-0.020589
O8	O	0.009780	1.093722	0.063407
O9	O	-0.092341	1.318805	0.037552
O10	O	0.020941	1.190816	0.107459
O11	O	-0.063050	1.093633	-0.009443
O12	O	-0.077801	0.965488	0.078078
O13	O	-0.118269	1.093567	0.191385
O14	O	-0.132999	0.965421	0.133245
O15	O	-0.051910	1.190727	0.180270
O16	O	-0.179923	1.190571	0.052222
O17	O	-0.191099	1.093478	0.118535
C18	C	-0.108700	0.936774	0.108950
C19	C	-0.118817	0.848914	0.119032
C20	C	-0.008205	0.560020	0.008812
C21	C	-0.017721	0.477463	0.018292
C22	C	-0.075278	0.477447	0.075639
C23	C	-0.065765	0.560006	0.066165
C24	C	-0.032229	0.601286	0.032751
C25	C	-0.089789	0.601272	0.090104
C26	C	-0.080278	0.683824	0.080629
C27	C	-0.046744	0.725110	0.047215
C28	C	-0.022718	0.683838	0.023276
C29	C	-0.123328	0.559991	0.123516
C30	C	-0.147351	0.601257	0.147455
C31	C	-0.137838	0.683811	0.137982
C32	C	-0.104304	0.725096	0.104569
C33	C	-0.161865	0.725083	0.161922
C34	C	-0.152354	0.807634	0.152447
C35	C	-0.094794	0.807648	0.095093
C36	C	-0.201812	1.142026	0.085382
C37	C	-0.251744	1.142047	0.085378
C38	C	-0.555530	1.192692	0.108386
C39	C	-0.743194	1.192778	0.108403
O40	O	-0.762492	1.235721	0.127950
N41	N	-0.772502	1.142281	0.085440
C42	C	-0.754892	1.091755	0.062474
O43	O	-0.784127	1.048800	0.042947
C44	C	-0.567230	1.091666	0.062460
C45	C	-0.537923	1.142172	0.085420
C46	C	-0.526224	1.243194	0.131345
C47	C	-0.479311	1.243175	0.131338
C48	C	-0.461704	1.192654	0.108373
C49	C	-0.491010	1.142153	0.085414
C50	C	-0.549622	1.041136	0.039497
C51	C	-0.502703	1.041117	0.039496
C52	C	-0.473396	1.091623	0.062457
C53	C	-0.426490	1.091614	0.062442
N54	N	-0.397182	1.142111	0.085404
C55	C	-0.414789	1.192631	0.108370
C56	C	-0.853417	1.091806	0.062482
C57	C	-0.900332	1.091829	0.062485
C58	C	-0.888630	1.192852	0.108415
C59	C	-0.841714	1.192832	0.108409
C60	C	-0.824109	1.142304	0.085445
C61	C	-0.316268	1.192588	0.108354
C62	C	-0.269351	1.192567	0.108344
C63	C	-0.281057	1.091542	0.062416
C64	C	-0.327969	1.091566	0.062424
C65	C	-0.345574	1.142092	0.085396
O66	O	-0.407160	1.048687	0.042909
O67	O	-0.385548	1.235567	0.127902
C68	C	-0.602444	1.192711	0.108392
C69	C	-0.631750	1.142210	0.085434
C70	C	-0.614143	1.091689	0.062468
C71	C	-0.678665	1.142233	0.085436
C72	C	-0.696272	1.192753	0.108402
C73	C	-0.666964	1.243251	0.131365
C74	C	-0.620051	1.243232	0.131358
C75	C	-0.643451	1.041192	0.039505
C76	C	-0.690364	1.041216	0.039513
C77	C	-0.707971	1.091736	0.062479
C78	C	0.032120	1.142289	0.085437
C79	C	0.082061	1.142350	0.085451
C80	C	-0.085092	1.142147	0.202584
C81	C	-0.085099	1.142147	0.252518
C82	C	-0.061358	1.348321	0.061770
C83	C	-0.051252	1.436181	0.051698
C84	C	-0.050525	1.192737	0.556377
C85	C	-0.050519	1.192743	0.744049
O86	O	-0.021126	1.235740	0.763398
N87	N	-0.085069	1.142160	0.773302
C88	C	-0.119621	1.091568	0.755635
O89	O	-0.149005	1.048538	0.784823
C90	C	-0.119625	1.091558	0.567964
C91	C	-0.085075	1.142151	0.538712
C92	C	-0.015978	1.243325	0.527126
C93	C	-0.015982	1.243326	0.480211
C94	C	-0.050532	1.192739	0.462546
C95	C	-0.085078	1.142152	0.491797
C96	C	-0.154174	1.040963	0.550297
C97	C	-0.154171	1.040964	0.503376
C98	C	-0.119622	1.091556	0.474125
C99	C	-0.119632	1.091566	0.427216
N100	N	-0.085082	1.142150	0.397964
C101	C	-0.050532	1.192736	0.415628
C102	C	-0.119617	1.091577	0.854164
C103	C	-0.119617	1.091581	0.901082
C104	C	-0.050515	1.192755	0.889493
C105	C	-0.050517	1.192755	0.842575
C106	C	-0.085067	1.142161	0.824912
C107	C	-0.050542	1.192735	0.317103
C108	C	-0.050549	1.192734	0.270183
C109	C	-0.119649	1.091557	0.281776
C110	C	-0.119644	1.091561	0.328691
C111	C	-0.085086	1.142152	0.346353
O112	O	-0.149007	1.048586	0.407837
O113	O	-0.021147	1.235747	0.386434
C114	C	-0.050522	1.192736	0.603293
C115	C	-0.085069	1.142149	0.632543
C116	C	-0.119619	1.091562	0.614879
C117	C	-0.085069	1.142152	0.679461
C118	C	-0.050519	1.192738	0.697126
C119	C	-0.015969	1.243322	0.667873
C120	C	-0.015972	1.243323	0.620958
C121	C	-0.154168	1.040979	0.644131
C122	C	-0.154163	1.040983	0.691046
C123	C	-0.119613	1.091569	0.708711
C124	C	-0.085070	1.142147	0.968683
C125	C	-0.085067	1.142167	0.918746
H126	H	-0.174658	0.567636	0.174660
F127	F	-0.544955	1.296966	0.155792
F128	F	-0.036624	0.812970	0.037129
H129	H	-0.131070	0.492772	0.131230
F130	F	-0.177923	0.851555	0.177924
F131	F	-0.013744	1.246593	0.908301
H132	H	-0.924189	1.050711	0.043783
H133	H	0.001847	0.443867	-0.001201
F134	F	-0.834687	1.038021	0.038041
H135	H	-0.573476	1.000009	0.020800
F136	F	-0.359160	1.037822	0.037981
H137	H	-0.245489	1.233698	0.127040
H138	H	0.012153	1.284522	0.456398
F139	F	-0.190945	0.987111	0.484581
H140	H	0.004597	0.717450	-0.003927
H141	H	-0.147755	1.050378	0.839788
F142	F	-0.907377	1.246620	0.132856
H143	H	0.012162	1.284520	0.597145
F144	F	0.020795	1.297178	0.545918
H145	H	-0.189173	0.691460	0.189125
H146	H	-0.488372	0.999968	0.020797
F147	F	-0.059097	0.851586	0.059533
F148	F	-0.262309	1.037778	0.037975
H149	H	-0.147780	1.050373	0.267384
H150	H	-0.596192	1.284358	0.150055
F151	F	-0.448126	1.296926	0.155779
H152	H	-0.714222	1.000089	0.020812
F153	F	-0.013745	1.246601	0.811447
H154	H	-0.330596	1.233726	0.127064
H155	H	-0.817854	1.233958	0.127106
F156	F	0.020801	1.297162	0.686681
F157	F	-0.190943	0.987134	0.625338
H158	H	-0.681307	1.284389	0.150062
H159	H	-0.182301	0.999786	0.714859
H160	H	-0.022400	1.233929	0.331477
F161	F	-0.624720	0.987415	0.015063
F162	F	-0.190948	0.987117	0.581419
H163	H	-0.022414	1.233935	0.246368
F164	F	-0.156417	1.037720	0.359823
F165	F	0.027491	0.603957	-0.026749
F166	F	-0.156394	1.037745	0.932207
F167	F	-0.110974	0.433506	0.111196
