data_functionalizedCrystal
_audit_creation_method	'MofGen! by Chris Wilmer'
_symmetry_space_group_name_H-M	'P1'
_symmetry_Int_Tables_number	1
_symmetry_cell_setting	triclinic
loop_
_symmetry_equiv_pos_as_xyz
  x,y,z
_cell_length_a	18.050591
_cell_length_b	18.215405
_cell_length_c	18.215399
_cell_angle_alpha	90.030551
_cell_angle_beta	89.974300
_cell_angle_gamma	89.979109
loop_
_atom_site_label
_atom_site_type_symbol
_atom_site_fract_x
_atom_site_fract_y
_atom_site_fract_z
Zn1	Zn	1.135345	0.293070	-0.416218
Zn2	Zn	1.635345	0.793070	0.083782
Zn3	Zn	1.135252	0.416141	-0.293146
Zn4	Zn	1.635252	0.916141	0.206854
Zn5	Zn	1.011154	0.293085	-0.293152
Zn6	Zn	1.511154	0.793085	0.206848
Zn7	Zn	1.011119	0.416091	-0.416158
Zn8	Zn	1.511119	0.916091	0.083842
O9	O	1.073217	0.354597	-0.354669
O10	O	1.573217	0.854597	0.145331
O11	O	1.239257	0.309411	-0.399914
O12	O	1.739257	0.809411	0.100086
O13	O	1.118766	0.399845	-0.190162
O14	O	1.618766	0.899845	0.309838
O15	O	1.027681	0.190099	-0.309505
O16	O	1.527681	0.690099	0.190495
O17	O	1.239189	0.399831	-0.309494
O18	O	1.739189	0.899831	0.190506
O19	O	1.118924	0.190088	-0.399921
O20	O	1.618924	0.690088	0.100079
O21	O	1.027591	0.309436	-0.190167
O22	O	1.527591	0.809436	0.309833
O23	O	0.907224	0.309387	-0.309447
O24	O	1.407224	0.809387	0.190553
O25	O	1.027622	0.399745	-0.519150
O26	O	1.527622	0.899745	-0.019150
O27	O	0.907199	0.399759	-0.399819
O28	O	1.407199	0.899759	0.100181
O29	O	1.118890	0.309362	-0.519194
O30	O	1.618890	0.809362	-0.019194
O31	O	1.118733	0.519119	-0.309436
O32	O	1.618733	1.019119	0.190564
O33	O	1.027533	0.519082	-0.399813
O34	O	1.527533	1.019082	0.100187
C35	C	0.880265	0.354569	-0.354628
C36	C	1.380265	0.854569	0.145372
C37	C	0.797720	0.354575	-0.354628
C38	C	1.297720	0.854575	0.145372
C39	C	1.073139	0.545803	-0.354633
C40	C	1.573139	1.045803	0.145367
C41	C	1.073173	0.627602	-0.354643
C42	C	1.573173	1.127602	0.145357
C43	C	1.073263	0.354546	-0.546622
C44	C	1.573263	0.854546	-0.046622
C45	C	1.073282	0.354524	-0.628420
C46	C	1.573282	0.854524	-0.128420
C47	C	0.598261	0.305374	-0.305597
C48	C	1.098261	0.805374	0.194403
C49	C	0.548844	0.372499	-0.287483
C50	C	1.048844	0.872499	0.212517
C51	C	0.646589	0.354598	-0.354661
C52	C	1.146589	0.854598	0.145339
C53	C	0.548925	0.287496	-0.372773
C54	C	1.048925	0.787496	0.127227
C55	C	0.500604	0.354613	-0.354692
C56	C	1.000604	0.854613	0.145308
C57	C	0.598259	0.421758	-0.336512
C58	C	1.098259	0.921758	0.163488
C59	C	0.598344	0.336710	-0.421833
C60	C	1.098344	0.836710	0.078167
C61	C	0.548949	0.403881	-0.403745
C62	C	1.048949	0.903881	0.096255
C63	C	0.730687	0.354588	-0.354642
C64	C	1.230687	0.854588	0.145358
C65	C	0.416508	0.354631	-0.354712
C66	C	0.916508	0.854631	0.145288
C67	C	1.266923	0.354625	-0.354710
C68	C	1.766923	0.854625	0.145290
C69	C	1.349469	0.354637	-0.354727
C70	C	1.849469	0.854637	0.145273
C71	C	1.073316	0.162644	-0.354720
C72	C	1.573316	0.662644	0.145280
C73	C	1.073359	0.080845	-0.354742
C74	C	1.573359	0.580845	0.145258
C75	C	1.120773	0.815791	-0.307670
C76	C	1.620773	1.315791	0.192330
C77	C	1.120806	0.892650	-0.307688
C78	C	1.620806	1.392650	0.192312
C79	C	1.025757	0.892651	-0.401720
C80	C	1.525757	1.392651	0.098280
C81	C	1.025728	0.815794	-0.401705
C82	C	1.525728	1.315794	0.098295
C83	C	1.073235	0.777365	-0.354676
C84	C	1.573235	1.277365	0.145324
C85	C	1.073297	0.931082	-0.354709
C86	C	1.573297	1.431082	0.145291
C87	C	1.073333	1.014415	-0.354728
C88	C	1.573333	1.514415	0.145272
C89	C	1.073201	0.694027	-0.354657
C90	C	1.573201	1.194027	0.145343
C91	C	1.120822	0.307418	-0.816639
C92	C	1.620822	0.807418	-0.316639
C93	C	1.120831	0.307397	-0.893497
C94	C	1.620831	0.807397	-0.393497
C95	C	1.025794	0.401517	-0.893440
C96	C	1.525794	0.901517	-0.393440
C97	C	1.025782	0.401534	-0.816583
C98	C	1.525782	0.901534	-0.316583
C99	C	1.073300	0.354486	-0.778184
C100	C	1.573300	0.854486	-0.278184
C101	C	1.073321	0.354447	-0.931900
C102	C	1.573321	0.854447	-0.431900
C103	C	1.073331	0.354424	-1.015234
C104	C	1.573331	0.854424	-0.515234
C105	C	1.073290	0.354508	-0.694845
C106	C	1.573290	0.854508	-0.194845
C107	C	1.073215	0.354594	-0.163462
C108	C	1.573215	0.854594	0.336538
C109	C	1.073340	0.354409	-0.081664
C110	C	1.573340	0.854409	0.418336
H111	H	0.527102	0.387640	-0.230690
H112	H	1.027102	0.887640	0.269310
C113	C	1.015404	0.500542	-0.730108
C114	C	1.515404	1.000542	-0.230108
C115	C	0.973544	0.453275	-0.774305
C116	C	1.473544	0.953275	-0.274305
H117	H	0.983153	0.532478	-0.704004
H118	H	1.483153	1.032478	-0.204004
H119	H	1.047742	0.528690	-0.760091
H120	H	1.547742	1.028690	-0.260091
H121	H	1.043696	0.472513	-0.696245
H122	H	1.543696	0.972513	-0.196245
H123	H	0.945255	0.481304	-0.808172
H124	H	1.445255	0.981304	-0.308172
H125	H	0.941192	0.425124	-0.744319
H126	H	1.441192	0.925124	-0.244319
C127	C	0.545725	0.191661	-0.463273
C128	C	1.045725	0.691661	0.036727
C129	C	0.519666	0.210885	-0.393444
C130	C	1.019666	0.710885	0.106556
H131	H	0.527658	0.144366	-0.476030
H132	H	1.027658	0.644366	0.023970
H133	H	0.598340	0.190993	-0.462966
H134	H	1.098340	0.690993	0.037034
H135	H	0.528839	0.226584	-0.498184
H136	H	1.028839	0.726584	0.001816
H137	H	0.536557	0.175966	-0.358533
H138	H	1.036557	0.675966	0.141467
H139	H	0.467040	0.211548	-0.393746
H140	H	0.967040	0.711548	0.106254
C141	C	0.602505	0.268162	-0.179236
C142	C	1.102505	0.768162	0.320764
C143	C	0.627498	0.249240	-0.249528
C144	C	1.127498	0.749240	0.250472
H145	H	0.620559	0.233511	-0.144622
H146	H	1.120559	0.733511	0.355378
H147	H	0.549889	0.268091	-0.178556
H148	H	1.049889	0.768091	0.321444
H149	H	0.620128	0.315714	-0.166854
H150	H	1.120128	0.815714	0.333146
H151	H	0.609870	0.201689	-0.261912
H152	H	1.109870	0.701689	0.238088
H153	H	0.680125	0.249303	-0.250210
H154	H	1.180125	0.749303	0.249790
C155	C	1.214731	0.823512	-0.214730
C156	C	1.714731	1.323512	0.285270
C157	C	1.172997	0.773550	-0.255982
C158	C	1.672997	1.273550	0.244018
H159	H	1.246976	0.797434	-0.182824
H160	H	1.746976	1.297434	0.317176
H161	H	1.182404	0.853532	-0.186553
H162	H	1.682404	1.353532	0.313447
H163	H	1.243127	0.853446	-0.246840
H164	H	1.743127	1.353446	0.253160
H165	H	1.144597	0.743619	-0.223873
H166	H	1.644597	1.243619	0.276127
H167	H	1.205328	0.743518	-0.284162
H168	H	1.705328	1.243518	0.215838
C169	C	1.220794	0.978948	-0.297646
C170	C	1.720794	1.478948	0.202354
C171	C	1.173110	0.934859	-0.256043
C172	C	1.673110	1.434859	0.243957
H173	H	1.253103	1.004993	-0.265769
H174	H	1.753103	1.504993	0.234231
H175	H	1.192508	1.012855	-0.325621
H176	H	1.692508	1.512855	0.174379
H177	H	1.249118	0.948892	-0.329755
H178	H	1.749118	1.448892	0.170245
H179	H	1.144782	0.964915	-0.223938
H180	H	1.644782	1.464915	0.276062
H181	H	1.201399	0.900948	-0.228056
H182	H	1.701399	1.400948	0.271944
H183	H	0.987108	0.439824	-0.924714
H184	H	1.487108	0.939824	-0.424714
C185	C	0.704955	0.497683	-0.315896
C186	C	1.204955	0.997683	0.184104
C187	C	0.627385	0.498395	-0.315755
C188	C	1.127385	0.998395	0.184245
H189	H	0.722935	0.544994	-0.303076
H190	H	1.222935	1.044994	0.196924
H191	H	0.722310	0.484896	-0.363449
H192	H	1.222310	0.984896	0.136551
H193	H	0.722226	0.462684	-0.281249
H194	H	1.222226	0.962684	0.218751
H195	H	0.610114	0.533391	-0.350407
H196	H	1.110114	1.033391	0.149593
H197	H	0.610023	0.511191	-0.268196
H198	H	1.110023	1.011191	0.231804
C199	C	0.983590	1.010469	-0.443488
C200	C	1.483590	1.510469	0.056512
C201	C	0.973532	0.934894	-0.453405
C202	C	1.473532	1.434894	0.046595
H203	H	0.951342	1.036545	-0.475393
H204	H	1.451342	1.536545	0.024607
H205	H	1.033480	1.023018	-0.454318
H206	H	1.533480	1.523018	0.045682
H207	H	0.972758	1.023099	-0.394029
H208	H	1.472758	1.523099	0.105971
H209	H	0.984369	0.922263	-0.502863
H210	H	1.484369	1.422263	-0.002863
H211	H	0.923631	0.922339	-0.442580
H212	H	1.423631	1.422339	0.057420
H213	H	0.527434	0.445563	-0.445250
H214	H	1.027434	0.945563	0.054750
H215	H	0.987017	0.784506	-0.439987
H216	H	1.487017	1.284506	0.060013
H217	H	1.159513	0.269106	-0.785376
H218	H	1.659513	0.769106	-0.285376
C219	C	0.705293	0.317115	-0.497782
C220	C	1.205293	0.817115	0.002218
C221	C	0.627729	0.316243	-0.498477
C222	C	1.127729	0.816243	0.001523
H223	H	0.723434	0.304477	-0.545099
H224	H	1.223434	0.804477	-0.045099
H225	H	0.722903	0.282632	-0.462796
H226	H	1.222903	0.782632	0.037204
H227	H	0.722145	0.364834	-0.484990
H228	H	1.222145	0.864834	0.015010
H229	H	0.610877	0.268523	-0.511264
H230	H	1.110877	0.768523	-0.011264
H231	H	0.610112	0.350727	-0.533474
H232	H	1.110112	0.850727	-0.033474
H233	H	1.159527	0.269068	-0.924803
H234	H	1.659527	0.769068	-0.424803
