data_functionalizedCrystal
_audit_creation_method	'MofGen! by Chris Wilmer'
_symmetry_space_group_name_H-M	'P1'
_symmetry_Int_Tables_number	1
_symmetry_cell_setting	triclinic
loop_
_symmetry_equiv_pos_as_xyz
  x,y,z
_cell_length_a	14.519709
_cell_length_b	22.610064
_cell_length_c	14.519709
_cell_angle_alpha	89.996868
_cell_angle_beta	83.680145
_cell_angle_gamma	90.002631
loop_
_atom_site_label
_atom_site_type_symbol
_atom_site_fract_x
_atom_site_fract_y
_atom_site_fract_z
O1	O	1.223874	0.049109	0.120879
O2	O	1.723874	0.549109	0.620879
O3	O	0.955397	0.049127	0.135115
O4	O	1.455397	0.549127	0.635115
O5	O	1.096754	0.049112	-0.006241
O6	O	1.596754	0.549112	0.493759
O7	O	1.082517	0.049124	0.262235
O8	O	1.582517	0.549124	0.762235
O9	O	1.096729	-0.049257	-0.006221
O10	O	1.596729	0.450743	0.493779
O11	O	0.955372	-0.049242	0.135136
O12	O	1.455372	0.450758	0.635136
O13	O	1.223849	-0.049260	0.120899
O14	O	1.723849	0.450740	0.620899
Zn15	Zn	1.089606	-0.064869	0.128021
Zn16	Zn	1.589606	0.435131	0.628021
Zn17	Zn	1.089639	0.064736	0.127994
Zn18	Zn	1.589639	0.564736	0.627994
O19	O	1.082492	-0.049245	0.262256
O20	O	1.582492	0.450755	0.762256
C21	C	0.921025	-0.000055	0.134462
C22	C	1.421025	0.499945	0.634462
C23	C	0.818643	-0.000048	0.132474
C24	C	1.318643	0.499952	0.632474
C25	C	0.443748	-0.000076	0.125154
C26	C	0.943748	0.499924	0.625154
C27	C	0.548056	-0.000068	0.127187
C28	C	1.048056	0.499932	0.627187
C29	C	0.631192	-0.000062	0.128814
C30	C	1.131192	0.499938	0.628814
C31	C	0.735507	-0.000055	0.130847
C32	C	1.235507	0.499945	0.630847
N33	N	1.089591	-0.153322	0.128039
N34	N	1.589591	0.346678	0.628039
C35	C	1.152235	-0.561970	0.065411
C36	C	1.652235	-0.061970	0.565411
C37	C	1.152240	-0.623890	0.065404
C38	C	1.652240	-0.123890	0.565404
O39	O	1.205463	-0.655914	0.012169
O40	O	1.705463	-0.155914	0.512169
N41	N	1.089639	-0.654859	0.127975
N42	N	1.589639	-0.154859	0.627975
C43	C	1.027022	-0.623905	0.190550
C44	C	1.527022	-0.123905	0.690550
O45	O	0.973775	-0.655933	0.243770
O46	O	1.473775	-0.155933	0.743770
C47	C	1.027014	-0.561986	0.190551
C48	C	1.527014	-0.061986	0.690551
C49	C	1.089626	-0.531020	0.127983
C50	C	1.589626	-0.031020	0.627983
C51	C	1.214841	-0.531004	0.002846
C52	C	1.714841	-0.031004	0.502846
C53	C	1.214837	-0.469088	0.002855
C54	C	1.714837	0.030912	0.502855
C55	C	1.152227	-0.438139	0.065427
C56	C	1.652227	0.061861	0.565427
C57	C	1.089622	-0.469105	0.127991
C58	C	1.589622	0.030895	0.627991
C59	C	0.964394	-0.531034	0.253121
C60	C	1.464394	-0.031034	0.753121
C61	C	0.964391	-0.469111	0.253117
C62	C	1.464391	0.030889	0.753117
C63	C	1.027002	-0.438145	0.190548
C64	C	1.527002	0.061855	0.690548
C65	C	1.027009	-0.376240	0.190571
C66	C	1.527009	0.123760	0.690571
N67	N	1.089610	-0.345270	0.128000
N68	N	1.589610	0.154730	0.628000
C69	C	1.152219	-0.376220	0.065428
C70	C	1.652219	0.123780	0.565428
C71	C	1.027044	-0.753939	0.190541
C72	C	1.527044	-0.253939	0.690541
C73	C	1.027056	-0.815856	0.190544
C74	C	1.527056	-0.315856	0.690544
C75	C	1.152272	-0.815837	0.065397
C76	C	1.652272	-0.315837	0.565397
C77	C	1.152264	-0.753918	0.065399
C78	C	1.652264	-0.253918	0.565399
C79	C	1.089645	-0.722970	0.127970
C80	C	1.589645	-0.222970	0.627970
C81	C	1.152207	-0.246193	0.065450
C82	C	1.652207	0.253807	0.565450
C83	C	1.152200	-0.184271	0.065467
C84	C	1.652200	0.315729	0.565467
C85	C	1.026981	-0.184296	0.190610
C86	C	1.526981	0.315704	0.690610
C87	C	1.026991	-0.246212	0.190598
C88	C	1.526991	0.253788	0.690598
C89	C	1.089607	-0.277159	0.128010
C90	C	1.589607	0.222841	0.628010
O91	O	0.973810	-0.344176	0.243777
O92	O	1.473810	0.155824	0.743777
O93	O	1.205449	-0.344185	0.012209
O94	O	1.705449	0.155815	0.512209
C95	C	1.258221	-0.000077	0.121553
C96	C	1.758221	0.499923	0.621553
C97	C	1.360602	-0.000080	0.123541
C98	C	1.860602	0.499920	0.623541
C99	C	1.096078	-0.000073	-0.040591
C100	C	1.596078	0.499927	0.459409
C101	C	1.094090	-0.000073	-0.142972
C102	C	1.594090	0.499927	0.357028
N103	N	1.089662	0.153189	0.127968
N104	N	1.589662	0.653189	0.627968
C105	C	1.086770	-0.000057	-0.517868
C106	C	1.586770	0.499943	-0.017868
C107	C	1.088803	-0.000061	-0.413560
C108	C	1.588803	0.499939	0.086440
C109	C	1.090430	-0.000065	-0.330423
C110	C	1.590430	0.499935	0.169577
C111	C	1.092463	-0.000069	-0.226109
C112	C	1.592463	0.499931	0.273891
C113	C	1.083168	-0.000059	0.296606
C114	C	1.583168	0.499941	0.796606
C115	C	1.085156	-0.000055	0.398987
C116	C	1.585156	0.499945	0.898987
H117	H	1.203189	-0.159061	0.014516
H118	H	1.703189	0.340939	0.514516
H119	H	1.203251	-0.841047	0.014446
H120	H	1.703251	-0.341047	0.514446
H121	H	0.976082	-0.841065	0.241503
H122	H	1.476082	-0.341065	0.741503
H123	H	0.913410	-0.556238	0.304070
H124	H	1.413410	-0.056238	0.804070
F125	F	0.960352	-0.151348	0.257203
F126	F	1.460352	0.348652	0.757203
F127	F	1.218851	-0.279119	-0.001162
F128	F	1.718851	0.220881	0.498838
F129	F	0.960398	-0.721006	0.257148
F130	F	1.460398	-0.221006	0.757148
F131	F	1.281472	-0.436138	-0.063743
F132	F	1.781472	0.063862	0.436257
H133	H	0.976016	-0.271425	0.241556
H134	H	1.476016	0.228575	0.741556
H135	H	0.913396	-0.443915	0.304069
H136	H	1.413396	0.056085	0.804069
H137	H	1.265825	-0.556198	-0.048112
H138	H	1.765825	-0.056198	0.451888
H139	H	1.203247	-0.728709	0.014450
H140	H	1.703247	-0.228709	0.514450
