data_functionalizedCrystal
_audit_creation_method	'MofGen! by Chris Wilmer'
_symmetry_space_group_name_H-M	'P1'
_symmetry_Int_Tables_number	1
_symmetry_cell_setting	triclinic
loop_
_symmetry_equiv_pos_as_xyz
  x,y,z
_cell_length_a	10.540539
_cell_length_b	15.944551
_cell_length_c	9.016244
_cell_angle_alpha	89.996810
_cell_angle_beta	89.994699
_cell_angle_gamma	84.012115
loop_
_atom_site_label
_atom_site_type_symbol
_atom_site_fract_x
_atom_site_fract_y
_atom_site_fract_z
O1	O	1.684281	0.118370	-0.123274
O2	O	1.314716	0.129523	-0.123293
O3	O	1.509591	0.001731	-0.123269
O4	O	1.489407	0.246161	-0.123297
O5	O	1.509562	0.001734	0.123411
O6	O	1.314688	0.129525	0.123388
O7	O	1.684253	0.118372	0.123407
Cu8	Cu	1.499468	0.123949	0.145921
Cu9	Cu	1.499502	0.123946	-0.145807
O10	O	1.489378	0.246164	0.123384
C11	C	1.267411	0.128688	0.000046
C12	C	1.126497	0.126185	0.000039
C13	C	1.508739	-0.029566	0.000071
C14	C	1.506227	-0.122827	0.000072
C15	C	0.944375	0.030298	0.000626
C16	C	1.090959	0.032835	0.000054
C17	C	1.064229	0.171108	-0.140828
C18	C	0.917728	0.167922	-0.140930
C19	C	0.917181	0.169824	0.139592
C20	C	1.064151	0.170684	0.141438
C21	C	1.379430	-0.338440	0.000045
C22	C	1.438296	-0.399105	0.121677
C23	C	1.501682	-0.293580	0.000060
C24	C	1.438353	-0.399091	-0.121531
C25	C	1.497283	-0.458519	0.000043
C26	C	1.560582	-0.353017	0.121792
C27	C	1.560622	-0.352996	-0.121525
C28	C	1.619577	-0.413643	0.000136
C29	C	1.504213	-0.198563	0.000072
C30	C	1.494762	-0.553535	0.000042
C31	C	1.731559	0.119207	0.000065
C32	C	1.872473	0.121710	0.000062
C33	C	1.490231	0.277461	0.000040
C34	C	1.492743	0.370722	0.000029
N35	N	1.499453	0.123951	0.351108
N36	N	1.499526	0.123937	-0.350993
C37	C	1.394894	0.192082	0.586128
C38	C	1.395120	0.192337	0.414237
C39	C	1.631905	0.143889	0.413450
C40	C	1.631333	0.144372	0.585395
C41	C	1.472882	0.035659	0.585659
C42	C	1.469829	0.036231	0.413705
H43	H	0.916281	-0.006580	0.101649
O44	O	1.554664	-0.027221	0.362285
C45	C	1.489059	-0.085408	0.282696
H46	H	1.394040	-0.052889	0.241807
H47	H	1.471032	-0.140278	0.358212
C48	C	1.686808	-0.158718	0.199199
C49	C	1.570108	-0.118776	0.148968
H50	H	1.736804	-0.179305	0.116714
H51	H	1.731008	-0.119519	0.252824
H52	H	1.671768	-0.204438	0.262130
H53	H	1.585149	-0.073051	0.086054
H54	H	1.525913	-0.157969	0.095329
H55	H	1.711617	0.095612	0.372555
H56	H	1.655936	0.207567	0.370366
O57	O	1.563827	-0.024954	0.633989
C58	C	1.538978	-0.103846	0.576552
H59	H	1.478445	-0.093921	0.472013
H60	H	1.485437	-0.138825	0.662792
C61	C	1.740278	-0.168368	0.666923
C62	C	1.665939	-0.156178	0.538520
H63	H	1.818592	-0.200652	0.643469
H64	H	1.757018	-0.115218	0.705625
H65	H	1.695646	-0.197514	0.738778
H66	H	1.710565	-0.127023	0.466675
H67	H	1.649210	-0.209325	0.499805
H68	H	1.105548	0.137866	0.245651
O69	O	1.092003	0.251875	0.151320
C70	C	1.168899	0.270297	0.030064
H71	H	1.154226	0.225214	-0.065065
H72	H	1.273413	0.262618	0.064993
C73	C	1.149553	0.417061	0.095770
C74	C	1.131524	0.361695	-0.021074
H75	H	1.126505	0.473441	0.064229
H76	H	1.097752	0.404651	0.177466
H77	H	1.236650	0.410652	0.124867
H78	H	1.044427	0.368097	-0.050156
H79	H	1.183311	0.374109	-0.102776
O80	O	1.115638	0.133758	-0.265746
C81	C	1.207930	0.067063	-0.226290
H82	H	1.187669	0.044567	-0.109470
H83	H	1.306799	0.089962	-0.229733
C84	C	1.227440	0.021296	-0.479827
C85	C	1.202549	-0.006339	-0.336351
H86	H	1.224126	-0.023981	-0.547720
H87	H	1.165265	0.066231	-0.506411
H88	H	1.309829	0.040378	-0.482675
H89	H	1.120155	-0.025411	-0.333501
H90	H	1.264710	-0.051279	-0.309769
H91	H	1.386641	-0.419477	-0.224368
H92	H	1.372396	0.021118	0.372960
H93	H	1.134043	-0.002512	0.101034
H94	H	0.914680	-0.006426	-0.099827
O95	O	1.414726	0.269774	0.637807
C96	C	1.307065	0.303715	0.718971
H97	H	1.252202	0.250337	0.760200
H98	H	1.242686	0.347513	0.644541
C99	C	1.417925	0.419289	0.801842
C100	C	1.350547	0.353729	0.852490
H101	H	1.444744	0.450144	0.884199
H102	H	1.490457	0.396425	0.747156
H103	H	1.364265	0.455779	0.739816
H104	H	1.404212	0.317235	0.914499
H105	H	1.278025	0.376588	0.907190
H106	H	1.612297	-0.332559	-0.224355
H107	H	1.277955	-0.305737	0.000161
O108	O	1.740727	-0.452501	-0.000072
C109	C	1.760119	-0.502723	-0.128413
H110	H	1.689220	-0.478120	-0.217715
H111	H	1.745329	-0.570763	-0.100534
C112	C	1.984134	-0.529122	-0.075954
C113	C	1.897061	-0.498900	-0.185640
H114	H	2.068608	-0.526768	-0.111252
H115	H	1.971070	-0.495289	0.010515
H116	H	1.971793	-0.585820	-0.052731
H117	H	1.909393	-0.442200	-0.208848
H118	H	1.910131	-0.532723	-0.272115
O119	O	1.415258	0.270532	0.365310
C120	C	1.317200	0.329974	0.418010
H121	H	1.272588	0.304105	0.521340
H122	H	1.241164	0.342663	0.328581
C123	C	1.427858	0.444482	0.329890
C124	C	1.373072	0.412712	0.456808
H125	H	1.462319	0.495520	0.353816
H126	H	1.493920	0.404435	0.294379
H127	H	1.364485	0.455049	0.255377
H128	H	1.436448	0.402135	0.531311
H129	H	1.307021	0.452758	0.492332
H130	H	1.296667	0.180340	0.372089
H131	H	1.296130	0.180269	0.627518
H132	H	1.654810	0.208777	0.625478
H133	H	1.711623	0.096739	0.626986
H134	H	0.889981	0.134718	-0.246221
H135	H	0.868845	0.235058	-0.147331
H136	H	1.386576	-0.419520	0.224501
H137	H	1.085649	0.239662	-0.146076
H138	H	1.378403	0.016683	0.629105
H139	H	0.886034	0.139615	0.246368
O140	O	1.622285	-0.328955	0.244653
C141	C	1.663065	-0.400607	0.330595
H142	H	1.671437	-0.459044	0.256964
H143	H	1.590788	-0.408080	0.422477
C144	C	1.783651	-0.318070	0.490252
C145	C	1.793945	-0.389842	0.399815
H146	H	1.864381	-0.311429	0.532956
H147	H	1.756173	-0.269796	0.432356
H148	H	1.723416	-0.324307	0.566808
H149	H	1.854167	-0.383600	0.323250
H150	H	1.821436	-0.438116	0.457700
O151	O	1.141452	-0.009740	-0.120457
C152	C	1.229117	-0.077385	-0.073574
H153	H	1.205931	-0.095401	0.044989
H154	H	1.329927	-0.057636	-0.078069
C155	C	1.248499	-0.131489	-0.322071
C156	C	1.220014	-0.153622	-0.176453
H157	H	1.242889	-0.178515	-0.385534
H158	H	1.189441	-0.085914	-0.353659
H159	H	1.332506	-0.115031	-0.325795
H160	H	1.136004	-0.170069	-0.172728
H161	H	1.279058	-0.199202	-0.144867
O162	O	0.859623	0.250232	0.140517
C163	C	0.779374	0.263017	0.015689
H164	H	0.751676	0.199704	-0.024865
H165	H	0.831834	0.294207	-0.076398
C166	C	0.692285	0.398136	0.108323
C167	C	0.658257	0.320375	0.058521
H168	H	0.617577	0.433520	0.134739
H169	H	0.746354	0.389525	0.192420
H170	H	0.736003	0.424117	0.031574
H171	H	0.614555	0.294391	0.135275
H172	H	0.604178	0.328983	-0.025562
