data_functionalizedCrystal
_audit_creation_method	'MofGen! by Chris Wilmer'
_symmetry_space_group_name_H-M	'P1'
_symmetry_Int_Tables_number	1
_symmetry_cell_setting	triclinic
loop_
_symmetry_equiv_pos_as_xyz
  x,y,z
_cell_length_a	14.853569
_cell_length_b	16.109301
_cell_length_c	15.186229
_cell_angle_alpha	90.005167
_cell_angle_beta	89.998615
_cell_angle_gamma	96.451477
loop_
_atom_site_label
_atom_site_type_symbol
_atom_site_fract_x
_atom_site_fract_y
_atom_site_fract_z
O1	O	1.196183	-0.108553	-0.073191
O2	O	1.696183	0.391447	0.426809
O3	O	0.933703	-0.121482	-0.073202
O4	O	1.433703	0.378518	0.426798
O5	O	1.072153	0.006004	-0.073187
O6	O	1.572153	0.506004	0.426813
O7	O	1.057732	-0.236038	-0.073206
O8	O	1.557732	0.263962	0.426794
O9	O	1.072144	0.006005	0.073270
O10	O	1.572144	0.506005	0.573270
O11	O	0.933693	-0.121480	0.073255
O12	O	1.433693	0.378520	0.573255
O13	O	1.196174	-0.108551	0.073266
O14	O	1.696174	0.391449	0.573266
Zn15	Zn	1.064932	-0.115015	0.096514
Zn16	Zn	1.564932	0.384985	0.596514
Zn17	Zn	1.064944	-0.115017	-0.096450
Zn18	Zn	1.564944	0.384983	0.403550
O19	O	1.057723	-0.236036	0.073251
O20	O	1.557723	0.263964	0.573251
C21	C	0.900110	-0.120895	0.000025
C22	C	1.400110	0.379105	0.500025
C23	C	0.800030	-0.119139	0.000021
C24	C	1.300030	0.380861	0.500021
C25	C	0.763779	-0.042586	0.000024
C26	C	1.263779	0.457414	0.500024
C27	C	0.742240	-0.194042	0.000022
C28	C	1.242240	0.305958	0.500022
C29	C	0.648208	-0.192394	0.000024
C30	C	1.148208	0.307606	0.500024
C31	C	0.611958	-0.115841	0.000026
C32	C	1.111958	0.384159	0.500026
C33	C	0.669740	-0.040936	0.000028
C34	C	1.169740	0.459064	0.500028
C35	C	0.590420	-0.267298	0.000031
C36	C	1.090420	0.232702	0.500031
C37	C	0.496382	-0.265654	0.000033
C38	C	0.996382	0.234346	0.500033
C39	C	0.460131	-0.189100	0.000029
C40	C	0.960131	0.310900	0.500029
C41	C	0.517918	-0.114191	0.000030
C42	C	1.017918	0.385809	0.500030
C43	C	0.481668	-0.037638	0.000033
C44	C	0.981668	0.462362	0.500033
C45	C	0.539454	0.037271	0.000027
C46	C	1.039454	0.537271	0.500027
C47	C	0.633488	0.035618	0.000024
C48	C	1.133488	0.535618	0.500024
C49	C	0.366097	-0.187447	0.000032
C50	C	0.866097	0.312553	0.500032
C51	C	0.387628	-0.035988	0.000037
C52	C	0.887628	0.464012	0.500037
C53	C	1.071565	0.036980	0.000042
C54	C	1.571565	0.536980	0.500042
C55	C	1.069813	0.129278	0.000043
C56	C	1.569813	0.629278	0.500043
C57	C	1.229766	-0.109138	0.000037
C58	C	1.729766	0.390862	0.500037
C59	C	1.329847	-0.110894	0.000035
C60	C	1.829847	0.389106	0.500035
C61	C	1.058312	-0.267013	0.000020
C62	C	1.558312	0.232987	0.500020
C63	C	1.060063	-0.359311	0.000013
C64	C	1.560063	0.140689	0.500013
N65	N	1.064930	-0.115013	0.228207
N66	N	1.564930	0.384987	0.728207
C67	C	1.147895	0.351440	0.000032
C68	C	1.647895	0.851440	0.500032
C69	C	1.146243	0.438163	0.000025
C70	C	1.646243	0.938163	0.500025
C71	C	0.981975	0.418520	0.000021
C72	C	1.481975	0.918520	0.500021
C73	C	0.983629	0.331799	0.000022
C74	C	1.483629	0.831799	0.500022
C75	C	1.066591	0.298262	0.000032
C76	C	1.566591	0.798262	0.500032
C77	C	1.063285	0.471706	0.000024
C78	C	1.563285	0.971706	0.500024
C79	C	1.061493	0.565734	0.000016
C80	C	1.561493	1.065734	0.500016
C81	C	1.068384	0.204227	0.000039
C82	C	1.568384	0.704227	0.500039
N83	N	1.064953	-0.115013	-0.228143
N84	N	1.564953	0.384987	0.271857
C85	C	1.126257	-0.058581	0.453936
C86	C	1.626257	0.441419	0.953936
C87	C	1.126260	-0.058579	0.546126
C88	C	1.626260	0.441421	1.046126
C89	C	1.003620	-0.171447	0.546122
C90	C	1.503620	0.328553	1.046122
C91	C	1.003613	-0.171445	0.453934
C92	C	1.503613	0.328555	0.953934
C93	C	1.064937	-0.115013	0.407843
C94	C	1.564937	0.384987	0.907843
C95	C	1.064946	-0.115013	0.592221
C96	C	1.564946	0.384987	1.092221
C97	C	1.064949	-0.115012	0.692177
C98	C	1.564949	0.384988	1.192177
C99	C	1.064934	-0.115013	0.307881
C100	C	1.564934	0.384987	0.807881
H101	H	0.680545	0.096606	0.000022
H102	H	1.180545	0.596606	0.500022
H103	H	0.449340	-0.326650	0.000036
H104	H	0.949340	0.173350	0.500036
Cl105	Cl	1.248458	0.505013	0.000023
Cl106	Cl	1.748458	1.005013	0.500023
H107	H	0.914430	0.445837	0.000015
H108	H	1.414430	0.945837	0.500015
Cl109	Cl	0.342065	0.060256	0.000033
Cl110	Cl	0.842065	0.560256	0.500033
Cl111	Cl	0.926515	-0.242388	0.395983
Cl112	Cl	1.426515	0.257612	0.895983
H113	H	0.917417	0.288499	0.000020
H114	H	1.417417	0.788499	0.500020
Cl115	Cl	0.926534	-0.242390	0.604068
Cl116	Cl	1.426534	0.257610	1.104068
Cl117	Cl	0.493871	0.133506	0.000039
Cl118	Cl	0.993871	0.633506	0.500039
Cl119	Cl	0.836421	0.051582	0.000015
Cl120	Cl	1.336421	0.551582	0.500015
H121	H	1.215449	0.324137	0.000038
H122	H	1.715449	0.824137	0.500038
H123	H	0.771761	-0.256368	0.000026
H124	H	1.271761	0.243632	0.500026
H125	H	1.176190	-0.012630	0.416411
H126	H	1.676190	0.487370	0.916411
H127	H	0.619942	-0.329624	0.000034
H128	H	1.119942	0.170376	0.500034
Cl129	Cl	1.203350	0.012367	0.604068
Cl130	Cl	1.703350	0.512367	1.104068
H131	H	0.319052	-0.248437	0.000045
H132	H	0.819052	0.251563	0.500045
