data_functionalizedCrystal
_audit_creation_method	'MofGen! by Chris Wilmer'
_symmetry_space_group_name_H-M	'P1'
_symmetry_Int_Tables_number	1
_symmetry_cell_setting	triclinic
loop_
_symmetry_equiv_pos_as_xyz
  x,y,z
_cell_length_a	14.908783
_cell_length_b	14.908178
_cell_length_c	19.805399
_cell_angle_alpha	86.675724
_cell_angle_beta	86.681112
_cell_angle_gamma	96.402596
loop_
_atom_site_label
_atom_site_type_symbol
_atom_site_fract_x
_atom_site_fract_y
_atom_site_fract_z
Zn1	Zn	1.363060	-0.280657	-0.429647
Zn2	Zn	1.696393	0.052676	-0.096314
Zn3	Zn	2.029726	0.386009	0.237019
Zn4	Zn	1.354233	-0.432043	-0.309521
Zn5	Zn	1.687566	-0.098709	0.023812
Zn6	Zn	2.020900	0.234624	0.357145
Zn7	Zn	1.211690	-0.289405	-0.309532
Zn8	Zn	1.545023	0.043928	0.023801
Zn9	Zn	1.878356	0.377261	0.357134
Zn10	Zn	1.202932	-0.440714	-0.415735
Zn11	Zn	1.536266	-0.107380	-0.082401
Zn12	Zn	1.869599	0.225953	0.250932
O13	O	1.282979	-0.360705	-0.366109
O14	O	1.616312	-0.027371	-0.032776
O15	O	1.949645	0.305962	0.300558
O16	O	1.488557	-0.293449	-0.419530
O17	O	1.821891	0.039884	-0.086197
O18	O	2.155224	0.373218	0.247136
O19	O	1.335295	-0.413154	-0.214803
O20	O	1.668629	-0.079820	0.118530
O21	O	2.001962	0.253513	0.451863
O22	O	1.239128	-0.161566	-0.331293
O23	O	1.572462	0.171767	0.002040
O24	O	1.905795	0.505100	0.335374
O25	O	1.482072	-0.404671	-0.331274
O26	O	1.815406	-0.071338	0.002059
O27	O	2.148739	0.261996	0.335392
O28	O	1.350339	-0.155139	-0.419541
O29	O	1.683672	0.178194	-0.086208
O30	O	2.017006	0.511527	0.247126
O31	O	1.230569	-0.308359	-0.214812
O32	O	1.563903	0.024975	0.118522
O33	O	1.897236	0.358308	0.451855
O34	O	1.083860	-0.316767	-0.317802
O35	O	1.417193	0.016567	0.015531
O36	O	1.750526	0.349900	0.348865
O37	O	1.224203	-0.419450	-0.512299
O38	O	1.557536	-0.086116	-0.178966
O39	O	1.890869	0.247217	0.154367
O40	O	1.077426	-0.427932	-0.395829
O41	O	1.410759	-0.094599	-0.062495
O42	O	1.744092	0.238734	0.270838
O43	O	1.341847	-0.301857	-0.522521
O44	O	1.675181	0.031476	-0.189188
O45	O	2.008514	0.364810	0.144146
O46	O	1.326804	-0.559871	-0.317784
O47	O	1.660137	-0.226538	0.015550
O48	O	1.993470	0.106795	0.348883
O49	O	1.215644	-0.566242	-0.395818
O50	O	1.548977	-0.232909	-0.062485
O51	O	1.882310	0.100425	0.270849
C52	C	1.047799	-0.374240	-0.355307
C53	C	1.381132	-0.040907	-0.021974
C54	C	1.714465	0.292426	0.311360
C55	C	0.947186	-0.380053	-0.350701
C56	C	1.280520	-0.046719	-0.017368
C57	C	1.613853	0.286614	0.315965
C58	C	0.764867	-0.275318	-0.434072
C59	C	1.098200	0.058016	-0.100739
C60	C	1.431534	0.391349	0.232594
C61	C	0.670333	-0.280776	-0.429747
C62	C	1.003666	0.052558	-0.096414
C63	C	1.337000	0.385891	0.236920
C64	C	0.663583	-0.396422	-0.337722
C65	C	0.996916	-0.063088	-0.004389
C66	C	1.330250	0.270245	0.328944
C67	C	0.758117	-0.390964	-0.342048
C68	C	1.091450	-0.057630	-0.008714
C69	C	1.424784	0.275703	0.324619
C70	C	0.808756	-0.330410	-0.390225
C71	C	1.142089	0.002923	-0.056892
C72	C	1.475422	0.336256	0.276442
C73	C	0.903291	-0.324958	-0.394553
C74	C	1.236625	0.008376	-0.061220
C75	C	1.569958	0.341709	0.272114
C76	C	0.896540	-0.440599	-0.302526
C77	C	1.229873	-0.107265	0.030808
C78	C	1.563206	0.226068	0.364141
C79	C	0.802006	-0.446057	-0.298200
C80	C	1.135339	-0.112723	0.035133
C81	C	1.468672	0.220610	0.368466
C82	C	1.269340	-0.595901	-0.355306
C83	C	1.602673	-0.262568	-0.021972
C84	C	1.936007	0.070765	0.311361
C85	C	1.263588	-0.696515	-0.350710
C86	C	1.596922	-0.363181	-0.017377
C87	C	1.930255	-0.029848	0.315956
C88	C	1.368496	-0.878741	-0.434057
C89	C	1.701829	-0.545407	-0.100724
C90	C	2.035163	-0.212074	0.232609
C91	C	1.363095	-0.973276	-0.429742
C92	C	1.696428	-0.639942	-0.096409
C93	C	2.029761	-0.306609	0.236925
C94	C	1.247381	-0.980122	-0.337769
C95	C	1.580714	-0.646789	-0.004435
C96	C	1.914047	-0.313455	0.328898
C97	C	1.252782	-0.885587	-0.342084
C98	C	1.586115	-0.552253	-0.008750
C99	C	1.919449	-0.218920	0.324583
C100	C	1.313343	-0.834899	-0.390229
C101	C	1.646676	-0.501566	-0.056896
C102	C	1.980009	-0.168233	0.276438
C103	C	1.318748	-0.740362	-0.394541
C104	C	1.652081	-0.407029	-0.061207
C105	C	1.985414	-0.073696	0.272126
C106	C	1.203030	-0.747211	-0.302571
C107	C	1.536363	-0.413877	0.030763
C108	C	1.869696	-0.080544	0.364096
C109	C	1.197629	-0.841746	-0.298256
C110	C	1.530962	-0.508412	0.035078
C111	C	1.864295	-0.175079	0.368411
C112	C	1.519077	-0.347117	-0.376953
C113	C	1.852410	-0.013784	-0.043620
C114	C	2.185744	0.319550	0.289714
C115	C	1.619688	-0.341327	-0.381574
C116	C	1.953021	-0.007993	-0.048241
C117	C	2.286354	0.325340	0.285092
C118	C	1.283033	-0.360645	-0.542657
C119	C	1.616366	-0.027311	-0.209323
C120	C	1.949699	0.306022	0.124010
C121	C	1.283056	-0.360619	-0.617891
C122	C	1.616389	-0.027286	-0.284557
C123	C	1.949722	0.306047	0.048776
C124	C	1.296695	-0.124588	-0.376970
C125	C	1.630028	0.208745	-0.043637
C126	C	1.963362	0.542078	0.289696
C127	C	1.302540	-0.023969	-0.381599
C128	C	1.635874	0.309364	-0.048265
C129	C	1.969207	0.642697	0.285068
C130	C	1.344315	-0.299386	-0.658559
C131	C	1.677648	0.033948	-0.325225
C132	C	2.010981	0.367281	0.008108
C133	C	1.344326	-0.299359	-0.729249
C134	C	1.677659	0.033974	-0.395915
C135	C	2.010992	0.367308	-0.062582
C136	C	1.283081	-0.360571	-0.759270
C137	C	1.616414	-0.027237	-0.425936
C138	C	1.949748	0.306096	-0.092603
C139	C	1.221815	-0.421807	-0.718596
C140	C	1.555149	-0.088474	-0.385263
C141	C	1.888482	0.244860	-0.051930
C142	C	1.221801	-0.421829	-0.647908
C143	C	1.555134	-0.088496	-0.314574
C144	C	1.888468	0.244838	0.018759
C145	C	1.221871	-0.421720	-1.003676
C146	C	1.555205	-0.088386	-0.670343
C147	C	1.888538	0.244947	-0.337009
C148	C	1.221892	-0.421695	-1.074370
C149	C	1.555226	-0.088362	-0.741037
C150	C	1.888559	0.244972	-0.407703
C151	C	1.344396	-0.299250	-1.085017
C152	C	1.677729	0.034084	-0.751684
C153	C	2.011063	0.367417	-0.418351
C154	C	1.344382	-0.299272	-1.014328
C155	C	1.677715	0.034062	-0.680995
C156	C	2.011048	0.367395	-0.347662
C157	C	1.283113	-0.360504	-0.973661
C158	C	1.616447	-0.027171	-0.640328
C159	C	1.949780	0.306162	-0.306995
C160	C	1.283101	-0.360532	-0.897011
C161	C	1.616434	-0.027198	-0.563678
C162	C	1.949768	0.306135	-0.230345
C163	C	1.283097	-0.360548	-0.835918
C164	C	1.616430	-0.027215	-0.502585
C165	C	1.949763	0.306118	-0.169252
C166	C	1.282981	-0.360696	-0.190253
C167	C	1.616314	-0.027363	0.143080
C168	C	1.949647	0.305971	0.476413
C169	C	1.283148	-0.360457	-0.115039
C170	C	1.616481	-0.027123	0.218294
C171	C	1.949814	0.306210	0.551627
H172	H	0.944520	-0.275653	-0.433782
H173	H	1.277853	0.057680	-0.100449
H174	H	1.611187	0.391014	0.232885
H175	H	0.634603	-0.235911	-0.465450
H176	H	0.967936	0.097422	-0.132117
H177	H	1.301269	0.430756	0.201216
H178	H	1.148320	-0.883028	-0.259059
H179	H	1.481653	-0.549695	0.074275
H180	H	1.814986	-0.216362	0.407608
H181	H	1.158123	-0.711504	-0.266881
H182	H	1.491456	-0.378171	0.066452
H183	H	1.824789	-0.044838	0.399786
H184	H	1.368062	-0.699093	-0.433741
H185	H	1.701395	-0.365760	-0.100408
H186	H	2.034728	-0.032426	0.232926
H187	H	1.171946	-0.471644	-0.743045
H188	H	1.505279	-0.138310	-0.409711
H189	H	1.838612	0.195023	-0.076378
H190	H	1.394190	-0.249543	-0.634121
H191	H	1.727523	0.083791	-0.300788
H192	H	2.060857	0.417124	0.032545
H193	H	1.171995	-0.471592	-0.970573
H194	H	1.505329	-0.138258	-0.637240
H195	H	1.838662	0.195075	-0.303906
F196	F	1.409601	-0.234077	-1.128304
F197	F	1.742935	0.099256	-0.794970
F198	F	2.076268	0.432590	-0.461637
H199	H	0.760763	-0.495354	-0.258974
H200	H	1.094096	-0.162021	0.074359
H201	H	1.427430	0.171312	0.407693
F202	F	1.409569	-0.234125	-0.982382
F203	F	1.742903	0.099208	-0.649049
F204	F	2.076236	0.432542	-0.315715
H205	H	0.932283	-0.485466	-0.266827
H206	H	1.265617	-0.152133	0.066506
H207	H	1.598950	0.181200	0.399840
F208	F	0.818762	-0.210881	-0.485350
F209	F	1.152095	0.122452	-0.152017
F210	F	1.485429	0.455786	0.181316
F211	F	0.609676	-0.460852	-0.286447
F212	F	0.943009	-0.127518	0.046887
F213	F	1.276342	0.205815	0.380220
H214	H	1.417813	-0.837470	-0.473255
H215	H	1.751147	-0.504136	-0.139921
H216	H	2.084480	-0.170803	0.193412
H217	H	1.394211	-0.249498	-0.762358
H218	H	1.727544	0.083835	-0.429025
H219	H	2.060878	0.417168	-0.095691
F220	F	1.156703	-0.486848	-1.106319
F221	F	1.490037	-0.153514	-0.772985
F222	F	1.823370	0.179819	-0.439652
H223	H	1.171909	-0.471683	-0.614796
H224	H	1.505242	-0.138350	-0.281463
H225	H	1.838576	0.194984	0.051871
H226	H	1.408002	-1.008968	-0.465435
H227	H	1.741335	-0.675634	-0.132101
H228	H	2.074669	-0.342301	0.201232
H229	H	1.198071	-1.021408	-0.298574
H230	H	1.531405	-0.688075	0.034759
H231	H	1.864738	-0.354741	0.368093
