data_functionalizedCrystal
_audit_creation_method	'MofGen! by Chris Wilmer'
_symmetry_space_group_name_H-M	'P1'
_symmetry_Int_Tables_number	1
_symmetry_cell_setting	triclinic
loop_
_symmetry_equiv_pos_as_xyz
  x,y,z
_cell_length_a	9.065218
_cell_length_b	12.837942
_cell_length_c	7.540329
_cell_angle_alpha	89.996889
_cell_angle_beta	89.996962
_cell_angle_gamma	89.922413
loop_
_atom_site_label
_atom_site_type_symbol
_atom_site_fract_x
_atom_site_fract_y
_atom_site_fract_z
O1	O	1.978903	0.152196	-0.147486
O2	O	1.551136	0.164680	-0.147489
O3	O	1.755535	0.007446	-0.147477
O4	O	1.774505	0.309430	-0.147498
O5	O	1.755521	0.007444	0.147488
O6	O	1.551123	0.164678	0.147476
O7	O	1.978890	0.152194	0.147479
Cu8	Cu	1.765005	0.158436	0.174410
Cu9	Cu	1.765021	0.158438	-0.174420
O10	O	1.774491	0.309428	0.147467
C11	C	1.495997	0.163479	-0.000007
C12	C	1.331718	0.159892	-0.000007
C13	C	1.749119	-0.031235	0.000005
C14	C	1.730006	-0.146492	0.000002
C15	C	1.959783	-0.385293	-0.000034
C16	C	1.941831	-0.493587	-0.000037
C17	C	1.676152	-0.471377	-0.000020
C18	C	1.694104	-0.363083	-0.000017
C19	C	1.835924	-0.320045	-0.000021
C20	C	1.853874	-0.211748	-0.000006
C21	C	1.588196	-0.189540	-0.000001
C22	C	1.570245	-0.297835	-0.000004
C23	C	2.034029	0.153395	-0.000007
C24	C	2.198308	0.156983	-0.000018
C25	C	1.780907	0.348110	-0.000019
C26	C	1.800020	0.463366	-0.000027
N27	N	1.765004	0.158434	0.419759
N28	N	1.765032	0.158433	-0.419769
H29	H	1.969351	-0.176709	-0.000002
H30	H	1.454779	-0.332891	-0.000008
O31	O	2.097642	-0.343650	-0.000115
C32	C	2.359265	-0.377104	-0.000017
C33	C	2.203223	-0.424400	0.000038
H34	H	2.444670	-0.442368	0.000145
H35	H	2.374408	-0.326993	-0.123490
H36	H	2.374231	-0.326926	0.123395
H37	H	2.188150	-0.474626	-0.123290
H38	H	2.188153	-0.474451	0.123592
O39	O	2.062102	-0.557012	-0.000359
C40	C	2.195978	-0.692205	-0.153133
C41	C	2.059720	-0.620420	-0.153005
H42	H	2.194081	-0.743503	-0.276515
H43	H	2.300467	-0.642889	-0.153252
H44	H	2.194205	-0.743419	-0.029636
H45	H	2.061350	-0.569192	-0.276481
H46	H	1.955291	-0.669798	-0.152794
O47	O	1.467913	-0.126116	-0.000308
C48	C	1.334030	0.009092	-0.153042
C49	C	1.470290	-0.062690	-0.152945
H50	H	1.335923	0.060405	-0.276416
H51	H	1.229542	-0.040227	-0.153154
H52	H	1.335802	0.060291	-0.029537
H53	H	1.468662	-0.113903	-0.276428
H54	H	1.574718	-0.013310	-0.152740
H55	H	1.560688	-0.506438	-0.000036
