data_functionalizedCrystal
_audit_creation_method	'MofGen! by Chris Wilmer'
_symmetry_space_group_name_H-M	'P1'
_symmetry_Int_Tables_number	1
_symmetry_cell_setting	triclinic
loop_
_symmetry_equiv_pos_as_xyz
  x,y,z
_cell_length_a	17.699097
_cell_length_b	16.974813
_cell_length_c	16.776229
_cell_angle_alpha	86.338786
_cell_angle_beta	89.989262
_cell_angle_gamma	83.341721
loop_
_atom_site_label
_atom_site_type_symbol
_atom_site_fract_x
_atom_site_fract_y
_atom_site_fract_z
O1	O	1.004145	0.100042	-0.072807
O2	O	0.783777	0.113040	-0.073632
O3	O	0.900104	-0.008574	-0.065790
O4	O	0.887818	0.221656	-0.080649
O5	O	0.900088	-0.008582	0.066787
O6	O	0.783762	0.113033	0.058945
O7	O	1.004129	0.100035	0.059770
Zn8	Zn	0.893943	0.106533	0.080407
Zn9	Zn	0.893963	0.106542	-0.094269
O10	O	0.887802	0.221649	0.051928
C11	C	0.755572	0.112569	-0.007312
C12	C	0.671554	0.111166	-0.007216
C13	C	0.155837	0.102573	-0.078961
C14	C	0.234782	0.103886	-0.079042
C15	C	0.274241	0.104539	-0.006813
C16	C	0.234750	0.103872	0.065501
C17	C	0.155808	0.102554	0.065581
C18	C	0.553118	0.109187	0.065179
C19	C	0.632066	0.110507	0.065093
C20	C	0.632093	0.110519	-0.079444
C21	C	0.553150	0.109200	-0.079364
C22	C	0.513668	0.108529	-0.007050
C23	C	0.428067	0.107105	-0.006963
C24	C	0.359839	0.105969	-0.006900
C25	C	0.899628	-0.038035	0.002398
C26	C	0.898226	-0.125810	0.008058
C27	C	0.897578	-0.167038	-0.061550
C28	C	0.896256	-0.249511	-0.056229
C29	C	0.895587	-0.290754	0.018700
C30	C	0.896234	-0.249520	0.088313
C31	C	0.897550	-0.167048	0.082992
C32	C	0.891643	-0.537409	0.042365
C33	C	0.890328	-0.619887	0.047681
C34	C	0.890349	-0.619872	-0.096862
C35	C	0.891670	-0.537399	-0.102177
C36	C	0.892313	-0.496171	-0.032564
N37	N	0.894238	-0.375055	0.024141
N38	N	0.893656	-0.411871	-0.038005
C39	C	1.032334	0.100506	-0.006552
C40	C	1.116353	0.101908	-0.006653
C41	C	0.888278	0.251110	-0.016261
C42	C	0.889680	0.338885	-0.021927
N43	N	0.893935	0.106525	0.199619
N44	N	0.893978	0.106543	-0.213480
C45	C	0.945460	0.052697	0.244807
C46	C	0.945464	0.052696	0.328259
C47	C	0.893946	0.106528	0.366521
C48	C	0.842415	0.160360	0.321327
C49	C	0.842408	0.160356	0.237877
C50	C	0.842443	0.160375	0.657874
C51	C	0.842455	0.160376	0.741330
C52	C	0.945498	0.052715	0.748256
C53	C	0.945491	0.052711	0.664805
C54	C	0.893958	0.106540	0.619619
C55	C	0.893953	0.106539	0.529130
C56	C	0.893954	0.106534	0.457008
H57	H	0.266884	0.104399	0.124311
N58	N	0.786876	0.218436	0.609135
H59	H	0.753394	0.188262	0.576474
H60	H	0.754294	0.252530	0.646084
H61	H	0.987457	0.008883	0.785056
H62	H	0.123716	0.102047	-0.137779
H63	H	0.664191	0.111039	0.123914
N64	N	1.001013	-0.005382	0.203545
H65	H	0.993190	0.002779	0.143822
H66	H	1.054699	0.003673	0.217525
H67	H	0.800500	0.204215	0.772481
H68	H	0.898126	-0.133464	-0.122566
H69	H	0.123659	0.102021	0.124462
N70	N	0.786853	0.218421	0.362600
H71	H	0.795505	0.274529	0.344444
H72	H	0.733171	0.209313	0.348668
H73	H	0.266928	0.104422	-0.137923
H74	H	0.987419	0.008864	0.365051
N75	N	0.892471	-0.492930	-0.182995
H76	H	0.893435	-0.434432	-0.175803
H77	H	0.939170	-0.513881	-0.213139
N78	N	0.895665	-0.293994	-0.131305
H79	H	0.896330	-0.255358	-0.179579
H80	H	0.942051	-0.334669	-0.131747
H81	H	0.664250	0.111062	-0.138326
H82	H	0.987444	0.008879	0.633655
N83	N	0.889655	-0.664337	-0.171941
H84	H	0.888719	-0.722841	-0.157204
H85	H	0.842993	-0.643421	-0.204846
N86	N	0.786830	0.218413	0.189140
H87	H	0.795483	0.274524	0.200029
H88	H	0.794666	0.210173	0.130488
N89	N	0.510592	0.108497	-0.157267
H90	H	0.547586	0.109114	-0.203088
H91	H	0.484027	0.058951	-0.157215
N92	N	0.889610	-0.664375	0.128502
H93	H	0.890216	-0.625744	0.171795
H94	H	0.842169	-0.692101	0.133436
H95	H	0.520983	0.108629	0.124063
H96	H	0.892181	-0.503854	0.099049
N97	N	0.895520	-0.294001	0.169132
H98	H	0.894595	-0.352504	0.161942
H99	H	0.942647	-0.286078	0.200168
H100	H	0.898068	-0.133480	0.139674
