data_functionalizedCrystal
_audit_creation_method	'MofGen! by Chris Wilmer'
_symmetry_space_group_name_H-M	'P1'
_symmetry_Int_Tables_number	1
_symmetry_cell_setting	triclinic
loop_
_symmetry_equiv_pos_as_xyz
  x,y,z
_cell_length_a	14.519709
_cell_length_b	27.732048
_cell_length_c	13.596369
_cell_angle_alpha	89.989067
_cell_angle_beta	90.000291
_cell_angle_gamma	83.161400
loop_
_atom_site_label
_atom_site_type_symbol
_atom_site_fract_x
_atom_site_fract_y
_atom_site_fract_z
O1	O	1.222766	0.063362	-0.081675
O2	O	0.954159	0.070824	-0.081706
O3	O	1.096805	-0.003264	-0.081671
O4	O	1.080120	0.137450	-0.081710
O5	O	1.096791	-0.003268	0.081912
O6	O	0.954145	0.070820	0.081877
O7	O	1.222752	0.063358	0.081908
Zn8	Zn	1.088446	0.067088	0.107865
Zn9	Zn	1.088465	0.067094	-0.107663
O10	O	1.080106	0.137446	0.081873
C11	C	0.919799	0.070474	0.000082
C12	C	0.817435	0.069432	0.000071
C13	C	0.442606	0.065596	0.000116
C14	C	0.546896	0.066661	0.000103
C15	C	0.630018	0.067514	0.000093
C16	C	0.734314	0.068579	0.000081
C17	C	1.096448	-0.021274	0.000124
C18	C	1.095393	-0.074934	0.000132
C19	C	1.173048	-0.413378	0.000090
C20	C	1.169135	-0.615057	0.000076
O21	O	1.240145	-0.645973	0.000041
N22	N	1.084552	-0.634585	0.000067
C23	C	1.000941	-0.603690	0.000055
O24	O	0.928909	-0.624927	0.000037
C25	C	1.004855	-0.402012	0.000062
C26	C	1.089444	-0.382487	0.000081
C27	C	1.257630	-0.393853	0.000108
C28	C	1.258607	-0.343436	0.000117
C29	C	1.175003	-0.312545	0.000108
C30	C	1.090421	-0.332071	0.000090
C31	C	0.921246	-0.371118	0.000043
C32	C	0.922232	-0.320696	0.000043
C33	C	1.006820	-0.301171	0.000062
C34	C	1.007794	-0.250763	0.000090
N35	N	1.092377	-0.231235	0.000099
C36	C	1.175981	-0.262126	0.000108
C37	C	0.998893	-0.709574	0.000053
C38	C	0.997914	-0.759993	0.000053
C39	C	1.166108	-0.771356	0.000072
C40	C	1.167086	-0.720936	0.000079
C41	C	1.083476	-0.690045	0.000062
C42	C	1.178028	-0.156247	0.000128
C43	C	1.178998	-0.105825	0.000141
C44	C	1.010804	-0.094466	0.000116
C45	C	1.009833	-0.144883	0.000109
C46	C	1.093453	-0.175773	0.000111
O47	O	0.936822	-0.219818	0.000114
O48	O	1.248004	-0.240879	0.000104
C49	C	1.172071	-0.463795	0.000081
C50	C	1.087489	-0.483320	0.000063
C51	C	1.003885	-0.452429	0.000054
C52	C	1.086510	-0.533740	0.000063
C53	C	1.170115	-0.564631	0.000072
C54	C	1.254698	-0.545103	0.000081
C55	C	1.255675	-0.494686	0.000090
C56	C	0.919302	-0.471957	0.000046
C57	C	0.918331	-0.522375	0.000038
C58	C	1.001936	-0.553266	0.000047
C59	C	1.257113	0.063708	0.000119
C60	C	1.359476	0.064750	0.000123
C61	C	1.080464	0.155456	0.000077
C62	C	1.081518	0.209116	0.000062
N63	N	1.088441	0.067085	0.254957
N64	N	1.088478	0.067094	-0.254754
C65	C	1.088464	0.067094	0.656248
C66	C	1.088454	0.067093	0.544596
C67	C	1.088453	0.067090	0.455606
C68	C	1.088442	0.067088	0.343947
H69	H	1.247882	-0.089931	0.000158
O70	O	0.915802	-0.779013	-0.000087
C71	C	0.817058	-0.829300	-0.084886
C72	C	0.910094	-0.807804	-0.084830
H73	H	0.812403	-0.852575	-0.153404
H74	H	0.812365	-0.852659	-0.016476
H75	H	0.757494	-0.798548	-0.084848
H76	H	0.969711	-0.838526	-0.084903
H77	H	0.914705	-0.784433	-0.153234
H78	H	0.851220	-0.446810	0.000036
O79	O	0.836237	-0.541418	0.000061
C80	C	0.760169	-0.614048	-0.000047
C81	C	0.853201	-0.592548	-0.000037
H82	H	0.773853	-0.655389	-0.000148
H83	H	0.718864	-0.601375	0.068419
H84	H	0.718911	-0.601289	-0.068499
H85	H	0.894535	-0.605296	0.068368
H86	H	0.894436	-0.605218	-0.068549
H87	H	1.246119	-0.181392	0.000126
O88	O	1.340858	-0.324553	0.000084
C89	C	1.507578	-0.341165	0.000156
C90	C	1.414489	-0.362609	0.000174
H91	H	1.567133	-0.371922	0.000250
H92	H	1.512316	-0.317856	-0.068319
H93	H	1.512195	-0.317835	0.068600
H94	H	1.409810	-0.385961	-0.068224
H95	H	1.409792	-0.385890	0.068693
O96	O	0.838994	-0.389996	-0.000023
C97	C	0.672274	-0.373382	-0.000006
C98	C	0.765365	-0.351940	0.000048
H99	H	0.612721	-0.342624	0.000072
H100	H	0.667552	-0.396676	-0.068486
H101	H	0.667639	-0.396727	0.068432
H102	H	0.770063	-0.328574	-0.068344
H103	H	0.770047	-0.328674	0.068573
H104	H	1.325714	-0.419000	0.000112
H105	H	0.942736	-0.069306	0.000113
H106	H	0.930803	-0.684426	0.000040
H107	H	1.235965	-0.705043	0.000094
O108	O	1.247299	-0.801388	-0.000101
C109	C	1.343760	-0.864924	-0.084833
C110	C	1.251794	-0.830931	-0.084759
H111	H	1.347415	-0.888826	-0.153261
H112	H	1.404425	-0.842336	-0.084896
H113	H	1.347494	-0.888800	-0.016346
H114	H	1.247969	-0.807049	-0.153234
H115	H	1.191172	-0.853549	-0.084645
H116	H	0.854144	-0.295547	0.000027
O117	O	0.927688	-0.163875	0.000273
C118	C	0.828977	-0.214236	0.084955
C119	C	0.922031	-0.192758	0.084915
H120	H	0.824381	-0.237601	0.153370
H121	H	0.769357	-0.183512	0.085018
H122	H	0.824331	-0.237524	0.016455
H123	H	0.926768	-0.169475	0.153403
H124	H	0.981606	-0.223505	0.084801
H125	H	1.324556	-0.478794	0.000105
H126	H	1.322771	-0.570263	0.000093
