data_functionalizedCrystal
_audit_creation_method	'MofGen! by Chris Wilmer'
_symmetry_space_group_name_H-M	'P1'
_symmetry_Int_Tables_number	1
_symmetry_cell_setting	triclinic
loop_
_symmetry_equiv_pos_as_xyz
  x,y,z
_cell_length_a	15.944499
_cell_length_b	15.944551
_cell_length_c	15.021413
_cell_angle_alpha	89.996935
_cell_angle_beta	89.990095
_cell_angle_gamma	96.511826
loop_
_atom_site_label
_atom_site_type_symbol
_atom_site_fract_x
_atom_site_fract_y
_atom_site_fract_z
O1	O	1.114556	-0.108114	-0.074087
O2	O	1.364556	0.141886	0.175913
O3	O	1.614556	0.391886	0.425913
O4	O	1.864556	0.641886	0.675913
O5	O	0.870000	-0.121516	-0.074078
O6	O	1.120000	0.128484	0.175922
O7	O	1.370000	0.378484	0.425922
O8	O	1.620000	0.628484	0.675922
O9	O	0.998956	0.007461	-0.074075
O10	O	1.248956	0.257461	0.175925
O11	O	1.498956	0.507461	0.425925
O12	O	1.748956	0.757461	0.675925
O13	O	0.985600	-0.237091	-0.074090
O14	O	1.235600	0.012909	0.175910
O15	O	1.485600	0.262909	0.425910
O16	O	1.735600	0.512909	0.675910
O17	O	0.998936	0.007443	0.073989
O18	O	1.248936	0.257443	0.323989
O19	O	1.498936	0.507443	0.573989
O20	O	1.748936	0.757443	0.823989
O21	O	0.869980	-0.121534	0.073987
O22	O	1.119980	0.128466	0.323987
O23	O	1.369980	0.378466	0.573987
O24	O	1.619980	0.628466	0.823987
O25	O	1.114535	-0.108132	0.073977
O26	O	1.364535	0.141868	0.323977
O27	O	1.614535	0.391868	0.573977
O28	O	1.864535	0.641868	0.823977
Zn29	Zn	0.992254	-0.114836	0.097490
Zn30	Zn	1.242254	0.135164	0.347490
Zn31	Zn	1.492254	0.385164	0.597490
Zn32	Zn	1.742254	0.635164	0.847490
Zn33	Zn	0.992281	-0.114812	-0.097591
Zn34	Zn	1.242281	0.135188	0.152409
Zn35	Zn	1.492281	0.385188	0.402409
Zn36	Zn	1.742281	0.635188	0.652409
O37	O	0.985579	-0.237109	0.073974
O38	O	1.235579	0.012891	0.323974
O39	O	1.485579	0.262891	0.573974
O40	O	1.735579	0.512891	0.823974
C41	C	0.838695	-0.120976	-0.000044
C42	C	1.088695	0.129024	0.249956
C43	C	1.338695	0.379024	0.499956
C44	C	1.588695	0.629024	0.749956
C45	C	0.745447	-0.119331	-0.000040
C46	C	0.995447	0.130669	0.249960
C47	C	1.245447	0.380669	0.499960
C48	C	1.495447	0.630669	0.749960
C49	C	0.453911	-0.194263	-0.000058
C50	C	0.703911	0.055737	0.249942
C51	C	0.953911	0.305737	0.499942
C52	C	1.203911	0.555737	0.749942
C53	C	0.514950	-0.155303	-0.073061
C54	C	0.764950	0.094697	0.176939
C55	C	1.014950	0.344697	0.426939
C56	C	1.264950	0.594697	0.676939
C57	C	0.409810	-0.113355	-0.000060
C58	C	0.659810	0.136645	0.249940
C59	C	0.909810	0.386645	0.499940
C60	C	1.159810	0.636645	0.749940
C61	C	0.514916	-0.155299	0.072919
C62	C	0.764916	0.094701	0.322919
C63	C	1.014916	0.344701	0.572919
C64	C	1.264916	0.594701	0.822919
C65	C	0.574719	-0.116296	-0.000049
C66	C	0.824719	0.133704	0.249951
C67	C	1.074719	0.383704	0.499951
C68	C	1.324719	0.633704	0.749951
C69	C	0.469622	-0.074372	-0.073123
C70	C	0.719622	0.175628	0.176877
C71	C	0.969622	0.425628	0.426877
C72	C	1.219622	0.675628	0.676877
C73	C	0.469581	-0.074380	0.072922
C74	C	0.719581	0.175620	0.322922
C75	C	0.969581	0.425620	0.572922
C76	C	1.219581	0.675620	0.822922
C77	C	0.530603	-0.035360	-0.000098
C78	C	0.780603	0.214640	0.249902
C79	C	1.030603	0.464640	0.499902
C80	C	1.280603	0.714640	0.749902
C81	C	0.314810	-0.111663	-0.000068
C82	C	0.564810	0.138337	0.249932
C83	C	0.814810	0.388337	0.499932
C84	C	1.064810	0.638337	0.749932
C85	C	0.669718	-0.117981	-0.000048
C86	C	0.919718	0.132019	0.249952
C87	C	1.169718	0.382019	0.499952
C88	C	1.419718	0.632019	0.749952
C89	C	0.998392	0.038746	-0.000042
C90	C	1.248392	0.288746	0.249958
C91	C	1.498392	0.538746	0.499958
C92	C	1.748392	0.788746	0.749958
C93	C	0.996729	0.131992	-0.000042
C94	C	1.246729	0.381992	0.249958
C95	C	1.496729	0.631992	0.499958
C96	C	1.746729	0.881992	0.749958
C97	C	1.145840	-0.108672	-0.000058
C98	C	1.395840	0.141328	0.249942
C99	C	1.645840	0.391328	0.499942
C100	C	1.895840	0.641328	0.749942
C101	C	1.239089	-0.110317	-0.000068
C102	C	1.489089	0.139683	0.249932
C103	C	1.739089	0.389683	0.499932
C104	C	1.989089	0.639683	0.749932
C105	C	0.986144	-0.268394	-0.000060
C106	C	1.236144	-0.018394	0.249940
C107	C	1.486144	0.231606	0.499940
C108	C	1.736144	0.481606	0.749940
C109	C	0.987806	-0.361640	-0.000067
C110	C	1.237806	-0.111640	0.249933
C111	C	1.487806	0.138360	0.499933
C112	C	1.737806	0.388360	0.749933
N113	N	0.992242	-0.114852	0.230628
N114	N	1.242242	0.135148	0.480628
N115	N	1.492242	0.385148	0.730628
N116	N	1.742242	0.635148	0.980628
C117	C	0.912823	0.346833	-0.000051
C118	C	1.162823	0.596833	0.249949
C119	C	1.412823	0.846833	0.499949
C120	C	1.662823	1.096833	0.749949
C121	C	0.951776	0.407848	0.072952
C122	C	1.201776	0.657848	0.322952
C123	C	1.451776	0.907848	0.572952
C124	C	1.701776	1.157848	0.822952
C125	C	0.993722	0.302717	-0.000049
C126	C	1.243722	0.552717	0.249951
C127	C	1.493722	0.802717	0.499951
C128	C	1.743722	1.052717	0.749951
C129	C	0.951815	0.407850	-0.073027
C130	C	1.201815	0.657850	0.176973
C131	C	1.451815	0.907850	0.426973
C132	C	1.701815	1.157850	0.676973
C133	C	0.990811	0.467629	-0.000059
C134	C	1.240811	0.717629	0.249941
C135	C	1.490811	0.967629	0.499941
C136	C	1.740811	1.217629	0.749941
C137	C	1.032697	0.362504	0.073015
C138	C	1.282697	0.612504	0.323015
C139	C	1.532697	0.862504	0.573015
C140	C	1.782697	1.112504	0.823015
C141	C	1.032725	0.362499	-0.073031
C142	C	1.282725	0.612499	0.176969
C143	C	1.532725	0.862499	0.426969
C144	C	1.782725	1.112499	0.676969
C145	C	1.071737	0.423497	-0.000010
C146	C	1.321737	0.673497	0.249990
C147	C	1.571737	0.923497	0.499990
C148	C	1.821737	1.173497	0.749990
C149	C	0.995397	0.207715	-0.000042
C150	C	1.245397	0.457715	0.249958
C151	C	1.495397	0.707715	0.499958
C152	C	1.745397	0.957715	0.749958
C153	C	0.989143	0.562630	-0.000059
C154	C	1.239143	0.812630	0.249941
C155	C	1.489143	1.062630	0.499941
C156	C	1.739143	1.312630	0.749941
N157	N	0.992300	-0.114789	-0.230728
N158	N	1.242300	0.135211	0.019272
N159	N	1.492300	0.385211	0.269272
N160	N	1.742300	0.635211	0.519272
C161	C	0.932604	-0.174463	0.470310
C162	C	1.182604	0.075537	0.720310
C163	C	1.432604	0.325537	0.970310
C164	C	1.682604	0.575537	1.220310
C165	C	1.008506	-0.190756	0.529640
C166	C	1.258506	0.059244	0.779640
C167	C	1.508506	0.309244	1.029640
C168	C	1.758506	0.559244	1.279640
C169	C	0.992264	-0.114831	0.412235
C170	C	1.242264	0.135169	0.662235
C171	C	1.492264	0.385169	0.912235
C172	C	1.742264	0.635169	1.162235
C173	C	0.916382	-0.098557	0.529646
C174	C	1.166382	0.151443	0.779646
C175	C	1.416382	0.401443	1.029646
C176	C	1.666382	0.651443	1.279646
C177	C	0.992277	-0.114813	0.587659
C178	C	1.242277	0.135187	0.837659
C179	C	1.492277	0.385187	1.087659
C180	C	1.742277	0.635187	1.337659
C181	C	1.068204	-0.131162	0.470258
C182	C	1.318204	0.118838	0.720258
C183	C	1.568204	0.368838	0.970258
C184	C	1.818204	0.618838	1.220258
C185	C	0.976030	-0.038930	0.470259
C186	C	1.226030	0.211070	0.720259
C187	C	1.476030	0.461070	0.970259
C188	C	1.726030	0.711070	1.220259
C189	C	1.051987	-0.055191	0.529563
C190	C	1.301987	0.194809	0.779563
C191	C	1.551987	0.444809	1.029563
C192	C	1.801987	0.694809	1.279563
C193	C	0.992254	-0.114844	0.311177
C194	C	1.242254	0.135156	0.561177
C195	C	1.492254	0.385156	0.811177
C196	C	1.742254	0.635156	1.061177
C197	C	0.992295	-0.114799	0.688714
C198	C	1.242295	0.135201	0.938714
C199	C	1.492295	0.385201	1.188714
C200	C	1.742295	0.635201	1.438714
H201	H	0.420581	-0.261409	-0.000133
H202	H	0.670581	-0.011409	0.249867
H203	H	0.920581	0.238591	0.499867
H204	H	1.170581	0.488591	0.749867
H205	H	1.102501	-0.004751	0.555416
H206	H	1.352501	0.245249	0.805416
H207	H	1.602501	0.495249	1.055416
H208	H	1.852501	0.745249	1.305416
F209	F	0.541223	-0.200020	-0.153738
F210	F	0.791223	0.049980	0.096262
F211	F	1.041223	0.299980	0.346262
F212	F	1.291223	0.549980	0.596262
F213	F	0.443524	-0.029666	-0.153880
F214	F	0.693524	0.220334	0.096120
F215	F	0.943524	0.470334	0.346120
F216	F	1.193524	0.720334	0.596120
F217	F	0.866726	-0.240428	0.436299
F218	F	1.116726	0.009572	0.686299
F219	F	1.366726	0.259572	0.936299
F220	F	1.616726	0.509572	1.186299
F221	F	0.541148	-0.200055	0.153584
F222	F	0.791148	0.049945	0.403584
F223	F	1.041148	0.299945	0.653584
F224	F	1.291148	0.549945	0.903584
H225	H	1.022249	-0.254936	0.555722
H226	H	1.272249	-0.004936	0.805722
H227	H	1.522249	0.245064	1.055722
H228	H	1.772249	0.495064	1.305722
F229	F	0.825053	0.303282	0.000043
F230	F	1.075053	0.553282	0.250043
F231	F	1.325053	0.803282	0.500043
F232	F	1.575053	1.053282	0.750043
F233	F	1.152109	-0.149241	0.436309
F234	F	1.402109	0.100759	0.686309
F235	F	1.652109	0.350759	0.936309
F236	F	1.902109	0.600759	1.186309
H237	H	0.852204	-0.084801	0.555735
H238	H	1.102204	0.165199	0.805735
H239	H	1.352204	0.415199	1.055735
H240	H	1.602204	0.665199	1.305735
H241	H	0.962263	0.025229	0.444156
H242	H	1.212263	0.275229	0.694156
H243	H	1.462263	0.525229	0.944156
H244	H	1.712263	0.775229	1.194156
H245	H	0.563780	0.031846	-0.000133
H246	H	0.813780	0.281846	0.249867
H247	H	1.063780	0.531846	0.499867
H248	H	1.313780	0.781846	0.749867
H249	H	0.917550	0.427942	0.134673
H250	H	1.167550	0.677942	0.384673
H251	H	1.417550	0.927942	0.634673
H252	H	1.667550	1.177942	0.884673
F253	F	0.443273	-0.029696	0.153600
F254	F	0.693273	0.220304	0.403600
F255	F	0.943273	0.470304	0.653600
F256	F	1.193273	0.720304	0.903600
H257	H	1.066922	0.342383	-0.134755
H258	H	1.316922	0.592383	0.115245
H259	H	1.566922	0.842383	0.365245
H260	H	1.816922	1.092383	0.615245
H261	H	1.066877	0.342512	0.134801
H262	H	1.316877	0.592512	0.384801
H263	H	1.566877	0.842512	0.634801
H264	H	1.816877	1.092512	0.884801
F265	F	0.907084	0.434112	-0.153692
F266	F	1.157084	0.684112	0.096308
F267	F	1.407084	0.934112	0.346308
F268	F	1.657084	1.184112	0.596308
F269	F	1.159583	0.466856	0.000038
F270	F	1.409583	0.716856	0.250038
F271	F	1.659583	0.966856	0.500038
F272	F	1.909583	1.216856	0.750038
