data_functionalizedCrystal
_audit_creation_method	'MofGen! by Chris Wilmer'
_symmetry_space_group_name_H-M	'P1'
_symmetry_Int_Tables_number	1
_symmetry_cell_setting	triclinic
loop_
_symmetry_equiv_pos_as_xyz
  x,y,z
_cell_length_a	19.805407
_cell_length_b	16.959454
_cell_length_c	19.805399
_cell_angle_alpha	89.977613
_cell_angle_beta	89.980427
_cell_angle_gamma	90.020075
loop_
_atom_site_label
_atom_site_type_symbol
_atom_site_fract_x
_atom_site_fract_y
_atom_site_fract_z
Zn1	Zn	1.034765	-0.314700	-0.382744
Zn2	Zn	1.034693	-0.446882	-0.269566
Zn3	Zn	0.921580	-0.314722	-0.269569
Zn4	Zn	0.921556	-0.446840	-0.382713
O5	O	0.978149	-0.380786	-0.326148
O6	O	1.129472	-0.332243	-0.367743
O7	O	1.019668	-0.429378	-0.174850
O8	O	0.936635	-0.204108	-0.284596
O9	O	1.129419	-0.429356	-0.284591
O10	O	1.019792	-0.204092	-0.367745
O11	O	0.936564	-0.332280	-0.174852
O12	O	0.826860	-0.332239	-0.284565
O13	O	0.936594	-0.429285	-0.477434
O14	O	0.826843	-0.429306	-0.367692
O15	O	1.019768	-0.332202	-0.477457
O16	O	1.019645	-0.557488	-0.284561
O17	O	0.936524	-0.557457	-0.367690
C18	C	0.802293	-0.380771	-0.326126
C19	C	0.727061	-0.380783	-0.326133
C20	C	0.691725	-0.431402	-0.369347
C21	C	0.621037	-0.431404	-0.369356
C22	C	0.585685	-0.380790	-0.326148
C23	C	0.621026	-0.330165	-0.282932
C24	C	0.691713	-0.330160	-0.282926
C25	C	0.335952	-0.330183	-0.282954
C26	C	0.265260	-0.330193	-0.282962
C27	C	0.265276	-0.431426	-0.369384
C28	C	0.335963	-0.431421	-0.369379
C29	C	0.371298	-0.380794	-0.326166
C30	C	0.447946	-0.380792	-0.326157
C31	C	0.509038	-0.380795	-0.326153
C32	C	0.978092	-0.586152	-0.326136
C33	C	0.978130	-0.674009	-0.326154
C34	C	0.934930	-1.045498	-0.369428
C35	C	1.021555	-1.045470	-0.282937
C36	C	1.021532	-0.962925	-0.282930
C37	C	0.978206	-0.921662	-0.326173
C38	C	0.934904	-0.962945	-0.369422
C39	C	1.064828	-0.921635	-0.239677
C40	C	1.064806	-0.839085	-0.239669
C41	C	1.021483	-0.797820	-0.282915
C42	C	0.978180	-0.839108	-0.326167
C43	C	0.934854	-0.797845	-0.369409
C44	C	0.891553	-0.839132	-0.412665
C45	C	0.891581	-0.921680	-0.412669
C46	C	1.021455	-0.715272	-0.282911
C47	C	0.934827	-0.715292	-0.369403
C48	C	1.154691	-0.380802	-0.326170
C49	C	1.229923	-0.380808	-0.326180
C50	C	0.978187	-0.380736	-0.502691
C51	C	0.978203	-0.380715	-0.577923
C52	C	0.978224	-0.174618	-0.326174
C53	C	0.978256	-0.086761	-0.326186
C54	C	1.021513	-0.330161	-0.613280
C55	C	1.021520	-0.330138	-0.683968
C56	C	0.978220	-0.380674	-0.719298
C57	C	0.934905	-0.431230	-0.683936
C58	C	0.934895	-0.431248	-0.613249
C59	C	0.934943	-0.431156	-0.969010
C60	C	0.934958	-0.431135	-1.039702
C61	C	1.021568	-0.330046	-1.039729
C62	C	1.021558	-0.330065	-0.969042
C63	C	0.978241	-0.380617	-0.933686
C64	C	0.978233	-0.380641	-0.857037
C65	C	0.978230	-0.380655	-0.795946
C66	C	0.978150	-0.380779	-0.150292
C67	C	0.978265	-0.380577	-0.075060
H68	H	0.364743	-0.472639	-0.404561
C69	C	1.054585	-1.070882	-0.168352
C70	C	1.069174	-1.090807	-0.235390
H71	H	1.083982	-1.098872	-0.138995
H72	H	1.060762	-1.015814	-0.162178
H73	H	1.009116	-1.084461	-0.158417
H74	H	1.114642	-1.077222	-0.245328
H75	H	1.063002	-1.145887	-0.241568
H76	H	0.592269	-0.472623	-0.404545
H77	H	1.056707	-0.681660	-0.247691
H78	H	1.100064	-0.805474	-0.204449
H79	H	1.056819	-0.288916	-0.940280
C80	C	0.684633	-0.531463	-0.454781
C81	C	0.730580	-0.487037	-0.416846
H82	H	0.708621	-0.565805	-0.484109
H83	H	0.657045	-0.561655	-0.425250
H84	H	0.657080	-0.497055	-0.480719
H85	H	0.758130	-0.521445	-0.390903
H86	H	0.758179	-0.456843	-0.446381
H87	H	0.236479	-0.288972	-0.247776
H88	H	0.899647	-0.472373	-0.712708
C89	C	0.328826	-0.230116	-0.197530
C90	C	0.374786	-0.274535	-0.235454
H91	H	0.352804	-0.195763	-0.168203
H92	H	0.301274	-0.199936	-0.227068
H93	H	0.301238	-0.264527	-0.171591
H94	H	0.402371	-0.240125	-0.261398
H95	H	0.402349	-0.304718	-0.205913
H96	H	0.592237	-0.288951	-0.247754
C97	C	0.882148	-1.014482	-0.503703
C98	C	0.843984	-0.967067	-0.460205
H99	H	0.852762	-1.042508	-0.533044
H100	H	0.911603	-0.982242	-0.529623
H101	H	0.907954	-1.050863	-0.477940
H102	H	0.818182	-0.930683	-0.485967
H103	H	0.814517	-0.999310	-0.434282
C104	C	0.156924	-0.476385	-0.407782
C105	C	0.226434	-0.487069	-0.416894
H106	H	0.132948	-0.510734	-0.437114
H107	H	0.145319	-0.487885	-0.362295
H108	H	0.145365	-0.423290	-0.417769
H109	H	0.237995	-0.540163	-0.406901
H110	H	0.238045	-0.475575	-0.462391
H111	H	0.856274	-0.805526	-0.447870
C112	C	1.179451	-0.947063	-0.206774
C113	C	1.112416	-0.967033	-0.192143
H114	H	1.208820	-0.975103	-0.177424
H115	H	1.189341	-0.960545	-0.252257
H116	H	1.185656	-0.891999	-0.200554
H117	H	1.106211	-1.022097	-0.198369
H118	H	1.102523	-0.953557	-0.146649
C119	C	0.925502	-1.138284	-0.460475
C120	C	0.887336	-1.090878	-0.416971
H121	H	0.896118	-1.166303	-0.489822
H122	H	0.954959	-1.106038	-0.486387
H123	H	0.951307	-1.174670	-0.434716
H124	H	0.861535	-1.054488	-0.442730
H125	H	0.857867	-1.123127	-0.391056
H126	H	0.720482	-0.288937	-0.247741
H127	H	0.899682	-0.472330	-0.940231
H128	H	0.899549	-0.681701	-0.404619
H129	H	1.056775	-0.289012	-0.584519
C130	C	1.107141	-0.230229	-0.676895
C131	C	1.069132	-0.274574	-0.722833
H132	H	1.136539	-0.195928	-0.700890
H133	H	1.077661	-0.199996	-0.649324
H134	H	1.133010	-0.264690	-0.649324
H135	H	1.043259	-0.240112	-0.750401
H136	H	1.098616	-0.304808	-0.750415
C137	C	1.060040	-0.285113	-1.148100
C138	C	1.069176	-0.274467	-1.078595
H139	H	1.089428	-0.250798	-1.172091
H140	H	1.069929	-0.338211	-1.159679
H141	H	1.014566	-0.273535	-1.159669
H142	H	1.114648	-0.286050	-1.067025
H143	H	1.059291	-0.221355	-1.067011
C144	C	0.849327	-0.531054	-1.032579
C145	C	0.887353	-0.486682	-1.078538
H146	H	0.819938	-0.565340	-1.056556
H147	H	0.878796	-0.561303	-1.005010
H148	H	0.823448	-0.496609	-1.005007
H149	H	0.913236	-0.521127	-1.106107
H150	H	0.857880	-0.456430	-1.106118
H151	H	0.899621	-0.472406	-0.584462
