data_functionalizedCrystal
_audit_creation_method	'MofGen! by Chris Wilmer'
_symmetry_space_group_name_H-M	'P1'
_symmetry_Int_Tables_number	1
_symmetry_cell_setting	triclinic
loop_
_symmetry_equiv_pos_as_xyz
  x,y,z
_cell_length_a	18.101395
_cell_length_b	19.077105
_cell_length_c	19.076919
_cell_angle_alpha	89.923776
_cell_angle_beta	92.272317
_cell_angle_gamma	92.272502
loop_
_atom_site_label
_atom_site_type_symbol
_atom_site_fract_x
_atom_site_fract_y
_atom_site_fract_z
Zn1	Zn	-0.358271	-1.058231	-0.440421
Zn2	Zn	0.141729	-0.558231	0.059579
Zn3	Zn	-0.477344	-1.062857	-0.322915
Zn4	Zn	0.022656	-0.562857	0.177085
Zn5	Zn	-0.348351	-0.945450	-0.318214
Zn6	Zn	0.151649	-0.445450	0.181786
Zn7	Zn	-0.476897	-0.940679	-0.435668
Zn8	Zn	0.023103	-0.440679	0.064332
O9	O	-0.415216	-1.001804	-0.379305
O10	O	0.084784	-0.501804	0.120695
O11	O	-0.378405	-1.157176	-0.428790
O12	O	0.121595	-0.657176	0.071210
O13	O	-0.456268	-1.051216	-0.223960
O14	O	0.043732	-0.551216	0.276040
O15	O	-0.246037	-0.960470	-0.334447
O16	O	0.253963	-0.460470	0.165553
O17	O	-0.465887	-1.160575	-0.342459
O18	O	0.034113	-0.660575	0.157541
O19	O	-0.253326	-1.043330	-0.424232
O20	O	0.246674	-0.543330	0.075768
O21	O	-0.361497	-0.964957	-0.220507
O22	O	0.138503	-0.464957	0.279493
O23	O	-0.361064	-0.846486	-0.329838
O24	O	0.138936	-0.346486	0.170162
O25	O	-0.465126	-0.952340	-0.534630
O26	O	0.034874	-0.452340	-0.034630
O27	O	-0.455506	-0.842981	-0.416131
O28	O	0.044494	-0.342981	0.083869
O29	O	-0.377972	-1.038704	-0.538122
O30	O	0.122028	-0.538704	-0.038122
O31	O	-0.580914	-1.046590	-0.337850
O32	O	-0.080914	-0.546590	0.162150
O33	O	-0.580586	-0.956826	-0.420689
O34	O	-0.080586	-0.456826	0.079311
C35	C	-0.407161	-0.819237	-0.371959
C36	C	0.092839	-0.319237	0.128041
C37	C	-0.403733	-0.741133	-0.368833
C38	C	0.096267	-0.241133	0.131167
C39	C	-0.607621	-1.001711	-0.379280
C40	C	-0.107621	-0.501711	0.120720
C41	C	-0.689937	-1.001735	-0.379296
C42	C	-0.189937	-0.501735	0.120704
C43	C	-0.422606	-0.994474	-0.562585
C44	C	0.077394	-0.494474	-0.062585
C45	C	-0.425755	-0.991350	-0.640688
C46	C	0.074245	-0.491350	-0.140688
C47	C	-0.989036	-1.001887	-0.379340
C48	C	-0.489036	-0.501887	0.120660
C49	C	-0.957547	-0.945531	-0.431600
C50	C	-0.457547	-0.445531	0.068400
C51	C	-0.871910	-0.945280	-0.431419
C52	C	-0.371910	-0.445280	0.068581
C53	C	-0.840650	-1.001811	-0.379319
C54	C	-0.340650	-0.501811	0.120681
C55	C	-0.867911	-0.984741	-0.304458
C56	C	-0.367911	-0.484741	0.195542
C57	C	-0.953554	-0.984379	-0.304770
C58	C	-0.453554	-0.484379	0.195230
C59	C	-0.961424	-1.075459	-0.401293
C60	C	-0.461424	-0.575459	0.098707
C61	C	-0.875820	-1.074956	-0.402900
C62	C	-0.375820	-0.574956	0.097100
C63	C	-0.756788	-1.001770	-0.379302
C64	C	-0.256788	-0.501770	0.120698
C65	C	-1.072898	-1.001927	-0.379351
C66	C	-0.572898	-0.501927	0.120649
C67	C	-0.222060	-1.001916	-0.379345
C68	C	0.277940	-0.501916	0.120655
C69	C	-0.139749	-1.001964	-0.379363
C70	C	0.360251	-0.501964	0.120637
C71	C	-0.423303	-1.185084	-0.386679
C72	C	0.076697	-0.685084	0.113321
C73	C	-0.426749	-1.263188	-0.389822
C74	C	0.073251	-0.763188	0.110178
C75	C	-0.451363	-0.702636	-0.412222
C76	C	0.048637	-0.202636	0.087778
C77	C	-0.448133	-0.629249	-0.409288
C78	C	0.051867	-0.129249	0.090712
C79	C	-0.397276	-0.594361	-0.362962
C80	C	0.102724	-0.094361	0.137038
C81	C	-0.349642	-0.632863	-0.319571
C82	C	0.150358	-0.132863	0.180429
C83	C	-0.352869	-0.706248	-0.322509
C84	C	0.147131	-0.206248	0.177491
C85	C	-0.382341	-0.375075	-0.349369
C86	C	0.117659	0.124925	0.150631
C87	C	-0.379119	-0.301684	-0.346433
C88	C	0.120881	0.198316	0.153567
C89	C	-0.477610	-0.298076	-0.436152
C90	C	0.022390	0.201924	0.063848
C91	C	-0.480836	-0.371463	-0.439082
C92	C	0.019164	0.128537	0.060918
C93	C	-0.433198	-0.409959	-0.395694
C94	C	0.066802	0.090041	0.104306
N95	N	-0.393975	-0.519348	-0.359960
N96	N	0.106025	-0.019348	0.140040
N97	N	-0.436497	-0.484970	-0.398700
N98	N	0.063503	0.015030	0.101300
C99	C	-0.381860	-1.034846	-0.679200
C100	C	0.118140	-0.534846	-0.179200
C101	C	-0.384816	-1.031902	-0.752586
C102	C	0.115184	-0.531902	-0.252586
C103	C	-0.431671	-0.985466	-0.787458
C104	C	0.068329	-0.485466	-0.287458
C105	C	-0.475568	-0.941966	-0.748941
C106	C	0.024432	-0.441966	-0.248941
C107	C	-0.472608	-0.944906	-0.675556
C108	C	0.027392	-0.444906	-0.175556
C109	C	-0.445387	-0.971847	-1.006740
C110	C	0.054613	-0.471847	-0.506740
C111	C	-0.448346	-0.968911	-1.080130
C112	C	0.051654	-0.468911	-0.580130
C113	C	-0.357593	-1.058847	-1.083770
C114	C	0.142407	-0.558847	-0.583770
C115	C	-0.354640	-1.061786	-1.010384
C116	C	0.145360	-0.561786	-0.510384
C117	C	-0.398533	-1.018283	-0.971872
C118	C	0.101467	-0.518283	-0.471872
N119	N	-0.434696	-0.982458	-0.862471
N120	N	0.065304	-0.482458	-0.362471
N121	N	-0.395505	-1.021289	-0.896861
N122	N	0.104495	-0.521289	-0.396861
C123	C	-0.407803	-1.009146	-0.196739
C124	C	0.092197	-0.509146	0.303261
C125	C	-0.404451	-1.012406	-0.118642
C126	C	0.095549	-0.512406	0.381358
H127	H	-0.853628	-0.955615	-0.486834
H128	H	-0.353628	-0.455615	0.013166
C129	C	-0.847420	-1.134358	-0.355541
C130	C	-0.347420	-0.634358	0.144459
H131	H	-0.813595	-1.115241	-0.320609
H132	H	-0.313595	-0.615241	0.179391
H133	H	-0.823176	-1.167191	-0.383102
H134	H	-0.323176	-0.667191	0.116898
H135	H	-0.887979	-1.157278	-0.333677
H136	H	-0.387979	-0.657278	0.166323
C137	C	-0.840344	-0.871533	-0.411456
C138	C	-0.340344	-0.371533	0.088544
H139	H	-0.787838	-0.871126	-0.411284
H140	H	-0.287838	-0.371126	0.088716
H141	H	-0.855714	-0.859592	-0.366107
H142	H	-0.355714	-0.359592	0.133893
H143	H	-0.857998	-0.838383	-0.444672
H144	H	-0.357998	-0.338383	0.055328
C145	C	-0.300478	-0.748598	-0.274783
C146	C	0.199522	-0.248598	0.225217
H147	H	-0.309678	-0.797300	-0.283172
H148	H	0.190322	-0.297300	0.216828
H149	H	-0.308801	-0.738448	-0.227069
H150	H	0.191199	-0.238448	0.272931
H151	H	-0.250625	-0.736180	-0.284676
H152	H	0.249375	-0.236180	0.215324
H153	H	-0.492778	-0.731037	-0.449944
H154	H	0.007222	-0.231037	0.050056
H155	H	-0.481139	-0.936434	-0.975393
H156	H	0.018861	-0.436434	-0.475393
H157	H	-0.513715	-0.904154	-0.777340
H158	H	-0.013715	-0.404154	-0.277340
C159	C	-0.981494	-1.037636	-0.250158
C160	C	-0.481494	-0.537636	0.249842
H161	H	-1.033976	-1.037779	-0.249983
H162	H	-0.533976	-0.537779	0.250017
H163	H	-0.961447	-1.024865	-0.204987
H164	H	-0.461447	-0.524865	0.295013
H165	H	-0.966302	-1.083125	-0.261824
H166	H	-0.466302	-0.583125	0.238176
H167	H	-0.516393	-0.266725	-0.471476
H168	H	-0.016393	0.233275	0.028524
C169	C	-0.330316	-1.085923	-0.640847
C170	C	0.169684	-0.585923	-0.140847
H171	H	-0.304591	-1.111399	-0.674296
H172	H	0.195409	-0.611399	-0.174296
H173	H	-0.358835	-1.117672	-0.613445
H174	H	0.141165	-0.617672	-0.113445
H175	H	-0.295706	-1.060201	-0.611146
H176	H	0.204294	-0.560201	-0.111146
H177	H	-0.486918	-0.597908	-0.444619
H178	H	0.013082	-0.097908	0.055381
C179	C	-0.520911	-0.897079	-0.633193
C180	C	-0.020911	-0.397079	-0.133193
H181	H	-0.549250	-0.869011	-0.664472
H182	H	-0.049250	-0.369011	-0.164472
H183	H	-0.490092	-0.867621	-0.603330
H184	H	0.009908	-0.367621	-0.103330
H185	H	-0.553207	-0.925105	-0.605652
H186	H	-0.053207	-0.425105	-0.105652
H187	H	-0.486502	-0.931095	-1.108520
H188	H	0.013498	-0.431095	-0.608520
H189	H	-0.970551	-0.930687	-0.286519
H190	H	-0.470551	-0.430687	0.213481
H191	H	-0.980878	-0.955734	-0.487188
H192	H	-0.480878	-0.455734	0.012812
C193	C	-0.536773	-0.409835	-0.490046
C194	C	-0.036773	0.090165	0.009954
H195	H	-0.564673	-0.376397	-0.515472
H196	H	-0.064673	0.123603	-0.015472
H197	H	-0.569168	-0.439521	-0.464259
H198	H	-0.069168	0.060479	0.035741
H199	H	-0.510983	-0.437254	-0.521858
H200	H	-0.010983	0.062746	-0.021858
C201	C	-0.323170	-0.263308	-0.295476
C202	C	0.176830	0.236692	0.204524
H203	H	-0.295256	-0.296744	-0.270061
H204	H	0.204744	0.203256	0.229939
H205	H	-0.348951	-0.235888	-0.263664
H206	H	0.151049	0.264112	0.236336
H207	H	-0.290778	-0.233623	-0.321274
H208	H	0.209222	0.266377	0.178726
H209	H	-0.976217	-0.891266	-0.416994
H210	H	-0.476217	-0.391266	0.083006
C211	C	-0.329955	-0.417412	-0.301632
C212	C	0.170045	0.082588	0.198368
H213	H	-0.299214	-0.386121	-0.273614
H214	H	0.200786	0.113879	0.226386
H215	H	-0.300072	-0.444986	-0.329703
H216	H	0.199928	0.055014	0.170297
H217	H	-0.358266	-0.447242	-0.272112
H218	H	0.141734	0.052758	0.227888
C219	C	-0.293703	-0.594487	-0.268611
C220	C	0.206297	-0.094487	0.231389
H221	H	-0.298607	-0.545268	-0.273069
H222	H	0.201393	-0.045268	0.226931
H223	H	-0.244908	-0.606122	-0.279456
H224	H	0.255092	-0.106122	0.220544
H225	H	-0.303095	-0.608391	-0.221860
H226	H	0.196905	-0.108391	0.278140
C227	C	-0.840378	-1.038618	-0.250242
C228	C	-0.340378	-0.538618	0.249758
H229	H	-0.811941	-1.072080	-0.272834
H230	H	-0.311941	-0.572080	0.227166
H231	H	-0.881603	-1.061820	-0.229732
H232	H	-0.381603	-0.561820	0.270268
H233	H	-0.810588	-1.015191	-0.214718
H234	H	-0.310588	-0.515191	0.285282
H235	H	-0.843494	-0.931637	-0.285943
H236	H	-0.343494	-0.431637	0.214057
C237	C	-0.336536	-1.079751	-0.794947
C238	C	0.163464	-0.579751	-0.294947
H239	H	-0.308214	-1.107834	-0.763668
H240	H	0.191786	-0.607834	-0.263668
H241	H	-0.304235	-1.051747	-0.822498
H242	H	0.195765	-0.551747	-0.322498
H243	H	-0.367377	-1.109204	-0.824801
H244	H	0.132623	-0.609204	-0.324801
H245	H	-0.985932	-1.091602	-0.455108
H246	H	-0.485932	-0.591602	0.044892
C247	C	-0.303100	-1.112866	-0.972029
C248	C	0.196900	-0.612866	-0.472029
H249	H	-0.277377	-1.138347	-1.005476
H250	H	0.222623	-0.638347	-0.505476
H251	H	-0.331627	-1.144611	-0.944630
H252	H	0.168373	-0.644611	-0.444630
H253	H	-0.268489	-1.087150	-0.942325
H254	H	0.231511	-0.587150	-0.442325
H255	H	-0.321856	-1.094263	-1.115133
H256	H	0.178144	-0.594263	-0.615133
C257	C	-0.852211	-1.092423	-0.477347
C258	C	-0.352211	-0.592423	0.022653
H259	H	-0.873668	-1.136726	-0.491318
H260	H	-0.373668	-0.636726	0.008682
H261	H	-0.799832	-1.093970	-0.477576
H262	H	-0.299832	-0.593970	0.022424
H263	H	-0.868582	-1.057348	-0.509083
H264	H	-0.368582	-0.557348	-0.009083
C265	C	-0.988929	-1.132118	-0.349877
C266	C	-0.488929	-0.632118	0.150123
H267	H	-1.017115	-1.111081	-0.315205
H268	H	-0.517115	-0.611081	0.184795
H269	H	-0.947684	-1.153748	-0.327915
H270	H	-0.447684	-0.653748	0.172085
H271	H	-1.018951	-1.166469	-0.374776
H272	H	-0.518951	-0.666469	0.125224
