data_functionalizedCrystal
_audit_creation_method	'MofGen! by Chris Wilmer'
_symmetry_space_group_name_H-M	'P1'
_symmetry_Int_Tables_number	1
_symmetry_cell_setting	triclinic
loop_
_symmetry_equiv_pos_as_xyz
  x,y,z
_cell_length_a	12.827892
_cell_length_b	12.827893
_cell_length_c	12.827885
_cell_angle_alpha	90.021189
_cell_angle_beta	89.970214
_cell_angle_gamma	89.986399
loop_
_atom_site_label
_atom_site_type_symbol
_atom_site_fract_x
_atom_site_fract_y
_atom_site_fract_z
Zn1	Zn	-0.416032	-1.597670	-0.590902
Zn2	Zn	-0.590810	-1.597564	-0.416162
Zn3	Zn	-0.416078	-1.422911	-0.416170
Zn4	Zn	-0.590727	-1.422896	-0.590857
O5	O	-0.503412	-1.510260	-0.503523
O6	O	-0.439233	-1.743892	-0.567738
O7	O	-0.567685	-1.574358	-0.269927
O8	O	-0.269836	-1.446144	-0.439371
O9	O	-0.567641	-1.743814	-0.439358
O10	O	-0.269802	-1.574538	-0.567746
O11	O	-0.439310	-1.446041	-0.269933
O12	O	-0.439230	-1.276673	-0.439327
O13	O	-0.567499	-1.446118	-0.737099
O14	O	-0.567543	-1.276662	-0.567668
O15	O	-0.439152	-1.574524	-0.737132
O16	O	-0.737035	-1.574343	-0.439314
O17	O	-0.736974	-1.446016	-0.567661
C18	C	-0.503383	-1.238750	-0.503494
C19	C	-0.503396	-1.122597	-0.503506
C20	C	-0.439967	-1.070851	-0.567130
C21	C	-0.439979	-0.950800	-0.567144
C22	C	-0.774922	-1.510195	-0.503504
C23	C	-0.891075	-1.510262	-0.503531
C24	C	-0.942855	-1.573838	-0.440092
C25	C	-1.062905	-1.573910	-0.440118
C26	C	-0.230841	-1.510354	-0.503564
C27	C	-0.114688	-1.510394	-0.503582
C28	C	-0.503311	-1.510331	-0.776093
C29	C	-0.503269	-1.510362	-0.892246
C30	C	-0.503432	-0.782830	-0.503544
C31	C	-0.503419	-0.898983	-0.503532
C32	C	-0.439746	-1.573907	-0.944048
C33	C	-0.439700	-1.573940	-1.064098
C34	C	-0.503436	-1.510249	-0.232013
C35	C	-0.503185	-1.510422	-0.115860
H36	H	-0.557732	-0.943477	-0.449064
O37	O	-0.568308	-1.069384	-0.438682
C38	C	-0.709238	-0.945951	-0.424510
C39	C	-0.635805	-1.006164	-0.498044
H40	H	-0.763813	-0.894806	-0.472474
H41	H	-0.757072	-1.003536	-0.376623
H42	H	-0.661134	-0.894877	-0.369980
H43	H	-0.683829	-1.057239	-0.552638
H44	H	-0.587968	-0.948522	-0.545858
O45	O	-0.374927	-1.638995	-1.117189
C46	C	-0.324189	-1.816745	-1.150768
C47	C	-0.397628	-1.743189	-1.090593
H48	H	-0.342501	-1.900999	-1.129271
H49	H	-0.335717	-1.805297	-1.238132
H50	H	-0.239919	-1.798379	-1.129393
H51	H	-0.481926	-1.761509	-1.111881
H52	H	-0.386009	-1.754650	-1.003244
H53	H	-0.557575	-1.456019	-1.071319
H54	H	-0.557612	-1.455975	-0.936774
H55	H	-0.385678	-0.906300	-0.621619
O56	O	-0.889561	-1.638615	-0.375304
C57	C	-0.721318	-1.697683	-0.316282
C58	C	-0.781539	-1.624250	-0.389692
H59	H	-0.633972	-1.686110	-0.327905
H60	H	-0.742714	-1.679408	-0.231963
H61	H	-0.742698	-1.781957	-0.334685
H62	H	-0.760192	-1.539951	-0.371384
H63	H	-0.760138	-1.642614	-0.473989
H64	H	-0.385650	-1.115425	-0.621587
H65	H	-1.107435	-1.628336	-0.385802
O66	O	-0.374755	-1.638674	-0.890981
C67	C	-0.197050	-1.689470	-0.857453
C68	C	-0.270534	-1.616038	-0.917595
H69	H	-0.112773	-1.671209	-0.878965
H70	H	-0.208551	-1.677878	-0.770084
H71	H	-0.215439	-1.773746	-0.878843
H72	H	-0.252190	-1.531734	-0.896293
H73	H	-0.259019	-1.627721	-1.004950
H74	H	-0.935620	-1.455890	-0.557868
H75	H	-1.070166	-1.455957	-0.557894
