data_functionalizedCrystal
_audit_creation_method	'MofGen! by Chris Wilmer'
_symmetry_space_group_name_H-M	'P1'
_symmetry_Int_Tables_number	1
_symmetry_cell_setting	triclinic
loop_
_symmetry_equiv_pos_as_xyz
  x,y,z
_cell_length_a	16.956984
_cell_length_b	13.262508
_cell_length_c	15.455313
_cell_angle_alpha	108.573824
_cell_angle_beta	87.518126
_cell_angle_gamma	80.408168
loop_
_atom_site_label
_atom_site_type_symbol
_atom_site_fract_x
_atom_site_fract_y
_atom_site_fract_z
O1	O	1.061216	0.039208	-0.062884
O2	O	1.561216	0.539208	0.437116
O3	O	0.828754	0.076646	-0.054052
O4	O	1.328754	0.576646	0.445948
O5	O	0.952597	-0.097860	-0.095218
O6	O	1.452597	0.402140	0.404782
O7	O	0.937373	0.213715	-0.021719
O8	O	1.437373	0.713715	0.478281
O9	O	0.945516	-0.087919	0.051389
O10	O	1.445516	0.412081	0.551389
O11	O	0.821673	0.086587	0.092555
O12	O	1.321673	0.586587	0.592555
O13	O	1.054134	0.049149	0.083723
O14	O	1.554134	0.549149	0.583723
Cu15	Cu	0.937257	0.068776	0.101525
Cu16	Cu	1.437257	0.568776	0.601525
Cu17	Cu	0.945632	0.057020	-0.071855
Cu18	Cu	1.445632	0.557020	0.428145
O19	O	0.930291	0.223655	0.124888
O20	O	1.430291	0.723655	0.624888
C21	C	0.795490	0.083534	0.019704
C22	C	1.295490	0.583534	0.519704
C23	C	0.706923	0.089233	0.021048
C24	C	1.206923	0.589233	0.521048
C25	C	0.675613	-0.006063	-0.001430
C26	C	1.175613	0.493937	0.498570
C27	C	0.592394	-0.000702	-0.000172
C28	C	1.092394	0.499298	0.499828
C29	C	0.540487	0.099957	0.023572
C30	C	1.040487	0.599957	0.523572
C31	C	0.571802	0.195261	0.046049
C32	C	1.071802	0.695261	0.546049
C33	C	0.655019	0.189898	0.044784
C34	C	1.155019	0.689898	0.544784
C35	C	0.290499	0.126502	0.029827
C36	C	0.790499	0.626502	0.529827
C37	C	0.207276	0.131858	0.031093
C38	C	0.707276	0.631858	0.531093
C39	C	0.227874	-0.064105	-0.015130
C40	C	0.727874	0.435895	0.484870
C41	C	0.311092	-0.069459	-0.016387
C42	C	0.811092	0.430541	0.483613
C43	C	0.342400	0.025844	0.006086
C44	C	0.842400	0.525844	0.506086
N45	N	0.455424	0.105440	0.024861
N46	N	0.955424	0.605440	0.524861
N47	N	0.427462	0.020360	0.004789
N48	N	0.927462	0.520360	0.504789
C49	C	0.948854	-0.132571	-0.031277
C50	C	1.448854	0.367429	0.468723
C51	C	0.948242	-0.250808	-0.059174
C52	C	1.448242	0.249192	0.440826
C53	C	0.931071	-0.562436	0.181861
C54	C	1.431071	-0.062436	0.681861
C55	C	0.931640	-0.451345	0.208073
C56	C	1.431640	0.048655	0.708073
C57	C	0.935791	-0.401205	0.141263
C58	C	1.435791	0.098795	0.641263
C59	C	0.939372	-0.462168	0.048237
C60	C	1.439372	0.037832	0.548237
C61	C	0.938797	-0.573268	0.022023
C62	C	1.438797	-0.073268	0.522023
C63	C	0.943517	-0.412037	-0.018574
C64	C	1.443517	0.087963	0.481426
C65	C	0.947098	-0.473000	-0.111600
C66	C	1.447098	0.027000	0.388400
C67	C	0.946524	-0.584089	-0.137810
C68	C	1.446524	-0.084089	0.362190
C69	C	0.942373	-0.634229	-0.071001
C70	C	1.442373	-0.134229	0.428999
C71	C	0.944092	-0.300937	0.007640
C72	C	1.444092	0.199063	0.507640
C73	C	0.951818	-0.311769	-0.152198
C74	C	1.451818	0.188231	0.347802
C75	C	0.951249	-0.422860	-0.178410
C76	C	1.451249	0.077140	0.321590
C77	C	1.087399	0.042261	0.009965
C78	C	1.587399	0.542261	0.509965
C79	C	1.175966	0.036562	0.008615
C80	C	1.675966	0.536562	0.508615
C81	C	0.934035	0.258366	0.060946
C82	C	1.434035	0.758366	0.560946
C83	C	0.934647	0.376603	0.088837
C84	C	1.434647	0.876603	0.588837
N85	N	0.931372	0.077043	0.223471
N86	N	1.431372	0.577043	0.723471
N87	N	0.951523	0.048744	-0.193803
N88	N	1.451523	0.548744	0.306197
C89	C	0.984003	0.002930	0.251382
C90	C	1.484003	0.502930	0.751382
C91	C	0.979560	0.009192	0.343667
C92	C	1.479560	0.509192	0.843667
C93	C	0.922490	0.089571	0.408040
C94	C	1.422490	0.589571	0.908040
C95	C	0.869853	0.163687	0.380124
C96	C	1.369853	0.663687	0.880124
C97	C	0.874293	0.157420	0.287839
C98	C	1.374293	0.657420	0.787839
C99	C	0.903326	0.116593	0.685996
C100	C	1.403326	0.616593	1.185996
C101	C	0.898892	0.122856	0.778286
C102	C	1.398892	0.622856	1.278286
C103	C	1.008598	-0.031641	0.741823
C104	C	1.508598	0.468359	1.241823
C105	C	1.013036	-0.037897	0.649539
C106	C	1.513036	0.462103	1.149539
C107	C	0.960397	0.036215	0.621630
C108	C	1.460397	0.536215	1.121630
N109	N	0.917948	0.095975	0.502371
N110	N	1.417948	0.595975	1.002371
N111	N	0.964935	0.029806	0.527299
N112	N	1.464935	0.529806	1.027299
H113	H	0.353350	-0.151426	-0.035718
H114	H	0.853350	0.348574	0.464282
Cl115	Cl	0.955753	-0.499511	-0.295353
Cl116	Cl	1.455753	0.000489	0.204647
Cl117	Cl	1.084783	-0.138945	0.568613
Cl118	Cl	1.584783	0.361055	1.068613
H119	H	0.928732	-0.401719	0.283814
H120	H	1.428732	0.098281	0.783814
H121	H	0.927687	-0.603269	0.236247
H122	H	1.427687	-0.103269	0.736247
H123	H	0.529533	0.277219	0.065376
H124	H	1.029533	0.777219	0.565376
H125	H	1.030479	-0.062519	0.198974
H126	H	1.530479	0.437481	0.698974
H127	H	0.941913	-0.724690	-0.092338
H128	H	1.441913	-0.224690	0.407662
H129	H	0.823381	0.229130	0.432541
H130	H	1.323381	0.729130	0.932541
Cl131	Cl	0.142021	0.258411	0.060953
Cl132	Cl	0.642021	0.758411	0.560953
H133	H	0.949433	-0.633721	-0.213557
H134	H	1.449433	-0.133721	0.286443
H135	H	1.051454	-0.091981	0.764556
H136	H	1.551454	0.408019	1.264556
H137	H	0.852416	0.188315	0.830698
H138	H	1.352416	0.688315	1.330698
H139	H	0.860467	0.176940	0.663280
H140	H	1.360467	0.676940	1.163280
H141	H	0.831435	0.217769	0.265116
H142	H	1.331435	0.717769	0.765116
H143	H	0.941169	-0.251310	0.083383
H144	H	1.441169	0.248690	0.583383
Cl145	Cl	0.957020	-0.248740	-0.236191
Cl146	Cl	1.457020	0.251260	0.263809
H147	H	0.680510	0.267499	0.063092
H148	H	1.180510	0.767499	0.563092
H149	H	0.717871	-0.088030	-0.020761
H150	H	1.217871	0.411970	0.479239
H151	H	0.566906	-0.078302	-0.018477
H152	H	1.066906	0.421698	0.481523
Cl153	Cl	0.188510	-0.183907	-0.043384
Cl154	Cl	0.688510	0.316093	0.456616
H155	H	1.022416	-0.051157	0.366390
H156	H	1.522416	0.448843	0.866390
H157	H	0.936252	-0.310749	0.162611
H158	H	1.436252	0.189251	0.662611
H159	H	0.315980	0.204104	0.048120
H160	H	0.815980	0.704104	0.548120
