data_functionalizedCrystal
_audit_creation_method	'MofGen! by Chris Wilmer'
_symmetry_space_group_name_H-M	'P1'
_symmetry_Int_Tables_number	1
_symmetry_cell_setting	triclinic
loop_
_symmetry_equiv_pos_as_xyz
  x,y,z
_cell_length_a	14.971486
_cell_length_b	9.730223
_cell_length_c	14.971486
_cell_angle_alpha	89.999766
_cell_angle_beta	96.385871
_cell_angle_gamma	89.997868
loop_
_atom_site_label
_atom_site_type_symbol
_atom_site_fract_x
_atom_site_fract_y
_atom_site_fract_z
O1	O	1.186943	0.114132	-0.116557
O2	O	0.926543	0.114170	-0.130516
O3	O	1.063723	0.114140	0.006664
O4	O	1.049764	0.114162	-0.253736
O5	O	1.063714	-0.114439	0.006656
O6	O	0.926534	-0.114410	-0.130523
O7	O	1.186934	-0.114447	-0.116564
Zn8	Zn	1.056733	-0.150721	-0.123545
Zn9	Zn	1.056745	0.150443	-0.123535
O10	O	1.049755	-0.114418	-0.253744
C11	C	0.893214	-0.000115	-0.129895
C12	C	0.793917	-0.000101	-0.128024
N13	N	1.056731	-0.356257	-0.123551
C14	C	0.736692	-0.000096	-0.208614
C15	C	0.643392	-0.000117	-0.206850
C16	C	0.607320	-0.000133	-0.124497
C17	C	0.664552	-0.000141	-0.043902
C18	C	0.757850	-0.000131	-0.045666
C19	C	0.470090	-0.000161	-0.040231
C20	C	0.376786	-0.000169	-0.038466
C21	C	0.355632	-0.000147	-0.201415
C22	C	0.448930	-0.000136	-0.203179
C23	C	0.506156	-0.000143	-0.122584
C24	C	1.111034	-0.428200	-0.177887
C25	C	1.111048	-0.572083	-0.177870
C26	C	1.002448	-0.572068	-0.069180
C27	C	1.002440	-0.428187	-0.069193
C28	C	1.165326	-0.356270	-0.232245
C29	C	1.219632	-0.428212	-0.286585
C30	C	1.219646	-0.572095	-0.286568
C31	C	1.165353	-0.644036	-0.232211
C32	C	1.220263	-0.000159	-0.117185
C33	C	1.319561	-0.000164	-0.119056
C34	C	1.063094	-0.000149	0.039985
C35	C	1.061223	-0.000148	0.139282
N36	N	1.056753	0.355980	-0.123521
C37	C	1.050384	-0.000125	-0.287065
C38	C	1.052254	-0.000118	-0.386362
C39	C	1.141812	-0.000160	0.196507
C40	C	1.140049	-0.000146	0.289807
C41	C	1.057696	-0.000129	0.325879
C42	C	0.977101	-0.000112	0.268646
C43	C	0.978865	-0.000117	0.175349
C44	C	0.973430	-0.000107	0.463109
C45	C	0.971665	-0.000105	0.556413
C46	C	1.134614	-0.000136	0.577567
C47	C	1.136378	-0.000141	0.484269
C48	C	1.055782	-0.000126	0.427043
H49	H	0.766054	-0.000083	-0.275675
Br50	Br	1.165386	-0.839307	-0.232176
H51	H	0.958244	-0.630653	-0.024927
H52	H	0.958220	-0.369610	-0.024950
H53	H	1.208874	-0.000182	0.167145
H54	H	0.913240	-0.000106	0.128756
H55	H	0.910047	-0.000090	0.298024
H56	H	0.596802	-0.000112	-0.272474
Br57	Br	1.293324	-0.330585	-0.360340
H58	H	0.904606	-0.000114	0.585780
Br59	Br	1.165305	-0.161001	-0.232276
H60	H	1.205673	-0.000159	0.336396
H61	H	1.200238	-0.000144	0.624165
Br62	Br	1.293355	-0.669730	-0.360304
H63	H	0.478296	-0.000111	-0.270239
Br64	Br	0.277969	-0.000136	-0.310796
H65	H	1.203437	-0.000164	0.454903
Br66	Br	0.327830	-0.000236	0.073300
H67	H	0.516682	-0.000168	0.025399
Br68	Br	0.615598	-0.000176	0.067865
H69	H	0.907800	-0.000092	0.416517
H70	H	0.804443	-0.000134	0.019958
