data_functionalizedCrystal
_audit_creation_method	'MofGen! by Chris Wilmer'
_symmetry_space_group_name_H-M	'P1'
_symmetry_Int_Tables_number	1
_symmetry_cell_setting	triclinic
loop_
_symmetry_equiv_pos_as_xyz
  x,y,z
_cell_length_a	16.120530
_cell_length_b	18.050588
_cell_length_c	16.120297
_cell_angle_alpha	87.127354
_cell_angle_beta	89.871860
_cell_angle_gamma	87.125117
loop_
_atom_site_label
_atom_site_type_symbol
_atom_site_fract_x
_atom_site_fract_y
_atom_site_fract_z
Zn1	Zn	1.247396	-0.376247	0.534565
Zn2	Zn	1.580729	-0.042913	0.867898
Zn3	Zn	1.914062	0.290420	1.201232
Zn4	Zn	1.254332	-0.494471	0.395507
Zn5	Zn	1.587666	-0.161138	0.728841
Zn6	Zn	1.920999	0.172196	1.062174
Zn7	Zn	1.115387	-0.363697	0.388483
Zn8	Zn	1.448721	-0.030364	0.721816
Zn9	Zn	1.782054	0.302970	1.055150
Zn10	Zn	1.108289	-0.493787	0.527477
Zn11	Zn	1.441622	-0.160454	0.860810
Zn12	Zn	1.774955	0.172880	1.194143
O13	O	1.181351	-0.432050	0.461508
O14	O	1.514684	-0.098717	0.794841
O15	O	1.848018	0.234616	1.128175
O16	O	1.364681	-0.397467	0.522025
O17	O	1.698015	-0.064134	0.855358
O18	O	2.031348	0.269199	1.188692
O19	O	1.241775	-0.472158	0.278210
O20	O	1.575108	-0.138824	0.611544
O21	O	1.908441	0.194509	0.944877
O22	O	1.132966	-0.261442	0.407888
O23	O	1.466300	0.071892	0.741221
O24	O	1.799633	0.405225	1.074554
O25	O	1.369778	-0.484326	0.419860
O26	O	1.703111	-0.150993	0.753193
O27	O	2.036444	0.182340	1.086527
O28	O	1.229952	-0.270661	0.515214
O29	O	1.563286	0.062672	0.848547
O30	O	1.896619	0.396005	1.181880
O31	O	1.139693	-0.376079	0.273049
O32	O	1.473026	-0.042745	0.606383
O33	O	1.806359	0.290588	0.939716
O34	O	0.998080	-0.375416	0.401015
O35	O	1.331414	-0.042082	0.734348
O36	O	1.664747	0.291251	1.067681
O37	O	1.120868	-0.483161	0.644782
O38	O	1.454201	-0.149827	0.978116
O39	O	1.787534	0.183506	1.311449
O40	O	0.992865	-0.470992	0.503133
O41	O	1.326198	-0.137659	0.836466
O42	O	1.659532	0.195675	1.169799
O43	O	1.223069	-0.396804	0.649990
O44	O	1.556402	-0.063471	0.983323
O45	O	1.889736	0.269862	1.316657
O46	O	1.234892	-0.598300	0.412987
O47	O	1.568225	-0.264967	0.746320
O48	O	1.901558	0.068366	1.079653
O49	O	1.127594	-0.597798	0.509944
O50	O	1.460927	-0.264465	0.843277
O51	O	1.794261	0.068869	1.176611
C52	C	0.965300	-0.421768	0.450543
C53	C	1.298634	-0.088435	0.783876
C54	C	1.631967	0.244898	1.117209
C55	C	0.872872	-0.417388	0.445871
C56	C	1.206205	-0.084055	0.779205
C57	C	1.539538	0.249278	1.112538
C58	C	1.181247	-0.624996	0.461478
C59	C	1.514580	-0.291663	0.794811
C60	C	1.847914	0.041670	1.128144
C61	C	1.181277	-0.707544	0.461496
C62	C	1.514610	-0.374211	0.794830
C63	C	1.847944	-0.040878	1.128163
C64	C	0.703643	-0.409375	0.437350
C65	C	1.036976	-0.076042	0.770683
C66	C	1.370310	0.257292	1.104017
C67	C	0.659896	-0.454783	0.485727
C68	C	0.993230	-0.121450	0.819060
C69	C	1.326563	0.211883	1.152393
C70	C	0.565732	-0.450324	0.480985
C71	C	0.899065	-0.116991	0.814319
C72	C	1.232398	0.216342	1.147652
C73	C	0.797816	-0.413833	0.442090
C74	C	1.131150	-0.080499	0.775424
C75	C	1.464483	0.252834	1.108757
C76	C	1.123016	-0.956128	0.514227
C77	C	1.456349	-0.622795	0.847560
C78	C	1.789683	-0.289461	1.180893
C79	C	1.197806	-0.911136	0.538472
C80	C	1.531139	-0.577803	0.871806
C81	C	1.864473	-0.244469	1.205139
C82	C	1.181447	-1.004675	0.461552
C83	C	1.514781	-0.671342	0.794885
C84	C	1.848114	-0.338008	1.128218
C85	C	1.106575	-0.902582	0.437318
C86	C	1.439909	-0.569249	0.770651
C87	C	1.773242	-0.235915	1.103985
C88	C	1.181360	-0.858685	0.461526
C89	C	1.514693	-0.525351	0.794860
C90	C	1.848026	-0.192018	1.128193
C91	C	1.256276	-0.960774	0.485839
C92	C	1.589609	-0.627441	0.819172
C93	C	1.922943	-0.294107	1.152506
C94	C	1.164996	-0.952220	0.384646
C95	C	1.498329	-0.618887	0.717980
C96	C	1.831663	-0.285554	1.051313
C97	C	1.239840	-0.907252	0.408866
C98	C	1.573173	-0.573919	0.742199
C99	C	1.906507	-0.240585	1.075533
C100	C	1.181497	-1.088776	0.461568
C101	C	1.514830	-0.755443	0.794901
C102	C	1.848163	-0.422110	1.128235
C103	C	1.181319	-0.774586	0.461510
C104	C	1.514652	-0.441252	0.794843
C105	C	1.847985	-0.107919	1.128177
C106	C	1.398246	-0.442373	0.472517
C107	C	1.731579	-0.109040	0.805850
C108	C	2.064912	0.224294	1.139183
C109	C	1.490673	-0.446772	0.477208
C110	C	1.824006	-0.113439	0.810541
C111	C	2.157340	0.219895	1.143875
C112	C	1.170403	-0.441306	0.678402
C113	C	1.503736	-0.107973	1.011736
C114	C	1.837069	0.225361	1.345069
C115	C	1.165737	-0.445250	0.770830
C116	C	1.499071	-0.111917	1.104163
C117	C	1.832404	0.221416	1.437496
C118	C	1.181477	-0.238353	0.461558
C119	C	1.514811	0.094981	0.794891
C120	C	1.848144	0.428314	1.128224
C121	C	1.181531	-0.155810	0.461579
C122	C	1.514865	0.177523	0.794912
C123	C	1.848198	0.510856	1.128246
C124	C	1.192305	-0.422779	0.245460
C125	C	1.525638	-0.089446	0.578793
C126	C	1.858971	0.243887	0.912127
C127	C	1.197131	-0.418634	0.153041
C128	C	1.530465	-0.085300	0.486375
C129	C	1.863798	0.248033	0.819708
C130	C	1.157189	-0.452433	0.940054
C131	C	1.490522	-0.119100	1.273388
C132	C	1.823855	0.214233	1.606721
C133	C	1.205677	-0.411453	0.983822
C134	C	1.539011	-0.078119	1.317155
C135	C	1.872344	0.255214	1.650489
C136	C	1.200921	-0.415449	1.077984
C137	C	1.534254	-0.082116	1.411318
C138	C	1.867587	0.251217	1.744651
C139	C	1.161944	-0.448438	0.845883
C140	C	1.495277	-0.115104	1.179217
C141	C	1.828611	0.218229	1.512550
H142	H	0.693164	-0.497006	0.530705
H143	H	1.026497	-0.163673	0.864039
H144	H	1.359830	0.169660	1.197372
H145	H	1.250761	-0.373365	0.950574
H146	H	1.584094	-0.040032	1.283908
H147	H	1.917428	0.293301	1.617241
Br148	Br	1.361776	-1.002983	0.520106
Br149	Br	1.695110	-0.669649	0.853440
Br150	Br	2.028443	-0.336316	1.186773
H151	H	1.211690	-0.892953	0.603499
H152	H	1.545023	-0.559620	0.936833
H153	H	1.878356	-0.226286	1.270166
H154	H	1.112109	-0.490518	0.973300
H155	H	1.445442	-0.157184	1.306633
H156	H	1.778775	0.176149	1.639966
Br157	Br	1.141819	-0.982556	0.276291
Br158	Br	1.475152	-0.649223	0.609624
Br159	Br	1.808486	-0.315889	0.942958
H160	H	0.670378	-0.367155	0.392376
H161	H	1.003711	-0.033821	0.725709
H162	H	1.337045	0.299512	1.059042
Br163	Br	1.040813	-0.991922	0.588550
Br164	Br	1.374146	-0.658588	0.921883
Br165	Br	1.707479	-0.325255	1.255216
H166	H	1.289270	-0.885922	0.364312
H167	H	1.622603	-0.552589	0.697646
H168	H	1.955937	-0.219255	1.030979
H169	H	1.043294	-0.877166	0.416833
H170	H	1.376627	-0.543832	0.750166
H171	H	1.709961	-0.210499	1.083500
