data_functionalizedCrystal
_audit_creation_method	'MofGen! by Chris Wilmer'
_symmetry_space_group_name_H-M	'P1'
_symmetry_Int_Tables_number	1
_symmetry_cell_setting	triclinic
loop_
_symmetry_equiv_pos_as_xyz
  x,y,z
_cell_length_a	18.215407
_cell_length_b	15.299816
_cell_length_c	18.215399
_cell_angle_alpha	99.657378
_cell_angle_beta	89.982187
_cell_angle_gamma	80.345132
loop_
_atom_site_label
_atom_site_type_symbol
_atom_site_fract_x
_atom_site_fract_y
_atom_site_fract_z
Zn1	Zn	1.175788	-0.359210	-0.466849
Zn2	Zn	1.675788	0.140790	0.033151
Zn3	Zn	1.196992	-0.510040	-0.365102
Zn4	Zn	1.696992	-0.010040	0.134898
Zn5	Zn	1.052723	-0.359223	-0.343803
Zn6	Zn	1.552723	0.140777	0.156197
Zn7	Zn	1.073973	-0.509974	-0.488122
Zn8	Zn	1.573973	-0.009974	0.011878
O9	O	1.124869	-0.434612	-0.415969
O10	O	1.624869	0.065388	0.084031
O11	O	1.281588	-0.379239	-0.453363
O12	O	1.781588	0.120761	0.046637
O13	O	1.177835	-0.490067	-0.259297
O14	O	1.677835	0.009933	0.240703
O15	O	1.051280	-0.233009	-0.342309
O16	O	1.551280	0.266991	0.157691
O17	O	1.297167	-0.490054	-0.378610
O18	O	1.797167	0.009946	0.121390
O19	O	1.141696	-0.232999	-0.432710
O20	O	1.641696	0.267001	0.067290
O21	O	1.071841	-0.379263	-0.243649
O22	O	1.571841	0.120737	0.256351
O23	O	0.952554	-0.379199	-0.362936
O24	O	1.452554	0.120801	0.137064
O25	O	1.087498	-0.489942	-0.588280
O26	O	1.587498	0.010058	-0.088280
O27	O	0.968167	-0.489955	-0.468967
O28	O	1.468167	0.010045	0.031033
O29	O	1.162302	-0.379175	-0.572651
O30	O	1.662302	0.120825	-0.072651
O31	O	1.198441	-0.636244	-0.399238
O32	O	1.698441	-0.136244	0.100762
O33	O	1.108059	-0.636196	-0.489620
O34	O	1.608059	-0.136196	0.010380
C35	C	0.933657	-0.434572	-0.415949
C36	C	1.433657	0.065428	0.084051
C37	C	0.851859	-0.434577	-0.415961
C38	C	1.351859	0.065423	0.084039
C39	C	0.578705	-0.377022	-0.454984
C40	C	1.078705	0.122978	0.045016
C41	C	0.655561	-0.377007	-0.454979
C42	C	1.155561	0.122993	0.045021
C43	C	0.671779	-0.492231	-0.376975
C44	C	1.171779	0.007769	0.123025
C45	C	0.594924	-0.492249	-0.376984
C46	C	1.094924	0.007751	0.123016
C47	C	0.548388	-0.434640	-0.415987
C48	C	1.048388	0.065360	0.084013
C49	C	0.702100	-0.434607	-0.415973
C50	C	1.202100	0.065393	0.084027
C51	C	0.785431	-0.434591	-0.415968
C52	C	1.285431	0.065409	0.084032
C53	C	0.465052	-0.434656	-0.415993
C54	C	0.965052	0.065344	0.084007
C55	C	1.157877	-0.668946	-0.449065
C56	C	1.657877	-0.168946	0.050935
C57	C	1.172065	-0.769194	-0.463248
C58	C	1.672065	-0.269194	0.036752
C59	C	1.023947	-1.052100	-0.314851
C60	C	1.523947	-0.552100	0.185149
C61	C	1.010613	-0.957911	-0.301527
C62	C	1.510613	-0.457911	0.198473
C63	C	1.050975	-0.910727	-0.341956
C64	C	1.550975	-0.410727	0.158044
C65	C	1.104673	-0.957741	-0.395711
C66	C	1.604673	-0.457741	0.104289
C67	C	1.118004	-1.051940	-0.409041
C68	C	1.618004	-0.551940	0.090959
C69	C	1.145032	-0.910567	-0.436145
C70	C	1.645032	-0.410567	0.063855
C71	C	1.198730	-0.957581	-0.489901
C72	C	1.698730	-0.457581	0.010099
C73	C	1.212060	-1.051770	-0.503227
C74	C	1.712060	-0.551770	-0.003227
C75	C	1.171698	-1.098954	-0.462799
C76	C	1.671698	-0.598954	0.037201
C77	C	1.131701	-0.816369	-0.422816
C78	C	1.631701	-0.316369	0.077184
C79	C	1.225758	-0.816209	-0.517006
C80	C	1.725758	-0.316209	-0.017006
C81	C	1.239092	-0.910398	-0.530330
C82	C	1.739092	-0.410398	-0.030330
C83	C	1.316828	-0.434652	-0.415990
C84	C	1.816828	0.065348	0.084010
C85	C	1.398629	-0.434670	-0.415999
C86	C	1.898629	0.065330	0.084001
C87	C	1.124905	-0.434550	-0.607913
C88	C	1.624905	0.065450	-0.107913
C89	C	1.124920	-0.434523	-0.689709
C90	C	1.624920	0.065477	-0.189709
C91	C	1.091753	-0.199363	-0.382760
C92	C	1.591753	0.300637	0.117240
C93	C	1.077640	-0.099114	-0.368609
C94	C	1.577640	0.400886	0.131391
C95	C	1.163880	-0.376793	-0.869758
C96	C	1.663880	0.123207	-0.369758
C97	C	1.163885	-0.376767	-0.946613
C98	C	1.663885	0.123233	-0.446613
C99	C	1.085993	-0.492114	-0.962877
C100	C	1.585993	0.007886	-0.462877
C101	C	1.085984	-0.492135	-0.886023
C102	C	1.585984	0.007865	-0.386023
C103	C	1.124932	-0.434476	-0.839466
C104	C	1.624932	0.065524	-0.339466
C105	C	1.124946	-0.434428	-0.993175
C106	C	1.624946	0.065572	-0.493175
C107	C	1.124951	-0.434400	-1.076505
C108	C	1.624951	0.065600	-0.576505
C109	C	1.124926	-0.434502	-0.756130
C110	C	1.624926	0.065498	-0.256130
C111	C	1.124866	-0.434609	-0.224763
C112	C	1.624866	0.065391	0.275237
C113	C	1.124958	-0.434381	-0.142932
C114	C	1.624958	0.065619	0.357068
H115	H	0.540817	-0.330112	-0.486742
H116	H	1.040817	0.169888	0.013258
H117	H	1.054263	-0.539106	-0.861359
H118	H	1.554263	-0.039106	-0.361359
C119	C	0.951550	-0.906197	-0.242404
C120	C	1.451550	-0.406197	0.257596
H121	H	0.949385	-0.843342	-0.240262
H122	H	1.449385	-0.343342	0.259738
H123	H	0.964531	-0.921661	-0.195152
H124	H	1.464531	-0.421661	0.304848
H125	H	0.904287	-0.921674	-0.255330
H126	H	1.404287	-0.421674	0.244670
C127	C	1.206732	-0.313320	-0.979933
C128	C	1.706732	0.186680	-0.479933
H129	H	1.229929	-0.278991	-0.941196
H130	H	1.729929	0.221009	-0.441196
H131	H	1.173052	-0.274006	-1.004361
H132	H	1.673052	0.225994	-0.504361
H133	H	1.243661	-0.347826	-1.014789
H134	H	1.743661	0.152174	-0.514789
C135	C	1.043160	-0.555542	-1.014090
C136	C	1.543160	-0.055542	-0.514090
H137	H	1.019958	-0.589893	-0.985039
H138	H	1.519958	-0.089893	-0.485039
H139	H	1.076850	-0.594836	-1.049621
H140	H	1.576850	-0.094836	-0.549621
H141	H	1.006236	-0.521022	-1.039195
H142	H	1.506236	-0.021022	-0.539195
H143	H	0.570241	-0.539174	-0.345228
H144	H	1.070241	-0.039174	0.154772
H145	H	1.087979	-0.778098	-0.379048
H146	H	1.587979	-0.278098	0.120952
H147	H	0.680241	-0.330090	-0.486736
H148	H	1.180241	0.169910	0.013264
C149	C	0.722968	-0.555587	-0.334067
C150	C	1.222968	-0.055587	0.165933
H151	H	0.773082	-0.547318	-0.339639
H152	H	1.273082	-0.047318	0.160361
H153	H	0.718931	-0.616207	-0.353319
H154	H	1.218931	-0.116207	0.146681
H155	H	0.708477	-0.542308	-0.282761
H156	H	1.208477	-0.042308	0.217239
C157	C	1.036314	-0.807122	-0.327294
C158	C	1.536314	-0.307122	0.172706
H159	H	0.998558	-0.785879	-0.289485
H160	H	1.498558	-0.285879	0.210515
H161	H	1.020546	-0.785780	-0.371754
H162	H	1.520546	-0.285780	0.128246
H163	H	1.080795	-0.785786	-0.311581
H164	H	1.580795	-0.285786	0.188419
H165	H	0.991087	-1.090525	-0.281943
H166	H	1.491087	-0.590525	0.218057
H167	H	1.195591	-0.329841	-0.831852
H168	H	1.695591	0.170159	-0.331852
H169	H	1.182554	-1.175650	-0.473642
H170	H	1.682554	-0.675650	0.026358
H171	H	1.282813	-0.948690	-0.574098
H172	H	1.782813	-0.448690	-0.074098
C173	C	1.271122	-1.103484	-0.562360
C174	C	1.771122	-0.603484	-0.062360
H175	H	1.293255	-1.061896	-0.584525
H176	H	1.793255	-0.561896	-0.084525
H177	H	1.248154	-1.140229	-0.599600
H178	H	1.748154	-0.640229	-0.099600
H179	H	1.308404	-1.140221	-0.539428
H180	H	1.808404	-0.640221	-0.039428
H181	H	1.258623	-0.777793	-0.549928
H182	H	1.758623	-0.277793	-0.049928
