data_functionalizedCrystal
_audit_creation_method	'MofGen! by Chris Wilmer'
_symmetry_space_group_name_H-M	'P1'
_symmetry_Int_Tables_number	1
_symmetry_cell_setting	triclinic
loop_
_symmetry_equiv_pos_as_xyz
  x,y,z
_cell_length_a	12.837943
_cell_length_b	17.038272
_cell_length_c	11.295483
_cell_angle_alpha	94.391706
_cell_angle_beta	85.461227
_cell_angle_gamma	92.970248
loop_
_atom_site_label
_atom_site_type_symbol
_atom_site_fract_x
_atom_site_fract_y
_atom_site_fract_z
O1	O	1.400057	0.199823	-0.099006
O2	O	1.097361	0.189716	-0.099013
O3	O	1.246909	0.080820	-0.099000
O4	O	1.250509	0.308719	-0.099019
O5	O	1.233773	0.090368	0.099049
O6	O	1.084224	0.199264	0.099036
O7	O	1.386921	0.209371	0.099043
Cu8	Cu	1.234373	0.205189	0.117123
Cu9	Cu	1.249908	0.193897	-0.117093
O10	O	1.237372	0.318267	0.099030
C11	C	1.051871	0.191076	0.000011
C12	C	0.935896	0.180893	0.000008
C13	C	0.705733	0.303310	0.000015
C14	C	0.596764	0.293746	0.000014
C15	C	0.608986	0.152201	0.000013
C16	C	0.717955	0.161765	0.000014
C17	C	0.766324	0.237322	0.000014
C18	C	0.875296	0.246885	0.000007
C19	C	0.887516	0.105342	0.000014
C20	C	0.778546	0.095777	0.000013
C21	C	1.237069	0.056221	0.000024
C22	C	1.227305	-0.031301	0.000024
C23	C	1.316945	-0.074719	0.000027
C24	C	1.307766	-0.156956	0.000015
C25	C	1.208945	-0.195773	0.000009
C26	C	1.119299	-0.152349	0.000002
C27	C	1.128480	-0.070114	0.000005
C28	C	1.176511	-0.443954	-0.000008
C29	C	1.167337	-0.526195	-0.000007
C30	C	1.355805	-0.530796	0.000004
C31	C	1.364977	-0.448559	0.000014
C32	C	1.275331	-0.405143	0.000001
C33	C	1.199560	-0.279832	0.000001
C34	C	1.284718	-0.321086	0.000000
C35	C	1.432411	0.208011	0.000017
C36	C	1.548386	0.218194	0.000011
C37	C	1.247213	0.342865	0.000003
C38	C	1.256977	0.430387	-0.000004
N39	N	1.223454	0.213132	0.281859
N40	N	1.260835	0.185950	-0.281829
C41	C	1.339435	0.128734	0.531158
C42	C	1.331191	0.134742	0.655821
C43	C	1.198717	0.231151	0.655850
C44	C	1.206961	0.225143	0.531187
C45	C	1.277323	0.173934	0.468845
C46	C	1.285572	0.167930	0.344180
C47	C	1.153093	0.264335	0.344211
C48	C	1.144849	0.270343	0.468874
H49	H	0.936862	0.051609	0.000005
H50	H	1.381767	0.097934	0.706553
O51	O	1.071344	-0.563926	0.000192
C52	C	1.053596	-0.606428	0.102750
H53	H	1.105075	-0.579496	0.174447
H54	H	0.967863	-0.603666	0.137170
H55	H	1.073496	-0.670488	0.079566
O56	O	1.442968	-0.572895	-0.000155
C57	C	1.509325	-0.559154	-0.102742
H58	H	1.491461	-0.500438	-0.136934
H59	H	1.594316	-0.557335	-0.079676
H60	H	1.495858	-0.608576	-0.174569
H61	H	1.038837	-0.183960	-0.000010
H62	H	1.380760	-0.192303	0.000021
O63	O	1.407805	0.078931	0.470777
C64	C	1.460886	0.040343	0.552510
H65	H	1.412151	0.040528	0.641385
H66	H	1.473651	-0.023052	0.516487
H67	H	1.539776	0.072347	0.565747
O68	O	1.092601	0.308208	0.283807
C69	C	0.986160	0.289137	0.314261
H70	H	0.977618	0.263170	0.404775
H71	H	0.939711	0.344655	0.318533
H72	H	0.955078	0.244165	0.244104
H73	H	1.141422	0.272839	0.706625
H74	H	1.103515	-0.408614	-0.000018
O75	O	1.076444	0.319981	0.529572
C76	C	1.003564	0.276484	0.601674
H77	H	1.038453	0.218908	0.620338
H78	H	0.984159	0.312321	0.689342
H79	H	0.929148	0.263051	0.553649
H80	H	0.914677	0.308407	0.000008
O81	O	1.413024	-0.037142	-0.000023
C82	C	1.490170	-0.093102	0.000003
H83	H	1.458484	-0.152852	-0.037491
H84	H	1.562541	-0.073724	-0.057498
H85	H	1.511870	-0.097979	0.095017
O86	O	1.041294	-0.028052	0.000055
C87	C	0.952104	-0.079946	0.000018
H88	H	0.970695	-0.137434	0.037519
H89	H	0.885035	-0.051804	0.057509
H90	H	0.928462	-0.092563	-0.094999
O91	O	1.380745	-0.283428	-0.000206
C92	C	1.442651	-0.309874	-0.102757
H93	H	1.389755	-0.334593	-0.174455
H94	H	1.493708	-0.258492	-0.137183
H95	H	1.494548	-0.357921	-0.079561
H96	H	0.745116	0.364831	0.000013
H97	H	1.445447	-0.416960	0.000019
H98	H	0.547433	0.347481	0.000019
O99	O	1.103635	-0.317637	-0.000153
C100	C	1.099484	-0.369992	-0.102742
H101	H	1.182195	-0.385948	-0.136945
H102	H	1.051630	-0.425740	-0.079675
H103	H	1.061272	-0.340626	-0.174562
O104	O	1.353797	0.118058	0.283699
C105	C	1.327929	0.040362	0.314231
H106	H	1.242078	0.035396	0.348502
H107	H	1.341871	-0.002210	0.232272
H108	H	1.378919	0.025073	0.386606
H109	H	0.739148	0.034262	0.000027
O110	O	0.561825	0.078865	-0.000026
C111	C	0.452651	0.084581	0.000016
H112	H	0.435006	0.142289	-0.037487
H113	H	0.418940	0.032977	-0.057470
H114	H	0.415725	0.083100	0.095036
