data_functionalizedCrystal
_audit_creation_method	'MofGen! by Chris Wilmer'
_symmetry_space_group_name_H-M	'P1'
_symmetry_Int_Tables_number	1
_symmetry_cell_setting	triclinic
loop_
_symmetry_equiv_pos_as_xyz
  x,y,z
_cell_length_a	17.699083
_cell_length_b	17.699092
_cell_length_c	18.366186
_cell_angle_alpha	89.995439
_cell_angle_beta	89.996982
_cell_angle_gamma	83.284691
loop_
_atom_site_label
_atom_site_type_symbol
_atom_site_fract_x
_atom_site_fract_y
_atom_site_fract_z
O1	O	1.004083	0.095712	-0.060445
O2	O	1.504083	0.595712	0.439555
O3	O	0.783705	0.108164	-0.060468
O4	O	1.283705	0.608164	0.439532
O5	O	0.900117	-0.008251	-0.060454
O6	O	1.400117	0.491749	0.439546
O7	O	0.887671	0.212127	-0.060459
O8	O	1.387671	0.712127	0.439541
O9	O	0.900098	-0.008256	0.060645
O10	O	1.400098	0.491744	0.560645
O11	O	0.783686	0.108159	0.060631
O12	O	1.283686	0.608159	0.560631
O13	O	1.004064	0.095706	0.060655
O14	O	1.504064	0.595706	0.560655
Zn15	Zn	0.893872	0.101931	0.079870
Zn16	Zn	1.393872	0.601931	0.579870
Zn17	Zn	0.893898	0.101939	-0.079684
Zn18	Zn	1.393898	0.601939	0.420316
O19	O	0.887652	0.212121	0.060640
O20	O	1.387652	0.712121	0.560640
C21	C	0.755499	0.107715	0.000078
C22	C	1.255499	0.607715	0.500078
C23	C	0.671480	0.106377	0.000069
C24	C	1.171480	0.606377	0.500069
C25	C	0.899661	-0.036450	0.000094
C26	C	1.399661	0.463550	0.500094
C27	C	0.898319	-0.120468	0.000091
C28	C	1.398319	0.379532	0.500091
C29	C	0.897702	-0.159932	-0.065921
C30	C	1.397702	0.340068	0.434079
C31	C	0.896437	-0.238875	-0.065922
C32	C	1.396437	0.261125	0.434078
C33	C	0.895795	-0.278353	0.000090
C34	C	1.395795	0.221647	0.500090
C35	C	0.896410	-0.238883	0.066107
C36	C	1.396410	0.261117	0.566107
C37	C	0.897670	-0.159941	0.066107
C38	C	1.397670	0.340059	0.566107
C39	C	0.891330	-0.557248	0.066107
C40	C	1.391330	-0.057248	0.566107
C41	C	0.890073	-0.636196	0.066102
C42	C	1.390073	-0.136196	0.566102
C43	C	0.890097	-0.636183	-0.065922
C44	C	1.390097	-0.136183	0.434078
C45	C	0.891357	-0.557240	-0.065922
C46	C	1.391357	-0.057240	0.434078
C47	C	0.891968	-0.517777	0.000095
C48	C	1.391968	-0.017777	0.500095
C49	C	0.893338	-0.432178	0.000095
C50	C	1.393338	0.067822	0.500095
C51	C	0.894430	-0.363952	0.000090
C52	C	1.394430	0.136048	0.500090
C53	C	0.622862	0.174710	0.000068
C54	C	1.122862	0.674710	0.500068
C55	C	0.543918	0.173448	0.000077
C56	C	1.043918	0.673448	0.500077
C57	C	0.513595	0.103851	0.000083
C58	C	1.013595	0.603851	0.500083
C59	C	0.562220	0.035513	0.000086
C60	C	1.062220	0.535513	0.500086
C61	C	0.641162	0.036776	0.000082
C62	C	1.141162	0.536776	0.500082
C63	C	0.243857	0.030418	0.000104
C64	C	0.743857	0.530418	0.500104
C65	C	0.164909	0.029160	0.000107
C66	C	0.664909	0.529160	0.500107
C67	C	0.146613	0.167089	0.000100
C68	C	0.646613	0.667089	0.500100
C69	C	0.225555	0.168352	0.000096
C70	C	0.725555	0.668352	0.500096
C71	C	0.274173	0.100014	0.000103
C72	C	0.774173	0.600014	0.500103
C73	C	0.359772	0.101384	0.000094
C74	C	0.859772	0.601384	0.500094
C75	C	0.427998	0.102481	0.000087
C76	C	0.927998	0.602481	0.500087
C77	C	1.032271	0.096155	0.000106
C78	C	1.532271	0.596155	0.500106
C79	C	1.116289	0.097494	0.000111
C80	C	1.616289	0.597494	0.500111
C81	C	0.888109	0.240321	0.000090
C82	C	1.388109	0.740321	0.500090
C83	C	0.889450	0.324339	0.000089
C84	C	1.389450	0.824339	0.500089
N85	N	0.893859	0.101926	0.188761
N86	N	1.393859	0.601926	0.688761
N87	N	0.893916	0.101939	-0.188575
N88	N	1.393916	0.601939	0.311425
C89	C	0.945423	0.050403	0.226868
C90	C	1.445423	0.550403	0.726868
C91	C	0.945428	0.050399	0.303095
C92	C	1.445428	0.550399	0.803095
C93	C	0.893876	0.101932	0.341214
C94	C	1.393876	0.601932	0.841214
C95	C	0.842302	0.153459	0.303098
C96	C	1.342302	0.653459	0.803098
C97	C	0.842294	0.153456	0.226872
C98	C	1.342294	0.653456	0.726872
C99	C	0.883835	0.170881	0.461972
C100	C	1.383835	0.670881	0.961972
C101	C	0.883849	0.170885	0.538197
C102	C	1.383849	0.670885	1.038197
C103	C	0.893898	0.101942	0.576321
C104	C	1.393898	0.601942	1.076321
C105	C	0.903949	0.032991	0.538211
C106	C	1.403949	0.532991	1.038211
C107	C	0.903940	0.032988	0.461985
C108	C	1.403940	0.532988	0.961985
C109	C	0.893879	0.101941	0.423868
C110	C	1.393879	0.601941	0.923868
C111	C	0.945470	0.050410	0.697083
C112	C	1.445470	0.550410	1.197083
C113	C	0.945469	0.050406	0.773312
C114	C	1.445469	0.550406	1.273312
C115	C	0.842347	0.153473	0.773313
C116	C	1.342347	0.653473	1.273313
C117	C	0.842344	0.153471	0.697085
C118	C	1.342344	0.653471	1.197085
C119	C	0.893909	0.101940	0.658975
C120	C	1.393909	0.601940	1.158975
H121	H	0.898229	-0.127796	-0.119676
H122	H	1.398229	0.372204	0.380324
H123	H	0.987457	0.008446	0.804339
H124	H	1.487457	0.508446	1.304339
F125	F	0.492177	0.246177	0.000073
F126	F	0.992177	0.746177	0.500073
H127	H	0.140224	-0.027517	0.000112
H128	H	0.640224	0.472483	0.500112
H129	H	0.987419	0.008441	0.334128
H130	H	1.487419	0.508441	0.834128
F131	F	0.914631	-0.040392	0.421428
F132	F	1.414631	0.459608	0.921428
H133	H	0.912131	-0.023149	0.569250
H134	H	1.412131	0.476851	1.069250
F135	F	0.873157	0.244267	0.578749
F136	F	1.373157	0.744267	1.078749
F137	F	0.295591	-0.042314	0.000112
F138	F	0.795591	0.457686	0.500112
F139	F	0.787410	0.208297	0.186314
F140	F	1.287410	0.708297	0.686314
F141	F	0.094864	0.239821	0.000095
F142	F	0.594864	0.739821	0.500095
F143	F	0.891971	-0.515257	0.136368
F144	F	1.391971	-0.015257	0.636368
F145	F	0.257822	0.242426	0.000085
F146	F	0.757822	0.742426	0.500085
F147	F	0.895719	-0.280900	0.136362
F148	F	1.395719	0.219100	0.636362
H149	H	0.898162	-0.127809	0.119861
H150	H	1.398162	0.372191	0.619861
H151	H	0.537525	-0.021154	0.000101
H152	H	1.037525	0.478846	0.500101
F153	F	0.692906	-0.035954	0.000086
F154	F	1.192906	0.464046	0.500086
F155	F	1.000300	-0.004442	0.186309
F156	F	1.500300	0.495558	0.686309
F157	F	0.787434	0.208302	0.343666
F158	F	1.287434	0.708302	0.843666
F159	F	0.655126	0.248785	0.000057
F160	F	1.155126	0.748785	0.500057
H161	H	0.987455	0.008449	0.666052
H162	H	1.487455	0.508449	1.166052
F163	F	0.787477	0.208313	0.813878
F164	F	1.287477	0.708313	1.313878
H165	H	0.895937	-0.271004	-0.119676
H166	H	1.395937	0.228996	0.380324
F167	F	0.892044	-0.515230	-0.136181
F168	F	1.392044	-0.015230	0.363819
H169	H	0.875639	0.227027	0.430937
H170	H	1.375639	0.727027	0.930937
F171	F	0.889444	-0.678189	-0.136184
F172	F	1.389444	-0.178189	0.363816
F173	F	0.889388	-0.678210	0.136364
F174	F	1.389388	-0.178210	0.636364
F175	F	0.787466	0.208312	0.656526
F176	F	1.287466	0.708312	1.156526
