data_functionalizedCrystal
_audit_creation_method	'MofGen! by Chris Wilmer'
_symmetry_space_group_name_H-M	'P1'
_symmetry_Int_Tables_number	1
_symmetry_cell_setting	triclinic
loop_
_symmetry_equiv_pos_as_xyz
  x,y,z
_cell_length_a	12.759401
_cell_length_b	18.215405
_cell_length_c	12.759393
_cell_angle_alpha	90.036495
_cell_angle_beta	90.020938
_cell_angle_gamma	90.026410
loop_
_atom_site_label
_atom_site_type_symbol
_atom_site_fract_x
_atom_site_fract_y
_atom_site_fract_z
Zn1	Zn	1.606192	-0.292919	0.593976
Zn2	Zn	2.106192	0.207081	1.093976
Zn3	Zn	1.606052	-0.416003	0.418278
Zn4	Zn	2.106052	0.083997	0.918278
Zn5	Zn	1.430491	-0.292958	0.418311
Zn6	Zn	1.930491	0.207042	0.918311
Zn7	Zn	1.430451	-0.415951	0.593915
Zn8	Zn	1.930451	0.084049	1.093915
O9	O	1.518296	-0.354458	0.506120
O10	O	2.018296	0.145542	1.006120
O11	O	1.753194	-0.309251	0.570681
O12	O	2.253194	0.190749	1.070681
O13	O	1.582721	-0.399719	0.271261
O14	O	2.082721	0.100281	0.771261
O15	O	1.453873	-0.189968	0.441653
O16	O	1.953873	0.310032	0.941653
O17	O	1.753091	-0.399681	0.441596
O18	O	2.253091	0.100319	0.941596
O19	O	1.582960	-0.189940	0.570714
O20	O	2.082960	0.310060	1.070714
O21	O	1.453737	-0.309318	0.271286
O22	O	1.953737	0.190682	0.771286
O23	O	1.283465	-0.309268	0.441594
O24	O	1.783465	0.190732	0.941594
O25	O	1.453806	-0.399593	0.740944
O26	O	1.953806	0.100407	1.240944
O27	O	1.283436	-0.399631	0.570609
O28	O	1.783436	0.100369	1.070609
O29	O	1.582922	-0.309201	0.740989
O30	O	2.082922	0.190799	1.240989
O31	O	1.582683	-0.518980	0.441537
O32	O	2.082683	-0.018980	0.941537
O33	O	1.453670	-0.518942	0.570577
O34	O	1.953670	-0.018942	1.070577
C35	C	1.245329	-0.354449	0.506099
C36	C	1.745329	0.145551	1.006099
C37	C	1.128552	-0.354463	0.506115
C38	C	1.628552	0.145537	1.006115
C39	C	1.073703	-0.401586	0.573188
C40	C	1.573703	0.098414	1.073188
C41	C	0.963979	-0.401589	0.573209
C42	C	1.463979	0.098411	1.073209
C43	C	0.963964	-0.307343	0.439076
C44	C	1.463964	0.192657	0.939076
C45	C	1.073686	-0.307337	0.439061
C46	C	1.573686	0.192663	0.939061
C47	C	1.518186	-0.545664	0.506070
C48	C	2.018186	-0.045664	1.006070
C49	C	1.518234	-0.627463	0.506083
C50	C	2.018234	-0.127463	1.006083
C51	C	1.585569	-0.815652	0.439016
C52	C	2.085569	-0.315652	0.939016
C53	C	1.585616	-0.892511	0.439041
C54	C	2.085616	-0.392511	0.939041
C55	C	1.451158	-0.892511	0.573300
C56	C	1.951158	-0.392511	1.073300
C57	C	1.451118	-0.815654	0.573279
C58	C	1.951118	-0.315654	1.073279
C59	C	1.518321	-0.777226	0.506131
C60	C	2.018321	-0.277226	1.006131
C61	C	1.518409	-0.930942	0.506178
C62	C	2.018409	-0.430942	1.006178
C63	C	1.518460	-1.014276	0.506206
C64	C	2.018460	-0.514276	1.006206
C65	C	1.518272	-0.693887	0.506104
C66	C	2.018272	-0.193887	1.006104
C67	C	1.792330	-0.354467	0.506142
C68	C	2.292330	0.145533	1.006142
C69	C	1.909106	-0.354471	0.506151
C70	C	2.409106	0.145529	1.006151
C71	C	1.518375	-0.354387	0.780154
C72	C	2.018375	0.145613	1.280154
C73	C	1.518409	-0.354357	0.896930
C74	C	2.018409	0.145643	1.396930
C75	C	1.518437	-0.162505	0.506194
C76	C	2.018437	0.337495	1.006194
C77	C	1.518496	-0.080706	0.506225
C78	C	2.018496	0.419294	1.006225
C79	C	1.518279	-0.354475	0.233153
C80	C	2.018279	0.145525	0.733153
C81	C	1.518449	-0.354298	0.116377
C82	C	2.018449	0.145702	0.616377
C83	C	1.585644	-0.307283	0.951818
C84	C	2.085644	0.192717	1.451818
C85	C	1.585662	-0.307251	1.061542
C86	C	2.085662	0.192749	1.561542
C87	C	1.451206	-0.401374	1.061482
C88	C	1.951206	0.098626	1.561482
C89	C	1.451183	-0.401402	0.951760
C90	C	1.951183	0.098598	1.451760
H91	H	1.118372	-0.439957	0.627791
H92	H	1.618372	0.060043	1.127791
H93	H	1.396356	-0.784366	0.627938
H94	H	1.896356	-0.284366	1.127938
H95	H	1.396425	-0.439735	0.907070
H96	H	1.896425	0.060265	1.407070
O97	O	0.910814	-0.447331	0.638507
O98	O	1.410814	0.052669	1.138507
C99	C	0.937673	-0.431325	0.743258
C100	C	1.437673	0.068675	1.243258
H101	H	1.017355	-0.403033	0.745497
H102	H	1.517355	0.096967	1.245497
H103	H	0.875960	-0.393523	0.778758
H104	H	1.375960	0.106477	1.278758
C105	C	0.844869	-0.537874	0.803954
C106	C	1.344869	-0.037874	1.303954
C107	C	0.942741	-0.503131	0.806705
C108	C	1.442741	-0.003131	1.306705
H109	H	0.847991	-0.582166	0.843093
H110	H	1.347991	-0.082166	1.343093
H111	H	0.826770	-0.548656	0.733381
H112	H	1.326770	-0.048656	1.233381
H113	H	0.793453	-0.506365	0.833535
H114	H	1.293453	-0.006365	1.333535
H115	H	0.994153	-0.534636	0.777112
H116	H	1.494153	-0.034636	1.277112
H117	H	0.960849	-0.492356	0.877274
H118	H	1.460849	0.007644	1.377274
O119	O	0.910501	-0.261638	0.373974
O120	O	1.410501	0.238362	0.873974
C121	C	0.801895	-0.271733	0.388387
C122	C	1.301895	0.228267	0.888387
H123	H	0.786894	-0.328559	0.422642
H124	H	1.286894	0.171441	0.922642
H125	H	0.770812	-0.228132	0.444459
H126	H	1.270812	0.271868	0.944459
C127	C	0.763937	-0.195102	0.240038
C128	C	1.263937	0.304898	0.740038
C129	C	0.745512	-0.264899	0.282103
C130	C	1.245512	0.235101	0.782103
H131	H	0.729155	-0.190883	0.174479
H132	H	1.229155	0.309117	0.674479
H133	H	0.837106	-0.188298	0.230330
H134	H	1.337106	0.311702	0.730330
H135	H	0.738034	-0.158776	0.286775
H136	H	1.238034	0.341224	0.786775
H137	H	0.771426	-0.301223	0.235373
H138	H	1.271426	0.198777	0.735373
H139	H	0.672345	-0.271709	0.291801
H140	H	1.172345	0.228291	0.791801
O141	O	1.126811	-0.261535	0.373802
O142	O	1.626811	0.238465	0.873802
C143	C	1.054859	-0.219934	0.314633
C144	C	1.554859	0.280066	0.814633
H145	H	0.976625	-0.250076	0.310921
H146	H	1.476625	0.249924	0.810921
H147	H	1.043240	-0.164074	0.353256
H148	H	1.543240	0.335926	0.853256
C149	C	1.193725	-0.172207	0.207400
C150	C	1.693725	0.327793	0.707400
C151	C	1.097640	-0.209232	0.202833
C152	C	1.597640	0.290768	0.702833
H153	H	1.220116	-0.165603	0.138438
H154	H	1.720116	0.334397	0.638438
H155	H	1.242202	-0.200233	0.247265
H156	H	1.742202	0.299767	0.747265
H157	H	1.184030	-0.125662	0.239590
H158	H	1.684030	0.374338	0.739590
H159	H	1.107339	-0.255780	0.170655
H160	H	1.607339	0.244220	0.670655
H161	H	1.049166	-0.181215	0.162960
H162	H	1.549166	0.318785	0.662960
H163	H	1.640292	-0.784366	0.384341
H164	H	2.140292	-0.284366	0.884341
H165	H	1.640377	-0.923793	0.384391
H166	H	2.140377	-0.423793	0.884391
H167	H	1.640381	-0.268974	0.907179
H168	H	2.140381	0.231026	1.407179
O169	O	1.385907	-0.929955	0.638418
O170	O	1.885907	-0.429955	1.138418
C171	C	1.400377	-1.006032	0.624063
C172	C	1.900377	-0.506032	1.124063
H173	H	1.434839	-1.016555	0.543019
H174	H	1.934839	-0.516555	1.043019
H175	H	1.456299	-1.027776	0.686440
H176	H	1.956299	-0.527776	1.186440
C177	C	1.251761	-1.032621	0.733138
C178	C	1.751761	-0.532621	1.233138
C179	C	1.294080	-1.045546	0.633594
C180	C	1.794080	-0.545546	1.133594
H181	H	1.186194	-1.056996	0.739021
H182	H	1.686194	-0.556996	1.239021
H183	H	1.242014	-0.981367	0.742813
H184	H	1.742014	-0.481367	1.242813
H185	H	1.298373	-1.050741	0.785107
H186	H	1.798373	-0.550741	1.285107
H187	H	1.247475	-1.027418	0.581627
H188	H	1.747475	-0.527418	1.081627
H189	H	1.303817	-1.096798	0.623910
H190	H	1.803817	-0.596798	1.123910
O191	O	1.386011	-0.447051	1.114908
O192	O	1.886011	0.052949	1.614908
C193	C	1.400429	-0.436922	1.223522
C194	C	1.900429	0.063078	1.723522
H195	H	1.481530	-0.412821	1.238531
H196	H	1.981530	0.087179	1.738531
H197	H	1.338148	-0.397720	1.254666
H198	H	1.838148	0.102280	1.754666
C199	C	1.291144	-0.540971	1.261388
C200	C	1.791144	-0.040971	1.761388
C201	C	1.390758	-0.511375	1.279823
C202	C	1.890758	-0.011375	1.779823
H203	H	1.285174	-0.586896	1.296119
H204	H	1.785174	-0.086896	1.796119
H205	H	1.281426	-0.547794	1.188213
H206	H	1.781426	-0.047794	1.688213
H207	H	1.239254	-0.508295	1.287341
H208	H	1.739254	-0.008295	1.787341
H209	H	1.442645	-0.544046	1.253858
H210	H	1.942645	-0.044046	1.753858
H211	H	1.400484	-0.504559	1.352995
H212	H	1.900484	-0.004559	1.852995
H213	H	1.640410	-0.268917	1.106226
H214	H	2.140410	0.231083	1.606226
