data_functionalizedCrystal
_audit_creation_method	'MofGen! by Chris Wilmer'
_symmetry_space_group_name_H-M	'P1'
_symmetry_Int_Tables_number	1
_symmetry_cell_setting	triclinic
loop_
_symmetry_equiv_pos_as_xyz
  x,y,z
_cell_length_a	12.970454
_cell_length_b	12.970454
_cell_length_c	12.970454
_cell_angle_alpha	89.998716
_cell_angle_beta	59.999776
_cell_angle_gamma	59.999320
loop_
_atom_site_label
_atom_site_type_symbol
_atom_site_fract_x
_atom_site_fract_y
_atom_site_fract_z
Zr1	Zr	1.128515	0.993222	-0.135320
O2	O	1.343606	0.828599	-0.299943
O3	O	0.913424	1.043688	-0.084854
O4	O	1.128514	1.043690	-0.299945
O5	O	1.128517	0.828596	0.084815
O6	O	1.128513	1.213357	-0.299948
O7	O	1.128516	0.828597	-0.084852
O8	O	0.743757	1.213354	0.084811
O9	O	1.513273	0.828599	-0.299944
O10	O	1.001893	1.191832	-0.063334
O11	O	1.001895	1.065210	0.063289
O12	O	1.255135	1.065212	-0.189953
O13	O	1.255136	0.938590	-0.063331
Zr14	Zr	1.128515	1.263820	0.135274
Zr15	Zr	1.128514	1.263822	-0.135325
Zr16	Zr	1.128516	0.993220	0.135278
Zr17	Zr	1.399115	0.993222	-0.135322
Zr18	Zr	0.857915	1.263820	0.135275
O19	O	1.343606	1.213355	0.084808
O20	O	1.343604	1.213357	-0.299949
O21	O	1.343608	0.828596	0.084814
O22	O	0.913424	1.428444	0.299896
O23	O	0.913422	1.428447	-0.084860
O24	O	0.913426	1.043686	0.299902
O25	O	1.128513	1.428447	-0.084861
O26	O	1.128516	1.213353	0.299899
O27	O	1.128517	1.043686	0.299901
O28	O	1.128514	1.428445	0.084805
O29	O	1.513272	1.043690	-0.299947
O30	O	0.743758	1.213353	0.299900
O31	O	0.743757	1.428444	0.299897
O32	O	0.743756	1.428445	0.084807
O33	O	1.513274	0.828597	-0.084854
O34	O	1.513273	1.043688	-0.084857
O35	O	1.001895	1.191830	0.189907
O36	O	1.001893	1.318452	0.063285
O37	O	1.255135	1.191832	-0.063335
O38	O	1.255136	1.065211	0.063287
C39	C	0.790036	1.128521	-0.000021
C40	C	0.675159	1.128521	-0.000021
C41	C	1.128517	0.790042	-0.000018
C42	C	1.128517	0.675165	-0.000016
C43	C	1.466994	1.128521	-0.000025
C44	C	1.581871	1.128521	-0.000026
C45	C	1.128513	1.128524	-0.338501
C46	C	1.128513	1.128525	-0.453377
C47	C	1.128513	1.467001	-0.000028
C48	C	1.128513	1.581877	-0.000030
C49	C	1.128517	1.128519	0.338454
C50	C	1.128517	1.128518	0.453330
C51	C	0.790034	1.467001	-0.000027
C52	C	0.675157	1.581877	-0.000028
C53	C	0.790038	1.128519	0.338456
C54	C	0.675161	1.128518	0.453333
C55	C	0.790036	1.466998	0.338451
C56	C	0.675159	1.581874	0.453326
C57	C	1.466994	0.790044	-0.338497
C58	C	1.581871	0.675169	-0.453372
C59	C	1.466996	0.790042	-0.000020
C60	C	1.581873	0.675165	-0.000019
C61	C	1.466992	1.128524	-0.338502
C62	C	1.581869	1.128525	-0.453379
