data_functionalizedCrystal
_audit_creation_method	'MofGen! by Chris Wilmer'
_symmetry_space_group_name_H-M	'P1'
_symmetry_Int_Tables_number	1
_symmetry_cell_setting	triclinic
loop_
_symmetry_equiv_pos_as_xyz
  x,y,z
_cell_length_a	13.897449
_cell_length_b	13.897449
_cell_length_c	13.897441
_cell_angle_alpha	90.020649
_cell_angle_beta	90.014519
_cell_angle_gamma	90.007445
loop_
_atom_site_label
_atom_site_type_symbol
_atom_site_fract_x
_atom_site_fract_y
_atom_site_fract_z
Zn1	Zn	1.474783	-0.383869	0.545336
Zn2	Zn	1.974783	0.116131	1.045336
Zn3	Zn	1.474726	-0.545188	0.384063
Zn4	Zn	1.974726	-0.045188	0.884063
Zn5	Zn	1.313478	-0.383922	0.384066
Zn6	Zn	1.813478	0.116078	0.884066
Zn7	Zn	1.313497	-0.545137	0.545327
Zn8	Zn	1.813497	-0.045137	1.045327
O9	O	1.394121	-0.464529	0.464698
O10	O	1.894121	0.035471	0.964698
O11	O	1.609757	-0.405267	0.523946
O12	O	2.109757	0.094733	1.023946
O13	O	1.453304	-0.523839	0.249082
O14	O	1.953304	-0.023839	0.749082
O15	O	1.334892	-0.248934	0.405464
O16	O	1.834892	0.251066	0.905464
O17	O	1.609715	-0.523788	0.405459
O18	O	2.109715	-0.023788	0.905459
O19	O	1.453402	-0.248895	0.523949
O20	O	1.953402	0.251105	1.023949
O21	O	1.334837	-0.405358	0.249084
O22	O	1.834837	0.094642	0.749084
O23	O	1.178499	-0.405309	0.405455
O24	O	1.678499	0.094691	0.905455
O25	O	1.334923	-0.523701	0.680310
O26	O	1.834923	-0.023701	1.180310
O27	O	1.178513	-0.523753	0.523933
O28	O	1.678513	-0.023753	1.023933
O29	O	1.453420	-0.405218	0.680317
O30	O	1.953420	0.094782	1.180317
O31	O	1.453322	-0.680163	0.405450
O32	O	1.953322	-0.180163	0.905450
O33	O	1.334867	-0.680126	0.523930
O34	O	1.834867	-0.180126	1.023930
C35	C	1.143507	-0.464532	0.464694
C36	C	1.643507	0.035468	0.964694
C37	C	1.036293	-0.464556	0.464715
C38	C	1.536293	0.035444	0.964715
C39	C	1.394117	-0.715144	0.464710
C40	C	1.894117	-0.215144	0.964710
C41	C	1.394203	-0.822357	0.464747
C42	C	1.894203	-0.322357	0.964747
C43	C	1.645714	-0.464527	0.464703
C44	C	2.145714	0.035473	0.964703
C45	C	1.752928	-0.464526	0.464705
C46	C	2.252928	0.035474	0.964705
C47	C	1.394180	-0.464448	0.716291
C48	C	1.894180	0.035552	1.216291
C49	C	1.394205	-0.464414	0.823505
C50	C	1.894205	0.035586	1.323505
C51	C	1.949223	-0.464554	0.464709
C52	C	2.449223	0.035446	0.964709
C53	C	1.839990	-0.464542	0.464704
C54	C	2.339990	0.035458	0.964704
C55	C	1.394152	-0.212936	0.464708
C56	C	1.894152	0.287064	0.964708
C57	C	1.394165	-0.105722	0.464712
C58	C	1.894165	0.394278	0.964712
C59	C	1.394194	0.090573	0.464743
C60	C	1.894194	0.590573	0.964743
C61	C	1.394181	-0.018660	0.464729
C62	C	1.894181	0.481340	0.964729
C63	C	1.394118	-0.464540	0.214084
C64	C	1.894118	0.035460	0.714084
C65	C	1.394279	-0.464303	0.106870
C66	C	1.894279	0.035697	0.606870
C67	C	1.394225	-0.464386	0.910575
C68	C	1.894225	0.035614	1.410575
C69	C	1.394253	-0.464343	1.019808
C70	C	1.894253	0.035657	1.519808
