data_functionalizedCrystal
_audit_creation_method	'MofGen! by Chris Wilmer'
_symmetry_space_group_name_H-M	'P1'
_symmetry_Int_Tables_number	1
_symmetry_cell_setting	triclinic
loop_
_symmetry_equiv_pos_as_xyz
  x,y,z
_cell_length_a	23.096457
_cell_length_b	23.096457
_cell_length_c	14.809374
_cell_angle_alpha	65.411330
_cell_angle_beta	98.950322
_cell_angle_gamma	59.999106
loop_
_atom_site_label
_atom_site_type_symbol
_atom_site_fract_x
_atom_site_fract_y
_atom_site_fract_z
Zr1	Zr	0.545822	0.633725	-0.119963
O2	O	0.438812	0.754515	-0.265917
O3	O	0.578624	0.512937	-0.075223
O4	O	0.559599	0.633724	-0.265924
O5	O	0.472846	0.633727	0.075215
O6	O	0.654881	0.633722	-0.265927
O7	O	0.457837	0.633727	-0.075216
O8	O	0.688913	0.417655	0.075203
O9	O	0.438814	0.849794	-0.265915
O10	O	0.663725	0.562616	-0.056141
O11	O	0.603818	0.562618	0.056126
O12	O	0.581419	0.704830	-0.168400
O13	O	0.521513	0.704831	-0.056133
Zr14	Zr	0.721725	0.633721	0.119952
Zr15	Zr	0.697786	0.633721	-0.119968
Zr16	Zr	0.569761	0.633724	0.119957
Zr17	Zr	0.545826	0.785684	-0.119960
Zr18	Zr	0.721721	0.481761	0.119948
O19	O	0.688923	0.754509	0.075211
O20	O	0.654885	0.754510	-0.265924
O21	O	0.472850	0.754514	0.075218
O22	O	0.828735	0.512931	0.265905
O23	O	0.794697	0.512931	-0.075230
O24	O	0.612662	0.512936	0.265913
O25	O	0.794700	0.633719	-0.075227
O26	O	0.707947	0.633721	0.265912
O27	O	0.612665	0.633723	0.265916
O28	O	0.809710	0.633719	0.075204
O29	O	0.559605	0.849791	-0.265919
O30	O	0.707941	0.417654	0.265907
O31	O	0.828732	0.417651	0.265903
O32	O	0.809704	0.417652	0.075199
O33	O	0.457843	0.849794	-0.075210
O34	O	0.578633	0.849791	-0.075214
O35	O	0.686128	0.562616	0.168389
O36	O	0.746034	0.562614	0.056121
O37	O	0.663728	0.704828	-0.056138
O38	O	0.603822	0.704829	0.056130
C39	C	0.633768	0.443645	-0.000010
C40	C	0.633766	0.379134	-0.000012
C41	C	0.573025	-0.028896	-0.082878
C42	C	0.573019	0.031723	-0.082877
C43	C	0.633779	0.009544	-0.000007
C44	C	0.694540	-0.073263	0.082886
C45	C	0.694541	-0.133879	0.082890
N46	N	0.698530	0.065644	0.025083
N47	N	0.698526	0.123231	0.025073
C48	C	0.633779	0.192174	-0.000010
N49	N	0.569030	0.201364	-0.025105
N50	N	0.569034	0.143774	-0.025100
C51	C	0.633784	0.075266	-0.000001
C52	C	0.573012	0.340700	-0.082893
C53	C	0.573007	0.401318	-0.082884
C54	C	0.694533	0.296329	0.082875
C55	C	0.694533	0.235714	0.082871
C56	C	0.633773	0.257905	-0.000019
C57	C	0.443690	0.633727	0.000001
C58	C	0.379177	0.633729	0.000003
C59	C	0.340605	0.633735	-0.082876
C60	C	0.279993	0.633727	-0.082876
C61	C	0.257946	0.633730	-0.000005
C62	C	0.296529	0.633719	0.082888
C63	C	0.357145	0.633719	0.082892
N64	N	0.142099	0.680086	0.025085
N65	N	0.084515	0.680088	0.025074
C66	C	0.075316	0.633731	-0.000011
N67	N	0.125870	0.587381	-0.025107
N68	N	0.183456	0.587382	-0.025101
C69	C	0.192220	0.633731	-0.000000
C70	C	-0.028979	0.633728	-0.082895
C71	C	-0.089589	0.633715	-0.082887
C72	C	-0.073055	0.633715	0.082873
C73	C	-0.012442	0.633720	0.082870
C74	C	0.009590	0.633730	-0.000020
C75	C	0.823857	0.633718	-0.000012
C76	C	0.888370	0.633717	-0.000014
C77	C	0.603830	0.633723	-0.300109
C78	C	0.593667	0.633724	-0.401962
C79	C	0.633779	0.823801	-0.000001
C80	C	0.633780	0.888312	0.000000
C81	C	0.639022	0.633723	-0.447372
C82	C	0.628519	0.633723	-0.552642
C83	C	0.663717	0.633722	0.300098
C84	C	0.673880	0.633722	0.401950
C85	C	0.823852	0.443640	-0.000017
C86	C	0.888363	0.379128	-0.000021
C87	C	0.663712	0.443644	0.300093
C88	C	0.673873	0.379133	0.401944
C89	C	0.853796	0.443639	0.300087
C90	C	0.928469	0.379127	0.401935
C91	C	0.413751	0.823806	-0.300098
C92	C	0.339078	0.888319	-0.401947
C93	C	0.443695	0.823805	0.000005
C94	C	0.379184	0.888318	0.000009
C95	C	0.603835	0.823801	-0.300105
C96	C	0.593674	0.888312	-0.401955
C97	C	0.875692	0.348833	-0.058632
C98	C	0.936299	0.288225	-0.058658
C99	C	1.009576	0.257909	-0.000065
C100	C	1.022246	0.288210	0.058548
C101	C	0.961639	0.348821	0.058567
C102	C	0.721610	0.348837	0.508384
C103	C	0.731156	0.288230	0.604093
C104	C	0.692967	0.257917	0.593359
C105	C	0.645224	0.288219	0.486907
C106	C	0.635675	0.348829	0.391201
C107	C	0.994813	0.348830	0.391162
C108	C	1.064982	0.288222	0.486850
C109	C	1.068804	0.257908	0.593311
C110	C	1.002453	0.288210	0.604082
C111	C	0.932286	0.348821	0.508395
C112	C	0.272733	0.918622	-0.391174
C113	C	0.202565	0.979249	-0.486862
C114	C	0.198742	1.009567	-0.593323
C115	C	0.265094	0.979260	-0.604094
C116	C	0.335261	0.918639	-0.508406
C117	C	0.391854	0.918619	0.058611
C118	C	0.331245	0.979243	0.058610
C119	C	0.257967	1.009561	0.000014
C120	C	0.245298	0.979258	-0.058595
C121	C	0.305906	0.918639	-0.058601
C122	C	0.631873	0.918607	-0.391186
C123	C	0.622341	0.979214	-0.486876
C124	C	0.574605	1.009529	-0.593335
C125	C	0.536404	0.979229	-0.604103
C126	C	0.545941	0.918619	-0.508413
H127	H	0.523548	-0.010820	-0.150370
C128	C	0.291965	0.885302	-0.123051
H129	H	0.338551	0.844859	-0.114673
H130	H	0.269661	0.861666	-0.094103
H131	H	0.259087	0.928822	-0.200151
C132	C	0.506188	0.122804	-0.174049
H133	H	0.470004	0.127338	-0.223417
H134	H	0.483652	0.148640	-0.140014
H135	H	0.523678	0.148622	-0.214981
H136	H	0.878269	0.373481	0.517182
C137	C	0.129590	1.012568	-0.474994
H138	H	0.141921	0.985816	-0.397884
H139	H	0.100917	1.069793	-0.509869
H140	H	0.100916	1.002633	-0.509893
H141	H	0.614134	0.263529	0.478184
H142	H	0.547064	0.633720	-0.441014
H143	H	1.119001	0.263556	0.478060
C144	C	0.565564	0.633707	-0.605374
H145	H	0.538477	0.633697	-0.563224
H146	H	0.532197	0.681191	-0.680202
H147	H	0.587188	0.586204	-0.605203
C148	C	0.990620	0.382171	0.274065
H149	H	0.939332	0.422605	0.218609
H150	H	1.014965	0.405820	0.265673
H151	H	1.014970	0.338652	0.265670
C152	C	0.664357	1.012541	-0.475018
H153	H	0.651852	1.052974	-0.547249
H154	H	0.649987	1.036189	-0.435257
H155	H	0.717159	0.969017	-0.435244
C156	C	0.164693	1.012605	-0.123038
H157	H	0.165819	0.985884	-0.157950
H158	H	0.144559	1.002671	-0.072442
H159	H	0.133974	1.069836	-0.178494
H160	H	0.566845	1.058882	-0.671243
C161	C	0.483891	1.012589	-0.721210
H162	H	0.483680	1.053031	-0.776648
H163	H	0.501369	0.969086	-0.729631
H164	H	0.434216	1.036250	-0.729607
H165	H	0.670744	0.893933	-0.304510
C166	C	0.121556	1.076238	-0.698569
H167	H	0.082594	1.089931	-0.676895
H168	H	0.117219	1.123539	-0.741875
H169	H	0.117230	1.056361	-0.741854
H170	H	0.596805	0.373488	0.304536
C171	C	0.503909	0.885312	-0.520274
H172	H	0.474109	0.912058	-0.597384
H173	H	0.539413	0.828084	-0.485386
H174	H	0.472256	0.895263	-0.485388
C175	C	0.761375	-0.097666	0.174044
H176	H	0.797558	-0.155660	0.223412
H177	H	0.783910	-0.076206	0.140005
H178	H	0.743888	-0.076197	0.214977
H179	H	-0.091002	0.633713	0.150352
C180	C	0.703477	0.191245	0.698639
H181	H	0.673895	0.177530	0.677010
H182	H	0.755088	0.143956	0.741928
H183	H	0.687920	0.211126	0.741924
H184	H	0.685630	0.633717	-0.408314
C185	C	0.260880	1.012609	-0.721203
H186	H	0.209586	1.053044	-0.776639
H187	H	0.285226	1.036257	-0.729620
H188	H	0.285216	0.969092	-0.729606
H189	H	0.752710	0.373511	0.517145
H190	H	0.744002	0.278269	0.150354
H191	H	0.770034	0.263566	0.690760
C192	C	0.736828	0.633749	-0.545325
H193	H	0.735620	0.633763	-0.481503
H194	H	0.784343	0.586268	-0.523476
H195	H	0.729338	0.681255	-0.598478
C196	C	0.408237	0.885279	-0.520265
H197	H	0.450578	0.844829	-0.448036
H198	H	0.409552	0.861645	-0.560037
H199	H	0.409604	0.928783	-0.560029
C200	C	0.345195	1.012558	0.123095
H201	H	0.397519	0.985805	0.158005
H202	H	0.318059	1.069783	0.072528
H203	H	0.328624	1.002620	0.178554
H204	H	0.816029	0.373516	-0.106359
C205	C	1.145991	0.191231	0.698557
H206	H	1.184953	0.177527	0.676883
H207	H	1.150326	0.211089	0.741861
H208	H	1.150319	0.143930	0.741846
C209	C	1.006663	0.254861	0.721189
H210	H	0.957103	0.281586	0.713912
H211	H	1.032741	0.197634	0.760951
H212	H	1.032736	0.264804	0.760947
C213	C	0.761377	-0.224955	0.174054
H214	H	0.797566	-0.229486	0.223408
H215	H	0.743898	-0.250785	0.214986
H216	H	0.783912	-0.250781	0.140003
H217	H	0.275832	0.893941	-0.304497
H218	H	0.018963	0.633720	0.150354
C219	C	0.922351	0.254897	-0.123122
H220	H	0.870030	0.281625	-0.157994
H221	H	0.938908	0.264834	-0.178592
H222	H	0.949501	0.197667	-0.072535
C223	C	1.076237	0.191232	-0.000083
H224	H	1.058191	0.177529	-0.043375
H225	H	1.100536	0.211088	-0.031458
H226	H	1.111105	0.143931	0.074581
H227	H	1.081916	0.263518	0.106252
H228	H	0.451516	0.893938	0.106334
C229	C	0.191305	1.076239	0.000032
H230	H	0.209353	1.089933	0.043337
H231	H	0.156432	1.123537	-0.074623
H232	H	0.167015	1.056370	0.031421
H233	H	0.523537	0.358770	-0.150384
H234	H	0.744009	0.168298	0.150355
C235	C	0.506173	0.492393	-0.174057
H236	H	0.469993	0.496923	-0.223424
H237	H	0.483634	0.518229	-0.140023
H238	H	0.523662	0.518214	-0.214988
H239	H	0.358543	0.633740	-0.150367
H240	H	0.248581	0.633732	-0.150368
H241	H	0.278577	0.633720	0.150365
H242	H	0.971967	0.373479	0.106302
H243	H	0.388552	0.633714	0.150384
H244	H	-0.011038	0.633732	-0.150386
H245	H	-0.120993	0.633715	-0.150375
