data_functionalizedCrystal
_audit_creation_method	'MofGen! by Chris Wilmer'
_symmetry_space_group_name_H-M	'P1'
_symmetry_Int_Tables_number	1
_symmetry_cell_setting	triclinic
loop_
_symmetry_equiv_pos_as_xyz
  x,y,z
_cell_length_a	11.026607
_cell_length_b	15.944499
_cell_length_c	9.482900
_cell_angle_alpha	99.336388
_cell_angle_beta	78.636152
_cell_angle_gamma	96.031813
loop_
_atom_site_label
_atom_site_type_symbol
_atom_site_fract_x
_atom_site_fract_y
_atom_site_fract_z
O1	O	1.629009	0.341445	-0.120871
O2	O	2.129009	0.841445	0.379129
O3	O	1.275712	0.301392	-0.120876
O4	O	1.775712	0.801392	0.379124
O5	O	1.462041	0.200604	-0.120876
O6	O	1.962041	0.700604	0.379124
O7	O	1.442680	0.442233	-0.120871
O8	O	1.942680	0.942233	0.379129
O9	O	1.424194	0.221181	0.120917
O10	O	1.924194	0.721181	0.620917
O11	O	1.237864	0.321970	0.120917
O12	O	1.737864	0.821970	0.620917
O13	O	1.591162	0.362022	0.120921
O14	O	2.091162	0.862022	0.620921
Cu15	Cu	1.411057	0.343875	0.142997
Cu16	Cu	1.911057	0.843875	0.642997
Cu17	Cu	1.455816	0.319540	-0.142951
Cu18	Cu	1.955816	0.819540	0.357049
O19	O	1.404832	0.462811	0.120921
O20	O	1.904832	0.962811	0.620921
C21	C	1.211578	0.304292	0.000020
C22	C	1.711578	0.804292	0.500020
C23	C	1.076869	0.282265	0.000017
C24	C	1.576869	0.782265	0.500017
C25	C	1.442325	0.179478	0.000017
C26	C	1.942325	0.679478	0.500017
C27	C	1.439951	0.085869	0.000006
C28	C	1.939951	0.585869	0.500006
C29	C	1.003052	0.343084	0.000018
C30	C	1.503052	0.843084	0.500018
C31	C	0.863822	0.320320	0.000015
C32	C	1.363822	0.820320	0.500015
C33	C	1.548202	-0.189301	0.000015
C34	C	2.048202	0.310699	0.500015
C35	C	1.473268	-0.126637	0.119236
C36	C	1.973268	0.373363	0.619236
C37	C	1.431314	-0.251071	0.000023
C38	C	1.931314	0.248929	0.500023
C39	C	1.510551	-0.146935	-0.119152
C40	C	2.010551	0.353065	0.380848
C41	C	1.435564	-0.085521	0.000012
C42	C	1.935564	0.414479	0.500012
C43	C	1.356332	-0.189631	0.119342
C44	C	1.856332	0.310369	0.619342
C45	C	1.393649	-0.209943	-0.119154
C46	C	1.893649	0.290057	0.380846
C47	C	1.318625	-0.147306	0.000096
C48	C	1.818625	0.352694	0.500096
C49	C	1.428869	-0.346440	0.000030
C50	C	1.928869	0.153560	0.500030
C51	C	1.437999	0.009846	0.000015
C52	C	1.937999	0.509846	0.500015
C53	C	1.655295	0.359122	0.000023
C54	C	2.155295	0.859122	0.500023
C55	C	1.790006	0.381148	0.000015
C56	C	2.290006	0.881148	0.500015
C57	C	1.424548	0.483936	0.000026
C58	C	1.924548	0.983936	0.500026
C59	C	1.426925	0.577544	0.000027
C60	C	1.926925	1.077544	0.500027
N61	N	1.379584	0.360992	0.344117
N62	N	1.879584	0.860992	0.844117
N63	N	1.487298	0.302417	-0.344071
N64	N	1.987298	0.802417	0.155929
C65	C	1.446525	0.324583	0.416316
C66	C	1.946525	0.824583	0.916316
C67	C	1.420348	0.338832	0.583733
C68	C	1.920348	0.838832	1.083733
H69	H	1.042929	0.412007	0.000027
H70	H	1.542929	0.912007	0.500027
H71	H	1.302890	0.402709	0.406247
H72	H	1.802890	0.902709	0.906247
Cl73	Cl	1.301930	0.403245	0.679642
Cl74	Cl	1.801930	0.903245	1.179642
Cl75	Cl	1.605970	0.238217	0.560025
Cl76	Cl	2.105970	0.738217	1.060025
Cl77	Cl	1.015309	0.175852	0.000026
Cl78	Cl	1.515309	0.675852	0.500026
Cl79	Cl	1.168712	-0.118732	0.000186
Cl80	Cl	1.668712	0.381268	0.500186
H81	H	1.506931	-0.090494	0.220027
H82	H	2.006931	0.409506	0.720027
Cl83	Cl	0.802268	0.213903	0.000023
Cl84	Cl	1.302268	0.713903	0.500023
H85	H	0.829876	0.450076	0.000026
H86	H	1.329876	0.950076	0.500026
H87	H	1.645188	-0.207957	0.000131
H88	H	2.145188	0.292043	0.500131
H89	H	1.291140	-0.208493	0.220239
H90	H	1.791140	0.291507	0.720239
H91	H	1.360028	-0.246101	-0.219949
H92	H	1.860028	0.253899	0.280051
H93	H	1.523211	0.282858	0.354188
H94	H	2.023211	0.782858	0.854188
Cl95	Cl	1.611265	-0.117630	-0.274752
Cl96	Cl	2.111265	0.382370	0.225248
