data_functionalizedCrystal
_audit_creation_method	'MofGen! by Chris Wilmer'
_symmetry_space_group_name_H-M	'P1'
_symmetry_Int_Tables_number	1
_symmetry_cell_setting	triclinic
loop_
_symmetry_equiv_pos_as_xyz
  x,y,z
_cell_length_a	18.050590
_cell_length_b	18.050591
_cell_length_c	18.050582
_cell_angle_alpha	90.011103
_cell_angle_beta	89.976663
_cell_angle_gamma	89.981552
loop_
_atom_site_label
_atom_site_type_symbol
_atom_site_fract_x
_atom_site_fract_y
_atom_site_fract_z
Zn1	Zn	-0.295709	-1.135342	-0.419833
Zn2	Zn	0.037625	-0.802009	-0.086500
Zn3	Zn	0.370958	-0.468676	0.246834
Zn4	Zn	-0.419892	-1.135274	-0.295641
Zn5	Zn	-0.086559	-0.801941	0.037692
Zn6	Zn	0.246775	-0.468607	0.371025
Zn7	Zn	-0.295720	-1.011162	-0.295665
Zn8	Zn	0.037613	-0.677828	0.037668
Zn9	Zn	0.370947	-0.344495	0.371001
Zn10	Zn	-0.419861	-1.011131	-0.419798
Zn11	Zn	-0.086528	-0.677797	-0.086465
Zn12	Zn	0.246806	-0.344464	0.246869
O13	O	-0.357795	-1.073227	-0.357734
O14	O	-0.024462	-0.739894	-0.024401
O15	O	0.308871	-0.406560	0.308932
O16	O	-0.312190	-1.239258	-0.403363
O17	O	0.021143	-0.905925	-0.070030
O18	O	0.354477	-0.572591	0.263303
O19	O	-0.403438	-1.118795	-0.191720
O20	O	-0.070105	-0.785461	0.141614
O21	O	0.263229	-0.452128	0.474947
O22	O	-0.191794	-1.027676	-0.312161
O23	O	0.141539	-0.694343	0.021172
O24	O	0.474873	-0.361009	0.354506
O25	O	-0.403427	-1.239208	-0.312120
O26	O	-0.070094	-0.905874	0.021213
O27	O	0.263240	-0.572541	0.354547
O28	O	-0.191786	-1.118911	-0.403387
O29	O	0.141548	-0.785578	-0.070053
O30	O	0.474881	-0.452244	0.263280
O31	O	-0.312209	-1.027610	-0.191737
O32	O	0.021124	-0.694276	0.141596
O33	O	0.354457	-0.360943	0.474929
O34	O	-0.312180	-0.907233	-0.312127
O35	O	0.021154	-0.573900	0.021206
O36	O	0.354487	-0.240566	0.354539
O37	O	-0.403374	-1.027623	-0.523727
O38	O	-0.070041	-0.694290	-0.190394
O39	O	0.263292	-0.360956	0.142939
O40	O	-0.403385	-0.907210	-0.403327
O41	O	-0.070052	-0.573877	-0.069994
O42	O	0.263281	-0.240543	0.263340
O43	O	-0.312160	-1.118881	-0.523753
O44	O	0.021173	-0.785548	-0.190420
O45	O	0.354507	-0.452214	0.142914
O46	O	-0.523813	-1.118765	-0.312086
O47	O	-0.190479	-0.785431	0.021247
O48	O	0.142854	-0.452098	0.354580
O49	O	-0.523790	-1.027557	-0.403304
O50	O	-0.190457	-0.694223	-0.069970
O51	O	0.142877	-0.360890	0.263363
C52	C	-0.357781	-0.880275	-0.357726
C53	C	-0.024448	-0.546942	-0.024393
C54	C	0.308886	-0.213608	0.308940
C55	C	-0.357793	-0.797729	-0.357741
C56	C	-0.024459	-0.464396	-0.024407
C57	C	0.308874	-0.131063	0.308926
C58	C	-0.407498	-0.548913	-0.407265
C59	C	-0.074164	-0.215579	-0.073932
C60	C	0.259169	0.117754	0.259402
C61	C	-0.425568	-0.598286	-0.339479
C62	C	-0.092234	-0.264952	-0.006146
C63	C	0.241099	0.068381	0.327187
C64	C	-0.357821	-0.500609	-0.357736
C65	C	-0.024488	-0.167275	-0.024403
C66	C	0.308845	0.166058	0.308930
C67	C	-0.339772	-0.598317	-0.425520
C68	C	-0.006439	-0.264984	-0.092187
C69	C	0.326895	0.068349	0.241146
C70	C	-0.357809	-0.646594	-0.357742
C71	C	-0.024476	-0.313261	-0.024409
C72	C	0.308858	0.020073	0.308925
C73	C	-0.375927	-0.548895	-0.289915
C74	C	-0.042593	-0.215561	0.043419
C75	C	0.290740	0.117772	0.376752
C76	C	-0.290100	-0.548922	-0.376001
C77	C	0.043234	-0.215589	-0.042668
C78	C	0.376567	0.117745	0.290665
C79	C	-0.308144	-0.598273	-0.308169
C80	C	0.025190	-0.264939	0.025164
C81	C	0.358523	0.068394	0.358498
C82	C	-0.357830	-0.416511	-0.357734
C83	C	-0.024497	-0.083177	-0.024401
C84	C	0.308836	0.250156	0.308933
C85	C	-0.357800	-0.730690	-0.357737
C86	C	-0.024467	-0.397357	-0.024403
C87	C	0.308867	-0.064024	0.308930
C88	C	-0.550748	-1.073170	-0.357705
C89	C	-0.217414	-0.739837	-0.024371
C90	C	0.115919	-0.406503	0.308962
C91	C	-0.633293	-1.073214	-0.357717
C92	C	-0.299960	-0.739880	-0.024384
C93	C	0.033373	-0.406547	0.308950
C94	C	-0.832729	-1.122915	-0.308182
C95	C	-0.499396	-0.789582	0.025151
C96	C	-0.166063	-0.456249	0.358485
C97	C	-0.882068	-1.141051	-0.375961
C98	C	-0.548735	-0.807718	-0.042628
C99	C	-0.215401	-0.474384	0.290706
C100	C	-0.784424	-1.073256	-0.357747
C101	C	-0.451090	-0.739922	-0.024413
C102	C	-0.117757	-0.406589	0.308920
C103	C	-0.882167	-1.055196	-0.289998
C104	C	-0.548833	-0.721862	0.043335
C105	C	-0.215500	-0.388529	0.376669
C106	C	-0.930409	-1.073298	-0.357769
C107	C	-0.597075	-0.739964	-0.024436
C108	C	-0.263742	-0.406631	0.308897
C109	C	-0.832675	-1.091426	-0.425561
C110	C	-0.499342	-0.758093	-0.092228
C111	C	-0.166008	-0.424759	0.241106
C112	C	-0.832770	-1.005539	-0.339552
C113	C	-0.499436	-0.672206	-0.006219
C114	C	-0.166103	-0.338873	0.327114
C115	C	-0.882086	-1.023649	-0.407378
C116	C	-0.548753	-0.690316	-0.074045
C117	C	-0.215419	-0.356982	0.259289
C118	C	-0.700325	-1.073233	-0.357733
C119	C	-0.366992	-0.739900	-0.024399
C120	C	-0.033659	-0.406567	0.308934
C121	C	-1.014505	-1.073320	-0.357791
C122	C	-0.681172	-0.739987	-0.024458
C123	C	-0.347839	-0.406653	0.308876
C124	C	-0.164090	-1.073305	-0.357780
C125	C	0.169243	-0.739971	-0.024447
C126	C	0.502577	-0.406638	0.308886
C127	C	-0.081544	-1.073338	-0.357800
C128	C	0.251789	-0.740004	-0.024467
C129	C	0.585123	-0.406671	0.308867
C130	C	-0.357763	-1.073256	-0.551440
C131	C	-0.024429	-0.739923	-0.218107
C132	C	0.308904	-0.406590	0.115227
C133	C	-0.357749	-1.073269	-0.633986
C134	C	-0.024415	-0.739935	-0.300653
C135	C	0.308918	-0.406602	0.032681
C136	C	-0.357815	-0.266933	-0.357740
C137	C	-0.024482	0.066401	-0.024407
C138	C	0.308851	0.399734	0.308926
C139	C	-0.357836	-0.349478	-0.357737
C140	C	-0.024502	-0.016145	-0.024403
C141	C	0.308831	0.317188	0.308930
C142	C	-0.407283	-1.023681	-0.833423
C143	C	-0.073950	-0.690347	-0.500089
C144	C	0.259384	-0.357014	-0.166756
C145	C	-0.425437	-1.091439	-0.882809
C146	C	-0.092103	-0.758106	-0.549476
C147	C	0.241230	-0.424772	-0.216143
C148	C	-0.357692	-1.073305	-0.785116
C149	C	-0.024359	-0.739972	-0.451783
C150	C	0.308975	-0.406639	-0.118450
C151	C	-0.339518	-1.005584	-0.882812
C152	C	-0.006184	-0.672251	-0.549478
C153	C	0.327149	-0.338917	-0.216145
C154	C	-0.357638	-1.073335	-0.931102
C155	C	-0.024305	-0.740001	-0.597768
C156	C	0.309028	-0.406668	-0.264435
C157	C	-0.375881	-1.141099	-0.833416
C158	C	-0.042548	-0.807766	-0.500082
C159	C	0.290786	-0.474432	-0.166749
C160	C	-0.289930	-1.055199	-0.833414
C161	C	0.043403	-0.721865	-0.500080
C162	C	0.376736	-0.388532	-0.166747
C163	C	-0.308058	-1.123004	-0.882778
C164	C	0.025275	-0.789670	-0.549445
C165	C	0.358608	-0.456337	-0.216111
C166	C	-0.357724	-1.073287	-0.701018
C167	C	-0.024391	-0.739954	-0.367685
C168	C	0.308942	-0.406621	-0.034351
C169	C	-0.357606	-1.073360	-1.015198
C170	C	-0.024272	-0.740027	-0.681865
C171	C	0.309061	-0.406694	-0.348531
C172	C	-0.357775	-1.073241	-0.164782
C173	C	-0.024441	-0.739908	0.168551
C174	C	0.308892	-0.406574	0.501884
C175	C	-0.357580	-1.073372	-0.082237
C176	C	-0.024246	-0.740039	0.251096
C177	C	0.309087	-0.406706	0.584430
H178	H	-0.324511	-0.620027	-0.482842
H179	H	0.008822	-0.286693	-0.149508
H180	H	0.342156	0.046640	0.183825
H181	H	-0.391257	-0.527277	-0.232578
H182	H	-0.057923	-0.193943	0.100756
H183	H	0.275410	0.139390	0.434089
H184	H	-0.811057	-1.164925	-0.266310
H185	H	-0.477724	-0.831592	0.067023
H186	H	-0.144391	-0.498259	0.400356
H187	H	-0.482833	-0.619969	-0.324027
H188	H	-0.149500	-0.286635	0.009306
H189	H	0.183833	0.046698	0.342639
H190	H	-0.903725	-1.198335	-0.391364
H191	H	-0.570391	-0.865002	-0.058031
H192	H	-0.237058	-0.531669	0.275302
H193	H	-0.449276	-0.981754	-0.811752
H194	H	-0.115942	-0.648421	-0.478419
H195	H	0.217391	-0.315087	-0.145086
H196	H	-0.811028	-1.106662	-0.482914
H197	H	-0.477695	-0.773328	-0.149581
H198	H	-0.144361	-0.439995	0.183753
H199	H	-0.232665	-1.039846	-0.811700
H200	H	0.100668	-0.706513	-0.478367
H201	H	0.434001	-0.373180	-0.145033
H202	H	-0.266129	-0.619809	-0.266238
H203	H	0.067204	-0.286475	0.067095
H204	H	0.400538	0.046858	0.400429
H205	H	-0.449544	-0.527240	-0.449095
H206	H	-0.116211	-0.193907	-0.115762
H207	H	0.217122	0.139427	0.217572
H208	H	-0.232850	-0.527222	-0.391472
H209	H	0.100483	-0.193889	-0.058139
H210	H	0.433816	0.139445	0.275194
H211	H	-0.482718	-1.106771	-0.904507
H212	H	-0.149385	-0.773438	-0.571173
H213	H	0.183948	-0.440105	-0.237840
H214	H	-0.903906	-1.039903	-0.232695
H215	H	-0.570572	-0.706570	0.100639
H216	H	-0.237239	-0.373237	0.433972
H217	H	-0.324168	-0.948301	-0.904510
H218	H	0.009165	-0.614968	-0.571176
H219	H	0.342499	-0.281634	-0.237843
H220	H	-0.903621	-0.981672	-0.449351
H221	H	-0.570287	-0.648338	-0.116018
H222	H	-0.236954	-0.315005	0.217315
H223	H	-0.811097	-0.948271	-0.324129
H224	H	-0.477764	-0.614938	0.009204
H225	H	-0.144430	-0.281605	0.342538
H226	H	-0.391295	-1.198399	-0.811809
H227	H	-0.057962	-0.865066	-0.478476
H228	H	0.275371	-0.531732	-0.145143
H229	H	-0.266098	-1.165031	-0.904312
H230	H	0.067236	-0.831697	-0.570979
H231	H	0.400569	-0.498364	-0.237645
