data_functionalizedCrystal
_audit_creation_method	'MofGen! by Chris Wilmer'
_symmetry_space_group_name_H-M	'P1'
_symmetry_Int_Tables_number	1
_symmetry_cell_setting	triclinic
loop_
_symmetry_equiv_pos_as_xyz
  x,y,z
_cell_length_a	25.639242
_cell_length_b	12.759400
_cell_length_c	12.759393
_cell_angle_alpha	89.968436
_cell_angle_beta	90.030455
_cell_angle_gamma	89.989788
loop_
_atom_site_label
_atom_site_type_symbol
_atom_site_fract_x
_atom_site_fract_y
_atom_site_fract_z
Zn1	Zn	0.799355	0.418330	0.594317
Zn2	Zn	0.799303	0.594048	0.418637
Zn3	Zn	0.711919	0.418370	0.418619
Zn4	Zn	0.711913	0.593953	0.594241
O5	O	0.755622	0.506175	0.506453
O6	O	0.872513	0.441662	0.571051
O7	O	0.787691	0.570801	0.271613
O8	O	0.723542	0.271344	0.441950
O9	O	0.872475	0.570762	0.441980
O10	O	0.787781	0.271314	0.571034
O11	O	0.723491	0.441731	0.271600
O12	O	0.638753	0.441639	0.441877
O13	O	0.723532	0.570600	0.741273
O14	O	0.638749	0.570639	0.570906
O15	O	0.787775	0.441570	0.741328
O16	O	0.787686	0.741057	0.441907
O17	O	0.723481	0.740987	0.570923
C18	C	0.619780	0.506134	0.506382
C19	C	0.561666	0.506142	0.506377
C20	C	0.755591	0.779143	0.506432
C21	C	0.755626	0.895919	0.506457
C22	C	0.755659	0.506069	0.780487
C23	C	0.755675	0.506024	0.897264
C24	C	0.201309	0.573458	0.573575
C25	C	0.146705	0.573464	0.573592
O26	O	0.118474	0.630648	0.630666
N27	N	0.119383	0.506204	0.506522
C28	C	0.146669	0.438926	0.439439
O29	O	0.118415	0.381716	0.382393
C30	C	0.201272	0.438915	0.439428
C31	C	0.228591	0.506187	0.506495
C32	C	0.228629	0.640724	0.640637
C33	C	0.283229	0.640718	0.640619
C34	C	0.310511	0.573447	0.573539
C35	C	0.283191	0.506182	0.506477
C36	C	0.228556	0.371632	0.372351
C37	C	0.283163	0.371626	0.372347
C38	C	0.310482	0.438898	0.439414
C39	C	0.365074	0.438905	0.439378
N40	N	0.392395	0.506165	0.506448
C41	C	0.365114	0.573436	0.573528
C42	C	0.031998	0.438953	0.439467
C43	C	-0.022604	0.438968	0.439472
C44	C	-0.022564	0.573506	0.573626
C45	C	0.032039	0.573495	0.573616
C46	C	0.059320	0.506213	0.506537
C47	C	0.479779	0.573421	0.573484
C48	C	0.534384	0.573413	0.573457
C49	C	0.534339	0.438872	0.439307
C50	C	0.479739	0.438883	0.439330
C51	C	0.452460	0.506161	0.506427
O52	O	0.393339	0.381748	0.382336
O53	O	0.393374	0.630627	0.630574
C54	C	0.891995	0.506218	0.506526
C55	C	0.950109	0.506236	0.506556
C56	C	0.755668	0.232142	0.506498
C57	C	0.755687	0.115365	0.506518
C58	C	0.789094	0.950783	0.439353
C59	C	0.789126	1.060507	0.439385
C60	C	0.722217	1.060494	0.573629
C61	C	0.722188	0.950772	0.573602
C62	C	0.827722	0.950791	0.361845
C63	C	0.827754	1.060515	0.361877
C64	C	0.755616	0.506205	0.233486
C65	C	0.755702	0.505954	0.116710
C66	C	0.789131	0.438832	0.952156
C67	C	0.789143	0.438794	1.061880
C68	C	0.722242	0.573150	1.061810
C69	C	0.722227	0.573182	0.952088
C70	C	0.827757	0.361266	0.952198
C71	C	0.827770	0.361228	1.061922
H72	H	0.457575	0.628203	0.628123
H73	H	0.816937	1.090376	0.280492
H74	H	0.694982	0.627892	0.907398
O75	O	0.689704	0.897595	0.638938
C76	C	0.664295	0.863875	0.817595
C77	C	0.701109	0.924179	0.743717
H78	H	0.673510	0.885329	0.902326
H79	H	0.622138	0.885548	0.799153
H80	H	0.670006	0.776036	0.805993
H81	H	0.695444	1.012032	0.755278
H82	H	0.743253	0.902419	0.762177
O83	O	-0.049048	0.638999	0.638684
C84	C	-0.065737	0.817762	0.689434
C85	C	-0.035719	0.743718	0.615681
H86	H	-0.054964	0.902441	0.670878
H87	H	-0.109461	0.806296	0.677914
H88	H	-0.054980	0.799351	0.774173
H89	H	-0.046432	0.762082	0.530915
H90	H	0.007998	0.755198	0.627293
H91	H	0.695009	0.627825	1.106461
O92	O	-0.049058	0.373529	0.374281
C93	C	-0.043320	0.240132	0.241174
C94	C	-0.013299	0.314178	0.314962
H95	H	-0.014422	0.192142	0.193179
H96	H	-0.068849	0.185179	0.289456
H97	H	-0.068920	0.288319	0.186205
H98	H	0.012329	0.266075	0.369946
H99	H	0.012197	0.369133	0.266615
O100	O	0.309819	0.705910	0.705833
C101	C	0.371473	0.720188	0.847712
C102	C	0.341408	0.646243	0.773895
H103	H	0.397011	0.671976	0.902773
H104	H	0.397056	0.775060	0.799453
H105	H	0.342575	0.768280	0.895605
H106	H	0.370267	0.598082	0.725986
H107	H	0.315817	0.591440	0.822214
H108	H	0.054279	0.628272	0.628229
O109	O	0.689808	1.113896	0.638898
C110	C	0.682776	1.237618	0.780809
C111	C	0.719538	1.177228	0.706941
H112	H	0.706799	1.288819	0.835855
H113	H	0.655472	1.289140	0.732589
H114	H	0.658838	1.179535	0.828716
H115	H	0.743511	1.235235	0.659018
H116	H	0.746808	1.125690	0.755221
H117	H	0.556625	0.628198	0.628071
H118	H	0.206422	0.695504	0.695267
O119	O	0.814800	0.264155	0.916860
C120	C	0.791273	0.087145	0.962712
C121	C	0.805930	0.197074	1.002874
H122	H	0.784108	0.032874	1.032233
H123	H	0.754373	0.092389	0.913094
H124	H	0.824528	0.054772	0.913064
H125	H	0.772708	0.229511	1.052565
H126	H	0.842846	0.191765	1.052435
O127	O	0.058554	0.373748	0.374238
C128	C	0.120125	0.359443	0.232344
C129	C	0.090096	0.433402	0.306163
H130	H	0.145625	0.407644	0.177272
H131	H	0.145742	0.304567	0.280599
H132	H	0.091204	0.311356	0.184461
H133	H	0.118979	0.481558	0.354061
H134	H	0.064470	0.488209	0.257848
H135	H	0.457494	0.384107	0.384717
O136	O	0.810404	0.269082	1.102587
C137	C	0.746319	0.183271	1.210804
C138	C	0.765927	0.287688	1.164803
H139	H	0.710362	0.198281	1.261133
H140	H	0.735811	0.127472	1.144314
H141	H	0.778295	0.146762	1.261080
H142	H	0.733974	0.324287	1.114539
H143	H	0.776450	0.343415	1.231342
H144	H	0.305372	0.316830	0.317729
O145	O	0.873674	0.396040	0.911776
C146	C	0.959946	0.461500	0.948218
C147	C	0.907978	0.422114	0.994136
H148	H	0.987691	0.482613	1.014784
H149	H	0.978151	0.397328	0.897995
H150	H	0.952454	0.533794	0.897868
H151	H	0.915426	0.349839	1.044533
H152	H	0.889789	0.486350	1.044299
H153	H	0.868264	0.383027	1.091717
H154	H	0.868203	0.920940	0.383713
H155	H	0.556562	0.384105	0.384689
O156	O	0.202095	0.306329	0.307043
C157	C	0.185357	0.255156	0.128404
C158	C	0.215357	0.329167	0.202262
H159	H	0.196060	0.273609	0.043672
H160	H	0.196126	0.170450	0.146918
H161	H	0.141642	0.266665	0.139950
H162	H	0.259079	0.317751	0.190756
H163	H	0.204545	0.413846	0.183729
O164	O	0.810361	0.910405	0.269591
C165	C	0.739280	0.898766	0.146522
C166	C	0.758881	0.944592	0.251005
H167	H	0.697652	0.926371	0.131473
H168	H	0.765585	0.926398	0.080012
H169	H	0.740084	0.809532	0.150768
H170	H	0.758077	1.033828	0.246862
H171	H	0.732571	0.916879	0.317472
O172	O	0.873688	1.100855	0.396725
C173	C	0.959943	1.064260	0.462321
C174	C	0.907957	1.018434	0.422853
H175	H	0.987660	0.997645	0.483478
H176	H	0.978171	1.114537	0.398178
H177	H	0.952468	1.114537	0.534603
H178	H	0.915387	0.968110	0.350590
H179	H	0.889746	0.968217	0.487060
