data_functionalizedCrystal
_audit_creation_method	'MofGen! by Chris Wilmer'
_symmetry_space_group_name_H-M	'P1'
_symmetry_Int_Tables_number	1
_symmetry_cell_setting	triclinic
loop_
_symmetry_equiv_pos_as_xyz
  x,y,z
_cell_length_a	29.839134
_cell_length_b	29.839131
_cell_length_c	29.839126
_cell_angle_alpha	89.975848
_cell_angle_beta	89.970362
_cell_angle_gamma	90.036281
loop_
_atom_site_label
_atom_site_type_symbol
_atom_site_fract_x
_atom_site_fract_y
_atom_site_fract_z
Zn1	Zn	0.686754	-0.178949	-0.254125
Zn2	Zn	1.186754	0.321051	0.245875
Zn3	Zn	0.686676	-0.254070	-0.178995
Zn4	Zn	1.186676	0.245930	0.321005
Zn5	Zn	0.611626	-0.178948	-0.178995
Zn6	Zn	1.111626	0.321052	0.321005
Zn7	Zn	0.611584	-0.254046	-0.254083
Zn8	Zn	1.111584	0.245954	0.245917
O9	O	0.649160	-0.216503	-0.216549
O10	O	1.149160	0.283497	0.283451
O11	O	0.749610	-0.188925	-0.244176
O12	O	1.249610	0.311075	0.255824
O13	O	0.676705	-0.244114	-0.116128
O14	O	1.176705	0.255886	0.383872
O15	O	0.621642	-0.116081	-0.188978
O16	O	1.121642	0.383919	0.311022
O17	O	0.749553	-0.244115	-0.188979
O18	O	1.249553	0.255885	0.311021
O19	O	0.676838	-0.116082	-0.244176
O20	O	1.176838	0.383918	0.255824
O21	O	0.621567	-0.188922	-0.116128
O22	O	1.121567	0.311078	0.383872
O23	O	0.548754	-0.188899	-0.188938
O24	O	1.048754	0.311101	0.311062
O25	O	0.621570	-0.244075	-0.316956
O26	O	1.121570	0.255925	0.183044
O27	O	0.548723	-0.244074	-0.244105
O28	O	1.048723	0.255926	0.255895
O29	O	0.676797	-0.188902	-0.316987
O30	O	1.176797	0.311098	0.183013
O31	O	0.676664	-0.316934	-0.188938
O32	O	1.176664	0.183066	0.311062
O33	O	0.621495	-0.316917	-0.244105
O34	O	1.121495	0.183083	0.255895
C35	C	0.532437	-0.216484	-0.216517
C36	C	1.032437	0.283516	0.283483
C37	C	0.482503	-0.216487	-0.216514
C38	C	0.982503	0.283513	0.283486
C39	C	0.172853	-0.245275	-0.245240
C40	C	0.672853	0.254725	0.254760
C41	C	-0.014820	-0.245288	-0.245260
C42	C	0.485180	0.254712	0.254740
O43	O	-0.039091	-0.269743	-0.269665
O44	O	0.460909	0.230257	0.230335
N45	N	-0.038282	-0.216520	-0.216583
N46	N	0.461718	0.283480	0.283417
C47	C	-0.014823	-0.187744	-0.187902
C48	C	0.485177	0.312256	0.312098
O49	O	-0.039085	-0.163273	-0.163514
O50	O	0.460915	0.336727	0.336486
C51	C	0.172849	-0.187730	-0.187884
C52	C	0.672849	0.312270	0.312116
C53	C	0.196309	-0.216503	-0.216560
C54	C	0.696309	0.283497	0.283440
C55	C	0.196312	-0.274046	-0.273913
C56	C	0.696312	0.225954	0.226087
C57	C	0.243228	-0.274044	-0.273906
C58	C	0.743228	0.225956	0.226094
C59	C	0.266684	-0.245272	-0.245226
C60	C	0.766684	0.254728	0.254774
C61	C	0.243224	-0.216501	-0.216553
C62	C	0.743224	0.283499	0.283447
C63	C	0.196308	-0.158953	-0.159205
C64	C	0.696308	0.341047	0.340795
C65	C	0.243229	-0.158951	-0.159204
C66	C	0.743229	0.341049	0.340796
C67	C	0.266688	-0.187724	-0.187880
C68	C	0.766688	0.312276	0.312120
C69	C	0.313596	-0.187727	-0.187865
C70	C	0.813596	0.312273	0.312135
N71	N	0.337058	-0.216495	-0.216542
N72	N	0.837058	0.283505	0.283458
C73	C	0.313602	-0.245268	-0.245222
C74	C	0.813602	0.254732	0.254778
C75	C	-0.113354	-0.187755	-0.187912
C76	C	0.386646	0.312245	0.312088
C77	C	-0.160271	-0.187759	-0.187916
C78	C	0.339729	0.312241	0.312084
C79	C	-0.160265	-0.245302	-0.245275
C80	C	0.339735	0.254698	0.254725
C81	C	-0.113347	-0.245300	-0.245269
C82	C	0.386653	0.254700	0.254731
C83	C	-0.089892	-0.216523	-0.216589
C84	C	0.410108	0.283477	0.283411
C85	C	0.412127	-0.245262	-0.245205
C86	C	0.912127	0.254738	0.254795
C87	C	0.459047	-0.245259	-0.245194
C88	C	0.959047	0.254741	0.254806
C89	C	0.459037	-0.187715	-0.187837
C90	C	0.959037	0.312285	0.312163
C91	C	0.412121	-0.187719	-0.187846
C92	C	0.912121	0.312281	0.312154
C93	C	0.388668	-0.216494	-0.216534
C94	C	0.888668	0.283506	0.283466
O95	O	0.337895	-0.163281	-0.163477
O96	O	0.837895	0.336719	0.336523
O97	O	0.337872	-0.269729	-0.269613
O98	O	0.837872	0.230271	0.230387
C99	C	0.125937	-0.245277	-0.245247
C100	C	0.625937	0.254723	0.254753
C101	C	0.102478	-0.216506	-0.216574
C102	C	0.602478	0.283494	0.283426
C103	C	0.125934	-0.187734	-0.187893
C104	C	0.625934	0.312266	0.312107
C105	C	0.055560	-0.216511	-0.216577
C106	C	0.555560	0.283489	0.283423
C107	C	0.032104	-0.245283	-0.245258
C108	C	0.532104	0.254717	0.254742
C109	C	0.055566	-0.274051	-0.273934
C110	C	0.555566	0.225949	0.226066
C111	C	0.102482	-0.274049	-0.273927
C112	C	0.602482	0.225951	0.226073
C113	C	0.102472	-0.158966	-0.159217
C114	C	0.602472	0.341034	0.340783
C115	C	0.055556	-0.158971	-0.159226
C116	C	0.555556	0.341029	0.340774
C117	C	0.032100	-0.187743	-0.187906
C118	C	0.532100	0.312257	0.312094
C119	C	0.649079	-0.333226	-0.216527
C120	C	1.149079	0.166774	0.283473
C121	C	0.649085	-0.383160	-0.216533
C122	C	1.149085	0.116840	0.283467
C123	C	0.677939	-0.692800	-0.187866
C124	C	1.177939	-0.192800	0.312134
C125	C	0.677994	-0.880473	-0.187883
C126	C	1.177994	-0.380473	0.312117
O127	O	0.702462	-0.904735	-0.163493
O128	O	1.202462	-0.404735	0.336507
N129	N	0.649253	-0.903945	-0.216583
N130	N	1.149253	-0.403945	0.283417
C131	C	0.620498	-0.880496	-0.245283
C132	C	1.120498	-0.380496	0.254717
O133	O	0.596056	-0.904767	-0.269698
O134	O	1.096056	-0.404767	0.230302
C135	C	0.620445	-0.692824	-0.245268
C136	C	1.120445	-0.192824	0.254732
C137	C	0.649185	-0.669354	-0.216563
C138	C	1.149185	-0.169354	0.283437
C139	C	0.706677	-0.669330	-0.159164
C140	C	1.206677	-0.169330	0.340836
C141	C	0.706661	-0.622415	-0.159158
C142	C	1.206661	-0.122415	0.340842
C143	C	0.677907	-0.598969	-0.187854
C144	C	1.177907	-0.098969	0.312146
C145	C	0.649169	-0.622439	-0.216557
C146	C	1.149169	-0.122439	0.283443
C147	C	0.591693	-0.669376	-0.273969
C148	C	1.091693	-0.169376	0.226031
C149	C	0.591683	-0.622455	-0.273964
C150	C	1.091683	-0.122455	0.226036
C151	C	0.620423	-0.598985	-0.245259
C152	C	1.120423	-0.098985	0.254741
C153	C	0.620399	-0.552078	-0.245248
C154	C	1.120399	-0.052078	0.254752
N155	N	0.649141	-0.528606	-0.216548
N156	N	1.149141	-0.028606	0.283452
C157	C	0.677895	-0.552051	-0.187851
C158	C	1.177895	-0.052051	0.312149
C159	C	0.620527	-0.979027	-0.245289
C160	C	1.120527	-0.479027	0.254711
C161	C	0.620540	-1.025945	-0.245292
C162	C	1.120540	-0.525945	0.254708
C163	C	0.678037	-1.025918	-0.187893
C164	C	1.178037	-0.525918	0.312107
C165	C	0.678022	-0.979000	-0.187887
C166	C	1.178022	-0.479000	0.312113
C167	C	0.649268	-0.955555	-0.216589
C168	C	1.149268	-0.455555	0.283411
C169	C	0.677859	-0.453525	-0.187841
C170	C	1.177859	0.046475	0.312159
C171	C	0.677839	-0.406606	-0.187836
C172	C	1.177839	0.093394	0.312164
C173	C	0.620344	-0.406637	-0.245237
C174	C	1.120344	0.093363	0.254763
C175	C	0.620362	-0.453552	-0.245240
C176	C	1.120362	0.046448	0.254760
C177	C	0.649123	-0.476995	-0.216540
C178	C	1.149123	0.023005	0.283460
O179	O	0.595948	-0.527787	-0.269629
O180	O	1.095948	-0.027787	0.230371
O181	O	0.702340	-0.527772	-0.163447
O182	O	1.202340	-0.027772	0.336553
C183	C	0.677955	-0.739715	-0.187872
C184	C	1.177955	-0.239715	0.312128
C185	C	0.649217	-0.763185	-0.216574
C186	C	1.149217	-0.263185	0.283426
C187	C	0.620463	-0.739740	-0.245271
C188	C	1.120463	-0.239740	0.254729
C189	C	0.649229	-0.810103	-0.216578
C190	C	1.149229	-0.310103	0.283422
C191	C	0.677983	-0.833549	-0.187881
C192	C	1.177983	-0.333549	0.312119
C193	C	0.706724	-0.810076	-0.159181
C194	C	1.206724	-0.310076	0.340819
C195	C	0.706709	-0.763161	-0.159175
C196	C	1.206709	-0.263161	0.340825
C197	C	0.591722	-0.763212	-0.273971
C198	C	1.091722	-0.263212	0.226029
C199	C	0.591740	-0.810128	-0.273974
C200	C	1.091740	-0.310128	0.226026
C201	C	0.620493	-0.833573	-0.245277
C202	C	1.120493	-0.333573	0.254723
C203	C	0.766338	-0.216523	-0.216582
C204	C	1.266338	0.283477	0.283418
C205	C	0.816273	-0.216531	-0.216596
C206	C	1.316273	0.283469	0.283404
C207	C	0.649188	-0.216486	-0.333728
C208	C	1.149188	0.283514	0.166272
C209	C	0.649200	-0.216479	-0.383662
C210	C	1.149200	0.283521	0.116338
C211	C	0.649254	-0.099325	-0.216582
C212	C	1.149254	0.400675	0.283418
C213	C	0.649294	-0.049390	-0.216595
C214	C	1.149294	0.450610	0.283405
C215	C	0.620498	-0.187695	-0.693309
C216	C	1.120498	0.312305	-0.193309
C217	C	0.620511	-0.187664	-0.880982
C218	C	1.120511	0.312336	-0.380982
O219	O	0.596085	-0.163236	-0.905249
O220	O	1.096085	0.336764	-0.405249
N221	N	0.649221	-0.216394	-0.904448
N222	N	1.149221	0.283606	-0.404448
C223	C	0.677928	-0.245137	-0.880992
C224	C	1.177928	0.254863	-0.380992
O225	O	0.702345	-0.269576	-0.905258
O226	O	1.202345	0.230424	-0.405258
C227	C	0.677913	-0.245170	-0.693320
C228	C	1.177913	0.254830	-0.193320
C229	C	0.649204	-0.216434	-0.669857
C230	C	1.149204	0.283566	-0.169857
C231	C	0.591791	-0.158963	-0.669845
C232	C	1.091791	0.341037	-0.169845
C233	C	0.591790	-0.158969	-0.622930
C234	C	1.091790	0.341031	-0.122930
C235	C	0.620496	-0.187708	-0.599478
C236	C	1.120496	0.312292	-0.099478
C237	C	0.649203	-0.216441	-0.622941
C238	C	1.149203	0.283559	-0.122941
C239	C	0.706617	-0.273914	-0.669866
C240	C	1.206617	0.226086	-0.169866
C241	C	0.706610	-0.273920	-0.622945
C242	C	1.206610	0.226080	-0.122945
C243	C	0.677901	-0.245185	-0.599481
C244	C	1.177901	0.254815	-0.099481
C245	C	0.677907	-0.245186	-0.552574
C246	C	1.177907	0.254814	-0.052574
N247	N	0.649197	-0.216456	-0.529108
N248	N	1.149197	0.283544	-0.029108
C249	C	0.620491	-0.187717	-0.552560
C250	C	1.120491	0.312283	-0.052560
C251	C	0.677935	-0.245117	-0.979523
C252	C	1.177935	0.254883	-0.479523
C253	C	0.677939	-0.245108	-1.026441
C254	C	1.177939	0.254892	-0.526441
C255	C	0.620521	-0.187636	-1.026427
C256	C	1.120521	0.312364	-0.526427
C257	C	0.620519	-0.187643	-0.979508
C258	C	1.120519	0.312357	-0.479508
C259	C	0.649224	-0.216386	-0.956057
C260	C	1.149224	0.283614	-0.456057
C261	C	0.620491	-0.187732	-0.454034
C262	C	1.120491	0.312268	0.045966
C263	C	0.620494	-0.187740	-0.407114
C264	C	1.120494	0.312260	0.092886
C265	C	0.677910	-0.245213	-0.407132
C266	C	1.177910	0.254787	0.092868
C267	C	0.677909	-0.245204	-0.454048
C268	C	1.177909	0.254796	0.045952
C269	C	0.649196	-0.216462	-0.477497
C270	C	1.149196	0.283538	0.022503
O271	O	0.702316	-0.269605	-0.528278
O272	O	1.202316	0.230395	-0.028278
O273	O	0.596071	-0.163288	-0.528286
O274	O	1.096071	0.336712	-0.028286
C275	C	0.620499	-0.187689	-0.740224
C276	C	1.120499	0.312311	-0.240224
C277	C	0.649206	-0.216422	-0.763688
C278	C	1.149206	0.283578	-0.263688
C279	C	0.677912	-0.245161	-0.740236
C280	C	1.177912	0.254839	-0.240236
C281	C	0.649211	-0.216413	-0.810605
C282	C	1.149211	0.283587	-0.310605
C283	C	0.620505	-0.187674	-0.834057
C284	C	1.120505	0.312326	-0.334057
C285	C	0.591795	-0.158944	-0.810591
C286	C	1.091795	0.341056	-0.310591
C287	C	0.591793	-0.158950	-0.763676
C288	C	1.091793	0.341050	-0.263676
C289	C	0.706622	-0.273891	-0.763702
C290	C	1.206622	0.226109	-0.263702
C291	C	0.706621	-0.273882	-0.810617
C292	C	1.206621	0.226118	-0.310617
C293	C	0.677915	-0.245143	-0.834069
C294	C	1.177915	0.254857	-0.334069
C295	C	0.649158	-0.216488	-0.099827
C296	C	1.149158	0.283512	0.400173
C297	C	0.649233	-0.216369	-0.049893
C298	C	1.149233	0.283631	0.450107
H299	H	0.262323	-0.135514	-0.135852
H300	H	0.762323	0.364486	0.364148
C301	C	0.588943	-0.156025	-1.052228
C302	C	1.088943	0.343975	-0.552228
H303	H	0.571842	-0.138912	-1.031537
H304	H	1.071842	0.361088	-0.531537
H305	H	0.569361	-0.173208	-1.070518
H306	H	1.069361	0.326792	-0.570518
H307	H	0.606148	-0.136448	-1.070542
H308	H	1.106148	0.363552	-0.570542
C309	C	0.386315	-0.156071	-0.156303
C310	C	0.886315	0.343929	0.343697
H311	H	0.407006	-0.138934	-0.139223
H312	H	0.907006	0.361066	0.360777
H313	H	0.367986	-0.173226	-0.136700
H314	H	0.867986	0.326774	0.363300
H315	H	0.368039	-0.136519	-0.173532
H316	H	0.868039	0.363481	0.326468
C317	C	0.560081	-0.695183	-0.305549
C318	C	1.060081	-0.195183	0.194451
H319	H	0.542962	-0.674494	-0.322640
H320	H	1.042962	-0.174494	0.177360
H321	H	0.540518	-0.713515	-0.288351
H322	H	1.040518	-0.213515	0.211649
H323	H	0.577265	-0.713456	-0.325146
H324	H	1.077265	-0.213456	0.174854
C325	C	0.484852	-0.276915	-0.276733
C326	C	0.984852	0.223085	0.223267
H327	H	0.516155	-0.272799	-0.272618
H328	H	1.016155	0.227201	0.227382
H329	H	0.477189	-0.270388	-0.306932
H330	H	0.977189	0.229612	0.193068
H331	H	0.477136	-0.307090	-0.270095
H332	H	0.977136	0.192910	0.229905
C333	C	0.738326	-0.737350	-0.127603
C334	C	1.238326	-0.237350	0.372397
H335	H	0.755454	-0.758039	-0.110518
H336	H	1.255454	-0.258039	0.389482
H337	H	0.721151	-0.719073	-0.108005
H338	H	1.221151	-0.219073	0.391995
H339	H	0.757889	-0.719022	-0.144810
H340	H	1.257889	-0.219022	0.355190
H341	H	0.729994	-0.297314	-0.688962
H342	H	1.229994	0.202686	-0.188962
H343	H	0.036460	-0.135541	-0.135871
H344	H	0.536460	0.364459	0.364129
H345	H	0.729988	-0.297324	-0.603853
H346	H	1.229988	0.202676	-0.103853
H347	H	0.701322	-0.268502	-1.045541
H348	H	1.201322	0.231498	-0.545541
C349	C	0.709517	-0.276732	-0.953732
C350	C	1.209517	0.223268	-0.453732
H351	H	0.726617	-0.293835	-0.974431
H352	H	1.226617	0.206165	-0.474431
H353	H	0.692320	-0.296311	-0.935416
H354	H	1.192320	0.203689	-0.435416
H355	H	0.729106	-0.259550	-0.935445
H356	H	1.229106	0.240450	-0.435445
C357	C	0.170512	-0.127298	-0.127666
C358	C	0.670512	0.372702	0.372334
H359	H	0.191208	-0.110160	-0.110592
H360	H	0.691208	0.389840	0.389408
H361	H	0.152186	-0.144449	-0.108057
H362	H	0.652186	0.355551	0.391943
H363	H	0.152235	-0.107747	-0.144893
H364	H	0.652235	0.392253	0.355107
H365	H	0.701291	-0.268598	-0.473153
H366	H	1.201291	0.231402	0.026847
H367	H	0.596961	-0.472662	-0.268615
H368	H	1.096961	0.027338	0.231385
H369	H	0.597133	-1.045050	-0.268662
H370	H	1.097133	-0.545050	0.231338
C371	C	0.738354	-0.835871	-0.127615
C372	C	1.238354	-0.335871	0.372385
H373	H	0.755468	-0.815176	-0.110516
H374	H	1.255468	-0.315176	0.389484
H375	H	0.757921	-0.854146	-0.144826
H376	H	1.257921	-0.354146	0.355174
H377	H	0.721181	-0.854199	-0.108023
H378	H	1.221181	-0.354199	0.391977
C379	C	-0.186073	-0.276947	-0.276826
C380	C	0.313927	0.223053	0.223174
H381	H	-0.217374	-0.272823	-0.272721
H382	H	0.282626	0.227177	0.227279
H383	H	-0.178408	-0.307125	-0.270202
H384	H	0.321592	0.192875	0.229798
H385	H	-0.178363	-0.270406	-0.307023
H386	H	0.321637	0.229594	0.192977
H387	H	0.393037	-0.268692	-0.268566
H388	H	0.893037	0.231308	0.231434
C389	C	0.560209	-0.127345	-0.737872
C390	C	1.060209	0.372655	-0.237872
H391	H	0.543113	-0.110234	-0.758564
H392	H	1.043113	0.389766	-0.258564
H393	H	0.577404	-0.107774	-0.719581
H394	H	1.077404	0.392226	-0.219581
H395	H	0.540617	-0.144533	-0.719558
H396	H	1.040617	0.355467	-0.219558
C397	C	0.709482	-0.276825	-0.381329
C398	C	1.209482	0.223175	0.118671
H399	H	0.705363	-0.272715	-0.350027
H400	H	1.205363	0.227285	0.149973
H401	H	0.739674	-0.270260	-0.389030
H402	H	1.239674	0.229740	0.110970
H403	H	0.702877	-0.307009	-0.389006
H404	H	1.202877	0.192991	0.110994
C405	C	0.709456	-0.380792	-0.156261
C406	C	1.209456	0.119208	0.343739
H407	H	0.726586	-0.401477	-0.139176
H408	H	1.226586	0.098523	0.360824
H409	H	0.692279	-0.362515	-0.136665
H410	H	1.192279	0.137485	0.363335
H411	H	0.729017	-0.362462	-0.173469
H412	H	1.229017	0.137538	0.326531
C413	C	0.269027	-0.305689	-0.305455
C414	C	0.769027	0.194311	0.194545
H415	H	0.248333	-0.322819	-0.322538
H416	H	0.748333	0.177181	0.177462
H417	H	0.287310	-0.325241	-0.288238
H418	H	0.787310	0.174759	0.211762
H419	H	0.287349	-0.288526	-0.325062
H420	H	0.787349	0.211474	0.174938
H421	H	0.177220	-0.297475	-0.297271
H422	H	0.677220	0.202525	0.202729
H423	H	0.596931	-0.387540	-0.268600
H424	H	1.096931	0.112460	0.231400
H425	H	0.568423	-0.135542	-0.829694
H426	H	1.068423	0.364458	-0.329694
C427	C	0.560054	-0.596667	-0.305535
C428	C	1.060054	-0.096667	0.194465
H429	H	0.564161	-0.565362	-0.301425
H430	H	1.064161	-0.065362	0.198575
H431	H	0.529875	-0.604389	-0.298930
H432	H	1.029875	-0.104389	0.201070
H433	H	0.566619	-0.604335	-0.335728
H434	H	1.066619	-0.104335	0.164272
C435	C	0.588934	-0.156041	-0.953703
C436	C	1.088934	0.343959	-0.453703
H437	H	0.571837	-0.138928	-0.974393
H438	H	1.071837	0.361072	-0.474393
H439	H	0.606127	-0.136471	-0.935408
H440	H	1.106127	0.363529	-0.435408
H441	H	0.569341	-0.173231	-0.935392
H442	H	1.069341	0.326769	-0.435392
C443	C	0.560124	-0.835939	-0.305553
C444	C	1.060124	-0.335939	0.194447
H445	H	0.543002	-0.815252	-0.322644
H446	H	1.043002	-0.315252	0.177356
H447	H	0.540563	-0.854273	-0.288354
H448	H	1.040563	-0.354273	0.211646
H449	H	0.577310	-0.854211	-0.325150
H450	H	1.077310	-0.354211	0.174850
H451	H	0.121565	-0.135536	-0.135861
H452	H	0.621565	0.364464	0.364139
H453	H	-0.094249	-0.268729	-0.268619
H454	H	0.405751	0.231271	0.231381
H455	H	-0.179368	-0.164333	-0.164561
H456	H	0.320632	0.335667	0.335439
C457	C	0.029759	-0.305698	-0.305483
C458	C	0.529759	0.194302	0.194517
H459	H	-0.001543	-0.301572	-0.301380
H460	H	0.498457	0.198428	0.198620
H461	H	0.037422	-0.335875	-0.298857
H462	H	0.537422	0.164125	0.201143
H463	H	0.037469	-0.299160	-0.335681
H464	H	0.537469	0.200840	0.164319
C465	C	0.738266	-0.596602	-0.127575
C466	C	1.238266	-0.096602	0.372425
H467	H	0.734139	-0.565300	-0.131672
H468	H	1.234139	-0.065300	0.368328
H469	H	0.768452	-0.604257	-0.134174
H470	H	1.268452	-0.104257	0.365826
H471	H	0.731698	-0.604321	-0.097386
H472	H	1.231698	-0.104321	0.402614
H473	H	0.730004	-0.297281	-0.829717
H474	H	1.230004	0.202719	-0.329717
H475	H	0.478143	-0.164291	-0.164485
H476	H	0.978143	0.335709	0.335515
C477	C	0.738204	-0.305502	-0.737911
C478	C	1.238204	0.194498	-0.237911
H479	H	0.755303	-0.322607	-0.758609
H480	H	1.255303	0.177393	-0.258609
H481	H	0.721008	-0.325079	-0.719592
H482	H	1.221008	0.174921	-0.219592
H483	H	0.757794	-0.288318	-0.719625
H484	H	1.257794	0.211682	-0.219625
H485	H	-0.094261	-0.164321	-0.164556
H486	H	0.405739	0.335679	0.335444
C487	C	0.709492	-0.479307	-0.156269
C488	C	1.209492	0.020693	0.343731
H489	H	0.726599	-0.458604	-0.139173
H490	H	1.226599	0.041396	0.360827
H491	H	0.729066	-0.497583	-0.173472
H492	H	1.229066	0.002417	0.326528
H493	H	0.692320	-0.497634	-0.136675
H494	H	1.192320	0.002366	0.363325
H495	H	0.730094	-0.688415	-0.135795
H496	H	1.230094	-0.188415	0.364205
H497	H	0.568307	-0.744126	-0.297340
H498	H	1.068307	-0.244126	0.202660
H499	H	0.597116	-0.164338	-0.388012
H500	H	1.097116	0.335662	0.111988
H501	H	0.597111	-0.164327	-0.473121
H502	H	1.097111	0.335673	0.026879
H503	H	0.121578	-0.297479	-0.297278
H504	H	0.621578	0.202521	0.202722
C505	C	0.560207	-0.127363	-0.597126
C506	C	1.060207	0.372637	-0.097126
H507	H	0.543111	-0.110252	-0.617818
H508	H	1.043111	0.389748	-0.117818
H509	H	0.577403	-0.107792	-0.578835
H510	H	1.077403	0.392208	-0.078835
H511	H	0.540614	-0.144550	-0.578811
H512	H	1.040614	0.355450	-0.078811
C513	C	0.709639	-0.953187	-0.156316
C514	C	1.209639	-0.453187	0.343684
H515	H	0.726765	-0.973874	-0.139229
H516	H	1.226765	-0.473874	0.360771
H517	H	0.692463	-0.934908	-0.136720
H518	H	1.192463	-0.434908	0.363280
H519	H	0.729202	-0.934861	-0.173524
H520	H	1.229202	-0.434861	0.326476
H521	H	0.568413	-0.135560	-0.688935
H522	H	1.068413	0.364440	-0.188935
H523	H	0.701449	-1.045016	-0.164527
H524	H	1.201449	-0.545016	0.335473
H525	H	0.597112	-0.959941	-0.268661
H526	H	1.097112	-0.459941	0.231339
