data_functionalizedCrystal
_audit_creation_method	'MofGen! by Chris Wilmer'
_symmetry_space_group_name_H-M	'P1'
_symmetry_Int_Tables_number	1
_symmetry_cell_setting	triclinic
loop_
_symmetry_equiv_pos_as_xyz
  x,y,z
_cell_length_a	19.077115
_cell_length_b	29.839131
_cell_length_c	19.076919
_cell_angle_alpha	87.728385
_cell_angle_beta	89.923103
_cell_angle_gamma	87.738067
loop_
_atom_site_label
_atom_site_type_symbol
_atom_site_fract_x
_atom_site_fract_y
_atom_site_fract_z
Zn1	Zn	1.058167	-0.217337	0.440404
Zn2	Zn	1.062773	-0.289570	0.322897
Zn3	Zn	0.945388	-0.211319	0.318199
Zn4	Zn	0.940595	-0.289299	0.435651
O5	O	1.001731	-0.251881	0.379288
O6	O	1.157109	-0.229551	0.428772
O7	O	1.051135	-0.276785	0.223943
O8	O	0.960427	-0.149253	0.334433
O9	O	1.160493	-0.282620	0.342440
O10	O	1.043285	-0.153674	0.424217
O11	O	0.964893	-0.219294	0.220491
O12	O	0.846422	-0.219031	0.329824
O13	O	0.952258	-0.282158	0.534613
O14	O	0.842900	-0.276323	0.416116
O15	O	1.038638	-0.229288	0.538105
O16	O	1.046488	-0.352399	0.337831
O17	O	0.956724	-0.352200	0.420671
C18	C	0.819165	-0.246995	0.371945
C19	C	0.741062	-0.244916	0.368820
C20	C	0.301618	-0.229984	0.346415
C21	C	0.375004	-0.231940	0.349354
C22	C	0.409883	-0.262793	0.395679
C23	C	0.371371	-0.291687	0.439071
C24	C	0.297987	-0.289729	0.436134
C25	C	0.629166	-0.271852	0.409275
C26	C	0.702556	-0.273809	0.412207
C27	C	0.706184	-0.214062	0.322491
C28	C	0.632797	-0.212107	0.319555
C29	C	0.594292	-0.241001	0.362950
N30	N	0.484895	-0.264794	0.398683
N31	N	0.519281	-0.238997	0.359949
C32	C	1.001604	-0.368600	0.379261
C33	C	1.001613	-0.418535	0.379276
C34	C	0.955020	-0.775038	0.422421
C35	C	0.954928	-0.587362	0.422395
O36	O	0.915160	-0.563022	0.459059
N37	N	1.001686	-0.563983	0.379300
C38	C	1.048474	-0.587525	0.336211
O39	O	1.088248	-0.563333	0.299561
C40	C	1.048569	-0.775201	0.336241
C41	C	1.001803	-0.798577	0.379334
C42	C	0.908258	-0.798415	0.465511
C43	C	0.908279	-0.845331	0.465514
C44	C	0.955062	-0.868870	0.422427
C45	C	1.001824	-0.845493	0.379337
C46	C	1.095360	-0.798742	0.293157
C47	C	1.095381	-0.845664	0.293170
C48	C	1.048614	-0.869041	0.336262
C49	C	1.048628	-0.915949	0.336254
N50	N	1.001869	-0.939328	0.379349
C51	C	0.955086	-0.915789	0.422436
C52	C	1.048420	-0.488993	0.336198
C53	C	1.048396	-0.442074	0.336189
C54	C	0.954850	-0.441914	0.422374
C55	C	0.954872	-0.488834	0.422378
C56	C	1.001662	-0.512372	0.379293
C57	C	0.955133	-1.014316	0.422439
C58	C	0.955156	-1.061236	0.422436
C59	C	1.048704	-1.061392	0.336254
C60	C	1.048679	-1.014476	0.336254
C61	C	1.001891	-0.990939	0.379352
O62	O	1.088380	-0.940318	0.299615
O63	O	0.915329	-0.939989	0.459092
C64	C	0.954999	-0.728122	0.422418
C65	C	1.001761	-0.704745	0.379328
C66	C	1.048544	-0.728284	0.336241
C67	C	1.001737	-0.657827	0.379319
C68	C	0.954954	-0.634287	0.422406
C69	C	0.908195	-0.657667	0.465501
C70	C	0.908216	-0.704583	0.465504
C71	C	1.095302	-0.704905	0.293146
C72	C	1.095277	-0.657989	0.293146
C73	C	1.048494	-0.634450	0.336232
C74	C	1.185010	-0.256787	0.386660
C75	C	1.263112	-0.258878	0.389802
C76	C	0.994399	-0.256364	0.562568
C77	C	0.991275	-0.258275	0.640671
C78	C	1.001877	-0.134708	0.379331
C79	C	1.001939	-0.084775	0.379349
C80	C	1.009074	-0.247384	0.196722
C81	C	1.012335	-0.245351	0.118625
C82	C	1.034778	-0.231647	0.679184
C83	C	1.031834	-0.233440	0.752569
C84	C	0.985390	-0.261864	0.787442
C85	C	0.941882	-0.288493	0.748924
C86	C	0.944823	-0.286697	0.675540
C87	C	0.971768	-0.270184	1.006723
C88	C	0.968832	-0.271979	1.080113
C89	C	1.058783	-0.216925	1.083753
C90	C	1.061723	-0.215134	1.010367
C91	C	1.018213	-0.241761	0.971856
N92	N	0.982381	-0.263698	0.862454
N93	N	1.021219	-0.239924	0.896845
H94	H	0.597823	-0.295380	0.444608
O95	O	1.145860	-0.871045	0.246699
H96	H	1.180338	-0.894111	0.279626
O97	O	1.145766	-0.730286	0.246667
H98	H	1.180250	-0.753355	0.279581
H99	H	0.916757	-0.422741	0.457456
H100	H	0.406353	-0.208414	0.314020
H101	H	0.904063	-0.311634	0.777323
O102	O	1.145726	-0.632780	0.246664
H103	H	1.180176	-0.613102	0.279587
H104	H	0.931009	-0.295126	1.108504
H105	H	1.067261	-0.211758	0.783923
H106	H	0.917035	-0.995158	0.457534
H107	H	0.737542	-0.190538	0.287162
O108	O	0.904714	-1.086452	0.468915
H109	H	0.914512	-1.079104	0.524557
H110	H	1.086524	-0.508154	0.301110
H111	H	1.099545	-0.191990	0.981979
O112	O	0.924844	-0.298894	0.965173
H113	H	0.890467	-0.276999	0.930318
O114	O	1.099116	-0.989258	0.289775
H115	H	1.131652	-1.013511	0.259818
H116	H	1.133442	-0.779716	0.258067
O117	O	1.099182	-1.086785	0.289804
H118	H	1.091348	-1.123338	0.297064
O119	O	0.263993	-0.196712	0.296449
H120	H	0.277621	-0.162138	0.309166
O121	O	0.857777	-0.729796	0.511984
H122	H	0.867577	-0.722443	0.567624
H123	H	0.870100	-0.638493	0.500582
O124	O	0.897893	-0.315410	0.633995
H125	H	0.865103	-0.335477	0.670572
H126	H	0.604404	-0.186987	0.281828
O127	O	1.084876	-0.200989	0.641578
H128	H	1.121946	-0.221236	0.609584
O129	O	1.105691	-0.188193	1.125287
H130	H	1.095836	-0.194209	1.182174
H131	H	0.399775	-0.316806	0.476792
O132	O	0.740179	-0.307084	0.462178
H133	H	0.701076	-0.326843	0.491866
H134	H	0.266635	-0.313256	0.471467
H135	H	0.870196	-0.864360	0.500603
H136	H	0.870162	-0.779254	0.500600
H137	H	0.916794	-0.507864	0.457472
H138	H	1.086470	-0.423044	0.301091
