data_functionalizedCrystal
_audit_creation_method	'MofGen! by Chris Wilmer'
_symmetry_space_group_name_H-M	'P1'
_symmetry_Int_Tables_number	1
_symmetry_cell_setting	triclinic
loop_
_symmetry_equiv_pos_as_xyz
  x,y,z
_cell_length_a	9.065215
_cell_length_b	16.974813
_cell_length_c	7.540329
_cell_angle_alpha	86.341850
_cell_angle_beta	89.997574
_cell_angle_gamma	84.203340
loop_
_atom_site_label
_atom_site_type_symbol
_atom_site_fract_x
_atom_site_fract_y
_atom_site_fract_z
O1	O	1.957275	0.115924	-0.164096
O2	O	1.527733	0.125436	-0.165469
O3	O	1.754479	0.005663	-0.148267
O4	O	1.730529	0.235698	-0.181299
O5	O	1.754465	0.005661	0.146699
O6	O	1.527720	0.125435	0.129496
O7	O	1.957261	0.115923	0.130869
Cu8	Cu	1.742489	0.120678	0.157115
Cu9	Cu	1.742505	0.120680	-0.191716
O10	O	1.730516	0.235696	0.113666
C11	C	1.472764	0.124522	-0.017857
C12	C	1.308995	0.121790	-0.017467
C13	C	1.753561	-0.023803	0.003443
C14	C	1.750829	-0.111600	0.016039
C15	C	1.749556	-0.152841	-0.138828
C16	C	1.746979	-0.235334	-0.126987
C17	C	1.745686	-0.276585	0.039722
C18	C	1.746955	-0.235338	0.194600
C19	C	1.749521	-0.152845	0.182758
C20	C	1.738001	-0.523302	0.092381
C21	C	1.735439	-0.605800	0.104212
C22	C	1.735461	-0.605791	-0.217377
C23	C	1.738036	-0.523297	-0.229205
C24	C	1.739296	-0.482056	-0.074327
N25	N	1.743057	-0.360907	0.051829
N26	N	1.741915	-0.397735	-0.086435
C27	C	2.012230	0.116837	-0.016748
C28	C	2.176000	0.119569	-0.017149
C29	C	1.731434	0.265162	-0.038048
C30	C	1.734166	0.352958	-0.050655
N31	N	1.742489	0.120677	0.402464
N32	N	1.742517	0.120676	-0.437063
H33	H	1.750617	-0.119261	-0.274581
C34	C	1.739406	-0.477950	0.262751
C35	C	1.613124	-0.413183	0.297705
C36	C	1.614533	-0.367829	0.468087
C37	C	1.742224	-0.387243	0.603514
C38	C	1.868515	-0.452013	0.568563
C39	C	1.867106	-0.497366	0.398181
H40	H	1.518591	-0.398809	0.197451
H41	H	1.521044	-0.319882	0.493960
H42	H	1.743268	-0.353669	0.729641
H43	H	1.963048	-0.466387	0.668817
H44	H	1.960596	-0.545313	0.372309
H45	H	1.745893	-0.268930	0.330339
C46	C	1.745605	-0.280696	-0.297352
C47	C	1.871896	-0.345466	-0.332257
C48	C	1.870528	-0.390825	-0.502633
C49	C	1.742869	-0.371415	-0.638105
C50	C	1.616568	-0.306643	-0.603204
C51	C	1.617936	-0.261284	-0.432827
H52	H	1.966405	-0.359837	-0.231969
H53	H	1.964024	-0.438774	-0.528468
H54	H	1.741857	-0.404993	-0.764228
H55	H	1.522059	-0.292272	-0.703491
H56	H	1.524440	-0.213335	-0.406992
H57	H	1.750536	-0.119266	0.308867
H58	H	1.734431	-0.639378	-0.343470
H59	H	1.739091	-0.489716	-0.364957
H60	H	1.734378	-0.639384	0.239973
