data_functionalizedCrystal
_audit_creation_method	'MofGen! by Chris Wilmer'
_symmetry_space_group_name_H-M	'P1'
_symmetry_Int_Tables_number	1
_symmetry_cell_setting	triclinic
loop_
_symmetry_equiv_pos_as_xyz
  x,y,z
_cell_length_a	11.792241
_cell_length_b	15.944551
_cell_length_c	10.868271
_cell_angle_alpha	89.993912
_cell_angle_beta	89.999893
_cell_angle_gamma	83.846077
loop_
_atom_site_label
_atom_site_type_symbol
_atom_site_fract_x
_atom_site_fract_y
_atom_site_fract_z
O1	O	1.505960	0.115128	-0.102206
O2	O	1.175521	0.126993	-0.102235
O3	O	1.349764	-0.001173	-0.102208
O4	O	1.331717	0.243295	-0.102232
O5	O	1.349750	-0.001178	0.102436
O6	O	1.175507	0.126988	0.102410
O7	O	1.505946	0.115123	0.102439
Zn8	Zn	1.340724	0.121055	0.134916
Zn9	Zn	1.340743	0.121062	-0.134712
O10	O	1.331703	0.243290	0.102413
C11	C	1.133229	0.126245	0.000084
C12	C	1.007234	0.124015	0.000073
C13	C	0.776555	0.119913	0.000109
C14	C	0.904922	0.122192	0.000090
C15	C	1.349008	-0.032473	0.000114
C16	C	1.346761	-0.125729	0.000115
C17	C	1.233389	-0.341098	0.000088
C18	C	1.286028	-0.401880	0.100995
C19	C	1.342698	-0.296474	0.000105
C20	C	1.286068	-0.401858	-0.100769
C21	C	1.338765	-0.461404	0.000090
C22	C	1.395368	-0.356028	0.101095
C23	C	1.395392	-0.356000	-0.100759
C24	C	1.448111	-0.416764	0.000172
C25	C	1.344961	-0.201461	0.000114
C26	C	1.336511	-0.556415	0.000089
C27	C	1.548237	0.115871	0.000118
C28	C	1.674233	0.118102	0.000120
C29	C	1.332459	0.274590	0.000087
C30	C	1.334705	0.367846	0.000079
N31	N	1.340719	0.121050	0.318930
N32	N	1.340756	0.121060	-0.318726
C33	C	1.340737	0.121060	0.569936
C34	C	1.340723	0.121057	0.430259
H35	H	1.239789	-0.422199	0.186295
O36	O	1.230917	-0.425929	-0.202634
C37	C	1.193390	-0.354188	-0.273450
H38	H	1.247599	-0.301130	-0.251054
H39	H	1.201973	-0.370458	-0.375397
H40	H	1.100255	-0.332965	-0.251166
O41	O	1.450360	-0.332031	0.203112
C42	C	1.392951	-0.355929	0.309193
H43	H	1.341226	-0.410207	0.285681
H44	H	1.457899	-0.376953	0.383702
H45	H	1.333307	-0.299951	0.343978
O46	O	1.556463	-0.455803	0.000462
C47	C	1.613654	-0.432417	0.106974
H48	H	1.548489	-0.410807	0.180988
H49	H	1.672215	-0.488844	0.142196
H50	H	1.666502	-0.378690	0.083868
O51	O	1.450343	-0.331749	-0.202649
C52	C	1.392438	-0.354862	-0.308833
H53	H	1.299905	-0.362046	-0.284667
H54	H	1.395217	-0.303922	-0.382053
H55	H	1.435369	-0.417308	-0.345643
H56	H	1.142657	-0.308200	0.000181
