data_functionalizedCrystal
_audit_creation_method	'MofGen! by Chris Wilmer'
_symmetry_space_group_name_H-M	'P1'
_symmetry_Int_Tables_number	1
_symmetry_cell_setting	triclinic
loop_
_symmetry_equiv_pos_as_xyz
  x,y,z
_cell_length_a	11.169417
_cell_length_b	11.169416
_cell_length_c	11.169417
_cell_angle_alpha	89.993855
_cell_angle_beta	89.999137
_cell_angle_gamma	90.011219
loop_
_atom_site_label
_atom_site_type_symbol
_atom_site_fract_x
_atom_site_fract_y
_atom_site_fract_z
Zn1	Zn	-1.834738	0.477975	0.678554
Zn2	Zn	-1.334738	0.977975	1.178554
Zn3	Zn	-1.834693	0.678629	0.477877
Zn4	Zn	-1.334693	1.178629	0.977877
Zn5	Zn	-1.634090	0.477961	0.477889
Zn6	Zn	-1.134090	0.977961	0.977889
Zn7	Zn	-1.634031	0.678618	0.678521
Zn8	Zn	-1.134031	1.178618	1.178521
O9	O	-1.734388	0.578296	0.578210
O10	O	-1.234388	1.078296	1.078210
O11	O	-2.002682	0.504602	0.651943
O12	O	-1.502682	1.004602	1.151943
O13	O	-1.808089	0.652009	0.309929
O14	O	-1.308089	1.152009	0.809929
O15	O	-1.660750	0.310013	0.504527
O16	O	-1.160750	0.810013	1.004527
O17	O	-2.002649	0.652022	0.504506
O18	O	-1.502649	1.152022	1.004506
O19	O	-1.808164	0.310023	0.651955
O20	O	-1.308164	0.810023	1.151955
O21	O	-1.660707	0.504579	0.309938
O22	O	-1.160707	1.004579	0.809938
O23	O	-1.466133	0.504568	0.504495
O24	O	-0.966133	1.004568	1.004495
O25	O	-1.660649	0.652003	0.846475
O26	O	-1.160649	1.152003	1.346475
O27	O	-1.466089	0.651990	0.651898
O28	O	-0.966089	1.151990	1.151898
O29	O	-1.808107	0.504591	0.846500
O30	O	-1.308107	1.004591	1.346500
O31	O	-1.808032	0.846577	0.504473
O32	O	-1.308032	1.346577	1.004473
O33	O	-1.660606	0.846569	0.651886
O34	O	-1.160606	1.346569	1.151886
C35	C	-1.422563	0.578277	0.578195
C36	C	-0.922563	1.078277	1.078195
C37	C	-1.289163	0.578298	0.578217
C38	C	-0.789163	1.078298	1.078217
C39	C	-1.734341	0.890120	0.578201
C40	C	-1.234341	1.390120	1.078201
C41	C	-1.734430	1.023520	0.578237
C42	C	-1.234430	1.523520	1.078237
C43	C	-1.734377	0.578297	0.891253
C44	C	-1.234377	1.078297	1.391253
C45	C	-1.734372	0.578298	1.024653
C46	C	-1.234372	1.078298	1.524653
C47	C	-2.047430	0.578315	0.578226
C48	C	-1.547430	1.078315	1.078226
C49	C	-2.180830	0.578323	0.578233
C50	C	-1.680830	1.078323	1.078233
C51	C	-1.734469	0.265253	0.578246
C52	C	-1.234469	0.765253	1.078246
C53	C	-1.734503	0.131853	0.578261
C54	C	-1.234503	0.631853	1.078261
C55	C	-1.734385	0.578316	1.266386
C56	C	-1.234385	1.078316	1.766386
C57	C	-1.734375	0.578300	1.132986
C58	C	-1.234375	1.078300	1.632986
