data_functionalizedCrystal
_audit_creation_method	'MofGen! by Chris Wilmer'
_symmetry_space_group_name_H-M	'P1'
_symmetry_Int_Tables_number	1
_symmetry_cell_setting	triclinic
loop_
_symmetry_equiv_pos_as_xyz
  x,y,z
_cell_length_a	17.639054
_cell_length_b	17.639306
_cell_length_c	19.805405
_cell_angle_alpha	78.817150
_cell_angle_beta	78.786249
_cell_angle_gamma	65.665306
loop_
_atom_site_label
_atom_site_type_symbol
_atom_site_fract_x
_atom_site_fract_y
_atom_site_fract_z
Zn1	Zn	1.354325	-0.721248	0.160166
Zn2	Zn	1.326372	-0.583408	0.254329
Zn3	Zn	1.188636	-0.555526	0.160146
Zn4	Zn	1.216426	-0.693262	0.292316
O5	O	1.271440	-0.638361	0.216739
O6	O	1.465972	-0.726345	0.156767
O7	O	1.284772	-0.464381	0.225929
O8	O	1.210683	-0.577553	0.065428
O9	O	1.445434	-0.625074	0.225948
O10	O	1.332415	-0.699309	0.065442
O11	O	1.183578	-0.443896	0.156734
O12	O	1.076968	-0.550416	0.193568
O13	O	1.258048	-0.812304	0.290691
O14	O	1.097385	-0.651610	0.290673
O15	O	1.359362	-0.832865	0.193601
O16	O	1.311719	-0.597937	0.354088
O17	O	1.230942	-0.678646	0.381997
C18	C	1.057267	-0.594951	0.246241
C19	C	0.965646	-0.576399	0.258881
C20	C	1.314923	-0.853324	0.246386
C21	C	1.333453	-0.944929	0.259020
C22	C	0.825802	-0.497449	0.312635
C23	C	0.911895	-0.514887	0.300753
C24	C	0.933320	-0.620501	0.228878
C25	C	0.847229	-0.603075	0.240756
C26	C	0.793476	-0.541547	0.282635
C27	C	0.814902	-0.647172	0.210756
C28	C	0.728817	-0.629744	0.222631
C29	C	0.675059	-0.568218	0.264506
C30	C	0.707391	-0.524119	0.294509
C31	C	0.868655	-0.708695	0.168873
C32	C	0.836329	-0.752793	0.138873
C33	C	0.750243	-0.735369	0.150752
C34	C	0.696485	-0.673843	0.192627
C35	C	0.717911	-0.779468	0.120748
C36	C	0.631826	-0.762040	0.132623
C37	C	0.610400	-0.656415	0.204502
C38	C	1.130990	-1.192906	0.120465
C39	C	1.148420	-1.278986	0.132348
C40	C	1.253783	-1.300295	0.204394
C41	C	1.236364	-1.214215	0.192514
C42	C	1.174966	-1.160527	0.150550
C43	C	1.280340	-1.181837	0.222599
C44	C	1.262920	-1.095764	0.210723
C45	C	1.201523	-1.042070	0.168762
C46	C	1.157546	-1.074455	0.138674
C47	C	1.341734	-1.235525	0.264567
C48	C	1.385710	-1.203147	0.294651
C49	C	1.368294	-1.117073	0.282772
C50	C	1.306897	-1.063380	0.240811
C51	C	1.412271	-1.084689	0.312860
C52	C	1.394851	-0.998617	0.300984
C53	C	1.289477	-0.977307	0.228935
C54	C	1.486449	-0.681942	0.187122
C55	C	1.578074	-0.700513	0.174501
C56	C	1.271339	-0.638303	0.392602
C57	C	1.271377	-0.638320	0.467831
C58	C	1.228173	-0.424244	0.187152
C59	C	1.209803	-0.332673	0.174306
C60	C	1.271567	-0.638443	0.040188
C61	C	1.271621	-0.638477	-0.035047
C62	C	1.313499	-0.596361	0.488621
C63	C	1.313538	-0.596386	0.559307
C64	C	1.271449	-0.638366	0.609202
C65	C	1.229325	-0.680331	0.588408
C66	C	1.229292	-0.680311	0.517723
C67	C	1.229459	-0.680417	0.873473
C68	C	1.229493	-0.680432	0.944162
C69	C	1.313705	-0.596493	0.915057
C70	C	1.313672	-0.596472	0.844372
C71	C	1.271552	-0.638440	0.823584
C72	C	1.271512	-0.638413	0.746938
C73	C	1.271483	-0.638389	0.685847
H74	H	0.566632	-0.606321	0.238610
O75	O	1.091325	-1.016537	0.093411
H76	H	1.063668	-1.053510	0.074485
O77	O	0.767815	-0.431088	0.357805
H78	H	0.804753	-0.403347	0.376672
H79	H	0.604961	-0.554017	0.274161
O80	O	1.100992	-1.313914	0.099893
H81	H	1.055378	-1.262119	0.068715
H82	H	1.462255	-1.128413	0.347033
O83	O	1.358911	-0.551096	0.434806
H84	H	1.313557	-0.501649	0.401931
O85	O	1.182733	-0.949234	0.155949
H86	H	1.194832	-0.929949	0.099468
H87	H	0.663623	-0.474025	0.328618
O88	O	1.184102	-0.725721	0.997982
H89	H	1.154816	-0.754909	0.971653
O90	O	1.223257	-0.919398	0.183668
H91	H	1.252247	-0.887684	0.138737
O92	O	1.064770	-1.134988	0.075202
H93	H	1.037112	-1.171961	0.056276
O94	O	1.442285	-0.963685	0.333423
H95	H	1.487912	-1.015479	0.364591
O96	O	0.946766	-0.467327	0.333117
H97	H	0.894924	-0.421622	0.364236
H98	H	0.880105	-0.802886	0.104774
O99	O	0.596947	-0.809597	0.100269
H100	H	0.626548	-0.877600	0.118603
H101	H	1.347838	-0.562218	0.576230
O102	O	1.184001	-0.725650	0.851054
H103	H	1.154724	-0.754826	0.897626
H104	H	1.195059	-0.714517	0.629038
O105	O	1.359074	-0.551200	0.790555
H106	H	1.388380	-0.522034	0.816887
O107	O	0.775894	-0.845818	0.075574
H108	H	0.738951	-0.873551	0.056702
H109	H	1.355918	-1.305611	0.274233
H110	H	1.303770	-1.344018	0.238564
O111	O	0.991297	-0.686861	0.183710
H112	H	1.056589	-0.691576	0.180495
H113	H	0.938750	-0.722880	0.159204
O114	O	1.451934	-1.261054	0.339909
H115	H	1.456665	-1.326347	0.343110
O116	O	1.359166	-0.551252	0.937475
H117	H	1.352136	-0.558331	0.995009
H118	H	1.194992	-0.714479	0.500798
