data_functionalizedCrystal
_audit_creation_method	'MofGen! by Chris Wilmer'
_symmetry_space_group_name_H-M	'P1'
_symmetry_Int_Tables_number	1
_symmetry_cell_setting	triclinic
loop_
_symmetry_equiv_pos_as_xyz
  x,y,z
_cell_length_a	12.759395
_cell_length_b	16.625545
_cell_length_c	12.759387
_cell_angle_alpha	90.033397
_cell_angle_beta	89.978574
_cell_angle_gamma	89.975275
loop_
_atom_site_label
_atom_site_type_symbol
_atom_site_fract_x
_atom_site_fract_y
_atom_site_fract_z
Zn1	Zn	1.606201	0.320944	-0.594012
Zn2	Zn	2.106201	0.820944	-0.094012
Zn3	Zn	1.606063	0.455800	-0.418324
Zn4	Zn	2.106063	0.955800	0.081676
Zn5	Zn	1.430499	0.320986	-0.418346
Zn6	Zn	1.930499	0.820986	0.081654
Zn7	Zn	1.430462	0.455740	-0.593961
Zn8	Zn	1.930462	0.955740	-0.093961
O9	O	1.518306	0.388368	-0.506161
O10	O	2.018306	0.888368	-0.006161
O11	O	1.753203	0.338840	-0.570719
O12	O	2.253203	0.838840	-0.070719
O13	O	1.582731	0.437959	-0.271306
O14	O	2.082731	0.937959	0.228694
O15	O	1.453879	0.208148	-0.441679
O16	O	1.953879	0.708148	0.058321
O17	O	1.753102	0.437918	-0.441642
O18	O	2.253102	0.937918	0.058358
O19	O	1.582966	0.208117	-0.570740
O20	O	2.082966	0.708117	-0.070740
O21	O	1.453745	0.338912	-0.271322
O22	O	1.953745	0.838912	0.228678
O23	O	1.283473	0.338854	-0.441629
O24	O	1.783473	0.838854	0.058371
O25	O	1.453817	0.437817	-0.740989
O26	O	1.953817	0.937817	-0.240989
O27	O	1.283446	0.437858	-0.570652
O28	O	1.783446	0.937858	-0.070652
O29	O	1.582931	0.338783	-0.741026
O30	O	2.082931	0.838783	-0.241026
O31	O	1.582696	0.568624	-0.441592
O32	O	2.082696	1.068624	0.058408
O33	O	1.453683	0.568581	-0.570632
O34	O	1.953683	1.068581	-0.070632
C35	C	1.245339	0.388355	-0.506138
C36	C	1.745339	0.888355	-0.006138
C37	C	1.128562	0.388369	-0.506154
C38	C	1.628562	0.888369	-0.006154
C39	C	0.909149	0.491646	-0.640328
C40	C	1.409149	0.991646	-0.140328
C41	C	0.964026	0.543268	-0.707391
C42	C	1.464026	1.043268	-0.207391
C43	C	1.073748	0.543258	-0.707377
C44	C	1.573748	1.043258	-0.207377
C45	C	1.128595	0.491622	-0.640292
C46	C	1.628595	0.991622	-0.140292
C47	C	1.073718	0.440000	-0.573229
C48	C	1.573718	0.940000	-0.073229
C49	C	0.963993	0.440014	-0.573252
C50	C	1.463993	0.940014	-0.073252
C51	C	1.073685	0.336747	-0.439091
C52	C	1.573685	0.836747	0.060909
C53	C	0.963963	0.336751	-0.439108
C54	C	1.463963	0.836751	0.060892
C55	C	1.128531	0.285111	-0.372006
C56	C	1.628531	0.785111	0.127994
C57	C	1.073654	0.233484	-0.304947
C58	C	1.573654	0.733484	0.195053
C59	C	0.963926	0.233495	-0.304964
C60	C	1.463926	0.733495	0.195036
C61	C	0.909086	0.285129	-0.372046
C62	C	1.409086	0.785129	0.127954
C63	C	1.518199	0.597858	-0.506127
C64	C	2.018199	1.097858	-0.006127
C65	C	1.518250	0.687480	-0.506148
C66	C	2.018250	1.187480	-0.006148
C67	C	1.518421	1.015655	-0.506273
C68	C	2.018421	1.515655	-0.006273
C69	C	1.518370	0.924347	-0.506241
C70	C	2.018370	1.424347	-0.006241
C71	C	1.518335	0.851570	-0.506210
C72	C	2.018335	1.351570	-0.006210
C73	C	1.518285	0.760256	-0.506179
C74	C	2.018285	1.260256	-0.006179
C75	C	1.792339	0.388381	-0.506184
C76	C	2.292339	0.888381	-0.006184
C77	C	1.909116	0.388387	-0.506194
C78	C	2.409116	0.888387	-0.006194
C79	C	1.518385	0.388289	-0.780194
C80	C	2.018385	0.888289	-0.280194
C81	C	1.518419	0.388255	-0.896971
C82	C	2.018419	0.888255	-0.396971
C83	C	1.518433	1.178059	-0.506230
C84	C	2.018433	1.678059	-0.006230
C85	C	1.518464	1.088438	-0.506291
C86	C	2.018464	1.588438	-0.006291
C87	C	1.652875	0.285138	-0.897030
C88	C	2.152875	0.785138	-0.397030
C89	C	1.720117	0.233567	-0.951920
C90	C	2.220117	0.733567	-0.451920
C91	C	1.720143	0.233537	-1.061642
C92	C	2.220143	0.733537	-0.561642
C93	C	1.652916	0.285083	-1.116476
C94	C	2.152916	0.785083	-0.616476
C95	C	1.585674	0.336653	-1.061586
C96	C	2.085674	0.836653	-0.561586
C97	C	1.585658	0.336679	-0.951861
C98	C	2.085658	0.836679	-0.451861
C99	C	1.451215	0.439765	-1.061527
C100	C	1.951215	0.939765	-0.561527
C101	C	1.451193	0.439800	-0.951805
C102	C	1.951193	0.939800	-0.451805
C103	C	1.383988	0.491311	-1.116361
C104	C	1.883988	0.991311	-0.616361
C105	C	1.316750	0.542887	-1.061470
C106	C	1.816750	1.042887	-0.561470
C107	C	1.316728	0.542915	-0.951742
C108	C	1.816728	1.042915	-0.451742
C109	C	1.383951	0.491371	-0.896915
C110	C	1.883951	0.991371	-0.396915
C111	C	1.518287	0.388388	-0.233193
C112	C	2.018287	0.888388	0.266807
C113	C	1.518457	0.388195	-0.116417
C114	C	2.018457	0.888195	0.383583
H115	H	1.217936	0.491626	-0.640278
H116	H	1.717936	0.991626	-0.140278
Br117	Br	1.277440	0.285102	-0.371979
Br118	Br	1.777440	0.785102	0.128021
Br119	Br	0.760177	0.285144	-0.372081
Br120	Br	1.260177	0.785144	0.127919
Br121	Br	0.889459	0.163440	-0.213936
Br122	Br	1.389459	0.663440	0.286064
Br123	Br	1.811318	0.163592	-0.877500
Br124	Br	2.311318	0.663592	-0.377500
H125	H	0.919358	0.585310	-0.762008
H126	H	1.419358	1.085310	-0.262008
H127	H	1.652871	0.285164	-0.807689
H128	H	2.152871	0.785164	-0.307689
H129	H	1.652934	0.285047	-1.205817
H130	H	2.152934	0.785047	-0.705817
Br131	Br	1.384019	0.491270	-1.265270
Br132	Br	1.884019	0.991270	-0.765270
H133	H	1.118319	0.191450	-0.250327
H134	H	1.618319	0.691450	0.249673
Br135	Br	0.760240	0.491650	-0.640368
Br136	Br	1.260240	0.991650	-0.140368
Br137	Br	1.811379	0.163533	-1.136141
Br138	Br	2.311379	0.663533	-0.636141
H139	H	1.118429	0.585295	-0.761983
H140	H	1.618429	1.085295	-0.261983
Br141	Br	1.225515	0.612827	-1.135891
Br142	Br	1.725515	1.112827	-0.635891
Br143	Br	1.225456	0.612901	-0.877257
Br144	Br	1.725456	1.112901	-0.377257
H145	H	1.383944	0.491392	-0.807573
H146	H	1.883944	0.991392	-0.307573
