data_functionalizedCrystal
_audit_creation_method	'MofGen! by Chris Wilmer'
_symmetry_space_group_name_H-M	'P1'
_symmetry_Int_Tables_number	1
_symmetry_cell_setting	triclinic
loop_
_symmetry_equiv_pos_as_xyz
  x,y,z
_cell_length_a	16.974897
_cell_length_b	22.010155
_cell_length_c	16.992695
_cell_angle_alpha	90.004303
_cell_angle_beta	92.972799
_cell_angle_gamma	93.660029
loop_
_atom_site_label
_atom_site_type_symbol
_atom_site_fract_x
_atom_site_fract_y
_atom_site_fract_z
O1	O	1.055462	0.102369	-0.099965
O2	O	0.826061	0.091102	-0.112683
O3	O	0.939842	0.096685	0.007818
O4	O	0.941681	0.096785	-0.220465
O5	O	0.939821	-0.004366	0.007800
O6	O	0.826040	-0.009949	-0.112701
O7	O	1.055441	0.001317	-0.099983
Cu8	Cu	0.940739	-0.013543	-0.106343
Cu9	Cu	0.940763	0.105962	-0.106322
O10	O	0.941660	-0.004266	-0.220483
C11	C	0.796562	0.039128	-0.112206
C12	C	0.708693	0.034813	-0.110751
C13	C	0.667417	0.087864	-0.110059
C14	C	0.584855	0.083800	-0.108703
C15	C	0.543571	0.026684	-0.108034
C16	C	0.584853	-0.026371	-0.108729
C17	C	0.667413	-0.022307	-0.110090
C18	C	0.296651	0.008622	-0.103970
C19	C	0.214085	0.004561	-0.102607
C20	C	0.214093	0.114732	-0.102583
C21	C	0.296655	0.118792	-0.103939
C22	C	0.337929	0.065737	-0.104638
N23	N	0.459179	0.022529	-0.106646
N24	N	0.422319	0.069893	-0.106031
N25	N	0.940727	-0.097596	-0.106358
C26	C	0.991149	-0.514901	-0.052972
C27	C	0.991153	-0.578508	-0.052967
O28	O	1.033992	-0.609298	-0.007586
N29	N	0.940762	-0.612801	-0.106306
C30	C	0.890359	-0.583484	-0.159648
O31	O	0.847498	-0.618493	-0.205017
C32	C	0.890352	-0.519878	-0.159649
C33	C	0.940752	-0.485588	-0.106312
C34	C	1.041544	-0.480611	0.000362
C35	C	1.041542	-0.417008	0.000355
C36	C	0.991144	-0.387695	-0.052985
C37	C	0.940749	-0.421985	-0.106319
C38	C	0.839946	-0.490561	-0.212988
C39	C	0.839943	-0.426951	-0.212984
C40	C	0.890343	-0.392661	-0.159646
C41	C	0.890350	-0.329068	-0.159665
N42	N	0.940740	-0.294775	-0.106326
C43	C	0.991138	-0.324089	-0.052986
C44	C	0.890376	-0.717061	-0.159641
C45	C	0.890386	-0.780665	-0.159645
C46	C	0.991179	-0.775686	-0.052962
C47	C	0.991172	-0.712080	-0.052963
C48	C	0.940767	-0.682768	-0.106302
C49	C	0.991129	-0.190518	-0.053004
C50	C	0.991124	-0.126909	-0.053018
C51	C	0.890329	-0.131894	-0.159698
C52	C	0.890336	-0.195497	-0.159687
C53	C	0.940739	-0.224807	-0.106334
O54	O	0.847529	-0.298238	-0.205021
O55	O	1.033984	-0.289072	-0.007619
C56	C	1.084941	0.053293	-0.100459
C57	C	1.172809	0.057612	-0.101915
C58	C	0.937465	0.046044	0.037019
C59	C	0.930406	0.045697	0.124056
N60	N	0.940781	0.190016	-0.106301
C61	C	0.944037	0.046377	-0.249685
C62	C	0.951096	0.046728	-0.336721
C63	C	0.998521	0.049042	0.174367
C64	C	0.991883	0.048722	0.256147
C65	C	0.917129	0.045052	0.287614
C66	C	0.849009	0.041709	0.237296
C67	C	0.855648	0.042034	0.155518
C68	C	0.889615	0.043709	0.531183
C69	C	0.882981	0.043383	0.612968
C70	C	1.025856	0.050397	0.631812
C71	C	1.032488	0.050717	0.550032
C72	C	0.964368	0.047377	0.499721
N73	N	0.910342	0.044723	0.371206
N74	N	0.971155	0.047711	0.416131
H75	H	0.701019	-0.065507	-0.110656
N76	N	0.772643	0.037949	0.269423
N77	N	0.711832	0.034959	0.224491
H78	H	0.657895	0.032299	0.247178
H79	H	0.180478	0.157927	-0.102016
N80	N	0.542704	0.137996	-0.108006
N81	N	0.579574	0.188989	-0.108604
H82	H	0.549805	0.227268	-0.108114
N83	N	0.786068	0.038603	0.104126
N84	N	0.773821	-0.004595	0.056387
H85	H	0.724678	-0.007017	0.020092
N86	N	0.709596	0.146202	-0.110748
N87	N	0.783309	0.149826	-0.111964
H88	H	0.813098	0.191029	-0.112453
N89	N	1.108842	0.054470	0.517879
N90	N	1.114758	0.054758	0.444862
H91	H	1.168684	0.057405	0.422152
H92	H	1.059394	0.052026	0.148753
H93	H	0.551233	-0.072876	-0.108189
H94	H	0.798905	-0.518472	-0.256419
H95	H	1.032169	-0.098992	-0.009584
N96	N	1.095427	0.053807	0.683214
N97	N	1.089494	0.053515	0.756229
H98	H	1.138631	0.055925	0.792533
H99	H	1.032171	-0.214375	-0.009558
N100	N	1.093089	-0.381993	0.054788
N101	N	1.138119	-0.408182	0.102368
H102	H	1.174549	-0.383455	0.140794
H103	H	1.047350	0.051444	0.297107
H104	H	0.180472	-0.041952	-0.102084
N105	N	1.093030	-0.510538	0.054861
N106	N	1.138015	-0.479903	0.102473
H107	H	1.174384	-0.501033	0.140964
H108	H	1.032211	-0.684164	-0.009530
N109	N	1.042638	-0.805646	0.001537
N110	N	1.042617	-0.862438	0.001537
H111	H	1.078951	-0.883600	0.040030
H112	H	0.849298	-0.108018	-0.203129
H113	H	0.822105	0.040385	0.638584
H114	H	0.330263	0.165301	-0.104479
H115	H	0.849355	-0.808580	-0.203085
H116	H	0.834146	0.040989	0.490230
N117	N	0.838882	-0.687132	-0.214139
N118	N	0.793898	-0.717763	-0.261755
H119	H	0.757529	-0.696629	-0.300243
H120	H	0.798894	-0.403089	-0.256419
N121	N	0.338794	-0.045577	-0.104663
N122	N	0.301922	-0.096568	-0.104050
H123	H	0.331688	-0.134848	-0.104531
H124	H	0.849304	-0.223417	-0.203127
