data_functionalizedCrystal
_audit_creation_method	'MofGen! by Chris Wilmer'
_symmetry_space_group_name_H-M	'P1'
_symmetry_Int_Tables_number	1
_symmetry_cell_setting	triclinic
loop_
_symmetry_equiv_pos_as_xyz
  x,y,z
_cell_length_a	12.759401
_cell_length_b	14.908520
_cell_length_c	12.759393
_cell_angle_alpha	86.737527
_cell_angle_beta	90.018496
_cell_angle_gamma	93.320696
loop_
_atom_site_label
_atom_site_type_symbol
_atom_site_fract_x
_atom_site_fract_y
_atom_site_fract_z
Zn1	Zn	1.582067	-0.359100	0.618083
Zn2	Zn	1.571798	-0.509987	0.452530
Zn3	Zn	1.406366	-0.359147	0.442425
Zn4	Zn	1.396199	-0.509917	0.628166
O5	O	1.489108	-0.434538	0.535301
O6	O	1.727726	-0.379125	0.596130
O7	O	1.549811	-0.490026	0.304171
O8	O	1.438226	-0.232897	0.457278
O9	O	1.720181	-0.489981	0.474499
O10	O	1.567313	-0.232862	0.586332
O11	O	1.428268	-0.379205	0.296748
O12	O	1.257997	-0.379138	0.467055
O13	O	1.420898	-0.489862	0.773847
O14	O	1.250528	-0.489908	0.603519
O15	O	1.557454	-0.379058	0.766438
O16	O	1.539952	-0.636222	0.484277
O17	O	1.410940	-0.636171	0.613317
C18	C	1.216142	-0.434521	0.535286
C19	C	1.099364	-0.434536	0.535305
C20	C	1.040634	-0.492306	0.606257
C21	C	0.930909	-0.492318	0.606269
C22	C	0.938654	-0.376786	0.464369
C23	C	1.048377	-0.376771	0.464363
C24	C	1.036161	-0.559010	0.688179
C25	C	0.926436	-0.559022	0.688191
C26	C	1.473257	-0.668930	0.551010
C27	C	1.466573	-0.769204	0.557766
C28	C	1.588489	-0.957621	0.436200
C29	C	1.582212	-1.051837	0.442544
C30	C	1.447746	-1.051854	0.576803
C31	C	1.454024	-0.957638	0.570459
C32	C	1.524397	-0.910524	0.500154
C33	C	1.530668	-0.816307	0.493805
C34	C	1.396208	-0.816325	0.628069
C35	C	1.389931	-0.910541	0.634413
C36	C	1.763140	-0.434555	0.535317
C37	C	1.879916	-0.434563	0.535324
C38	C	1.489187	-0.434447	0.809328
C39	C	1.489221	-0.434408	0.926102
C40	C	1.505049	-0.199231	0.519553
C41	C	1.511842	-0.098957	0.512842
C42	C	1.489093	-0.434563	0.262335
C43	C	1.489280	-0.434348	0.145545
C44	C	1.560336	-0.376707	0.977108
C45	C	1.560363	-0.376674	1.086830
C46	C	1.418158	-0.492052	1.094531
C47	C	1.418126	-0.492079	0.984811
C48	C	1.642440	-0.310097	0.972663
C49	C	1.642467	-0.310064	1.082385
H50	H	0.897128	-0.329755	0.406611
H51	H	1.096192	-0.329723	0.406594
C52	C	1.608067	-0.764479	0.416471
H53	H	1.602620	-0.701621	0.421841
H54	H	1.677625	-0.779853	0.432944
H55	H	1.591690	-0.779980	0.346908
C56	C	1.665890	-0.905794	0.358867
H57	H	1.703166	-0.947337	0.321688
H58	H	1.628171	-0.869098	0.310587
H59	H	1.714102	-0.868982	0.396625
H60	H	1.332638	-0.948914	0.691656
C61	C	1.652709	-1.103640	0.372190
H62	H	1.695511	-1.062084	0.329408
H63	H	1.696016	-1.140336	0.414889
H64	H	1.610085	-1.140450	0.328850
C65	C	1.370354	-1.103684	0.654142
H66	H	1.333085	-1.062143	0.691332
H67	H	1.322151	-1.140507	0.616398
H68	H	1.408091	-1.140370	0.702427
H69	H	1.067224	-0.540377	0.768335
H70	H	1.065707	-0.625345	0.663346
H71	H	1.344016	-0.777969	0.680141
H72	H	0.894118	-0.534082	0.763869
C73	C	1.619385	-0.215722	0.926118
H74	H	1.619376	-0.215744	0.851661
H75	H	1.552651	-0.200100	0.949879
H76	H	1.671923	-0.173101	0.948085
C77	C	0.879821	-0.653380	0.664890
H78	H	0.935108	-0.692176	0.655288
H79	H	0.836914	-0.676657	0.722098
H80	H	0.838694	-0.649517	0.602892
C81	C	1.339882	-0.555534	0.928707
H82	H	1.297551	-0.589877	0.979388
H83	H	1.296442	-0.521017	0.883601
H84	H	1.377384	-0.594867	0.888529
C85	C	1.339968	-0.555492	1.159114
H86	H	1.350174	-0.547217	1.231766
H87	H	1.270266	-0.542292	1.140245
H88	H	1.351241	-0.616116	1.145185
C89	C	1.744549	-0.343919	0.928945
H90	H	1.790045	-0.358958	0.985401
H91	H	1.728549	-0.395669	0.890495
H92	H	1.778060	-0.297985	0.883977
C93	C	1.609198	-0.220385	1.122370
H94	H	1.594369	-0.180468	1.064252
H95	H	1.548226	-0.231083	1.164986
H96	H	1.664489	-0.194270	1.162531
C97	C	1.750675	-0.335364	1.124319
H98	H	1.795154	-0.345798	1.067109
H99	H	1.780974	-0.287543	1.162488
H100	H	1.742646	-0.388377	1.169221
