data_functionalizedCrystal
_audit_creation_method	'MofGen! by Chris Wilmer'
_symmetry_space_group_name_H-M	'P1'
_symmetry_Int_Tables_number	1
_symmetry_cell_setting	triclinic
loop_
_symmetry_equiv_pos_as_xyz
  x,y,z
_cell_length_a	10.654550
_cell_length_b	27.732048
_cell_length_c	9.130313
_cell_angle_alpha	89.993840
_cell_angle_beta	89.996220
_cell_angle_gamma	83.563778
loop_
_atom_site_label
_atom_site_type_symbol
_atom_site_fract_x
_atom_site_fract_y
_atom_site_fract_z
O1	O	1.664980	0.067884	-0.121937
O2	O	1.299230	0.074351	-0.121916
O3	O	1.493465	0.000792	-0.121899
O4	O	1.470746	0.141444	-0.121954
O5	O	1.493462	0.000794	0.121700
O6	O	1.299228	0.074353	0.121683
O7	O	1.664978	0.067886	0.121661
Cu8	Cu	1.482103	0.071120	0.143915
Cu9	Cu	1.482105	0.071117	-0.144169
O10	O	1.470743	0.141446	0.121645
C11	C	1.252451	0.073878	-0.000113
C12	C	1.113067	0.072457	-0.000103
C13	C	1.031761	0.115768	-0.000142
C14	C	0.900796	0.114430	-0.000166
C15	C	0.932457	0.026466	-0.000121
C16	C	1.063419	0.027805	-0.000086
C17	C	1.081409	0.160420	-0.000159
C18	C	1.000101	0.203734	-0.000199
C19	C	0.869136	0.202396	-0.000224
C20	C	0.819479	0.157744	-0.000209
C21	C	1.492987	-0.017217	-0.000096
C22	C	1.491551	-0.070881	-0.000084
C23	C	1.597290	-0.409038	-0.000165
C24	C	1.591962	-0.610731	-0.000185
O25	O	1.688653	-0.641384	-0.000255
N26	N	1.476789	-0.630572	-0.000177
C27	C	1.362940	-0.599986	-0.000173
O28	O	1.264856	-0.621490	-0.000182
C29	C	1.368269	-0.398294	-0.000164
C30	C	1.483449	-0.378456	-0.000157
C31	C	1.712461	-0.389199	-0.000160
C32	C	1.713792	-0.338779	-0.000147
C33	C	1.599951	-0.308197	-0.000139
C34	C	1.484780	-0.328036	-0.000144
C35	C	1.254421	-0.367709	-0.000171
C36	C	1.255764	-0.317284	-0.000172
C37	C	1.370944	-0.297446	-0.000165
C38	C	1.372271	-0.247034	-0.000123
N39	N	1.487444	-0.227193	-0.000131
C40	C	1.601284	-0.257775	-0.000139
C41	C	1.360150	-0.705877	-0.000175
C42	C	1.358817	-0.756300	-0.000175
C43	C	1.587840	-0.767041	-0.000190
C44	C	1.589171	-0.716618	-0.000180
C45	C	1.475323	-0.686036	-0.000184
C46	C	1.604070	-0.151888	-0.000111
C47	C	1.605391	-0.101463	-0.000092
C48	C	1.376369	-0.090726	-0.000085
C49	C	1.375047	-0.141147	-0.000096
C50	C	1.488908	-0.171727	-0.000114
O51	O	1.275631	-0.216352	-0.000070
O52	O	1.699354	-0.236261	-0.000163
C53	C	1.595959	-0.459458	-0.000178
C54	C	1.480788	-0.479296	-0.000183
C55	C	1.366948	-0.448715	-0.000175
C56	C	1.479455	-0.529719	-0.000183
C57	C	1.593296	-0.560301	-0.000191
C58	C	1.708469	-0.540460	-0.000199
C59	C	1.709800	-0.490040	-0.000186
C60	C	1.251774	-0.468556	-0.000167
C61	C	1.250453	-0.518976	-0.000178
C62	C	1.364293	-0.549558	-0.000186
C63	C	1.711757	0.068360	-0.000144
C64	C	1.851141	0.069780	-0.000164
C65	C	1.471221	0.159454	-0.000162
C66	C	1.472657	0.213118	-0.000183
N67	N	1.482110	0.071121	0.346538
N68	N	1.482108	0.071112	-0.346792
C69	C	1.568138	0.038560	0.423197
C70	C	1.568135	0.038554	0.576534
C71	C	1.396071	0.103675	0.576538
C72	C	1.396069	0.103678	0.423204
C73	C	1.654179	0.006003	0.346530
C74	C	1.740216	-0.026560	0.423189
C75	C	1.740212	-0.026566	0.576526
C76	C	1.654173	0.005991	0.653203
H77	H	0.712838	0.156658	-0.000206
H78	H	1.654169	0.005981	0.778061
H79	H	1.810258	-0.053084	0.638940
H80	H	1.129622	-0.007463	-0.000059
Br81	Br	1.094121	-0.545892	-0.000176
H82	H	1.680533	-0.791950	-0.000196
Br83	Br	1.866981	-0.430694	-0.000172
H84	H	1.188045	0.161514	-0.000146
H85	H	1.040540	0.240088	-0.000199
H86	H	0.802938	0.237665	-0.000241
Br87	Br	1.202495	-0.783217	-0.000149
Br88	Br	1.279312	0.147858	0.680598
H89	H	1.283683	-0.065818	-0.000073
H90	H	1.699189	-0.085314	-0.000083
H91	H	1.696787	-0.176781	-0.000131
H92	H	0.892016	-0.009888	-0.000133
H93	H	1.807584	-0.322632	-0.000148
Br94	Br	1.856963	-0.070749	0.319134
Br95	Br	1.745492	-0.689700	-0.000168
H96	H	1.654192	0.006006	0.221675
Br97	Br	1.279305	0.147867	0.319162
H98	H	1.267435	-0.680982	-0.000178
H99	H	1.160629	-0.383852	-0.000185
Br100	Br	1.101246	-0.275783	-0.000184
H101	H	1.281258	-0.157300	-0.000061
H102	H	1.801162	-0.565369	-0.000199
Br103	Br	1.097260	-0.427059	-0.000163
H104	H	1.803591	-0.473893	-0.000181
