data_functionalizedCrystal
_audit_creation_method	'MofGen! by Chris Wilmer'
_symmetry_space_group_name_H-M	'P1'
_symmetry_Int_Tables_number	1
_symmetry_cell_setting	triclinic
loop_
_symmetry_equiv_pos_as_xyz
  x,y,z
_cell_length_a	9.065218
_cell_length_b	10.967829
_cell_length_c	7.540329
_cell_angle_alpha	77.868523
_cell_angle_beta	89.996962
_cell_angle_gamma	84.859494
loop_
_atom_site_label
_atom_site_type_symbol
_atom_site_fract_x
_atom_site_fract_y
_atom_site_fract_z
O1	O	1.959361	0.182986	-0.203407
O2	O	2.459361	0.682986	0.296593
O3	O	1.529992	0.197996	-0.207996
O4	O	2.029992	0.697996	0.292004
O5	O	1.754579	0.008953	-0.150213
O6	O	2.254579	0.508953	0.349787
O7	O	1.734774	0.372029	-0.261190
O8	O	2.234774	0.872029	0.238810
O9	O	1.754565	0.008950	0.144753
O10	O	2.254565	0.508950	0.644753
O11	O	1.529978	0.197993	0.086970
O12	O	2.029978	0.697993	0.586970
O13	O	1.959348	0.182984	0.091559
O14	O	2.459348	0.682984	0.591559
Cu15	Cu	1.744662	0.190488	0.116197
Cu16	Cu	2.244662	0.690488	0.616197
Cu17	Cu	1.744678	0.190491	-0.232634
Cu18	Cu	2.244678	0.690491	0.267366
O19	O	1.734761	0.372026	0.033776
O20	O	2.234761	0.872026	0.533776
C21	C	1.475006	0.196552	-0.060073
C22	C	1.975006	0.696552	0.439927
C23	C	1.311188	0.192239	-0.058755
C24	C	1.811188	0.692239	0.441245
C25	C	1.753130	-0.037554	0.011481
C26	C	2.253130	0.462446	0.511481
C27	C	1.748816	-0.176128	0.053826
C28	C	2.248816	0.323872	0.553826
C29	C	1.746899	-0.237901	-0.080098
C30	C	2.246899	0.262099	0.419902
C31	C	1.742440	-0.381123	-0.036336
C32	C	2.242440	0.118877	0.463664
C33	C	2.014333	0.184427	-0.056368
C34	C	2.514333	0.684427	0.443632
C35	C	2.178152	0.188741	-0.057697
C36	C	2.678152	0.688741	0.442303
C37	C	1.736210	0.418534	-0.127922
C38	C	2.236210	0.918534	0.372078
C39	C	1.740524	0.557107	-0.170279
C40	C	2.240524	1.057107	0.329721
N41	N	1.744661	0.190485	0.361546
N42	N	2.244661	0.690485	0.861546
N43	N	1.744690	0.190484	-0.477981
N44	N	2.244690	0.690484	0.022019
H45	H	1.748553	-0.184754	-0.227154
H46	H	2.248553	0.315246	0.272846
C47	C	1.740195	-0.452902	0.162337
C48	C	2.240195	0.047098	0.662337
H49	H	1.737501	-0.539748	0.165688
H50	H	2.237501	-0.039748	0.665688
H51	H	1.654966	-0.423081	0.219331
H52	H	2.154966	0.076919	0.719331
H53	H	1.826758	-0.440175	0.224551
H54	H	2.326758	0.059825	0.724551
H55	H	1.742167	-0.389752	-0.317346
H56	H	2.242167	0.110248	0.182654
H57	H	1.747146	-0.229273	0.200882
H58	H	2.247146	0.270727	0.700882
