data_functionalizedCrystal
_audit_creation_method	'MofGen! by Chris Wilmer'
_symmetry_space_group_name_H-M	'P1'
_symmetry_Int_Tables_number	1
_symmetry_cell_setting	triclinic
loop_
_symmetry_equiv_pos_as_xyz
  x,y,z
_cell_length_a	19.377372
_cell_length_b	14.628931
_cell_length_c	19.376995
_cell_angle_alpha	52.464859
_cell_angle_beta	75.975458
_cell_angle_gamma	72.113075
loop_
_atom_site_label
_atom_site_type_symbol
_atom_site_fract_x
_atom_site_fract_y
_atom_site_fract_z
Zr1	Zr	0.626018	1.294051	-0.207972
O2	O	0.551699	1.449920	-0.308207
O3	O	0.648801	1.114024	-0.177244
O4	O	0.682656	1.320606	-0.332144
O5	O	0.491138	1.230816	-0.031120
O6	O	0.785958	1.369032	-0.351026
O7	O	0.517843	1.243339	-0.153307
O8	O	0.725397	0.999496	-0.073938
O9	O	0.551699	1.600352	-0.308208
O10	O	0.735610	1.233159	-0.178231
O11	O	0.638587	1.187673	-0.072952
O12	O	0.678448	1.430896	-0.255327
O13	O	0.581425	1.385410	-0.150048
Zr14	Zr	0.748180	1.351312	-0.043211
Zr15	Zr	0.790772	1.371285	-0.238086
Zr16	Zr	0.583426	1.274078	-0.013097
Zr17	Zr	0.626018	1.533972	-0.207972
Zr18	Zr	0.748180	1.111391	-0.043211
O19	O	0.725397	1.531339	-0.073939
O20	O	0.785958	1.559738	-0.351026
O21	O	0.491138	1.421521	-0.031120
O22	O	0.822499	1.195443	0.057024
O23	O	0.883060	1.223842	-0.220063
O24	O	0.588240	1.085625	0.099843
O25	O	0.883060	1.414548	-0.220063
O26	O	0.691542	1.324757	0.080961
O27	O	0.588240	1.276331	0.099843
O28	O	0.856355	1.402025	-0.097876
O29	O	0.682657	1.661743	-0.332144
O30	O	0.691542	0.983620	0.080961
O31	O	0.822499	1.045011	0.057024
O32	O	0.856354	1.060887	-0.097875
O33	O	0.517844	1.584476	-0.153308
O34	O	0.648801	1.645868	-0.177245
O35	O	0.695750	1.214467	0.004144
O36	O	0.792773	1.259953	-0.101135
O37	O	0.735611	1.457690	-0.178231
O38	O	0.638588	1.412204	-0.072952
C39	C	0.687099	1.022576	-0.125591
C40	C	0.687099	0.920723	-0.125591
C41	C	0.481017	1.226073	-0.087923
C42	C	0.411074	1.193285	-0.075139
C43	C	0.735228	0.897878	-0.177816
C44	C	0.735229	0.792608	-0.177817
C45	C	0.031856	1.601521	-0.234311
C46	C	-0.033858	1.570684	-0.222287
C47	C	0.025824	1.364262	-0.141804
C48	C	0.091544	1.395081	-0.153818
C49	C	0.094554	1.513712	-0.200073
C50	C	0.154242	1.307272	-0.119580
C51	C	0.219957	1.338090	-0.131597
C52	C	0.222973	1.456716	-0.177852
C53	C	0.160268	1.544530	-0.212090
C54	C	0.151232	1.188642	-0.073331
C55	C	0.213930	1.100833	-0.039093
C56	C	0.279645	1.131650	-0.051104
C57	C	0.282662	1.250276	-0.097359
C58	C	0.342350	1.043836	-0.016867
C59	C	0.408065	1.074653	-0.028884
C60	C	0.348376	1.281093	-0.109377
C61	C	0.893182	1.419290	-0.163260
C62	C	0.963124	1.452079	-0.176044
C63	C	0.740376	1.347665	-0.369350
C64	C	0.758457	1.356144	-0.452080
C65	C	0.687099	1.622787	-0.125592
C66	C	0.687100	1.724640	-0.125592
C67	C	0.840849	1.394770	-0.579086
C68	C	0.823852	1.386800	-0.501348
C69	C	0.710035	1.333439	-0.480535
C70	C	0.727024	1.341399	-0.558270
C71	C	0.792432	1.372066	-0.607541
C72	C	0.678607	1.318695	-0.586725
C73	C	0.695593	1.326660	-0.664456
C74	C	0.760997	1.357330	-0.713733
C75	C	0.809418	1.380032	-0.685272
C76	C	0.613197	1.288036	-0.537456
C77	C	0.564780	1.265332	-0.565911
C78	C	0.581768	1.273289	-0.643641
C79	C	0.647172	1.303958	-0.692917
C80	C	0.533347	1.250587	-0.672102
C81	C	0.550333	1.258552	-0.749833
C82	C	0.664158	1.311923	-0.770648
C83	C	0.633823	1.297699	0.118167
C84	C	0.615741	1.289219	0.200897
C85	C	0.893181	1.119185	-0.163260
C86	C	0.963123	1.050120	-0.176044
C87	C	0.633822	0.997593	0.118168
C88	C	0.615741	0.887261	0.200897
C89	C	0.839905	1.094202	0.080499
C90	C	0.891766	1.016658	0.150445
C91	C	0.534293	1.551161	-0.331682
C92	C	0.482433	1.628705	-0.401628
C93	C	0.481017	1.526178	-0.087923
C94	C	0.411075	1.595243	-0.075139
C95	C	0.740376	1.647770	-0.369351
C96	C	0.758458	1.758102	-0.452081
C97	C	0.966133	1.003701	-0.222299
C98	C	1.031849	0.938819	-0.234328
C99	C	1.094553	0.920351	-0.200096
C100	C	1.091543	0.966779	-0.153839
C101	C	1.025829	1.031666	-0.141816
C102	C	0.637086	0.849433	0.280000
C103	C	0.620092	0.745776	0.357741
C104	C	0.581757	0.679944	0.356377
C105	C	0.560408	0.717779	0.277267
C106	C	0.577398	0.821439	0.199528
C107	C	0.966772	1.003989	0.128336
C108	C	1.015508	0.931145	0.194049
C109	C	0.989237	0.870965	0.281869
C110	C	0.914224	0.883640	0.303977
C111	C	0.865489	0.956489	0.238265
C112	C	0.407426	1.641386	-0.379519
C113	C	0.358690	1.714259	-0.445232
C114	C	0.384961	1.774445	-0.533052
C115	C	0.459974	1.761763	-0.555160
C116	C	0.508710	1.688898	-0.489448
C117	C	0.408067	1.641673	-0.028892
C118	C	0.342356	1.706583	-0.016885
C119	C	0.279652	1.725055	-0.051119
C120	C	0.282662	1.678623	-0.097372
C121	C	0.348373	1.613721	-0.109385
C122	C	0.796794	1.823905	-0.450689
C123	C	0.813797	1.927567	-0.528418
C124	C	0.792458	1.965429	-0.607536
C125	C	0.754120	1.899616	-0.608925
C126	C	0.737123	1.795951	-0.531198
H127	H	0.776433	0.772880	-0.222533
H128	H	0.656779	1.308474	-0.440412
H129	H	0.350812	1.575915	-0.147040
C130	C	0.163608	1.675031	-0.263065
H131	H	0.211732	1.680806	-0.265343
H132	H	0.149991	1.716700	-0.320682
H133	H	0.131177	1.708091	-0.234634
H134	H	0.599369	1.281557	-0.474166
H135	H	0.645889	0.744370	-0.080882
C136	C	0.488867	1.827956	-0.651762
H137	H	0.540519	1.809978	-0.655527
H138	H	0.471950	1.804342	-0.679671
H139	H	0.471963	1.910390	-0.679682
H140	H	-0.084909	1.642197	-0.250173
H141	H	0.845012	1.981142	-0.527269
C142	C	0.210616	0.970346	0.011788
H143	H	0.257371	0.922465	0.030454
H144	H	0.176808	0.949625	0.061210
H145	H	0.195638	0.958442	-0.024919
C146	C	0.811154	2.079466	-0.693027
H147	H	0.837035	2.113234	-0.680858
H148	H	0.840386	2.061819	-0.732138
H149	H	0.767566	2.133715	-0.718818
H150	H	0.668299	0.903024	0.281127
C151	C	0.351717	1.411594	-0.160352
H152	H	0.399840	1.417369	-0.162629
H153	H	0.338099	1.453264	-0.217968
H154	H	0.319285	1.444654	-0.131920
H155	H	0.567927	0.595539	0.419683
H156	H	1.076585	0.920835	0.176032
C157	C	1.042852	0.790826	0.354143
H158	H	1.091285	0.791896	0.328391
H159	H	1.035180	0.818581	0.389313
H160	H	1.035177	0.712546	0.389304
H161	H	0.297613	1.724568	-0.427214
C162	C	0.736107	1.345648	-0.824850
H163	H	0.739288	1.347132	-0.875215
H164	H	0.737624	1.421336	-0.842134
H165	H	0.775798	1.289261	-0.790639
H166	H	0.774824	1.363820	-0.777028
H167	H	0.569784	1.678576	-0.507460
H168	H	0.510906	1.240066	-0.773001
H169	H	0.345269	1.833773	-0.586550
C170	C	0.339054	1.757651	0.033992
H171	H	0.290944	1.798966	0.036237
H172	H	0.352671	1.695327	0.091624
H173	H	0.371508	1.810187	0.005487
H174	H	0.276484	1.481805	-0.187637
C175	C	0.730645	1.941282	-0.695957
H176	H	0.746254	2.012453	-0.742041
H177	H	0.752000	1.882610	-0.706425
H178	H	0.679187	1.954516	-0.693101
H179	H	0.705904	1.742383	-0.532343
H180	H	0.226150	1.777905	-0.041332
H181	H	0.894114	1.419731	-0.619200
H182	H	0.459116	1.626638	-0.001006
H183	H	0.776437	0.956248	-0.222525
C184	C	0.877119	1.411753	-0.470038
H185	H	0.857636	1.402621	-0.416688
H186	H	0.922375	1.357986	-0.461310
H187	H	0.884199	1.490060	-0.512796
H188	H	0.892843	0.834631	0.375489
H189	H	0.386022	1.592382	-0.308016
C190	C	1.166833	0.848965	-0.213317
H191	H	1.203752	0.844614	-0.186310
H192	H	1.161258	0.771693	-0.187837
H193	H	1.180087	0.886564	-0.273968
C194	C	0.631441	0.841858	-0.065172
H195	H	0.601251	0.869833	-0.032398
H196	H	0.602365	0.843893	-0.099315
H197	H	0.656376	0.763187	-0.026509
C198	C	0.820275	1.782274	-0.363671
H199	H	0.845549	1.836314	-0.373988
H200	H	0.778484	1.778369	-0.325016
H201	H	0.851298	1.706459	-0.338333
H202	H	0.231599	1.693673	-0.125243
H203	H	0.023364	1.267673	-0.104146
C204	C	0.035170	1.732014	-0.285187
H205	H	-0.011582	1.779901	-0.303861
H206	H	0.050157	1.743909	-0.248484
H207	H	0.068977	1.752737	-0.334617
H208	H	0.097723	1.163555	-0.063554
C209	C	1.160519	0.946445	-0.116181
H210	H	1.200080	0.901139	-0.129961
H211	H	1.171434	1.020246	-0.140729
H212	H	1.152598	0.905373	-0.054606
H213	H	1.023387	1.069452	-0.104146
H214	H	0.915084	1.018740	-0.250188
C215	C	0.643582	0.704167	0.444751
H216	H	0.627968	0.633011	0.490861
H217	H	0.695035	0.690951	0.441887
H218	H	0.622220	0.762872	0.455190
H219	H	0.459113	1.003149	-0.000989
C220	C	0.339036	0.913350	0.034006
H221	H	0.385791	0.865467	0.052672
H222	H	0.305227	0.892622	0.083428
H223	H	0.324059	0.901456	-0.002707
H224	H	0.529194	0.664163	0.276170
H225	H	0.511524	1.240366	-0.525788
C226	C	0.881370	1.413750	-0.739468
H227	H	0.907776	1.426132	-0.711390
H228	H	0.909446	1.351931	-0.744476
H229	H	0.871273	1.484006	-0.795972
H230	H	0.480089	1.225628	-0.631980
C231	C	0.553921	0.863032	0.112520
H232	H	0.528663	0.808967	0.122849
H233	H	0.522899	0.938843	0.087166
H234	H	0.595720	0.866921	0.073872
C235	C	1.035149	0.887746	-0.285200
H236	H	1.083266	0.846465	-0.287471
H237	H	1.002706	0.835200	-0.256693
H238	H	1.021521	0.950076	-0.342832
C239	C	0.995683	1.070180	0.031741
H240	H	1.047335	1.052202	0.027998
H241	H	0.978786	1.046572	0.003815
H242	H	0.978776	1.152613	0.003822
H243	H	0.804415	0.966790	0.256279
