data_functionalizedCrystal
_audit_creation_method	'MofGen! by Chris Wilmer'
_symmetry_space_group_name_H-M	'P1'
_symmetry_Int_Tables_number	1
_symmetry_cell_setting	triclinic
loop_
_symmetry_equiv_pos_as_xyz
  x,y,z
_cell_length_a	6.817900
_cell_length_b	14.858565
_cell_length_c	16.256277
_cell_angle_alpha	95.047207
_cell_angle_beta	103.500353
_cell_angle_gamma	104.523916
loop_
_atom_site_label
_atom_site_type_symbol
_atom_site_fract_x
_atom_site_fract_y
_atom_site_fract_z
V1	V	-4.032045	-0.129422	-0.264111
O2	O	-4.014098	0.005446	-0.258841
O3	O	-3.988680	-0.255879	-0.262538
O4	O	-3.983597	-0.127771	-0.379193
O5	O	-4.019217	-0.123549	-0.141379
V6	V	-4.515027	-0.113250	-0.249403
O7	O	-4.294491	-0.164897	-0.296375
O8	O	-4.702778	-0.077776	-0.217139
O9	O	-4.335185	0.013206	-0.250976
O10	O	-4.650370	-0.248118	-0.254673
O11	O	-4.645252	-0.119124	-0.372135
O12	O	-4.340268	-0.114902	-0.134322
C13	C	-3.834908	-0.286695	-0.258432
C14	C	-3.880739	-0.390077	-0.257913
C15	C	-3.828422	-0.123280	-0.407235
C16	C	-3.870127	-0.122766	-0.501316
C17	C	-4.048485	-0.768643	-0.256025
C18	C	-4.001804	-0.663314	-0.256550
C19	C	-3.964613	-0.579363	-0.256968
C20	C	-3.917930	-0.474028	-0.257495
C21	C	-4.161215	-0.126355	-0.733143
C22	C	-4.051473	-0.046541	-0.776087
C23	C	-3.946386	-0.121800	-0.673561
C24	C	-4.130389	-0.200641	-0.798244
C25	C	-4.020064	-0.120870	-0.839942
C26	C	-3.836061	-0.041930	-0.715257
C27	C	-3.915037	-0.196099	-0.737419
C28	C	-3.805136	-0.116264	-0.780331
C29	C	-3.903947	-0.122334	-0.577713
C30	C	-4.062483	-0.120328	-0.935787
C31	C	-4.152300	0.044018	-0.255080
C32	C	-4.085707	0.147399	-0.255604
C33	C	-4.158785	-0.119396	-0.106275
C34	C	-4.096318	-0.119904	-0.012193
H35	H	-4.311256	-0.130528	-0.712261
H36	H	-3.654831	-0.111969	-0.801037
C37	C	-3.667581	0.048793	-0.666760
C38	C	-3.446860	0.072024	-0.681887
C39	C	-3.278411	0.162756	-0.633395
C40	C	-3.330683	0.230257	-0.569777
C41	C	-3.551415	0.207027	-0.554647
C42	C	-3.719864	0.116296	-0.603139
H43	H	-3.408155	0.022055	-0.728984
H44	H	-3.115011	0.179951	-0.644596
H45	H	-3.205988	0.297421	-0.533880
H46	H	-3.590120	0.256997	-0.507550
H47	H	-3.883264	0.099101	-0.591938
C48	C	-4.299051	-0.291245	-0.846891
C49	C	-4.520401	-0.313957	-0.832402
C50	C	-4.689075	-0.404556	-0.881046
C51	C	-4.636398	-0.472443	-0.944178
C52	C	-4.415037	-0.449733	-0.958669
C53	C	-4.246363	-0.359134	-0.910026
H54	H	-4.559406	-0.263702	-0.785666
H55	H	-4.852941	-0.421367	-0.870318
H56	H	-4.761260	-0.539509	-0.980186
H57	H	-4.376032	-0.499988	-1.005406
H58	H	-4.082497	-0.342323	-0.920753
C59	C	-3.836679	-0.281535	-0.714053
C60	C	-3.976957	-0.381968	-0.752291
C61	C	-3.898618	-0.467412	-0.728927
C62	C	-3.680002	-0.452424	-0.667325
C63	C	-3.539711	-0.351986	-0.629084
C64	C	-3.618050	-0.266541	-0.652448
H65	H	-4.138801	-0.393067	-0.797896
H66	H	-4.002472	-0.541763	-0.757236
H67	H	-3.622012	-0.515675	-0.650030
H68	H	-3.377866	-0.340886	-0.583479
H69	H	-3.514196	-0.192191	-0.624138
H70	H	-4.109533	0.016697	-0.793364
