data_functionalizedCrystal
_audit_creation_method	'MofGen! by Chris Wilmer'
_symmetry_space_group_name_H-M	'P1'
_symmetry_Int_Tables_number	1
_symmetry_cell_setting	triclinic
loop_
_symmetry_equiv_pos_as_xyz
  x,y,z
_cell_length_a	19.188930
_cell_length_b	23.532407
_cell_length_c	17.666332
_cell_angle_alpha	89.988854
_cell_angle_beta	89.976766
_cell_angle_gamma	82.996728
loop_
_atom_site_label
_atom_site_type_symbol
_atom_site_fract_x
_atom_site_fract_y
_atom_site_fract_z
O1	O	0.925923	0.071102	-0.063199
O2	O	0.722581	0.080673	-0.063148
O3	O	0.830384	-0.007031	-0.063161
O4	O	0.818120	0.158806	-0.063186
O5	O	0.830365	-0.007036	0.062735
O6	O	0.722562	0.080669	0.062748
O7	O	0.925904	0.071097	0.062697
Cu8	Cu	0.824231	0.075883	0.074218
Cu9	Cu	0.824253	0.075888	-0.074669
O10	O	0.818101	0.158802	0.062711
C11	C	0.696561	0.080361	-0.000193
C12	C	0.619060	0.079431	-0.000173
C13	C	0.573972	0.130893	-0.000193
C14	C	0.501151	0.130019	-0.000201
C15	C	0.473421	0.077680	-0.000205
C16	C	0.518519	0.026211	-0.000181
C17	C	0.591339	0.027086	-0.000165
N18	N	0.365575	0.037674	-0.043078
N19	N	0.296399	0.036846	-0.043094
C20	C	0.254021	0.075038	-0.000251
N21	N	0.283431	0.114099	0.042600
N22	N	0.352613	0.114929	0.042614
C23	C	0.394462	0.076724	-0.000222
C24	C	0.129971	0.125556	-0.000278
C25	C	0.057149	0.124680	-0.000282
C26	C	0.074520	0.020870	-0.000269
C27	C	0.147340	0.021748	-0.000258
C28	C	0.175061	0.074092	-0.000266
C29	C	0.830062	-0.028250	-0.000211
C30	C	0.829123	-0.091469	-0.000205
C31	C	0.887029	-0.490449	-0.000261
C32	C	0.886157	-0.549851	-0.000267
O33	O	0.939837	-0.586482	-0.000308
N34	N	0.822068	-0.572613	-0.000250
C35	C	0.758848	-0.535970	-0.000236
O36	O	0.704255	-0.560786	-0.000223
C37	C	0.759721	-0.476569	-0.000235
C38	C	0.823814	-0.453810	-0.000244
C39	C	0.951117	-0.467690	-0.000271
C40	C	0.951989	-0.408292	-0.000264
C41	C	0.888773	-0.371653	-0.000247
C42	C	0.824685	-0.394412	-0.000237
C43	C	0.696501	-0.439927	-0.000226
C44	C	0.697379	-0.380523	-0.000227
C45	C	0.761472	-0.357764	-0.000236
C46	C	0.762342	-0.298376	-0.000214
N47	N	0.826430	-0.275614	-0.000230
C48	C	0.889646	-0.312252	-0.000247
C49	C	0.757019	-0.660717	-0.000237
C50	C	0.756146	-0.720116	-0.000232
C51	C	0.883455	-0.733993	-0.000264
C52	C	0.884328	-0.674592	-0.000264
C53	C	0.821108	-0.637954	-0.000254
C54	C	0.891472	-0.187512	-0.000232
C55	C	0.892339	-0.128108	-0.000222
C56	C	0.765029	-0.114236	-0.000193
C57	C	0.764163	-0.173634	-0.000199
C58	C	0.827390	-0.210272	-0.000221
O59	O	0.708690	-0.261710	-0.000176
O60	O	0.944230	-0.287428	-0.000270
C61	C	0.951923	0.071410	-0.000259
C62	C	1.029425	0.072340	-0.000284
C63	C	0.818423	0.180021	-0.000241
C64	C	0.819362	0.243240	-0.000252
N65	N	0.824221	0.075878	0.178938
N66	N	0.824270	0.075888	-0.179389
C67	C	0.871971	0.037062	0.218542
C68	C	0.871975	0.037059	0.297789
C69	C	0.824236	0.075883	0.337430
C70	C	0.776476	0.114702	0.297816
C71	C	0.776469	0.114700	0.218570
N72	N	0.814998	0.126298	0.461842
N73	N	0.815010	0.126298	0.537123
C74	C	0.824254	0.075891	0.576194
N75	N	0.833500	0.025481	0.537141
N76	N	0.833493	0.025482	0.461853
C77	C	0.824238	0.075889	0.423359
C78	C	0.872011	0.037068	0.701727
C79	C	0.872010	0.037064	0.780976
C80	C	0.776515	0.114713	0.781002
C81	C	0.776512	0.114711	0.701754
C82	C	0.824264	0.075889	0.662122
H83	H	0.152543	0.168178	-0.000274
H84	H	0.713561	-0.084394	-0.000177
H85	H	0.910860	0.005449	0.330041
H86	H	0.020438	0.166588	-0.000293
C87	C	0.381807	0.174765	-0.000238
C88	C	0.451577	0.186589	-0.000225
H89	H	0.351206	0.209689	-0.000248
H90	H	0.373473	0.153297	-0.044135
H91	H	0.373425	0.153296	0.043671
H92	H	0.459961	0.208054	-0.044137
H93	H	0.459915	0.208066	0.043677
C94	C	0.956332	-0.808835	-0.065020
C95	C	0.952947	-0.774273	-0.000294
H96	H	0.999233	-0.833699	-0.065040
H97	H	0.918040	-0.830886	-0.065004
H98	H	0.954031	-0.785357	-0.108914
H99	H	0.955243	-0.797750	0.043599
H100	H	0.991249	-0.752219	-0.000304
C101	C	0.414603	-0.021223	-0.000213
C102	C	0.488042	-0.031322	-0.000190
H103	H	0.395791	-0.056743	-0.000221
H104	H	0.399080	-0.000047	0.043681
H105	H	0.399135	-0.000038	-0.044125
H106	H	0.503510	-0.052503	0.043725
H107	H	0.503572	-0.052507	-0.044089
C108	C	0.682129	0.191465	0.709742
C109	C	0.724030	0.157386	0.658216
H110	H	0.649730	0.217813	0.682862
H111	H	0.657184	0.167810	0.740669
H112	H	0.711058	0.211891	0.740631
H113	H	0.695102	0.136957	0.627331
H114	H	0.748978	0.181044	0.627276
C115	C	0.581598	0.219646	-0.064925
C116	C	0.604432	0.188434	-0.000197
H117	H	0.600399	0.255171	-0.064923
H118	H	0.597134	0.198466	-0.108812
H119	H	0.531775	0.226476	-0.064929
H120	H	0.654255	0.181600	-0.000196
H121	H	0.588900	0.209618	0.043702
H122	H	0.703955	-0.738641	-0.000211
H123	H	0.645897	-0.350694	-0.000220
H124	H	0.051943	-0.021745	-0.000319
C125	C	0.239271	-0.037492	0.064480
C126	C	0.196906	-0.034821	-0.000247
H127	H	0.269868	-0.072419	0.064489
H128	H	0.266202	-0.006199	0.064478
H129	H	0.210471	-0.035679	0.108372
H130	H	0.225706	-0.036630	-0.044140
H131	H	0.169973	-0.066123	-0.000252
H132	H	0.628050	-0.014822	-0.000150
C133	C	1.018094	-0.147801	-0.000260
C134	C	0.962794	-0.103093	-0.000238
H135	H	1.061588	-0.132357	-0.000276
H136	H	1.015100	-0.170687	0.043639
H137	H	1.015103	-0.170673	-0.044167
H138	H	0.965782	-0.080223	0.043672
H139	H	0.965790	-0.080197	-0.044142
C140	C	0.964381	-0.262343	-0.064975
C141	C	0.960972	-0.227777	-0.000253
H142	H	1.007289	-0.287197	-0.064985
H143	H	0.926098	-0.284404	-0.064965
H144	H	0.962079	-0.238867	-0.108871
H145	H	0.963269	-0.251252	0.043643
H146	H	0.999265	-0.205713	-0.000256
H147	H	1.004180	-0.389768	-0.000274
H148	H	1.002598	-0.497516	-0.000287
H149	H	0.936518	-0.656067	-0.000272
C150	C	0.631091	-0.652976	-0.000193
C151	C	0.687521	-0.620446	-0.000211
H152	H	0.588187	-0.628115	-0.000172
H153	H	0.633406	-0.676424	-0.044095
H154	H	0.633404	-0.676442	0.043711
H155	H	0.685210	-0.596982	-0.044118
H156	H	0.685205	-0.596988	0.043696
H157	H	0.644310	-0.458446	-0.000224
C158	C	0.638411	-0.153948	-0.000175
C159	C	0.693712	-0.198654	-0.000191
H160	H	0.594918	-0.169392	-0.000181
H161	H	0.641388	-0.131083	0.043732
H162	H	0.641416	-0.131055	-0.044074
H163	H	0.690709	-0.221545	0.043712
H164	H	0.690733	-0.221529	-0.044102
H165	H	0.910852	0.005450	0.186275
H166	H	0.737605	0.146312	0.330096
H167	H	0.737642	0.146321	0.813277
C168	C	0.682078	0.191452	0.226557
C169	C	0.723983	0.157375	0.175033
H170	H	0.649680	0.217800	0.199676
H171	H	0.657132	0.167796	0.257482
H172	H	0.711006	0.211878	0.257449
H173	H	0.695056	0.136945	0.144145
H174	H	0.748931	0.181033	0.144095
H175	H	0.910892	0.005452	0.813222
H176	H	0.910892	0.005455	0.669457
