data_functionalizedCrystal
_audit_creation_method	'MofGen! by Chris Wilmer'
_symmetry_space_group_name_H-M	'P1'
_symmetry_Int_Tables_number	1
_symmetry_cell_setting	triclinic
loop_
_symmetry_equiv_pos_as_xyz
  x,y,z
_cell_length_a	12.837943
_cell_length_b	12.811434
_cell_length_c	9.130313
_cell_angle_alpha	95.429316
_cell_angle_beta	89.997654
_cell_angle_gamma	89.411196
loop_
_atom_site_label
_atom_site_type_symbol
_atom_site_fract_x
_atom_site_fract_y
_atom_site_fract_z
O1	O	1.376625	0.272974	-0.085502
O2	O	1.074761	0.259490	-0.087303
O3	O	1.233290	0.114201	-0.106594
O4	O	1.218096	0.418263	-0.066211
O5	O	1.233279	0.114195	0.137004
O6	O	1.074750	0.259484	0.156295
O7	O	1.376614	0.272969	0.158096
Cu8	Cu	1.225681	0.266226	0.179438
Cu9	Cu	1.225694	0.266233	-0.108645
O10	O	1.218085	0.418258	0.177387
C11	C	1.036116	0.254932	0.033890
C12	C	0.920980	0.241346	0.032082
C13	C	0.680723	0.404674	0.053795
C14	C	0.572543	0.391914	0.052097
C15	C	0.596436	0.203066	0.027001
C16	C	0.704617	0.215826	0.028698
C17	C	0.746756	0.316633	0.042093
C18	C	0.854939	0.329393	0.043780
C19	C	0.878830	0.140545	0.018694
C20	C	0.770650	0.127785	0.016996
C21	C	1.232434	0.075009	0.009997
C22	C	1.229888	-0.041763	-0.005521
C23	C	1.226300	-0.206344	-0.160156
C24	C	1.228696	-0.096627	-0.145591
C25	C	1.228685	-0.096624	0.119994
C26	C	1.226289	-0.206342	0.105429
C27	C	1.225094	-0.261198	-0.034650
C28	C	1.222690	-0.370917	-0.049214
C29	C	1.222686	-0.370913	0.216370
C30	C	1.225083	-0.261196	0.230935
C31	C	1.415259	0.277527	0.036900
C32	C	1.530395	0.291113	0.038699
C33	C	1.218941	0.457450	0.060793
C34	C	1.221487	0.574221	0.076301
N35	N	1.225680	0.266221	0.382060
N36	N	1.225704	0.266230	-0.311268
C37	C	1.295900	0.201919	0.450174
C38	C	1.295910	0.201920	0.603511
C39	C	1.155476	0.330534	0.620608
C40	C	1.155462	0.330527	0.467273
H41	H	0.889247	0.411475	0.054689
H42	H	0.932607	0.068856	0.009156
H43	H	1.225312	-0.251008	-0.274214
C44	C	1.221359	-0.431249	0.354436
H45	H	1.222404	-0.382861	0.439943
H46	H	1.280823	-0.476020	0.354022
H47	H	1.160008	-0.472078	0.354530
C48	C	1.226392	-0.200853	0.385012
H49	H	1.225335	-0.249239	0.457673
H50	H	1.166924	-0.156086	0.396469
H51	H	1.287739	-0.160020	0.395960
C52	C	1.230017	-0.036291	-0.283647
H53	H	1.228955	-0.084678	-0.369153
H54	H	1.291354	0.004548	-0.283747
H55	H	1.170539	0.008471	-0.283224
C56	C	1.078218	0.401241	0.714335
H57	H	1.036379	0.439518	0.651801
H58	H	1.115680	0.448718	0.780464
H59	H	1.034905	0.359090	0.768545
C60	C	1.373150	0.131190	0.678437
H61	H	1.363097	0.140393	0.781962
H62	H	1.442406	0.149557	0.655733
H63	H	1.361583	0.059972	0.643855
C64	C	1.230009	-0.036271	0.274064
H65	H	1.231608	0.036928	0.264756
H66	H	1.290018	-0.056219	0.325976
H67	H	1.169203	-0.052277	0.326504
C68	C	1.221378	-0.431263	-0.203289
H69	H	1.219768	-0.504463	-0.193993
H70	H	1.282177	-0.415247	-0.255721
H71	H	1.161362	-0.411316	-0.255202
H72	H	0.736325	0.045710	0.006107
C73	C	0.727081	0.515554	0.068515
H74	H	0.672259	0.566162	0.075244
H75	H	0.768790	0.524456	-0.015250
H76	H	0.768781	0.524456	0.154657
C77	C	0.499910	0.488758	0.064956
H78	H	0.540504	0.550619	0.073165
H79	H	0.457205	0.487705	0.149760
H80	H	0.457220	0.487708	-0.020147
C81	C	0.550070	0.092190	0.012283
H82	H	0.476184	0.097204	0.012947
H83	H	0.572707	0.055481	0.092354
H84	H	0.572701	0.055485	-0.077553
H85	H	1.353074	0.149556	0.380797
H86	H	1.098275	0.382889	0.411811
