data_functionalizedCrystal
_audit_creation_method	'MofGen! by Chris Wilmer'
_symmetry_space_group_name_H-M	'P1'
_symmetry_Int_Tables_number	1
_symmetry_cell_setting	triclinic
loop_
_symmetry_equiv_pos_as_xyz
  x,y,z
_cell_length_a	15.944551
_cell_length_b	15.944551
_cell_length_c	15.021413
_cell_angle_alpha	90.003065
_cell_angle_beta	89.997174
_cell_angle_gamma	83.498738
loop_
_atom_site_label
_atom_site_type_symbol
_atom_site_fract_x
_atom_site_fract_y
_atom_site_fract_z
O1	O	1.114529	0.108321	-0.073941
O2	O	0.869979	0.121677	-0.073964
O3	O	0.998932	-0.007276	-0.073944
O4	O	0.985576	0.237274	-0.073961
O5	O	0.998912	-0.007257	0.074121
O6	O	0.869959	0.121695	0.074101
O7	O	1.114508	0.108339	0.074123
Zn8	Zn	0.992230	0.115020	0.097620
Zn9	Zn	0.992257	0.114996	-0.097461
O10	O	0.985555	0.237292	0.074103
C11	C	0.838675	0.121132	0.000066
C12	C	0.745429	0.119470	0.000057
C13	C	0.530572	0.035565	0.000081
C14	C	0.469562	0.074518	-0.072926
C15	C	0.574703	0.116462	0.000068
C16	C	0.469564	0.074556	0.073054
C17	C	0.409790	0.113551	0.000083
C18	C	0.514921	0.155438	-0.072998
C19	C	0.514930	0.155464	0.073047
C20	C	0.453937	0.194476	0.000023
C21	C	0.669705	0.118137	0.000059
C22	C	0.314789	0.111883	0.000085
C23	C	0.998367	-0.038561	0.000089
C24	C	0.996705	-0.131807	0.000089
C25	C	0.912801	-0.346663	0.000069
C26	C	0.951753	-0.407672	0.073077
C27	C	0.993698	-0.302533	0.000082
C28	C	0.951792	-0.407673	-0.072903
C29	C	0.990787	-0.467445	0.000071
C30	C	1.032672	-0.362313	0.073150
C31	C	1.032700	-0.362308	-0.072895
C32	C	1.071711	-0.423298	0.000131
C33	C	0.995372	-0.207530	0.000089
C34	C	0.989119	-0.562446	0.000070
C35	C	1.145813	0.108885	0.000092
C36	C	1.239059	0.110547	0.000094
C37	C	0.986120	0.268577	0.000069
C38	C	0.987782	0.361823	0.000063
N39	N	0.992218	0.115036	0.230758
N40	N	0.992276	0.114973	-0.230598
C41	C	0.932581	0.174636	0.470432
C42	C	1.008481	0.190943	0.529772
C43	C	0.992239	0.115015	0.412365
C44	C	0.916360	0.098727	0.529766
C45	C	0.992253	0.114997	0.587789
C46	C	1.068178	0.131360	0.470398
C47	C	0.976006	0.039111	0.470387
C48	C	1.051962	0.055386	0.529701
C49	C	0.992230	0.115028	0.311307
C50	C	0.992271	0.114984	0.688844
H51	H	0.449461	0.040295	-0.134642
C52	C	0.519481	0.159147	0.232745
C53	C	0.542110	0.201623	0.156364
H54	H	0.536269	0.187637	0.284185
H55	H	0.460059	0.157987	0.233642
H56	H	0.546781	0.103013	0.232214
H57	H	0.514805	0.257756	0.156892
H58	H	0.601543	0.202793	0.155467
C59	C	1.149327	-0.296020	-0.130357
C60	C	1.078865	-0.335133	-0.156211
H61	H	1.177823	-0.279247	-0.181799
H62	H	1.131494	-0.247784	-0.095171
H63	H	1.186458	-0.334512	-0.096579
H64	H	1.041731	-0.296640	-0.189984
H65	H	1.096697	-0.383376	-0.191412
H66	H	0.420779	0.261683	-0.000023
C67	C	0.779396	-0.325565	-0.075524
C68	C	0.822154	-0.301699	0.000154
H69	H	0.723435	-0.297810	-0.075464
H70	H	0.808012	-0.310142	-0.127438
H71	H	0.777732	-0.384930	-0.074985
H72	H	0.823823	-0.242335	-0.000389
H73	H	0.793531	-0.317116	0.052081
H74	H	0.917574	-0.427758	-0.134630
H75	H	0.962240	-0.025051	0.444283
C76	C	0.822356	-0.395748	0.156252
C77	C	0.905554	-0.434815	0.156390
H78	H	0.793832	-0.412508	0.207681
H79	H	0.822632	-0.336210	0.156580
H80	H	0.794176	-0.412044	0.104405
H81	H	0.933736	-0.418514	0.208234
H82	H	0.905283	-0.494366	0.156070
H83	H	0.449470	0.040332	0.134773
H84	H	1.066851	-0.342314	0.134941
C85	C	1.204569	-0.445190	0.076697
C86	C	1.162434	-0.468072	0.000193
H87	H	1.260574	-0.472839	0.076739
H88	H	1.206108	-0.385816	0.077181
H89	H	1.175606	-0.461413	0.128056
H90	H	1.191393	-0.451844	-0.051167
H91	H	1.160899	-0.527460	-0.000299
C92	C	0.881766	0.322177	0.465266
C93	C	0.864546	0.242751	0.435286
H94	H	0.839770	0.364227	0.443561
H95	H	0.881634	0.322971	0.528491
H96	H	0.935568	0.333202	0.444062
H97	H	0.810746	0.231723	0.456496
H98	H	0.864670	0.241954	0.372048
H99	H	0.534918	0.189621	-0.134787
C100	C	1.027593	0.276398	0.658205
C101	C	1.027031	0.277583	0.564998
H102	H	1.039044	0.329885	0.679949
H103	H	0.974098	0.264423	0.679395
H104	H	1.070030	0.234087	0.678482
H105	H	0.984589	0.319889	0.544722
H106	H	1.080533	0.289567	0.543800
H107	H	1.132368	0.145206	0.444430
H108	H	1.102474	0.004956	0.555561
H109	H	0.852184	0.084959	0.555847
H110	H	0.563905	-0.031573	-0.000005
