data_functionalizedCrystal
_audit_creation_method	'MofGen! by Chris Wilmer'
_symmetry_space_group_name_H-M	'P1'
_symmetry_Int_Tables_number	1
_symmetry_cell_setting	triclinic
loop_
_symmetry_equiv_pos_as_xyz
  x,y,z
_cell_length_a	16.959455
_cell_length_b	19.121063
_cell_length_c	19.121278
_cell_angle_alpha	90.135726
_cell_angle_beta	87.574851
_cell_angle_gamma	92.465894
loop_
_atom_site_label
_atom_site_type_symbol
_atom_site_fract_x
_atom_site_fract_y
_atom_site_fract_z
Zn1	Zn	1.176166	-0.262261	0.408274
Zn2	Zn	1.676166	0.237739	0.908274
Zn3	Zn	1.175586	-0.384504	0.296032
Zn4	Zn	1.675586	0.115496	0.796032
Zn5	Zn	1.049376	-0.267277	0.291054
Zn6	Zn	1.549376	0.232723	0.791054
Zn7	Zn	1.038077	-0.379458	0.413230
Zn8	Zn	1.538077	0.120542	0.913230
O9	O	1.109801	-0.323375	0.352147
O10	O	1.609801	0.176625	0.852147
O11	O	1.286699	-0.278489	0.393395
O12	O	1.786699	0.221511	0.893395
O13	O	1.163330	-0.373165	0.197266
O14	O	1.663330	0.126835	0.697266
O15	O	1.071167	-0.168505	0.302446
O16	O	1.571167	0.331495	0.802446
O17	O	1.286272	-0.368300	0.310930
O18	O	1.786272	0.131700	0.810930
O19	O	1.164319	-0.164819	0.388568
O20	O	1.664319	0.335181	0.888568
O21	O	1.070604	-0.287039	0.193609
O22	O	1.570604	0.212961	0.693609
O23	O	0.937268	-0.282146	0.307251
O24	O	1.437268	0.217854	0.807251
O25	O	1.051908	-0.359700	0.510678
O26	O	1.551908	0.140300	1.010678
O27	O	0.928966	-0.364564	0.397014
O28	O	1.428966	0.135436	0.897014
O29	O	1.153362	-0.273596	0.507037
O30	O	1.653362	0.226404	1.007037
O31	O	1.152373	-0.481941	0.315735
O32	O	1.652373	0.018059	0.815735
O33	O	1.051346	-0.478234	0.401840
O34	O	1.551346	0.021766	0.901840
C35	C	0.904437	-0.323352	0.352130
C36	C	1.404437	0.176648	0.852130
C37	C	0.816579	-0.323359	0.352140
C38	C	1.316579	0.176641	0.852140
C39	C	0.449398	-0.280419	0.305500
C40	C	0.949398	0.219581	0.805500
C41	C	0.440802	-0.366387	0.398837
C42	C	0.940802	0.133613	0.898837
C43	C	0.523349	-0.366377	0.398832
C44	C	1.023349	0.133623	0.898832
C45	C	0.568924	-0.323388	0.352160
C46	C	1.068924	0.176612	0.852160
C47	C	0.531953	-0.280409	0.305493
C48	C	1.031953	0.219591	0.805493
C49	C	0.560326	-0.409360	0.445494
C50	C	1.060326	0.090640	0.945494
C51	C	0.642877	-0.409353	0.445491
C52	C	1.142877	0.090647	0.945491
C53	C	0.688454	-0.366360	0.398822
C54	C	1.188454	0.133640	0.898822
C55	C	0.651478	-0.323378	0.352153
C56	C	1.151478	0.176622	0.852153
C57	C	0.697054	-0.280390	0.305480
C58	C	1.197054	0.219610	0.805480
C59	C	0.660079	-0.237404	0.258814
C60	C	1.160079	0.262596	0.758814
C61	C	0.577530	-0.237416	0.258823
C62	C	1.077530	0.262584	0.758823
C63	C	0.771004	-0.366348	0.398813
C64	C	1.271004	0.133652	0.898813
C65	C	0.779608	-0.280380	0.305473
C66	C	1.279608	0.219620	0.805473
C67	C	1.100591	-0.505525	0.359881
C68	C	1.600591	-0.005525	0.859881
C69	C	1.096722	-0.583449	0.363213
C70	C	1.596722	-0.083449	0.863213
C71	C	1.147542	-0.621963	0.319985
C72	C	1.647542	-0.121963	0.819985
C73	C	1.143908	-0.695180	0.323123
C74	C	1.643908	-0.195180	0.823123
C75	C	1.089450	-0.729882	0.369486
C76	C	1.589450	-0.229882	0.869486
C77	C	1.038628	-0.691363	0.412718
C78	C	1.538628	-0.191363	0.912718
C79	C	1.042266	-0.618147	0.409583
C80	C	1.542266	-0.118147	0.909583
C81	C	1.075834	-0.950852	0.381195
C82	C	1.575834	-0.450852	0.881195
C83	C	1.072197	-1.024073	0.384325
C84	C	1.572197	-0.524073	0.884325
C85	C	1.177478	-1.027886	0.294730
C86	C	1.677478	-0.527886	0.794730
C87	C	1.181109	-0.954668	0.291597
C88	C	1.681109	-0.454668	0.791597
C89	C	1.130290	-0.916155	0.334832
C90	C	1.630290	-0.416155	0.834832
C91	C	1.085732	-0.804722	0.372692
C92	C	1.585732	-0.304722	0.872692
C93	C	1.134012	-0.841316	0.331628
C94	C	1.634012	-0.341316	0.831628
C95	C	1.315967	-0.323398	0.352165
C96	C	1.815967	0.176602	0.852165
C97	C	1.403823	-0.323408	0.352172
C98	C	1.903823	0.176592	0.852172
C99	C	1.101439	-0.315525	0.535006
C100	C	1.601439	0.184475	1.035006
C101	C	1.097876	-0.312181	0.612930
C102	C	1.597876	0.187819	1.112930
C103	C	1.119068	-0.140512	0.344399
C104	C	1.619068	0.359488	0.844399
C105	C	1.123017	-0.062587	0.341097
C106	C	1.623017	0.437413	0.841097
C107	C	1.118178	-0.331143	0.169998
C108	C	1.618178	0.168857	0.669998
C109	C	1.121905	-0.334290	0.092066
C110	C	1.621905	0.165710	0.592066
C111	C	1.075304	-0.291020	1.053555
C112	C	1.575304	0.208980	1.553555
C113	C	1.078656	-0.294160	0.980338
C114	C	1.578656	0.205840	1.480338
C115	C	1.128605	-0.340575	0.945632
C116	C	1.628605	0.159425	1.445632
C117	C	1.175210	-0.383847	0.984148
C118	C	1.675210	0.116153	1.484148
C119	C	1.171862	-0.380703	1.057364
C120	C	1.671862	0.119297	1.557364
C121	C	1.141133	-0.352309	0.724662
C122	C	1.641133	0.147691	1.224662
C123	C	1.144476	-0.355451	0.651441
C124	C	1.644476	0.144549	1.151441
C125	C	1.047923	-0.265763	0.647635
C126	C	1.547923	0.234237	1.147635
C127	C	1.044575	-0.262625	0.720853
C128	C	1.544575	0.237375	1.220853
C129	C	1.091184	-0.305895	0.759362
C130	C	1.591184	0.194105	1.259362
C131	C	1.132030	-0.343787	0.870792
C132	C	1.632030	0.156213	1.370792
C133	C	1.087762	-0.302679	0.834201
C134	C	1.587762	0.197321	1.334201
H135	H	0.523213	-0.444365	0.483488
H136	H	1.023213	0.055635	0.983488
H137	H	1.034629	-0.253225	1.081807
H138	H	1.534629	0.246775	1.581807
H139	H	0.403690	-0.401391	0.436832
H140	H	0.903690	0.098609	0.936832
H141	H	1.225453	-0.926415	0.253844
H142	H	1.725453	-0.426415	0.753844
C143	C	1.199809	-0.737543	0.275564
C144	C	1.699809	-0.237543	0.775564
N145	N	1.241915	-0.769450	0.239739
N146	N	1.741915	-0.269450	0.739739
H147	H	1.209811	-0.415937	1.088719
H148	H	1.709811	0.084063	1.588719
C149	C	1.186967	-0.394848	0.832609
C150	C	1.686967	0.105152	1.332609
N151	N	1.228345	-0.433306	0.803847
N152	N	1.728345	0.066694	1.303847
H153	H	0.672975	-0.444354	0.483490
H154	H	1.172975	0.055646	0.983490
H155	H	1.185170	-0.393235	0.623185
H156	H	1.685170	0.106765	1.123185
H157	H	1.027860	-1.052325	0.422091
H158	H	1.527860	-0.552325	0.922091
C159	C	0.811672	-0.413629	0.450142
C160	C	1.311672	0.086371	0.950142
N161	N	0.842303	-0.449242	0.488808
N162	N	1.342303	0.050758	0.988808
H163	H	1.009978	-0.230534	0.616273
H164	H	1.509978	0.269466	1.116273
C165	C	1.019969	-0.908496	0.428791
C166	C	1.519969	-0.408496	0.928791
N167	N	0.977904	-0.876589	0.464656
N168	N	1.477904	-0.376589	0.964656
C169	C	1.032820	-0.251624	0.872379
C170	C	1.532820	0.248376	1.372379
N171	N	0.991435	-0.213171	0.901141
N172	N	1.491435	0.286829	1.401141
C173	C	0.978721	-0.729538	0.463715
C174	C	1.478721	-0.229538	0.963715
N175	N	0.933594	-0.758291	0.502124
N176	N	1.433594	-0.258291	1.002124
C177	C	0.408726	-0.233136	0.254170
C178	C	0.908726	0.266864	0.754170
N179	N	0.378091	-0.197523	0.215508
N180	N	0.878091	0.302477	0.715508
C181	C	0.986361	-0.575782	0.457138
C182	C	1.486361	-0.075782	0.957138
N183	N	0.944254	-0.543873	0.492959
N184	N	1.444254	-0.043873	0.992959
H185	H	1.191884	-0.593714	0.282229
H186	H	1.691884	-0.093714	0.782229
C187	C	1.230155	-0.434904	0.945970
C188	C	1.730155	0.065096	1.445970
N189	N	1.271537	-0.473364	0.917215
N190	N	1.771537	0.026636	1.417215
H191	H	0.816710	-0.245368	0.267470
H192	H	1.316710	0.254632	0.767470
H193	H	1.218853	-1.059251	0.259532
H194	H	1.718853	-0.559251	0.759532
H195	H	0.697197	-0.202406	0.220811
H196	H	1.197197	0.297594	0.720811
C197	C	0.989638	-0.211557	0.759023
C198	C	1.489638	0.288443	1.259023
N199	N	0.948259	-0.173091	0.787772
N200	N	1.448259	0.326909	1.287772
C201	C	0.536851	-0.190139	0.207492
C202	C	1.036851	0.309861	0.707492
N203	N	0.506209	-0.154532	0.168829
N204	N	1.006209	0.345468	0.668829
H205	H	1.178355	-0.813060	0.293882
H206	H	1.678355	-0.313060	0.793882
H207	H	1.179083	-0.387544	0.756008
H208	H	1.679083	0.112456	1.256008
H209	H	1.040708	-0.258925	0.948985
H210	H	1.540708	0.241075	1.448985
H211	H	1.041391	-0.832985	0.410440
H212	H	1.541391	-0.332985	0.910440
