data_functionalizedCrystal
_audit_creation_method	'MofGen! by Chris Wilmer'
_symmetry_space_group_name_H-M	'P1'
_symmetry_Int_Tables_number	1
_symmetry_cell_setting	triclinic
loop_
_symmetry_equiv_pos_as_xyz
  x,y,z
_cell_length_a	18.101390
_cell_length_b	13.032831
_cell_length_c	13.032721
_cell_angle_alpha	90.902885
_cell_angle_beta	82.850174
_cell_angle_gamma	97.191093
loop_
_atom_site_label
_atom_site_type_symbol
_atom_site_fract_x
_atom_site_fract_y
_atom_site_fract_z
Zn1	Zn	-0.610143	-1.520256	0.609348
Zn2	Zn	-0.499805	-1.498296	0.781331
Zn3	Zn	-0.468901	-1.348271	0.587522
Zn4	Zn	-0.606189	-1.326404	0.759395
O5	O	-0.546259	-1.423307	0.684399
O6	O	-0.610095	-1.661257	0.650477
O7	O	-0.392073	-1.478356	0.755668
O8	O	-0.476358	-1.389427	0.446513
O9	O	-0.529030	-1.645122	0.776832
O10	O	-0.580128	-1.515784	0.462548
O11	O	-0.369368	-1.368133	0.613278
O12	O	-0.472524	-1.201457	0.592007
O13	O	-0.710346	-1.352158	0.739445
O14	O	-0.573389	-1.185392	0.718282
O15	O	-0.713251	-1.494581	0.629206
O16	O	-0.525196	-1.457152	0.922327
O17	O	-0.603356	-1.330864	0.906210
C18	C	-0.567219	-1.389280	0.951585
C19	C	-0.576220	-1.374818	1.065900
C20	C	-0.519175	-1.156109	0.650396
C21	C	-0.507607	-1.041797	0.635875
C22	C	-0.739420	-1.423380	0.684313
C23	C	-0.821734	-1.423411	0.684277
C24	C	-1.120826	-1.423475	0.684219
C25	C	-1.091377	-1.513309	0.615173
C26	C	-1.005710	-1.513098	0.614847
C27	C	-0.972443	-1.423444	0.684248
C28	C	-0.990229	-1.318837	0.641023
C29	C	-1.075876	-1.319390	0.640491
C30	C	-1.100587	-1.437267	0.796573
C31	C	-1.015135	-1.439716	0.796320
C32	C	-0.888583	-1.423420	0.684265
C33	C	-1.204685	-1.423492	0.684199
C34	C	-0.353850	-1.423303	0.684418
C35	C	-0.271535	-1.423508	0.684191
C36	C	-0.573450	-1.691548	0.718536
C37	C	-0.585038	-1.805856	0.733083
C38	C	-0.552297	-0.982900	0.691979
C39	C	-0.540342	-0.864752	0.676971
C40	C	-0.525237	-1.457494	0.416174
C41	C	-0.516278	-1.472063	0.301872
C42	C	-0.541601	-1.430910	1.124812
C43	C	-0.550903	-1.415963	1.242962
H44	H	-0.994288	-1.591097	0.643505
H45	H	-0.460499	-1.004755	0.576727
H46	H	-0.587434	-1.356875	1.279992
H47	H	-1.004645	-1.516629	0.828664
H48	H	-0.993146	-1.377940	0.851642
H49	H	-0.505078	-1.490002	1.087781
H50	H	-1.132200	-1.511484	0.833256
C51	C	-0.466926	-1.551893	1.251864
C52	C	-0.398476	-1.516641	1.172420
C53	C	-0.349124	-1.596469	1.122412
C54	C	-0.368220	-1.711547	1.151848
C55	C	-0.436673	-1.746804	1.231296
C56	C	-0.486026	-1.666977	1.281303
H57	H	-0.384337	-1.431448	1.150626
H58	H	-0.298450	-1.570368	1.063600
H59	H	-0.331687	-1.770640	1.114829
H60	H	-0.450813	-1.831998	1.253089
H61	H	-0.536699	-1.693078	1.340116
H62	H	-0.493231	-0.827714	0.617819
C63	C	-0.625567	-1.294990	1.115918
C64	C	-0.606467	-1.179911	1.086486
C65	C	-0.655814	-1.100081	1.136501
C66	C	-0.724262	-1.135331	1.215948
C67	C	-0.743365	-1.250416	1.245385
C68	C	-0.694017	-1.330245	1.195370
H69	H	-0.555795	-1.153812	1.027670
H70	H	-0.641673	-1.014888	1.114709
H71	H	-0.760792	-1.076236	1.252972
H72	H	-0.794037	-1.276514	1.304200
H73	H	-0.708159	-1.415439	1.217161
C74	C	-1.132175	-1.619080	0.653607
C75	C	-1.192733	-1.625181	0.748158
C76	C	-1.233539	-1.730955	0.786592
C77	C	-1.213788	-1.830628	0.730476
C78	C	-1.153227	-1.824531	0.635920
C79	C	-1.112421	-1.718757	0.597486
H80	H	-1.207357	-1.551394	0.789703
H81	H	-1.278370	-1.735468	0.856589
H82	H	-1.243995	-1.908928	0.758928
H83	H	-1.138604	-1.898318	0.594375
H84	H	-1.067590	-1.714244	0.527489
H85	H	-1.119590	-1.371673	0.848190
H86	H	-0.977050	-1.505057	0.531891
C87	C	-1.109529	-1.502728	0.503764
C88	C	-1.150936	-1.412938	0.475291
C89	C	-1.169111	-1.402373	0.363891
C90	C	-1.145879	-1.481597	0.280964
C91	C	-1.104470	-1.571392	0.309434
C92	C	-1.086295	-1.581958	0.420835
H93	H	-1.168136	-1.354286	0.536681
H94	H	-1.199765	-1.335899	0.342816
H95	H	-1.159334	-1.473775	0.198499
H96	H	-1.087270	-1.630044	0.248045
H97	H	-1.055641	-1.648431	0.441910
C98	C	-0.615943	-1.032928	0.771882
C99	C	-0.698025	-1.019359	0.761788
C100	C	-0.761673	-1.069383	0.841694
C101	C	-0.743238	-1.132977	0.931694
C102	C	-0.661152	-1.146550	0.941792
C103	C	-0.597504	-1.096525	0.861886
H104	H	-0.711675	-0.972281	0.695161
H105	H	-0.822439	-1.059336	0.834218
H106	H	-0.790354	-1.170008	0.990845
H107	H	-0.647502	-1.193628	1.008419
H108	H	-0.536738	-1.106573	0.869361
C109	C	-0.648687	-0.855878	0.812992
C110	C	-0.630252	-0.919470	0.902993
C111	C	-0.693900	-0.969491	0.982901
C112	C	-0.775983	-0.955920	0.972808
C113	C	-0.794421	-0.892325	0.882803
C114	C	-0.730773	-0.842304	0.802895
H115	H	-0.569487	-0.929519	0.910468
H116	H	-0.680251	-1.016568	1.049529
H117	H	-0.823099	-0.992948	1.031961
H118	H	-0.855187	-0.882276	0.875328
H119	H	-0.744423	-0.795227	0.736267
H120	H	-1.087244	-1.306085	0.557951
H121	H	-1.094694	-1.250920	0.687845
H122	H	-0.968060	-1.250683	0.689163
H123	H	-0.960195	-1.304994	0.559314
