data_functionalizedCrystal
_audit_creation_method	'MofGen! by Chris Wilmer'
_symmetry_space_group_name_H-M	'P1'
_symmetry_Int_Tables_number	1
_symmetry_cell_setting	triclinic
loop_
_symmetry_equiv_pos_as_xyz
  x,y,z
_cell_length_a	8.497366
_cell_length_b	17.077404
_cell_length_c	17.077402
_cell_angle_alpha	89.981731
_cell_angle_beta	90.053994
_cell_angle_gamma	89.965385
loop_
_atom_site_label
_atom_site_type_symbol
_atom_site_fract_x
_atom_site_fract_y
_atom_site_fract_z
Zn1	Zn	-0.892001	1.200170	0.312417
Zn2	Zn	-0.628186	1.200043	0.443748
Zn3	Zn	-0.628219	1.068867	0.312489
Zn4	Zn	-0.891908	1.068869	0.443634
O5	O	-0.760078	1.134487	0.378072
O6	O	-0.857030	1.310000	0.329856
O7	O	-0.407427	1.182588	0.426413
O8	O	-0.663262	1.086337	0.202633
O9	O	-0.663206	1.309906	0.426344
O10	O	-0.857062	1.182804	0.202580
O11	O	-0.407451	1.086214	0.329978
O12	O	-0.663173	0.959021	0.329869
O13	O	-1.112683	1.086341	0.426151
O14	O	-0.856904	0.959022	0.426220
O15	O	-1.112751	1.182806	0.329746
O16	O	-0.663117	1.182590	0.553579
O17	O	-0.856873	1.086218	0.553496
C18	C	-0.760033	0.930539	0.378041
C19	C	-0.760051	0.843290	0.378046
C20	C	-0.860841	0.467497	0.428355
C21	C	-0.860817	0.549477	0.428345
C22	C	-0.760104	0.590441	0.378093
C23	C	-0.659396	0.549420	0.327854
C24	C	-0.659413	0.467441	0.327869
C25	C	-0.659370	0.720290	0.327825
C26	C	-0.659354	0.802274	0.327809
C27	C	-0.860774	0.802326	0.428301
C28	C	-0.860791	0.720347	0.428316
C29	C	-0.760085	0.679332	0.378076
C30	C	-0.760015	1.134412	0.582020
C31	C	-0.760041	1.134451	0.669270
C32	C	-0.171559	1.134533	0.378000
C33	C	-0.350202	1.134429	0.378165
C34	C	-0.760125	1.339232	0.378104
C35	C	-0.760145	1.426481	0.378118
C36	C	-0.760176	1.134585	0.173328
C37	C	-0.760218	1.134626	0.086078
C38	C	-0.659261	1.184683	0.710277
C39	C	-0.659301	1.184722	0.792258
C40	C	-0.760115	1.134523	0.833229
C41	C	-0.860906	1.084289	0.792216
C42	C	-0.860873	1.084255	0.710237
C43	C	-0.860966	1.084361	0.963086
C44	C	-0.860998	1.084394	1.045071
C45	C	-0.659394	1.184828	1.045106
C46	C	-0.659361	1.184794	0.963127
C47	C	-0.760151	1.134559	0.922120
H48	H	-0.577360	0.835625	0.286882
H49	H	-0.577386	0.582779	0.286941
C50	C	-0.971807	1.029072	0.837284
C51	C	-0.903359	0.967476	0.893725
C52	C	-1.014260	0.912257	0.938793
C53	C	-1.193609	0.918634	0.927418
C54	C	-1.262067	0.980232	0.870974
C55	C	-1.151166	1.035451	0.825907
H56	H	-0.770585	0.962753	0.902148
H57	H	-0.963581	0.866658	0.980576
H58	H	-1.275705	0.877757	0.960779
H59	H	-1.394840	0.984955	0.862552
H60	H	-1.201844	1.081050	0.784124
H61	H	-0.577420	0.434047	0.286958
H62	H	-0.943046	1.043456	0.929700
C63	C	-0.971629	0.422440	0.483634
C64	C	-1.082385	0.467560	0.538897
C65	C	-1.193172	0.422506	0.594181
C66	C	-1.193202	0.332333	0.594200
C67	C	-1.082442	0.287208	0.538935
C68	C	-0.971655	0.332261	0.483652
H69	H	-1.082366	0.534317	0.538885
H70	H	-1.275164	0.455911	0.635092
H71	H	-1.275213	0.298981	0.635124
H72	H	-1.082461	0.220451	0.538948
H73	H	-0.889663	0.298857	0.442741
H74	H	-0.942941	1.043351	0.676850
C75	C	-0.548602	0.675168	0.272559
C76	C	-0.617218	0.618841	0.210977
C77	C	-0.506464	0.573717	0.155710
C78	C	-0.327094	0.584920	0.162025
C79	C	-0.258469	0.641248	0.223609
C80	C	-0.369223	0.686373	0.278877
H81	H	-0.750007	0.610547	0.206300
H82	H	-0.557266	0.532019	0.110120
H83	H	-0.245107	0.551516	0.121112
H84	H	-0.125680	0.649543	0.228286
H85	H	-0.318421	0.728071	0.324466
H86	H	-0.577263	1.225666	0.929769
H87	H	-0.577234	1.225625	0.825642
C88	C	-0.971596	0.594590	0.483604
C89	C	-0.958415	0.583293	0.572836
C90	C	-1.069201	0.628404	0.628099
C91	C	-1.193167	0.684813	0.594129
C92	C	-1.206353	0.696112	0.504891
C93	C	-1.095568	0.651001	0.449629
H94	H	-0.866644	0.541534	0.597987
H95	H	-1.059439	0.620040	0.694158
H96	H	-1.275177	0.718207	0.635037
H97	H	-1.298125	0.737871	0.479740
H98	H	-1.105329	0.659366	0.383569
C99	C	-0.548364	1.239904	0.665212
C100	C	-0.424416	1.205890	0.608950
C101	C	-0.313520	1.261115	0.563886
C102	C	-0.326574	1.350354	0.575085
C103	C	-0.450527	1.384373	0.631349
C104	C	-0.561422	1.329148	0.676413
H105	H	-0.414748	1.139826	0.600658
H106	H	-0.221762	1.235931	0.522236
H107	H	-0.244482	1.391235	0.541726
H108	H	-0.460194	1.450437	0.639641
H109	H	-0.653181	1.354331	0.718063
H110	H	-0.577333	1.225735	1.078499
H111	H	-0.943119	1.043532	1.078427
H112	H	-0.942808	0.686997	0.469232
C113	C	-0.971546	0.847436	0.483573
C114	C	-0.902951	0.903755	0.545168
C115	C	-1.013724	0.948868	0.600435
C116	C	-1.193092	0.937662	0.594107
C117	C	-1.261695	0.881341	0.532509
C118	C	-1.150922	0.836228	0.477242
H119	H	-0.770164	0.912052	0.549855
H120	H	-0.962938	0.990561	0.646034
H121	H	-1.275092	0.971057	0.635019
H122	H	-1.394482	0.873044	0.527823
H123	H	-1.201708	0.794535	0.431643
