data_functionalizedCrystal
_audit_creation_method	'MofGen! by Chris Wilmer'
_symmetry_space_group_name_H-M	'P1'
_symmetry_Int_Tables_number	1
_symmetry_cell_setting	triclinic
loop_
_symmetry_equiv_pos_as_xyz
  x,y,z
_cell_length_a	13.635800
_cell_length_b	18.591511
_cell_length_c	12.908943
_cell_angle_alpha	105.340673
_cell_angle_beta	100.860631
_cell_angle_gamma	123.621742
loop_
_atom_site_label
_atom_site_type_symbol
_atom_site_fract_x
_atom_site_fract_y
_atom_site_fract_z
V1	V	2.073964	0.131253	0.379685
O2	O	1.987799	-0.007537	0.319496
O3	O	2.125066	0.261435	0.428023
O4	O	2.041624	0.128695	0.522040
O5	O	2.071818	0.126123	0.224829
V6	V	2.307076	0.114716	0.354975
O7	O	2.223568	0.167529	0.433887
O8	O	2.382571	0.078440	0.300773
O9	O	2.144372	-0.015466	0.306636
O10	O	2.451940	0.253506	0.415163
O11	O	2.367921	0.119846	0.509831
O12	O	2.227813	0.117274	0.212620
V13	V	2.573964	0.131253	0.379685
O14	O	2.487799	-0.007537	0.319496
O15	O	2.625066	0.261435	0.428023
O16	O	2.541624	0.128695	0.522040
O17	O	2.571818	0.126123	0.224829
V18	V	2.807076	0.114716	0.354975
O19	O	2.723568	0.167529	0.433887
O20	O	2.882571	0.078440	0.300773
O21	O	2.644372	-0.015466	0.306636
O22	O	2.951940	0.253506	0.415163
O23	O	2.867921	0.119846	0.509831
O24	O	2.727813	0.117274	0.212620
C25	C	2.066148	0.293188	0.435177
C26	C	2.148518	0.399610	0.475648
C27	C	2.534963	-0.047214	0.299482
C28	C	2.442212	-0.153635	0.259018
C29	C	2.302787	0.683061	0.100240
C30	C	2.380192	0.783065	0.138304
C31	C	2.426841	0.809677	0.341715
C32	C	2.349433	0.709673	0.303667
C33	C	2.287413	0.646372	0.182928
C34	C	2.334059	0.672984	0.386355
C35	C	2.256663	0.572989	0.348311
C36	C	2.194643	0.509682	0.227577
C37	C	2.210018	0.546377	0.144883
C38	C	2.396087	0.736287	0.507094
C39	C	2.380713	0.699598	0.589783
C40	C	2.303309	0.599601	0.551738
C41	C	2.241288	0.536294	0.431005
C42	C	2.287934	0.562906	0.634432
C43	C	2.210539	0.462911	0.596387
C44	C	2.163893	0.436299	0.392960
C45	C	1.959709	0.123863	0.555103
C46	C	1.974407	0.122632	0.671813
C47	C	2.034963	-0.047214	0.299482
C48	C	1.942212	-0.153635	0.259018
C49	C	2.141401	0.122110	0.179553
C50	C	2.116319	0.123335	0.062839
C51	C	2.566148	0.293188	0.435177
C52	C	2.648518	0.399610	0.475648
C53	C	2.189148	0.129820	0.905553
C54	C	2.202963	0.128664	1.015214
C55	C	2.015850	0.119158	1.000794
C56	C	2.002034	0.120314	0.891133
C57	C	2.088688	0.125646	0.843518
C58	C	2.074877	0.126809	0.733859
C59	C	1.887760	0.117296	0.719437
C60	C	1.901575	0.116141	0.829098
C61	C	2.459709	0.123863	0.555103
C62	C	2.474407	0.122632	0.671813
C63	C	2.641401	0.122110	0.179553
C64	C	2.616319	0.123335	0.062839
C65	C	1.982393	-0.208473	0.232859
C66	C	1.895251	-0.308471	0.194820
C67	C	1.767931	-0.353626	0.182948
C68	C	1.727749	-0.298781	0.209107
C69	C	1.814888	-0.198787	0.247138
C70	C	2.780832	0.454449	0.501810
C71	C	2.858246	0.554447	0.539855
C72	C	2.803342	0.599603	0.551729
C73	C	2.671017	0.544757	0.525567
C74	C	2.593607	0.444762	0.487531
C75	C	2.551358	0.209673	0.775733
C76	C	2.565195	0.208532	0.885404
C77	C	2.502072	0.120348	0.891153
C78	C	2.425119	0.033301	0.787222
C79	C	2.411290	0.034443	0.677554
C80	C	2.684302	0.211530	0.057126
C81	C	2.660736	0.212697	-0.052530
C82	C	2.569193	0.125668	-0.156471
C83	C	2.501203	0.037466	-0.150754
C84	C	2.524763	0.036300	-0.041099
H85	H	2.113374	0.384754	0.294641
C86	C	2.619621	0.305437	0.769559
C87	C	2.576818	0.353428	0.819040
C88	C	2.639607	0.441636	0.813347
H89	H	2.600321	0.293719	0.689391
H90	H	2.710556	0.344446	0.812324
H91	H	2.485903	0.314428	0.776273
H92	H	2.596118	0.365171	0.899211
H93	H	2.730543	0.480645	0.856112
H94	H	2.620303	0.429909	0.733176
H95	H	2.610583	0.474214	0.846927
H96	H	2.626329	0.581538	0.535240
C97	C	2.887389	0.708197	0.593247
C98	C	2.884052	0.751223	0.697955
C99	C	2.961480	0.851259	0.736242
H100	H	2.855496	0.720643	0.534263
H101	H	2.974083	0.734428	0.607197
H102	H	2.797375	0.725002	0.683999
H103	H	2.915955	0.738806	0.756963
H104	H	3.048174	0.877490	0.750192
H105	H	2.929580	0.863695	0.677250
H106	H	2.959235	0.880466	0.807295
C107	C	2.120600	-0.159359	0.245611
C108	C	2.144321	-0.114788	0.171046
C109	C	2.271625	-0.069532	0.182763
H110	H	2.132186	-0.206254	0.224553
H111	H	2.179284	-0.111982	0.325204
H112	H	2.085655	-0.162159	0.091471
H113	H	2.132763	-0.067879	0.192089
H114	H	2.330309	-0.022155	0.262356
H115	H	2.283199	-0.116433	0.161705
H116	H	2.287740	-0.039277	0.132181
H117	H	2.477351	0.861230	0.440021
H118	H	2.431224	0.751151	0.688089
C119	C	2.356540	-0.062533	0.793234
C120	C	2.286209	-0.138527	0.678759
C121	C	2.223031	-0.226821	0.684255
H122	H	2.299084	-0.069794	0.829295
H123	H	2.418858	-0.063622	0.838542
H124	H	2.223898	-0.137440	0.633468
H125	H	2.343634	-0.131299	0.642677
H126	H	2.285349	-0.227910	0.729563
H127	H	2.165582	-0.234072	0.720320
H128	H	2.175314	-0.278393	0.606587
H129	H	1.624075	-0.335562	0.199435
H130	H	2.965987	0.599089	0.561149
C131	C	1.673123	-0.462189	0.141626
C132	C	1.553007	-0.490011	0.136799
C133	C	1.465642	-0.590012	0.098726
H134	H	1.705332	-0.478188	0.195401
H135	H	1.663111	-0.495154	0.065280
H136	H	1.563021	-0.457057	0.213134
H137	H	1.520759	-0.474037	0.083020
H138	H	1.455631	-0.622977	0.022380
H139	H	1.497864	-0.606001	0.152506
H140	H	1.384131	-0.608903	0.095436
C141	C	2.327612	-0.059999	0.564620
C142	C	2.227298	-0.068944	0.491974
C143	C	2.150199	-0.155930	0.387926
H144	H	2.291869	-0.112761	0.583587
H145	H	2.379107	-0.060167	0.524339
H146	H	2.175811	-0.068785	0.532248
H147	H	2.263004	-0.016204	0.472975
H148	H	2.201694	-0.156098	0.347645
H149	H	2.114465	-0.208684	0.406905
H150	H	2.082134	-0.162006	0.338618
H151	H	2.485868	0.400118	0.466226
C152	C	2.783511	0.305965	0.170072
C153	C	2.722611	0.314893	0.242717
C154	C	2.813962	0.401873	0.346773
H155	H	2.820662	0.358732	0.151115
H156	H	2.849634	0.306135	0.210349
H157	H	2.656511	0.314732	0.202448
H158	H	2.685466	0.262147	0.261706
H159	H	2.880085	0.402043	0.387050
H160	H	2.851107	0.454633	0.327805
H161	H	2.772657	0.407938	0.396080
C162	C	2.450873	-0.059564	-0.035158
C163	C	2.365695	-0.135523	-0.149663
C164	C	2.297613	-0.223852	-0.144247
H165	H	2.403019	-0.060771	0.010116
H166	H	2.510331	-0.066755	0.000900
H167	H	2.306245	-0.128334	-0.185705
H168	H	2.413515	-0.134347	-0.194957
H169	H	2.357071	-0.231043	-0.108189
H170	H	2.249767	-0.225049	-0.098969
H171	H	2.239821	-0.275401	-0.221937
C172	C	2.480229	0.844889	0.548643
C173	C	2.531290	0.892474	0.672079
C174	C	2.608823	0.992518	0.710396
H175	H	2.429361	0.859624	0.515241
H176	H	2.549075	0.865743	0.524320
H177	H	2.462455	0.871628	0.696390
H178	H	2.582179	0.877769	0.705511
H179	H	2.677668	1.013372	0.686073
H180	H	2.557946	1.007243	0.676986
H181	H	2.643487	1.024818	0.794150
H182	H	1.782157	-0.154143	0.268444
C183	C	2.734746	0.308560	-0.058477
C184	C	2.819989	0.384517	0.056021
C185	C	2.888200	0.472838	0.050591
H186	H	2.675409	0.315846	-0.094514
H187	H	2.782554	0.309666	-0.103782
H188	H	2.772185	0.383413	0.101308
H189	H	2.879352	0.377263	0.092078
H190	H	2.936008	0.473943	0.005287
H191	H	2.828854	0.480114	0.014551
H192	H	2.946054	0.524385	0.128274
C193	C	2.840716	0.405622	0.489053
C194	C	2.973168	0.475071	0.520144
C195	C	3.028390	0.430138	0.508428
H196	H	2.799644	0.358307	0.409472
H197	H	2.829417	0.375360	0.539620
H198	H	2.984457	0.505318	0.469579
H199	H	3.014274	0.522390	0.599724
H200	H	3.017091	0.399876	0.558995
H201	H	2.987308	0.382824	0.428846
H202	H	3.118266	0.477253	0.529532
H203	H	2.131628	0.428260	0.196603
H204	H	2.159499	0.494832	0.046564
H205	H	2.252269	0.631516	0.001921
H206	H	2.627855	0.279419	0.970016
H207	H	2.392701	0.812931	0.070959
C208	C	1.939163	-0.367827	0.166548
C209	C	2.069328	-0.306866	0.185132
C210	C	2.109831	-0.361505	0.159118
H211	H	1.887649	-0.415564	0.086349
H212	H	1.929875	-0.398497	0.216514
H213	H	2.078605	-0.276212	0.135166
H214	H	2.120873	-0.259129	0.265324
H215	H	2.100543	-0.392174	0.209084
H216	H	2.058309	-0.409240	0.078920
H217	H	2.198155	-0.320150	0.171734
H218	H	2.513338	0.119431	0.980459
H219	H	2.550020	0.126631	-0.245752
H220	H	2.338452	0.614461	0.732738
H221	H	2.198037	0.433040	0.663722
H222	H	2.259713	0.134172	0.866790
C223	C	2.169045	0.132551	0.682328
C224	C	2.259958	0.135931	0.760117
C225	C	2.346715	0.141205	0.712682
H226	H	2.212491	0.189241	0.671260
H227	H	2.122776	0.077131	0.608451
H228	H	2.306222	0.191345	0.833973
H229	H	2.216549	0.079247	0.771192
H230	H	2.300446	0.085785	0.638805
H231	H	2.390152	0.197895	0.701616
H232	H	2.408402	0.143490	0.765449
C233	C	2.312099	0.133347	1.082787
C234	C	2.391581	0.215638	1.192518
C235	C	2.492122	0.219976	1.254805
H236	H	2.361868	0.136741	1.038877
H237	H	2.276609	0.077075	1.094533
H238	H	2.427069	0.271896	1.180768
H239	H	2.341850	0.212263	1.236458
H240	H	2.456633	0.163704	1.266551
H241	H	2.541880	0.223367	1.210885
H242	H	2.546056	0.275805	1.329268
C243	C	1.921750	0.113215	1.052561
C244	C	1.858142	0.029593	1.068773
C245	C	1.771462	0.024092	1.116475
H246	H	1.859823	0.110839	1.000001
H247	H	1.968037	0.168582	1.126500
H248	H	1.811857	-0.025760	0.994845
H249	H	1.920036	0.031950	1.121340
H250	H	1.817749	0.079458	1.190414
H251	H	1.709543	0.021719	1.063910
H252	H	1.728302	-0.032641	1.127491
H253	H	1.831025	0.111796	0.867880
H254	H	1.805960	0.113902	0.668918
H255	H	2.426669	-0.033390	-0.235398
