data_functionalizedCrystal
_audit_creation_method	'MofGen! by Chris Wilmer'
_symmetry_space_group_name_H-M	'P1'
_symmetry_Int_Tables_number	1
_symmetry_cell_setting	triclinic
loop_
_symmetry_equiv_pos_as_xyz
  x,y,z
_cell_length_a	10.540535
_cell_length_b	19.188924
_cell_length_c	9.016244
_cell_angle_alpha	90.008826
_cell_angle_beta	89.999975
_cell_angle_gamma	83.832803
loop_
_atom_site_label
_atom_site_type_symbol
_atom_site_fract_x
_atom_site_fract_y
_atom_site_fract_z
O1	O	1.683714	0.098379	0.123267
O2	O	1.314096	0.107653	0.123288
O3	O	1.509576	0.001431	0.123259
O4	O	1.488234	0.204601	0.123296
O5	O	1.509568	0.001423	-0.123421
O6	O	1.314088	0.107645	-0.123392
O7	O	1.683706	0.098371	-0.123414
Cu8	Cu	1.498896	0.103007	-0.145927
Cu9	Cu	1.498906	0.103016	0.145801
O10	O	1.488226	0.204593	-0.123385
C11	C	1.266804	0.106954	-0.000050
C12	C	1.125901	0.104875	-0.000042
C13	C	1.090943	0.027320	-0.000062
C14	C	0.944391	0.025133	-0.000637
C15	C	0.915779	0.140273	-0.140646
C16	C	1.062508	0.141923	-0.140749
C17	C	1.062376	0.143061	0.139783
C18	C	0.916109	0.139474	0.141616
C19	C	1.508882	-0.024589	-0.000082
C20	C	1.506812	-0.102107	-0.000086
C21	C	1.505850	-0.138508	0.134380
C22	C	1.503887	-0.211344	0.134391
C23	C	1.502911	-0.247778	-0.000071
C24	C	1.503866	-0.211368	-0.134555
C25	C	1.505816	-0.138532	-0.134562
N26	N	1.572078	-0.366984	-0.100152
N27	N	1.570228	-0.436174	-0.100136
C28	C	1.497031	-0.467226	-0.000056
N29	N	1.425771	-0.426474	0.100029
N30	N	1.427627	-0.357278	0.100017
C31	C	1.500795	-0.326755	-0.000078
C32	C	1.493939	-0.582604	0.134431
C33	C	1.491968	-0.655440	0.134437
C34	C	1.491959	-0.655463	-0.134513
C35	C	1.493918	-0.582627	-0.134515
C36	C	1.494914	-0.546202	-0.000039
C37	C	1.730998	0.099070	-0.000073
C38	C	1.871900	0.101148	-0.000071
C39	C	1.488920	0.230612	-0.000040
C40	C	1.490990	0.308131	-0.000027
N41	N	1.498899	0.103000	-0.351113
C42	C	1.603849	0.046374	-0.586115
C43	C	1.603574	0.046158	-0.414224
C44	C	1.366559	0.086430	-0.413534
C45	C	1.367184	0.086032	-0.585479
C46	C	1.525121	0.176393	-0.585606
C47	C	1.528126	0.175914	-0.413650
N48	N	1.498913	0.103018	0.350988
H49	H	0.867187	0.196242	-0.145468
H50	H	0.915732	-0.005466	0.100113
H51	H	1.286606	0.126558	-0.372655
H52	H	1.701961	0.056123	-0.372020
H53	H	1.503096	-0.240987	0.243893
F54	F	1.262082	0.137860	-0.639869
H55	H	0.885466	0.113424	-0.245676
F56	F	1.336912	0.016062	-0.637934
F57	F	1.506903	-0.099746	0.277502
H58	H	1.491178	-0.685077	0.243940
H59	H	1.494712	-0.552990	-0.244012
F60	F	1.148582	-0.010961	-0.131647
F61	F	1.582340	-0.024379	-0.642616
F62	F	1.732888	0.059205	-0.640142
H63	H	1.586871	-0.008283	-0.373114
H64	H	1.342816	0.033501	-0.370493
F65	F	1.490914	-0.694234	-0.277619
H66	H	1.619539	0.192158	-0.628962
F67	F	1.502819	-0.250143	-0.277659
F68	F	1.115777	0.107379	-0.278638
H69	H	1.506594	-0.108895	-0.244064
F70	F	1.655366	0.192334	-0.360315
H71	H	1.494742	-0.552945	0.243930
H72	H	1.456615	0.220089	-0.370686
H73	H	1.448594	0.218554	-0.626287
H74	H	0.865836	0.194953	0.150551
H75	H	0.916607	-0.005322	-0.102013
F76	F	1.146662	-0.011605	0.131685
H77	H	1.084283	0.198777	-0.146746
F78	F	1.118573	0.111433	0.279104
H79	H	0.888139	0.111002	0.245616
H80	H	1.083301	0.200122	0.141153
