data_functionalizedCrystal
_audit_creation_method	'MofGen! by Chris Wilmer'
_symmetry_space_group_name_H-M	'P1'
_symmetry_Int_Tables_number	1
_symmetry_cell_setting	triclinic
loop_
_symmetry_equiv_pos_as_xyz
  x,y,z
_cell_length_a	17.699083
_cell_length_b	17.666332
_cell_length_c	17.699083
_cell_angle_alpha	90.007371
_cell_angle_beta	96.716985
_cell_angle_gamma	89.997106
loop_
_atom_site_label
_atom_site_type_symbol
_atom_site_fract_x
_atom_site_fract_y
_atom_site_fract_z
O1	O	-1.004081	0.062836	0.095712
O2	O	-0.504081	0.562836	0.595712
O3	O	-0.783703	0.062863	0.108165
O4	O	-0.283703	0.562863	0.608165
O5	O	-0.900118	0.062842	-0.008250
O6	O	-0.400118	0.562842	0.491750
O7	O	-0.887666	0.062857	0.212128
O8	O	-0.387666	0.562857	0.712128
O9	O	-0.900098	-0.063055	-0.008257
O10	O	-0.400098	0.436945	0.491743
O11	O	-0.783682	-0.063034	0.108159
O12	O	-0.283682	0.436966	0.608159
O13	O	-1.004061	-0.063061	0.095706
O14	O	-0.504061	0.436939	0.595706
Cu15	Cu	-0.893870	-0.074543	0.101932
Cu16	Cu	-0.393870	0.425457	0.601932
Cu17	Cu	-0.893894	0.074345	0.101939
Cu18	Cu	-0.393894	0.574345	0.601939
O19	O	-0.887645	-0.063040	0.212122
O20	O	-0.387645	0.436960	0.712122
C21	C	-0.755495	-0.000082	0.107716
C22	C	-0.255495	0.499918	0.607716
C23	C	-0.671477	-0.000072	0.106377
C24	C	-0.171477	0.499928	0.606377
C25	C	-0.622856	-0.000068	0.174710
C26	C	-0.122856	0.499932	0.674710
C27	C	-0.543913	-0.000077	0.173448
C28	C	-0.043913	0.499923	0.673448
C29	C	-0.513592	-0.000085	0.103852
C30	C	-0.013592	0.499915	0.603852
C31	C	-0.562219	-0.000092	0.035513
C32	C	-0.062219	0.499908	0.535513
C33	C	-0.641161	-0.000089	0.036776
C34	C	-0.141161	0.499911	0.536776
C35	C	-0.243856	-0.000109	0.030418
C36	C	0.256144	0.499891	0.530418
C37	C	-0.164908	-0.000111	0.029160
C38	C	0.335092	0.499889	0.529160
C39	C	-0.146608	-0.000097	0.167090
C40	C	0.353392	0.499903	0.667090
C41	C	-0.225550	-0.000093	0.168353
C42	C	0.274450	0.499907	0.668353
C43	C	-0.274170	-0.000104	0.100015
C44	C	0.225830	0.499896	0.600015
C45	C	-0.359769	-0.000096	0.101384
C46	C	0.140231	0.499904	0.601384
C47	C	-0.427995	-0.000089	0.102481
C48	C	0.072005	0.499911	0.602481
N49	N	-0.893858	-0.179262	0.101926
N50	N	-0.393858	0.320738	0.601926
C51	C	-0.945424	-0.218881	0.050403
C52	C	-0.445424	0.281119	0.550403
C53	C	-0.945428	-0.298129	0.050399
C54	C	-0.445428	0.201871	0.550399
C55	C	-0.893874	-0.337754	0.101932
C56	C	-0.393874	0.162246	0.601932
C57	C	-0.842299	-0.298126	0.153460
C58	C	-0.342299	0.201874	0.653460
C59	C	-0.842291	-0.218880	0.153457
C60	C	-0.342291	0.281120	0.653457
N61	N	-0.884117	-0.462168	0.168921
N62	N	-0.384117	0.037832	0.668921
N63	N	-0.884129	-0.537448	0.168921
N64	N	-0.384129	-0.037448	0.668921
C65	C	-0.893894	-0.576518	0.101943
C66	C	-0.393894	-0.076518	0.601943
N67	N	-0.903662	-0.537464	0.034962
N68	N	-0.403662	-0.037464	0.534962
N69	N	-0.903653	-0.462177	0.034962
N70	N	-0.403653	0.037823	0.534962
C71	C	-0.893877	-0.423683	0.101941
C72	C	-0.393877	0.076317	0.601941
C73	C	-0.945467	-0.702066	0.050411
C74	C	-0.445467	-0.202066	0.550411
C75	C	-0.945466	-0.781316	0.050406
C76	C	-0.445466	-0.281316	0.550406
C77	C	-0.842341	-0.781311	0.153473
C78	C	-0.342341	-0.281311	0.653473
C79	C	-0.842338	-0.702064	0.153471
C80	C	-0.342338	-0.202064	0.653471
C81	C	-0.893905	-0.662446	0.101941
C82	C	-0.393905	-0.162446	0.601941
C83	C	-0.032268	-0.000112	0.096156
C84	C	0.467732	0.499888	0.596156
C85	C	-0.116286	-0.000111	0.097494
C86	C	0.383714	0.499889	0.597494
C87	C	-0.899662	-0.000106	-0.036451
C88	C	-0.399662	0.499894	0.463549
C89	C	-0.898323	-0.000107	-0.120469
C90	C	-0.398323	0.499893	0.379531
N91	N	-0.893911	0.179064	0.101939
N92	N	-0.393911	0.679064	0.601939
C93	C	-0.966656	-0.000116	-0.169090
C94	C	-0.466656	0.499884	0.330910
C95	C	-0.965394	-0.000109	-0.248033
C96	C	-0.465394	0.499891	0.251967
C97	C	-0.895798	-0.000098	-0.278354
C98	C	-0.395798	0.499902	0.221646
C99	C	-0.827459	-0.000087	-0.229727
C100	C	-0.327459	0.499913	0.270273
C101	C	-0.828722	-0.000088	-0.150785
C102	C	-0.328722	0.499912	0.349215
C103	C	-0.822364	-0.000080	-0.548090
C104	C	-0.322364	0.499920	-0.048090
C105	C	-0.821106	-0.000081	-0.627038
C106	C	-0.321106	0.499919	-0.127038
C107	C	-0.959036	-0.000101	-0.645338
C108	C	-0.459036	0.499899	-0.145338
C109	C	-0.960299	-0.000102	-0.566396
C110	C	-0.460299	0.499898	-0.066396
C111	C	-0.891961	-0.000087	-0.517776
C112	C	-0.391961	0.499913	-0.017776
C113	C	-0.893330	-0.000093	-0.432177
C114	C	-0.393330	0.499907	0.067823
C115	C	-0.894427	-0.000098	-0.363951
C116	C	-0.394427	0.499902	0.136049
C117	C	-0.888102	-0.000090	0.240322
C118	C	-0.388102	0.499910	0.740322
C119	C	-0.889440	-0.000085	0.324340
C120	C	-0.389440	0.499915	0.824340
H121	H	-0.250232	-0.000083	0.225025
H122	H	0.249768	0.499917	0.725025
O123	O	-0.748656	-0.000066	-0.495659
O124	O	-0.248656	0.499934	0.004341
H125	H	-0.761221	-0.000059	-0.435671
H126	H	-0.261221	0.499941	0.064329
H127	H	-0.107012	-0.000092	0.222734
H128	H	0.392988	0.499908	0.722734
O129	O	-0.752391	-0.000083	-0.262423
O130	O	-0.252391	0.499917	0.237577
H131	H	-0.762991	-0.000095	-0.325485
H132	H	-0.262991	0.499905	0.174515
H133	H	-0.773078	-0.000080	-0.111198
H134	H	-0.273078	0.499920	0.388802
H135	H	-0.987411	-0.186627	0.008442
H136	H	-0.487411	0.313373	0.508442
O137	O	-1.001053	-0.340869	-0.005174
O138	O	-0.501053	0.159131	0.494826
H139	H	-0.992391	-0.402630	0.003485
H140	H	-0.492391	0.097370	0.503485
O141	O	-1.039096	-0.000132	-0.300477
O142	O	-0.539096	0.499868	0.199523
H143	H	-1.087702	-0.000153	-0.266131
H144	H	-0.587702	0.499847	0.233869
H145	H	-0.800322	-0.330393	0.195417
H146	H	-0.300322	0.169607	0.695417
O147	O	-1.032746	-0.000117	-0.697780
O148	O	-0.532746	0.499883	-0.197780
H149	H	-1.066076	0.051185	-0.687006
H150	H	-0.566076	0.551185	-0.187006
H151	H	-0.987455	-0.813574	0.008445
H152	H	-0.487455	-0.313574	0.508445
O153	O	-1.041723	-0.000129	-0.136389
O154	O	-0.541723	0.499871	0.363611
H155	H	-1.045601	0.051180	-0.100850
H156	H	-0.545601	0.551180	0.399150
H157	H	-0.800352	-0.669804	0.195430
H158	H	-0.300352	-0.169804	0.695430
H159	H	-0.647537	-0.000060	0.231384
H160	H	-0.147537	0.499940	0.731384
O161	O	-0.786735	-0.824037	0.209060
O162	O	-0.286735	-0.324037	0.709060
H163	H	-0.795406	-0.885799	0.200410
H164	H	-0.295406	-0.385799	0.700410
H165	H	-0.140225	-0.000119	-0.027517
H166	H	0.359775	0.499881	0.472483
H167	H	-0.987454	-0.669809	0.008449
H168	H	-0.487454	-0.169809	0.508449
O169	O	-0.296293	-0.000121	-0.043286
O170	O	0.203707	0.499879	0.456714
H171	H	-0.261944	-0.000121	-0.091890
H172	H	0.238056	0.499879	0.408110
H173	H	-0.800299	-0.186621	0.195414
H174	H	-0.300299	0.313379	0.695414
H175	H	-0.537526	-0.000110	-0.021154
H176	H	-0.037526	0.499890	0.478846
H177	H	-0.680748	-0.000092	-0.018868
H178	H	-0.180748	0.499908	0.481132
H179	H	-1.016971	-0.000115	-0.541714
H180	H	-0.516971	0.499885	-0.041714
O181	O	-0.746038	-0.000063	-0.659745
O182	O	-0.246038	0.499937	-0.159745
H183	H	-0.698730	-0.000045	-0.612675
H184	H	-0.198730	0.499955	-0.112675
H185	H	-0.504328	-0.000072	0.229092
H186	H	-0.004328	0.499928	0.729092
