data_functionalizedCrystal
_audit_creation_method	'MofGen! by Chris Wilmer'
_symmetry_space_group_name_H-M	'P1'
_symmetry_Int_Tables_number	1
_symmetry_cell_setting	triclinic
loop_
_symmetry_equiv_pos_as_xyz
  x,y,z
_cell_length_a	15.944551
_cell_length_b	14.519709
_cell_length_c	12.996460
_cell_angle_alpha	90.007090
_cell_angle_beta	89.990223
_cell_angle_gamma	96.410559
loop_
_atom_site_label
_atom_site_type_symbol
_atom_site_fract_x
_atom_site_fract_y
_atom_site_fract_z
O1	O	1.114698	-0.118943	-0.085669
O2	O	1.614698	0.381057	0.414331
O3	O	0.870170	-0.133608	-0.085649
O4	O	1.370170	0.366392	0.414351
O5	O	0.998917	0.007974	-0.085650
O6	O	1.498917	0.507974	0.414350
O7	O	0.985950	-0.260525	-0.085668
O8	O	1.485950	0.239475	0.414332
O9	O	0.998904	0.007982	0.085483
O10	O	1.498904	0.507982	0.585483
O11	O	0.870156	-0.133600	0.085484
O12	O	1.370156	0.366400	0.585484
O13	O	1.114684	-0.118935	0.085465
O14	O	1.614684	0.381065	0.585465
Cu15	Cu	0.992419	-0.126267	0.101100
Cu16	Cu	1.492419	0.373733	0.601100
Cu17	Cu	0.992435	-0.126276	-0.101285
Cu18	Cu	1.492435	0.373724	0.398715
O19	O	0.985937	-0.260517	0.085466
O20	O	1.485937	0.239483	0.585466
C21	C	0.838868	-0.132995	-0.000080
C22	C	1.338868	0.367005	0.499920
C23	C	0.745619	-0.131170	-0.000072
C24	C	1.245619	0.368830	0.499928
C25	C	0.998306	0.042337	-0.000083
C26	C	1.498306	0.542337	0.499917
C27	C	0.996495	0.144715	-0.000083
C28	C	1.496495	0.644715	0.499917
C29	C	1.145986	-0.119548	-0.000107
C30	C	1.645986	0.380452	0.499893
C31	C	1.239235	-0.121373	-0.000121
C32	C	1.739235	0.378627	0.499879
C33	C	1.454225	-0.213495	-0.000104
C34	C	1.954225	0.286505	0.499896
C35	C	1.515190	-0.170720	-0.084478
C36	C	2.015190	0.329280	0.415522
C37	C	1.409965	-0.124675	-0.000107
C38	C	1.909965	0.375325	0.499893
C39	C	1.515154	-0.170692	0.084246
C40	C	2.015154	0.329308	0.584246
C41	C	1.574883	-0.127871	-0.000088
C42	C	2.074883	0.372129	0.499912
C43	C	1.469702	-0.081876	-0.084551
C44	C	1.969702	0.418124	0.415449
C45	C	1.469660	-0.081860	0.084250
C46	C	1.969660	0.418140	0.584250
C47	C	1.530607	-0.039021	-0.000145
C48	C	2.030607	0.460979	0.499855
C49	C	1.314960	-0.122836	-0.000118
C50	C	1.814960	0.377164	0.499882
C51	C	1.669886	-0.129702	-0.000084
C52	C	2.169886	0.370298	0.499916
C53	C	0.986548	-0.294880	-0.000104
C54	C	1.486548	0.205120	0.499896
C55	C	0.988359	-0.397258	-0.000111
C56	C	1.488359	0.102742	0.499889
N57	N	0.992414	-0.126260	0.243448
N58	N	1.492414	0.373740	0.743448
C59	C	0.989829	0.519599	-0.000109
C60	C	1.489829	1.019599	0.499891
C61	C	0.991680	0.415295	-0.000101
C62	C	1.491680	0.915295	0.499899
C63	C	0.993162	0.332160	-0.000095
C64	C	1.493162	0.832160	0.499905
C65	C	0.995013	0.227849	-0.000089
C66	C	1.495013	0.727849	0.499911
N67	N	0.992447	-0.126276	-0.243632
N68	N	1.492447	0.373724	0.256368
C69	C	0.992434	-0.126277	0.663262
C70	C	1.492434	0.373723	1.163262
C71	C	0.992426	-0.126275	0.546457
C72	C	1.492426	0.373725	1.046457
C73	C	0.992424	-0.126269	0.453358
C74	C	1.492424	0.373731	0.953358
C75	C	0.992415	-0.126266	0.336546
C76	C	1.492415	0.373734	0.836546
H77	H	1.535364	-0.208293	-0.155813
H78	H	2.035364	0.291707	0.344187
H79	H	1.535288	-0.208271	0.155578
H80	H	2.035288	0.291729	0.655578
O81	O	1.414513	-0.301400	-0.000341
O82	O	1.914513	0.198600	0.499659
C83	C	1.363123	-0.314746	-0.088547
C84	C	1.863123	0.185254	0.411453
H85	H	1.346810	-0.244817	-0.117530
H86	H	1.846810	0.255183	0.382470
H87	H	1.398410	-0.349679	-0.151171
H88	H	1.898410	0.150321	0.348829
C89	C	1.301394	-0.462484	-0.025556
C90	C	1.801394	0.037516	0.474444
C91	C	1.281351	-0.376597	-0.061149
C92	C	1.781351	0.123403	0.438851
H93	H	1.250955	-0.500640	-0.008658
H94	H	1.750955	-0.000640	0.491342
H95	H	1.336018	-0.453495	0.033868
H96	H	1.836018	0.046505	0.533868
H97	H	1.330801	-0.491583	-0.077748
H98	H	1.830801	0.008417	0.422252
H99	H	1.251955	-0.347495	-0.008952
H100	H	1.751955	0.152505	0.491048
H101	H	1.246720	-0.385583	-0.120564
H102	H	1.746720	0.114417	0.379436
H103	H	1.449664	-0.044346	-0.155965
H104	H	1.949664	0.455654	0.344035
H105	H	1.563653	0.034770	-0.000183
H106	H	2.063653	0.534770	0.499817
O107	O	1.445586	-0.037211	0.169461
O108	O	1.945586	0.462789	0.669461
C109	C	1.468499	-0.084263	0.258251
C110	C	1.968499	0.415737	0.758251
H111	H	1.475375	-0.159452	0.238031
H112	H	1.975375	0.340548	0.738031
H113	H	1.531085	-0.049381	0.289041
H114	H	2.031085	0.450619	0.789041
C115	C	1.391251	0.011133	0.365797
C116	C	1.891251	0.511133	0.865797
C117	C	1.399689	-0.081217	0.340964
C118	C	1.899689	0.418783	0.840964
H119	H	1.348808	0.013015	0.416821
H120	H	1.848808	0.513015	0.916821
H121	H	1.375816	0.042836	0.305978
H122	H	1.875816	0.542836	0.805978
H123	H	1.443411	0.040191	0.391449
H124	H	1.943411	0.540191	0.891449
H125	H	1.347533	-0.110270	0.315301
H126	H	1.847533	0.389730	0.815301
H127	H	1.415114	-0.112925	0.400781
H128	H	1.915114	0.387075	0.900781
