data_functionalizedCrystal
_audit_creation_method	'MofGen! by Chris Wilmer'
_symmetry_space_group_name_H-M	'P1'
_symmetry_Int_Tables_number	1
_symmetry_cell_setting	triclinic
loop_
_symmetry_equiv_pos_as_xyz
  x,y,z
_cell_length_a	12.827893
_cell_length_b	12.827892
_cell_length_c	12.827885
_cell_angle_alpha	90.031912
_cell_angle_beta	90.021379
_cell_angle_gamma	90.023137
loop_
_atom_site_label
_atom_site_type_symbol
_atom_site_fract_x
_atom_site_fract_y
_atom_site_fract_z
Zn1	Zn	-1.597601	0.416038	-0.590887
Zn2	Zn	-1.597465	0.590815	-0.416140
Zn3	Zn	-1.422842	0.416083	-0.416154
Zn4	Zn	-1.422798	0.590731	-0.590835
O5	O	-1.510176	0.503417	-0.503504
O6	O	-1.743819	0.439239	-0.567722
O7	O	-1.574262	0.567690	-0.269906
O8	O	-1.446099	0.269841	-0.439361
O9	O	-1.743719	0.567647	-0.439337
O10	O	-1.574494	0.269808	-0.567736
O11	O	-1.445967	0.439315	-0.269916
O12	O	-1.276600	0.439234	-0.439310
O13	O	-1.446025	0.567504	-0.737078
O14	O	-1.276568	0.567548	-0.567647
O15	O	-1.574452	0.439157	-0.737116
O16	O	-1.574220	0.737040	-0.439286
O17	O	-1.445893	0.736979	-0.567633
C18	C	-1.238666	0.503387	-0.503475
C19	C	-1.122513	0.503400	-0.503487
C20	C	-1.510065	0.774927	-0.503475
C21	C	-1.510113	0.891080	-0.503498
C22	C	-1.070740	0.566991	-0.566893
C23	C	-0.950690	0.567005	-0.566907
C24	C	-0.782746	0.503438	-0.503525
C25	C	-0.898900	0.503426	-0.503513
C26	C	-1.573610	0.942765	-0.567078
C27	C	-1.573661	1.062815	-0.567103
C28	C	-1.510248	0.503316	-0.776074
C29	C	-1.510279	0.503274	-0.892228
C30	C	-1.510274	1.230847	-0.503547
C31	C	-1.510207	1.114693	-0.503544
C32	C	-1.446815	0.439737	-0.944017
C33	C	-1.446845	0.439691	-1.064068
C34	C	-1.510165	0.503441	-0.231994
C35	C	-1.510337	0.503190	-0.115842
H36	H	-1.115292	0.621419	-0.621170
C37	C	-0.891389	0.639776	-0.639168
C38	C	-0.917803	0.743167	-0.616242
C39	C	-0.863184	0.810232	-0.682782
H40	H	-0.909220	0.624713	-0.709458
H41	H	-0.818581	0.630208	-0.629550
H42	H	-0.990594	0.752729	-0.625869
H43	H	-0.899969	0.758262	-0.545964
H44	H	-0.790376	0.800665	-0.673164
H45	H	-0.881020	0.795161	-0.753068
H46	H	-0.881091	0.880391	-0.667229
C47	C	-1.645974	1.122130	-0.639817
C48	C	-1.586732	1.184771	-0.706712
C49	C	-1.653311	1.239419	-0.773722
H50	H	-1.691529	1.164788	-0.599976
H51	H	-1.685759	1.074045	-0.679753
H52	H	-1.546964	1.232851	-0.666780
H53	H	-1.541179	1.142139	-0.746576
H54	H	-1.693096	1.191334	-0.813658
H55	H	-1.698862	1.282071	-0.733873
H56	H	-1.613124	1.281920	-0.819124
H57	H	-0.943416	0.448984	-0.449223
H58	H	-1.077961	0.448964	-0.449219
H59	H	-1.627931	0.898140	-0.621497
H60	H	-1.455846	1.070253	-0.449104
C61	C	-1.437610	0.950706	-0.431109
C62	C	-1.370697	1.013395	-0.490288
C63	C	-1.303900	1.068344	-0.423637
H64	H	-1.397666	0.902831	-0.391193
H65	H	-1.477636	0.993349	-0.385677
H66	H	-1.330675	0.970756	-0.535701
H67	H	-1.410612	1.061289	-0.530202
H68	H	-1.343926	1.110987	-0.378206
H69	H	-1.263964	1.020461	-0.383725
H70	H	-1.258498	1.110892	-0.463780
C71	C	-1.374446	0.367286	-0.884455
C72	C	-1.388829	0.381710	-0.777223
C73	C	-1.322190	0.314974	-0.722325
H74	H	-1.304170	0.382480	-0.902154
H75	H	-1.389777	0.297028	-0.902244
H76	H	-1.373491	0.451952	-0.759442
H77	H	-1.459092	0.366508	-0.759493
H78	H	-1.337521	0.244716	-0.740114
H79	H	-1.251918	0.330174	-0.740033
H80	H	-1.331946	0.324745	-0.649564
C81	C	-1.374259	0.367332	-1.123497
C82	C	-1.307304	0.426531	-1.186120
C83	C	-1.240410	0.359910	-1.240871
H84	H	-1.414180	0.321802	-1.166176
H85	H	-1.334360	0.327521	-1.075473
H86	H	-1.347199	0.466325	-1.234139
H87	H	-1.267360	0.472058	-1.143467
H88	H	-1.200511	0.320099	-1.192846
H89	H	-1.280341	0.314383	-1.283543
H90	H	-1.194968	0.400067	-1.283359
C91	C	-1.582617	0.575859	-1.056415
C92	C	-1.523337	0.642814	-0.993754
C93	C	-1.589884	0.709780	-0.938998
H94	H	-1.628142	0.535989	-1.013764
H95	H	-1.622435	0.615753	-1.104437
H96	H	-1.483536	0.602924	-0.945737
H97	H	-1.477814	0.682707	-1.036379
H98	H	-1.629702	0.749674	-0.987020
H99	H	-1.635406	0.669901	-0.896352
H100	H	-1.549672	0.755223	-0.896483
H101	H	-1.564634	0.557637	-0.936765
