data_functionalizedCrystal
_audit_creation_method	'MofGen! by Chris Wilmer'
_symmetry_space_group_name_H-M	'P1'
_symmetry_Int_Tables_number	1
_symmetry_cell_setting	triclinic
loop_
_symmetry_equiv_pos_as_xyz
  x,y,z
_cell_length_a	15.944499
_cell_length_b	15.944551
_cell_length_c	16.176319
_cell_angle_alpha	89.992246
_cell_angle_beta	89.989994
_cell_angle_gamma	83.488174
loop_
_atom_site_label
_atom_site_type_symbol
_atom_site_fract_x
_atom_site_fract_y
_atom_site_fract_z
O1	O	1.114555	0.108127	-0.068798
O2	O	0.869999	0.121529	-0.068789
O3	O	0.998955	-0.007448	-0.068786
O4	O	0.985598	0.237104	-0.068801
O5	O	0.998937	-0.007456	0.068707
O6	O	0.869981	0.121521	0.068704
O7	O	1.114537	0.108119	0.068695
Cu8	Cu	0.992257	0.114819	0.081254
Cu9	Cu	0.992278	0.114829	-0.081348
O10	O	0.985581	0.237096	0.068693
C11	C	0.838695	0.120976	-0.000041
C12	C	0.745447	0.119331	-0.000037
C13	C	0.453911	0.194263	-0.000054
C14	C	0.514949	0.155316	-0.067845
C15	C	0.409810	0.113355	-0.000056
C16	C	0.514917	0.155286	0.067713
C17	C	0.574719	0.116296	-0.000046
C18	C	0.469620	0.074385	-0.067903
C19	C	0.469582	0.074366	0.067716
C20	C	0.530603	0.035360	-0.000091
C21	C	0.314810	0.111663	-0.000063
C22	C	0.669718	0.117981	-0.000045
C23	C	0.998392	-0.038746	-0.000039
C24	C	0.996729	-0.131992	-0.000039
C25	C	0.912823	-0.346833	-0.000047
C26	C	0.951778	-0.407861	0.067744
C27	C	0.993722	-0.302717	-0.000045
C28	C	0.951814	-0.407837	-0.067814
C29	C	0.990811	-0.467629	-0.000055
C30	C	1.032699	-0.362517	0.067802
C31	C	1.032724	-0.362486	-0.067817
C32	C	1.071737	-0.423497	-0.000009
C33	C	0.995397	-0.207715	-0.000039
C34	C	0.989143	-0.562630	-0.000055
C35	C	1.145840	0.108672	-0.000054
C36	C	1.239089	0.110317	-0.000063
C37	C	0.986144	0.268394	-0.000056
C38	C	0.987806	0.361640	-0.000062
N39	N	0.992249	0.114812	0.195619
N40	N	0.992294	0.114830	-0.195713
C41	C	1.049368	0.057724	0.238885
C42	C	1.049372	0.057723	0.325432
C43	C	0.992261	0.114815	0.368712
C44	C	0.935136	0.171905	0.325440
C45	C	0.935128	0.171901	0.238895
C46	C	0.935164	0.171921	0.674469
C47	C	0.935178	0.171922	0.761020
C48	C	1.049408	0.057743	0.761005
C49	C	1.049401	0.057739	0.674460
C50	C	0.992273	0.114826	0.631196
C51	C	0.992268	0.114825	0.537352
C52	C	0.992269	0.114820	0.462554
H53	H	0.563780	-0.031846	-0.000123
N54	N	0.541502	0.200619	0.143629
H55	H	0.604809	0.200941	0.143349
H56	H	0.513259	0.260609	0.143518
N57	N	1.110999	-0.003841	0.372084
H58	H	1.078926	-0.041063	0.408008
H59	H	1.147161	-0.039936	0.331469
N60	N	1.160758	-0.467444	0.000042
H61	H	1.159156	-0.530585	-0.000442
H62	H	1.191524	-0.450150	-0.050667
N63	N	1.078027	-0.335824	-0.143735
H64	H	1.047420	-0.352118	-0.194918
H65	H	1.079281	-0.272644	-0.142805
N66	N	0.443169	0.029102	-0.143903
H67	H	0.460052	0.059434	-0.195045
H68	H	0.471814	-0.030734	-0.144059
H69	H	0.888651	0.218404	0.639250
H70	H	1.095922	0.011257	0.796240
N71	N	1.077959	-0.336044	0.143807
H72	H	1.047620	-0.352929	0.194944
H73	H	1.137802	-0.364672	0.143977
N74	N	0.906487	-0.434441	-0.143725
H75	H	0.846468	-0.406264	-0.143658
H76	H	0.936505	-0.417130	-0.194888
H77	H	0.535054	0.189543	-0.125157
N78	N	0.409749	0.283199	-0.000137
H79	H	0.453142	0.324683	-0.000702
H80	H	0.372861	0.291957	-0.050854
H81	H	0.888668	0.218414	0.796257
H82	H	1.095878	0.011237	0.203652
N83	N	0.873530	0.233478	0.372116
H84	H	0.882202	0.224820	0.433508
H85	H	0.883228	0.293071	0.356974
H86	H	1.095909	0.011253	0.639224
N87	N	0.873517	0.233469	0.192226
H88	H	0.837338	0.269638	0.232774
H89	H	0.905666	0.270618	0.156299
H90	H	0.845673	-0.313513	0.000023
N91	N	0.442923	0.029063	0.143634
H92	H	0.459209	0.059676	0.194817
H93	H	0.379745	0.027797	0.142702
H94	H	0.917553	-0.427967	0.125058
