data_functionalizedCrystal
_audit_creation_method	'MofGen! by Chris Wilmer'
_symmetry_space_group_name_H-M	'P1'
_symmetry_Int_Tables_number	1
_symmetry_cell_setting	triclinic
loop_
_symmetry_equiv_pos_as_xyz
  x,y,z
_cell_length_a	18.101398
_cell_length_b	18.101395
_cell_length_c	18.215399
_cell_angle_alpha	90.029272
_cell_angle_beta	90.010431
_cell_angle_gamma	90.027508
loop_
_atom_site_label
_atom_site_type_symbol
_atom_site_fract_x
_atom_site_fract_y
_atom_site_fract_z
Zn1	Zn	1.132122	-0.294925	0.415924
Zn2	Zn	1.132014	-0.418772	0.292855
Zn3	Zn	1.008279	-0.294939	0.292892
Zn4	Zn	1.008229	-0.418720	0.415900
O5	O	1.070161	-0.356839	0.354393
O6	O	1.235740	-0.311370	0.399594
O7	O	1.115576	-0.402372	0.189876
O8	O	1.024773	-0.191304	0.309238
O9	O	1.235661	-0.402359	0.309175
O10	O	1.115759	-0.191294	0.399629
O11	O	1.024669	-0.311393	0.189903
O12	O	0.904640	-0.311343	0.309215
O13	O	1.024688	-0.402271	0.518888
O14	O	0.904603	-0.402284	0.399588
O15	O	1.115711	-0.311319	0.518906
O16	O	1.115528	-0.522398	0.309152
O17	O	1.024584	-0.522360	0.399553
C18	C	0.877751	-0.356810	0.354403
C19	C	0.795436	-0.356815	0.354425
C20	C	0.496345	-0.356859	0.354394
C21	C	0.527672	-0.414353	0.410974
C22	C	0.613291	-0.414173	0.411207
C23	C	0.644728	-0.356838	0.354410
C24	C	0.613675	-0.278835	0.375606
C25	C	0.528030	-0.279181	0.376008
C26	C	0.527892	-0.376679	0.276482
C27	C	0.613542	-0.378390	0.276898
C28	C	0.728587	-0.356821	0.354417
C29	C	0.412486	-0.356870	0.354389
C30	C	1.070059	-0.549249	0.354362
C31	C	1.070083	-0.631563	0.354373
C32	C	1.070168	-0.782272	0.354402
C33	C	1.012919	-0.813633	0.411236
C34	C	1.013136	-0.899251	0.411476
C35	C	1.070251	-0.930654	0.354431
C36	C	1.148326	-0.899478	0.375283
C37	C	1.147947	-0.813833	0.375679
C38	C	1.050042	-0.813907	0.276580
C39	C	1.048368	-0.899559	0.277012
C40	C	1.070302	-1.014514	0.354446
C41	C	1.070122	-0.698412	0.354389
C42	C	1.263323	-0.356869	0.354383
C43	C	1.345637	-0.356881	0.354379
C44	C	1.070206	-0.356788	0.546346
C45	C	1.070225	-0.356766	0.628145
C46	C	1.070284	-0.163677	0.354440
C47	C	1.070336	-0.081363	0.354461
C48	C	1.070159	-0.356836	0.163187
C49	C	1.070283	-0.356649	0.081388
C50	C	1.117638	-0.309363	0.816349
C51	C	1.117647	-0.309342	0.893208
C52	C	1.022865	-0.404054	0.893179
C53	C	1.022853	-0.404071	0.816321
C54	C	1.070244	-0.356727	0.777909
C55	C	1.070265	-0.356688	0.931625
C56	C	1.070274	-0.356665	1.014958
C57	C	1.070234	-0.356749	0.694570
H58	H	0.507056	-0.472385	0.397838
H59	H	0.954825	-0.793108	0.398351
Br60	Br	1.177255	-0.935138	0.469062
Br61	Br	0.958521	-0.468349	0.764146
H62	H	0.635141	-0.261721	0.431944
Br63	Br	0.649203	-0.313659	0.202857
H64	H	1.192169	-0.919813	0.335168
H65	H	0.506163	-0.401406	0.468369
H66	H	0.994056	-0.792371	0.257554
H67	H	0.633794	-0.401059	0.468935
H68	H	1.156239	-0.270772	0.924503
Br69	Br	0.648287	-0.510590	0.389098
Br70	Br	0.916650	-0.934396	0.389767
Br71	Br	1.119538	-0.780103	0.206006
Br72	Br	0.647616	-0.205496	0.309067
H73	H	1.156225	-0.270810	0.785076
Br74	Br	1.176341	-0.780446	0.470485
H75	H	0.508070	-0.262370	0.432965
Br76	Br	0.952597	-0.933531	0.250795
H77	H	0.507308	-0.234808	0.336687
H78	H	0.984283	-0.442602	0.924463
H79	H	1.087026	-0.920946	0.232423
H80	H	0.633845	-0.435788	0.260912
Br81	Br	0.491853	-0.469851	0.244368
H82	H	0.507633	-0.334800	0.234325
H83	H	1.192068	-0.793081	0.336074
Br84	Br	1.035365	-0.933325	0.507609
Br85	Br	1.034880	-0.777691	0.506804
