data_functionalizedCrystal
_audit_creation_method	'MofGen! by Chris Wilmer'
_symmetry_space_group_name_H-M	'P1'
_symmetry_Int_Tables_number	1
_symmetry_cell_setting	triclinic
loop_
_symmetry_equiv_pos_as_xyz
  x,y,z
_cell_length_a	16.992694
_cell_length_b	15.455313
_cell_length_c	16.992695
_cell_angle_alpha	92.847427
_cell_angle_beta	90.668223
_cell_angle_gamma	87.142206
loop_
_atom_site_label
_atom_site_type_symbol
_atom_site_fract_x
_atom_site_fract_y
_atom_site_fract_z
O1	O	1.054080	-0.072023	0.163694
O2	O	1.554080	0.427977	0.663694
O3	O	0.825681	-0.072048	0.161862
O4	O	1.325681	0.427952	0.661862
O5	O	0.938965	-0.072029	0.048579
O6	O	1.438965	0.427971	0.548579
O7	O	0.940797	-0.072042	0.276978
O8	O	1.440797	0.427958	0.776978
O9	O	0.932485	0.072232	0.055028
O10	O	1.432485	0.572232	0.555028
O11	O	0.819202	0.072213	0.168312
O12	O	1.319202	0.572213	0.668312
O13	O	1.047601	0.072238	0.170144
O14	O	1.547601	0.572238	0.670144
Cu15	Cu	0.932809	0.085398	0.169817
Cu16	Cu	1.432809	0.585398	0.669817
Cu17	Cu	0.940473	-0.085207	0.162189
Cu18	Cu	1.440473	0.414793	0.662189
O19	O	0.934317	0.072219	0.283428
O20	O	1.434317	0.572219	0.783428
C21	C	0.793081	0.000079	0.162731
C22	C	1.293081	0.500079	0.662731
C23	C	0.705597	0.000070	0.155702
C24	C	1.205597	0.500070	0.655702
C25	C	0.933369	0.000102	0.022443
C26	C	1.433369	0.500102	0.522443
C27	C	0.926341	0.000101	-0.065041
C28	C	1.426341	0.500101	0.434959
C29	C	0.659607	0.000066	0.223520
C30	C	1.159607	0.500066	0.723520
C31	C	0.577405	0.000079	0.216911
C32	C	1.077405	0.500079	0.716911
C33	C	0.541197	0.000088	0.142484
C34	C	1.041197	0.500088	0.642484
C35	C	0.587193	0.000094	0.074661
C36	C	1.087193	0.500094	0.574661
C37	C	0.669393	0.000088	0.081271
C38	C	1.169393	0.500088	0.581271
C39	C	0.295881	0.000113	0.115091
C40	C	0.795881	0.500113	0.615091
C41	C	0.213676	0.000116	0.108486
C42	C	0.713676	0.500116	0.608486
C43	C	0.203893	0.000103	0.250737
C44	C	0.703893	0.500103	0.750737
C45	C	0.286095	0.000091	0.257340
C46	C	0.786095	0.500091	0.757340
C47	C	0.332084	0.000102	0.189517
C48	C	0.832084	0.500102	0.689517
N49	N	0.457174	0.000098	0.135727
N50	N	0.957174	0.500098	0.635727
N51	N	0.416105	0.000098	0.196275
N52	N	0.916105	0.500098	0.696275
C53	C	1.080201	0.000109	0.169275
C54	C	1.580201	0.500109	0.669275
C55	C	1.167685	0.000113	0.176304
C56	C	1.667685	0.500113	0.676304
N57	N	0.927425	0.205392	0.175181
N58	N	1.427425	0.705392	0.675181
N59	N	0.945863	-0.205202	0.156819
N60	N	1.445863	0.294798	0.656819
C61	C	0.975571	0.250795	0.127074
C62	C	1.475571	0.750795	0.627074
C63	C	0.971507	0.341602	0.131139
C64	C	1.471507	0.841602	0.631139
C65	C	0.919301	0.387005	0.183315
C66	C	1.419301	0.887005	0.683315
C67	C	0.871149	0.341596	0.231424
C68	C	1.371149	0.841596	0.731424
C69	C	0.875210	0.250791	0.227355
C70	C	1.375210	0.750791	0.727355
C71	C	0.901772	0.658584	0.200858
C72	C	1.401772	1.158584	0.700858
C73	C	0.897717	0.749395	0.204926
C74	C	1.397717	1.249395	0.704926
C75	C	0.998074	0.749395	0.104639
C76	C	1.498074	1.249395	0.604639
C77	C	1.002133	0.658588	0.100578
C78	C	1.502133	1.158588	0.600578
C79	C	0.953979	0.613187	0.148684
C80	C	1.453979	1.113187	0.648684
N81	N	0.915147	0.479825	0.187473
N82	N	1.415147	0.979825	0.687473
N83	N	0.958129	0.520369	0.144522
N84	N	1.458129	1.020369	0.644522
C85	C	0.994158	0.000109	-0.111032
C86	C	1.494158	0.500109	0.388968
C87	C	0.987550	0.000100	-0.193233
C88	C	1.487550	0.500100	0.306767
C89	C	0.913123	0.000089	-0.229442
C90	C	1.413123	0.500089	0.270558
C91	C	0.845300	0.000078	-0.183445
C92	C	1.345300	0.500078	0.316555
C93	C	0.851910	0.000081	-0.101246
C94	C	1.351910	0.500081	0.398754
C95	C	0.885729	0.000074	-0.474757
C96	C	1.385729	0.500074	0.025243
C97	C	0.879124	0.000074	-0.556962
C98	C	1.379124	0.500074	-0.056962
C99	C	1.021375	0.000094	-0.566744
C100	C	1.521375	0.500094	-0.066744
C101	C	1.027977	0.000102	-0.484543
C102	C	1.527977	0.500102	0.015457
C103	C	0.960155	0.000087	-0.438554
C104	C	1.460155	0.500087	0.061446
N105	N	0.906366	0.000082	-0.313464
N106	N	1.406366	0.500082	0.186536
N107	N	0.966913	0.000087	-0.354533
N108	N	1.466913	0.500087	0.145467
C109	C	0.939913	0.000087	0.309563
C110	C	1.439913	0.500087	0.809563
C111	C	0.946942	0.000082	0.397047
C112	C	1.446942	0.500082	0.897047
H113	H	0.539963	0.000075	0.272136
H114	H	1.039963	0.500075	0.772136
O115	O	1.087331	0.000138	-0.611300
O116	O	1.587331	0.500138	-0.111300
C117	C	1.154440	0.000123	-0.561715
C118	C	1.654440	0.500123	-0.061715
H119	H	1.137073	0.027437	-0.500468
H120	H	1.637073	0.527437	-0.000468
H121	H	1.200396	0.042006	-0.587018
H122	H	1.700396	0.542006	-0.087018
H123	H	1.180116	-0.069085	-0.557565
H124	H	1.680116	0.430915	-0.057565
H125	H	0.818513	0.000079	-0.586440
H126	H	1.318513	0.500079	-0.086440
O127	O	0.340433	0.000081	0.049128
O128	O	0.840433	0.500081	0.549128
C129	C	0.290844	0.000110	-0.017976
C130	C	0.790844	0.500110	0.482024
H131	H	0.232040	-0.027204	-0.003054
H132	H	0.732040	0.472796	0.496946
H133	H	0.319890	-0.041767	-0.067686
H134	H	0.819890	0.458233	0.432314
H135	H	0.280502	0.069322	-0.037450
H136	H	0.780502	0.569322	0.462550
O137	O	1.052736	0.614719	0.049634
O138	O	1.552736	1.114719	0.549634
C139	C	1.033872	0.637218	-0.027986
C140	C	1.533872	1.137218	0.472014
H141	H	0.969661	0.662066	-0.031036
H142	H	1.469661	1.162066	0.468964
H143	H	1.043144	0.577679	-0.069798
H144	H	1.543144	1.077679	0.430202
H145	H	1.073554	0.690101	-0.045888
H146	H	1.573554	1.190101	0.454112
O147	O	1.100241	-0.000008	-0.449291
O148	O	1.600241	0.499992	0.050709
C149	C	1.111687	-0.074731	-0.405389
C150	C	1.611687	0.425269	0.094611
H151	H	1.052044	-0.099646	-0.389934
H152	H	1.552044	0.400354	0.110066
H153	H	1.145685	-0.057923	-0.348909
H154	H	1.645685	0.442077	0.151091
H155	H	1.146586	-0.127046	-0.441820
H156	H	1.646586	0.372954	0.058180
H157	H	1.018087	0.213834	0.084591
H158	H	1.518087	0.713834	0.584591
O159	O	1.044955	0.793456	0.057986
O160	O	1.544955	1.293456	0.557986
C161	C	1.124674	0.771238	0.074694
C162	C	1.624674	1.271238	0.574694
H163	H	1.130129	0.746271	0.136628
H164	H	1.630129	1.246271	0.636628
H165	H	1.160943	0.830949	0.070803
H166	H	1.660943	1.330949	0.570803
H167	H	1.147413	0.718528	0.030165
H168	H	1.647413	1.218528	0.530165
H169	H	0.784700	0.000063	-0.212933
H170	H	1.284700	0.500063	0.287067
H171	H	0.830503	0.000061	-0.437322
H172	H	1.330503	0.500061	0.062678
O173	O	1.018251	0.385605	0.084300
O174	O	1.518251	0.885605	0.584300
C175	C	1.001568	0.363447	0.004568
C176	C	1.501568	0.863447	0.504568
H177	H	0.974173	0.297524	-0.000211
H178	H	1.474173	0.797524	0.499789
H179	H	1.058457	0.360330	-0.030585
H180	H	1.558457	0.860330	0.469415
H181	H	0.958585	0.414567	-0.019974
H182	H	1.458585	0.914567	0.480026
O183	O	0.694862	0.000170	0.295781
O184	O	1.194862	0.500170	0.795781
C185	C	0.738758	0.074889	0.307211
C186	C	1.238758	0.574889	0.807211
H187	H	0.754207	0.099803	0.247564
H188	H	1.254207	0.599803	0.747564
H189	H	0.795241	0.058076	0.341209
H190	H	1.295241	0.558076	0.841209
H191	H	0.702323	0.127207	0.342104
H192	H	1.202323	0.627207	0.842104
O193	O	0.785980	-0.000042	-0.056656
O194	O	1.285980	0.499958	0.443344
C195	C	0.744466	-0.074774	-0.077088
C196	C	1.244466	0.425226	0.422912
H197	H	0.761009	-0.099679	-0.139275
H198	H	1.261009	0.400321	0.360725
H199	H	0.678419	-0.057982	-0.074672
H200	H	1.178419	0.442018	0.425328
H201	H	0.760399	-0.127091	-0.033841
H202	H	1.260399	0.372909	0.466159
O203	O	0.321169	-0.000036	0.329682
O204	O	0.821169	0.499964	0.829682
C205	C	0.301452	-0.074767	0.367973
C206	C	0.801452	0.425233	0.867973
H207	H	0.244281	-0.099663	0.341820
H208	H	0.744281	0.400337	0.841820
H209	H	0.293396	-0.057976	0.433563
H210	H	0.793396	0.442024	0.933563
H211	H	0.350734	-0.127090	0.359498
H212	H	0.850734	0.372910	0.859498
O213	O	1.066396	0.000158	-0.075734
O214	O	1.566396	0.500158	0.424266
C215	C	1.057692	0.000137	0.006679
C216	C	1.557692	0.500137	0.506679
H217	H	0.996244	0.027444	0.023332
H218	H	1.496244	0.527444	0.523332
H219	H	1.103748	0.042024	0.036662
H220	H	1.603748	0.542024	0.536662
H221	H	1.066047	-0.069071	0.026684
H222	H	1.566047	0.430929	0.526684
H223	H	0.184198	0.000123	0.047876
H224	H	0.684198	0.500123	0.547876
H225	H	0.557705	0.000114	0.014061
H226	H	1.057705	0.500114	0.514061
H227	H	0.828638	0.378569	0.273904
H228	H	1.328638	0.878569	0.773904
O229	O	0.828413	0.206818	0.274168
O230	O	1.328413	0.706818	0.774168
C231	C	0.781449	0.266362	0.321080
C232	C	1.281449	0.766362	0.821080
H233	H	0.810885	0.331086	0.326913
H234	H	1.310885	0.831086	0.826913
H235	H	0.774548	0.240114	0.382010
H236	H	1.274548	0.740114	0.882010
H237	H	0.720941	0.276033	0.292253
H238	H	1.220941	0.776033	0.792253
O239	O	0.714097	0.000241	0.015422
O240	O	1.214097	0.500241	0.515422
C241	C	0.758606	0.074942	0.018339
C242	C	1.258606	0.574942	0.518339
H243	H	0.728719	0.127161	0.059044
H244	H	1.228719	0.627161	0.559044
H245	H	0.762743	0.100025	-0.043369
H246	H	1.262743	0.600025	0.456631
H247	H	0.820345	0.058045	0.041700
H248	H	1.320345	0.558045	0.541700
O249	O	0.159100	0.000138	0.316537
O250	O	0.659100	0.500138	0.816537
C251	C	0.078785	0.000124	0.294748
C252	C	0.578785	0.500124	0.794748
H253	H	0.070539	0.027439	0.233941
H254	H	0.570539	0.527439	0.733941
H255	H	0.042546	0.042007	0.339533
H256	H	0.542546	0.542007	0.839533
H257	H	0.058325	-0.069084	0.293151
H258	H	0.558325	0.430916	0.793151
H259	H	0.855202	0.786359	0.247417
H260	H	1.355202	1.286359	0.747417
H261	H	0.862564	0.621625	0.240030
H262	H	1.362564	1.121625	0.740030
H263	H	1.042774	0.000109	-0.230675
H264	H	1.542774	0.500109	0.269325
