data_functionalizedCrystal
_audit_creation_method	'MofGen! by Chris Wilmer'
_symmetry_space_group_name_H-M	'P1'
_symmetry_Int_Tables_number	1
_symmetry_cell_setting	triclinic
loop_
_symmetry_equiv_pos_as_xyz
  x,y,z
_cell_length_a	12.645331
_cell_length_b	19.121063
_cell_length_c	12.645323
_cell_angle_alpha	92.408124
_cell_angle_beta	89.977324
_cell_angle_gamma	92.467980
loop_
_atom_site_label
_atom_site_type_symbol
_atom_site_fract_x
_atom_site_fract_y
_atom_site_fract_z
Zn1	Zn	1.602654	-0.279627	-0.617388
Zn2	Zn	2.102654	0.220373	-0.117388
Zn3	Zn	1.594942	-0.397086	-0.447665
Zn4	Zn	2.094942	0.102914	0.052335
Zn5	Zn	1.425367	-0.279651	-0.440134
Zn6	Zn	1.925367	0.220349	0.059866
Zn7	Zn	1.417760	-0.397040	-0.624877
Zn8	Zn	1.917760	0.102960	-0.124877
O9	O	1.510181	-0.338351	-0.532516
O10	O	2.010181	0.161649	-0.032516
O11	O	1.749978	-0.295217	-0.594892
O12	O	2.249978	0.204783	-0.094892
O13	O	1.572404	-0.381537	-0.298321
O14	O	2.072404	0.118463	0.201679
O15	O	1.455295	-0.181363	-0.457361
O16	O	1.955295	0.318637	0.042639
O17	O	1.744312	-0.381514	-0.470197
O18	O	2.244312	0.118486	0.029803
O19	O	1.585547	-0.181346	-0.587589
O20	O	2.085547	0.318654	-0.087589
O21	O	1.447818	-0.295258	-0.292788
O22	O	1.947818	0.204742	0.207212
O23	O	1.276011	-0.295213	-0.464623
O24	O	1.776011	0.204787	0.035377
O25	O	1.442330	-0.381436	-0.772230
O26	O	1.942330	0.118564	-0.272230
O27	O	1.270422	-0.381459	-0.600353
O28	O	1.770422	0.118541	-0.100353
O29	O	1.578171	-0.295173	-0.766727
O30	O	2.078171	0.204827	-0.266727
O31	O	1.565027	-0.495364	-0.477459
O32	O	2.065027	0.004636	0.022541
O33	O	1.434852	-0.495330	-0.607656
O34	O	1.934852	0.004670	-0.107656
C35	C	1.234752	-0.338334	-0.532485
C36	C	1.734752	0.161666	-0.032485
C37	C	1.116921	-0.338344	-0.532497
C38	C	1.616921	0.161656	-0.032497
C39	C	0.952854	-0.283838	-0.447545
C40	C	1.452854	0.216162	0.052455
C41	C	1.075405	-0.283979	-0.447195
C42	C	1.575405	0.216021	0.052805
C43	C	1.067618	-0.412331	-0.506730
C44	C	1.567618	0.087669	-0.006730
C45	C	0.945039	-0.412033	-0.506155
C46	C	1.445039	0.087967	-0.006155
C47	C	0.950986	-0.319567	-0.643576
C48	C	1.450986	0.180433	-0.143576
C49	C	1.073698	-0.317914	-0.642847
C50	C	1.573698	0.182086	-0.142847
C51	C	1.498306	-0.520831	-0.544210
C52	C	1.998306	-0.020831	-0.044210
C53	C	1.493323	-0.598897	-0.549248
C54	C	1.993323	-0.098897	-0.049248
C55	C	1.558810	-0.635567	-0.483885
C56	C	2.058810	-0.135567	0.016115
C57	C	1.554130	-0.708918	-0.488629
C58	C	2.054130	-0.208918	0.011371
C59	C	1.483957	-0.745598	-0.558733
C60	C	1.983957	-0.245598	-0.058733
C61	C	1.418467	-0.708923	-0.624104
C62	C	1.918467	-0.208923	-0.124104
C63	C	1.423154	-0.635573	-0.619364
C64	C	1.923154	-0.135573	-0.119364
C65	C	1.466419	-0.967067	-0.576438
C66	C	1.966419	-0.467067	-0.076438
C67	C	1.461736	-1.040422	-0.581171
C68	C	1.961736	-0.540422	-0.081171
C69	C	1.597400	-1.040412	-0.445697
C70	C	2.097400	-0.540412	0.054303
C71	C	1.602076	-0.967061	-0.440959
C72	C	2.102076	-0.467061	0.059041
C73	C	1.536590	-0.930392	-0.506334
C74	C	2.036590	-0.430392	-0.006334
C75	C	1.479169	-0.820575	-0.563582
C76	C	1.979169	-0.320575	-0.063582
C77	C	1.541384	-0.855417	-0.501489
C78	C	2.041384	-0.355417	-0.001489
C79	C	1.786685	-0.338368	-0.532549
C80	C	2.286685	0.161632	-0.032549
C81	C	1.904514	-0.338375	-0.532563
C82	C	2.404514	0.161625	-0.032563
C83	C	1.510262	-0.338296	-0.809018
C84	C	2.010262	0.161704	-0.309018
C85	C	1.510297	-0.338273	-0.926847
C86	C	2.010297	0.161727	-0.426847
C87	C	1.522130	-0.155158	-0.520800
C88	C	2.022130	0.344842	-0.020800
C89	C	1.527222	-0.077092	-0.515807
C90	C	2.027222	0.422908	-0.015807
C91	C	1.424603	-0.392285	-1.097856
C92	C	1.924603	0.107715	-0.597856
C93	C	1.424801	-0.392553	-0.975313
C94	C	1.924801	0.107447	-0.475313
C95	C	1.620698	-0.358362	-0.972656
C96	C	2.120698	0.141638	-0.472656
C97	C	1.620225	-0.358700	-1.095276
C98	C	2.120225	0.141300	-0.595276
C99	C	1.486666	-0.263871	-1.089271
C100	C	1.986666	0.236129	-0.589271
C101	C	1.484145	-0.264317	-0.966693
C102	C	1.984145	0.235683	-0.466693
C103	C	1.510164	-0.338354	-0.257087
C104	C	2.010164	0.161646	0.242913
C105	C	1.510347	-0.338179	-0.139246
C106	C	2.010347	0.161821	0.360754
H107	H	0.912678	-0.454044	-0.565636
H108	H	1.412678	0.045956	-0.065636
O109	O	1.668035	-1.079973	-0.375211
O110	O	2.168035	-0.579973	0.124789
H111	H	1.650797	-1.065956	-0.291083
H112	H	2.150797	-0.565956	0.208917
O113	O	0.910951	-0.300104	-0.339072
O114	O	1.410951	0.199896	0.160928
H115	H	0.977974	-0.310747	-0.286288
H116	H	1.477974	0.189253	0.213712
H117	H	1.094090	-0.454052	-0.566917
H118	H	1.594090	0.045948	-0.066917
H119	H	1.404605	-1.070285	-0.638276
H120	H	1.904605	-0.570285	-0.138276
O121	O	1.707328	-0.307826	-0.930810
O122	O	2.207328	0.192174	-0.430810
H123	H	1.672531	-0.267762	-0.876787
H124	H	2.172531	0.232238	-0.376787
O125	O	0.918544	-0.210935	-0.467883
O126	O	1.418544	0.289065	0.032117
H127	H	0.874416	-0.190367	-0.398195
H128	H	1.374416	0.309633	0.101805
H129	H	0.915362	-0.427984	-0.425139
H130	H	1.415362	0.072016	0.074861
O131	O	1.113128	-0.300448	-0.338098
O132	O	1.613128	0.199552	0.161902
H133	H	1.200891	-0.300599	-0.337464
H134	H	1.700891	0.199401	0.162536
O135	O	1.648641	-0.429560	-0.936577
O136	O	2.148641	0.070440	-0.436577
H137	H	1.658844	-0.465514	-1.006704
H138	H	2.158844	0.034486	-0.506704
O139	O	1.382210	-0.239617	-1.128623
O140	O	1.882210	0.260383	-0.628623
H141	H	1.346006	-0.280259	-1.184248
H142	H	1.846006	0.219741	-0.684248
O143	O	1.561340	-0.208095	-0.922537
O144	O	2.061340	0.291905	-0.422537
H145	H	1.642724	-0.220173	-0.948242
H146	H	2.142724	0.279827	-0.448242
H147	H	1.659216	-0.937197	-0.383875
H148	H	2.159216	-0.437197	0.116125
H149	H	1.097224	-0.428555	-0.426612
H150	H	1.597224	0.071445	0.073388
O151	O	0.909195	-0.372175	-0.727418
O152	O	1.409195	0.127825	-0.227418
H153	H	0.855587	-0.411530	-0.690270
H154	H	1.355587	0.088470	-0.190270
O155	O	1.316168	-0.375881	-0.934372
O156	O	1.816168	0.124119	-0.434372
H157	H	1.257213	-0.415967	-0.966371
H158	H	1.757213	0.084033	-0.466371
O159	O	1.624759	-0.748471	-0.418127
O160	O	2.124759	-0.248471	0.081873
H161	H	1.607503	-0.734448	-0.334005
H162	H	2.107503	-0.234448	0.165995
H163	H	1.413096	-0.937218	-0.629667
H164	H	1.913096	-0.437218	-0.129667
H165	H	1.369829	-0.605717	-0.672591
H166	H	1.869829	-0.105717	-0.172591
O167	O	1.111111	-0.366707	-0.730738
O168	O	1.611111	0.133293	-0.230738
H169	H	1.161318	-0.406459	-0.696991
H170	H	1.661318	0.093541	-0.196991
H171	H	1.342333	-0.379835	-1.126531
H172	H	1.842333	0.120165	-0.626531
H173	H	1.106322	-0.263468	-0.662363
H174	H	1.606322	0.236532	-0.162363
H175	H	1.686020	-0.321003	-1.122535
H176	H	2.186020	0.178997	-0.622535
H177	H	1.402923	-0.249167	-0.936622
H178	H	1.902923	0.250833	-0.436622
O179	O	0.914614	-0.249348	-0.675838
O180	O	1.414614	0.250652	-0.175838
H181	H	0.863002	-0.227068	-0.613099
H182	H	1.363002	0.272932	-0.113099
O183	O	1.403466	-0.860143	-0.639170
O184	O	1.903466	-0.360143	-0.139170
H185	H	1.448747	-0.893518	-0.695300
H186	H	1.948747	-0.393518	-0.195300
O187	O	1.634502	-0.596005	-0.408277
O188	O	2.134502	-0.096005	0.091723
H189	H	1.679261	-0.633830	-0.363632
H190	H	2.179261	-0.133830	0.136368
O191	O	1.342766	-0.748480	-0.699706
O192	O	1.842766	-0.248480	-0.199706
H193	H	1.350495	-0.805646	-0.692010
H194	H	1.850495	-0.305646	-0.192010
O195	O	1.617083	-0.815855	-0.425895
O196	O	2.117083	-0.315855	0.074105
H197	H	1.571799	-0.782486	-0.369761
H198	H	2.071799	-0.282486	0.130239
O199	O	1.444534	-0.464797	-1.143371
O200	O	1.944534	0.035203	-0.643371
H201	H	1.515250	-0.462470	-1.195335
H202	H	2.015250	0.037530	-0.695335
H203	H	1.440044	-0.447641	-0.949534
H204	H	1.940044	0.052359	-0.449534
H205	H	1.640858	-0.413021	-1.127372
H206	H	2.140858	0.086979	-0.627372
O207	O	1.569459	-0.210468	-1.124270
O208	O	2.069459	0.289532	-0.624270
H209	H	1.568160	-0.208550	-1.211863
H210	H	2.068160	0.291450	-0.711863
O211	O	1.119989	-0.211301	-0.467831
O212	O	1.619989	0.288699	0.032169
H213	H	1.054010	-0.175737	-0.478149
H214	H	1.554010	0.324263	0.021851
