data_functionalizedCrystal
_audit_creation_method	'MofGen! by Chris Wilmer'
_symmetry_space_group_name_H-M	'P1'
_symmetry_Int_Tables_number	1
_symmetry_cell_setting	triclinic
loop_
_symmetry_equiv_pos_as_xyz
  x,y,z
_cell_length_a	16.959454
_cell_length_b	15.297475
_cell_length_c	15.296720
_cell_angle_alpha	88.382886
_cell_angle_beta	80.351722
_cell_angle_gamma	80.323279
loop_
_atom_site_label
_atom_site_type_symbol
_atom_site_fract_x
_atom_site_fract_y
_atom_site_fract_z
Zn1	Zn	-0.615181	1.253421	0.726635
Zn2	Zn	-0.729000	1.278688	0.580157
Zn3	Zn	-0.570776	1.132298	0.554873
Zn4	Zn	-0.721230	1.106914	0.701285
O5	O	-0.659047	1.192830	0.640738
O6	O	-0.652115	1.379352	0.728395
O7	O	-0.692679	1.280466	0.454228
O8	O	-0.466067	1.148414	0.577685
O9	O	-0.735737	1.397915	0.620778
O10	O	-0.498691	1.237403	0.703878
O11	O	-0.576432	1.172914	0.435651
O12	O	-0.568898	1.006352	0.553104
O13	O	-0.722495	1.105151	0.827223
O14	O	-0.679437	0.987702	0.660673
O15	O	-0.644581	1.212790	0.845848
O16	O	-0.838569	1.255853	0.596198
O17	O	-0.832860	1.129651	0.685190
C18	C	-0.618506	0.965244	0.601395
C19	C	-0.601185	0.867878	0.584584
C20	C	-0.782854	0.554738	0.760885
C21	C	-0.799134	0.646218	0.776677
C22	C	-0.749648	0.701637	0.728655
C23	C	-0.683879	0.665567	0.664839
C24	C	-0.667601	0.574078	0.649041
C25	C	-0.634395	0.720978	0.616811
C26	C	-0.568627	0.684908	0.552995
C27	C	-0.552351	0.593428	0.537200
C28	C	-0.601837	0.538009	0.585221
C29	C	-0.650673	0.812467	0.632609
C30	C	-0.535421	0.831808	0.520765
C31	C	-0.519141	0.740327	0.504973
C32	C	-0.864398	1.192759	0.640710
C33	C	-0.952266	1.192804	0.640741
C34	C	-1.320817	1.127199	0.687084
C35	C	-1.326729	1.258690	0.594523
C36	C	-1.244176	1.258660	0.594509
C37	C	-1.199940	1.192899	0.640783
C38	C	-1.238256	1.127167	0.687070
C39	C	-1.205852	1.324386	0.548216
C40	C	-1.123295	1.324359	0.548200
C41	C	-1.079058	1.258601	0.594479
C42	C	-1.117379	1.192866	0.640769
C43	C	-1.073143	1.127105	0.687042
C44	C	-1.111464	1.061373	0.733338
C45	C	-1.194019	1.061408	0.733349
C46	C	-0.996503	1.258566	0.594468
C47	C	-0.990582	1.127072	0.687028
C48	C	-0.452900	1.192922	0.640788
C49	C	-0.365053	1.192961	0.640810
C50	C	-0.687624	1.153320	0.869207
C51	C	-0.699803	1.136484	0.966567
C52	C	-0.699746	1.421305	0.680234
C53	C	-0.717090	1.518668	0.697066
C54	C	-0.630532	1.232237	0.413166
C55	C	-0.618162	1.249243	0.315836
C56	C	-0.571876	1.313198	1.279796
C57	C	-0.560436	1.329022	1.188322
C58	C	-0.595276	1.280889	1.132879
C59	C	-0.641559	1.216928	1.168918
C60	C	-0.653005	1.201107	1.260401
C61	C	-0.676406	1.168798	1.113484
C62	C	-0.722688	1.104838	1.149523
C63	C	-0.734131	1.089019	1.240998
C64	C	-0.699291	1.137153	1.296441
C65	C	-0.664960	1.184620	1.022001
C66	C	-0.746089	1.072529	1.002606
C67	C	-0.757528	1.056705	1.094080
H68	H	-0.588584	0.463516	0.572369
H69	H	-1.225228	1.007892	0.771039
H70	H	-0.965304	1.312080	0.556770
Cl71	Cl	-0.528091	1.373708	1.349500
H72	H	-1.352022	1.073684	0.724779
H73	H	-0.704223	0.841826	0.684570
Cl74	Cl	-1.261468	1.407056	0.490054
Cl75	Cl	-1.382341	1.341357	0.536354
H76	H	-0.495126	0.876931	0.481661
H77	H	-0.774460	1.033337	0.957464
H78	H	-0.585960	1.293777	1.058398
H79	H	-0.498805	0.564064	0.485228
Cl80	Cl	-1.075130	1.406998	0.490010
H81	H	-0.627275	1.236696	0.992667
Cl82	Cl	-0.436463	0.694971	0.424750
H83	H	-0.522755	1.381101	1.158987
H84	H	-1.075436	1.007826	0.771009
H85	H	-0.708603	1.124272	1.370927
Cl86	Cl	-0.815712	0.976302	1.139397
Cl87	Cl	-0.770114	0.816643	0.748512
Cl88	Cl	-0.881811	0.691558	0.856898
Cl89	Cl	-0.792331	1.008627	1.286304
H90	H	-0.954571	1.073523	0.724714
Cl91	Cl	-0.845071	0.485069	0.821228
