data_functionalizedCrystal
_audit_creation_method	'MofGen! by Chris Wilmer'
_symmetry_space_group_name_H-M	'P1'
_symmetry_Int_Tables_number	1
_symmetry_cell_setting	triclinic
loop_
_symmetry_equiv_pos_as_xyz
  x,y,z
_cell_length_a	19.077105
_cell_length_b	21.295417
_cell_length_c	19.076919
_cell_angle_alpha	92.266620
_cell_angle_beta	90.076224
_cell_angle_gamma	87.726672
loop_
_atom_site_label
_atom_site_type_symbol
_atom_site_fract_x
_atom_site_fract_y
_atom_site_fract_z
Zn1	Zn	1.058236	-0.304534	-0.440387
Zn2	Zn	1.391569	0.028799	-0.107054
Zn3	Zn	1.724902	0.362132	0.226280
Zn4	Zn	1.062864	-0.405747	-0.322870
Zn5	Zn	1.396197	-0.072414	0.010463
Zn6	Zn	1.729531	0.260919	0.343796
Zn7	Zn	0.945454	-0.296102	-0.318181
Zn8	Zn	1.278788	0.037232	0.015152
Zn9	Zn	1.612121	0.370565	0.348485
Zn10	Zn	0.940686	-0.405368	-0.435623
Zn11	Zn	1.274019	-0.072034	-0.102289
Zn12	Zn	1.607352	0.261299	0.231044
O13	O	1.001810	-0.352938	-0.379265
O14	O	1.335143	-0.019605	-0.045932
O15	O	1.668477	0.313729	0.287401
O16	O	1.157181	-0.321649	-0.428754
O17	O	1.490514	0.011685	-0.095421
O18	O	1.823848	0.345018	0.237912
O19	O	1.051222	-0.387832	-0.223917
O20	O	1.384555	-0.054499	0.109416
O21	O	1.717889	0.278834	0.442749
O22	O	0.960474	-0.209134	-0.334424
O23	O	1.293807	0.124199	-0.001091
O24	O	1.627140	0.457532	0.332243
O25	O	1.160581	-0.396009	-0.342415
O26	O	1.493915	-0.062676	-0.009082
O27	O	1.827248	0.270657	0.324251
O28	O	1.043334	-0.215330	-0.424208
O29	O	1.376667	0.118004	-0.090875
O30	O	1.710000	0.451337	0.242459
O31	O	0.964962	-0.307276	-0.220472
O32	O	1.298295	0.026057	0.112861
O33	O	1.631628	0.359390	0.446194
O34	O	0.846490	-0.306908	-0.329804
O35	O	1.179824	0.026425	0.003529
O36	O	1.513157	0.359758	0.336863
O37	O	0.952346	-0.395362	-0.534586
O38	O	1.285680	-0.062029	-0.201252
O39	O	1.619013	0.271304	0.132081
O40	O	0.842987	-0.387185	-0.416088
O41	O	1.176320	-0.053852	-0.082754
O42	O	1.509654	0.279481	0.250579
O43	O	1.038710	-0.321280	-0.538086
O44	O	1.372043	0.012053	-0.204753
O45	O	1.705376	0.345386	0.128581
O46	O	1.046598	-0.493783	-0.337795
O47	O	1.379931	-0.160450	-0.004462
O48	O	1.713265	0.172883	0.328871
O49	O	0.956834	-0.493504	-0.420634
O50	O	1.290168	-0.160171	-0.087301
O51	O	1.623501	0.173162	0.246032
C52	C	0.819242	-0.346091	-0.371921
C53	C	1.152576	-0.012758	-0.038587
C54	C	1.485909	0.320576	0.294746
C55	C	0.741139	-0.343178	-0.368795
C56	C	1.074472	-0.009844	-0.035462
C57	C	1.407805	0.323489	0.297872
C58	C	0.702642	-0.383663	-0.412179
C59	C	1.035976	-0.050330	-0.078846
C60	C	1.369309	0.283003	0.254487
C61	C	0.629255	-0.380918	-0.409246
C62	C	0.962589	-0.047584	-0.075913
C63	C	1.295922	0.285749	0.257421
C64	C	0.594366	-0.337689	-0.362924
C65	C	0.927699	-0.004356	-0.029591
C66	C	1.261033	0.328978	0.303742
C67	C	0.632868	-0.297199	-0.319538
C68	C	0.966201	0.036134	0.013795
C69	C	1.299534	0.369468	0.347128
C70	C	0.706253	-0.299942	-0.322476
C71	C	1.039586	0.033391	0.010858
C72	C	1.372920	0.366725	0.344191
C73	C	0.375080	-0.324994	-0.349333
C74	C	0.708414	0.008339	-0.016000
C75	C	1.041747	0.341672	0.317334
C76	C	0.301690	-0.322256	-0.346397
C77	C	0.635023	0.011078	-0.013064
C78	C	0.968356	0.344411	0.320269
C79	C	0.298082	-0.405974	-0.436106
C80	C	0.631416	-0.072640	-0.102773
C81	C	0.964749	0.260693	0.230560
C82	C	0.371470	-0.408715	-0.439037
C83	C	0.704803	-0.075382	-0.105703
C84	C	1.038136	0.257951	0.227630
C85	C	0.409965	-0.368223	-0.395653
C86	C	0.743298	-0.034890	-0.062320
C87	C	1.076631	0.298443	0.271013
N88	N	0.519353	-0.334883	-0.359923
N89	N	0.852686	-0.001550	-0.026590
N90	N	1.186020	0.331784	0.306743
N91	N	0.484976	-0.371027	-0.398658
N92	N	0.818310	-0.037693	-0.065325
N93	N	1.151643	0.295640	0.268008
C94	C	1.001719	-0.516485	-0.379223
C95	C	1.335053	-0.183151	-0.045889
C96	C	1.668386	0.150182	0.287444
C97	C	1.001744	-0.586454	-0.379231
C98	C	1.335077	-0.253121	-0.045897
C99	C	1.668411	0.080213	0.287436
C100	C	1.048522	-0.619448	-0.336144
C101	C	1.381855	-0.286115	-0.002811
C102	C	1.715189	0.047219	0.330523
C103	C	1.048554	-0.685192	-0.336161
C104	C	1.381888	-0.351859	-0.002828
C105	C	1.715221	-0.018526	0.330505
C106	C	1.001796	-0.717939	-0.379257
C107	C	1.335130	-0.384606	-0.045924
C108	C	1.668463	-0.051273	0.287410
C109	C	0.955015	-0.684937	-0.422352
C110	C	1.288348	-0.351604	-0.089019
C111	C	1.621681	-0.018271	0.244315
C112	C	0.954989	-0.619195	-0.422339
C113	C	1.288322	-0.285862	-0.089006
C114	C	1.621655	0.047472	0.244328
N115	N	0.940111	-0.819089	-0.382141
N116	N	1.273444	-0.485755	-0.048807
N117	N	1.606777	-0.152422	0.284526
N118	N	0.940138	-0.881541	-0.382149
N119	N	1.273471	-0.548208	-0.048816
N120	N	1.606804	-0.214875	0.284517
C121	C	1.001873	-0.916018	-0.379300
C122	C	1.335207	-0.582685	-0.045967
C123	C	1.668540	-0.249352	0.287366
N124	N	1.063583	-0.885683	-0.376429
N125	N	1.396916	-0.552350	-0.043096
N126	N	1.730250	-0.219016	0.290238
N127	N	1.063555	-0.823224	-0.376417
N128	N	1.396888	-0.489891	-0.043084
N129	N	1.730222	-0.156558	0.290250
C130	C	1.001820	-0.789226	-0.379276
C131	C	1.335153	-0.455893	-0.045943
C132	C	1.668486	-0.122560	0.287390
C133	C	1.048690	-1.020300	-0.336230
C134	C	1.382024	-0.686967	-0.002897
C135	C	1.715357	-0.353633	0.330436
C136	C	1.048724	-1.086046	-0.336252
C137	C	1.382057	-0.752712	-0.002919
C138	C	1.715390	-0.419379	0.330414
C139	C	0.955178	-1.085789	-0.422439
C140	C	1.288511	-0.752456	-0.089106
C141	C	1.621845	-0.419122	0.244227
C142	C	0.955151	-1.020045	-0.422421
C143	C	1.288484	-0.686712	-0.089088
C144	C	1.621817	-0.353378	0.244245
C145	C	1.001906	-0.987304	-0.379313
C146	C	1.335240	-0.653971	-0.045979
C147	C	1.668573	-0.320638	0.287354
C148	C	1.185090	-0.359812	-0.386639
C149	C	1.518424	-0.026479	-0.053306
C150	C	1.851757	0.306855	0.280027
C151	C	1.263193	-0.362741	-0.389782
C152	C	1.596527	-0.029408	-0.056448
C153	C	1.929860	0.303925	0.276885
C154	C	0.994480	-0.359220	-0.562545
C155	C	1.327813	-0.025886	-0.229212
C156	C	1.661146	0.307447	0.104122
C157	C	0.991356	-0.361897	-0.640648
C158	C	1.324689	-0.028563	-0.307314
C159	C	1.658023	0.304770	0.026019
C160	C	1.001919	-0.188754	-0.379324
C161	C	1.335253	0.144580	-0.045991
C162	C	1.668586	0.477913	0.287342
C163	C	1.001966	-0.118788	-0.379349
C164	C	1.335299	0.214545	-0.046016
C165	C	1.668633	0.547879	0.287317
C166	C	1.034851	-0.324586	-0.679164
C167	C	1.368184	0.008748	-0.345831
C168	C	1.701518	0.342081	-0.012497
C169	C	1.031907	-0.327098	-0.752550
C170	C	1.365241	0.006235	-0.419216
C171	C	1.698574	0.339569	-0.085883
C172	C	0.985472	-0.366925	-0.787418
C173	C	1.318805	-0.033592	-0.454084
C174	C	1.652139	0.299741	-0.120751
C175	C	0.941972	-0.404238	-0.748896
C176	C	1.275306	-0.070905	-0.415563
C177	C	1.608639	0.262429	-0.082229
C178	C	0.944913	-0.401722	-0.675512
C179	C	1.278246	-0.068388	-0.342178
C180	C	1.611579	0.264945	-0.008845
C181	C	0.971853	-0.378584	-1.006698
C182	C	1.305186	-0.045250	-0.673364
C183	C	1.638519	0.288083	-0.340031
C184	C	0.968917	-0.381099	-1.080087
C185	C	1.302250	-0.047765	-0.746754
C186	C	1.635584	0.285568	-0.413421
C187	C	1.058852	-0.303958	-1.083736
C188	C	1.392185	0.029376	-0.750402
C189	C	1.725518	0.362709	-0.417069
C190	C	1.061791	-0.301448	-1.010350
C191	C	1.395124	0.031886	-0.677017
C192	C	1.728458	0.365219	-0.343683
C193	C	1.018289	-0.338758	-0.971835
C194	C	1.351622	-0.005424	-0.638501
C195	C	1.684955	0.327909	-0.305168
N196	N	0.982464	-0.369496	-0.862429
N197	N	1.315797	-0.036163	-0.529096
N198	N	1.649130	0.297171	-0.195763
N199	N	1.021294	-0.336183	-0.896824
N200	N	1.354627	-0.002850	-0.563491
N201	N	1.687961	0.330483	-0.230157
C202	C	1.009152	-0.346637	-0.196700
C203	C	1.342485	-0.013303	0.136633
C204	C	1.675819	0.320030	0.469966
C205	C	1.012412	-0.343787	-0.118604
C206	C	1.345745	-0.010454	0.214730
C207	C	1.679079	0.322879	0.548063
H208	H	0.731044	-0.418867	-0.449897
H209	H	1.064377	-0.085533	-0.116564
H210	H	1.397711	0.247800	0.216769
H211	H	1.086649	-0.712061	-0.301075
H212	H	1.419983	-0.378728	0.032258
H213	H	1.753316	-0.045395	0.365591
H214	H	0.936440	-0.408974	-0.975347
H215	H	1.269774	-0.075640	-0.642014
H216	H	1.603107	0.257693	-0.308681
H217	H	0.737596	-0.266971	-0.287151
H218	H	1.070929	0.066362	0.046182
H219	H	1.404262	0.399695	0.379516
H220	H	0.399871	-0.443918	-0.476755
H221	H	0.733205	-0.110585	-0.143422
H222	H	1.066538	0.222749	0.189912
H223	H	1.086595	-0.592792	-0.301045
H224	H	1.419928	-0.259459	0.032289
H225	H	1.753261	0.073874	0.365622
O226	O	0.904740	-1.121098	-0.468920
O227	O	1.238074	-0.787765	-0.135587
O228	O	1.571407	-0.454431	0.197746
H229	H	0.912613	-1.172357	-0.461688
H230	H	1.245946	-0.839023	-0.128355
H231	H	1.579280	-0.505690	0.204978
O232	O	0.904680	-0.984450	-0.468874
O233	O	1.238013	-0.651117	-0.135541
O234	O	1.571346	-0.317784	0.197792
H235	H	0.872162	-1.018264	-0.498837
H236	H	1.205496	-0.684930	-0.165504
H237	H	1.538829	-0.351597	0.167830
H238	H	0.904161	-0.436664	-0.777291
H239	H	1.237494	-0.103330	-0.443958
H240	H	1.570828	0.230003	-0.110625
H241	H	0.909487	-0.432098	-0.644152
H242	H	1.242821	-0.098764	-0.310819
H243	H	1.576154	0.234569	0.022515
O244	O	1.084935	-0.281629	-0.641557
O245	O	1.418269	0.051705	-0.308224
O246	O	1.751602	0.385038	0.025110
H247	H	1.114680	-0.256102	-0.680672
H248	H	1.448014	0.077231	-0.347338
H249	H	1.781347	0.410564	-0.014005
O250	O	1.099186	-1.121638	-0.289785
O251	O	1.432519	-0.788304	0.043548
O252	O	1.765853	-0.454971	0.376882
H253	H	1.069208	-1.149237	-0.252759
H254	H	1.402541	-0.815903	0.080574
H255	H	1.735875	-0.482570	0.413907
O256	O	1.078823	-0.286860	-0.794095
O257	O	1.412157	0.046473	-0.460762
O258	O	1.745490	0.379807	-0.127429
H259	H	1.111614	-0.258750	-0.757521
H260	H	1.444947	0.074583	-0.424188
H261	H	1.778281	0.407917	-0.090854
H262	H	0.931101	-0.413532	-1.108474
H263	H	1.264435	-0.080199	-0.775141
H264	H	1.597768	0.253135	-0.441808
O265	O	0.904573	-0.720251	-0.468828
O266	O	1.237907	-0.386918	-0.135494
O267	O	1.571240	-0.053584	0.197839
H268	H	0.912443	-0.771509	-0.461591
H269	H	1.245776	-0.438176	-0.128257
H270	H	1.579109	-0.104843	0.205076
H271	H	0.597915	-0.413886	-0.444573
H272	H	0.931248	-0.080553	-0.111240
H273	H	1.264582	0.252781	0.222093
H274	H	1.099606	-0.269018	-0.981966
H275	H	1.432939	0.064316	-0.648632
H276	H	1.766272	0.397649	-0.315299
O277	O	0.904521	-0.583601	-0.468799
O278	O	1.237854	-0.250268	-0.135466
O279	O	1.571187	0.083066	0.197868
H280	H	0.872006	-0.617414	-0.498765
H281	H	1.205339	-0.284080	-0.165432
H282	H	1.538672	0.049253	0.167902
O283	O	1.105767	-0.263710	-1.125270
O284	O	1.439101	0.069623	-0.791937
O285	O	1.772434	0.402957	-0.458603
H286	H	1.094311	-0.213375	-1.110705
H287	H	1.427644	0.119958	-0.777372
H288	H	1.760977	0.453292	-0.444038
H289	H	0.266732	-0.438939	-0.471428
H290	H	0.600065	-0.105606	-0.138094
H291	H	0.933399	0.227727	0.195239
H292	H	0.604455	-0.261999	-0.281825
H293	H	0.937788	0.071334	0.051508
H294	H	1.271121	0.404668	0.384842
O295	O	1.099127	-0.984975	-0.289756
O296	O	1.432461	-0.651642	0.043578
O297	O	1.765794	-0.318308	0.376911
H298	H	1.089347	-0.995284	-0.234113
H299	H	1.422680	-0.661951	0.099220
H300	H	1.756014	-0.328617	0.432554
O301	O	0.264054	-0.275624	-0.296439
O302	O	0.597388	0.057709	0.036894
O303	O	0.930721	0.391042	0.370227
H304	H	0.303150	-0.247923	-0.266770
H305	H	0.636483	0.085410	0.066563
H306	H	0.969817	0.418744	0.399896
O307	O	0.416597	-0.281342	-0.302521
O308	O	0.749931	0.051991	0.030812
O309	O	1.083264	0.385325	0.364145
H310	H	0.380006	-0.250834	-0.269807
H311	H	0.713339	0.082500	0.063526
H312	H	1.046672	0.415833	0.396860
