data_functionalizedCrystal
_audit_creation_method	'MofGen! by Chris Wilmer'
_symmetry_space_group_name_H-M	'P1'
_symmetry_Int_Tables_number	1
_symmetry_cell_setting	triclinic
loop_
_symmetry_equiv_pos_as_xyz
  x,y,z
_cell_length_a	8.497374
_cell_length_b	8.497374
_cell_length_c	16.120530
_cell_angle_alpha	92.902542
_cell_angle_beta	92.899701
_cell_angle_gamma	90.005237
loop_
_atom_site_label
_atom_site_type_symbol
_atom_site_fract_x
_atom_site_fract_y
_atom_site_fract_z
Zn1	Zn	1.014365	0.750826	1.274551
Zn2	Zn	0.750630	1.014571	1.274544
Zn3	Zn	0.737222	0.737404	1.135172
Zn4	Zn	1.000990	1.001161	1.135152
O5	O	0.875802	0.875991	1.204855
O6	O	0.990588	0.797042	1.391216
O7	O	0.528089	0.977800	1.256062
O8	O	0.773972	0.518423	1.153672
O9	O	0.796823	0.990815	1.391211
O10	O	0.977587	0.528284	1.256073
O11	O	0.518239	0.774166	1.153666
O12	O	0.761004	0.761162	1.018503
O13	O	1.223526	0.967958	1.153638
O14	O	0.954793	0.954943	1.018488
O15	O	1.233352	0.784038	1.256053
O16	O	0.783854	1.233554	1.256042
O17	O	0.967793	1.223701	1.153631
C18	C	0.854993	0.855142	0.988245
C19	C	0.846128	0.846261	0.895579
C20	C	1.287281	0.875992	1.204848
C21	C	1.465926	0.876009	1.204850
C22	C	0.875824	1.285869	1.204844
C23	C	0.875800	1.464516	1.204866
C24	C	0.829957	0.830010	0.725916
C25	C	0.921762	0.922088	0.684633
C26	C	0.912764	0.913045	0.590227
C27	C	0.838953	0.839050	0.820331
C28	C	0.896693	0.896922	1.422310
C29	C	0.905595	0.905841	1.514976
H30	H	1.007117	1.007707	0.720191
Cl31	Cl	0.698182	0.697827	0.671020
