data_functionalizedCrystal
_audit_creation_method	'MofGen! by Chris Wilmer'
_symmetry_space_group_name_H-M	'P1'
_symmetry_Int_Tables_number	1
_symmetry_cell_setting	triclinic
loop_
_symmetry_equiv_pos_as_xyz
  x,y,z
_cell_length_a	20.875492
_cell_length_b	23.096457
_cell_length_c	20.875625
_cell_angle_alpha	92.969759
_cell_angle_beta	60.168684
_cell_angle_gamma	58.317085
loop_
_atom_site_label
_atom_site_type_symbol
_atom_site_fract_x
_atom_site_fract_y
_atom_site_fract_z
Zr1	Zr	0.740651	0.517301	-0.122774
O2	O	0.881813	0.413093	-0.232545
O3	O	0.599488	0.554072	-0.084025
O4	O	0.740653	0.540841	-0.225198
O5	O	0.740646	0.431270	0.014188
O6	O	0.740655	0.636121	-0.225202
O7	O	0.740648	0.426324	-0.091372
O8	O	0.488137	0.659789	0.027330
O9	O	0.993164	0.407602	-0.238344
O10	O	0.657552	0.635030	-0.073662
O11	O	0.657549	0.567616	0.005120
O12	O	0.823752	0.552038	-0.161093
O13	O	0.823749	0.484623	-0.082312
Zr14	Zr	0.740651	0.677151	0.045576
Zr15	Zr	0.740654	0.669261	-0.122780
Zr16	Zr	0.740648	0.525190	0.045583
Zr17	Zr	0.918243	0.508544	-0.132023
Zr18	Zr	0.563058	0.685907	0.054825
O19	O	0.881813	0.640379	0.006828
O20	O	0.881817	0.629161	-0.232554
O21	O	0.881808	0.424310	0.006837
O22	O	0.599488	0.781359	0.155347
O23	O	0.599493	0.770141	-0.084034
O24	O	0.599484	0.565290	0.155356
O25	O	0.740655	0.763181	-0.091386
O26	O	0.740648	0.653610	0.148000
O27	O	0.740646	0.558330	0.148004
O28	O	0.740653	0.768128	0.014174
O29	O	0.993166	0.528391	-0.238349
O30	O	0.488135	0.666061	0.161151
O31	O	0.488137	0.786849	0.161146
O32	O	0.488140	0.780578	0.027325
O33	O	0.993162	0.413873	-0.104523
O34	O	0.993164	0.534662	-0.104528
O35	O	0.657549	0.642414	0.083895
O36	O	0.657552	0.709829	0.005114
O37	O	0.823752	0.626836	-0.082317
O38	O	0.823749	0.559421	-0.003536
C39	C	0.518510	0.608179	-0.027030
C40	C	0.443117	0.611896	-0.023103
C41	C	0.740647	0.407146	-0.038591
C42	C	0.740646	0.342635	-0.038588
C43	C	0.469063	0.555398	-0.082619
C44	C	0.398237	0.558891	-0.078958
C45	C	0.301466	0.618880	-0.015777
C46	C	0.275519	0.675383	0.043741
C47	C	0.346345	0.671892	0.040076
C48	C	0.083063	0.635568	0.001759
C49	C	0.012238	0.639053	0.005421
C50	C	0.134961	0.522562	-0.117279
C51	C	0.205782	0.519074	-0.120936
C52	C	0.179830	0.575579	-0.061420
N53	N	0.229068	0.622450	-0.012032
N54	N	0.252227	0.572011	-0.065169
C55	C	0.653893	0.355650	0.007042
C56	C	0.653892	0.295035	0.007046
C57	C	0.740648	0.221404	-0.038597
C58	C	0.827411	0.208390	-0.084230
C59	C	0.827410	0.269006	-0.084226
N60	N	0.805225	0.092288	-0.108888
N61	N	0.805221	0.034708	-0.108890
C62	C	0.740656	0.038770	-0.038611
N63	N	0.676082	0.102593	0.031670
N64	N	0.676085	0.160179	0.031671
C65	C	0.740659	0.155671	-0.038606
C66	C	0.653897	-0.013938	0.007027
C67	C	0.653899	-0.074556	0.007033
C68	C	0.827421	-0.161201	-0.084251
C69	C	0.827416	-0.100582	-0.084249
C70	C	0.740651	-0.026954	-0.038611
C71	C	0.962791	0.586273	-0.050168
C72	C	1.038184	0.582556	-0.054094
C73	C	0.740654	0.587357	-0.249187
C74	C	0.740656	0.584008	-0.320659
C75	C	0.740654	0.787306	-0.038607
C76	C	0.740656	0.851817	-0.038609
C77	C	0.740658	0.634925	-0.354239
C78	C	0.740651	0.631780	-0.421390
C79	C	0.740648	0.577715	-0.454963
C80	C	0.740643	0.526796	-0.421377
C81	C	0.740643	0.529944	-0.354224
C82	C	0.740640	0.562673	-0.655800
C83	C	0.740643	0.559527	-0.722959
C84	C	0.740649	0.664512	-0.722966
C85	C	0.740656	0.667653	-0.655814
C86	C	0.740645	0.616737	-0.622232
N87	N	0.740644	0.574498	-0.523604
N88	N	0.740643	0.619958	-0.553589
C89	C	0.740647	0.607094	0.171990
C90	C	0.740645	0.610443	0.243461
C91	C	0.518513	0.798258	-0.027038
C92	C	0.443122	0.866487	-0.023114
C93	C	0.518506	0.618047	0.183559
C94	C	0.443112	0.625114	0.258957
C95	C	0.518510	0.808127	0.183551
C96	C	0.443117	0.879705	0.258946
C97	C	0.962791	0.386325	-0.260749
C98	C	1.038184	0.314747	-0.336144
C99	C	0.962788	0.396193	-0.050160
C100	C	1.038179	0.327965	-0.054084
C101	C	0.962795	0.576404	-0.260756
C102	C	1.038189	0.569338	-0.336155
C103	C	0.407718	0.859484	-0.062398
C104	C	0.336889	0.923585	-0.058728
C105	C	0.301462	0.994689	-0.015768
C106	C	0.336873	1.001690	0.023518
C107	C	0.407705	0.937590	0.019842
C108	C	0.407706	0.667476	0.335492
C109	C	0.336876	0.674113	0.406342
C110	C	0.301447	0.638391	0.400656
C111	C	0.336860	0.596023	0.324113
C112	C	0.407694	0.589382	0.253264
C113	C	0.407713	0.948515	0.253230
C114	C	0.336884	1.015775	0.324065
C115	C	0.301455	1.014223	0.400616
C116	C	0.336865	0.945406	0.406331
C117	C	0.407698	0.878147	0.335496
C118	C	1.073596	0.245936	-0.330428
C119	C	1.144448	0.178675	-0.401264
C120	C	1.179881	0.180227	-0.477816
C121	C	1.144466	0.249044	-0.483530
C122	C	1.073620	0.316303	-0.412695
C123	C	1.073591	0.334967	-0.014807
C124	C	1.144439	0.270864	-0.018497
C125	C	1.179869	0.199760	-0.061460
C126	C	1.144454	0.192759	-0.100742
C127	C	1.073612	0.256860	-0.097056
C128	C	1.073595	0.605069	-0.330442
C129	C	1.144426	0.598444	-0.401280
C130	C	1.179855	0.556083	-0.477830
C131	C	1.144442	0.520351	-0.483540
C132	C	1.073607	0.526981	-0.412703
H133	H	0.547857	0.506542	-0.134059
H134	H	0.740634	0.521213	-0.628463
C135	C	0.169067	0.741371	0.113241
N136	N	0.088886	0.791073	0.165591
H137	H	1.044751	0.244660	-0.268102
H138	H	1.237533	0.550690	-0.535503
H139	H	0.436550	0.949792	0.190905
H140	H	0.325212	0.717898	0.088541
H141	H	0.740652	0.673241	-0.448730
C142	C	1.183444	0.250738	-0.567744
N143	N	1.212798	0.252012	-0.631176
C144	C	0.740635	0.500050	-0.759886
N145	N	0.740630	0.455254	-0.787700
C146	C	0.223518	0.645711	0.478601
N147	N	0.164817	0.651232	0.537312
C148	C	0.740652	0.727133	-0.618885
N149	N	0.740649	0.771934	-0.591069
C150	C	0.740650	0.720523	-0.759906
N151	N	0.740644	0.762714	-0.787727
C152	C	0.297886	1.079913	0.070778
N153	N	0.268513	1.138832	0.106380
C154	C	1.183424	0.114538	-0.147985
N155	N	1.212770	0.055621	-0.183560
C156	C	0.446670	0.706773	0.341766
N157	N	0.476017	0.736370	0.346498
H158	H	0.308004	0.566940	0.319496
C159	C	1.034632	0.651677	-0.246245
N160	N	1.005284	0.686788	-0.182828
H161	H	0.898057	0.258402	-0.121382
H162	H	0.156080	0.476559	-0.165735
C163	C	0.558454	0.309350	0.057241
N164	N	0.486570	0.320133	0.095047
H165	H	0.740634	0.482777	-0.448714
C166	C	0.740651	0.473926	-0.317293
N167	N	0.740658	0.431731	-0.289477
H168	H	0.436512	0.554889	0.190949
H169	H	1.173299	0.485860	-0.545876
C170	C	0.922843	0.127395	-0.134440
N171	N	0.994725	0.066387	-0.172259
H172	H	1.173271	0.122648	-0.396595
H173	H	0.436515	0.822122	0.340162
C174	C	0.297926	0.720730	0.490532
N175	N	0.268588	0.755844	0.553942
H176	H	1.173262	0.276580	0.013495
C177	C	0.297936	1.091466	0.317761
N178	N	0.268601	1.148475	0.313010
H179	H	0.583243	0.415598	0.044199
C180	C	1.257806	0.106233	-0.555729
N181	N	1.316495	0.050498	-0.614411
C182	C	0.446680	0.781274	-0.109666
N183	N	0.476026	0.722368	-0.145275
C184	C	1.183372	0.637752	-0.394981
N185	N	1.212704	0.667357	-0.390234
C186	C	1.257793	0.129253	-0.065502
N187	N	1.316482	0.076151	-0.068541
C188	C	0.223529	1.088217	0.478530
N189	N	0.164831	1.143952	0.537211
C190	C	0.297875	0.943712	0.490546
N191	N	0.268499	0.942440	0.553979
C192	C	0.558455	0.067057	0.057238
N193	N	0.486567	0.128061	0.095059
C194	C	1.034663	0.391993	-0.418996
N195	N	1.005323	0.449002	-0.423748
H196	H	1.044788	0.497880	-0.417365
C197	C	1.034636	0.413176	0.032454
N198	N	1.005304	0.472080	0.068047
H199	H	0.308066	0.917869	-0.090719
C200	C	1.034656	0.249146	-0.140256
N201	N	1.005316	0.243330	-0.172796
C202	C	0.054505	0.697723	0.067233
N203	N	0.032994	0.744541	0.116551
C204	C	0.740661	0.694402	-0.317314
N205	N	0.740658	0.739204	-0.289501
C206	C	0.426787	0.496727	-0.144417
N207	N	0.448293	0.449899	-0.193719
H208	H	0.284576	0.470234	-0.172395
H209	H	0.436523	0.943303	0.051837
C210	C	-0.094218	0.705044	0.074933
N211	N	-0.174398	0.754743	0.127289
H212	H	0.898059	-0.221151	-0.121415
C213	C	0.558459	-0.060233	0.057227
N214	N	0.486572	-0.049445	0.095031
H215	H	0.243785	1.046878	-0.012780
C216	C	0.922852	-0.114902	-0.134459
N217	N	0.994739	-0.125691	-0.172281
