data_functionalizedCrystal
_audit_creation_method	'MofGen! by Chris Wilmer'
_symmetry_space_group_name_H-M	'P1'
_symmetry_Int_Tables_number	1
_symmetry_cell_setting	triclinic
loop_
_symmetry_equiv_pos_as_xyz
  x,y,z
_cell_length_a	10.967926
_cell_length_b	11.026644
_cell_length_c	9.482900
_cell_angle_alpha	78.598751
_cell_angle_beta	92.549900
_cell_angle_gamma	83.620415
loop_
_atom_site_label
_atom_site_type_symbol
_atom_site_fract_x
_atom_site_fract_y
_atom_site_fract_z
O1	O	1.656937	-0.216440	0.294232
O2	O	1.308304	-0.219129	0.206886
O3	O	1.453729	-0.039754	0.243321
O4	O	1.511512	-0.395814	0.257797
O5	O	1.424223	-0.076343	0.477721
O6	O	1.278798	-0.255717	0.441286
O7	O	1.627431	-0.253029	0.528632
Cu8	Cu	1.450420	-0.257714	0.506361
Cu9	Cu	1.485314	-0.214444	0.229156
O10	O	1.482006	-0.432403	0.492197
C11	C	1.248224	-0.234463	0.312729
C12	C	1.113163	-0.225627	0.278891
C13	C	1.037664	-0.240642	0.385231
C14	C	0.898071	-0.231511	0.350260
C15	C	1.428316	-0.012329	0.357848
C16	C	1.396538	0.123901	0.349877
C17	C	1.687510	-0.237694	0.422785
C18	C	1.822572	-0.246528	0.456615
C19	C	1.451454	0.334321	0.363640
C20	C	1.484301	0.193522	0.371867
N21	N	1.425886	-0.288147	0.701335
C22	C	1.507420	0.540173	0.377667
C23	C	1.539204	0.403945	0.385627
N24	N	1.509856	-0.184001	0.034185
C25	C	1.478068	-0.223413	0.786608
C26	C	1.457666	-0.248744	0.948914
H27	H	1.074456	-0.206009	0.161960
H28	H	1.569633	-0.109817	0.987038
H29	H	1.297088	0.168525	0.324956
H30	H	1.537842	-0.149234	0.739456
C31	C	0.845806	-0.205018	0.192283
H32	H	0.911275	-0.196776	0.130101
H33	H	0.803141	-0.271978	0.176195
H34	H	0.790770	-0.129937	0.173087
C35	C	0.874841	-0.273029	0.614590
H36	H	0.961806	-0.275699	0.617375
H37	H	0.841301	-0.208860	0.660380
H38	H	0.853677	-0.350899	0.663470
H39	H	1.352010	0.378953	0.338719
C40	C	1.345131	-0.388353	0.765022
H41	H	1.342020	-0.392239	0.865757
H42	H	1.264368	-0.367627	0.719934
H43	H	1.379203	-0.467028	0.748683
H44	H	1.638654	0.359322	0.410490
C45	C	1.618649	0.133247	0.405532
H46	H	1.623101	0.046520	0.406656
H47	H	1.668157	0.170770	0.333622
H48	H	1.647564	0.145248	0.497110
H49	H	1.076370	-0.260250	0.502162
C50	C	1.376907	-0.348955	1.012594
H51	H	1.373796	-0.352841	1.113330
H52	H	1.296144	-0.328229	0.967506
H53	H	1.410979	-0.427630	0.996255
