data_functionalizedCrystal
_audit_creation_method	'MofGen! by Chris Wilmer'
_symmetry_space_group_name_H-M	'P1'
_symmetry_Int_Tables_number	1
_symmetry_cell_setting	triclinic
loop_
_symmetry_equiv_pos_as_xyz
  x,y,z
_cell_length_a	21.395362
_cell_length_b	21.395362
_cell_length_c	21.395355
_cell_angle_alpha	89.956060
_cell_angle_beta	90.020549
_cell_angle_gamma	89.954332
loop_
_atom_site_label
_atom_site_type_symbol
_atom_site_fract_x
_atom_site_fract_y
_atom_site_fract_z
Zn1	Zn	0.249246	0.957863	-0.354577
Zn2	Zn	0.749246	1.457863	0.145423
Zn3	Zn	0.354005	0.957768	-0.249796
Zn4	Zn	0.854005	1.457768	0.250204
Zn5	Zn	0.249275	0.853078	-0.249778
Zn6	Zn	0.749275	1.353078	0.250222
Zn7	Zn	0.354018	0.853049	-0.354500
Zn8	Zn	0.854018	1.353049	0.145500
O9	O	0.301636	0.905440	-0.302163
O10	O	0.801636	1.405440	0.197837
O11	O	0.263125	1.045529	-0.340717
O12	O	0.763125	1.545529	0.159283
O13	O	0.340119	0.943852	-0.162115
O14	O	0.840119	1.443852	0.337885
O15	O	0.161593	0.867031	-0.263704
O16	O	0.661593	1.367031	0.236296
O17	O	0.340091	1.045458	-0.263734
O18	O	0.840091	1.545458	0.236266
O19	O	0.161572	0.944016	-0.340700
O20	O	0.661572	1.444016	0.159300
O21	O	0.263174	0.866938	-0.162102
O22	O	0.763174	1.366938	0.337898
O23	O	0.263187	0.765397	-0.263630
O24	O	0.763187	1.265397	0.236370
O25	O	0.340113	0.866981	-0.442188
O26	O	0.840113	1.366981	0.057812
O27	O	0.340141	0.765375	-0.340569
O28	O	0.840141	1.265375	0.159431
O29	O	0.263137	0.943988	-0.442245
O30	O	0.763137	1.443988	0.057755
O31	O	0.441685	0.943824	-0.263660
O32	O	0.941685	1.443824	0.236340
O33	O	0.441695	0.866888	-0.340586
O34	O	0.941695	1.366888	0.159414
C35	C	0.301669	0.742652	-0.302090
C36	C	0.801669	1.242652	0.197910
C37	C	0.301698	0.673011	-0.302074
C38	C	0.801698	1.173011	0.197926
C39	C	0.464424	0.905360	-0.302130
C40	C	0.964424	1.405360	0.197870
C41	C	0.534065	0.905383	-0.302138
C42	C	1.034065	1.405383	0.197862
C43	C	0.341822	0.640303	-0.342076
C44	C	0.841822	1.140303	0.157924
C45	C	0.341806	0.574867	-0.342104
C46	C	0.841806	1.074867	0.157896
C47	C	0.301674	0.542142	-0.302118
C48	C	0.801674	1.042142	0.197882
C49	C	0.261543	0.574858	-0.262113
C50	C	0.761543	1.074858	0.237887
C51	C	0.261555	0.640292	-0.262091
C52	C	0.761555	1.140292	0.237909
C53	C	0.296627	0.438418	-0.245713
C54	C	0.796627	0.938418	0.254287
C55	C	0.296619	0.372985	-0.245735
C56	C	0.796619	0.872985	0.254265
C57	C	0.301633	0.340322	-0.302188
C58	C	0.801633	0.840322	0.197812
C59	C	0.306668	0.373100	-0.358621
C60	C	0.806668	0.873100	0.141379
C61	C	0.306681	0.438534	-0.358599
C62	C	0.806681	0.938534	0.141401
C63	C	0.301656	0.471190	-0.302138
C64	C	0.801656	0.971190	0.197862
C65	C	0.341742	0.236661	-0.342223
C66	C	0.841742	0.736661	0.157777
C67	C	0.341723	0.171225	-0.342252
C68	C	0.841723	0.671225	0.157748
C69	C	0.261462	0.171217	-0.262256
C70	C	0.761462	0.671217	0.237744
C71	C	0.261479	0.236652	-0.262233
C72	C	0.761479	0.736652	0.237767
C73	C	0.301622	0.269371	-0.302216
C74	C	0.801622	0.769371	0.197784
C75	C	0.138213	0.905537	-0.302209
C76	C	0.638213	1.405537	0.197791
C77	C	0.068571	0.905579	-0.302228
C78	C	0.568571	1.405579	0.197772
C79	C	0.566710	0.945446	-0.342258
C80	C	1.066710	1.445446	0.157742
C81	C	0.632145	0.945468	-0.342273
C82	C	1.132145	1.445468	0.157727
C83	C	0.664933	0.905433	-0.302157
C84	C	1.164933	1.405433	0.197843
C85	C	0.632280	0.865362	-0.262034
C86	C	1.132280	1.365362	0.237966
C87	C	0.566846	0.865337	-0.262025
C88	C	1.066846	1.365337	0.237975
C89	C	0.768635	0.900556	-0.245717
C90	C	1.268635	1.400556	0.254283
C91	C	0.834068	0.900586	-0.245725
C92	C	1.334068	1.400586	0.254275
C93	C	0.866754	0.905508	-0.302187
C94	C	1.366754	1.405508	0.197813
C95	C	0.833999	0.910413	-0.358643
C96	C	1.333999	1.410413	0.141357
C97	C	0.768565	0.910388	-0.358633
C98	C	1.268565	1.410388	0.141367
C99	C	0.735886	0.905456	-0.302163
C100	C	1.235886	1.405456	0.197837
C101	C	0.970351	0.945597	-0.342327
C102	C	1.470351	1.445597	0.157673
C103	C	1.035788	0.945614	-0.342344
C104	C	1.535788	1.445614	0.157656
C105	C	1.035922	0.865512	-0.262100
C106	C	1.535922	1.365512	0.237900
C107	C	0.970486	0.865491	-0.262089
C108	C	1.470486	1.365491	0.237911
C109	C	0.937705	0.905537	-0.302202
C110	C	1.437705	1.405537	0.197798
C111	C	0.301623	0.905492	-0.465586
C112	C	0.801623	1.405492	0.034414
C113	C	0.301618	0.905514	-0.535227
C114	C	0.801618	1.405514	-0.035227
C115	C	0.301603	1.068863	-0.302236
C116	C	0.801603	1.568863	0.197764
C117	C	0.301589	1.138504	-0.302267
C118	C	0.801589	1.638504	0.197733
C119	C	0.261535	0.945609	-0.567971
C120	C	0.761535	1.445609	-0.067971
C121	C	0.261508	0.945609	-0.633406
C122	C	0.761508	1.445609	-0.133406
C123	C	0.301575	0.905519	-0.666096
C124	C	0.801575	1.405519	-0.166096
C125	C	0.341661	0.865415	-0.633344
C126	C	0.841661	1.365415	-0.133344
C127	C	0.341682	0.865413	-0.567910
C128	C	0.841682	1.365413	-0.067910
C129	C	0.357992	0.900544	-0.769758
C130	C	0.857992	1.400544	-0.269758
C131	C	0.357972	0.900551	-0.835191
C132	C	0.857972	1.400551	-0.335191
C133	C	0.301509	0.905523	-0.867917
C134	C	0.801509	1.405523	-0.367917
C135	C	0.245065	0.910501	-0.835202
C136	C	0.745065	1.410501	-0.335202
C137	C	0.245086	0.910499	-0.769767
C138	C	0.745086	1.410499	-0.269767
C139	C	0.301556	0.905517	-0.737048
C140	C	0.801556	1.405517	-0.237048
C141	C	0.261393	0.945619	-0.971613
C142	C	0.761393	1.445619	-0.471613
C143	C	0.261365	0.945614	-1.037049
C144	C	0.761365	1.445614	-0.537049
C145	C	0.341524	0.865424	-1.036986
C146	C	0.841524	1.365424	-0.536986
C147	C	0.341547	0.865426	-0.971551
C148	C	0.841547	1.365426	-0.471551
C149	C	0.301482	0.905527	-0.938868
C150	C	0.801482	1.405527	-0.438868
C151	C	0.301603	0.905424	-0.139375
C152	C	0.801603	1.405424	0.360625
C153	C	0.301432	0.905523	-0.069734
C154	C	0.801432	1.405523	0.430266
H155	H	0.374509	0.666938	-0.374634
H156	H	0.874509	1.166938	0.125366
H157	H	1.062617	0.832911	-0.229440
H158	H	1.562617	1.332911	0.270560
H159	H	0.310778	0.465219	-0.404549
H160	H	0.810778	0.965219	0.095451
F161	F	0.218747	0.136393	-0.219704
F162	F	0.718747	0.636393	0.280296
H163	H	0.292523	0.346302	-0.199783
H164	H	0.792523	0.846302	0.300217
F165	F	0.291291	0.473174	-0.185624
F166	F	0.791291	0.973174	0.314376
F167	F	0.218708	0.988299	-1.071897
F168	F	0.718708	1.488299	-0.571897
H169	H	0.742027	0.896546	-0.199735
H170	H	1.242027	1.396546	0.300265
H171	H	0.540021	0.978052	-0.374922
H172	H	1.040021	1.478052	0.125078
H173	H	0.658980	0.832764	-0.229373
H174	H	1.158980	1.332764	0.270627
F175	F	0.384513	0.540050	-0.384681
F176	F	0.884513	1.040050	0.115319
H177	H	0.943905	0.832871	-0.229417
H178	H	1.443905	1.332871	0.270583
H179	H	0.228910	0.978262	-0.541364
H180	H	0.728910	1.478262	-0.041364
H181	H	0.228880	0.666923	-0.229516
H182	H	0.728880	1.166923	0.270484
F183	F	0.532102	0.822694	-0.219322
F184	F	1.032102	1.322694	0.280678
F185	F	0.218834	0.988275	-0.668261
F186	F	0.718834	1.488275	-0.168261
H187	H	1.062367	0.978239	-0.375017
H188	H	1.562367	1.478239	0.124983
H189	H	0.199128	0.914551	-0.743133
H190	H	0.699128	1.414551	-0.243133
F191	F	0.312003	0.338343	-0.418708
F192	F	0.812003	0.838343	0.081292
H193	H	0.228866	0.548209	-0.229558
H194	H	0.728866	1.048209	0.270442
F195	F	0.384163	0.822753	-1.071772
F196	F	0.884163	1.322753	-0.571772
F197	F	0.384211	0.822753	-0.936701
F198	F	0.884211	1.322753	-0.436701
F199	F	0.868780	0.915654	-0.418738
F200	F	1.368780	1.415654	0.081262
F201	F	0.384426	0.136415	-0.384834
F202	F	0.884426	0.636415	0.115166
H203	H	0.943660	0.978203	-0.374992
H204	H	1.443660	1.478203	0.125008
H205	H	0.403932	0.896501	-0.861822
H206	H	0.903932	1.396501	-0.361822
F207	F	0.418093	0.895266	-0.734934
F208	F	0.918093	1.395266	-0.234934
H209	H	0.658730	0.978087	-0.374951
H210	H	1.158730	1.478087	0.125049
H211	H	0.741897	0.914380	-0.404600
H212	H	1.241897	1.414380	0.095400
F213	F	0.384302	0.822747	-0.668136
F214	F	0.884302	1.322747	-0.168136
F215	F	0.218775	0.271464	-0.219655
F216	F	0.718775	0.771464	0.280345
F217	F	0.184969	0.915795	-0.870025
F218	F	0.684969	1.415795	-0.370025
F219	F	0.218751	0.988295	-0.936827
F220	F	0.718751	1.488295	-0.436827
F221	F	0.384346	0.822736	-0.533061
F222	F	0.884346	1.322736	-0.033061
H223	H	0.374426	0.263302	-0.374783
H224	H	0.874426	0.763302	0.125217
F225	F	0.868922	0.895370	-0.185641
F226	F	1.368922	1.395370	0.314359
