data_functionalizedCrystal
_audit_creation_method	'MofGen! by Chris Wilmer'
_symmetry_space_group_name_H-M	'P1'
_symmetry_Int_Tables_number	1
_symmetry_cell_setting	triclinic
loop_
_symmetry_equiv_pos_as_xyz
  x,y,z
_cell_length_a	15.297475
_cell_length_b	15.299816
_cell_length_c	15.298259
_cell_angle_alpha	91.589838
_cell_angle_beta	88.370891
_cell_angle_gamma	72.651123
loop_
_atom_site_label
_atom_site_type_symbol
_atom_site_fract_x
_atom_site_fract_y
_atom_site_fract_z
Zn1	Zn	1.315458	-0.445990	-0.814641
Zn2	Zn	1.365531	-0.624751	-0.703403
Zn3	Zn	1.195517	-0.454675	-0.644578
Zn4	Zn	1.186790	-0.574474	-0.814626
O5	O	1.265824	-0.524972	-0.744312
O6	O	1.447099	-0.487110	-0.824510
O7	O	1.367586	-0.626866	-0.577880
O8	O	1.194124	-0.328574	-0.642525
O9	O	1.483887	-0.618445	-0.742784
O10	O	1.282244	-0.322194	-0.767470
O11	O	1.242677	-0.501911	-0.534662
O12	O	1.069360	-0.453160	-0.642511
O13	O	1.179250	-0.532755	-0.932348
O14	O	1.062949	-0.541176	-0.767445
O15	O	1.273782	-0.438358	-0.932359
O16	O	1.359124	-0.743030	-0.742769
O17	O	1.227804	-0.706092	-0.824485
C18	C	1.033744	-0.492655	-0.698593
C19	C	0.934458	-0.478847	-0.679059
C20	C	1.297971	-0.756958	-0.790032
C21	C	1.311800	-0.856208	-0.809635
C22	C	0.641454	-0.623668	-0.883932
C23	C	0.734740	-0.636648	-0.902285
C24	C	0.784674	-0.597199	-0.846480
C25	C	0.741313	-0.544767	-0.772319
C26	C	0.648020	-0.531791	-0.753961
C27	C	0.791240	-0.505322	-0.716509
C28	C	0.747879	-0.452890	-0.642348
C29	C	0.654595	-0.439916	-0.623994
C30	C	0.604661	-0.479366	-0.679798
C31	C	0.884533	-0.518298	-0.734867
C32	C	0.891099	-0.426422	-0.604896
C33	C	0.797813	-0.413441	-0.586544
C34	C	1.167515	-1.149622	-0.604607
C35	C	1.154518	-1.056370	-0.586190
C36	C	1.193837	-1.006325	-0.642049
C37	C	1.246156	-1.049541	-0.716329
C38	C	1.259149	-1.142799	-0.734752
C39	C	1.285471	-0.999503	-0.772194
C40	C	1.337790	-1.042718	-0.846474
C41	C	1.350781	-1.135968	-0.864893
C42	C	1.311462	-1.186013	-0.809034
C43	C	1.272478	-0.906244	-0.753772
C44	C	1.364112	-0.899422	-0.883917
C45	C	1.377110	-0.992674	-0.902334
C46	C	1.498810	-0.557417	-0.790210
C47	C	1.598095	-0.571242	-0.809769
C48	C	1.219957	-0.478979	-0.963730
C49	C	1.200412	-0.459380	-1.057233
C50	C	1.233572	-0.292080	-0.698438
C51	C	1.219828	-0.192836	-0.678889
C52	C	1.405453	-0.664369	-1.410803
C53	C	1.423813	-0.682789	-1.322952
C54	C	1.367965	-0.626938	-1.256518
C55	C	1.293752	-0.552665	-1.277943
C56	C	1.275386	-0.534248	-1.365802
C57	C	1.237898	-0.496816	-1.211518
C58	C	1.163685	-0.422543	-1.232942
C59	C	1.145323	-0.404129	-1.320793
C60	C	1.201171	-0.459979	-1.387227
C61	C	1.256264	-0.515234	-1.123659
C62	C	1.126197	-0.385112	-1.078658
C63	C	1.107837	-0.366692	-1.166508
C64	C	1.311555	-0.570729	-0.525746
C65	C	1.331238	-0.590101	-0.432228
H66	H	0.919827	-0.560988	-0.795250
C67	C	0.782442	-0.694345	-0.983835
H68	H	0.845157	-0.696441	-0.986766
H69	H	0.753564	-0.667423	-1.034832
H70	H	0.778051	-0.754789	-0.980207
H71	H	0.860631	-0.607770	-0.861428
C72	C	0.502046	-0.465084	-0.659609
H73	H	0.483370	-0.428207	-0.607451
H74	H	0.491978	-0.522809	-0.652175
H75	H	0.467477	-0.435407	-0.706748
C76	C	1.325692	-1.288571	-0.829337
H77	H	1.362462	-1.307138	-0.881587
H78	H	1.267924	-1.298585	-0.836657
H79	H	1.355467	-1.323261	-0.782305
H80	H	0.619297	-0.397234	-0.563600
C81	C	0.750112	-0.355776	-0.504968
H82	H	0.687404	-0.353705	-0.502028
H83	H	0.754492	-0.295329	-0.508558
H84	H	0.779005	-0.382732	-0.453985
H85	H	1.229879	-0.871067	-0.693292
C86	C	1.064762	-0.323671	-1.005590
H87	H	1.086334	-0.345270	-0.950199
H88	H	1.003544	-0.325359	-1.010735
H89	H	1.066524	-0.262478	-1.010746
C90	C	1.026203	-0.284998	-1.190079
H91	H	0.995572	-0.254366	-1.137936
H92	H	0.984850	-0.306549	-1.223414
H93	H	1.047832	-0.243670	-1.223417
C94	C	0.586528	-0.667056	-0.945306
H95	H	0.524759	-0.651814	-0.923752
H96	H	0.612722	-0.731755	-0.947731
H97	H	0.588203	-0.644353	-1.002305
C98	C	1.337892	-0.596924	-1.100095
H99	H	1.340831	-0.599902	-1.038259
H100	H	1.393090	-0.589201	-1.123745
H101	H	1.330107	-0.652078	-1.123736
H102	H	0.931755	-0.394300	-0.559454
C103	C	1.505447	-0.764475	-1.299389
H104	H	1.536084	-0.795094	-1.351535
H105	H	1.483834	-0.805807	-1.266048
H106	H	1.546801	-0.742913	-1.266058
C107	C	1.179549	-0.903754	-0.621786
H108	H	1.142766	-0.885186	-0.569544
H109	H	1.149777	-0.869109	-0.668839
H110	H	1.237297	-0.893689	-0.614454
H111	H	1.111919	-1.021187	-0.525712
H112	H	1.393378	-1.171150	-0.925380
C113	C	1.466882	-0.725794	-1.483873
H114	H	1.513711	-0.772667	-1.458534
H115	H	1.493904	-0.689871	-1.519083
H116	H	1.430931	-0.752758	-1.519076
C117	C	1.434656	-1.040212	-0.984039
H118	H	1.456221	-0.997059	-1.014668
H119	H	1.397873	-1.064170	-1.021118
H120	H	1.485391	-1.088729	-0.966731
C121	C	1.124272	-1.204671	-0.543171
H122	H	1.139508	-1.266399	-0.564780
H123	H	1.059558	-1.178510	-0.540601
H124	H	1.147085	-1.203078	-0.486225
H125	H	1.382917	-0.641941	-1.184988
C126	C	1.407369	-0.844383	-0.945364
H127	H	1.392146	-0.782658	-0.923749
H128	H	1.384565	-0.845978	-1.002308
H129	H	1.472087	-0.870549	-0.947926
C130	C	1.180973	-0.439715	-1.483863
H131	H	1.128778	-0.387482	-1.487110
H132	H	1.169354	-0.491016	-1.512050
H133	H	1.232329	-0.428130	-1.512044
C134	C	1.063689	-0.322434	-1.344359
H135	H	1.033062	-0.291803	-1.292214
H136	H	1.022333	-0.343981	-1.377693
H137	H	1.085316	-0.281104	-1.377698
