data_functionalizedCrystal
_audit_creation_method	'MofGen! by Chris Wilmer'
_symmetry_space_group_name_H-M	'P1'
_symmetry_Int_Tables_number	1
_symmetry_cell_setting	triclinic
loop_
_symmetry_equiv_pos_as_xyz
  x,y,z
_cell_length_a	11.804365
_cell_length_b	13.339070
_cell_length_c	15.995300
_cell_angle_alpha	80.449446
_cell_angle_beta	101.832837
_cell_angle_gamma	105.125978
loop_
_atom_site_label
_atom_site_type_symbol
_atom_site_fract_x
_atom_site_fract_y
_atom_site_fract_z
O1	O	-0.099056	-1.362637	0.407590
O2	O	-0.099049	-1.068121	0.352496
O3	O	-0.099059	-1.223457	0.260029
O4	O	-0.099046	-1.207300	0.500058
O5	O	0.099000	-1.182563	0.284338
O6	O	0.099010	-1.027226	0.376805
O7	O	0.099002	-1.321743	0.431899
Cu8	Cu	0.117090	-1.170751	0.406572
Cu9	Cu	-0.117137	-1.219113	0.377824
O10	O	0.099012	-1.166406	0.524367
C11	C	-0.000019	-1.009986	0.355344
C12	C	-0.000016	-0.897690	0.327604
N13	N	0.281833	-1.136743	0.426793
C14	C	-0.000033	-1.202352	0.240834
C15	C	-0.000045	-1.200379	0.147421
N16	N	-0.281880	-1.253129	0.357598
C17	C	0.655769	-1.334794	0.309023
C18	C	0.531106	-1.360520	0.293722
C19	C	0.468782	-1.304578	0.326988
C20	C	0.531133	-1.222906	0.375559
C21	C	0.655808	-1.197183	0.390867
C22	C	0.468821	-1.166966	0.408832
C23	C	0.531172	-1.085294	0.457403
C24	C	0.655835	-1.059574	0.472708
C25	C	0.718160	-1.115517	0.439442
C26	C	0.344145	-1.192689	0.393524
C27	C	0.344184	-1.055077	0.475368
C28	C	0.468848	-1.029351	0.490669
C29	C	-0.000016	-0.532850	0.543302
C30	C	-0.000022	-0.638358	0.569367
C31	C	-0.000020	-0.703196	0.508929
C32	C	-0.000013	-0.662516	0.422420
C33	C	-0.000016	-0.556999	0.396350
C34	C	-0.000021	-0.727345	0.361977
C35	C	-0.000014	-0.686665	0.275469
C36	C	-0.000016	-0.581158	0.249404
C37	C	-0.000018	-0.516320	0.309842
C38	C	-0.000017	-0.832862	0.388047
C39	C	-0.000018	-0.857011	0.241096
C40	C	-0.000012	-0.751503	0.215030
C41	C	-0.000025	-0.379877	0.429052
C42	C	-0.000017	-0.492171	0.456793
C43	C	-0.000034	-1.196729	-0.023608
C44	C	-0.000039	-1.307332	-0.045379
C45	C	0.000415	-1.305220	-0.142480
C46	C	-0.000023	-1.193137	-0.191998
C47	C	0.112856	-1.114956	-0.149757
C48	C	0.112946	-1.117737	-0.052462
C49	C	-0.112292	-1.162605	-0.080212
C50	C	-0.113771	-1.162920	-0.177336
C51	C	-0.000014	-1.191100	-0.287164
C52	C	-0.000035	-1.198761	0.071559
C53	C	-0.000016	-1.187512	0.543561
C54	C	-0.000011	-1.189486	0.636973
H55	H	0.367275	-1.325527	0.314528
H56	H	0.480344	-1.427018	0.254177
H57	H	-0.197280	-1.220235	-0.205617
H58	H	0.706522	-1.380341	0.281947
N59	N	0.845504	-1.089245	0.455057
N60	N	0.901128	-1.139196	0.425341
H61	H	0.991067	-1.120643	0.436367
N62	N	0.218651	-1.140322	-0.161366
N63	N	0.318547	-1.086904	-0.132168
H64	H	0.393265	-1.104819	-0.140368
H65	H	-0.000028	-0.789106	0.530156
N66	N	0.102531	-1.337967	-0.152376
N67	N	0.178164	-1.277634	-0.193268
H68	H	0.250293	-1.300757	-0.200255
H69	H	0.080725	-1.334472	-0.005619
N70	N	-0.000007	-0.466634	0.605042
N71	N	-0.000001	-0.502960	0.682280
H72	H	0.000005	-0.456195	0.725890
H73	H	0.706602	-0.993080	0.512265
H74	H	-0.080984	-1.368487	-0.026511
N75	N	-0.219672	-1.230450	-0.057088
N76	N	-0.318415	-1.215411	-0.095376
H77	H	-0.394249	-1.263335	-0.079044
H78	H	-0.000037	-0.671474	0.639801
H79	H	0.519630	-0.962852	0.530217
H80	H	-0.120924	-1.082617	-0.212558
H81	H	-0.000021	-0.909804	0.191881
N82	N	-0.113657	-1.060599	-0.064256
N83	N	-0.117406	-1.044557	0.009825
H84	H	-0.118362	-0.972518	0.021101
N85	N	0.280452	-1.276060	0.343865
N86	N	0.294386	-1.271767	0.267857
H87	H	0.249392	-1.330635	0.232766
N88	N	0.117719	-1.010548	-0.190856
N89	N	0.035059	-0.967819	-0.191369
H90	H	0.038487	-0.894080	-0.220396
H91	H	-0.080482	-1.365042	-0.170856
H92	H	0.293441	-1.009525	0.502459
N93	N	-0.000003	-0.874387	0.476413
N94	N	0.083487	-0.837266	0.532941
H95	H	0.083501	-0.866590	0.595356
H96	H	-0.000024	-0.548043	0.178961
H97	H	-0.000013	-0.430405	0.288624
N98	N	0.000000	-0.709925	0.126670
N99	N	0.000004	-0.615716	0.103412
H100	H	0.000014	-0.586349	0.041007
N101	N	0.219202	-1.145404	-0.004920
N102	N	0.292775	-1.162532	-0.043688
H103	H	0.367822	-1.182074	-0.010115
H104	H	0.117766	-1.035526	-0.038466
