data_functionalizedCrystal
_audit_creation_method	'MofGen! by Chris Wilmer'
_symmetry_space_group_name_H-M	'P1'
_symmetry_Int_Tables_number	1
_symmetry_cell_setting	triclinic
loop_
_symmetry_equiv_pos_as_xyz
  x,y,z
_cell_length_a	14.519709
_cell_length_b	10.654550
_cell_length_c	9.130313
_cell_angle_alpha	89.995631
_cell_angle_beta	90.002092
_cell_angle_gamma	84.082538
loop_
_atom_site_label
_atom_site_type_symbol
_atom_site_fract_x
_atom_site_fract_y
_atom_site_fract_z
O1	O	1.224720	0.164623	-0.121608
O2	O	0.956343	0.184009	-0.121653
O3	O	1.096702	-0.008483	-0.121620
O4	O	1.084361	0.357115	-0.121641
O5	O	1.096692	-0.008488	0.121979
O6	O	0.956334	0.184004	0.121946
O7	O	1.224710	0.164617	0.121991
Cu8	Cu	1.090521	0.174310	0.144211
Cu9	Cu	1.090532	0.174317	-0.143873
O10	O	1.084351	0.357109	0.121958
C11	C	1.095791	-0.055275	0.000178
C12	C	1.093080	-0.194692	0.000176
C13	C	0.921974	0.183103	0.000141
C14	C	0.819579	0.180396	0.000124
C15	C	1.175721	-0.274972	0.000189
C16	C	1.173168	-0.405968	0.000171
C17	C	1.005326	-0.376391	0.000132
C18	C	1.007880	-0.245397	0.000140
C19	C	0.444631	0.170428	0.000191
C20	C	0.548954	0.173196	0.000172
C21	C	0.632102	0.175412	0.000156
C22	C	0.736431	0.178180	0.000140
C23	C	1.259079	0.165524	0.000194
C24	C	1.361475	0.168231	0.000201
C25	C	1.085262	0.403901	0.000156
C26	C	1.087973	0.543318	0.000150
N27	N	1.090520	0.174305	0.346834
N28	N	1.090541	0.174312	-0.346496
C29	C	1.152692	0.089105	0.423500
C30	C	1.152701	0.089105	0.576837
C31	C	1.028362	0.259516	0.576827
C32	C	1.028350	0.259509	0.423493
H33	H	1.245096	-0.233692	0.000215
Br34	Br	0.895716	-0.136436	0.000102
Br35	Br	1.285329	-0.514917	0.000180
Br36	Br	0.943961	0.375135	0.319434
H37	H	0.935959	-0.417692	0.000106
Br38	Br	1.237063	-0.026531	0.319467
H39	H	1.203325	0.019726	0.639254
H40	H	0.977746	0.328889	0.639259
