data_functionalizedCrystal
_audit_creation_method	'MofGen! by Chris Wilmer'
_symmetry_space_group_name_H-M	'P1'
_symmetry_Int_Tables_number	1
_symmetry_cell_setting	triclinic
loop_
_symmetry_equiv_pos_as_xyz
  x,y,z
_cell_length_a	19.288864
_cell_length_b	17.699083
_cell_length_c	17.766277
_cell_angle_alpha	89.992740
_cell_angle_beta	89.976791
_cell_angle_gamma	83.209630
loop_
_atom_site_label
_atom_site_type_symbol
_atom_site_fract_x
_atom_site_fract_y
_atom_site_fract_z
O1	O	0.921465	0.094417	-0.062837
O2	O	0.719219	0.107154	-0.062786
O3	O	0.826056	-0.009412	-0.062806
O4	O	0.814628	0.210983	-0.062817
O5	O	0.826037	-0.009417	0.062382
O6	O	0.719201	0.107148	0.062403
O7	O	0.921446	0.094411	0.062351
Cu8	Cu	0.820322	0.100779	0.073808
Cu9	Cu	0.820344	0.100786	-0.074242
O10	O	0.814609	0.210977	0.062372
C11	C	0.693333	0.106741	-0.000185
C12	C	0.616228	0.105511	-0.000165
C13	C	0.571613	0.173906	-0.000180
C14	C	0.499164	0.172751	-0.000188
C15	C	0.471334	0.103196	-0.000197
C16	C	0.515959	0.034791	-0.000177
C17	C	0.588406	0.035949	-0.000162
C18	C	0.363014	0.048520	-0.044079
C19	C	0.290568	0.047365	-0.044099
C20	C	0.247884	0.099622	-0.000242
C21	C	0.277654	0.153047	0.043625
C22	C	0.350101	0.154204	0.043641
C23	C	0.392779	0.101932	-0.000213
C24	C	0.124712	0.166769	-0.000265
C25	C	0.052262	0.165610	-0.000269
C26	C	0.069059	0.027649	-0.000265
C27	C	0.141507	0.028809	-0.000254
C28	C	0.169329	0.098371	-0.000258
C29	C	0.825637	-0.037611	-0.000212
C30	C	0.824409	-0.121627	-0.000211
C31	C	0.887120	-0.170336	-0.000226
C32	C	0.885961	-0.249278	-0.000232
C33	C	0.822091	-0.279509	-0.000219
C34	C	0.759375	-0.230794	-0.000206
C35	C	0.760535	-0.151854	-0.000205
C36	C	0.754699	-0.549150	-0.000211
C37	C	0.753545	-0.628097	-0.000210
C38	C	0.880126	-0.646575	-0.000238
C39	C	0.881285	-0.567635	-0.000237
C40	C	0.818570	-0.518926	-0.000229
C41	C	0.819827	-0.433329	-0.000223
C42	C	0.820834	-0.365105	-0.000219
C43	C	0.947332	0.094824	-0.000251
C44	C	1.024437	0.096054	-0.000276
C45	C	0.815028	0.239176	-0.000224
C46	C	0.816257	0.323193	-0.000230
N47	N	0.820311	0.100774	0.177938
N48	N	0.820360	0.100786	-0.178372
C49	C	0.867634	0.049184	0.217316
C50	C	0.867638	0.049180	0.296118
C51	C	0.820326	0.100780	0.335539
C52	C	0.772994	0.152374	0.296151
C53	C	0.772987	0.152371	0.217351
C54	C	0.811109	0.169742	0.460375
C55	C	0.811121	0.169746	0.539174
C56	C	0.820344	0.100789	0.578585
C57	C	0.829570	0.031825	0.539188
C58	C	0.829563	0.031822	0.460388
C59	C	0.820328	0.100789	0.420984
C60	C	0.867674	0.049191	0.703409
C61	C	0.867673	0.049186	0.782212
C62	C	0.773033	0.152386	0.782244
C63	C	0.773030	0.152384	0.703442
C64	C	0.820355	0.100787	0.664029
H65	H	0.397762	0.005964	-0.079797
O66	O	0.950177	-0.535035	-0.000258
H67	H	0.953733	-0.499523	0.050769
H68	H	0.803586	0.225898	0.428293
H69	H	0.906166	0.007169	0.185228
O70	O	0.601623	0.248930	-0.000162
H71	H	0.558422	0.296296	-0.000163
H72	H	0.493296	-0.021841	-0.000195
O73	O	0.721990	0.208037	0.660971
H74	H	0.688281	0.176267	0.625101
H75	H	0.709469	-0.112195	-0.000193
O76	O	0.451029	0.246522	-0.000213
H77	H	0.482547	0.295086	-0.000218
H78	H	0.374336	0.197702	0.079362
H79	H	0.703632	-0.509501	-0.000204
O80	O	0.690484	-0.263394	-0.000183
H81	H	0.700212	-0.326469	-0.000175
H82	H	0.906207	0.007171	0.814274
O83	O	0.231626	0.209416	0.090933
H84	H	0.246458	0.201826	0.151056
H85	H	0.939130	-0.145729	-0.000233
H86	H	0.906175	0.007168	0.328185
H87	H	0.734508	0.194397	0.814340
O88	O	0.839538	-0.042554	0.581687
H89	H	0.845963	-0.090505	0.541055
O90	O	0.839379	-0.042600	0.417968
H91	H	0.792936	-0.047261	0.382160
H92	H	0.734471	0.194386	0.328252
H93	H	0.803613	0.225900	0.571245
O94	O	0.953602	-0.301811	-0.000250
H95	H	0.942069	-0.361783	-0.000259
O96	O	0.721950	0.208022	0.174871
H97	H	0.689052	0.243906	0.215518
H98	H	0.147365	0.223410	-0.000257
O99	O	0.004135	0.239383	-0.000282
H100	H	0.035656	0.287944	-0.000288
O101	O	0.636535	-0.037823	-0.000149
H102	H	0.605015	-0.086385	-0.000158
O103	O	0.918704	-0.006465	0.660890
H104	H	0.951604	-0.042351	0.701514
H105	H	0.931192	-0.686243	-0.000249
H106	H	0.701531	-0.652707	-0.000197
H107	H	0.046401	-0.028984	-0.000319
H108	H	0.177834	-0.026886	-0.000246
H109	H	0.266336	0.003866	-0.079822
