data_functionalizedCrystal
_audit_creation_method	'MofGen! by Chris Wilmer'
_symmetry_space_group_name_H-M	'P1'
_symmetry_Int_Tables_number	1
_symmetry_cell_setting	triclinic
loop_
_symmetry_equiv_pos_as_xyz
  x,y,z
_cell_length_a	15.944551
_cell_length_b	16.776229
_cell_length_c	17.699083
_cell_angle_alpha	90.013676
_cell_angle_beta	96.609123
_cell_angle_gamma	89.997350
loop_
_atom_site_label
_atom_site_type_symbol
_atom_site_fract_x
_atom_site_fract_y
_atom_site_fract_z
O1	O	1.114322	-0.066218	-0.097616
O2	O	0.869747	-0.066239	-0.109651
O3	O	0.998944	-0.066208	0.006544
O4	O	0.985125	-0.066248	-0.213811
O5	O	0.998927	0.066368	0.006551
O6	O	0.869730	0.066337	-0.109644
O7	O	1.114305	0.066359	-0.097609
Zn8	Zn	0.992015	0.087397	-0.103625
Zn9	Zn	0.992037	-0.087278	-0.103634
O10	O	0.985107	0.066328	-0.213804
C11	C	0.838445	0.000047	-0.109147
C12	C	0.745203	0.000039	-0.107650
N13	N	0.992005	0.206609	-0.103618
N14	N	0.992053	-0.206489	-0.103635
C15	C	0.530505	0.000069	-0.032046
C16	C	0.469419	-0.065305	-0.067158
C17	C	0.574482	0.000049	-0.104940
C18	C	0.469425	0.065405	-0.067168
C19	C	0.409575	0.000062	-0.102317
C20	C	0.514625	-0.065378	-0.140071
C21	C	0.514637	0.065391	-0.140071
C22	C	0.453569	0.000001	-0.175235
C23	C	0.669481	0.000041	-0.106449
C24	C	0.314577	0.000065	-0.100814
C25	C	1.145606	0.000071	-0.098112
C26	C	1.238849	0.000073	-0.099610
C27	C	0.998440	0.000083	0.034746
C28	C	0.996955	0.000093	0.118766
C29	C	1.049231	0.248339	-0.052188
C30	C	1.049236	0.331792	-0.052187
C31	C	0.992018	0.373512	-0.103621
C32	C	0.934786	0.331775	-0.155053
C33	C	0.934778	0.248324	-0.155050
C34	C	0.934816	0.668322	-0.155068
C35	C	0.934830	0.751779	-0.155069
C36	C	1.049274	0.751789	-0.052206
C37	C	1.049266	0.668339	-0.052202
C38	C	0.992032	0.626610	-0.103632
C39	C	0.992026	0.536121	-0.103631
C40	C	0.992027	0.463998	-0.103626
C41	C	1.072791	0.000106	0.167258
C42	C	1.071390	0.000107	0.246203
C43	C	0.994152	0.000102	0.276656
C44	C	0.918310	0.000087	0.228158
C45	C	0.919712	0.000079	0.149214
C46	C	0.912656	0.000116	0.546531
C47	C	0.911260	0.000126	0.625481
C48	C	1.064334	0.000144	0.643520
C49	C	1.065735	0.000136	0.564576
C50	C	0.989894	0.000117	0.516085
C51	C	0.991414	0.000114	0.430484
C52	C	0.992632	0.000111	0.362256
C53	C	0.985611	0.000063	0.757995
C54	C	0.987097	0.000133	0.673975
H55	H	0.563965	-0.000001	0.028449
H56	H	1.133144	0.000120	0.285683
H57	H	1.126087	0.000156	0.683011
C58	C	1.150703	0.000142	0.531083
N59	N	1.214702	0.000143	0.505858
C60	C	1.112169	0.377692	0.004408
N61	N	1.159565	0.412263	0.047045
H62	H	0.848360	0.000123	0.650272
C63	C	0.871878	0.797669	-0.211648
N64	N	0.824464	0.832234	-0.254260
H65	H	0.534555	-0.120707	-0.170882
H66	H	0.420283	-0.000047	-0.235793
C67	C	0.541745	0.140046	-0.181680
N68	N	0.562166	0.196282	-0.213014
C69	C	0.442342	-0.139952	-0.025509
N70	N	0.421948	-0.196173	0.005865
H71	H	0.855422	0.000077	0.252959
C72	C	0.829227	0.000090	0.493201
N73	N	0.766385	0.000068	0.453030
H74	H	0.888178	0.214348	-0.196928
H75	H	1.095875	0.785774	-0.010327
H76	H	0.449396	0.120672	-0.036320
C77	C	1.112208	0.622451	0.004380
N78	N	1.159615	0.587890	0.047002
H79	H	0.888215	0.634353	-0.196945
C80	C	1.112176	0.202455	0.004394
N81	N	1.159586	0.167897	0.047016
C82	C	0.871838	0.377670	-0.211624
N83	N	0.824423	0.412237	-0.254234
C84	C	1.157760	0.000112	0.133768
N85	N	1.221761	0.000113	0.108546
C86	C	0.836286	0.000067	0.095873
N87	N	0.773447	0.000056	0.055698
