data_functionalizedCrystal
_audit_creation_method	'MofGen! by Chris Wilmer'
_symmetry_space_group_name_H-M	'P1'
_symmetry_Int_Tables_number	1
_symmetry_cell_setting	triclinic
loop_
_symmetry_equiv_pos_as_xyz
  x,y,z
_cell_length_a	14.519731
_cell_length_b	13.596369
_cell_length_c	9.065218
_cell_angle_alpha	89.995874
_cell_angle_beta	95.647631
_cell_angle_gamma	90.005416
loop_
_atom_site_label
_atom_site_type_symbol
_atom_site_fract_x
_atom_site_fract_y
_atom_site_fract_z
O1	O	1.225273	0.081789	-0.193547
O2	O	1.558607	0.415123	0.139787
O3	O	1.891940	0.748456	0.473120
O4	O	0.956966	0.081791	-0.216289
O5	O	1.290299	0.415124	0.117045
O6	O	1.623632	0.748457	0.450378
O7	O	1.096665	0.081788	0.009828
O8	O	1.429999	0.415121	0.343161
O9	O	1.763332	0.748455	0.676495
O10	O	1.085574	0.081792	-0.419663
O11	O	1.418907	0.415125	-0.086330
O12	O	1.752240	0.748459	0.247003
O13	O	1.096651	-0.081795	0.009840
O14	O	1.429985	0.251538	0.343173
O15	O	1.763318	0.584872	0.676507
O16	O	0.956952	-0.081792	-0.216277
O17	O	1.290285	0.251541	0.117057
O18	O	1.623618	0.584874	0.450390
O19	O	1.225259	-0.081793	-0.193535
O20	O	1.558593	0.251540	0.139799
O21	O	1.891926	0.584873	0.473132
Zn22	Zn	1.091103	-0.107765	-0.204904
Zn23	Zn	1.424436	0.225568	0.128430
Zn24	Zn	1.757770	0.558901	0.461763
Zn25	Zn	1.091122	0.107762	-0.204919
Zn26	Zn	1.424455	0.441096	0.128414
Zn27	Zn	1.757789	0.774429	0.461747
O28	O	1.085560	-0.081791	-0.419651
O29	O	1.418893	0.251542	-0.086318
O30	O	1.752226	0.584876	0.247015
C31	C	0.922591	-0.000001	-0.215217
C32	C	1.255925	0.333333	0.118116
C33	C	1.589258	0.666666	0.451450
C34	C	0.820188	-0.000000	-0.212024
C35	C	1.153521	0.333333	0.121310
C36	C	1.486854	0.666666	0.454643
C37	C	0.737025	0.000004	-0.209429
C38	C	1.070358	0.333337	0.123904
C39	C	1.403691	0.666670	0.457237
C40	C	0.632692	0.000004	-0.206187
C41	C	0.966025	0.333337	0.127146
C42	C	1.299359	0.666671	0.460480
C43	C	0.549534	0.000004	-0.203614
C44	C	0.882868	0.333337	0.129719
C45	C	1.216201	0.666671	0.463053
C46	C	0.445195	0.000006	-0.200372
C47	C	0.778528	0.333339	0.132961
C48	C	1.111862	0.666673	0.466294
N49	N	1.091097	-0.254857	-0.204892
N50	N	1.424430	0.078476	0.128441
N51	N	1.757764	0.411810	0.461775
C52	C	1.091121	-0.656148	-0.204921
C53	C	1.424454	-0.322815	0.128412
C54	C	1.757787	0.010519	0.461746
C55	C	1.091111	-0.544497	-0.204918
C56	C	1.424445	-0.211163	0.128415
C57	C	1.757778	0.122170	0.461749
C58	C	1.091109	-0.455506	-0.204908
C59	C	1.424443	-0.122173	0.128426
C60	C	1.757776	0.211161	0.461759
C61	C	1.091099	-0.343848	-0.204902
C62	C	1.424433	-0.010514	0.128431
C63	C	1.757766	0.322819	0.461764
C64	C	1.259634	0.000000	-0.194606
C65	C	1.592967	0.333333	0.138727
C66	C	1.926300	0.666667	0.472060
C67	C	1.362037	0.000006	-0.197799
C68	C	1.695371	0.333339	0.135534
C69	C	2.028704	0.666673	0.468867
C70	C	1.095592	-0.000002	0.064801
C71	C	1.428926	0.333331	0.398134
C72	C	1.762259	0.666665	0.731468
C73	C	1.092405	0.000003	0.228584
C74	C	1.425738	0.333336	0.561918
C75	C	1.759072	0.666669	0.895251
N76	N	1.091135	0.254854	-0.204919
N77	N	1.424468	0.588187	0.128414
N78	N	1.757802	0.921521	0.461747
C79	C	1.086633	0.000001	-0.474624
C80	C	1.419966	0.333334	-0.141291
C81	C	1.753299	0.666668	0.192043
C82	C	1.089820	0.000003	-0.638408
C83	C	1.423153	0.333336	-0.305074
C84	C	1.756487	0.666670	0.028259
