data_functionalizedCrystal
_audit_creation_method	'MofGen! by Chris Wilmer'
_symmetry_space_group_name_H-M	'P1'
_symmetry_Int_Tables_number	1
_symmetry_cell_setting	triclinic
loop_
_symmetry_equiv_pos_as_xyz
  x,y,z
_cell_length_a	15.995350
_cell_length_b	8.140239
_cell_length_c	9.065218
_cell_angle_alpha	90.001330
_cell_angle_beta	95.745870
_cell_angle_gamma	90.002179
loop_
_atom_site_label
_atom_site_type_symbol
_atom_site_fract_x
_atom_site_fract_y
_atom_site_fract_z
O1	O	-1.112424	0.136467	0.190159
O2	O	-0.868827	0.136500	0.213642
O3	O	-0.995661	0.136480	-0.012860
O4	O	-0.985590	0.136488	0.416662
O5	O	-0.995657	-0.136747	-0.012862
O6	O	-0.868823	-0.136727	0.213640
O7	O	-1.112420	-0.136760	0.190158
Zn8	Zn	-0.990621	-0.180124	0.201899
Zn9	Zn	-0.990626	0.179865	0.201901
O10	O	-0.985586	-0.136739	0.416660
C11	C	-0.837623	-0.000109	0.212670
C12	C	-0.744650	-0.000096	0.209760
C13	C	-1.143624	-0.000147	0.191129
C14	C	-1.236597	-0.000149	0.194040
C15	C	-0.994691	-0.000131	-0.067825
C16	C	-0.991797	-0.000123	-0.231600
C17	C	-0.406824	-0.000130	0.199308
C18	C	-0.453034	-0.000743	0.037997
C19	C	-0.549747	-0.000116	0.040908
C20	C	-0.574423	-0.000114	0.204492
C21	C	-0.533942	0.155907	0.284057
C22	C	-0.437276	0.156026	0.280005
C23	C	-0.436957	-0.154684	0.283336
C24	C	-0.533902	-0.156735	0.283298
C25	C	-0.669143	-0.000100	0.207431
C26	C	-0.312103	-0.000134	0.196374
N27	N	-0.990623	-0.425806	0.201897
N28	N	-0.990630	0.425547	0.201892
C29	C	-0.986556	-0.000125	0.471625
C30	C	-0.989450	-0.000122	0.635400
H31	H	-0.577699	-0.111958	-0.021634
H32	H	-0.405925	0.163107	0.398436
H33	H	-0.418529	0.272654	0.221984
F34	F	-0.409595	-0.309261	0.214401
F35	F	-0.428179	-0.146991	-0.046284
H36	H	-0.548978	0.161709	0.404238
F37	F	-0.426786	0.144685	-0.045903
F38	F	-0.585518	0.146555	-0.041056
F39	F	-0.396623	-0.156064	0.438790
F40	F	-0.570481	0.307678	0.211829
H41	H	-0.560777	-0.272159	0.225216
F42	F	-0.555162	-0.169051	0.439224
