data_functionalizedCrystal
_audit_creation_method	'MofGen! by Chris Wilmer'
_symmetry_space_group_name_H-M	'P1'
_symmetry_Int_Tables_number	1
_symmetry_cell_setting	triclinic
loop_
_symmetry_equiv_pos_as_xyz
  x,y,z
_cell_length_a	10.723022
_cell_length_b	15.995350
_cell_length_c	9.198806
_cell_angle_alpha	89.999047
_cell_angle_beta	89.996352
_cell_angle_gamma	83.979800
loop_
_atom_site_label
_atom_site_type_symbol
_atom_site_fract_x
_atom_site_fract_y
_atom_site_fract_z
O1	O	1.655691	0.117428	-0.120875
O2	O	2.155691	0.617428	0.379125
O3	O	1.292395	0.128671	-0.120879
O4	O	1.792395	0.628671	0.379121
O5	O	1.483974	0.001219	-0.120876
O6	O	1.983974	0.501219	0.379124
O7	O	1.464112	0.244880	-0.120879
O8	O	1.964112	0.744880	0.379121
O9	O	1.483959	0.001218	0.120909
O10	O	1.983959	0.501218	0.620909
O11	O	1.292380	0.128670	0.120906
O12	O	1.792380	0.628670	0.620906
O13	O	1.655676	0.117428	0.120910
O14	O	2.155676	0.617428	0.620910
Cu15	Cu	1.474026	0.123049	0.142985
Cu16	Cu	1.974026	0.623049	0.642985
Cu17	Cu	1.474044	0.123050	-0.142954
Cu18	Cu	1.974044	0.623050	0.357046
O19	O	1.464097	0.244880	0.120906
O20	O	1.964097	0.744880	0.620906
C21	C	1.245898	0.127853	0.000013
C22	C	1.745898	0.627853	0.500013
C23	C	1.107375	0.125406	0.000011
C24	C	1.607375	0.625406	0.500011
C25	C	1.483145	-0.029981	0.000014
C26	C	1.983145	0.470019	0.500014
C27	C	1.480683	-0.122945	0.000006
C28	C	1.980683	0.377055	0.500006
C29	C	1.059751	0.051909	0.000011
C30	C	1.559751	0.551909	0.500011
C31	C	0.916581	0.049378	0.000009
C32	C	1.416581	0.549378	0.500009
C33	C	1.471843	-0.460744	0.000011
C34	C	1.971843	0.039256	0.500011
C35	C	1.335404	-0.414093	-0.000533
C36	C	1.835404	0.085907	0.499467
C37	C	1.337866	-0.317388	0.000012
C38	C	1.837866	0.182612	0.500012
C39	C	1.476228	-0.293158	0.000007
C40	C	1.976228	0.206842	0.500007
C41	C	1.543516	-0.333849	0.138077
C42	C	2.043516	0.166151	0.638077
C43	C	1.540088	-0.430505	0.138192
C44	C	2.040088	0.069495	0.638192
C45	C	1.542924	-0.430846	-0.136763
C46	C	2.042924	0.069154	0.363237
C47	C	1.542892	-0.333901	-0.138587
C48	C	2.042892	0.166099	0.361413
C49	C	1.478713	-0.198446	0.000010
C50	C	1.978713	0.301554	0.500010
C51	C	1.469361	-0.555456	0.000017
C52	C	1.969361	-0.055456	0.500017
C53	C	1.702172	0.118246	0.000015
C54	C	2.202172	0.618246	0.500015
C55	C	1.840696	0.120693	0.000007
C56	C	2.340696	0.620693	0.500007
C57	C	1.464925	0.276079	0.000013
C58	C	1.964925	0.776079	0.500013
C59	C	1.467387	0.369044	0.000012
C60	C	1.967387	0.869044	0.500012
N61	N	1.474023	0.123048	0.344099
N62	N	1.974023	0.623048	0.844099
N63	N	1.474058	0.123044	-0.344068
N64	N	1.974058	0.623044	0.155932
C65	C	1.554464	0.069299	0.416297
C66	C	2.054464	0.569299	0.916297
C67	C	1.554484	0.069296	0.583709
C68	C	2.054484	0.569296	1.083709
H69	H	0.875572	-0.013550	-0.000028
H70	H	1.375572	0.486450	0.499972
O71	O	1.146139	-0.028962	0.000020
O72	O	1.646139	0.471038	0.500020
H73	H	1.128382	-0.065958	-0.098532
H74	H	1.628382	0.434042	0.401468
O75	O	1.263163	-0.439070	-0.131668
O76	O	1.763163	0.060930	0.368332
H77	H	1.312118	-0.422272	-0.232170
H78	H	1.812118	0.077728	0.267830
H79	H	1.498322	-0.451642	-0.241411
H80	H	1.998322	0.048358	0.258589
H81	H	1.405189	0.169066	0.593854
H82	H	1.905189	0.669066	1.093854
O83	O	1.382818	0.184017	0.426363
O84	O	1.882818	0.684017	0.926363
H85	H	1.322070	0.148495	0.495738
H86	H	1.822070	0.648495	0.995738
O87	O	0.894992	0.204058	0.000024
O88	O	1.394992	0.704058	0.500024
H89	H	0.862944	0.240181	-0.098516
H90	H	1.362944	0.740181	0.401484
O91	O	1.020996	0.206280	0.000005
O92	O	1.520996	0.706280	0.500005
H93	H	1.038773	0.243278	0.098549
H94	H	1.538773	0.743278	0.598549
H95	H	1.491009	-0.449088	0.241404
H96	H	1.991009	0.050912	0.741404
H97	H	1.284973	-0.289270	-0.098962
H98	H	1.784973	0.210730	0.401038
H99	H	1.281106	-0.433999	0.097926
H100	H	1.781106	0.066001	0.597926
O101	O	1.267345	-0.280873	0.131350
O102	O	1.767345	0.219127	0.631350
H103	H	1.231356	-0.332298	0.194730
H104	H	1.731356	0.167702	0.694730
H105	H	1.493696	-0.306935	-0.240727
H106	H	1.993696	0.193065	0.259273
H107	H	1.623358	0.023282	0.645797
H108	H	2.123358	0.523282	1.145797
O109	O	1.645674	0.008333	0.334034
O110	O	2.145674	0.508333	0.834034
H111	H	1.629506	-0.056999	0.363183
H112	H	2.129506	0.443001	0.863183
O113	O	1.672765	-0.472472	0.146532
O114	O	2.172765	0.027528	0.646532
H115	H	1.726701	-0.453647	0.051117
H116	H	2.226701	0.046353	0.551117
O117	O	1.678161	-0.314362	0.144904
O118	O	2.178161	0.185638	0.644904
H119	H	1.698596	-0.275371	0.049737
H120	H	2.198596	0.224629	0.549737
H121	H	1.496768	-0.305736	0.240826
H122	H	1.996768	0.194264	0.740826
H123	H	1.643792	-0.317960	-0.146927
H124	H	2.143792	0.182040	0.353073
H125	H	1.643520	-0.462030	-0.137694
H126	H	2.143520	0.037970	0.362306
