data_functionalizedCrystal
_audit_creation_method	'MofGen! by Chris Wilmer'
_symmetry_space_group_name_H-M	'P1'
_symmetry_Int_Tables_number	1
_symmetry_cell_setting	triclinic
loop_
_symmetry_equiv_pos_as_xyz
  x,y,z
_cell_length_a	12.376897
_cell_length_b	10.654550
_cell_length_c	10.654551
_cell_angle_alpha	95.514868
_cell_angle_beta	77.429771
_cell_angle_gamma	102.553146
loop_
_atom_site_label
_atom_site_type_symbol
_atom_site_fract_x
_atom_site_fract_y
_atom_site_fract_z
O1	O	0.094083	-1.646159	0.154693
O2	O	0.094065	-1.280685	0.171503
O3	O	0.094075	-1.471824	-0.019641
O4	O	0.094073	-1.455020	0.345838
O5	O	-0.093921	-1.515134	0.023725
O6	O	-0.093932	-1.323995	0.214869
O7	O	-0.093913	-1.689469	0.198059
Zn8	Zn	-0.123771	-1.513608	0.213349
Zn9	Zn	0.123922	-1.456546	0.156213
O10	O	-0.093923	-1.498330	0.389203
C11	C	0.000064	-1.255542	0.191953
C12	C	0.000057	-1.116101	0.188263
C13	C	0.000079	-1.492244	-0.044757
C14	C	0.000087	-1.488550	-0.184202
N15	N	-0.292815	-1.552561	0.252343
C16	C	-0.647882	-1.327135	0.026683
C17	C	-0.529552	-1.299852	-0.000612
C18	C	-0.470362	-1.363027	0.062625
C19	C	-0.529513	-1.453490	0.153160
C20	C	-0.647855	-1.480783	0.180450
C21	C	-0.470335	-1.516674	0.216392
C22	C	-0.529487	-1.607137	0.306928
C23	C	-0.647816	-1.634425	0.334214
C24	C	-0.707006	-1.571251	0.270977
C25	C	-0.351993	-1.489381	0.189102
C26	C	-0.351967	-1.643028	0.342870
C27	C	-0.470297	-1.670312	0.370164
N28	N	0.292967	-1.417603	0.117210
C29	C	0.000090	-1.714611	0.177609
C30	C	0.000104	-1.854051	0.181297
C31	C	0.000073	-1.036612	0.300800
C32	C	0.000093	-0.905586	0.297319
C33	C	0.000085	-0.933551	0.068752
C34	C	0.000057	-1.064575	0.072236
C35	C	0.000082	-1.020465	0.432761
C36	C	0.000102	-0.889439	0.429280
C37	C	0.102562	-1.463210	-0.273352
C38	C	0.102556	-1.459731	-0.404371
C39	C	-0.102408	-1.506939	-0.357077
C40	C	-0.102401	-1.510409	-0.226059
C41	C	0.220896	-1.435960	-0.300659
C42	C	0.220891	-1.432481	-0.431678
C43	C	0.000075	-1.477909	0.414318
C44	C	0.000075	-1.481601	0.553762
H45	H	-0.303844	-1.415724	0.115389
F46	F	0.106170	-1.042636	0.463210
F47	F	-0.211477	-1.530199	-0.401636
F48	F	-0.466607	-1.203554	-0.096937
F49	F	-0.710767	-1.730716	0.430558
H50	H	-0.518475	-1.743968	0.443880
F51	F	0.102942	-0.811194	0.470544
F52	F	-0.102754	-1.082499	0.523946
H53	H	-0.303775	-1.694472	0.394361
F54	F	-0.105980	-0.854175	0.505879
F55	F	0.268896	-1.544625	-0.273079
H56	H	-0.185846	-1.531036	-0.153475
F57	F	0.268885	-1.301702	-0.481403
H58	H	0.266332	-1.338704	-0.264859
F59	F	-0.710882	-1.259917	-0.040613
H60	H	0.266330	-1.508804	-0.488451
F61	F	0.000085	-0.878702	-0.054725
F62	F	-0.344424	-1.333986	0.033574
H63	H	-0.803361	-1.593455	0.293202
H64	H	0.000028	-1.129295	-0.019400
