data_functionalizedCrystal
_audit_creation_method	'MofGen! by Chris Wilmer'
_symmetry_space_group_name_H-M	'P1'
_symmetry_Int_Tables_number	1
_symmetry_cell_setting	triclinic
loop_
_symmetry_equiv_pos_as_xyz
  x,y,z
_cell_length_a	23.532407
_cell_length_b	19.188930
_cell_length_c	18.266242
_cell_angle_alpha	90.022918
_cell_angle_beta	89.988983
_cell_angle_gamma	97.003272
loop_
_atom_site_label
_atom_site_type_symbol
_atom_site_fract_x
_atom_site_fract_y
_atom_site_fract_z
O1	O	0.071102	-0.925922	-0.061124
O2	O	0.404435	-0.592589	0.272210
O3	O	0.737769	-0.259256	0.605543
O4	O	0.080673	-0.722581	-0.061074
O5	O	0.414007	-0.389247	0.272259
O6	O	0.747340	-0.055914	0.605592
O7	O	-0.007031	-0.830383	-0.061087
O8	O	0.326302	-0.497050	0.272246
O9	O	0.659636	-0.163717	0.605580
O10	O	0.158806	-0.818120	-0.061111
O11	O	0.492140	-0.484786	0.272222
O12	O	0.825473	-0.151453	0.605556
O13	O	-0.007035	-0.830365	0.060675
O14	O	0.326298	-0.497032	0.394008
O15	O	0.659631	-0.163698	0.727342
O16	O	0.080669	-0.722562	0.060688
O17	O	0.414002	-0.389229	0.394021
O18	O	0.747336	-0.055896	0.727354
O19	O	0.071097	-0.925904	0.060638
O20	O	0.404431	-0.592571	0.393972
O21	O	0.737764	-0.259238	0.727305
Zn22	Zn	0.075882	-0.824230	0.079995
Zn23	Zn	0.409216	-0.490897	0.413329
Zn24	Zn	0.742549	-0.157564	0.746662
Zn25	Zn	0.075888	-0.824254	-0.080431
Zn26	Zn	0.409222	-0.490921	0.252902
Zn27	Zn	0.742555	-0.157588	0.586235
O28	O	0.158802	-0.818102	0.060651
O29	O	0.492135	-0.484768	0.393984
O30	O	0.825469	-0.151435	0.727318
C31	C	0.080361	-0.696561	-0.000187
C32	C	0.413694	-0.363228	0.333146
C33	C	0.747028	-0.029895	0.666480
C34	C	0.079431	-0.619060	-0.000168
C35	C	0.412764	-0.285727	0.333166
C36	C	0.746097	0.047607	0.666499
C37	C	-0.028250	-0.830062	-0.000204
C38	C	0.305083	-0.496729	0.333129
C39	C	0.638417	-0.163395	0.666463
C40	C	-0.091469	-0.829123	-0.000198
C41	C	0.241864	-0.495790	0.333135
C42	C	0.575198	-0.162456	0.666468
N43	N	0.075878	-0.824219	0.189482
N44	N	0.409211	-0.490886	0.522816
N45	N	0.742545	-0.157553	0.856149
C46	C	-0.490449	-0.887029	-0.000252
C47	C	-0.157116	-0.553696	0.333081
C48	C	0.176218	-0.220363	0.666414
C49	C	-0.549851	-0.886157	-0.000258
C50	C	-0.216518	-0.552824	0.333076
C51	C	0.116815	-0.219490	0.666409
O52	O	-0.586482	-0.939837	-0.000298
O53	O	-0.253148	-0.606503	0.333036
O54	O	0.080185	-0.273170	0.666369
N55	N	-0.572613	-0.822068	-0.000242
N56	N	-0.239280	-0.488735	0.333092
N57	N	0.094053	-0.155402	0.666425
C58	C	-0.535970	-0.758848	-0.000228
C59	C	-0.202637	-0.425514	0.333106
C60	C	0.130697	-0.092181	0.666439
O61	O	-0.560786	-0.704255	-0.000215
O62	O	-0.227452	-0.370922	0.333118
O63	O	0.105881	-0.037589	0.666451
C64	C	-0.476569	-0.759721	-0.000228
C65	C	-0.143236	-0.426387	0.333106
C66	C	0.190098	-0.093054	0.666439
C67	C	-0.453810	-0.823814	-0.000236
C68	C	-0.120477	-0.490480	0.333097
C69	C	0.212856	-0.157147	0.666430
C70	C	-0.467690	-0.951117	-0.000262
C71	C	-0.134356	-0.617784	0.333071
C72	C	0.198977	-0.284450	0.666405
C73	C	-0.408292	-0.951989	-0.000255
C74	C	-0.074958	-0.618655	0.333078
C75	C	0.258375	-0.285322	0.666411
C76	C	-0.371653	-0.888773	-0.000239
C77	C	-0.038320	-0.555440	0.333094
C78	C	0.295014	-0.222106	0.666428
C79	C	-0.394412	-0.824685	-0.000230
C80	C	-0.061079	-0.491352	0.333104
C81	C	0.272254	-0.158019	0.666437
C82	C	-0.439927	-0.696501	-0.000219
C83	C	-0.106594	-0.363168	0.333114
C84	C	0.226740	-0.029834	0.666448
C85	C	-0.380523	-0.697379	-0.000219
C86	C	-0.047189	-0.364046	0.333114
C87	C	0.286144	-0.030713	0.666447
C88	C	-0.357764	-0.761472	-0.000228
C89	C	-0.024431	-0.428139	0.333105
C90	C	0.308903	-0.094806	0.666439
C91	C	-0.298376	-0.762342	-0.000207
C92	C	0.034958	-0.429008	0.333127
C93	C	0.368291	-0.095675	0.666460
N94	N	-0.275614	-0.826430	-0.000223
N95	N	0.057720	-0.493097	0.333111
N96	N	0.391053	-0.159764	0.666444
C97	C	-0.312252	-0.889646	-0.000239
C98	C	0.021081	-0.556313	0.333094
C99	C	0.354414	-0.222979	0.666428
C100	C	-0.660717	-0.757019	-0.000229
C101	C	-0.327383	-0.423686	0.333104
C102	C	0.005950	-0.090353	0.666437
C103	C	-0.720116	-0.756146	-0.000224
C104	C	-0.386783	-0.422812	0.333109
C105	C	-0.053450	-0.089479	0.666442
C106	C	-0.733993	-0.883455	-0.000256
C107	C	-0.400660	-0.550122	0.333078
C108	C	-0.067327	-0.216789	0.666411
C109	C	-0.674592	-0.884328	-0.000255
C110	C	-0.341259	-0.550995	0.333078
C111	C	-0.007926	-0.217662	0.666411
C112	C	-0.637954	-0.821108	-0.000245
C113	C	-0.304621	-0.487775	0.333088
C114	C	0.028712	-0.154441	0.666421
C115	C	-0.187512	-0.891472	-0.000224
C116	C	0.145822	-0.558139	0.333109
C117	C	0.479155	-0.224806	0.666442
C118	C	-0.128108	-0.892339	-0.000214
C119	C	0.205226	-0.559005	0.333119
C120	C	0.538559	-0.225672	0.666452
C121	C	-0.114236	-0.765029	-0.000187
C122	C	0.219097	-0.431696	0.333146
C123	C	0.552431	-0.098363	0.666480
C124	C	-0.173634	-0.764163	-0.000193
C125	C	0.159699	-0.430829	0.333140
C126	C	0.493032	-0.097496	0.666474
C127	C	-0.210272	-0.827390	-0.000214
C128	C	0.123062	-0.494057	0.333119
C129	C	0.456395	-0.160723	0.666453
O130	O	-0.261710	-0.708690	-0.000170
O131	O	0.071623	-0.375357	0.333164
O132	O	0.404956	-0.042023	0.666497
O133	O	-0.287428	-0.944230	-0.000261
O134	O	0.045905	-0.610896	0.333072
O135	O	0.379238	-0.277563	0.666406
C136	C	0.180021	-0.818423	-0.000234
C137	C	0.513354	-0.485090	0.333100
C138	C	0.846687	-0.151756	0.666433
C139	C	0.243240	-0.819362	-0.000244
C140	C	0.576573	-0.486028	0.333089
C141	C	0.909906	-0.152695	0.666422
C142	C	0.071410	-0.951923	-0.000251
C143	C	0.404743	-0.618590	0.333083
C144	C	0.738076	-0.285257	0.666416
C145	C	0.072340	-1.029425	-0.000275
C146	C	0.405673	-0.696092	0.333058
C147	C	0.739007	-0.362758	0.666392
C148	C	0.130893	-0.573972	-0.000187
C149	C	0.464226	-0.240638	0.333147
C150	C	0.797559	0.092695	0.666480
C151	C	0.130019	-0.501151	-0.000194
C152	C	0.463352	-0.167817	0.333139
C153	C	0.796685	0.165516	0.666472
C154	C	0.077680	-0.473421	-0.000198
C155	C	0.411013	-0.140088	0.333135
C156	C	0.744346	0.193246	0.666469
C157	C	0.026211	-0.518519	-0.000175
C158	C	0.359544	-0.185186	0.333158
C159	C	0.692877	0.148147	0.666492
C160	C	0.027086	-0.591339	-0.000160
C161	C	0.360420	-0.258005	0.333173
C162	C	0.693753	0.075328	0.666507
N163	N	0.037674	-0.365575	-0.041663
N164	N	0.371008	-0.032241	0.291671
N165	N	0.704341	0.301092	0.625004
N166	N	0.036846	-0.296399	-0.041679
N167	N	0.370179	0.036934	0.291654
N168	N	0.703513	0.370268	0.624988
C169	C	0.075038	-0.254021	-0.000243
C170	C	0.408372	0.079312	0.333091
C171	C	0.741705	0.412646	0.666424
N172	N	0.114099	-0.283431	0.041201
N173	N	0.447432	0.049903	0.374535
N174	N	0.780765	0.383236	0.707868
N175	N	0.114929	-0.352613	0.041214
N176	N	0.448262	-0.019280	0.374547
N177	N	0.781595	0.314054	0.707881
C178	C	0.076724	-0.394462	-0.000214
C179	C	0.410058	-0.061128	0.333119
C180	C	0.743391	0.272205	0.666452
C181	C	0.125556	-0.129971	-0.000269
C182	C	0.458889	0.203362	0.333064
C183	C	0.792223	0.536695	0.666398
C184	C	0.124680	-0.057149	-0.000272
C185	C	0.458013	0.276184	0.333061
C186	C	0.791346	0.609517	0.666394
C187	C	0.020870	-0.074520	-0.000260
C188	C	0.354204	0.258814	0.333073
C189	C	0.687537	0.592147	0.666406
C190	C	0.021748	-0.147340	-0.000250
C191	C	0.355081	0.185993	0.333084
C192	C	0.688415	0.519327	0.666417
C193	C	0.074092	-0.175061	-0.000257
C194	C	0.407426	0.158272	0.333076
C195	C	0.740759	0.491606	0.666409
N196	N	0.075888	-0.824271	-0.189918
N197	N	0.409222	-0.490938	0.143415
N198	N	0.742555	-0.157604	0.476748
C199	C	0.037062	-0.871970	0.227785
C200	C	0.370395	-0.538636	0.561119
C201	C	0.703728	-0.205303	0.894452
C202	C	0.037059	-0.871974	0.304430
C203	C	0.370392	-0.538641	0.637764
C204	C	0.703726	-0.205307	0.971097
C205	C	0.075883	-0.824235	0.342769
C206	C	0.409216	-0.490901	0.676102
C207	C	0.742549	-0.157568	1.009436
C208	C	0.114702	-0.776475	0.304457
C209	C	0.448035	-0.443142	0.637790
C210	C	0.781369	-0.109809	0.971123
C211	C	0.114700	-0.776468	0.227813
C212	C	0.448033	-0.443134	0.561147
C213	C	0.781366	-0.109801	0.894480
N214	N	0.126298	-0.814998	0.463096
N215	N	0.459631	-0.481665	0.796429
N216	N	0.792965	-0.148331	1.129762
N217	N	0.126298	-0.815010	0.535904
N218	N	0.459631	-0.481676	0.869237
N219	N	0.792965	-0.148343	1.202570
C220	C	0.075891	-0.824254	0.573691
C221	C	0.409224	-0.490921	0.907025
C222	C	0.742557	-0.157588	1.240358
N223	N	0.025481	-0.833500	0.535921
N224	N	0.358815	-0.500167	0.869254
N225	N	0.692148	-0.166834	1.202587
N226	N	0.025482	-0.833492	0.463106
N227	N	0.358815	-0.500159	0.796439
N228	N	0.692148	-0.166826	1.129773
C229	C	0.075889	-0.824238	0.425876
C230	C	0.409222	-0.490904	0.759209
C231	C	0.742556	-0.157571	1.092543
C232	C	0.037068	-0.872012	0.695102
C233	C	0.370402	-0.538679	1.028435
C234	C	0.703735	-0.205346	1.361769
C235	C	0.037065	-0.872012	0.771748
C236	C	0.370398	-0.538678	1.105082
C237	C	0.703731	-0.205345	1.438415
C238	C	0.114713	-0.776516	0.771773
C239	C	0.448046	-0.443183	1.105106
C240	C	0.781380	-0.109850	1.438440
C241	C	0.114711	-0.776513	0.695128
C242	C	0.448045	-0.443180	1.028461
C243	C	0.781378	-0.109847	1.361795
C244	C	0.075890	-0.824265	0.656797
C245	C	0.409223	-0.490932	0.990131
C246	C	0.742556	-0.157598	1.323464
H247	H	-0.109581	-0.944533	-0.000220
H248	H	0.223752	-0.611200	0.333114
H249	H	0.557085	-0.277866	0.666447
Br250	Br	-0.050163	-0.036895	-0.000253
Br251	Br	0.283170	0.296439	0.333080
Br252	Br	0.616504	0.629772	0.666413
Br253	Br	0.167383	-0.711658	0.175826
Br254	Br	0.500716	-0.378324	0.509159
Br255	Br	0.834049	-0.044991	0.842492
Br256	Br	0.194528	0.004045	-0.000291
Br257	Br	0.527861	0.337378	0.333042
Br258	Br	0.861194	0.670711	0.666375
Br259	Br	-0.064501	-0.679241	-0.000165
Br260	Br	0.268832	-0.345908	0.333169
Br261	Br	0.602166	-0.012574	0.666502
Br262	Br	0.201931	-0.611591	-0.000196
Br263	Br	0.535264	-0.278257	0.333138
Br264	Br	0.868598	0.055076	0.666471
Br265	Br	-0.015624	-0.936815	0.823736
Br266	Br	0.317710	-0.603482	1.157069
Br267	Br	0.651043	-0.270148	1.490402
H268	H	-0.020158	-0.184052	-0.000238
H269	H	0.313175	0.149281	0.333095
H270	H	0.646509	0.482615	0.666428
H271	H	0.005449	-0.910850	0.196579
H272	H	0.338783	-0.577517	0.529912
H273	H	0.672116	-0.244184	0.863245
H274	H	0.171927	-0.464433	-0.000208
H275	H	0.505260	-0.131100	0.333126
H276	H	0.838593	0.202234	0.666459
H277	H	-0.016404	-0.495937	-0.000188
H278	H	0.316929	-0.162604	0.333145
H279	H	0.650262	0.170729	0.666478
Br280	Br	0.167397	-0.711719	0.823798
Br281	Br	0.500730	-0.378386	1.157131
Br282	Br	0.834063	-0.045052	1.490464
H283	H	-0.763836	-0.934929	-0.000272
H284	H	-0.430502	-0.601596	0.333062
H285	H	-0.097169	-0.268262	0.666395
Br286	Br	0.196593	-0.167598	-0.000274
Br287	Br	0.529926	0.165736	0.333059
Br288	Br	0.863259	0.499069	0.666392
H289	H	-0.014822	-0.628050	-0.000145
H290	H	0.318512	-0.294717	0.333188
H291	H	0.651845	0.038616	0.666522
H292	H	0.005449	-0.910860	0.335623
H293	H	0.338782	-0.577526	0.668956
H294	H	0.672115	-0.244193	1.002289
H295	H	0.146312	-0.737604	0.335676
H296	H	0.479645	-0.404271	0.669009
H297	H	0.812979	-0.070937	1.002343
Br298	Br	-0.015620	-0.936815	0.643079
Br299	Br	0.317714	-0.603481	0.976413
Br300	Br	0.651047	-0.270148	1.309746
Br301	Br	-0.517404	-1.036922	-0.000284
Br302	Br	-0.184070	-0.703589	0.333049
Br303	Br	0.149263	-0.370255	0.666382
H304	H	-0.217335	-0.942958	-0.000244
H305	H	0.115998	-0.609625	0.333089
H306	H	0.449332	-0.276291	0.666422
Br307	Br	-0.377415	-1.038977	-0.000288
Br308	Br	-0.044081	-0.705643	0.333046
Br309	Br	0.289252	-0.372310	0.666379
H310	H	-0.630888	-0.705535	-0.000215
H311	H	-0.297555	-0.372201	0.333118
H312	H	0.035778	-0.038868	0.666452
Br313	Br	-0.643712	-0.971314	-0.000266
Br314	Br	-0.310379	-0.637981	0.333068
Br315	Br	0.022955	-0.304647	0.666401
Br316	Br	-0.750995	-0.669159	-0.000195
Br317	Br	-0.417662	-0.335826	0.333138
Br318	Br	-0.084329	-0.002493	0.666472
H319	H	0.146322	-0.737633	0.663940
H320	H	0.479655	-0.404300	0.997273
H321	H	0.812988	-0.070966	1.330606
H322	H	-0.350694	-0.645897	-0.000212
H323	H	-0.017361	-0.312563	0.333121
H324	H	0.315973	0.020770	0.666454
Br325	Br	-0.470798	-0.609512	-0.000210
Br326	Br	-0.137465	-0.276179	0.333123
Br327	Br	0.195869	0.057154	0.666456
Br328	Br	-0.204523	-0.677179	-0.000164
Br329	Br	0.128811	-0.343846	0.333169
Br330	Br	0.462144	-0.010513	0.666502
