data_functionalizedCrystal
_audit_creation_method	'MofGen! by Chris Wilmer'
_symmetry_space_group_name_H-M	'P1'
_symmetry_Int_Tables_number	1
_symmetry_cell_setting	triclinic
loop_
_symmetry_equiv_pos_as_xyz
  x,y,z
_cell_length_a	15.297475
_cell_length_b	29.839131
_cell_length_c	15.298431
_cell_angle_alpha	80.273836
_cell_angle_beta	88.369029
_cell_angle_gamma	80.335685
loop_
_atom_site_label
_atom_site_type_symbol
_atom_site_fract_x
_atom_site_fract_y
_atom_site_fract_z
Zn1	Zn	1.253448	-0.224397	-0.726552
Zn2	Zn	1.278651	-0.314338	-0.580010
Zn3	Zn	1.132293	-0.228766	-0.554775
Zn4	Zn	1.106908	-0.289042	-0.701162
O5	O	1.192825	-0.264136	-0.640625
O6	O	1.379369	-0.245086	-0.728299
O7	O	1.280408	-0.315401	-0.454072
O8	O	1.148441	-0.165320	-0.577626
O9	O	1.397886	-0.311165	-0.620636
O10	O	1.237452	-0.162111	-0.703830
O11	O	1.172879	-0.252532	-0.435531
O12	O	1.006347	-0.228004	-0.553007
O13	O	1.105175	-0.268052	-0.827121
O14	O	0.987697	-0.272289	-0.660557
O15	O	1.212837	-0.220558	-0.845775
O16	O	1.255793	-0.373848	-0.596017
O17	O	1.129614	-0.355264	-0.685026
C18	C	0.965239	-0.247876	-0.601289
C19	C	0.867873	-0.240928	-0.584482
C20	C	1.192704	-0.380856	-0.640528
C21	C	1.192727	-0.430793	-0.640529
C22	C	0.554731	-0.313794	-0.760751
C23	C	0.646212	-0.320325	-0.776540
C24	C	0.701631	-0.300476	-0.728527
C25	C	0.665562	-0.274095	-0.664722
C26	C	0.574073	-0.267567	-0.648927
C27	C	0.720973	-0.254249	-0.616703
C28	C	0.684903	-0.227868	-0.552897
C29	C	0.593423	-0.221341	-0.537106
C30	C	0.538004	-0.241189	-0.585118
C31	C	0.812462	-0.260778	-0.632498
C32	C	0.831804	-0.214551	-0.520673
C33	C	0.740323	-0.208020	-0.504885
C34	C	1.239147	-0.738721	-0.706417
C35	C	1.239233	-0.926396	-0.706486
O36	O	1.278579	-0.949199	-0.762428
N37	N	1.192957	-0.951579	-0.640748
C38	C	1.146651	-0.929840	-0.574991
O39	O	1.107284	-0.955565	-0.519084
C40	C	1.146560	-0.742165	-0.574926
C41	C	1.192847	-0.716986	-0.640664
C42	C	1.285429	-0.713541	-0.772149
C43	C	1.285411	-0.666626	-0.772128
C44	C	1.239111	-0.644891	-0.706375
C45	C	1.192829	-0.670070	-0.640643
C46	C	1.100250	-0.720426	-0.509174
C47	C	1.100229	-0.673504	-0.509165
C48	C	1.146516	-0.648325	-0.574902
C49	C	1.146511	-0.601420	-0.574869
N50	N	1.192787	-0.576237	-0.640607
C51	C	1.239087	-0.597972	-0.706360
C52	C	1.146703	-1.028372	-0.575029
C53	C	1.146727	-1.075290	-0.575044
C54	C	1.239308	-1.071843	-0.706539
C55	C	1.239289	-1.024924	-0.706520
C56	C	1.192980	-1.003189	-0.640767
C57	C	1.239047	-0.499447	-0.706311
C58	C	1.239028	-0.452528	-0.706282
C59	C	1.146443	-0.455979	-0.574790
C60	C	1.146466	-0.502895	-0.574815
C61	C	1.192769	-0.524627	-0.640584
O62	O	1.107177	-0.578586	-0.518962
O63	O	1.278432	-0.572237	-0.762270
C64	C	1.239165	-0.785636	-0.706437
C65	C	1.192883	-0.810816	-0.640705
C66	C	1.146583	-0.789081	-0.574952
C67	C	1.192907	-0.857735	-0.640720
C68	C	1.239207	-0.879470	-0.706473
C69	C	1.285483	-0.854287	-0.772211
C70	C	1.285465	-0.807372	-0.772190
C71	C	1.100306	-0.814264	-0.509214
C72	C	1.100329	-0.861179	-0.509239
C73	C	1.146629	-0.882914	-0.574992
C74	C	1.421300	-0.280460	-0.680115
C75	C	1.518662	-0.287416	-0.696943
C76	C	1.153363	-0.240996	-0.869123
C77	C	1.136547	-0.231135	-0.966496
C78	C	1.192967	-0.146959	-0.640745
C79	C	1.193027	-0.097026	-0.640797
C80	C	1.072661	-0.193769	-1.002582
C81	C	1.056850	-0.184504	-1.094066
C82	C	1.104929	-0.212602	-1.149474
C83	C	1.168821	-0.249968	-1.113389
C84	C	1.184628	-0.259236	-1.021895
C85	C	1.216896	-0.278070	-1.168788
C86	C	1.280788	-0.315436	-1.132703
C87	C	1.296593	-0.324702	-1.041218
C88	C	1.248514	-0.296603	-0.985809
C89	C	1.201088	-0.268802	-1.260282
C90	C	1.313055	-0.334270	-1.279595
C91	C	1.328866	-0.343535	-1.188111
C92	C	1.232183	-0.287157	-0.413024
C93	C	1.249169	-0.296903	-0.315681
H94	H	0.776118	-0.305795	-0.741387
O95	O	0.847554	-0.286462	-0.694360
C96	C	0.948826	-0.353307	-0.723751
C97	C	0.909142	-0.324267	-0.653592
H98	H	0.998641	-0.383874	-0.690821
H99	H	0.893543	-0.366408	-0.755344
H100	H	0.983716	-0.331116	-0.777049
H101	H	0.874260	-0.346430	-0.600241
H102	H	0.964462	-0.311163	-0.622069
H103	H	1.149068	-0.238378	-1.289653
H104	H	0.564060	-0.199865	-0.485142
H105	H	1.108783	-0.523398	-0.521281
H106	H	1.276744	-0.517135	-0.759871
H107	H	0.675573	-0.341805	-0.828488
O108	O	1.358711	-0.360951	-1.006072
C109	C	1.494837	-0.385904	-0.923261
C110	C	1.424543	-0.344813	-0.963000
H111	H	1.548089	-0.372870	-0.888445
H112	H	1.462047	-0.410860	-0.873401
H113	H	1.526444	-0.404402	-0.978582
H114	H	1.392911	-0.326278	-0.907740
H115	H	1.457380	-0.319888	-1.012882
H116	H	0.710942	-0.186540	-0.452934
O117	O	1.330389	-0.875341	-0.836201
C118	C	1.346988	-0.877597	-0.992582
C119	C	1.296088	-0.853702	-0.920205
H120	H	1.319264	-0.860117	-1.060514
H121	H	1.420282	-0.874933	-0.989550
H122	H	1.339063	-0.915457	-0.981251
H123	H	1.303942	-0.815833	-0.931488
H124	H	1.222815	-0.856403	-0.923255
H125	H	1.092052	-0.205056	-1.223964
H126	H	0.509602	-0.329955	-0.799831
O127	O	1.284357	-1.092894	-0.770459
C128	C	1.376118	-1.084527	-0.900930
C129	C	1.325166	-1.060631	-0.828582
H130	H	1.409110	-1.058452	-0.947952
H131	H	1.428956	-1.113815	-0.868735
H132	H	1.327950	-1.099003	-0.939701
H133	H	1.373266	-1.046127	-0.789786
H134	H	1.272317	-1.031367	-0.860831
O135	O	0.449123	-0.234771	-0.569861
C136	C	0.313962	-0.180067	-0.569833
C137	C	0.414610	-0.187266	-0.587160
H138	H	0.286031	-0.141661	-0.583794
H139	H	0.280512	-0.198754	-0.615138
H140	H	0.300842	-0.194462	-0.497671
H141	H	0.427812	-0.172869	-0.659298
H142	H	0.448009	-0.168589	-0.541798
O143	O	0.885750	-0.195283	-0.474135
C144	C	1.035267	-0.184878	-0.448872
C145	C	0.974266	-0.206712	-0.501651
H146	H	1.106848	-0.194118	-0.471086
H147	H	1.014703	-0.145807	-0.461308
H148	H	1.029411	-0.198573	-0.375094
H149	H	0.980092	-0.193053	-0.575445
H150	H	0.994848	-0.245781	-0.489141
O151	O	1.055286	-0.885563	-0.445334
C152	C	0.963485	-0.884022	-0.314888
C153	C	1.014449	-0.856354	-0.387210
H154	H	0.930471	-0.860420	-0.267865
H155	H	0.910665	-0.898638	-0.347108
H156	H	1.011650	-0.913505	-0.276113
H157	H	0.966352	-0.826850	-0.426010
H158	H	1.067280	-0.841772	-0.354935
H159	H	1.380887	-0.373959	-1.158718
H160	H	1.109047	-1.095789	-0.521506
O161	O	1.283975	-0.428006	-0.770058
C162	C	1.324938	-0.354195	-0.828346
C163	C	1.274020	-0.381913	-0.756059
H164	H	1.316891	-0.316922	-0.817064
H165	H	1.398252	-0.369960	-0.825238
H166	H	1.297312	-0.355181	-0.896298
H167	H	1.301570	-0.380937	-0.688073
H168	H	1.200711	-0.366140	-0.759246
O169	O	1.330383	-0.642232	-0.836077
C170	C	1.422253	-0.643788	-0.966474
C171	C	1.371342	-0.671462	-0.894111
H172	H	1.455397	-0.667411	-1.013402
H173	H	1.374119	-0.614328	-1.005354
H174	H	1.474987	-0.629142	-0.934192
H175	H	1.318608	-0.686140	-0.926319
H176	H	1.419531	-0.700899	-0.855238
H177	H	1.323132	-0.731233	-0.825698
O178	O	1.359720	-0.361507	-1.333541
C179	C	1.384965	-0.376253	-1.483044
C180	C	1.332073	-0.345368	-1.422049
H181	H	1.362619	-0.363222	-1.554612
H182	H	1.458720	-0.375224	-1.477341
H183	H	1.372668	-0.413203	-1.462318
H184	H	1.344295	-0.308405	-1.442734
H185	H	1.258335	-0.346436	-1.427759
H186	H	1.276979	-1.004425	-0.760049
H187	H	1.033517	-0.170897	-0.957460
O188	O	1.101709	-1.007338	-0.511059
C189	C	1.009852	-1.015717	-0.380659
C190	C	1.060782	-1.039593	-0.453044
H191	H	0.976735	-1.041782	-0.333746
H192	H	1.057969	-1.001272	-0.341766
H193	H	0.957095	-0.986407	-0.412921
H194	H	1.113539	-1.068920	-0.420855
H195	H	1.012611	-1.054006	-0.491930
H196	H	1.062558	-0.740920	-0.455644
O197	O	1.055114	-0.652427	-0.445313
C198	C	0.913491	-0.631808	-0.376959
C199	C	0.964476	-0.655702	-0.449294
H200	H	0.840198	-0.634440	-0.380165
H201	H	0.941057	-0.649307	-0.308976
H202	H	0.921471	-0.593956	-0.388226
H203	H	0.956516	-0.693555	-0.438110
H204	H	0.936898	-0.638167	-0.517251
O205	O	1.101352	-0.434819	-0.511033
C206	C	0.985165	-0.374634	-0.478731
C207	C	1.036152	-0.398566	-0.551017
H208	H	0.932452	-0.345313	-0.511032
H209	H	0.952014	-0.400659	-0.431750
H210	H	1.033333	-0.360195	-0.439893
H211	H	0.988042	-0.413006	-0.589920
H212	H	1.069316	-0.372524	-0.597937
O213	O	1.055216	-0.793115	-0.445444
C214	C	0.939024	-0.732949	-0.413075
C215	C	0.990001	-0.756860	-0.485392
H216	H	0.886299	-0.703626	-0.445347
H217	H	0.905890	-0.758986	-0.366105
H218	H	0.987196	-0.718515	-0.374231
H219	H	0.941888	-0.771295	-0.524300
H220	H	1.023148	-0.730806	-0.532301
O221	O	0.994790	-0.148178	-1.128977
C222	C	0.885367	-0.084237	-1.100154
C223	C	0.955641	-0.125358	-1.060503
H224	H	0.853682	-0.065781	-1.044809
H225	H	0.918174	-0.059251	-1.149933
H226	H	0.832171	-0.097258	-1.135076
H227	H	1.008857	-0.112378	-1.025535
H228	H	0.922770	-0.150335	-1.010769
H229	H	1.261387	-0.304143	-0.911315
H230	H	1.323156	-0.786874	-0.825720
