data_functionalizedCrystal
_audit_creation_method	'MofGen! by Chris Wilmer'
_symmetry_space_group_name_H-M	'P1'
_symmetry_Int_Tables_number	1
_symmetry_cell_setting	triclinic
loop_
_symmetry_equiv_pos_as_xyz
  x,y,z
_cell_length_a	15.944551
_cell_length_b	9.065218
_cell_length_c	15.021413
_cell_angle_alpha	90.003106
_cell_angle_beta	89.988701
_cell_angle_gamma	95.742688
loop_
_atom_site_label
_atom_site_type_symbol
_atom_site_fract_x
_atom_site_fract_y
_atom_site_fract_z
O1	O	1.115952	-0.190261	0.073935
O2	O	0.871581	-0.213720	0.073957
O3	O	0.998818	0.012770	0.073944
O4	O	0.988715	-0.416751	0.073949
O5	O	0.998833	0.012756	-0.074120
O6	O	0.871596	-0.213734	-0.074107
O7	O	1.115968	-0.190275	-0.074129
Zn8	Zn	0.993784	-0.202007	-0.097626
Zn9	Zn	0.993764	-0.201988	0.097455
O10	O	0.988731	-0.416765	-0.074116
C11	C	0.840287	-0.212753	-0.000072
C12	C	0.747019	-0.209833	-0.000064
C13	C	0.997854	0.067727	-0.000087
C14	C	0.994951	0.231502	-0.000082
N15	N	0.993804	-0.202019	-0.230764
C16	C	0.531045	-0.062466	-0.000083
C17	C	0.470536	-0.130891	0.072922
C18	C	0.576253	-0.204551	-0.000074
C19	C	0.470574	-0.130939	-0.073058
C20	C	0.411301	-0.199439	-0.000088
C21	C	0.516972	-0.273016	0.072990
C22	C	0.517016	-0.273044	-0.073055
C23	C	0.456525	-0.341573	-0.000033
C24	C	0.671277	-0.207493	-0.000065
C25	C	0.316278	-0.196509	-0.000091
C26	C	1.147261	-0.191242	-0.000097
C27	C	1.240530	-0.194162	-0.000100
C28	C	0.989694	-0.471722	-0.000083
C29	C	0.992597	-0.635497	-0.000082
C30	C	1.052650	-0.097266	-0.470429
C31	C	0.976533	-0.068606	-0.529752
C32	C	0.993784	-0.202000	-0.412371
C33	C	1.069882	-0.230572	-0.529790
C34	C	0.993772	-0.201979	-0.587795
C35	C	0.917628	-0.173275	-0.470387
C36	C	1.011028	-0.335299	-0.470420
C37	C	0.934856	-0.306696	-0.529715
C38	C	0.993792	-0.202008	-0.311313
C39	C	0.993755	-0.201971	-0.688850
N40	N	0.993751	-0.201965	0.230592
H41	H	0.563485	0.055454	0.000007
O42	O	0.875466	-0.412333	-0.560734
C43	C	0.876559	-0.411943	-0.654589
H44	H	0.940818	-0.361534	-0.679032
H45	H	0.825548	-0.343443	-0.680487
C46	C	0.780933	-0.634056	-0.659088
C47	C	0.859859	-0.572154	-0.689109
H48	H	0.770628	-0.732880	-0.680383
H49	H	0.780194	-0.634317	-0.595856
H50	H	0.738433	-0.576958	-0.680672
H51	H	0.902358	-0.629241	-0.667516
H52	H	0.860605	-0.571907	-0.752338
O53	O	1.028614	-0.469689	-0.439337
C54	C	1.108939	-0.499408	-0.469570
H55	H	1.147981	-0.390640	-0.486243
H56	H	1.101811	-0.571918	-0.531653
C57	C	1.105618	-0.714439	-0.375731
C58	C	1.153573	-0.580848	-0.396201
H59	H	1.133150	-0.764681	-0.330476
H60	H	1.051501	-0.694421	-0.355365
H61	H	1.099682	-0.774846	-0.427473
H62	H	1.159499	-0.520436	-0.344463
H63	H	1.207693	-0.600858	-0.416557
O64	O	1.112076	0.008365	-0.439470
C65	C	1.192085	-0.020637	-0.471014
H66	H	1.184330	-0.090997	-0.533932
H67	H	1.225491	-0.082907	-0.417884
C68	C	1.254356	0.213261	-0.414971
C69	C	1.244832	0.126854	-0.492253
H70	H	1.286895	0.304239	-0.428068
H71	H	1.200453	0.232798	-0.393716
H72	H	1.282191	0.161352	-0.370703
H73	H	1.216987	0.178755	-0.536515
H74	H	1.298731	0.107329	-0.513516
O75	O	0.446041	-0.058959	0.146484
C76	C	0.484347	0.088126	0.146237
H77	H	0.502345	0.122358	0.075195
H78	H	0.543358	0.095861	0.189506
C79	C	0.400055	0.150062	0.270741
C80	C	0.422155	0.192110	0.183484
H81	H	0.361695	0.214205	0.293720
H82	H	0.374250	0.050967	0.270910
H83	H	0.449237	0.156509	0.306787
H84	H	0.372975	0.185645	0.147438
H85	H	0.447950	0.291207	0.183310
O86	O	0.541492	-0.344546	0.146678
C87	C	0.629804	-0.346408	0.145803
H88	H	0.659289	-0.251708	0.102537
H89	H	0.646396	-0.456565	0.117580
C90	C	0.627814	-0.443875	0.294556
C91	C	0.664029	-0.327554	0.241422
H92	H	0.648927	-0.432252	0.353538
H93	H	0.568317	-0.442626	0.295145
H94	H	0.641644	-0.535662	0.271026
H95	H	0.650191	-0.235773	0.264946
H96	H	0.723525	-0.328787	0.240839
H97	H	0.853253	-0.148971	-0.444403
O98	O	1.146695	-0.259563	-0.560751
C99	C	1.200787	-0.278464	-0.488291
H100	H	1.161617	-0.311671	-0.426673
H101	H	1.241424	-0.170000	-0.474882
C102	C	1.306003	-0.359983	-0.586168
C103	C	1.257894	-0.400782	-0.510490
H104	H	1.341232	-0.435429	-0.599861
H105	H	1.269562	-0.347244	-0.634986
H106	H	1.339860	-0.269595	-0.574984
H107	H	1.224031	-0.491158	-0.521678
H108	H	1.294331	-0.413539	-0.461673
H109	H	0.424261	-0.459614	0.000009
O110	O	0.541569	-0.344469	-0.146776
C111	C	0.518155	-0.269198	-0.223600
H112	H	0.510475	-0.148919	-0.206111
H113	H	0.455942	-0.325002	-0.250238
C114	C	0.596426	-0.421801	-0.316642
C115	C	0.587000	-0.274068	-0.295163
H116	H	0.638890	-0.424809	-0.360788
H117	H	0.612198	-0.472516	-0.264885
H118	H	0.544577	-0.468287	-0.338835
H119	H	0.638845	-0.227590	-0.272960
H120	H	0.571238	-0.223345	-0.346918
O121	O	0.446186	-0.059030	-0.146662
C122	C	0.484464	0.088073	-0.146369
H123	H	0.543806	0.095148	-0.103634
H124	H	0.438629	0.164586	-0.117872
C125	C	0.435145	0.127157	-0.294762
C126	C	0.508034	0.135844	-0.242279
H127	H	0.449681	0.156629	-0.353923
H128	H	0.409353	0.028053	-0.294958
H129	H	0.396956	0.190918	-0.271004
H130	H	0.546216	0.072071	-0.266031
H131	H	0.533833	0.234939	-0.242089
O132	O	0.959145	0.065988	-0.560702
C133	C	0.947670	0.160779	-0.488241
H134	H	0.981105	0.120514	-0.427120
H135	H	0.877482	0.160205	-0.473575
C136	C	0.943714	0.368942	-0.586535
C137	C	0.984786	0.319496	-0.511467
H138	H	0.966605	0.466848	-0.600862
H139	H	0.951442	0.305080	-0.635354
H140	H	0.885227	0.368452	-0.574303
H141	H	1.043270	0.319969	-0.523703
H142	H	0.977069	0.383363	-0.462650
