data_functionalizedCrystal
_audit_creation_method	'MofGen! by Chris Wilmer'
_symmetry_space_group_name_H-M	'P1'
_symmetry_Int_Tables_number	1
_symmetry_cell_setting	triclinic
loop_
_symmetry_equiv_pos_as_xyz
  x,y,z
_cell_length_a	19.121102
_cell_length_b	29.839131
_cell_length_c	19.121175
_cell_angle_alpha	92.404073
_cell_angle_beta	85.212968
_cell_angle_gamma	87.589066
loop_
_atom_site_label
_atom_site_type_symbol
_atom_site_fract_x
_atom_site_fract_y
_atom_site_fract_z
Zn1	Zn	1.092558	-0.220826	-0.443606
Zn2	Zn	1.425892	0.112507	-0.110273
Zn3	Zn	1.759225	0.445840	0.223061
Zn4	Zn	1.087438	-0.292604	-0.325918
Zn5	Zn	1.420772	0.040730	0.007415
Zn6	Zn	1.754105	0.374063	0.340748
Zn7	Zn	0.969885	-0.214140	-0.320946
Zn8	Zn	1.303218	0.119193	0.012388
Zn9	Zn	1.636552	0.452527	0.345721
Zn10	Zn	0.974838	-0.292574	-0.438530
Zn11	Zn	1.308172	0.040759	-0.105197
Zn12	Zn	1.641505	0.374093	0.228136
O13	O	1.031180	-0.255036	-0.382250
O14	O	1.364513	0.078297	-0.048917
O15	O	1.697847	0.411631	0.284417
O16	O	1.190342	-0.233159	-0.432200
O17	O	1.523675	0.100175	-0.098866
O18	O	1.857009	0.433508	0.234467
O19	O	1.067629	-0.279409	-0.226796
O20	O	1.400962	0.053924	0.106537
O21	O	1.734296	0.387257	0.439870
O22	O	0.986228	-0.152163	-0.337260
O23	O	1.319561	0.181170	-0.003927
O24	O	1.652894	0.514504	0.329407
O25	O	1.186580	-0.285893	-0.345735
O26	O	1.519914	0.047440	-0.012402
O27	O	1.853247	0.380774	0.320932
O28	O	1.076355	-0.157075	-0.427378
O29	O	1.409689	0.176258	-0.094045
O30	O	1.743022	0.509591	0.239289
O31	O	0.981263	-0.221762	-0.223143
O32	O	1.314597	0.111571	0.110190
O33	O	1.647930	0.444904	0.443524
O34	O	0.872079	-0.221734	-0.332338
O35	O	1.205413	0.111600	0.000995
O36	O	1.538746	0.444933	0.334328
O37	O	0.994670	-0.285843	-0.537666
O38	O	1.328003	0.047491	-0.204333
O39	O	1.661336	0.380824	0.129001
O40	O	0.875719	-0.279359	-0.418727
O41	O	1.209052	0.053974	-0.085394
O42	O	1.542385	0.387308	0.247939
O43	O	1.081158	-0.233130	-0.541395
O44	O	1.414491	0.100203	-0.208062
O45	O	1.747825	0.433537	0.125272
O46	O	1.072432	-0.355464	-0.340813
O47	O	1.405765	-0.022131	-0.007480
O48	O	1.739099	0.311203	0.325853
O49	O	0.989705	-0.355442	-0.423549
O50	O	1.323038	-0.022109	-0.090216
O51	O	1.656372	0.311225	0.243118
C52	C	0.848369	-0.249818	-0.374443
C53	C	1.181702	0.083515	-0.041110
C54	C	1.515035	0.416849	0.292224
C55	C	0.770162	-0.247597	-0.371120
C56	C	1.103495	0.085736	-0.037786
C57	C	1.436829	0.419070	0.295547
C58	C	0.735330	-0.276597	-0.414466
C59	C	1.068664	0.056736	-0.081132
C60	C	1.401997	0.390070	0.252201
C61	C	0.661847	-0.274504	-0.411347
C62	C	0.995180	0.058829	-0.078013
C63	C	1.328513	0.392162	0.255320
C64	C	0.623196	-0.243413	-0.364877
C65	C	0.956530	0.089920	-0.031544
C66	C	1.289863	0.423253	0.301789
C67	C	0.658033	-0.214410	-0.321529
C68	C	0.991366	0.118923	0.011804
C69	C	1.324700	0.452257	0.345137
C70	C	0.731515	-0.216501	-0.324653
C71	C	1.064849	0.116833	0.008681
C72	C	1.398182	0.450166	0.342014
C73	C	0.401232	-0.235595	-0.353204
C74	C	0.734565	0.097738	-0.019870
C75	C	1.067898	0.431072	0.313463
C76	C	0.327744	-0.233507	-0.350082
C77	C	0.661078	0.099826	-0.016749
C78	C	0.994411	0.433160	0.316584
C79	C	0.331563	-0.293601	-0.439901
C80	C	0.664897	0.039732	-0.106567
C81	C	0.998230	0.373065	0.226766
C82	C	0.405047	-0.295691	-0.443017
C83	C	0.738380	0.037642	-0.109684
C84	C	1.071713	0.370975	0.223650
C85	C	0.439877	-0.266686	-0.399672
C86	C	0.773211	0.066647	-0.066338
C87	C	1.106544	0.399980	0.266995
C88	C	0.548084	-0.241274	-0.361686
C89	C	0.881418	0.092059	-0.028353
C90	C	1.214751	0.425392	0.304980
C91	C	0.514988	-0.268823	-0.402867
C92	C	0.848321	0.064510	-0.069533
C93	C	1.181655	0.397843	0.263800
C94	C	1.031070	-0.371754	-0.382186
C95	C	1.364404	-0.038421	-0.048853
C96	C	1.697737	0.294913	0.284480
C97	C	1.031089	-0.421689	-0.382185
C98	C	1.364422	-0.088355	-0.048852
C99	C	1.697755	0.244978	0.284481
C100	C	1.078102	-0.733861	-0.429238
C101	C	1.411436	-0.400528	-0.095905
C102	C	1.744769	-0.067194	0.237428
C103	C	1.078181	-0.921537	-0.429284
C104	C	1.411514	-0.588204	-0.095950
C105	C	1.744847	-0.254871	0.237383
O106	O	1.118046	-0.947948	-0.469241
O107	O	1.451380	-0.614615	-0.135908
O108	O	1.784713	-0.281282	0.197425
N109	N	1.031303	-0.942484	-0.382333
N110	N	1.364636	-0.609150	-0.049000
N111	N	1.697970	-0.275817	0.284333
C112	C	0.984399	-0.916508	-0.335371
C113	C	1.317733	-0.583174	-0.002038
C114	C	1.651066	-0.249841	0.331296
O115	O	0.944524	-0.938630	-0.295443
O116	O	1.277857	-0.605297	0.037891
O117	O	1.611190	-0.271964	0.371224
C118	C	0.984318	-0.728832	-0.335330
C119	C	1.317652	-0.395499	-0.001996
C120	C	1.650985	-0.062166	0.331337
C121	C	1.031204	-0.707889	-0.382278
C122	C	1.364537	-0.374555	-0.048945
C123	C	1.697870	-0.041222	0.284388
C124	C	1.124984	-0.712917	-0.476184
C125	C	1.458317	-0.379584	-0.142850
C126	C	1.791650	-0.046250	0.190483
C127	C	1.124966	-0.666001	-0.476169
C128	C	1.458299	-0.332667	-0.142836
C129	C	1.791633	0.000666	0.190497
C130	C	1.078067	-0.640028	-0.429209
C131	C	1.411401	-0.306695	-0.095876
C132	C	1.744734	0.026638	0.237457
C133	C	1.031186	-0.660972	-0.382264
C134	C	1.364520	-0.327639	-0.048931
C135	C	1.697853	0.005694	0.284403
C136	C	0.937412	-0.702857	-0.288371
C137	C	1.270745	-0.369524	0.044962
C138	C	1.604078	-0.036191	0.378295
C139	C	0.937394	-0.655936	-0.288366
C140	C	1.270728	-0.322602	0.044967
C141	C	1.604061	0.010731	0.378300
C142	C	0.984280	-0.634992	-0.335315
C143	C	1.317613	-0.301659	-0.001982
C144	C	1.650947	0.031675	0.331352
C145	C	0.984270	-0.588084	-0.335290
C146	C	1.317604	-0.254750	-0.001956
C147	C	1.650937	0.078583	0.331377
N148	N	1.031148	-0.567137	-0.382240
N149	N	1.364481	-0.233804	-0.048907
N150	N	1.697815	0.099529	0.284427
C151	C	1.078047	-0.593110	-0.429200
C152	C	1.411380	-0.259776	-0.095867
C153	C	1.744713	0.073557	0.237467
C154	C	0.984446	-1.015040	-0.335395
C155	C	1.317779	-0.681707	-0.002062
C156	C	1.651113	-0.348374	0.331271
C157	C	0.984467	-1.061959	-0.335405
C158	C	1.317800	-0.728626	-0.002071
C159	C	1.651134	-0.395292	0.331262
C160	C	1.078248	-1.066985	-0.429318
C161	C	1.411581	-0.733652	-0.095985
C162	C	1.744914	-0.400319	0.237348
C163	C	1.078229	-1.020066	-0.429305
C164	C	1.411563	-0.686733	-0.095972
C165	C	1.744896	-0.353399	0.237362
C166	C	1.031324	-0.994094	-0.382346
C167	C	1.364657	-0.660761	-0.049013
C168	C	1.697990	-0.327427	0.284321
C169	C	1.078007	-0.494582	-0.429166
C170	C	1.411340	-0.161249	-0.095832
C171	C	1.744673	0.172085	0.237501
C172	C	1.077987	-0.447661	-0.429145
C173	C	1.411321	-0.114328	-0.095812
C174	C	1.744654	0.219005	0.237522
C175	C	0.984204	-0.442639	-0.335234
C176	C	1.317538	-0.109306	-0.001901
C177	C	1.650871	0.224028	0.331432
C178	C	0.984226	-0.489555	-0.335252
C179	C	1.317560	-0.156222	-0.001919
C180	C	1.650893	0.177111	0.331415
C181	C	1.031130	-0.515526	-0.382224
C182	C	1.364463	-0.182193	-0.048890
C183	C	1.697797	0.151141	0.284443
O184	O	0.944420	-0.561645	-0.295358
O185	O	1.277753	-0.228312	0.037975
O186	O	1.611087	0.105022	0.371309
O187	O	1.117905	-0.570979	-0.469133
O188	O	1.451239	-0.237646	-0.135800
O189	O	1.784572	0.095688	0.197534
C190	C	1.078120	-0.780777	-0.429253
C191	C	1.411453	-0.447444	-0.095919
C192	C	1.744786	-0.114111	0.237414
C193	C	1.031239	-0.801721	-0.382307
C194	C	1.364572	-0.468388	-0.048974
C195	C	1.697905	-0.135055	0.284359
C196	C	0.984340	-0.775749	-0.335347
C197	C	1.317673	-0.442416	-0.002014
C198	C	1.651007	-0.109082	0.331319
C199	C	1.031260	-0.848640	-0.382317
C200	C	1.364593	-0.515307	-0.048983
C201	C	1.697926	-0.181973	0.284350
C202	C	1.078158	-0.874612	-0.429277
C203	C	1.411491	-0.541279	-0.095943
C204	C	1.744825	-0.207946	0.237390
C205	C	1.125036	-0.853666	-0.476227
C206	C	1.458369	-0.520333	-0.142894
C207	C	1.791702	-0.186999	0.190440
C208	C	1.125018	-0.806750	-0.476213
C209	C	1.458352	-0.473416	-0.142879
C210	C	1.791685	-0.140083	0.190454
C211	C	0.937462	-0.796695	-0.288397
C212	C	1.270796	-0.463362	0.044937
C213	C	1.604129	-0.130028	0.378270
C214	C	0.937484	-0.843612	-0.288415
C215	C	1.270817	-0.510278	0.044919
C216	C	1.604151	-0.176945	0.378252
C217	C	0.984383	-0.869584	-0.335374
C218	C	1.317716	-0.536251	-0.002041
C219	C	1.651049	-0.202917	0.331292
C220	C	1.214705	-0.260275	-0.390088
C221	C	1.548039	0.073058	-0.056755
C222	C	1.881372	0.406392	0.276578
C223	C	1.292913	-0.262507	-0.393428
C224	C	1.626246	0.070826	-0.060095
C225	C	1.959579	0.404159	0.273238
C226	C	1.039038	-0.260229	-0.565775
C227	C	1.372371	0.073105	-0.232441
C228	C	1.705704	0.406438	0.100892
C229	C	1.042386	-0.262442	-0.643982
C230	C	1.375719	0.070892	-0.310648
C231	C	1.709053	0.404225	0.022685
C232	C	1.031310	-0.137863	-0.382330
C233	C	1.364643	0.195470	-0.048997
C234	C	1.697977	0.528803	0.284336
C235	C	1.031366	-0.087931	-0.382365
C236	C	1.364699	0.245402	-0.049031
C237	C	1.698032	0.578735	0.284302
C238	C	0.998995	-0.233468	-0.678821
C239	C	1.332328	0.099865	-0.345488
C240	C	1.665662	0.433199	-0.012154
C241	C	1.002138	-0.235551	-0.752305
C242	C	1.335472	0.097782	-0.418972
C243	C	1.668805	0.431116	-0.085638
C244	C	1.048677	-0.266606	-0.790948
C245	C	1.382010	0.066728	-0.457615
C246	C	1.715344	0.400061	-0.124282
C247	C	1.092070	-0.295582	-0.756104
C248	C	1.425403	0.037751	-0.422770
C249	C	1.758736	0.371085	-0.089437
C250	C	1.088922	-0.293501	-0.682621
C251	C	1.422256	0.039832	-0.349288
C252	C	1.755589	0.373166	-0.015954
C253	C	1.060427	-0.274392	-1.012913
C254	C	1.393760	0.058941	-0.679580
C255	C	1.727093	0.392274	-0.346247
C256	C	1.063573	-0.276470	-1.086401
C257	C	1.396906	0.056863	-0.753068
C258	C	1.730239	0.390196	-0.419734
C259	C	0.973640	-0.216439	-1.082597
C260	C	1.306973	0.116894	-0.749264
C261	C	1.640307	0.450227	-0.415930
C262	C	0.970499	-0.214359	-1.009113
C263	C	1.303833	0.118974	-0.675780
C264	C	1.637166	0.452307	-0.342447
C265	C	1.013890	-0.243338	-0.974275
C266	C	1.347223	0.089996	-0.640942
C267	C	1.680556	0.423329	-0.307609
C268	C	1.051893	-0.268734	-0.866061
C269	C	1.385226	0.064599	-0.532727
C270	C	1.718560	0.397932	-0.199394
C271	C	1.010670	-0.241211	-0.899164
C272	C	1.344003	0.092123	-0.565831
C273	C	1.677336	0.425456	-0.232497
C274	C	1.023394	-0.249832	-0.199441
C275	C	1.356727	0.083501	0.133892
C276	C	1.690060	0.416834	0.467225
C277	C	1.020182	-0.247497	-0.121240
C278	C	1.353515	0.085837	0.212093
C279	C	1.686848	0.419170	0.545426
H280	H	0.766794	-0.301916	-0.452304
H281	H	1.100128	0.031417	-0.118970
H282	H	1.433461	0.364750	0.214363
F283	F	0.768585	-0.185634	-0.278519
F284	F	1.101919	0.147700	0.054814
F285	F	1.435252	0.481033	0.388148
H286	H	0.899305	-0.860660	-0.250177
H287	H	1.232638	-0.527326	0.083157
H288	H	1.565972	-0.193993	0.416490
H289	H	1.163225	-0.874821	-0.514461
H290	H	1.496558	-0.541488	-0.181128
H291	H	1.829891	-0.208154	0.152205
H292	H	0.966802	-0.211959	-0.780668
H293	H	1.300136	0.121374	-0.447334
H294	H	1.633469	0.454707	-0.114001
F295	F	0.949465	-0.200413	-0.637700
F296	F	1.282799	0.132920	-0.304367
F297	F	1.616132	0.466253	0.028966
H298	H	1.163197	-0.789701	-0.514443
H299	H	1.496530	-0.456368	-0.181109
H300	H	1.829863	-0.123034	0.152224
H301	H	0.633490	-0.298120	-0.446643
H302	H	0.966824	0.035213	-0.113310
H303	H	1.300157	0.368547	0.220024
H304	H	1.116435	-1.088140	-0.467554
H305	H	1.449768	-0.754807	-0.134221
H306	H	1.783102	-0.421474	0.199112
H307	H	0.303196	-0.317215	-0.475191
H308	H	0.636530	0.016118	-0.141858
H309	H	0.969863	0.349452	0.191476
H310	H	0.296277	-0.208184	-0.312246
H311	H	0.629610	0.125149	0.021088
H312	H	0.962944	0.458483	0.354421
H313	H	1.089784	-0.294019	-0.897532
H314	H	1.423117	0.039314	-0.564199
H315	H	1.756451	0.372647	-0.230865
H316	H	0.932601	-0.189073	-0.977655
H317	H	1.265934	0.144261	-0.644321
H318	H	1.599268	0.477594	-0.310988
H319	H	0.938313	-0.192848	-1.110970
H320	H	1.271647	0.140486	-0.777637
H321	H	1.604980	0.473819	-0.444304
H322	H	0.436511	-0.321010	-0.480856
H323	H	0.769845	0.012323	-0.147522
H324	H	1.103178	0.345657	0.185811
H325	H	0.899233	-0.719901	-0.250140
H326	H	1.232566	-0.386568	0.083193
H327	H	1.565899	-0.053235	0.416526
H328	H	1.101473	-0.301759	-1.117863
H329	H	1.434806	0.031574	-0.784530
H330	H	1.768140	0.364907	-0.451196
F331	F	0.616896	-0.181317	-0.272077
F332	F	0.950230	0.152016	0.061256
F333	F	1.283563	0.485349	0.394589
F334	F	1.106611	-0.305231	-0.975846
F335	F	1.439944	0.028102	-0.642512
F336	F	1.773278	0.361435	-0.309179
F337	F	1.141596	-0.328635	-0.797233
F338	F	1.474929	0.004698	-0.463899
F339	F	1.808262	0.338031	-0.130566
H340	H	1.124261	-0.317091	-0.654256
H341	H	1.457595	0.016242	-0.320923
H342	H	1.790928	0.349575	0.012410
F343	F	0.556124	-0.301911	-0.452322
F344	F	0.889457	0.031422	-0.118989
F345	F	1.222791	0.364755	0.214345
F346	F	0.887540	-0.769059	-0.238416
F347	F	1.220874	-0.435726	0.094917
F348	F	1.554207	-0.102393	0.428251
H349	H	0.516607	-0.215961	-0.323849
H350	H	0.849940	0.117373	0.009484
H351	H	1.183273	0.450706	0.342817
H352	H	1.116170	-0.430611	-0.467376
H353	H	1.449503	-0.097277	-0.134043
H354	H	1.782836	0.236056	0.199290
F355	F	1.174865	-0.643717	-0.526143
F356	F	1.508198	-0.310384	-0.192810
F357	F	1.841531	0.022950	0.140524
H358	H	0.429582	-0.211980	-0.317904
H359	H	0.762915	0.121353	0.015430
H360	H	1.096248	0.454686	0.348763
F361	F	0.961142	-0.208161	-0.858036
F362	F	1.294476	0.125173	-0.524702
F363	F	1.627809	0.458506	-0.191369
H364	H	1.116196	-0.515722	-0.467419
H365	H	1.449529	-0.182389	-0.134086
H366	H	1.782862	0.150945	0.199248
H367	H	0.946295	-1.079007	-0.297167
H368	H	1.279629	-0.745674	0.036166
H369	H	1.612962	-0.412340	0.369500
H370	H	1.116407	-1.003016	-0.467535
H371	H	1.449741	-0.669683	-0.134202
H372	H	1.783074	-0.336350	0.199132
F373	F	1.174901	-0.740552	-0.526172
F374	F	1.508235	-0.407219	-0.192839
F375	F	1.841568	-0.073886	0.140495
H376	H	0.946249	-0.993897	-0.297154
H377	H	1.279582	-0.660564	0.036180
H378	H	1.612915	-0.327230	0.369513
H379	H	0.899196	-0.634791	-0.250127
H380	H	1.232529	-0.301458	0.083206
H381	H	1.565862	0.031875	0.416540
H382	H	0.946054	-0.506609	-0.297017
H383	H	1.279387	-0.173275	0.036316
H384	H	1.612720	0.160058	0.369650
F385	F	0.934295	-0.414989	-0.285258
F386	F	1.267628	-0.081656	0.048075
F387	F	1.600962	0.251678	0.381409
