data_functionalizedCrystal
_audit_creation_method	'MofGen! by Chris Wilmer'
_symmetry_space_group_name_H-M	'P1'
_symmetry_Int_Tables_number	1
_symmetry_cell_setting	triclinic
loop_
_symmetry_equiv_pos_as_xyz
  x,y,z
_cell_length_a	12.759401
_cell_length_b	19.805405
_cell_length_c	12.759393
_cell_angle_alpha	89.962059
_cell_angle_beta	89.982961
_cell_angle_gamma	90.026572
loop_
_atom_site_label
_atom_site_type_symbol
_atom_site_fract_x
_atom_site_fract_y
_atom_site_fract_z
Zn1	Zn	1.606155	-0.269418	-0.593937
Zn2	Zn	1.606018	-0.382624	-0.418239
Zn3	Zn	1.430461	-0.269454	-0.418276
Zn4	Zn	1.430409	-0.382571	-0.593880
O5	O	1.518261	-0.326017	-0.506083
O6	O	1.753158	-0.284442	-0.570638
O7	O	1.582694	-0.367649	-0.271222
O8	O	1.453846	-0.174733	-0.441618
O9	O	1.753057	-0.367614	-0.441553
O10	O	1.582928	-0.174706	-0.570675
O11	O	1.453713	-0.284504	-0.271250
O12	O	1.283433	-0.284453	-0.441563
O13	O	1.453758	-0.367524	-0.740909
O14	O	1.283395	-0.367559	-0.570578
O15	O	1.582878	-0.284391	-0.740951
O16	O	1.582644	-0.477333	-0.441498
O17	O	1.453625	-0.477295	-0.570541
C18	C	1.245293	-0.326004	-0.506069
C19	C	1.128517	-0.326015	-0.506088
C20	C	1.073662	-0.369358	-0.573155
C21	C	0.963938	-0.369367	-0.573166
C22	C	0.963933	-0.282688	-0.439034
C23	C	1.073655	-0.282676	-0.439029
C24	C	1.073665	-0.419404	-0.650592
C25	C	0.963941	-0.419412	-0.650603
C26	C	1.518143	-0.501873	-0.506032
C27	C	1.518188	-0.577105	-0.506046
C28	C	1.585433	-0.612447	-0.438923
C29	C	1.585478	-0.683135	-0.438946
C30	C	1.518271	-0.718480	-0.506088
C31	C	1.451023	-0.683134	-0.573217
C32	C	1.450985	-0.612446	-0.573199
C33	C	1.451178	-0.968207	-0.573295
C34	C	1.451220	-1.038899	-0.573306
C35	C	1.585671	-1.038895	-0.439043
C36	C	1.585633	-0.968208	-0.439024
C37	C	1.518389	-0.932868	-0.506157
C38	C	1.518343	-0.856219	-0.506133
C39	C	1.518311	-0.795128	-0.506108
C40	C	1.792294	-0.326030	-0.506098
C41	C	1.909071	-0.326035	-0.506104
C42	C	1.518327	-0.325948	-0.780117
C43	C	1.518356	-0.325918	-0.896893
C44	C	1.518408	-0.149474	-0.506157
C45	C	1.518471	-0.074242	-0.506189
C46	C	1.451189	-0.369170	-1.061460
C47	C	1.451149	-0.369190	-0.951736
C48	C	1.585600	-0.282619	-0.951780
C49	C	1.585634	-0.282596	-1.061503
C50	C	1.373568	-0.419153	-1.061434
C51	C	1.373528	-0.419173	-0.951709
C52	C	1.518255	-0.326037	-0.233116
C53	C	1.518430	-0.325876	-0.116340
H54	H	0.934129	-0.471821	-0.628662
F55	F	1.132031	-0.236535	-0.367664
F56	F	1.112635	-0.401132	-0.756997
F57	F	1.656959	-0.574836	-0.367455
H58	H	1.640235	-0.711907	-0.384288
F59	F	1.272502	-0.394636	-0.907239
F60	F	1.657162	-0.930595	-0.367563
F61	F	1.657113	-0.236557	-0.893410
H62	H	1.640429	-1.067678	-0.384384
H63	H	1.395325	-0.471592	-0.921902
H64	H	0.919251	-0.247402	-0.384438
F65	F	0.919503	-0.394955	-0.751708
H66	H	1.107664	-0.469172	-0.621299
F67	F	1.379502	-0.720753	-0.644680
F68	F	1.379687	-1.076515	-0.644772
H69	H	1.396424	-0.939438	-0.627955
F70	F	1.379416	-0.574833	-0.644642
F71	F	1.267240	-0.400794	-1.100369
H72	H	1.640380	-0.247337	-1.106181
H73	H	1.402685	-0.468942	-1.095439
