data_functionalizedCrystal
_audit_creation_method	'MofGen! by Chris Wilmer'
_symmetry_space_group_name_H-M	'P1'
_symmetry_Int_Tables_number	1
_symmetry_cell_setting	triclinic
loop_
_symmetry_equiv_pos_as_xyz
  x,y,z
_cell_length_a	8.597314
_cell_length_b	15.944499
_cell_length_c	7.088668
_cell_angle_alpha	83.035178
_cell_angle_beta	90.780923
_cell_angle_gamma	84.411210
loop_
_atom_site_label
_atom_site_type_symbol
_atom_site_fract_x
_atom_site_fract_y
_atom_site_fract_z
O1	O	-2.065968	-0.116465	-0.181302
O2	O	-1.615748	-0.129727	-0.107145
O3	O	-1.853194	-0.000821	-0.146252
O4	O	-1.828522	-0.245371	-0.142195
O5	O	-1.824831	0.014582	-0.459570
O6	O	-1.587385	-0.114324	-0.420462
O7	O	-2.037604	-0.101062	-0.494619
Cu8	Cu	-1.809904	-0.106287	-0.486149
Cu9	Cu	-1.843448	-0.124503	-0.115615
O10	O	-1.800158	-0.229968	-0.455512
C11	C	-1.543955	-0.121459	-0.254314
C12	C	-1.372290	-0.119761	-0.226038
C13	C	-1.838003	0.038175	-0.302740
C14	C	-1.834976	0.131423	-0.302227
C15	C	-1.109397	-0.109329	-0.347453
C16	C	-1.281062	-0.111025	-0.375739
C17	C	-1.815350	-0.268965	-0.299020
C18	C	-1.818378	-0.362213	-0.299521
C19	C	-1.972925	0.422931	-0.324959
C20	C	-1.887229	0.369516	-0.467636
C21	C	-1.823972	0.467063	-0.300436
C22	C	-1.915154	0.354336	-0.158723
C23	C	-1.829387	0.302153	-0.301314
C24	C	-1.738223	0.414882	-0.443234
C25	C	-1.766182	0.399702	-0.134186
C26	C	-1.680374	0.346306	-0.276883
C27	C	-1.820856	0.562064	-0.299933
C28	C	-1.832489	0.207153	-0.301829
N29	N	-1.786323	-0.093474	-0.746764
N30	N	-1.867041	-0.137309	0.144998
H31	H	-1.334287	-0.104840	-0.525544
H32	H	-1.319059	-0.125940	-0.076223
Br33	Br	-2.178932	0.478454	-0.359129
H34	H	-1.938409	0.355832	-0.608618
Br35	Br	-2.006431	-0.213015	-0.741807
H36	H	-1.663437	0.441305	-0.563610
H37	H	-1.702712	-0.048049	-0.814682
Br38	Br	-1.680965	0.422548	0.100792
Br39	Br	-1.474147	0.291056	-0.243040
H40	H	-1.990003	0.327822	-0.038509
