data_functionalizedCrystal
_audit_creation_method	'MofGen! by Chris Wilmer'
_symmetry_space_group_name_H-M	'P1'
_symmetry_Int_Tables_number	1
_symmetry_cell_setting	triclinic
loop_
_symmetry_equiv_pos_as_xyz
  x,y,z
_cell_length_a	10.654562
_cell_length_b	12.811415
_cell_length_c	9.130313
_cell_angle_alpha	84.567879
_cell_angle_beta	89.996930
_cell_angle_gamma	84.265449
loop_
_atom_site_label
_atom_site_type_symbol
_atom_site_fract_x
_atom_site_fract_y
_atom_site_fract_z
O1	O	1.667058	0.147485	-0.141482
O2	O	1.301508	0.161516	-0.143327
O3	O	1.493480	0.001776	-0.122113
O4	O	1.475086	0.307225	-0.162696
O5	O	1.493478	0.001780	0.121485
O6	O	1.301506	0.161521	0.100271
O7	O	1.667056	0.147489	0.102116
Cu8	Cu	1.484281	0.154505	0.123436
Cu9	Cu	1.484283	0.154500	-0.164647
O10	O	1.475084	0.307229	0.080902
C11	C	1.254715	0.160486	-0.021389
C12	C	1.115289	0.157395	-0.020971
C13	C	1.049764	0.155955	0.111994
C14	C	0.918757	0.153060	0.112355
C15	C	0.918810	0.153047	-0.153228
C16	C	1.049816	0.155935	-0.153586
C17	C	1.049732	0.155967	0.265326
C18	C	0.918725	0.153071	0.265687
C19	C	1.492449	-0.037334	0.004879
C20	C	1.489363	-0.153874	0.020355
C21	C	1.483544	-0.372859	-0.216167
C22	C	1.480644	-0.482359	-0.201634
C23	C	1.480655	-0.482375	0.063953
C24	C	1.483554	-0.372875	0.049420
C25	C	1.485001	-0.318121	-0.090645
C26	C	1.487909	-0.208620	-0.105177
C27	C	1.487911	-0.208637	0.160409
C28	C	1.485011	-0.318137	0.174942
C29	C	1.713849	0.148520	-0.019826
C30	C	1.853275	0.151611	-0.020253
C31	C	1.476116	0.346339	-0.046094
C32	C	1.479201	0.462879	-0.061579
N33	N	1.484288	0.154508	0.326058
N34	N	1.484286	0.154489	-0.367268
C35	C	1.569315	0.083799	0.412101
C36	C	1.569311	0.083787	0.565439
C37	C	1.399250	0.225201	0.546678
C38	C	1.399248	0.225208	0.393343
C39	C	1.667502	0.002158	0.422933
C40	C	1.667499	0.002145	0.576271
H41	H	0.865485	0.151859	-0.261199
H42	H	1.637382	-0.074096	0.633950
H43	H	0.872061	0.225613	0.314914
C44	C	1.089155	0.259379	0.315878
N45	N	1.118848	0.337269	0.353954
C46	C	1.112742	0.057972	0.357886
N47	N	1.160200	-0.015839	0.427598
H48	H	0.889534	0.076522	0.323437
C49	C	1.305710	0.302965	0.620707
N50	N	1.235253	0.361538	0.676463
H51	H	1.489091	-0.164041	-0.219225
H52	H	1.479467	-0.526974	0.177987
H53	H	1.484732	-0.328278	-0.330213
H54	H	1.763916	0.020133	0.615493
C55	C	1.483415	-0.378378	0.329005
N56	N	1.482216	-0.423751	0.445049
H57	H	1.646479	-0.078520	0.392033
C58	C	1.121892	0.157493	-0.299855
N59	N	1.176180	0.158662	-0.410030
H60	H	1.758552	0.027726	0.371973
C61	C	1.489516	-0.148417	0.298492
N62	N	1.490729	-0.103058	0.402494
C63	C	1.305809	0.303074	0.298691
N64	N	1.235465	0.361758	0.227394
H65	H	1.479453	-0.526922	-0.303848
