data_functionalizedCrystal
_audit_creation_method	'MofGen! by Chris Wilmer'
_symmetry_space_group_name_H-M	'P1'
_symmetry_Int_Tables_number	1
_symmetry_cell_setting	triclinic
loop_
_symmetry_equiv_pos_as_xyz
  x,y,z
_cell_length_a	16.704493
_cell_length_b	23.196402
_cell_length_c	23.196401
_cell_angle_alpha	60.007332
_cell_angle_beta	85.850003
_cell_angle_gamma	57.661527
loop_
_atom_site_label
_atom_site_type_symbol
_atom_site_fract_x
_atom_site_fract_y
_atom_site_fract_z
Zr1	Zr	0.773295	0.630971	-0.116056
O2	O	0.645119	0.751235	-0.201403
O3	O	0.812576	0.510709	-0.089895
O4	O	0.812552	0.630972	-0.210160
O5	O	0.645174	0.630970	0.013732
O6	O	0.944640	0.630971	-0.217065
O7	O	0.645142	0.630972	-0.081138
O8	O	0.944681	0.415843	-0.001933
O9	O	0.645133	0.846099	-0.201400
O10	O	0.927918	0.560173	-0.083888
O11	O	0.829366	0.560173	-0.007935
O12	O	0.829339	0.701767	-0.149531
O13	O	0.730787	0.701767	-0.073578
Zr14	Zr	0.984010	0.630967	0.024237
Zr15	Zr	0.983959	0.630969	-0.127069
Zr16	Zr	0.773345	0.630969	0.035250
Zr17	Zr	0.773316	0.782268	-0.116052
Zr18	Zr	0.983988	0.479670	0.024233
O19	O	0.944729	0.751229	-0.001923
O20	O	0.944657	0.751232	-0.217061
O21	O	0.645191	0.751231	0.013735
O22	O	1.112185	0.510703	0.109584
O23	O	1.112113	0.510707	-0.105554
O24	O	0.812647	0.510706	0.125243
O25	O	1.112130	0.630968	-0.105550
O26	O	0.944752	0.630966	0.118341
O27	O	0.812664	0.630967	0.125246
O28	O	1.112162	0.630966	-0.010681
O29	O	0.812583	0.846098	-0.210154
O30	O	0.944722	0.415841	0.118335
O31	O	1.112172	0.415839	0.109581
O32	O	1.112132	0.415841	-0.010687
O33	O	0.645173	0.846097	-0.081131
O34	O	0.812623	0.846096	-0.089885
O35	O	0.927965	0.560171	0.057712
O36	O	1.026517	0.560171	-0.018241
O37	O	0.927938	0.701765	-0.083884
O38	O	0.829386	0.701765	-0.007931
C39	C	0.878626	0.441719	-0.045915
C40	C	0.878616	0.377490	-0.045917
C41	C	0.951403	0.295060	0.002539
C42	C	0.951410	0.234699	0.002545
C43	C	0.878637	0.256774	-0.045916
C44	C	0.805838	0.339218	-0.094375
C45	C	0.805828	0.399576	-0.094376
C46	C	0.855959	0.201188	-0.108522
C47	C	0.855976	0.140829	-0.108523
C48	C	0.878664	0.070612	-0.045914
C49	C	0.901356	0.060752	0.016697
C50	C	0.901345	0.121110	0.016697
C51	C	0.878640	0.191332	-0.045921
C52	C	0.951462	-0.077271	0.002552
C53	C	0.951462	-0.137631	0.002559
C54	C	0.805894	-0.033109	-0.094367
C55	C	0.805890	0.027247	-0.094368
C56	C	0.878679	0.005161	-0.045909
C57	C	0.615143	0.630971	-0.032134
C58	C	0.525711	0.630972	-0.027459
C59	C	0.357631	0.630960	-0.123208
C60	C	0.273601	0.630961	-0.118818
C61	C	0.273623	0.630968	-0.014287
C62	C	0.357653	0.630968	-0.018677
C63	C	0.399653	0.630965	-0.073140
C64	C	0.483681	0.630970	-0.077532
C65	C	0.483705	0.630971	0.027002
C66	C	0.399675	0.630972	0.031392
C67	C	1.142161	0.630967	-0.059685
C68	C	1.231594	0.630966	-0.064360
C69	C	0.878589	0.630972	-0.235170
C70	C	0.878568	0.630973	-0.299404
C71	C	0.878679	0.820219	-0.045904
C72	C	0.878688	0.884449	-0.045902
C73	C	0.827115	0.704881	-0.363842
C74	C	0.827140	0.704882	-0.424199
C75	C	0.878604	0.630971	-0.420112
C76	C	0.930068	0.557053	-0.355662
C77	C	0.930050	0.557054	-0.295308
C78	C	0.871287	0.574345	-0.487049
C79	C	0.871298	0.574347	-0.547403
C80	C	0.878666	0.630965	-0.606263
C81	C	0.886004	0.687594	-0.604767
C82	C	0.885985	0.687595	-0.544413
C83	C	0.878630	0.630962	-0.485552
C84	C	0.827239	0.704879	-0.736149
C85	C	0.827271	0.704877	-0.796506
C86	C	0.930192	0.557046	-0.727967
C87	C	0.930166	0.557050	-0.667613
C88	C	0.878684	0.630969	-0.671709
C89	C	0.878715	0.630966	0.143352
C90	C	0.878737	0.630965	0.207585
C91	C	1.142135	0.441717	-0.059690
C92	C	1.231558	0.377487	-0.064368
C93	C	0.878689	0.441716	0.143346
C94	C	0.878701	0.377486	0.207578
C95	C	1.142198	0.441714	0.129571
C96	C	1.231643	0.377483	0.189127
C97	C	0.615107	0.820224	-0.221389
C98	C	0.525662	0.884455	-0.280946
C99	C	0.615170	0.820221	-0.032128
C100	C	0.525746	0.884452	-0.027451
C101	C	0.878616	0.820222	-0.235165
C102	C	0.878603	0.884453	-0.299396
C103	C	1.222085	0.347324	-0.100837
C104	C	1.306099	0.286982	-0.105246
C105	C	1.399587	0.256798	-0.073180
C106	C	1.409058	0.286966	-0.036709
C107	C	1.325044	0.347312	-0.032305
C108	C	0.930174	0.347321	0.272015
C109	C	0.930182	0.286978	0.332373
C110	C	0.878722	0.256797	0.328293
C111	C	0.827242	0.286967	0.263849
C112	C	0.827229	0.347313	0.203492
C113	C	1.325099	0.347319	0.177448
C114	C	1.409150	0.286975	0.233401
C115	C	1.399743	0.256792	0.301033
C116	C	1.306276	0.286962	0.312711
C117	C	1.222228	0.347309	0.256759
C118	C	0.432206	0.914626	-0.269267
C119	C	0.348154	0.974989	-0.325220
C120	C	0.357562	1.005175	-0.392852
C121	C	0.451028	0.975002	-0.404530
C122	C	0.535077	0.914645	-0.348577
C123	C	0.535220	0.914620	0.009012
C124	C	0.451205	0.974980	0.013404
C125	C	0.357717	1.005165	-0.018664
C126	C	0.348246	0.974994	-0.055132
C127	C	0.432260	0.914640	-0.059528
C128	C	0.930074	0.914615	-0.295293
C129	C	0.930081	0.974959	-0.355641
C130	C	0.878612	1.005143	-0.420090
C131	C	0.827140	0.974974	-0.424192
C132	C	0.827139	0.914628	-0.363845
H133	H	1.010672	0.277069	0.041998
C134	C	0.725789	0.363499	-0.147683
N135	N	0.665493	0.381789	-0.187835
C136	C	0.770536	0.786191	-0.495091
N137	N	0.727901	0.847432	-0.548486
C138	C	0.830994	0.151689	-0.177396
N139	N	0.812167	0.159875	-0.229274
H140	H	0.239390	0.630956	-0.159588
H141	H	0.891962	0.733703	-0.543198
C142	C	0.265095	1.071564	-0.454394
N143	N	0.195446	1.121565	-0.500746
C144	C	0.725759	0.490256	-0.147687
N145	N	0.665452	0.558559	-0.187844
C146	C	0.894113	0.749877	-0.669511
N147	N	0.900220	0.796787	-0.718277
C148	C	0.926310	-0.016484	0.085572
N149	N	0.945106	-0.074659	0.137446
H150	H	0.391823	0.630966	-0.167558
C151	C	0.770568	1.008156	-0.495095
N152	N	0.727970	1.033143	-0.548502
C153	C	0.770498	0.881466	-0.368369
N154	N	0.727831	0.856494	-0.371782
H155	H	0.611334	0.890047	0.035132
C156	C	0.461359	1.008208	-0.478931
N157	N	0.469138	1.033216	-0.534972
H158	H	0.972107	0.262421	0.384840
C159	C	0.461646	1.008150	0.053529
N160	N	0.469512	1.033131	0.083753
C161	C	0.986757	0.475744	-0.596726
N162	N	1.029385	0.414500	-0.543332
C163	C	0.878756	0.190406	0.394693
N164	N	0.878791	0.140397	0.444708
H165	H	0.785320	0.765069	-0.739484
H166	H	0.611171	0.890080	-0.358095
H167	H	0.919819	0.113080	0.067677
H168	H	1.010682	0.167572	0.042005
C169	C	0.265308	1.071554	-0.013819
N170	N	0.195709	1.121555	-0.010164
H171	H	0.971994	0.999515	-0.352288
H172	H	0.239422	0.630963	0.030060
C173	C	0.245351	1.008167	-0.312359
N174	N	0.167922	1.033155	-0.302669
H175	H	0.365471	0.630971	0.075736
C176	C	0.245400	1.008196	-0.090393
N177	N	0.167934	1.033199	-0.116944
H178	H	1.010732	-0.204752	0.042021
C179	C	1.031521	-0.101564	0.055864
N180	N	1.091821	-0.119864	0.096020
H181	H	0.424533	0.890078	-0.089218
H182	H	0.865319	0.528239	-0.548616
C183	C	0.529936	0.630977	0.082081
N184	N	0.564757	0.630982	0.123564
H185	H	0.785199	0.765072	-0.367183
C186	C	0.986704	0.881420	-0.224405
N187	N	1.029367	0.856417	-0.171014
H188	H	0.878621	1.054281	-0.469223
H189	H	0.746640	-0.015135	-0.133824
C190	C	1.511953	0.253793	0.220540
N191	N	1.589382	0.228799	0.210851
C192	C	1.491996	0.190410	-0.078025
N193	N	1.561595	0.140403	-0.081674
C194	C	0.725827	0.117927	-0.147681
N195	N	0.665520	0.186229	-0.187839
H196	H	1.298631	0.262378	0.367784
C197	C	1.492209	0.190403	0.362576
N198	N	1.561859	0.140395	0.408927
H199	H	0.837473	0.258364	-0.159509
H200	H	0.785375	0.765065	-0.848976
C201	C	0.529882	0.630964	-0.137441
N202	N	0.564681	0.630955	-0.182564
H203	H	1.146134	0.371860	0.266278
H204	H	0.785316	0.371865	0.151027
C205	C	0.986805	0.475742	-0.723468
N206	N	1.029450	0.414501	-0.720081
H207	H	0.971972	0.496874	-0.352339
C208	C	0.863178	0.512059	-0.422305
N209	N	0.857069	0.465147	-0.373542
H210	H	0.971949	0.496867	-0.242838
H211	H	1.145970	0.371899	-0.126959
H212	H	1.298368	0.262426	-0.134944
H213	H	0.785344	0.262384	0.260536
H214	H	1.485187	0.262382	-0.010603
H215	H	0.424527	0.890052	-0.214202
H216	H	1.332772	0.371862	-0.002603
H217	H	1.332777	0.371886	0.122383
H218	H	0.972080	0.371889	0.275351
