data_functionalizedCrystal
_audit_creation_method	'MofGen! by Chris Wilmer'
_symmetry_space_group_name_H-M	'P1'
_symmetry_Int_Tables_number	1
_symmetry_cell_setting	triclinic
loop_
_symmetry_equiv_pos_as_xyz
  x,y,z
_cell_length_a	11.169417
_cell_length_b	21.395361
_cell_length_c	21.395355
_cell_angle_alpha	89.978489
_cell_angle_beta	89.979112
_cell_angle_gamma	90.031958
loop_
_atom_site_label
_atom_site_type_symbol
_atom_site_fract_x
_atom_site_fract_y
_atom_site_fract_z
Zn1	Zn	1.834809	-0.249490	-0.354187
Zn2	Zn	1.834622	-0.354250	-0.249404
Zn3	Zn	1.634090	-0.249493	-0.249431
Zn4	Zn	1.634031	-0.354236	-0.354151
O5	O	1.734388	-0.301867	-0.301793
O6	O	2.002734	-0.263392	-0.340291
O7	O	1.807967	-0.340361	-0.161730
O8	O	1.660818	-0.161814	-0.263353
O9	O	2.002596	-0.340358	-0.263308
O10	O	1.808286	-0.161813	-0.340317
O11	O	1.660637	-0.263396	-0.161749
O12	O	1.466132	-0.263382	-0.263318
O13	O	1.660718	-0.340335	-0.441834
O14	O	1.466089	-0.340337	-0.340256
O15	O	1.808228	-0.263378	-0.441860
O16	O	1.807910	-0.441926	-0.263273
O17	O	1.660537	-0.441916	-0.340230
C18	C	1.734229	-0.464655	-0.301758
C19	C	1.734271	-0.534296	-0.301764
C20	C	1.422563	-0.301859	-0.301786
C21	C	1.289163	-0.301870	-0.301798
C22	C	1.811077	-0.566994	-0.261734
C23	C	1.811132	-0.632429	-0.261748
C24	C	1.734361	-0.665164	-0.301786
C25	C	1.657551	-0.632459	-0.341824
C26	C	1.657506	-0.567025	-0.341813
C27	C	1.626297	-0.768881	-0.306699
C28	C	1.626341	-0.834314	-0.306706
C29	C	1.734501	-0.866985	-0.301823
C30	C	1.842622	-0.834216	-0.296920
C31	C	1.842577	-0.768781	-0.296909
C32	C	1.734402	-0.736117	-0.301802
C33	C	1.811374	-0.970635	-0.261805
C34	C	1.811431	-1.036072	-0.261824
C35	C	1.657839	-1.036100	-0.341897
C36	C	1.657792	-0.970665	-0.341881
C37	C	1.734558	-0.937936	-0.301832
C38	C	2.047430	-0.301876	-0.301801
C39	C	2.180830	-0.301880	-0.301804
C40	C	1.734487	-0.301855	-0.465217
C41	C	1.734530	-0.301849	-0.534858
C42	C	1.734579	-0.138444	-0.301842
C43	C	1.734661	-0.068803	-0.301863
C44	C	1.811335	-0.261776	-0.567586
C45	C	1.811334	-0.261749	-0.633021
C46	C	1.734539	-0.301807	-0.665726
C47	C	1.657719	-0.341882	-0.632990
C48	C	1.657714	-0.341904	-0.567556
C49	C	1.725008	-0.358222	-0.769389
C50	C	1.725021	-0.358202	-0.834822
C51	C	1.734547	-0.301740	-0.867547
C52	C	1.744085	-0.245298	-0.834831
C53	C	1.744080	-0.245319	-0.769397
C54	C	1.734535	-0.301788	-0.736679
C55	C	1.811354	-0.261635	-0.971228
C56	C	1.811344	-0.261607	-1.036664
C57	C	1.657736	-0.341745	-1.036632
C58	C	1.657739	-0.341768	-0.971197
C59	C	1.734555	-0.301713	-0.938498
C60	C	1.734358	-0.301835	-0.139006
C61	C	1.734548	-0.301664	-0.069365
H62	H	1.873587	-0.540348	-0.229125
C63	C	1.961610	-0.870149	-0.291553
N64	N	2.051228	-0.897217	-0.287512
C65	C	1.573251	-0.385854	-0.935195
N66	N	1.509608	-0.419061	-0.908078
H67	H	1.873887	-0.228971	-1.063310
H68	H	1.751843	-0.199321	-0.861474
H69	H	1.873681	-0.659057	-0.229150
H70	H	1.873883	-0.229160	-0.540967
C71	C	1.895842	-0.217569	-0.935257
N72	N	1.959477	-0.184377	-0.908166
C73	C	1.573261	-0.385809	-1.072604
N74	N	1.509632	-0.418999	-1.099701
C75	C	1.573221	-0.385990	-0.531554
N76	N	1.509581	-0.419198	-0.504437
H77	H	1.717262	-0.404161	-0.861455
C78	C	1.895834	-0.934632	-0.217760
N79	N	1.959455	-0.907515	-0.184587
C80	C	1.895927	-1.072039	-0.217784
N81	N	1.959569	-1.099130	-0.184611
C82	C	1.714551	-0.420339	-0.733398
N83	N	1.706684	-0.467125	-0.706291
H84	H	1.595245	-0.944041	-0.374475
C85	C	1.754555	-0.183233	-0.733412
N86	N	1.762437	-0.136468	-0.706308
H87	H	1.595188	-0.374495	-0.659623
C88	C	1.573025	-0.531056	-0.385860
N89	N	1.509397	-0.503964	-0.419039
H90	H	1.930612	-0.742102	-0.292919
H91	H	1.873875	-0.229114	-0.659673
C92	C	1.507406	-0.870354	-0.312097
N93	N	1.417821	-0.897498	-0.316159
H94	H	1.595336	-1.062753	-0.374499
H95	H	1.595045	-0.659116	-0.374424
C96	C	1.507302	-0.732949	-0.312056
N97	N	1.417676	-0.705886	-0.316086
