data_functionalizedCrystal
_audit_creation_method	'MofGen! by Chris Wilmer'
_symmetry_space_group_name_H-M	'P1'
_symmetry_Int_Tables_number	1
_symmetry_cell_setting	triclinic
loop_
_symmetry_equiv_pos_as_xyz
  x,y,z
_cell_length_a	12.594516
_cell_length_b	16.625547
_cell_length_c	16.625539
_cell_angle_alpha	89.972942
_cell_angle_beta	90.023327
_cell_angle_gamma	89.984761
loop_
_atom_site_label
_atom_site_type_symbol
_atom_site_fract_x
_atom_site_fract_y
_atom_site_fract_z
Zn1	Zn	-0.423763	-1.232716	0.456077
Zn2	Zn	0.076237	-0.732716	0.956077
Zn3	Zn	-0.601765	-1.232635	0.321256
Zn4	Zn	-0.101765	-0.732635	0.821256
Zn5	Zn	-0.423798	-1.097878	0.321242
Zn6	Zn	0.076202	-0.597878	0.821242
Zn7	Zn	-0.601698	-1.097864	0.456030
Zn8	Zn	-0.101698	-0.597864	0.956030
O9	O	-0.512756	-1.165273	0.388651
O10	O	-0.012756	-0.665273	0.888651
O11	O	-0.447389	-1.345538	0.438218
O12	O	0.052611	-0.845538	0.938218
O13	O	-0.578199	-1.214731	0.208422
O14	O	-0.078199	-0.714731	0.708422
O15	O	-0.274848	-1.115805	0.339142
O16	O	0.225152	-0.615805	0.839142
O17	O	-0.578166	-1.345478	0.339165
O18	O	-0.078166	-0.845478	0.839165
O19	O	-0.274822	-1.214870	0.438204
O20	O	0.225178	-0.714870	0.938204
O21	O	-0.447448	-1.115726	0.208411
O22	O	0.052552	-0.615726	0.708411
O23	O	-0.447383	-0.985044	0.339097
O24	O	0.052617	-0.485044	0.839097
O25	O	-0.578052	-1.115780	0.568869
O26	O	-0.078052	-0.615780	1.068869
O27	O	-0.578085	-0.985033	0.438125
O28	O	-0.078085	-0.485033	0.938125
O29	O	-0.447324	-1.214856	0.568903
O30	O	0.052676	-0.714856	1.068903
O31	O	-0.750701	-1.214717	0.339120
O32	O	-0.250701	-0.714717	0.839120
O33	O	-0.750652	-1.115701	0.438139
O34	O	-0.250652	-0.615701	0.938139
C35	C	-0.512732	-0.955782	0.388605
C36	C	-0.012732	-0.455782	0.888605
C37	C	-0.512747	-0.866161	0.388604
C38	C	-0.012747	-0.366161	0.888604
C39	C	-0.512748	-0.793379	0.388611
C40	C	-0.012748	-0.293379	0.888611
C41	C	-0.512752	-0.702070	0.388628
C42	C	-0.012752	-0.202070	0.888628
C43	C	-0.512760	-0.629294	0.388646
C44	C	-0.012760	-0.129294	0.888646
C45	C	-0.512766	-0.537980	0.388662
C46	C	-0.012766	-0.037980	0.888662
C47	C	-0.789297	-1.165220	0.388643
C48	C	-0.289297	-0.665220	0.888643
C49	C	-0.907602	-1.165272	0.388667
C50	C	-0.407602	-0.665272	0.888667
C51	C	-0.976867	-1.111412	0.442485
C52	C	-0.476867	-0.611412	0.942485
C53	C	-1.047727	-1.091767	0.368908
C54	C	-0.547727	-0.591767	0.868908
C55	C	-1.047541	-1.184990	0.462256
C56	C	-0.547541	-0.684990	0.962256
C57	C	-0.976904	-1.145588	0.315051
C58	C	-0.476904	-0.645588	0.815051
C59	C	-0.976712	-1.238845	0.408449
C60	C	-0.476712	-0.738845	0.908449
C61	C	-1.047540	-1.219228	0.334821
C62	C	-0.547540	-0.719228	0.834821
C63	C	-0.235135	-1.165348	0.388677
C64	C	0.264865	-0.665348	0.888677
C65	C	-0.116829	-1.165380	0.388688
C66	C	0.383171	-0.665380	0.888688
C67	C	-0.512677	-1.165326	0.598960
C68	C	-0.012677	-0.665326	1.098960
C69	C	-0.512643	-1.165348	0.688581
C70	C	-0.012643	-0.665348	1.188581
C71	C	-0.512777	-0.375582	0.388688
C72	C	-0.012777	0.124418	0.888688
C73	C	-0.512774	-0.465203	0.388679
C74	C	-0.012774	0.034797	0.888679
C75	C	-0.512758	-1.165268	0.179160
C76	C	-0.012758	-0.665268	0.679160
C77	C	-0.512492	-1.165401	0.089540
C78	C	-0.012492	-0.665401	0.589540
C79	C	-0.512524	-1.165385	1.016757
C80	C	-0.012524	-0.665385	1.516757
C81	C	-0.512560	-1.165373	0.925449
C82	C	-0.012560	-0.665373	1.425449
C83	C	-0.512584	-1.165367	0.852672
C84	C	-0.012584	-0.665367	1.352672
C85	C	-0.512619	-1.165354	0.761358
C86	C	-0.012619	-0.665354	1.261358
H87	H	-1.078944	-1.029598	0.352194
H88	H	-0.578944	-0.529598	0.852194
O89	O	-0.939965	-1.057032	0.496803
O90	O	-0.439965	-0.557032	0.996803
C91	C	-0.977480	-1.077137	0.574130
C92	C	-0.477480	-0.577137	1.074130
H93	H	-1.052472	-1.115093	0.568434
H94	H	-0.552472	-0.615093	1.068434
H95	H	-0.996279	-1.019765	0.608853
H96	H	-0.496279	-0.519765	1.108853
H97	H	-0.914026	-1.112807	0.607633
H98	H	-0.414026	-0.612807	1.107633
O99	O	-0.939513	-1.312970	0.428569
O100	O	-0.439513	-0.812970	0.928569
C101	C	-0.975459	-1.333480	0.506218
C102	C	-0.475459	-0.833480	1.006218
H103	H	-0.995389	-1.276333	0.540947
H104	H	-0.495389	-0.776333	1.040947
H105	H	-0.910599	-1.368051	0.539319
H106	H	-0.410599	-0.868051	1.039319
H107	H	-1.049455	-1.372639	0.501177
H108	H	-0.549455	-0.872639	1.001177
H109	H	-1.078375	-1.264822	0.289265
H110	H	-0.578375	-0.764822	0.789265
O111	O	-0.939872	-1.125632	0.240852
O112	O	-0.439872	-0.625632	0.740852
C113	C	-0.827930	-1.125801	0.241741
C114	C	-0.327930	-0.625801	0.741741
H115	H	-0.798594	-1.116783	0.305982
H116	H	-0.298594	-0.616783	0.805982
H117	H	-0.797110	-1.074944	0.202107
H118	H	-0.297110	-0.574944	0.702107
H119	H	-0.797565	-1.185811	0.217851
H120	H	-0.297565	-0.685811	0.717851
O121	O	-1.084380	-1.204887	0.536527
O122	O	-0.584380	-0.704887	1.036527
C123	C	-0.997905	-1.218019	0.588796
C124	C	-0.497905	-0.718019	1.088796
H125	H	-0.924424	-1.234001	0.552110
H126	H	-0.424424	-0.734001	1.052110
H127	H	-1.017418	-1.269589	0.631515
H128	H	-0.517418	-0.769589	1.131515
H129	H	-0.981947	-1.161087	0.625028
H130	H	-0.481947	-0.661087	1.125028
