data_functionalizedCrystal
_audit_creation_method	'MofGen! by Chris Wilmer'
_symmetry_space_group_name_H-M	'P1'
_symmetry_Int_Tables_number	1
_symmetry_cell_setting	triclinic
loop_
_symmetry_equiv_pos_as_xyz
  x,y,z
_cell_length_a	14.853567
_cell_length_b	15.944551
_cell_length_c	13.930277
_cell_angle_alpha	89.994493
_cell_angle_beta	89.995755
_cell_angle_gamma	83.566834
loop_
_atom_site_label
_atom_site_type_symbol
_atom_site_fract_x
_atom_site_fract_y
_atom_site_fract_z
O1	O	1.196228	0.109664	-0.079767
O2	O	0.933751	0.122728	-0.079783
O3	O	1.072157	-0.006071	-0.079766
O4	O	1.057822	0.238463	-0.079784
O5	O	1.072138	-0.006073	0.079896
O6	O	0.933732	0.122725	0.079878
O7	O	1.196208	0.109662	0.079895
Zn8	Zn	1.064967	0.116193	0.105236
Zn9	Zn	1.064993	0.116197	-0.105125
O10	O	1.057803	0.238460	0.079878
C11	C	0.900154	0.122135	0.000045
C12	C	0.800072	0.120361	0.000039
C13	C	0.387646	0.036354	0.000067
C14	C	0.366169	0.189369	0.000055
C15	C	0.460201	0.191037	0.000051
C16	C	0.517960	0.115362	0.000055
C17	C	0.481687	0.038019	0.000061
C18	C	0.496480	0.268379	0.000035
C19	C	0.590517	0.270050	0.000031
C20	C	0.648278	0.194374	0.000041
C21	C	0.612000	0.117028	0.000049
C22	C	0.669759	0.041353	0.000052
C23	C	0.633483	-0.035994	0.000066
C24	C	0.539448	-0.037657	0.000071
C25	C	0.742313	0.196036	0.000036
C26	C	0.763800	0.043018	0.000046
C27	C	1.071552	-0.037367	0.000065
C28	C	1.069768	-0.130615	0.000065
C29	C	0.979713	-0.345572	0.000047
C30	C	1.021522	-0.406544	0.078772
C31	C	1.066541	-0.301344	0.000058
C32	C	1.021562	-0.406524	-0.078642
C33	C	1.063416	-0.466260	0.000046
C34	C	1.108373	-0.361088	0.078848
C35	C	1.108401	-0.361062	-0.078636
C36	C	1.150273	-0.422017	0.000109
C37	C	1.068338	-0.206340	0.000065
C38	C	1.061626	-0.561263	0.000046
C39	C	1.229806	0.110255	0.000064
C40	C	1.329887	0.112029	0.000064
C41	C	1.058407	0.269756	0.000044
C42	C	1.060191	0.363004	0.000038
N43	N	1.064957	0.116190	0.248803
N44	N	1.065010	0.116193	-0.248691
C45	C	1.003704	0.173206	0.701064
C46	C	1.126306	0.059181	0.701049
C47	C	1.126295	0.059178	0.600553
C48	C	1.064989	0.116191	0.550308
C49	C	1.003693	0.173207	0.600559
C50	C	1.187596	0.002169	0.550295
C51	C	1.187588	0.002164	0.449793
C52	C	1.126277	0.059174	0.399546
C53	C	1.064978	0.116192	0.449803
C54	C	1.003672	0.173205	0.399558
C55	C	0.942368	0.230220	0.449814
C56	C	0.942382	0.230217	0.550312
C57	C	1.126263	0.059177	0.299047
C58	C	1.003661	0.173206	0.299053
H59	H	0.810822	-0.018607	0.000052
O60	O	0.777658	0.271109	0.000150
C61	C	0.871308	0.361822	0.082881
C62	C	0.831360	0.276759	0.082858
H63	H	0.914719	0.366425	0.149753
H64	H	0.914859	0.366439	0.016107
H65	H	0.813857	0.415607	0.082827
H66	H	0.888753	0.222925	0.082945
H67	H	0.787785	0.272216	0.149626
H68	H	1.145059	-0.341058	0.145478
O69	O	1.152317	-0.336964	-0.157932
C70	C	1.278035	-0.270170	-0.219686
C71	C	1.228411	-0.297437	-0.129795
H72	H	1.339556	-0.238191	-0.196969
H73	H	1.301072	-0.328010	-0.265241
H74	H	1.230167	-0.224066	-0.263404
H75	H	1.276226	-0.343522	-0.086003
H76	H	1.205359	-0.239557	-0.084311
H77	H	1.176224	0.012766	0.741962
O78	O	0.882852	0.285521	0.400853
C79	C	0.828558	0.336088	0.246023
C80	C	0.895990	0.273403	0.301355
H81	H	0.839170	0.326324	0.165569
H82	H	0.756333	0.325018	0.265714
H83	H	0.840294	0.403378	0.265831
H84	H	0.884337	0.206088	0.281576
H85	H	0.968192	0.284546	0.281659
H86	H	0.680523	-0.097609	0.000062
O87	O	0.977765	-0.430739	0.158136
C88	C	0.927704	-0.546396	0.247398
C89	C	0.977306	-0.519119	0.157497
H90	H	0.927300	-0.617851	0.246902
H91	H	0.964009	-0.526883	0.314523
H92	H	0.855017	-0.514633	0.247292
H93	H	1.049995	-0.550869	0.157510
H94	H	0.940930	-0.538617	0.090413
O95	O	1.236318	-0.461501	-0.000025
C96	C	1.347618	-0.556549	-0.083064
C97	C	1.250153	-0.511885	-0.083039
H98	H	1.358829	-0.597309	-0.150164
H99	H	1.397710	-0.507355	-0.082464
H100	H	1.358450	-0.598095	-0.016534
H101	H	1.239233	-0.470341	-0.149558
H102	H	1.200111	-0.561123	-0.083589
O103	O	0.893752	-0.305892	-0.000044
C104	C	0.782647	-0.210609	-0.083044
C105	C	0.880010	-0.255507	-0.083076
H106	H	0.771512	-0.169848	-0.150158
H107	H	0.732396	-0.259660	-0.082372
H108	H	0.771972	-0.169034	-0.016529
H109	H	0.890773	-0.297080	-0.149580
H110	H	0.930211	-0.206411	-0.083699
O111	O	0.504059	-0.112712	0.000036
C112	C	0.368708	-0.183087	0.000099
C113	C	0.408669	-0.098030	0.000119
H114	H	0.291580	-0.171246	0.000187
H115	H	0.392429	-0.220500	-0.066733
H116	H	0.392541	-0.220490	0.066904
H117	H	0.384854	-0.060559	-0.066640
H118	H	0.384951	-0.060681	0.066995
O119	O	0.352264	-0.038705	0.000038
C120	C	0.216923	-0.109095	0.000121
C121	C	0.256873	-0.024033	0.000132
H122	H	0.139794	-0.097262	0.000217
H123	H	0.240642	-0.146508	-0.066712
H124	H	0.240767	-0.146493	0.066925
H125	H	0.233047	0.013434	-0.066627
H126	H	0.233158	0.013316	0.067008
H127	H	0.892471	0.276637	0.591236
O128	O	1.247059	-0.053177	0.599249
C129	C	1.301440	-0.103675	0.754074
C130	C	1.234033	-0.040962	0.698748
H131	H	1.290945	-0.093809	0.834528
H132	H	1.289696	-0.170993	0.734396
H133	H	1.373634	-0.092611	0.734247
H134	H	1.161814	-0.051949	0.718546
H135	H	1.245856	0.026335	0.718431
O136	O	0.944032	0.228502	0.749834
C137	C	0.787280	0.277478	0.780556
C138	C	0.854760	0.214797	0.725280
H139	H	0.715089	0.266432	0.760710
H140	H	0.797734	0.267685	0.861028
H141	H	0.799069	0.344771	0.760802
H142	H	0.843011	0.147480	0.744954
H143	H	0.844289	0.224665	0.644822
H144	H	1.237504	-0.044260	0.408882
H145	H	0.984834	-0.426641	-0.145203
H146	H	1.176179	0.012760	0.258134
H147	H	0.319136	0.250981	0.000044
H148	H	0.449447	0.329989	0.000023
H149	H	0.620045	0.333030	0.000019
H150	H	0.953734	0.219631	0.258150
