data_functionalizedCrystal
_audit_creation_method	'MofGen! by Chris Wilmer'
_symmetry_space_group_name_H-M	'P1'
_symmetry_Int_Tables_number	1
_symmetry_cell_setting	triclinic
loop_
_symmetry_equiv_pos_as_xyz
  x,y,z
_cell_length_a	14.519710
_cell_length_b	19.288865
_cell_length_c	18.366186
_cell_angle_alpha	90.011479
_cell_angle_beta	89.991899
_cell_angle_gamma	96.591804
loop_
_atom_site_label
_atom_site_type_symbol
_atom_site_fract_x
_atom_site_fract_y
_atom_site_fract_z
O1	O	1.223296	-0.091051	-0.060542
O2	O	1.723296	0.408949	0.439458
O3	O	0.954751	-0.101773	-0.060548
O4	O	1.454751	0.398227	0.439452
O5	O	1.096783	0.004690	-0.060531
O6	O	1.596783	0.504690	0.439469
O7	O	1.081264	-0.197514	-0.060560
O8	O	1.581264	0.302486	0.439440
O9	O	1.096759	0.004696	0.060569
O10	O	1.596759	0.504696	0.560569
O11	O	0.954727	-0.101768	0.060551
O12	O	1.454727	0.398232	0.560551
O13	O	1.223272	-0.091046	0.060557
O14	O	1.723272	0.408954	0.560557
Zn15	Zn	1.088995	-0.096406	0.079781
Zn16	Zn	1.588995	0.403594	0.579781
Zn17	Zn	1.089027	-0.096413	-0.079773
Zn18	Zn	1.589027	0.403587	0.420227
O19	O	1.081240	-0.197509	0.060539
O20	O	1.581240	0.302491	0.560539
C21	C	0.920382	-0.101271	0.000001
C22	C	1.420382	0.398729	0.500001
C23	C	0.818010	-0.099773	-0.000001
C24	C	1.318010	0.400227	0.499999
C25	C	1.257640	-0.091548	0.000006
C26	C	1.757640	0.408452	0.500006
C27	C	1.360012	-0.093045	0.000003
C28	C	1.860012	0.406955	0.500003
C29	C	1.096272	0.030571	0.000021
C30	C	1.596272	0.530571	0.500021
C31	C	1.094773	0.107680	0.000027
C32	C	1.594773	0.607680	0.500027
C33	C	1.734873	-0.098558	0.000002
C34	C	2.234873	0.401442	0.500002
C35	C	1.630575	-0.097027	0.000002
C36	C	2.130575	0.402973	0.500002
C37	C	1.547446	-0.095802	0.000002
C38	C	2.047446	0.404198	0.500002
C39	C	1.443141	-0.094271	0.000003
C40	C	1.943141	0.405729	0.500003
C41	C	1.081751	-0.223390	-0.000014
C42	C	1.581751	0.276610	0.499986
C43	C	1.083250	-0.300499	-0.000025
C44	C	1.583250	0.199501	0.499975
N45	N	1.088981	-0.096401	0.188672
N46	N	1.588981	0.403599	0.688672
C47	C	1.178111	0.152077	0.000033
C48	C	1.678111	0.652077	0.500033
C49	C	1.176702	0.224529	0.000021
C50	C	1.676702	0.724529	0.500021
C51	C	1.091951	0.252581	0.000019
C52	C	1.591951	0.752581	0.500019
C53	C	1.008602	0.208175	0.000009
C54	C	1.508602	0.708175	0.500009
C55	C	1.010013	0.135725	0.000014
C56	C	1.510013	0.635725	0.500014
C57	C	1.025319	0.361110	0.042436
C58	C	1.525319	0.861110	0.542436
C59	C	1.023911	0.433560	0.042436
C60	C	1.523911	0.933560	0.542436
C61	C	1.087597	0.476043	0.000003
C62	C	1.587597	0.976043	0.500003
C63	C	1.152705	0.446068	-0.042422
C64	C	1.652705	0.946068	0.457578
C65	C	1.154116	0.373618	-0.042418
C66	C	1.654116	0.873618	0.457582
C67	C	1.090412	0.331141	0.000014
C68	C	1.590412	0.831141	0.500014
C69	C	1.169414	0.599000	-0.000006
C70	C	1.669414	1.099000	0.499994
C71	C	1.168002	0.671454	-0.000022
C72	C	1.668002	1.171454	0.499978
C73	C	0.999899	0.655098	-0.000026
C74	C	1.499899	1.155098	0.499974
C75	C	1.001314	0.582647	-0.000018
C76	C	1.501314	1.082647	0.499982
C77	C	1.086073	0.554602	-0.000004
C78	C	1.586073	1.054602	0.499996
N79	N	1.089049	-0.096413	-0.188664
N80	N	1.589049	0.403587	0.311336
C81	C	1.151893	-0.049282	0.226780
C82	C	1.651893	0.450718	0.726780
C83	C	1.151899	-0.049279	0.303008
C84	C	1.651899	0.450721	0.803008
C85	C	1.089001	-0.096406	0.341125
C86	C	1.589001	0.403594	0.841125
C87	C	1.026077	-0.143529	0.303008
C88	C	1.526077	0.356471	0.803008
C89	C	1.026067	-0.143526	0.226781
C90	C	1.526067	0.356474	0.726781
C91	C	1.076656	-0.159650	0.461876
C92	C	1.576656	0.340350	0.961876
C93	C	1.076672	-0.159654	0.538101
C94	C	1.576672	0.340346	1.038101
C95	C	1.089027	-0.096415	0.576232
C96	C	1.589027	0.403585	1.076232
C97	C	1.101385	-0.033170	0.538130
C98	C	1.601385	0.466830	1.038130
C99	C	1.101375	-0.033167	0.461903
C100	C	1.601375	0.466833	0.961903
C101	C	1.089005	-0.096415	0.423780
C102	C	1.589005	0.403585	0.923780
C103	C	1.151949	-0.049289	0.696996
C104	C	1.651949	0.450711	1.196996
C105	C	1.151949	-0.049285	0.773225
C106	C	1.651949	0.450715	1.273225
C107	C	1.026131	-0.143541	0.773223
C108	C	1.526131	0.356459	1.273223
C109	C	1.026128	-0.143539	0.696995
C110	C	1.526128	0.356461	1.196995
C111	C	1.089041	-0.096414	0.658886
C112	C	1.589041	0.403586	1.158886
H113	H	1.244568	0.260683	0.000023
H114	H	1.744568	0.760683	0.500023
N115	N	1.114700	0.035040	0.420805
N116	N	1.614700	0.535040	0.920805
H117	H	1.122529	0.075104	0.456522
H118	H	1.622529	0.575104	0.956522
H119	H	1.058689	0.039189	0.389191
H120	H	1.558689	0.539189	0.889191
H121	H	1.238430	0.576166	0.000002
H122	H	1.738430	1.076166	0.500002
N123	N	0.958270	-0.194365	0.655894
N124	N	1.458270	0.305635	1.155894
H125	H	0.968682	-0.243681	0.669144
H126	H	1.468682	0.256319	1.169144
H127	H	0.967836	-0.187154	0.601834
H128	H	1.467836	0.312846	1.101834
H129	H	1.111445	0.018325	0.569175
H130	H	1.611445	0.518325	1.069175
N131	N	1.269532	0.121837	0.000043
N132	N	1.769532	0.621837	0.500043
H133	H	1.306038	0.138014	-0.044848
H134	H	1.806038	0.638014	0.455152
H135	H	1.257713	0.069207	0.000072
H136	H	1.757713	0.569207	0.500072
N137	N	0.956641	0.315297	0.088224
N138	N	1.456641	0.815297	0.588224
H139	H	0.967416	0.264852	0.081793
H140	H	1.467416	0.764852	0.581793
H141	H	0.891535	0.321641	0.072373
H142	H	1.391535	0.821641	0.572373
H143	H	0.939597	0.231020	0.000006
H144	H	1.439597	0.731020	0.500006
N145	N	1.257892	0.719343	-0.000019
N146	N	1.757892	1.219343	0.499981
H147	H	1.311797	0.690580	-0.000007
H148	H	1.811797	1.190580	0.499993
H149	H	1.260951	0.749770	0.044872
H150	H	1.760951	1.249770	0.544872
H151	H	0.930893	0.677938	-0.000032
H152	H	1.430893	1.177938	0.499968
H153	H	0.942147	0.099576	0.000009
H154	H	1.442147	0.599576	0.500009
H155	H	0.933451	0.546498	-0.000018
H156	H	1.433451	1.046498	0.499982
N157	N	1.224331	0.341286	-0.088172
N158	N	1.724331	0.841286	0.411828
H159	H	1.264465	0.379187	-0.115056
H160	H	1.764465	0.879187	0.384944
H161	H	1.190985	0.307917	-0.124409
H162	H	1.690985	0.807917	0.375591
H163	H	0.974863	-0.181900	0.334046
H164	H	1.474863	0.318100	0.834046
N165	N	1.219744	0.001546	0.185677
N166	N	1.719744	0.501546	0.685677
H167	H	1.259599	0.031397	0.221390
H168	H	1.759599	0.531397	0.721390
H169	H	1.184566	0.032316	0.154067
H170	H	1.684566	0.532316	0.654067
N171	N	1.219754	0.001546	0.344123
N172	N	1.719754	0.501546	0.844123
H173	H	1.259606	0.031400	0.308414
H174	H	1.759606	0.531400	0.808414
H175	H	1.260408	-0.025121	0.375734
H176	H	1.760408	0.474879	0.875734
N177	N	1.219770	0.001561	0.655888
N178	N	1.719770	0.501561	1.155888
H179	H	1.210216	-0.005585	0.601816
H180	H	1.710216	0.494415	1.101816
H181	H	1.285167	-0.006554	0.669190
H182	H	1.785167	0.493446	1.169190
N183	N	1.221404	0.491878	-0.088192
N184	N	1.721404	0.991878	0.411808
H185	H	1.210631	0.542323	-0.081762
H186	H	1.710631	1.042323	0.418238
H187	H	1.213040	0.478359	-0.141110
H188	H	1.713040	0.978359	0.358890
N189	N	1.219823	0.001527	0.814331
N190	N	1.719823	0.501527	1.314331
H191	H	1.259682	0.031372	0.778620
H192	H	1.759682	0.531372	1.278620
H193	H	1.260467	-0.025154	0.845936
H194	H	1.760467	0.474846	1.345936
H195	H	0.974915	-0.181911	0.804257
H196	H	1.474915	0.318089	1.304257
H197	H	1.066616	-0.211151	0.569118
H198	H	1.566616	0.288849	1.069118
H199	H	0.970893	0.457959	0.076976
H200	H	1.470893	0.957959	0.576976
H201	H	1.066579	-0.211150	0.430836
H202	H	1.566579	0.288850	0.930836
H203	H	0.974835	-0.181896	0.195753
H204	H	1.474835	0.318104	0.695753
