data_functionalizedCrystal
_audit_creation_method	'MofGen! by Chris Wilmer'
_symmetry_space_group_name_H-M	'P1'
_symmetry_Int_Tables_number	1
_symmetry_cell_setting	triclinic
loop_
_symmetry_equiv_pos_as_xyz
  x,y,z
_cell_length_a	23.532407
_cell_length_b	27.732048
_cell_length_c	22.010155
_cell_angle_alpha	89.999275
_cell_angle_beta	89.996931
_cell_angle_gamma	82.745667
loop_
_atom_site_label
_atom_site_type_symbol
_atom_site_fract_x
_atom_site_fract_y
_atom_site_fract_z
O1	O	0.755138	0.058672	-0.050456
O2	O	0.589257	0.067162	-0.050475
O3	O	0.677350	-0.007472	-0.050453
O4	O	0.667046	0.133306	-0.050477
O5	O	0.677334	-0.007461	0.050597
O6	O	0.589241	0.067173	0.050576
O7	O	0.755122	0.058683	0.050595
Cu8	Cu	0.672180	0.062929	0.059812
Cu9	Cu	0.672199	0.062916	-0.059692
O10	O	0.667030	0.133317	0.050573
C11	C	0.568033	0.066952	0.000048
C12	C	0.504818	0.066302	0.000042
C13	C	0.105629	0.106391	0.000062
C14	C	0.046230	0.105787	0.000066
O15	O	0.009406	0.142951	0.000082
N16	N	0.023699	0.061418	0.000073
C17	C	0.060570	0.017649	0.000082
O18	O	0.035951	-0.020147	0.000088
C19	C	0.119967	0.018253	0.000082
C20	C	0.142495	0.062626	0.000070
C21	C	0.128158	0.150760	0.000050
C22	C	0.187552	0.151364	0.000045
C23	C	0.224419	0.107599	0.000052
C24	C	0.201890	0.063229	0.000065
C25	C	0.156837	-0.025515	0.000096
C26	C	0.216239	-0.024907	0.000097
C27	C	0.238766	0.019466	0.000084
C28	C	0.298151	0.020068	0.000067
N29	N	0.320683	0.064437	0.000060
C30	C	0.283817	0.108203	0.000053
C31	C	-0.064170	0.016383	0.000082
C32	C	-0.123567	0.015778	0.000077
C33	C	-0.137902	0.103917	0.000062
C34	C	-0.078505	0.104521	0.000063
C35	C	-0.041639	0.060753	0.000075
C36	C	0.408551	0.109467	0.000042
C37	C	0.467951	0.110067	0.000035
C38	C	0.482282	0.021928	0.000052
C39	C	0.422886	0.021328	0.000057
C40	C	0.386021	0.065102	0.000053
O41	O	0.335010	-0.017077	0.000054
O42	O	0.308444	0.145992	0.000054
C43	C	0.677125	-0.025473	0.000074
C44	C	0.676474	-0.079129	0.000079
C45	C	0.724431	-0.417871	0.000053
C46	C	0.722014	-0.619534	0.000044
O47	O	0.765867	-0.650722	0.000023
N48	N	0.669779	-0.638738	0.000039
C49	C	0.618144	-0.607523	0.000032
O50	O	0.573659	-0.628484	0.000021
C51	C	0.620561	-0.405860	0.000036
C52	C	0.672800	-0.386659	0.000048
C53	C	0.776665	-0.398669	0.000064
C54	C	0.777269	-0.348256	0.000069
C55	C	0.725638	-0.317045	0.000064
C56	C	0.673403	-0.336247	0.000053
C57	C	0.568927	-0.374646	0.000025
C58	C	0.569536	-0.324228	0.000024
C59	C	0.621775	-0.305027	0.000036
C60	C	0.622376	-0.254622	0.000053
N61	N	0.674611	-0.235418	0.000059
C62	C	0.726242	-0.266630	0.000064
C63	C	0.616879	-0.713399	0.000031
C64	C	0.616274	-0.763814	0.000031
C65	C	0.720145	-0.775822	0.000042
C66	C	0.720749	-0.725406	0.000046
C67	C	0.669114	-0.694195	0.000036
C68	C	0.727506	-0.160758	0.000076
C69	C	0.728105	-0.110341	0.000084
C70	C	0.624235	-0.098337	0.000069
C71	C	0.623635	-0.148751	0.000065
C72	C	0.675276	-0.179961	0.000066
O73	O	0.578547	-0.223406	0.000068
O74	O	0.770721	-0.245659	0.000061
C75	C	0.723827	-0.468283	0.000047
C76	C	0.671593	-0.487485	0.000037
C77	C	0.619962	-0.456274	0.000031
C78	C	0.670988	-0.537900	0.000037
C79	C	0.722619	-0.569112	0.000042
C80	C	0.774855	-0.549908	0.000047
C81	C	0.775458	-0.499495	0.000053
C82	C	0.567727	-0.475478	0.000026
C83	C	0.567127	-0.525891	0.000021
C84	C	0.618758	-0.557103	0.000026
C85	C	0.776346	0.058894	0.000070
C86	C	0.839562	0.059544	0.000073
C87	C	0.667254	0.151319	0.000045
C88	C	0.667905	0.204975	0.000036
N89	N	0.672171	0.062938	0.143864
N90	N	0.672213	0.062903	-0.143744
C91	C	0.711209	0.029873	0.563653
C92	C	0.711211	0.029869	0.627261
O93	O	0.744380	0.001762	0.660160
N94	N	0.672199	0.062906	0.659071
C95	C	0.633177	0.095945	0.627271
O96	O	0.599994	0.124044	0.660169
C97	C	0.633172	0.095945	0.563665
C98	C	0.672191	0.062910	0.531857
C99	C	0.750224	-0.003160	0.531846
C100	C	0.750222	-0.003156	0.468243
C101	C	0.711205	0.029881	0.436447
C102	C	0.672189	0.062914	0.468254
C103	C	0.594148	0.128981	0.531866
C104	C	0.594147	0.128979	0.468255
C105	C	0.633166	0.095943	0.436447
C106	C	0.633170	0.095955	0.372855
N107	N	0.672182	0.062919	0.341045
C108	C	0.711200	0.029881	0.372840
C109	C	0.633190	0.095940	0.760849
C110	C	0.633197	0.095942	0.824454
C111	C	0.711231	0.029866	0.824440
C112	C	0.711226	0.029867	0.760833
C113	C	0.672202	0.062904	0.729038
C114	C	0.711193	0.029893	0.239269
C115	C	0.711189	0.029901	0.175660
C116	C	0.633153	0.095975	0.175680
C117	C	0.633159	0.095969	0.239284
C118	C	0.672181	0.062924	0.271076
O119	O	0.600017	0.124047	0.339915
O120	O	0.744372	0.001783	0.339935
H121	H	0.138506	-0.061648	0.000107
O122	O	0.372827	0.152032	0.000008
C123	C	0.405459	0.191318	0.000010
H124	H	0.449901	0.178819	-0.019118
H125	H	0.383290	0.221962	-0.029337
H126	H	0.409571	0.204941	0.048485
H127	H	0.205889	0.187497	0.000035
H128	H	0.781993	-0.030058	0.442349
O129	O	0.778802	-0.091609	0.000119
C130	C	0.768269	-0.040418	0.000107
H131	H	0.723717	-0.028370	0.019235
H132	H	0.801664	-0.025096	0.029449
H133	H	0.770909	-0.026394	-0.048371
O134	O	0.092431	0.193322	0.000014
C135	C	0.125065	0.232607	0.000020
H136	H	0.169509	0.220106	-0.019104
H137	H	0.102901	0.263251	-0.029328
H138	H	0.129175	0.246229	0.048495
O139	O	0.519413	-0.293862	0.000097
C140	C	0.516633	-0.264351	0.052441
H141	H	0.561810	-0.262009	0.069898
H142	H	0.495077	-0.226358	0.040669
H143	H	0.490766	-0.280821	0.089081
H144	H	-0.060167	0.140653	0.000056
H145	H	-0.034156	-0.019261	0.000086
O146	O	0.556320	0.161116	0.562782
C147	C	0.586543	0.190806	0.599586
H148	H	0.631449	0.191435	0.580420
H149	H	0.562960	0.229325	0.600305
H150	H	0.589660	0.175666	0.647793
O151	O	0.517607	-0.445114	0.000104
C152	C	0.514832	-0.415604	0.052450
H153	H	0.560010	-0.413262	0.069902
H154	H	0.493272	-0.377611	0.040683
H155	H	0.488969	-0.432077	0.089092
H156	H	0.562367	0.155881	0.442371
O157	O	0.826189	-0.480823	0.000166
C158	C	0.829640	-0.452012	0.052494
H159	H	0.799980	-0.463793	0.089071
H160	H	0.875578	-0.456758	0.070064
H161	H	0.816154	-0.412188	0.040661
O162	O	0.574135	-0.067945	0.000037
C163	C	0.585876	-0.019332	0.000056
H164	H	0.630598	-0.017612	-0.019064
H165	H	0.552949	0.003667	-0.029289
H166	H	0.583576	-0.004740	0.048535
H167	H	0.601392	0.122874	0.265182
H168	H	0.742967	0.002984	0.265148
H169	H	0.486290	0.146202	0.000024
O170	O	0.748982	-0.002266	0.144735
C171	C	0.718689	-0.031957	0.108009
H172	H	0.673987	-0.012463	0.098445
H173	H	0.742526	-0.039792	0.063295
H174	H	0.715058	-0.067625	0.132589
O175	O	-0.145379	-0.027356	0.000001
C176	C	-0.126510	-0.054016	-0.052338
H177	H	-0.085425	-0.041044	-0.069791
H178	H	-0.117913	-0.094309	-0.040561
H179	H	-0.160934	-0.048255	-0.088983
O180	O	0.251968	-0.067470	0.000078
C181	C	0.219342	-0.106759	0.000105
H182	H	0.174900	-0.094270	-0.019025
H183	H	0.241515	-0.137411	-0.029229
H184	H	0.215229	-0.120367	0.048587
H185	H	0.404543	-0.014804	0.000058
O186	O	-0.173697	0.146445	-0.000047
C187	C	-0.163537	0.173406	-0.052378
H188	H	-0.143011	0.147787	-0.088956
H189	H	-0.205854	0.192994	-0.069944
H190	H	-0.133534	0.201239	-0.040550
H191	H	0.781997	-0.030065	0.557728
H192	H	0.512309	-0.013704	0.000056
O193	O	0.749147	-0.002272	0.730032
C194	C	0.783594	-0.031420	0.771744
H195	H	0.760252	-0.031862	0.817087
H196	H	0.792625	-0.070063	0.753371
H197	H	0.825761	-0.015905	0.778502
O198	O	0.777721	-0.191002	0.000106
C199	C	0.823947	-0.163234	0.000102
H200	H	0.809141	-0.125538	0.019233
H201	H	0.860092	-0.181997	0.029446
H202	H	0.839990	-0.159715	-0.048373
O203	O	0.828064	-0.329688	0.000048
C204	C	0.873499	-0.368055	0.000066
H205	H	0.857838	-0.402229	-0.019066
H206	H	0.910002	-0.357694	-0.029268
H207	H	0.889396	-0.375266	0.048547
H208	H	0.743000	0.002965	0.850339
H209	H	0.763286	-0.709776	0.000055
H210	H	0.581099	-0.164385	0.000072
O211	O	0.565479	-0.782383	-0.000001
C212	C	0.520043	-0.744018	0.000008
H213	H	0.535707	-0.709843	-0.019119
H214	H	0.483549	-0.754380	-0.029335
H215	H	0.504130	-0.736809	0.048485
O216	O	0.826809	-0.429003	-0.000038
C217	C	0.829582	-0.458535	-0.052363
H218	H	0.800297	-0.439942	-0.088949
H219	H	0.875513	-0.464410	-0.069920
H220	H	0.815180	-0.495135	-0.040532
H221	H	0.601430	0.122848	0.850347
H222	H	0.601414	0.122847	0.734965
O223	O	0.595330	0.128084	0.144720
C224	C	0.625560	0.157784	0.107933
H225	H	0.670297	0.138344	0.098406
H226	H	0.601722	0.165527	0.063205
H227	H	0.629105	0.193497	0.132442
H228	H	0.762185	-0.801243	0.000047
H229	H	0.574829	-0.687991	0.000022
O230	O	0.518131	-0.393210	-0.000016
C231	C	0.472698	-0.354842	-0.000010
H232	H	0.488368	-0.320667	-0.019133
H233	H	0.436205	-0.365200	-0.029358
H234	H	0.456782	-0.347633	0.048466
O235	O	0.825047	-0.580182	-0.000030
C236	C	0.856790	-0.571525	-0.052370
H237	H	0.842470	-0.533211	-0.069814
H238	H	0.904320	-0.575302	-0.040597
H239	H	0.849248	-0.599063	-0.089020
O240	O	0.516328	-0.544459	-0.000016
C241	C	0.470891	-0.506095	-0.000006
H242	H	0.486557	-0.471918	-0.019126
H243	H	0.434400	-0.516454	-0.029355
H244	H	0.454975	-0.498890	0.048470
