data_functionalizedCrystal
_audit_creation_method	'MofGen! by Chris Wilmer'
_symmetry_space_group_name_H-M	'P1'
_symmetry_Int_Tables_number	1
_symmetry_cell_setting	triclinic
loop_
_symmetry_equiv_pos_as_xyz
  x,y,z
_cell_length_a	10.723023
_cell_length_b	17.019294
_cell_length_c	9.198806
_cell_angle_alpha	86.117847
_cell_angle_beta	89.996513
_cell_angle_gamma	83.929680
loop_
_atom_site_label
_atom_site_type_symbol
_atom_site_fract_x
_atom_site_fract_y
_atom_site_fract_z
O1	O	1.655493	0.110633	-0.134725
O2	O	1.292178	0.121224	-0.136056
O3	O	1.483971	0.001151	-0.121015
O4	O	1.463701	0.230706	-0.149766
O5	O	1.483956	0.001151	0.120770
O6	O	1.292163	0.121224	0.105729
O7	O	1.655478	0.110633	0.107060
Cu8	Cu	1.473819	0.115928	0.128471
Cu9	Cu	1.473837	0.115929	-0.157467
O10	O	1.463685	0.230706	0.092019
C11	C	1.245683	0.120453	-0.015068
C12	C	1.107164	0.118148	-0.014782
C13	C	1.045400	0.117120	0.110598
C14	C	0.902233	0.114737	0.110897
C15	C	1.483195	-0.028243	0.003556
C16	C	1.480889	-0.115825	0.014516
C17	C	1.479817	-0.156967	-0.112131
C18	C	1.477642	-0.239260	-0.101829
C19	C	1.476549	-0.280410	0.035123
C20	C	1.477617	-0.239262	0.161779
C21	C	1.479783	-0.156970	0.151475
C22	C	1.470002	-0.528878	0.072828
C23	C	1.467840	-0.611176	0.083122
C24	C	1.467862	-0.611168	-0.180487
C25	C	1.470036	-0.528875	-0.190778
C26	C	1.471097	-0.487734	-0.064122
C27	C	1.474330	-0.364527	0.045657
C28	C	1.473307	-0.403618	-0.074658
C29	C	1.701974	0.111404	-0.013931
C30	C	1.840492	0.113709	-0.014227
C31	C	1.464462	0.260100	-0.032555
C32	C	1.466768	0.347682	-0.043525
N33	N	1.473816	0.115928	0.329585
N34	N	1.473851	0.115923	-0.358581
C35	C	1.554347	0.065290	0.408126
C36	C	1.554367	0.065287	0.575538
H37	H	1.054053	0.117262	-0.121902
Br38	Br	1.481314	-0.101130	-0.298003
Br39	Br	1.669299	-0.006968	0.688063
Br40	Br	1.476185	-0.295092	-0.273715
Br41	Br	1.358935	0.188194	0.528902
Br42	Br	1.476113	-0.295106	0.347644
Br43	Br	0.813711	0.113273	0.289818
H44	H	1.404879	0.159276	0.386283
H45	H	1.480638	-0.123472	0.254605
H46	H	1.466996	-0.644674	-0.283603
Br47	Br	1.668930	-0.007168	0.313665
H48	H	1.473444	-0.398040	0.157163
Br49	Br	1.133911	0.118588	0.289151
Br50	Br	1.466369	-0.667023	0.268997
Br51	Br	0.929003	0.115192	-0.193157
H52	H	1.470928	-0.495376	-0.302298
H53	H	1.470891	-0.495392	0.175961
H54	H	1.474189	-0.370109	-0.186163
