data_functionalizedCrystal
_audit_creation_method	'MofGen! by Chris Wilmer'
_symmetry_space_group_name_H-M	'P1'
_symmetry_Int_Tables_number	1
_symmetry_cell_setting	triclinic
loop_
_symmetry_equiv_pos_as_xyz
  x,y,z
_cell_length_a	14.519731
_cell_length_b	14.519709
_cell_length_c	9.482900
_cell_angle_alpha	99.350820
_cell_angle_beta	80.692239
_cell_angle_gamma	83.684499
loop_
_atom_site_label
_atom_site_type_symbol
_atom_site_fract_x
_atom_site_fract_y
_atom_site_fract_z
O1	O	1.238206	0.106569	-0.120901
O2	O	1.488206	0.356569	0.129099
O3	O	1.738206	0.606569	0.379099
O4	O	1.988206	0.856569	0.629099
O5	O	0.969732	0.120785	-0.120904
O6	O	1.219732	0.370785	0.129096
O7	O	1.469732	0.620785	0.379096
O8	O	1.719732	0.870785	0.629096
O9	O	1.111086	-0.020559	-0.120889
O10	O	1.361086	0.229441	0.129111
O11	O	1.611086	0.479441	0.379111
O12	O	1.861086	0.729441	0.629111
O13	O	1.096852	0.247913	-0.120915
O14	O	1.346852	0.497913	0.129085
O15	O	1.596852	0.747913	0.379085
O16	O	1.846852	0.997913	0.629085
O17	O	1.082374	0.008266	0.120900
O18	O	1.332374	0.258266	0.370900
O19	O	1.582374	0.508266	0.620900
O20	O	1.832374	0.758266	0.870900
O21	O	0.941020	0.149610	0.120886
O22	O	1.191020	0.399610	0.370886
O23	O	1.441020	0.649610	0.620886
O24	O	1.691020	0.899610	0.870886
O25	O	1.209494	0.135395	0.120889
O26	O	1.459494	0.385395	0.370889
O27	O	1.709494	0.635395	0.620889
O28	O	1.959494	0.885395	0.870889
Cu29	Cu	1.072635	0.145135	0.142965
Cu30	Cu	1.322635	0.395135	0.392965
Cu31	Cu	1.572635	0.645135	0.642965
Cu32	Cu	1.822635	0.895135	0.892965
Cu33	Cu	1.106591	0.111045	-0.142980
Cu34	Cu	1.356591	0.361045	0.107020
Cu35	Cu	1.606591	0.611045	0.357020
Cu36	Cu	1.856591	0.861045	0.607020
O37	O	1.068140	0.276739	0.120874
O38	O	1.318140	0.526739	0.370874
O39	O	1.568140	0.776739	0.620874
O40	O	1.818140	1.026739	0.870874
C41	C	0.921017	0.134531	-0.000009
C42	C	1.171017	0.384531	0.249991
C43	C	1.421017	0.634531	0.499991
C44	C	1.671017	0.884531	0.749991
C45	C	0.818637	0.132535	-0.000010
C46	C	1.068637	0.382535	0.249990
C47	C	1.318637	0.632535	0.499990
C48	C	1.568637	0.882535	0.749990
C49	C	1.096066	-0.040506	0.000006
C50	C	1.346066	0.209494	0.250006
C51	C	1.596066	0.459494	0.500006
C52	C	1.846066	0.709494	0.750006
C53	C	1.094078	-0.142888	0.000007
C54	C	1.344078	0.107112	0.250007
C55	C	1.594078	0.357112	0.500007
C56	C	1.844078	0.607112	0.750007
C57	C	0.735493	0.130913	-0.000015
C58	C	0.985493	0.380913	0.249985
C59	C	1.235493	0.630913	0.499985
C60	C	1.485493	0.880913	0.749985
C61	C	0.631184	0.128886	-0.000016
C62	C	0.881184	0.378886	0.249984
C63	C	1.131184	0.628886	0.499984
C64	C	1.381184	0.878886	0.749984
C65	C	0.548045	0.127278	-0.000015
C66	C	0.798045	0.377278	0.249985
C67	C	1.048045	0.627278	0.499985
C68	C	1.298045	0.877278	0.749985
C69	C	0.443730	0.125251	-0.000018
C70	C	0.693730	0.375251	0.249982
C71	C	0.943730	0.625251	0.499982
C72	C	1.193730	0.875251	0.749982
C73	C	1.086763	-0.517789	-0.000031
C74	C	1.336763	-0.267789	0.249969
C75	C	1.586763	-0.017789	0.499969
C76	C	1.836763	0.232211	0.749969
C77	C	1.088794	-0.413479	-0.000020
C78	C	1.338794	-0.163479	0.249980
C79	C	1.588794	0.086521	0.499980
C80	C	1.838794	0.336521	0.749980
C81	C	1.090420	-0.330341	-0.000011
C82	C	1.340420	-0.080341	0.249989
C83	C	1.590420	0.169659	0.499989
C84	C	1.840420	0.419659	0.749989
C85	C	1.092452	-0.226026	-0.000003
C86	C	1.342452	0.023974	0.249997
C87	C	1.592452	0.273974	0.499997
C88	C	1.842452	0.523974	0.749997
C89	C	1.258210	0.121648	-0.000009
C90	C	1.508210	0.371648	0.249991
C91	C	1.758210	0.621648	0.499991
C92	C	2.008210	0.871648	0.749991
C93	C	1.360591	0.123643	-0.000018
C94	C	1.610591	0.373643	0.249982
C95	C	1.860591	0.623643	0.499982
C96	C	2.110591	0.873643	0.749982
C97	C	1.083160	0.296685	-0.000024
C98	C	1.333160	0.546685	0.249976
C99	C	1.583160	0.796685	0.499976
C100	C	1.833160	1.046685	0.749976
C101	C	1.085150	0.399066	-0.000034
C102	C	1.335150	0.649066	0.249966
C103	C	1.585150	0.899066	0.499966
C104	C	1.835150	1.149066	0.749966
N105	N	1.048760	0.169111	0.344082
N106	N	1.298760	0.419111	0.594082
N107	N	1.548760	0.669111	0.844082
N108	N	1.798760	0.919111	1.094082
N109	N	1.130473	0.087061	-0.344097
N110	N	1.380473	0.337061	-0.094097
N111	N	1.630473	0.587061	0.155903
N112	N	1.880473	0.837061	0.405903
C113	C	1.099542	0.118112	0.416287
C114	C	1.349542	0.368112	0.666287
C115	C	1.599542	0.618112	0.916287
C116	C	1.849542	0.868112	1.166287
C117	C	1.079684	0.138068	0.583702
C118	C	1.329684	0.388068	0.833702
C119	C	1.579684	0.638068	1.083702
C120	C	1.829684	0.888068	1.333702
H121	H	1.157717	0.059672	0.354165
H122	H	1.407717	0.309672	0.604165
H123	H	1.657717	0.559672	0.854165
H124	H	1.907717	0.809672	1.104165
Br125	Br	0.982702	0.235465	0.687228
Br126	Br	1.232702	0.485465	0.937228
Br127	Br	1.482702	0.735465	1.187228
Br128	Br	1.732702	0.985465	1.437228
Br129	Br	1.227665	-0.010127	0.552382
Br130	Br	1.477665	0.239873	0.802382
Br131	Br	1.727665	0.489873	1.052382
Br132	Br	1.977665	0.739873	1.302382
H133	H	0.990579	0.227543	0.406206
H134	H	1.240579	0.477543	0.656206
H135	H	1.490579	0.727543	0.906206
H136	H	1.740579	0.977543	1.156206
