data_functionalizedCrystal
_audit_creation_method	'MofGen! by Chris Wilmer'
_symmetry_space_group_name_H-M	'P1'
_symmetry_Int_Tables_number	1
_symmetry_cell_setting	triclinic
loop_
_symmetry_equiv_pos_as_xyz
  x,y,z
_cell_length_a	6.817900
_cell_length_b	9.582860
_cell_length_c	16.305550
_cell_angle_alpha	93.101780
_cell_angle_beta	103.455250
_cell_angle_gamma	111.206767
loop_
_atom_site_label
_atom_site_type_symbol
_atom_site_fract_x
_atom_site_fract_y
_atom_site_fract_z
V1	V	-4.066500	-0.208318	-0.262876
O2	O	-4.012158	0.008711	-0.258031
O3	O	-4.057274	-0.411809	-0.260925
O4	O	-4.017397	-0.205684	-0.377595
O5	O	-4.052310	-0.198842	-0.140553
V6	V	-4.545144	-0.182291	-0.248264
O7	O	-4.338463	-0.265409	-0.294929
O8	O	-4.723378	-0.125200	-0.216211
O9	O	-4.331164	0.021200	-0.250215
O10	O	-4.716883	-0.399320	-0.253109
O11	O	-4.676731	-0.191767	-0.370586
O12	O	-4.371040	-0.184925	-0.133545
C13	C	-3.911827	-0.461398	-0.256738
C14	C	-3.985565	-0.627759	-0.255908
C15	C	-3.860960	-0.198463	-0.405561
C16	C	-3.902355	-0.197656	-0.499344
C17	C	-4.052838	-0.194528	-0.840092
C18	C	-3.814995	-0.185242	-0.799170
C19	C	-3.772084	-0.186701	-0.701674
C20	C	-3.978180	-0.196079	-0.671043
C21	C	-4.173773	-0.343876	-0.721559
C22	C	-4.215475	-0.343040	-0.819109
C23	C	-4.081056	-0.057197	-0.794351
C24	C	-4.032900	-0.056027	-0.696509
C25	C	-3.936001	-0.196961	-0.575504
C26	C	-4.095028	-0.193656	-0.935631
C27	C	-4.139954	0.070781	-0.254399
C28	C	-4.045455	0.237140	-0.255235
C29	C	-4.190821	-0.192151	-0.105574
C30	C	-4.128662	-0.192951	-0.011790
H31	H	-3.625052	-0.080435	-0.666730
H32	H	-4.329288	-0.356084	-0.702637
N33	N	-3.709640	-0.318909	-0.680006
H34	H	-3.818359	-0.388467	-0.652706
H35	H	-3.558750	-0.280277	-0.639000
N36	N	-4.194219	-0.480748	-0.859258
H37	H	-4.157898	-0.541421	-0.813547
H38	H	-4.073841	-0.447488	-0.888865
H39	H	-3.788971	-0.283908	-0.830608
N40	N	-4.126975	-0.481627	-0.699187
H41	H	-3.989781	-0.476918	-0.714592
H42	H	-4.253891	-0.576085	-0.732020
N43	N	-3.931335	0.091146	-0.812167
H44	H	-3.843693	0.070825	-0.850076
H45	H	-3.828845	0.155086	-0.756606
H46	H	-4.391816	-0.356002	-0.847091
N47	N	-4.227418	-0.053509	-0.668176
H48	H	-4.283093	-0.143532	-0.638307
H49	H	-4.346863	-0.058229	-0.719611
H50	H	-3.890729	0.053292	-0.662212
H51	H	-4.254181	-0.062685	-0.821163
N52	N	-3.647061	-0.043829	-0.815660
H53	H	-3.495594	-0.040084	-0.788872
H54	H	-3.663536	0.048238	-0.789975
