data_functionalizedCrystal
_audit_creation_method	'MofGen! by Chris Wilmer'
_symmetry_space_group_name_H-M	'P1'
_symmetry_Int_Tables_number	1
_symmetry_cell_setting	triclinic
loop_
_symmetry_equiv_pos_as_xyz
  x,y,z
_cell_length_a	11.792254
_cell_length_b	16.053934
_cell_length_c	16.992695
_cell_angle_alpha	92.750093
_cell_angle_beta	92.566590
_cell_angle_gamma	92.582275
loop_
_atom_site_label
_atom_site_type_symbol
_atom_site_fract_x
_atom_site_fract_y
_atom_site_fract_z
O1	O	-1.511217	0.069453	0.110841
O2	O	-1.181784	0.069450	0.121911
O3	O	-1.345180	0.069445	0.002228
O4	O	-1.347821	0.069458	0.230525
O5	O	-1.354124	-0.069412	-0.004337
O6	O	-1.190727	-0.069407	0.115346
O7	O	-1.520161	-0.069404	0.104276
Zn8	Zn	-1.356864	-0.091452	0.108769
Zn9	Zn	-1.345080	0.091498	0.117419
O10	O	-1.356764	-0.069399	0.223960
C11	C	-1.143908	0.000021	0.117931
C12	C	-1.017724	0.000019	0.115844
C13	C	-0.915249	0.000021	0.114148
C14	C	-0.786689	0.000019	0.112027
N15	N	-1.364914	-0.216310	0.102865
C16	C	-0.558037	0.000023	0.108256
C17	C	-0.684221	0.000018	0.110343
C18	C	-1.295373	-0.260022	0.153772
C19	C	-1.301037	-0.347428	0.149639
C20	C	-1.376238	-0.391119	0.094595
C21	C	-1.445787	-0.347400	0.043686
C22	C	-1.440128	-0.259997	0.047824
C23	C	-1.400929	-0.652522	0.076544
C24	C	-1.406580	-0.739932	0.072409
C25	C	-1.261831	-0.739953	0.178363
C26	C	-1.256174	-0.652548	0.182493
C27	C	-1.325727	-0.608837	0.131587
N28	N	-1.382027	-0.480461	0.090368
N29	N	-1.319943	-0.519496	0.135818
C30	C	-1.346254	0.000016	-0.030282
C31	C	-1.336116	0.000017	-0.117370
N32	N	-1.337039	0.216356	0.123316
C33	C	-1.433934	0.000017	-0.167191
C34	C	-1.424401	0.000024	-0.249018
C35	C	-1.317050	0.000026	-0.281022
C36	C	-1.219225	0.000029	-0.231194
C37	C	-1.228758	0.000027	-0.149369
C38	C	-1.277536	0.000037	-0.524789
C39	C	-1.268010	0.000037	-0.606621
C40	C	-1.473187	0.000034	-0.624439
C41	C	-1.482712	0.000027	-0.542611
C42	C	-1.384887	0.000034	-0.492790
N43	N	-1.307303	0.000032	-0.364663
N44	N	-1.394634	0.000035	-0.409151
C45	C	-1.355690	0.000031	0.256469
C46	C	-1.365828	0.000037	0.343557
H47	H	-1.234132	-0.224455	0.198591
C48	C	-1.169934	0.000030	-0.469997
H49	H	-1.104638	0.000020	-0.500780
H50	H	-1.166258	0.048450	-0.435411
H51	H	-1.172511	-0.048401	-0.440003
C52	C	-1.516619	-0.211913	-0.008176
H53	H	-1.562210	-0.250451	-0.041556
H54	H	-1.564230	-0.177807	0.021878
H55	H	-1.470604	-0.177827	-0.039410
H56	H	-1.180589	0.000025	-0.632676
H57	H	-1.149105	0.000027	-0.108804
H58	H	-1.194939	-0.616976	0.227314
C59	C	-1.101141	0.000028	-0.266397
H60	H	-1.109472	0.000020	-0.322266
H61	H	-1.057431	0.048449	-0.247035
H62	H	-1.063677	-0.048402	-0.251616
H63	H	-1.467821	-0.775501	0.027583
H64	H	-1.507023	-0.382979	-0.001129
C65	C	-1.600797	0.000036	-0.507412
H66	H	-1.657690	0.000046	-0.548804
H67	H	-1.611905	-0.048384	-0.478152
H68	H	-1.605654	0.048466	-0.473572
C69	C	-1.185341	-0.788036	0.234362
H70	H	-1.199485	-0.846348	0.224021
H71	H	-1.107866	-0.773727	0.226169
H72	H	-1.201501	-0.773706	0.287451
H73	H	-1.244412	-0.383018	0.191091
C74	C	-1.477423	-0.604451	0.020542
H75	H	-1.523007	-0.642992	-0.012837
H76	H	-1.525039	-0.570344	0.050591
H77	H	-1.431405	-0.570365	-0.010692
C78	C	-1.552019	0.000012	-0.131990
H79	H	-1.543691	0.000003	-0.076122
H80	H	-1.589491	0.048434	-0.146769
H81	H	-1.595721	-0.048417	-0.151356
C82	C	-1.532001	0.000016	-0.303819
H83	H	-1.597301	0.000003	-0.273040
H84	H	-1.529440	0.048438	-0.333819
H85	H	-1.535657	-0.048413	-0.338401
C86	C	-1.580784	0.000039	-0.679242
H87	H	-1.559735	0.000048	-0.732559
H88	H	-1.627621	-0.048381	-0.671788
H89	H	-1.621370	0.048470	-0.667197
