data_functionalizedCrystal
_audit_creation_method	'MofGen! by Chris Wilmer'
_symmetry_space_group_name_H-M	'P1'
_symmetry_Int_Tables_number	1
_symmetry_cell_setting	triclinic
loop_
_symmetry_equiv_pos_as_xyz
  x,y,z
_cell_length_a	6.817900
_cell_length_b	9.109307
_cell_length_c	11.168136
_cell_angle_alpha	97.527475
_cell_angle_beta	108.508683
_cell_angle_gamma	111.764999
loop_
_atom_site_label
_atom_site_type_symbol
_atom_site_fract_x
_atom_site_fract_y
_atom_site_fract_z
V1	V	-4.143383	-0.225383	-0.418125
O2	O	-4.067860	0.010805	-0.385034
O3	O	-4.152592	-0.446873	-0.439437
O4	O	-4.119159	-0.221928	-0.589457
O5	O	-4.101524	-0.215697	-0.233975
V6	V	-4.616413	-0.197131	-0.393163
O7	O	-4.427658	-0.287357	-0.472882
O8	O	-4.782335	-0.135158	-0.338407
O9	O	-4.383997	0.024359	-0.371852
O10	O	-4.809332	-0.433320	-0.426255
O11	O	-4.775668	-0.206817	-0.577313
O12	O	-4.417429	-0.200587	-0.221832
C13	C	-4.010825	-0.500867	-0.439078
C14	C	-4.099803	-0.681938	-0.457644
C15	C	-3.968177	-0.213925	-0.630441
C16	C	-4.030037	-0.212565	-0.770664
C17	C	-4.233603	-0.219684	-0.840127
C18	C	-4.297542	-0.218279	-0.985055
C19	C	-4.189107	0.078344	-0.372208
C20	C	-4.079369	0.259413	-0.353650
C21	C	-4.231754	-0.208595	-0.180841
C22	C	-4.149131	-0.209947	-0.040616
H23	H	-4.471934	-0.224381	-1.044768
H24	H	-3.974745	-0.203863	-0.980916
H25	H	-3.903086	-0.205418	-0.818486
H26	H	-4.360541	-0.226808	-0.792301
O27	O	-3.977559	-0.635084	-0.230526
C28	C	-3.985957	-0.423846	-0.080644
C29	C	-4.101459	-0.543233	-0.220138
H30	H	-4.086109	-0.349578	-0.072192
H31	H	-3.801538	-0.336527	-0.061076
H32	H	-3.984798	-0.497146	-0.005358
H33	H	-4.102788	-0.470068	-0.295513
H34	H	-4.285817	-0.630553	-0.239594
O35	O	-4.201825	-0.787522	-0.580757
C36	C	-4.386680	-1.070332	-0.712181
C37	C	-4.271144	-0.950944	-0.572686
H38	H	-4.442800	-1.202486	-0.705703
H39	H	-4.259319	-1.042162	-0.761552
H40	H	-4.543612	-1.054726	-0.772571
H41	H	-4.114227	-0.966483	-0.512189
H42	H	-4.398656	-0.979146	-0.523417
