data_functionalizedCrystal
_audit_creation_method	'MofGen! by Chris Wilmer'
_symmetry_space_group_name_H-M	'P1'
_symmetry_Int_Tables_number	1
_symmetry_cell_setting	triclinic
loop_
_symmetry_equiv_pos_as_xyz
  x,y,z
_cell_length_a	18.215407
_cell_length_b	12.759394
_cell_length_c	18.215399
_cell_angle_alpha	89.972315
_cell_angle_beta	89.983176
_cell_angle_gamma	90.015285
loop_
_atom_site_label
_atom_site_type_symbol
_atom_site_fract_x
_atom_site_fract_y
_atom_site_fract_z
Zn1	Zn	1.125101	-0.418240	-0.416130
Zn2	Zn	1.625101	0.081760	0.083870
Zn3	Zn	1.125038	-0.593945	-0.293069
Zn4	Zn	1.625038	-0.093945	0.206931
Zn5	Zn	1.002041	-0.418281	-0.293077
Zn6	Zn	1.502041	0.081719	0.206923
Zn7	Zn	1.002022	-0.593879	-0.416094
Zn8	Zn	1.502022	-0.093879	0.083906
O9	O	1.063550	-0.506086	-0.354592
O10	O	1.563550	-0.006086	0.145408
O11	O	1.228077	-0.441557	-0.399817
O12	O	1.728077	0.058443	0.100183
O13	O	1.108703	-0.570688	-0.190086
O14	O	1.608703	-0.070688	0.309914
O15	O	1.018399	-0.271255	-0.309418
O16	O	1.518399	0.228745	0.190582
O17	O	1.228031	-0.570647	-0.309405
O18	O	1.728031	-0.070647	0.190595
O19	O	1.108812	-0.271224	-0.399825
O20	O	1.608812	0.228776	0.100175
O21	O	1.018338	-0.441629	-0.190092
O22	O	1.518338	0.058371	0.309908
O23	O	0.899054	-0.441565	-0.309384
O24	O	1.399054	0.058435	0.190616
O25	O	1.018367	-0.570535	-0.519083
O26	O	1.518367	-0.070535	-0.019083
O27	O	0.899040	-0.570575	-0.399764
O28	O	1.399040	-0.070575	0.100236
O29	O	1.108793	-0.441494	-0.519109
O30	O	1.608793	0.058506	-0.019109
O31	O	1.108685	-0.740957	-0.309370
O32	O	1.608685	-0.240957	0.190630
O33	O	1.018305	-0.740909	-0.399756
O34	O	1.518305	-0.240909	0.100244
C35	C	0.872344	-0.506068	-0.354571
C36	C	1.372344	-0.006068	0.145429
C37	C	0.790545	-0.506086	-0.354580
C38	C	1.290545	-0.006086	0.145420
C39	C	1.063506	-0.779054	-0.354575
C40	C	1.563506	-0.279054	0.145425
C41	C	1.063555	-0.895830	-0.354592
C42	C	1.563555	-0.395830	0.145408
C43	C	0.602363	-0.573367	-0.401582
C44	C	1.102363	-0.073367	0.098418
C45	C	0.525505	-0.573370	-0.401591
C46	C	1.025505	-0.073370	0.098409
C47	C	0.525489	-0.438824	-0.307619
C48	C	1.025489	0.061176	0.192381
C49	C	0.602347	-0.438816	-0.307614
C50	C	1.102347	0.061184	0.192386
C51	C	0.640782	-0.506094	-0.354594
C52	C	1.140782	-0.006094	0.145406
C53	C	0.487066	-0.506105	-0.354608
C54	C	0.987066	-0.006105	0.145392
C55	C	0.403732	-0.506108	-0.354618
C56	C	0.903732	-0.006108	0.145382
C57	C	0.724121	-0.506090	-0.354586
C58	C	1.224121	-0.006090	0.145414
C59	C	1.157738	-0.895827	-0.260543
C60	C	1.657738	-0.395827	0.239457
C61	C	1.204848	-0.950687	-0.213528
C62	C	1.704848	-0.450687	0.286472
C63	C	1.204891	-1.060408	-0.213548
C64	C	1.704891	-0.560408	0.286452
C65	C	1.157820	-1.115273	-0.260590
C66	C	1.657820	-0.615273	0.239410
C67	C	1.110710	-1.060414	-0.307605
C68	C	1.610710	-0.560414	0.192395
C69	C	1.110670	-0.950690	-0.307579
C70	C	1.610670	-0.450690	0.192421
C71	C	1.016532	-1.060417	-0.401656
C72	C	1.516532	-0.560417	0.098344
C73	C	1.016484	-0.950695	-0.401634
C74	C	1.516484	-0.450695	0.098366
C75	C	0.969461	-1.115281	-0.448698
C76	C	1.469461	-0.615281	0.051302
C77	C	0.922345	-1.060422	-0.495711
C78	C	1.422345	-0.560422	0.004289
C79	C	0.922303	-0.950694	-0.495689
C80	C	1.422303	-0.450694	0.004311
C81	C	0.969373	-0.895836	-0.448649
C82	C	1.469373	-0.395836	0.051351
C83	C	1.255503	-0.506105	-0.354614
C84	C	1.755503	-0.006105	0.145386
C85	C	1.337302	-0.506113	-0.354623
C86	C	1.837302	-0.006113	0.145377
C87	C	1.063585	-0.506002	-0.546545
C88	C	1.563585	-0.006002	-0.046545
C89	C	1.063600	-0.505966	-0.628344
C90	C	1.563600	-0.005966	-0.128344
C91	C	1.063615	-0.232053	-0.354626
C92	C	1.563615	0.267947	0.145374
C93	C	1.063642	-0.115276	-0.354641
C94	C	1.563642	0.384724	0.145359
C95	C	1.016586	-0.438720	-0.816542
C96	C	1.516586	0.061280	-0.316542
C97	C	1.016599	-0.438699	-0.893401
C98	C	1.516599	0.061301	-0.393401
C99	C	1.110702	-0.573087	-0.893384
C100	C	1.610702	-0.073087	-0.393384
C101	C	1.110685	-0.573113	-0.816527
C102	C	1.610685	-0.073113	-0.316527
C103	C	1.063628	-0.505923	-0.778108
C104	C	1.563628	-0.005923	-0.278108
C105	C	1.063658	-0.505877	-0.931824
C106	C	1.563658	-0.005877	-0.431824
C107	C	1.063672	-0.505854	-1.015158
C108	C	1.563672	-0.005854	-0.515158
C109	C	1.063613	-0.505947	-0.694769
C110	C	1.563613	-0.005947	-0.194769
C111	C	1.063558	-0.506094	-0.163386
C112	C	1.563558	-0.006094	0.336614
C113	C	1.063686	-0.505834	-0.081588
C114	C	1.563686	-0.005834	0.418412
H115	H	0.633655	-0.628146	-0.439838
H116	H	1.133655	-0.128146	0.060162
O117	O	0.970767	-0.373576	-0.779254
O118	O	1.470767	0.126424	-0.279254
C119	C	0.897420	-0.396518	-0.798040
C120	C	1.397420	0.103482	-0.298040
H121	H	0.893696	-0.480443	-0.819153
H122	H	1.393696	0.019557	-0.319153
H123	H	0.861052	-0.387487	-0.747495
H124	H	1.361052	0.112513	-0.247495
H125	H	0.878203	-0.340176	-0.842661
H126	H	1.378203	0.159824	-0.342661
O127	O	0.969367	-1.221864	-0.448721
O128	O	1.469367	-0.721864	0.051279
C129	C	0.898862	-1.258624	-0.429757
C130	C	1.398862	-0.758624	0.070243
H131	H	0.856443	-1.195426	-0.442280
H132	H	1.356443	-0.695426	0.057720
H133	H	0.885791	-1.332003	-0.462960
H134	H	1.385791	-0.832003	0.037040
H135	H	0.897340	-1.278168	-0.368698
H136	H	1.397340	-0.778168	0.131302
O137	O	0.970822	-0.373568	-0.930766
O138	O	1.470822	0.126432	-0.430766
C139	C	0.923295	-0.433369	-0.975217
C140	C	1.423295	0.066631	-0.475217
H141	H	0.918732	-0.516123	-0.952040
H142	H	1.418732	-0.016123	-0.452040
H143	H	0.866666	-0.395371	-0.976085
H144	H	1.366666	0.104629	-0.476085
H145	H	0.946054	-0.436968	-1.033470
H146	H	1.446054	0.063032	-0.533470
H147	H	1.149014	-0.627790	-0.924674
H148	H	1.649014	-0.127790	-0.424674
O149	O	0.876645	-0.897358	-0.541440
O150	O	1.376645	-0.397358	-0.041440
C151	C	0.918495	-0.833767	-0.588979
C152	C	1.418495	-0.333767	-0.088979
H153	H	0.976468	-0.866757	-0.593577
H154	H	1.476468	-0.366757	-0.093577
H155	H	0.891850	-0.832491	-0.645594
H156	H	1.391850	-0.332491	-0.145594
H157	H	0.921007	-0.750633	-0.566210
H158	H	1.421007	-0.250633	-0.066210
O159	O	0.488299	-0.638821	-0.447256
O160	O	0.988299	-0.138821	0.052744
C161	C	0.538707	-0.698175	-0.488732
C162	C	1.038707	-0.198175	0.011268
H163	H	0.593481	-0.701756	-0.458577
H164	H	1.093481	-0.201756	0.041423
H165	H	0.516491	-0.780968	-0.496485
H166	H	1.016491	-0.280968	0.003515
H167	H	0.546909	-0.659799	-0.544670
H168	H	1.046909	-0.159799	-0.044670
O169	O	0.488039	-0.373575	-0.262008
O170	O	0.988039	0.126425	0.237992
C171	C	0.411963	-0.387986	-0.272100
C172	C	0.911963	0.112014	0.227900
H173	H	0.401463	-0.469111	-0.296103
H174	H	0.901463	0.030889	0.203897
H175	H	0.382734	-0.380762	-0.216986
H176	H	0.882734	0.119238	0.283014
H177	H	0.390177	-0.325742	-0.311369
H178	H	0.890177	0.174258	0.188631
O179	O	1.156420	-0.638252	-0.779106
O180	O	1.656420	-0.138252	-0.279106
C181	C	1.203966	-0.578453	-0.734674
C182	C	1.703966	-0.078453	-0.234674
H183	H	1.178025	-0.498835	-0.723175
H184	H	1.678025	0.001165	-0.223175
H185	H	1.213802	-0.621265	-0.680619
H186	H	1.713802	-0.121265	-0.180619
H187	H	1.258514	-0.566906	-0.764297
H188	H	1.758514	-0.066906	-0.264297
O189	O	0.639558	-0.373430	-0.261898
O190	O	1.139558	0.126570	0.238102
C191	C	0.589155	-0.314039	-0.220442
C192	C	1.089155	0.185961	0.279558
H193	H	0.534361	-0.357071	-0.217842
H194	H	1.034361	0.142929	0.282158
H195	H	0.611346	-0.302730	-0.162471
H196	H	1.111346	0.197270	0.337529
H197	H	0.581002	-0.234294	-0.247487
H198	H	1.081002	0.265706	0.252513
O199	O	1.157732	-1.221856	-0.260615
O200	O	1.657732	-0.721856	0.239385
C201	C	1.087232	-1.258628	-0.241647
C202	C	1.587232	-0.758628	0.258353
H203	H	1.044807	-1.195436	-0.254164
H204	H	1.544807	-0.695436	0.245836
H205	H	1.074164	-1.332007	-0.274852
H206	H	1.574164	-0.832007	0.225148
H207	H	1.085716	-1.278178	-0.180588
H208	H	1.585716	-0.778178	0.319412
H209	H	1.243175	-0.906006	-0.175228
H210	H	1.743175	-0.406006	0.324772
O211	O	1.157807	-0.789245	-0.260448
O212	O	1.657807	-0.289245	0.239552
C213	C	1.209436	-0.752584	-0.208833
C214	C	1.709436	-0.252584	0.291167
H215	H	1.252466	-0.815772	-0.198576
H216	H	1.752466	-0.315772	0.301424
H217	H	1.237319	-0.679116	-0.231043
H218	H	1.737319	-0.179116	0.268957
H219	H	1.180273	-0.733217	-0.155143
H220	H	1.680273	-0.233217	0.344857
H221	H	1.243257	-1.105074	-0.175267
H222	H	1.743257	-0.605074	0.324733
O223	O	0.876729	-1.113832	-0.541440
O224	O	1.376729	-0.613832	-0.041440
C225	C	0.918632	-1.177170	-0.589034
C226	C	1.418632	-0.677170	-0.089034
H227	H	0.974425	-1.193563	-0.563129
H228	H	1.474425	-0.693563	-0.063129
H229	H	0.888686	-1.254356	-0.598887
H230	H	1.388686	-0.754356	-0.098887
H231	H	0.926667	-1.134812	-0.643569
H232	H	1.426667	-0.634812	-0.143569
O233	O	0.969330	-0.789253	-0.448491
O234	O	1.469330	-0.289253	0.051509
C235	C	0.950436	-0.752696	-0.377941
C236	C	1.450436	-0.252696	0.122059
H237	H	0.963051	-0.815962	-0.335575
H238	H	1.463051	-0.315962	0.164425
H239	H	0.983612	-0.679271	-0.364869
H240	H	1.483612	-0.179271	0.135131
H241	H	0.889367	-0.733295	-0.376328
H242	H	1.389367	-0.233295	0.123672
