data_functionalizedCrystal
_audit_creation_method	'MofGen! by Chris Wilmer'
_symmetry_space_group_name_H-M	'P1'
_symmetry_Int_Tables_number	1
_symmetry_cell_setting	triclinic
loop_
_symmetry_equiv_pos_as_xyz
  x,y,z
_cell_length_a	31.640172
_cell_length_b	20.919151
_cell_length_c	20.919309
_cell_angle_alpha	60.700880
_cell_angle_beta	89.996393
_cell_angle_gamma	58.208797
loop_
_atom_site_label
_atom_site_type_symbol
_atom_site_fract_x
_atom_site_fract_y
_atom_site_fract_z
Zr1	Zr	0.383618	0.731790	-0.119839
O2	O	0.314011	0.864473	-0.225289
O3	O	0.408377	0.593509	-0.082318
O4	O	0.407121	0.723704	-0.217801
O5	O	0.312367	0.742609	0.011157
O6	O	0.476677	0.723692	-0.217805
O7	O	0.315267	0.734279	-0.089805
O8	O	0.478924	0.490797	0.024550
O9	O	0.310121	0.975503	-0.231198
O10	O	0.466713	0.652450	-0.072595
O11	O	0.412640	0.658675	0.002754
O12	O	0.411162	0.811963	-0.156760
O13	O	0.357088	0.818188	-0.081410
Zr14	Zr	0.489929	0.745056	0.041178
Zr15	Zr	0.494553	0.731771	-0.119845
Zr16	Zr	0.378994	0.745075	0.041184
Zr17	Zr	0.377414	0.908869	-0.129264
Zr18	Zr	0.496133	0.567976	0.050603
O19	O	0.465171	0.883337	0.003657
O20	O	0.471746	0.864447	-0.225296
O21	O	0.307436	0.883364	0.003665
O22	O	0.559537	0.612373	0.146628
O23	O	0.566112	0.593482	-0.082326
O24	O	0.401802	0.612399	0.146635
O25	O	0.561180	0.734237	-0.089818
O26	O	0.466427	0.753142	0.139140
O27	O	0.396870	0.753154	0.139144
O28	O	0.558281	0.742567	0.011144
O29	O	0.398299	0.975488	-0.231203
O30	O	0.475248	0.501358	0.152542
O31	O	0.563427	0.501343	0.152537
O32	O	0.567102	0.490782	0.024546
O33	O	0.306445	0.986063	-0.103207
O34	O	0.394624	0.986049	-0.103211
O35	O	0.462386	0.664883	0.078099
O36	O	0.516459	0.658658	0.002749
O37	O	0.460907	0.818171	-0.081415
O38	O	0.406834	0.824396	-0.006066
C39	C	0.444534	0.516923	-0.027541
C40	C	0.447168	0.441748	-0.023540
C41	C	0.409538	0.463036	-0.080547
C42	C	0.412015	0.392412	-0.076815
C43	C	0.452119	0.300501	-0.016071
C44	C	0.489753	0.279214	0.040940
C45	C	0.487278	0.349837	0.037204
C46	C	0.461538	0.084434	-0.001847
C47	C	0.464009	0.013810	0.001886
C48	C	0.386271	0.127013	-0.115870
C49	C	0.383798	0.197633	-0.119598
C50	C	0.421433	0.176339	-0.062590
C51	C	0.454651	0.228311	-0.012253
C52	C	0.418904	0.248529	-0.066411
C53	C	0.298011	0.738446	-0.039324
C54	C	0.250916	0.738454	-0.039321
C55	C	-0.039490	0.733817	-0.094949
C56	C	-0.216476	0.733804	-0.094954
O57	O	-0.237989	0.729861	-0.142236
N58	N	-0.240204	0.738395	-0.039334
C59	C	-0.219681	0.742984	0.016294
O60	O	-0.243921	0.746879	0.063607
C61	C	-0.042693	0.742990	0.016302
C62	C	-0.018971	0.738408	-0.039326
C63	C	-0.015767	0.729234	-0.150572
C64	C	0.028475	0.729242	-0.150573
C65	C	0.048994	0.733833	-0.094950
C66	C	0.025271	0.738416	-0.039327
C67	C	-0.022169	0.747571	0.071933
C68	C	0.022082	0.747570	0.071931
C69	C	0.045805	0.742988	0.016303
C70	C	0.090033	0.743015	0.016294
N71	N	0.113761	0.738424	-0.039325
C72	C	0.093241	0.733833	-0.094948
C73	C	-0.312602	0.742982	0.016285
C74	C	-0.356849	0.742982	0.016283
C75	C	-0.353641	0.733801	-0.094965
C76	C	-0.309395	0.733808	-0.094965
C77	C	-0.288874	0.738391	-0.039334
C78	C	0.186152	0.733851	-0.094946
C79	C	0.230397	0.733864	-0.094944
C80	C	0.227186	0.743040	0.016306
C81	C	0.182944	0.743032	0.016302
C82	C	0.162429	0.738434	-0.039328
O83	O	0.111577	0.746946	0.063558
O84	O	0.117496	0.729918	-0.142243
C85	C	-0.083732	0.733809	-0.094948
C86	C	-0.107455	0.738391	-0.039325
C87	C	-0.086936	0.742982	0.016298
C88	C	-0.151702	0.738391	-0.039327
C89	C	-0.172221	0.733801	-0.094950
C90	C	-0.148493	0.729210	-0.150570
C91	C	-0.104251	0.729218	-0.150570
C92	C	-0.110664	0.747573	0.071918
C93	C	-0.154906	0.747565	0.071914
C94	C	-0.175425	0.742975	0.016291
C95	C	0.575537	0.738400	-0.039337
C96	C	0.622631	0.738392	-0.039340
C97	C	0.442558	0.721805	-0.240745
C98	C	0.444521	0.716165	-0.309103
C99	C	0.429013	0.959923	-0.051120
C100	C	0.426380	1.035098	-0.055121
C101	C	0.416447	0.796777	-0.385151
C102	C	0.418298	0.791472	-0.449378
C103	C	0.448221	0.705554	-0.437556
C104	C	0.476298	0.624936	-0.361500
C105	C	0.474450	0.630242	-0.297275
C106	C	0.455256	0.685369	-0.629277
C107	C	0.457101	0.680069	-0.693510
C108	C	0.399101	0.846606	-0.781384
C109	C	0.397253	0.851904	-0.717153
C110	C	0.425332	0.771286	-0.641103
C111	C	0.450112	0.700130	-0.503205
C112	C	0.423443	0.776711	-0.575456
C113	C	0.430990	0.755041	0.162084
C114	C	0.429027	0.760681	0.230442
C115	C	0.583297	0.516900	-0.027548
C116	C	0.633026	0.441717	-0.023549
C117	C	0.438750	0.533541	0.173874
C118	C	0.439421	0.464006	0.246233
C119	C	0.577513	0.533518	0.173867
C120	C	0.625278	0.463975	0.246224
C121	C	0.296035	0.943328	-0.252528
C122	C	0.248269	1.012871	-0.324885
C123	C	0.290251	0.959946	-0.051113
C124	C	0.240522	1.035129	-0.055112
C125	C	0.434797	0.943305	-0.252535
C126	C	0.434127	1.012840	-0.324894
C127	C	0.630412	0.403169	-0.061007
C128	C	0.677133	0.332535	-0.057265
C129	C	0.726467	0.300446	-0.016060
C130	C	0.729080	0.339001	0.021398
C131	C	0.682359	0.409638	0.017651
C132	C	0.465702	0.434593	0.319550
C133	C	0.466330	0.369268	0.387545
C134	C	0.440679	0.333352	0.382222
C135	C	0.414394	0.362772	0.308898
C136	C	0.413764	0.428101	0.240904
C137	C	0.675940	0.428067	0.240872
C138	C	0.720825	0.362733	0.308853
C139	C	0.715047	0.333304	0.382185
C140	C	0.664380	0.369218	0.387535
C141	C	0.619497	0.434556	0.319555
C142	C	0.197607	1.048787	-0.319534
C143	C	0.152722	1.114143	-0.387515
C144	C	0.158499	1.143576	-0.460848
C145	C	0.209166	1.107657	-0.466197
C146	C	0.254050	1.042308	-0.398217
C147	C	0.243135	1.073684	-0.017662
C148	C	0.196414	1.144336	-0.021422
C149	C	0.147080	1.176427	-0.062629
C150	C	0.144468	1.137869	-0.100084
C151	C	0.191189	1.067223	-0.096328
C152	C	0.459783	1.048735	-0.319546
C153	C	0.459163	1.114061	-0.387529
C154	C	0.432883	1.143497	-0.460859
C155	C	0.407226	1.107595	-0.466206
C156	C	0.407850	1.042265	-0.398223
H157	H	0.487304	0.153469	0.037205
O158	O	0.385504	0.459690	0.161834
H159	H	0.367810	0.423683	0.169567
O160	O	0.188368	1.025636	-0.136719
H161	H	0.167355	0.995340	-0.112266
H162	H	0.192893	1.024827	-0.259829
H163	H	0.111471	1.143378	-0.383144
H164	H	0.121947	1.196788	-0.516196
O165	O	0.685182	0.451195	0.058071
H166	H	0.706200	0.481487	0.033639
O167	O	0.378902	1.139324	-0.545301
H168	H	0.361173	1.103378	-0.537608
O169	O	0.674305	0.290958	-0.097665
H170	H	0.693928	0.300940	-0.141876
O171	O	0.215395	1.139399	-0.545293
H172	H	0.175670	1.190865	-0.591658
H173	H	0.376875	0.537872	-0.130004
O174	O	0.340544	0.296767	-0.185113
H175	H	0.358664	0.329231	-0.219034
H176	H	-0.290083	0.730076	-0.140262
O177	O	0.776855	0.224259	-0.012026
H178	H	0.811603	0.208420	0.022912
O179	O	0.091254	1.172492	-0.144528
H180	H	0.088172	1.115082	-0.118645
O181	O	0.782291	0.304379	0.065848
H182	H	0.814336	0.248777	0.062164
H183	H	0.486591	0.463829	0.323898
O184	O	0.682184	0.459804	0.161786
H185	H	0.664699	0.443673	0.131361
H186	H	0.386955	1.013046	-0.402589
O187	O	0.164023	0.728910	-0.154953
H188	H	0.194969	0.664460	-0.148788
O189	O	-0.170631	0.724259	-0.210563
H190	H	-0.183062	0.784322	-0.270087
O191	O	-0.078669	0.724278	-0.210572
H192	H	-0.036747	0.661806	-0.180390
O193	O	0.044214	0.752510	0.131939
H194	H	0.078970	0.751736	0.122603
H195	H	0.243899	0.746781	0.061591
O196	O	0.494691	0.337528	0.466626
H197	H	0.512431	0.373465	0.458898
O198	O	0.485534	0.598421	-0.547257
H199	H	0.506644	0.537789	-0.549830
O200	O	0.577206	0.437774	-0.105459
H201	H	0.554270	0.512110	-0.153068
O202	O	0.775470	0.323993	0.303075
H203	H	0.771942	0.355423	0.240661
H204	H	0.295301	1.013064	-0.402583
O205	O	0.368819	0.933556	-0.863406
H206	H	0.383211	0.974496	-0.872139
O207	O	0.441372	0.262874	0.455562
H208	H	0.463965	0.248449	0.507435
H209	H	0.381373	0.409753	-0.123236
O210	O	-0.180486	0.752493	0.131924
H211	H	-0.158775	0.755671	0.170606
O212	O	0.384170	0.889446	-0.397903
H213	H	0.399274	0.928349	-0.431292
H214	H	0.283301	1.047561	0.015899
H215	H	-0.093960	0.751310	0.117213
O216	O	0.564858	0.473262	0.325343
H217	H	0.541446	0.548924	0.293829
H218	H	0.481183	1.024779	-0.259843
O219	O	0.199237	1.185905	0.018989
H220	H	0.241392	1.151703	0.048286
O221	O	0.482386	0.607461	-0.490454
H222	H	0.467287	0.568552	-0.457056
H223	H	0.249710	0.730135	-0.140246
O224	O	0.345688	0.149979	-0.177366
H225	H	0.354148	0.085432	-0.164572
O226	O	0.386747	0.324005	0.303162
H227	H	0.391615	0.273622	0.362765
H228	H	-0.295897	0.746715	0.061588
O229	O	0.763460	0.262822	0.455505
H230	H	0.799658	0.242793	0.439457
H231	H	0.481468	0.610101	-0.683875
H232	H	-0.376166	0.746728	0.061573
O233	O	0.658152	0.337460	0.466631
H234	H	0.697877	0.285984	0.512996
O235	O	0.054063	0.724291	-0.210567
H236	H	0.032358	0.721089	-0.249235
H237	H	0.496668	-0.061031	0.051355
H238	H	0.109041	1.233952	-0.065682
H239	H	0.480055	1.143287	-0.383161
O240	O	0.432205	1.213974	-0.534180
H241	H	0.473505	1.186862	-0.532688
H242	H	0.492184	0.067084	0.044573
O243	O	0.533012	0.180084	0.106458
H244	H	0.514897	0.147619	0.140394
O245	O	0.527862	0.326883	0.098692
H246	H	0.556162	0.251108	0.141564
H247	H	0.372888	0.921868	-0.726789
O248	O	0.375649	0.347655	-0.131931
H249	H	0.351558	0.384952	-0.107036
H250	H	-0.370356	0.730065	-0.140256
O251	O	-0.037900	0.724294	-0.210576
H252	H	-0.013966	0.721117	-0.249252
O253	O	-0.047739	0.752485	0.131948
H254	H	-0.026023	0.755656	0.170630
H255	H	0.395438	0.857115	-0.511298
O256	O	0.157355	0.747975	0.076299
H257	H	0.143393	0.812432	0.070128
O258	O	0.508572	0.532263	-0.348741
H259	H	0.505137	0.542115	-0.406177
H260	H	0.399082	0.846665	-0.585079
O261	O	0.504726	0.543297	-0.215247
H262	H	0.525840	0.482661	-0.217814
