data_functionalizedCrystal
_audit_creation_method	'MofGen! by Chris Wilmer'
_symmetry_space_group_name_H-M	'P1'
_symmetry_Int_Tables_number	1
_symmetry_cell_setting	triclinic
loop_
_symmetry_equiv_pos_as_xyz
  x,y,z
_cell_length_a	12.759401
_cell_length_b	25.639239
_cell_length_c	12.759393
_cell_angle_alpha	89.962948
_cell_angle_beta	89.981504
_cell_angle_gamma	90.038847
loop_
_atom_site_label
_atom_site_type_symbol
_atom_site_fract_x
_atom_site_fract_y
_atom_site_fract_z
Zn1	Zn	1.606080	-0.208118	-0.593941
Zn2	Zn	2.106080	0.291882	-0.093941
Zn3	Zn	1.605901	-0.295564	-0.418245
Zn4	Zn	2.105901	0.204436	0.081755
Zn5	Zn	1.430382	-0.208145	-0.418281
Zn6	Zn	1.930382	0.291855	0.081719
Zn7	Zn	1.430297	-0.295524	-0.593886
Zn8	Zn	1.930297	0.204476	-0.093886
O9	O	1.518165	-0.251838	-0.506088
O10	O	2.018165	0.248162	-0.006088
O11	O	1.753078	-0.219723	-0.570643
O12	O	2.253078	0.280277	-0.070643
O13	O	1.582579	-0.283996	-0.271228
O14	O	2.082579	0.216004	0.228772
O15	O	1.453799	-0.134976	-0.441621
O16	O	1.953799	0.365024	0.058379
O17	O	1.752946	-0.283970	-0.441559
O18	O	2.252946	0.216030	0.058441
O19	O	1.582884	-0.134956	-0.570678
O20	O	2.082884	0.365044	-0.070678
O21	O	1.453626	-0.219770	-0.271255
O22	O	1.953626	0.280230	0.228745
O23	O	1.283350	-0.219731	-0.441567
O24	O	1.783350	0.280269	0.058433
O25	O	1.453655	-0.283901	-0.740914
O26	O	1.953655	0.216099	-0.240914
O27	O	1.283288	-0.283928	-0.570584
O28	O	1.783288	0.216072	-0.070584
O29	O	1.582802	-0.219684	-0.740955
O30	O	2.082802	0.280316	-0.240955
O31	O	1.582496	-0.368724	-0.441505
O32	O	2.082496	0.131276	0.058495
O33	O	1.453481	-0.368695	-0.570549
O34	O	1.953481	0.131305	-0.070549
C35	C	1.245198	-0.251828	-0.506074
C36	C	1.745198	0.248172	-0.006074
C37	C	1.128421	-0.251837	-0.506093
C38	C	1.628421	0.248163	-0.006093
C39	C	1.073554	-0.285318	-0.573160
C40	C	1.573554	0.214682	-0.073160
C41	C	0.963830	-0.285324	-0.573172
C42	C	1.463830	0.214676	-0.073172
C43	C	0.963850	-0.218368	-0.439039
C44	C	1.463850	0.281632	0.060961
C45	C	1.073572	-0.218359	-0.439033
C46	C	1.573572	0.281641	0.060967
C47	C	1.128404	-0.318796	-0.640220
C48	C	1.628404	0.181204	-0.140220
C49	C	1.073536	-0.352280	-0.707292
C50	C	1.573536	0.147720	-0.207292
C51	C	0.963812	-0.352286	-0.707303
C52	C	1.463812	0.147714	-0.207303
C53	C	0.908955	-0.318809	-0.640242
C54	C	1.408955	0.181191	-0.140242
C55	C	1.517989	-0.387680	-0.506040
C56	C	2.017989	0.112320	-0.006040
C57	C	1.518009	-0.445795	-0.506055
C58	C	2.018009	0.054205	-0.006055
C59	C	1.585519	-0.806160	-0.439010
C60	C	2.085519	-0.306160	0.060990
C61	C	1.585560	-0.860765	-0.439024
C62	C	2.085560	-0.360765	0.060976
O63	O	1.642775	-0.889004	-0.381967
O64	O	2.142775	-0.389004	0.118033
N65	N	1.518350	-0.888077	-0.506158
N66	N	2.018350	-0.388077	-0.006158
C67	C	1.451103	-0.860782	-0.573289
C68	C	1.951103	-0.360782	-0.073289
O69	O	1.393940	-0.889027	-0.630394
O70	O	1.893940	-0.389027	-0.130394
C71	C	1.451068	-0.806179	-0.573280
C72	C	1.951068	-0.306179	-0.073280
C73	C	1.518275	-0.778869	-0.506134
C74	C	2.018275	-0.278869	-0.006134
C75	C	1.652721	-0.778851	-0.371870
C76	C	2.152721	-0.278851	0.128130
C77	C	1.652678	-0.724250	-0.371855
C78	C	2.152678	-0.224250	0.128145
C79	C	1.585434	-0.696959	-0.438980
C80	C	2.085434	-0.196959	0.061020
C81	C	1.518232	-0.724269	-0.506119
C82	C	2.018232	-0.224269	-0.006119
C83	C	1.383827	-0.778885	-0.640416
C84	C	1.883827	-0.278885	-0.140416
C85	C	1.383799	-0.724278	-0.640401
C86	C	1.883799	-0.224278	-0.140401
C87	C	1.451005	-0.696968	-0.573256
C88	C	1.951005	-0.196968	-0.073256
C89	C	1.450946	-0.642377	-0.573228
C90	C	1.950946	-0.142377	-0.073228
N91	N	1.518155	-0.615065	-0.506094
N92	N	2.018155	-0.115065	-0.006094
C93	C	1.585399	-0.642356	-0.438970
C94	C	2.085399	-0.142356	0.061030
C95	C	1.451182	-0.975453	-0.573306
C96	C	1.951182	-0.475453	-0.073306
C97	C	1.451210	-1.030055	-0.573311
C98	C	1.951210	-0.530055	-0.073311
C99	C	1.585669	-1.030034	-0.439046
C100	C	2.085669	-0.530034	0.060954
C101	C	1.585634	-0.975430	-0.439037
C102	C	2.085634	-0.475430	0.060963
C103	C	1.518391	-0.948140	-0.506172
C104	C	2.018391	-0.448140	-0.006172
C105	C	1.585305	-0.527691	-0.438943
C106	C	2.085305	-0.027691	0.061057
C107	C	1.585253	-0.473086	-0.438930
C108	C	2.085253	0.026914	0.061070
C109	C	1.450799	-0.473111	-0.573198
C110	C	1.950799	0.026889	-0.073198
C111	C	1.450846	-0.527712	-0.573207
C112	C	1.950846	-0.027712	-0.073207
C113	C	1.518108	-0.555000	-0.506076
C114	C	2.018108	-0.055000	-0.006076
O115	O	1.393762	-0.614103	-0.630258
O116	O	1.893762	-0.114103	-0.130258
O117	O	1.642562	-0.614104	-0.381885
O118	O	2.142562	-0.114104	0.118115
C119	C	1.792198	-0.251848	-0.506103
C120	C	2.292198	0.248152	-0.006103
C121	C	1.908975	-0.251852	-0.506109
C122	C	2.408975	0.248148	-0.006109
C123	C	1.518239	-0.251785	-0.780122
C124	C	2.018239	0.248215	-0.280122
C125	C	1.518270	-0.251763	-0.896898
C126	C	2.018270	0.248237	-0.396898
C127	C	1.518371	-0.115465	-0.506159
C128	C	2.018371	0.384535	-0.006159
C129	C	1.518459	-0.057351	-0.506190
C130	C	2.018459	0.442649	-0.006190
C131	C	1.585526	-0.218322	-0.951783
C132	C	2.085526	0.281678	-0.451783
C133	C	1.585551	-0.218303	-1.061507
C134	C	2.085551	0.281697	-0.561507
C135	C	1.451061	-0.285170	-1.061452
C136	C	1.951061	0.214830	-0.561452
C137	C	1.451032	-0.285186	-0.951730
C138	C	1.951032	0.214814	-0.451730
C139	C	1.652765	-0.184898	-0.896952
C140	C	2.152765	0.315102	-0.396952
C141	C	1.720027	-0.151455	-0.951837
C142	C	2.220027	0.348545	-0.451837
C143	C	1.720052	-0.151436	-1.061561
C144	C	2.220052	0.348564	-0.561561
C145	C	1.652815	-0.184860	-1.116400
C146	C	2.152815	0.315140	-0.616400
C147	C	1.518152	-0.251853	-0.233121
C148	C	2.018152	0.248147	0.266879
C149	C	1.518325	-0.251728	-0.116345
C150	C	2.018325	0.248272	0.383655
H151	H	1.118208	-0.379532	-0.761897
H152	H	1.618208	0.120468	-0.261897
H153	H	1.396319	-0.312383	-1.106111
H154	H	1.896319	0.187617	-0.606111
H155	H	0.919142	-0.379547	-0.761924
H156	H	1.419142	0.120453	-0.261924
H157	H	1.640078	-0.549903	-0.384280
H158	H	2.140078	-0.049903	0.115720
H159	H	1.774763	-0.124238	-0.907179
H160	H	2.274763	0.375762	-0.407179
H161	H	1.774813	-0.124201	-1.106245
H162	H	2.274813	0.375799	-0.606245
H163	H	1.396250	-0.312409	-0.907042
H164	H	1.896250	0.187591	-0.407042
H165	H	1.217746	-0.318795	-0.640216
H166	H	1.717746	0.181205	-0.140216
H167	H	1.652828	-0.184836	-1.205745
H168	H	2.152828	0.315164	-0.705745
Br169	Br	0.760043	-0.318813	-0.640271
Br170	Br	1.260043	0.181187	-0.140271
H171	H	1.396416	-0.953236	-0.627972
H172	H	1.896416	-0.453236	-0.127972
Br173	Br	1.148041	-0.172918	-0.348014
Br174	Br	1.648041	0.327082	0.151986
Br175	Br	0.889402	-0.172937	-0.348033
Br176	Br	1.389402	0.327063	0.151967
H177	H	1.639981	-0.450852	-0.384249
H178	H	2.139981	0.049148	0.115751
Br179	Br	1.743908	-0.687196	-0.280739
Br180	Br	2.243908	-0.187196	0.219261
H181	H	1.652754	-0.184911	-0.807609
H182	H	2.152754	0.315089	-0.307609
Br183	Br	1.743996	-0.815878	-0.280763
Br184	Br	2.243996	-0.315878	0.219237
Br185	Br	1.676845	-0.938373	-0.347907
Br186	Br	2.176845	-0.438373	0.152093
Br187	Br	1.359548	-0.436063	-0.664295
Br188	Br	1.859548	0.063937	-0.164295
H189	H	1.640427	-1.052264	-0.384394
H190	H	2.140427	-0.552264	0.115606
H191	H	1.396474	-1.052286	-0.627977
H192	H	1.896474	-0.552286	-0.127977
H193	H	1.329095	-0.801111	-0.695088
H194	H	1.829095	-0.301111	-0.195088
H195	H	1.329043	-0.702061	-0.695074
H196	H	1.829043	-0.202061	-0.195074
Br197	Br	1.359612	-0.564776	-0.664308
Br198	Br	1.859612	-0.064776	-0.164308
