data_functionalizedCrystal
_audit_creation_method	'MofGen! by Chris Wilmer'
_symmetry_space_group_name_H-M	'P1'
_symmetry_Int_Tables_number	1
_symmetry_cell_setting	triclinic
loop_
_symmetry_equiv_pos_as_xyz
  x,y,z
_cell_length_a	18.215407
_cell_length_b	12.594516
_cell_length_c	18.215399
_cell_angle_alpha	89.976218
_cell_angle_beta	89.983101
_cell_angle_gamma	90.009275
loop_
_atom_site_label
_atom_site_type_symbol
_atom_site_fract_x
_atom_site_fract_y
_atom_site_fract_z
Zn1	Zn	1.125139	-0.423825	-0.416080
Zn2	Zn	1.625139	0.076175	0.083920
Zn3	Zn	1.125075	-0.601823	-0.293022
Zn4	Zn	1.625075	-0.101823	0.206978
Zn5	Zn	1.002071	-0.423851	-0.293033
Zn6	Zn	1.502071	0.076149	0.206967
Zn7	Zn	1.002065	-0.601754	-0.416053
Zn8	Zn	1.502065	-0.101754	0.083947
O9	O	1.063588	-0.512813	-0.354547
O10	O	1.563588	-0.012813	0.145453
O11	O	1.228115	-0.447455	-0.399762
O12	O	1.728115	0.052545	0.100238
O13	O	1.108734	-0.578254	-0.190039
O14	O	1.608734	-0.078254	0.309961
O15	O	1.018426	-0.274902	-0.309371
O16	O	1.518426	0.225098	0.190629
O17	O	1.228068	-0.578229	-0.309352
O18	O	1.728068	-0.078229	0.190648
O19	O	1.108843	-0.274883	-0.399773
O20	O	1.608843	0.225117	0.100227
O21	O	1.018364	-0.447498	-0.190047
O22	O	1.518364	0.052502	0.309953
O23	O	0.899086	-0.447432	-0.309346
O24	O	1.399086	0.052568	0.190654
O25	O	1.018415	-0.578112	-0.519041
O26	O	1.518415	-0.078112	-0.019041
O27	O	0.899082	-0.578137	-0.399728
O28	O	1.399082	-0.078137	0.100272
O29	O	1.108837	-0.447388	-0.519060
O30	O	1.608837	0.052612	-0.019060
O31	O	1.108729	-0.750759	-0.309327
O32	O	1.608729	-0.250759	0.190673
O33	O	1.018354	-0.750709	-0.399718
O34	O	1.518354	-0.250709	0.100282
C35	C	0.872381	-0.512781	-0.354536
C36	C	1.372381	-0.012781	0.145464
C37	C	0.790583	-0.512792	-0.354548
C38	C	1.290583	-0.012792	0.145452
C39	C	0.525542	-0.580983	-0.401545
C40	C	1.025542	-0.080983	0.098455
C41	C	0.602401	-0.580974	-0.401541
C42	C	1.102401	-0.080974	0.098459
C43	C	0.602375	-0.444667	-0.307563
C44	C	1.102375	0.055333	0.192437
C45	C	0.525517	-0.444683	-0.307563
C46	C	1.025517	0.055317	0.192437
C47	C	0.487103	-0.512839	-0.354558
C48	C	0.987103	-0.012839	0.145442
C49	C	0.640819	-0.512814	-0.354554
C50	C	1.140819	-0.012814	0.145446
C51	C	0.724153	-0.512804	-0.354550
C52	C	1.224153	-0.012804	0.145450
C53	C	0.403764	-0.512851	-0.354562
C54	C	0.903764	-0.012851	0.145438
C55	C	1.063554	-0.789354	-0.354534
C56	C	1.563554	-0.289354	0.145466
C57	C	1.063606	-0.907660	-0.354553
C58	C	1.563606	-0.407660	0.145447
C59	C	1.112818	-0.976901	-0.305442
C60	C	1.612818	-0.476901	0.194558
C61	C	1.130801	-1.047606	-0.372613
C62	C	1.630801	-0.547606	0.127387
C63	C	1.045716	-1.047754	-0.287426
C64	C	1.545716	-0.547754	0.212574
C65	C	1.081623	-0.976806	-0.421759
C66	C	1.581623	-0.476806	0.078241
C67	C	0.996507	-0.976948	-0.336527
C68	C	1.496507	-0.476948	0.163473
C69	C	1.014464	-1.047620	-0.403743
C70	C	1.514464	-0.547620	0.096257
C71	C	1.255541	-0.512847	-0.354559
C72	C	1.755541	-0.012847	0.145441
C73	C	1.337339	-0.512861	-0.354564
C74	C	1.837339	-0.012861	0.145436
C75	C	1.063632	-0.512740	-0.546500
C76	C	1.563632	-0.012740	-0.046500
C77	C	1.063652	-0.512709	-0.628299
C78	C	1.563652	-0.012709	-0.128299
C79	C	1.063642	-0.235192	-0.354576
C80	C	1.563642	0.264808	0.145424
C81	C	1.063665	-0.116887	-0.354588
C82	C	1.563665	0.383113	0.145412
C83	C	1.110751	-0.444577	-0.816504
C84	C	1.610751	0.055423	-0.316504
C85	C	1.110760	-0.444546	-0.893363
C86	C	1.610760	0.055454	-0.393363
C87	C	1.016604	-0.580675	-0.893332
C88	C	1.516604	-0.080675	-0.393332
C89	C	1.016592	-0.580700	-0.816474
C90	C	1.516592	-0.080700	-0.316474
C91	C	1.063670	-0.512653	-0.778063
C92	C	1.563670	-0.012653	-0.278063
C93	C	1.063691	-0.512597	-0.931779
C94	C	1.563691	-0.012597	-0.431779
C95	C	1.063700	-0.512564	-1.015113
C96	C	1.563700	-0.012564	-0.515113
C97	C	1.063660	-0.512684	-0.694724
C98	C	1.563660	-0.012684	-0.194724
C99	C	1.063585	-0.512809	-0.163341
C100	C	1.563585	-0.012809	0.336659
C101	C	1.063709	-0.512541	-0.081542
C102	C	1.563709	-0.012541	0.418458
H103	H	0.633694	-0.636465	-0.439801
H104	H	1.133694	-0.136465	0.060199
Cl105	Cl	1.022315	-1.095869	-0.199759
Cl106	Cl	1.522315	-0.595869	0.300241
H107	H	0.633661	-0.389175	-0.269302
H108	H	1.133661	0.110825	0.230698
H109	H	0.494219	-0.389190	-0.269297
H110	H	0.994219	0.110810	0.230703
Cl111	Cl	0.957428	-0.666222	-0.941626
Cl112	Cl	1.457428	-0.166222	-0.441626
Cl113	Cl	1.169931	-0.359028	-0.768218
Cl114	Cl	1.669931	0.140972	-0.268218
Cl115	Cl	1.218451	-1.095506	-0.396197
Cl116	Cl	1.718451	-0.595506	0.103803
H117	H	1.149097	-0.389110	-0.924659
H118	H	1.649097	0.110890	-0.424659
Cl119	Cl	1.177078	-0.928954	-0.241378
Cl120	Cl	1.677078	-0.428954	0.258622
Cl121	Cl	1.105137	-0.928902	-0.509451
Cl122	Cl	1.605137	-0.428902	-0.009451
Cl123	Cl	0.957395	-0.666282	-0.768144
Cl124	Cl	1.457395	-0.166282	-0.268144
H125	H	0.972872	-1.078476	-0.445338
H126	H	1.472872	-0.578476	0.054662
H127	H	0.494267	-0.636481	-0.439811
H128	H	0.994267	-0.136481	0.060189
H129	H	0.939753	-0.945885	-0.321240
H130	H	1.439753	-0.445885	0.178760
