data_functionalizedCrystal
_audit_creation_method	'MofGen! by Chris Wilmer'
_symmetry_space_group_name_H-M	'P1'
_symmetry_Int_Tables_number	1
_symmetry_cell_setting	triclinic
loop_
_symmetry_equiv_pos_as_xyz
  x,y,z
_cell_length_a	19.288864
_cell_length_b	16.109301
_cell_length_c	17.766277
_cell_angle_alpha	89.993626
_cell_angle_beta	89.976791
_cell_angle_gamma	83.298915
loop_
_atom_site_label
_atom_site_type_symbol
_atom_site_fract_x
_atom_site_fract_y
_atom_site_fract_z
O1	O	0.921601	0.103716	-0.062836
O2	O	1.254934	0.437049	0.270498
O3	O	1.588267	0.770383	0.603831
O4	O	0.719374	0.117707	-0.062784
O5	O	1.052707	0.451040	0.270549
O6	O	1.386040	0.784374	0.603882
O7	O	0.826042	-0.010338	-0.062806
O8	O	1.159376	0.322995	0.270527
O9	O	1.492709	0.656328	0.603860
O10	O	0.814932	0.231761	-0.062814
O11	O	1.148265	0.565095	0.270520
O12	O	1.481599	0.898428	0.603853
O13	O	0.826024	-0.010345	0.062382
O14	O	1.159357	0.322988	0.395715
O15	O	1.492690	0.656322	0.729049
O16	O	0.719355	0.117701	0.062404
O17	O	1.052688	0.451034	0.395738
O18	O	1.386021	0.784367	0.729071
O19	O	0.921582	0.103709	0.062353
O20	O	1.254915	0.437043	0.395686
O21	O	1.588249	0.770376	0.729020
Cu22	Cu	0.820467	0.110704	0.073809
Cu23	Cu	1.153800	0.444038	0.407143
Cu24	Cu	1.487133	0.777371	0.740476
Cu25	Cu	0.820489	0.110712	-0.074241
Cu26	Cu	1.153822	0.444045	0.259093
Cu27	Cu	1.487156	0.777379	0.592426
O28	O	0.814913	0.231755	0.062375
O29	O	1.148246	0.565088	0.395708
O30	O	1.481580	0.898422	0.729042
C31	C	0.693487	0.117254	-0.000183
C32	C	1.026820	0.450587	0.333150
C33	C	1.360153	0.783920	0.666483
C34	C	0.616380	0.115902	-0.000164
C35	C	0.949713	0.449236	0.333170
C36	C	1.283046	0.782569	0.666503
C37	C	0.571863	0.191034	-0.000178
C38	C	0.905196	0.524367	0.333156
C39	C	1.238530	0.857700	0.666489
C40	C	0.499413	0.189764	-0.000186
C41	C	0.832746	0.523097	0.333147
C42	C	1.166080	0.856431	0.666481
C43	C	0.471483	0.113359	-0.000195
C44	C	0.804816	0.446692	0.333138
C45	C	1.138150	0.780025	0.666471
C46	C	0.516010	0.038218	-0.000177
C47	C	0.849343	0.371551	0.333156
C48	C	1.182676	0.704884	0.666490
C49	C	0.588458	0.039489	-0.000161
C50	C	0.921791	0.372823	0.333172
C51	C	1.255125	0.706156	0.666506
C52	C	0.363084	0.053298	-0.044078
C53	C	0.696417	0.386631	0.289255
C54	C	1.029751	0.719965	0.622589
C55	C	0.290636	0.052029	-0.044098
C56	C	0.623970	0.385363	0.289235
C57	C	0.957303	0.718696	0.622568
C58	C	0.248028	0.109433	-0.000241
C59	C	0.581361	0.442766	0.333093
C60	C	0.914695	0.776100	0.666426
C61	C	0.277874	0.168120	0.043628
C62	C	0.611208	0.501453	0.376961
C63	C	0.944541	0.834786	0.710294
C64	C	0.350323	0.169391	0.043644
C65	C	0.683656	0.502725	0.376977
C66	C	1.016989	0.836058	0.710310
C67	C	0.392926	0.111971	-0.000212
C68	C	0.726259	0.445305	0.333121
C69	C	1.059592	0.778638	0.666455
C70	C	0.124952	0.183193	-0.000263
C71	C	0.458285	0.516526	0.333071
C72	C	0.791618	0.849860	0.666404
C73	C	0.052501	0.181920	-0.000266
C74	C	0.385834	0.515253	0.333067
C75	C	0.719167	0.848587	0.666400
C76	C	0.069099	0.030372	-0.000265
C77	C	0.402432	0.363705	0.333068
C78	C	0.735766	0.697038	0.666402
C79	C	0.141548	0.031647	-0.000254
C80	C	0.474882	0.364980	0.333080
C81	C	0.808215	0.698313	0.666413
C82	C	0.169470	0.108060	-0.000256
C83	C	0.502804	0.441393	0.333077
C84	C	0.836137	0.774726	0.666410
C85	C	0.825583	-0.041315	-0.000212
C86	C	1.158916	0.292018	0.333121
C87	C	1.492250	0.625352	0.666454
C88	C	0.824234	-0.133606	-0.000213
C89	C	1.157567	0.199728	0.333120
C90	C	1.490900	0.533061	0.666454
C91	C	0.883118	-0.442805	-0.000241
C92	C	1.216451	-0.109472	0.333092
C93	C	1.549784	0.223861	0.666426
C94	C	0.884392	-0.356090	-0.000237
C95	C	1.217725	-0.022756	0.333096
C96	C	1.551059	0.310577	0.666430
C97	C	0.757833	-0.335783	-0.000195
C98	C	1.091166	-0.002450	0.333139
C99	C	1.424500	0.330883	0.666472
C100	C	0.756559	-0.422498	-0.000193
C101	C	1.089893	-0.089164	0.333140
C102	C	1.423226	0.244169	0.666473
C103	C	0.819204	-0.476007	-0.000220
C104	C	1.152537	-0.142674	0.333113
C105	C	1.485870	0.190660	0.666446
C106	C	0.821752	-0.302577	-0.000218
C107	C	1.155085	0.030757	0.333116
C108	C	1.488418	0.364090	0.666449
C109	C	0.823133	-0.208555	-0.000213
C110	C	1.156466	0.124778	0.333120
C111	C	1.489800	0.458111	0.666453
C112	C	0.817823	-0.570034	-0.000223
C113	C	1.151156	-0.236701	0.333110
C114	C	1.484489	0.096632	0.666443
C115	C	0.947469	0.104163	-0.000250
C116	C	1.280802	0.437496	0.333084
C117	C	1.614136	0.770830	0.666417
C118	C	1.024576	0.105514	-0.000274
C119	C	1.357909	0.438848	0.333059
C120	C	1.691242	0.772181	0.666392
C121	C	0.815373	0.262732	-0.000221
C122	C	1.148706	0.596065	0.333113
C123	C	1.482039	0.929398	0.666446
C124	C	0.816722	0.355022	-0.000225
C125	C	1.150055	0.688356	0.333108
C126	C	1.483389	1.021689	0.666442
N127	N	0.820456	0.110699	0.177940
N128	N	1.153790	0.444032	0.511273
N129	N	1.487123	0.777365	0.844606
N130	N	0.820505	0.110711	-0.178371
N131	N	1.153838	0.444045	0.154962
N132	N	1.487172	0.777378	0.488296
C133	C	0.867704	0.054028	0.217317
C134	C	1.201038	0.387361	0.550650
C135	C	1.534371	0.720694	0.883983
C136	C	0.867708	0.054024	0.296119
C137	C	1.201042	0.387357	0.629452
C138	C	1.534375	0.720690	0.962785
C139	C	0.820471	0.110705	0.335540
C140	C	1.153804	0.444038	0.668874
C141	C	1.487137	0.777372	1.002207
C142	C	0.773214	0.167380	0.296154
C143	C	1.106547	0.500714	0.629487
C144	C	1.439880	0.834047	0.962820
C145	C	0.773206	0.167377	0.217353
C146	C	1.106540	0.500710	0.550687
C147	C	1.439873	0.834044	0.884020
C148	C	0.811353	0.186459	0.460377
C149	C	1.144686	0.519792	0.793711
C150	C	1.478020	0.853125	1.127044
C151	C	0.811365	0.186463	0.539176
C152	C	1.144698	0.519796	0.872510
C153	C	1.478032	0.853130	1.205843
C154	C	0.820489	0.110715	0.578587
C155	C	1.153823	0.444048	0.911920
C156	C	1.487156	0.777382	1.245253
C157	C	0.829616	0.034960	0.539188
C158	C	1.162950	0.368293	0.872522
C159	C	1.496283	0.701626	1.205855
C160	C	0.829609	0.034956	0.460388
C161	C	1.162942	0.368290	0.793721
C162	C	1.496276	0.701623	1.127055
C163	C	0.820473	0.110715	0.420986
C164	C	1.153807	0.444048	0.754319
C165	C	1.487140	0.777381	1.087653
C166	C	0.867745	0.054035	0.703410
C167	C	1.201078	0.387369	1.036743
C168	C	1.534411	0.720702	1.370076
C169	C	0.867744	0.054030	0.782213
C170	C	1.201077	0.387364	1.115546
C171	C	1.534410	0.720697	1.448879
C172	C	0.773252	0.167394	0.782246
C173	C	1.106586	0.500727	1.115580
C174	C	1.439919	0.834061	1.448913
C175	C	0.773250	0.167392	0.703445
C176	C	1.106583	0.500725	1.036778
C177	C	1.439916	0.834059	1.370111
C178	C	0.820500	0.110713	0.664031
C179	C	1.153833	0.444047	0.997364
C180	C	1.487166	0.777380	1.330698
H181	H	0.374621	0.217173	0.079365
H182	H	0.707954	0.550507	0.412698
H183	H	1.041287	0.883840	0.746032
Cl184	Cl	0.964745	-0.314355	-0.000266
Cl185	Cl	1.298078	0.018979	0.333068
Cl186	Cl	1.631411	0.352312	0.666401
Cl187	Cl	0.644425	-0.054970	-0.000144
Cl188	Cl	0.977759	0.278364	0.333189
Cl189	Cl	1.311092	0.611697	0.666522
H190	H	0.906185	0.007874	0.328185
H191	H	1.239518	0.341207	0.661519
H192	H	1.572852	0.674540	0.994852
Cl193	Cl	0.961870	-0.510071	-0.000271
Cl194	Cl	1.295204	-0.176738	0.333062
Cl195	Cl	1.628537	0.156596	0.666396
Cl196	Cl	0.679084	-0.268510	-0.000167
Cl197	Cl	1.012418	0.064824	0.333166
Cl198	Cl	1.345751	0.398157	0.666499
H199	H	0.704510	-0.449530	-0.000173
H200	H	1.037843	-0.116196	0.333160
H201	H	1.371177	0.217137	0.666494
Cl202	Cl	0.841074	-0.060274	0.410861
Cl203	Cl	1.174407	0.273059	0.744195
Cl204	Cl	1.507741	0.606392	1.077528
H205	H	0.397771	0.006551	-0.079797
H206	H	0.731104	0.339885	0.253537
H207	H	1.064437	0.673218	0.586870
H208	H	0.803938	0.248147	0.571248
H209	H	1.137271	0.581481	0.904582
H210	H	1.470605	0.914814	1.237915
Cl211	Cl	0.927099	-0.017228	0.167769
Cl212	Cl	1.260433	0.316106	0.501102
Cl213	Cl	1.593766	0.649439	0.834435
H214	H	0.046359	-0.031839	-0.000319
H215	H	0.379693	0.301494	0.333014
H216	H	0.713026	0.634828	0.666347
H217	H	0.493264	-0.023992	-0.000195
H218	H	0.826598	0.309341	0.333138
H219	H	1.159931	0.642675	0.666472
H220	H	0.837046	-0.026722	0.571274
H221	H	1.170379	0.306612	0.904608
H222	H	1.503712	0.639945	1.237941
Cl223	Cl	0.799946	0.281696	0.410841
Cl224	Cl	1.133280	0.615030	0.744175
Cl225	Cl	1.466613	0.948363	1.077508
Cl226	Cl	0.927140	-0.017221	0.653860
Cl227	Cl	1.260474	0.316112	0.987193
Cl228	Cl	1.593807	0.649445	1.320526
H229	H	0.906217	0.007878	0.814274
H230	H	1.239550	0.341211	1.147608
H231	H	1.572884	0.674544	1.480941
H232	H	0.734788	0.213542	0.814343
H233	H	1.068121	0.546875	1.147676
H234	H	1.401455	0.880209	1.481010
H235	H	0.734779	0.213542	0.671382
H236	H	1.068112	0.546875	1.004715
H237	H	1.401445	0.880209	1.338048
Cl238	Cl	0.713826	0.238634	0.345710
Cl239	Cl	1.047159	0.571967	0.679044
Cl240	Cl	1.380493	0.905301	1.012377
Cl241	Cl	0.160057	0.279253	-0.000258
Cl242	Cl	0.493390	0.612586	0.333075
Cl243	Cl	0.826724	0.945919	0.666408
H244	H	0.243183	0.214863	0.079341
H245	H	0.576517	0.548196	0.412675
H246	H	0.909850	0.881529	0.746008
Cl247	Cl	0.713804	0.238627	0.167847
Cl248	Cl	1.047138	0.571960	0.501181
Cl249	Cl	1.380471	0.905294	0.834514
Cl250	Cl	0.606961	0.287095	-0.000177
Cl251	Cl	0.940294	0.620429	0.333156
Cl252	Cl	1.273628	0.953762	0.666489
H253	H	0.016255	0.243104	-0.000273
H254	H	0.349588	0.576437	0.333060
H255	H	0.682922	0.909770	0.666393
Cl256	Cl	0.197516	-0.062810	-0.000241
Cl257	Cl	0.530849	0.270523	0.333093
Cl258	Cl	0.864182	0.603857	0.666426
Cl259	Cl	0.443438	0.284222	-0.000202
Cl260	Cl	0.776772	0.617555	0.333132
Cl261	Cl	1.110105	0.950889	0.666465
H262	H	0.266341	0.004247	-0.079822
H263	H	0.599675	0.337580	0.253512
H264	H	0.933008	0.670914	0.586845
