data_functionalizedCrystal
_audit_creation_method	'MofGen! by Chris Wilmer'
_symmetry_space_group_name_H-M	'P1'
_symmetry_Int_Tables_number	1
_symmetry_cell_setting	triclinic
loop_
_symmetry_equiv_pos_as_xyz
  x,y,z
_cell_length_a	28.938199
_cell_length_b	28.937346
_cell_length_c	28.934044
_cell_angle_alpha	60.005004
_cell_angle_beta	60.009897
_cell_angle_gamma	59.994060
loop_
_atom_site_label
_atom_site_type_symbol
_atom_site_fract_x
_atom_site_fract_y
_atom_site_fract_z
O1	O	0.064043	-0.675186	0.564597
O2	O	0.024124	-0.525682	0.454913
O3	O	0.118795	-0.620275	0.454833
O4	O	-0.030629	-0.580593	0.564678
O5	O	0.150204	-0.588870	0.486157
O6	O	0.055533	-0.494276	0.486238
O7	O	0.095452	-0.643780	0.595921
Cu8	Cu	0.078360	-0.566161	0.543940
Cu9	Cu	0.041215	-0.603301	0.506895
O10	O	0.000780	-0.549187	0.596002
N11	N	0.104487	-0.540042	0.569998
N12	N	0.015094	-0.629425	0.480837
C13	C	0.165467	-0.323909	0.630915
C14	C	0.165587	-0.479117	0.786068
C15	C	0.165481	-0.479095	0.630906
C16	C	0.320696	-0.479083	0.630835
C17	C	0.182557	-0.375118	0.647971
C18	C	0.182626	-0.462038	0.734858
C19	C	0.269485	-0.462018	0.647928
C20	C	0.182566	-0.462025	0.647966
C21	C	0.143714	-0.258726	0.609206
C22	C	0.143738	-0.500820	0.609192
C23	C	0.204309	-0.440300	0.669680
C24	C	0.415481	-0.462740	0.580919
C25	C	0.474732	-0.482485	0.561145
C26	C	0.474757	-0.578356	0.597704
C27	C	0.415508	-0.558609	0.617479
C28	C	0.157989	-0.229089	0.550957
C29	C	0.138212	-0.169834	0.531225
C30	C	0.089890	-0.169857	0.627992
C31	C	0.109667	-0.229112	0.647725
C32	C	0.085482	-0.486515	0.623535
C33	C	0.065722	-0.506265	0.603789
C34	C	0.162467	-0.554625	0.555370
C35	C	0.182230	-0.534875	0.575110
C36	C	0.085661	-0.486557	0.880902
C37	C	0.065952	-0.506323	0.940155
C38	C	0.162734	-0.554693	0.940102
C39	C	0.182441	-0.534928	0.880847
C40	C	0.143904	-0.500859	0.851249
C41	C	0.385871	-0.500801	0.609083
C42	C	-0.110907	-0.668480	0.441278
C43	C	-0.024049	-0.668588	0.441475
C44	C	-0.045729	-0.690282	0.419668
C45	C	-0.062146	-0.785032	0.469507
C46	C	-0.042446	-0.844287	0.489286
C47	C	0.053426	-0.844399	0.452899
C48	C	0.033725	-0.785144	0.433120
C49	C	-0.140617	-0.682751	0.499509
C50	C	-0.199867	-0.662928	0.519152
C51	C	-0.199694	-0.614571	0.422330
C52	C	-0.140443	-0.634393	0.402687
C53	C	-0.038320	-0.610337	0.427144
C54	C	-0.018610	-0.590621	0.446974
C55	C	0.029642	-0.687402	0.495454
C56	C	0.009933	-0.707121	0.475630
C57	C	-0.038148	-0.610347	0.324832
C58	C	-0.018301	-0.590634	0.265579
C59	C	0.030035	-0.687421	0.265643
C60	C	0.010190	-0.707133	0.324897
C61	C	-0.023903	-0.668595	0.354491
C62	C	-0.024062	-0.755463	0.441426
N63	N	0.503527	-0.540005	0.569810
O64	O	0.684453	-0.545211	0.434650
O65	O	0.684643	-0.655237	0.584005
O66	O	0.684567	-0.654986	0.489282
O67	O	0.684529	-0.545462	0.529373
O68	O	0.590438	-0.623674	0.520735
O69	O	0.590513	-0.623924	0.615457
O70	O	0.590323	-0.513899	0.466102
Cu71	Cu	0.581823	-0.566053	0.543652
Cu72	Cu	0.693143	-0.603083	0.506456
O73	O	0.590399	-0.514149	0.560825
N74	N	0.771439	-0.629131	0.480292
N75	N	0.104456	-0.141061	0.570015
O76	O	-0.030629	0.039964	0.564688
O77	O	0.118732	0.039984	0.454661
O78	O	0.023980	0.039958	0.454946
O79	O	0.064123	0.039990	0.564403
O80	O	0.055392	-0.054179	0.486321
O81	O	0.150144	-0.054153	0.486036
O82	O	0.000784	-0.054173	0.596063
Cu83	Cu	0.078332	-0.062759	0.543914
Cu84	Cu	0.041183	0.048570	0.506810
O85	O	0.095535	-0.054147	0.595778
N86	N	0.015053	0.126872	0.480710
N87	N	0.104760	-0.540096	0.968910
O88	O	0.099447	-0.675167	1.149923
O89	O	-0.010552	-0.525757	1.149951
O90	O	-0.010297	-0.620493	1.149918
O91	O	0.099192	-0.580431	1.149956
O92	O	0.021064	-0.589100	1.055785
O93	O	0.020809	-0.494365	1.055818
O94	O	0.130808	-0.643774	1.055790
Cu95	Cu	0.078672	-0.566203	1.047209
Cu96	Cu	0.041584	-0.603328	1.158532
O97	O	0.130553	-0.549038	1.055823
N98	N	0.015495	-0.629442	1.236831
C99	C	0.036087	-0.491140	0.455465
C100	C	0.153325	-0.608283	0.455364
C101	C	0.083488	-0.678322	0.595370
C102	C	-0.033750	-0.561180	0.595470
C103	C	0.637601	-0.654732	0.618548
C104	C	0.637509	-0.654422	0.501245
C105	C	0.637362	-0.514403	0.431560
C106	C	0.637458	-0.514713	0.548862
C107	C	0.153215	-0.006966	0.455158
C108	C	0.035916	-0.007114	0.455550
C109	C	-0.033739	-0.007106	0.595527
C110	C	0.083600	-0.007076	0.595174
C111	C	-0.010020	-0.491238	1.102888
C112	C	-0.009698	-0.608550	1.102828
C113	C	0.130276	-0.678293	1.102853
C114	C	0.129961	-0.560974	1.102892
H115	H	0.018524	-0.494668	0.964293
H116	H	-0.044080	-0.617108	1.102779
C117	C	0.685641	-0.452571	0.348676
C118	C	0.637281	-0.467766	0.373658
H119	H	0.685587	-0.423777	0.312931
H120	H	0.718479	-0.484717	0.343690
H121	H	0.685646	-0.438903	0.372462
H122	H	0.637278	-0.481438	0.349874
H123	H	0.604435	-0.435614	0.378642
C124	C	-0.126683	-0.494546	0.621804
C125	C	-0.091684	-0.549766	0.642040
H126	H	-0.162447	-0.487499	0.650557
H127	H	-0.131629	-0.490295	0.589652
H128	H	-0.109712	-0.468393	0.611489
H129	H	-0.108654	-0.575920	0.652351
H130	H	-0.086740	-0.554022	0.674202
H131	H	0.637450	-0.480310	0.557440
C132	C	-0.071797	-0.408351	1.054501
C133	C	-0.056641	-0.433310	1.102896
H134	H	-0.100576	-0.372588	1.054504
H135	H	-0.085462	-0.432130	1.054495
H136	H	-0.039631	-0.403401	1.021681
H137	H	-0.088806	-0.438265	1.135715
H138	H	-0.042978	-0.409526	1.102907
H139	H	0.164358	-0.552401	1.102897
H140	H	0.027318	-0.007118	0.421162
C141	C	0.190013	-0.746383	1.054439
C142	C	0.176900	-0.736219	1.102840
H143	H	0.218795	-0.782145	1.054434
H144	H	0.202982	-0.717587	1.021627
H145	H	0.157156	-0.746320	1.054438
H146	H	0.209757	-0.736277	1.102839
H147	H	0.163933	-0.765023	1.135661
H148	H	0.637649	-0.689271	0.661445
C149	C	0.253655	-0.054881	0.427321
C150	C	0.211003	-0.006605	0.408412
H151	H	0.289331	-0.054656	0.398463
H152	H	0.246937	-0.087780	0.436122
H153	H	0.253629	-0.054942	0.460196
H154	H	0.211026	-0.006546	0.375539
H155	H	0.217723	0.026302	0.399603
C156	C	0.348914	-0.598220	0.703151
C157	C	0.382958	-0.600445	0.648430
H158	H	0.328822	-0.624050	0.722257
H159	H	0.322788	-0.560970	0.700982
H160	H	0.372050	-0.608141	0.723329
H161	H	0.359822	-0.590520	0.628251
H162	H	0.409088	-0.637703	0.650597
C163	C	0.637599	-0.749438	0.537878
C164	C	0.637529	-0.700874	0.489668
H165	H	0.637615	-0.778115	0.530729
H166	H	0.604793	-0.740651	0.568764
H167	H	0.670444	-0.762488	0.546830
H168	H	0.604682	-0.687821	0.480719
H169	H	0.670338	-0.709661	0.458773
C170	C	-0.011987	-0.440728	0.886913
C171	C	0.043297	-0.449106	0.848371
H172	H	-0.038139	-0.417611	0.866828
H173	H	-0.017661	-0.422641	0.910023
H174	H	-0.017655	-0.476250	0.910022
H175	H	0.048967	-0.413584	0.825264
H176	H	0.048973	-0.467191	0.825252
H177	H	0.092195	-0.007066	0.629560
C178	C	0.260380	-0.600523	0.934096
C179	C	0.205095	-0.592142	0.972636
H180	H	0.286530	-0.623650	0.954183
H181	H	0.266054	-0.565008	0.910994
H182	H	0.266051	-0.618605	0.910979
H183	H	0.199423	-0.574057	0.995751
H184	H	0.199419	-0.627664	0.995748
C185	C	0.260761	-0.580280	0.814184
C186	C	0.246467	-0.550653	0.848255
H187	H	0.300288	-0.589990	0.794068
H188	H	0.240637	-0.557163	0.788076
H189	H	0.251060	-0.613786	0.837305
H190	H	0.256165	-0.517144	0.825134
H191	H	0.266598	-0.573771	0.874366
H192	H	-0.076633	-0.007113	0.630069
H193	H	0.092017	-0.721269	0.629819
H194	H	0.054136	-0.458786	0.651283
H195	H	0.018285	-0.494604	0.615454
C196	C	0.211390	-0.571397	0.360317
C197	C	0.211259	-0.619696	0.408794
H198	H	0.247154	-0.578446	0.331566
H199	H	0.204513	-0.540548	0.369172
H200	H	0.182595	-0.562448	0.347333
H201	H	0.240051	-0.628643	0.421781
H202	H	0.218142	-0.650554	0.399938
H203	H	-0.065911	-0.578960	0.348925
H204	H	0.193817	-0.582360	0.527624
H205	H	0.229667	-0.546519	0.563426
H206	H	0.498884	-0.625426	0.604536
H207	H	0.498841	-0.451490	0.538213
H208	H	0.391352	-0.415667	0.574082
H209	H	0.149834	-0.145702	0.483792
C210	C	0.165739	-0.247320	0.474574
C211	C	0.195411	-0.261641	0.508617
H212	H	0.188842	-0.267420	0.448439
H213	H	0.156008	-0.207793	0.454488
H214	H	0.132249	-0.257043	0.497711
H215	H	0.228900	-0.251913	0.485480
H216	H	0.205150	-0.301176	0.528705
C217	C	0.082146	-0.151631	0.704376
C218	C	0.052471	-0.137305	0.670335
H219	H	0.059042	-0.131539	0.730520
H220	H	0.115630	-0.141905	0.681244
H221	H	0.091881	-0.191164	0.724459
H222	H	0.042739	-0.097772	0.650249
H223	H	0.018976	-0.147027	0.693471
C224	C	0.143420	-0.295716	0.726018
C225	C	0.093996	-0.261671	0.711758
H226	H	0.133748	-0.315813	0.765552
H227	H	0.163512	-0.272582	0.716263
H228	H	0.166514	-0.321847	0.705918
H229	H	0.070903	-0.235536	0.731856
H230	H	0.073894	-0.284806	0.721519
H231	H	0.057785	-0.718806	0.241554
C232	C	-0.092893	-0.502028	0.247202
C233	C	-0.033973	-0.526602	0.232985
H234	H	-0.102567	-0.462499	0.227076
H235	H	-0.109582	-0.508256	0.286722
H236	H	-0.106487	-0.518658	0.237441
H237	H	-0.020379	-0.509975	0.242750
H238	H	-0.017277	-0.520370	0.193457
C239	C	0.059955	-0.800824	0.319006
C240	C	0.025847	-0.771164	0.357496
H241	H	0.069617	-0.840353	0.339132
H242	H	0.093478	-0.791159	0.295958
H243	H	0.039898	-0.791082	0.295831
H244	H	0.045905	-0.780904	0.380669
H245	H	-0.007681	-0.780834	0.380554
C246	C	0.124947	-0.911091	0.496301
C247	C	0.116947	-0.877028	0.443774
H248	H	0.164162	-0.931231	0.490665
H249	H	0.105088	-0.937181	0.515850
H250	H	0.111023	-0.887960	0.518007
H251	H	0.130867	-0.900159	0.422069
H252	H	0.136813	-0.850935	0.424217
H253	H	-0.224058	-0.674545	0.566571
H254	H	-0.065985	-0.578958	0.399332
H255	H	-0.030233	-0.543188	0.435308
H256	H	0.021552	-0.754553	0.487300
C257	C	0.075357	-0.785051	0.541380
C258	C	0.066995	-0.729760	0.532994
H259	H	0.098414	-0.811201	0.564561
H260	H	0.093498	-0.790761	0.505874
H261	H	0.039828	-0.790690	0.559403
H262	H	0.102525	-0.724119	0.514967
H263	H	0.048855	-0.724047	0.568508
H264	H	0.064741	-0.761071	0.410254
C265	C	0.063104	-0.408120	0.393750
C266	C	0.024579	-0.433166	0.408957
H267	H	0.055996	-0.372328	0.365041
H268	H	0.100564	-0.431823	0.379975
H269	H	0.058872	-0.403216	0.425922
H270	H	0.028814	-0.438074	0.376785
H271	H	-0.012890	-0.409457	0.422730
C272	C	-0.111934	-0.862418	0.484233
C273	C	-0.084348	-0.876757	0.520211
H274	H	-0.137816	-0.882453	0.503344
H275	H	-0.084799	-0.872204	0.451349
H276	H	-0.131902	-0.822873	0.473614
H277	H	-0.064376	-0.916302	0.530826
H278	H	-0.111486	-0.866975	0.553105
C279	C	-0.133649	-0.718334	0.426093
C280	C	-0.125662	-0.752397	0.478626
H281	H	-0.172862	-0.698181	0.431721
H282	H	-0.119732	-0.741462	0.404392
H283	H	-0.113778	-0.692251	0.406544
H284	H	-0.145531	-0.778483	0.498173
H285	H	-0.139587	-0.729267	0.500336
H286	H	-0.223743	-0.586821	0.390905
C287	C	-0.146740	-0.728549	0.597189
C288	C	-0.108148	-0.720217	0.541927
H289	H	-0.126695	-0.751676	0.623376
H290	H	-0.169852	-0.746605	0.602825
H291	H	-0.169841	-0.693014	0.602845
H292	H	-0.085050	-0.755752	0.536270
H293	H	-0.085027	-0.702162	0.536289
H294	H	-0.116252	-0.622767	0.355267
