data_functionalizedCrystal
_audit_creation_method	'MofGen! by Chris Wilmer'
_symmetry_space_group_name_H-M	'P1'
_symmetry_Int_Tables_number	1
_symmetry_cell_setting	triclinic
loop_
_symmetry_equiv_pos_as_xyz
  x,y,z
_cell_length_a	18.627264
_cell_length_b	18.627226
_cell_length_c	18.627284
_cell_angle_alpha	90.004730
_cell_angle_beta	120.003452
_cell_angle_gamma	59.999880
loop_
_atom_site_label
_atom_site_type_symbol
_atom_site_fract_x
_atom_site_fract_y
_atom_site_fract_z
O1	O	0.513849	0.611879	0.021374
O2	O	0.366838	0.507484	-0.021241
O3	O	0.513846	0.507483	0.125766
O4	O	0.366841	0.611880	-0.125633
O5	O	0.633245	0.388082	0.125760
O6	O	0.486237	0.388084	-0.021247
O7	O	0.633247	0.492479	0.021368
Cu8	Cu	0.570644	0.429379	0.000060
Cu9	Cu	0.429442	0.570584	0.000067
O10	O	0.486239	0.492480	-0.125639
C11	C	0.644057	0.742977	0.031086
C12	C	0.593664	0.837672	0.024996
C13	C	0.731063	0.699375	0.031693
C14	C	0.644050	0.612979	0.031075
C15	C	0.593650	0.568680	0.024972
C16	C	0.731056	0.569575	0.031681
C17	C	0.774054	0.612978	0.031080
C18	C	0.862654	0.568678	0.024982
C19	C	0.601257	0.699376	0.031688
C20	C	0.356050	0.612986	-0.256931
C21	C	0.406442	0.568683	-0.162237
C22	C	0.398846	0.569583	-0.300534
C23	C	0.226061	0.742990	-0.386921
C24	C	0.137467	0.837687	-0.431214
C25	C	0.269054	0.699389	-0.430327
C26	C	0.356054	0.612989	-0.386929
C27	C	0.406451	0.568689	-0.431230
C28	C	0.269050	0.699386	-0.300526
C29	C	0.356051	0.256975	-0.030919
C30	C	0.406453	0.162275	-0.024813
C31	C	0.398846	0.300577	-0.031531
C32	C	0.226042	0.386981	-0.030933
C33	C	0.137437	0.431286	-0.024842
C34	C	0.269034	0.430386	-0.031545
C35	C	0.356044	0.386979	-0.030933
C36	C	0.406438	0.431281	-0.024841
C37	C	0.269041	0.300579	-0.031532
O38	O	1.104429	0.388090	-0.021251
O39	O	0.895654	0.492477	0.021378
O40	O	0.895627	0.492489	-0.125635
O41	O	1.104456	0.388078	0.125762
O42	O	0.895634	0.611888	-0.125624
O43	O	0.895661	0.611876	0.021389
O44	O	1.104436	0.507488	-0.021239
Cu45	Cu	1.000049	0.570584	0.000076
Cu46	Cu	1.000041	0.429381	0.000062
O47	O	1.104463	0.507477	0.125773
O48	O	0.486252	1.125674	-0.021218
O49	O	0.633261	0.874275	0.021393
O50	O	0.486247	1.021261	-0.125613
O51	O	0.633267	0.978689	0.125788
O52	O	0.366854	1.021257	-0.125598
O53	O	0.513868	0.874271	0.021407
O54	O	0.366859	1.125670	-0.021203
Cu55	Cu	0.429462	0.999970	0.000103
Cu56	Cu	0.570658	0.999975	0.000086
O57	O	0.513874	0.978685	0.125802
O58	O	-0.104313	1.125687	-0.492392
O59	O	0.104464	0.874289	-0.388013
O60	O	0.104489	1.021276	-0.387984
O61	O	-0.104338	0.978700	-0.492421
O62	O	0.104495	1.021277	-0.507383
O63	O	0.104470	0.874290	-0.507412
O64	O	-0.104307	1.125688	-0.611791
Cu65	Cu	0.000082	0.999989	-0.570504
Cu66	Cu	0.000075	0.999988	-0.429300
O67	O	-0.104332	0.978701	-0.611820
O68	O	0.513855	0.507492	-0.611829
O69	O	0.366855	0.611891	-0.507428
O70	O	0.513870	0.611880	-0.507407
O71	O	0.366839	0.507503	-0.611849
O72	O	0.633263	0.492474	-0.388016
O73	O	0.486247	0.492485	-0.388036
O74	O	0.633247	0.388087	-0.492437
Cu75	Cu	0.570649	0.429383	-0.429335
Cu76	Cu	0.429453	0.570594	-0.570530
O77	O	0.486232	0.388097	-0.492457
C78	C	0.774043	0.256987	0.387059
C79	C	0.862642	0.162291	0.431356
C80	C	0.731051	0.300589	0.430465
C81	C	0.644044	0.386984	0.257062
C82	C	0.593646	0.431282	0.162365
C83	C	0.601248	0.430389	0.300665
C84	C	0.644046	0.386987	0.387063
C85	C	0.593650	0.431288	0.431365
C86	C	0.731049	0.300586	0.300661
C87	C	0.643983	0.743008	-0.386908
C88	C	0.593586	0.837705	-0.431198
C89	C	0.601172	0.699413	-0.430315
C90	C	0.774001	0.613001	-0.256922
C91	C	0.862620	0.568693	-0.162230
C92	C	0.730993	0.569603	-0.300526
C93	C	0.643971	0.613014	-0.386919
C94	C	0.593560	0.568720	-0.431221
C95	C	0.731005	0.699400	-0.300515
C96	C	1.356115	0.386955	0.387059
C97	C	1.406521	0.431252	0.431362
C98	C	1.398918	0.300554	0.430454
C99	C	1.226089	0.386965	0.257060
C100	C	1.137470	0.431273	0.162368
C101	C	1.269089	0.300564	0.300652
C102	C	1.356111	0.256956	0.387045
C103	C	1.406512	0.162257	0.431334
C104	C	1.269093	0.430366	0.300666
C105	C	0.226041	1.030923	-0.386898
C106	C	0.137442	1.024819	-0.431191
C107	C	0.269029	1.031527	-0.430309
C108	C	0.356045	1.030939	-0.256904
C109	C	0.406448	1.024853	-0.162207
C110	C	0.398835	1.031544	-0.300512
C111	C	0.356033	1.030926	-0.386911
C112	C	0.406423	1.024827	-0.431217
C113	C	0.269040	1.031540	-0.300500
O114	O	0.366773	1.125709	-0.611767
O115	O	0.513772	0.874312	-0.507394
O116	O	0.366800	1.021301	-0.507356
O117	O	0.513745	0.978719	-0.611805
O118	O	0.486228	1.021292	-0.387958
O119	O	0.633200	0.874303	-0.387997
O120	O	0.486200	1.125700	-0.492369
Cu121	Cu	0.570605	1.000001	-0.429281
Cu122	Cu	0.429368	1.000011	-0.570483
O123	O	0.633172	0.978711	-0.492408
C124	C	0.644090	0.969019	0.387101
C125	C	0.593700	0.975119	0.431408
C126	C	0.731094	0.968419	0.430498
C127	C	0.644077	0.969006	0.257094
C128	C	0.593673	0.975092	0.162397
C129	C	0.731081	0.968406	0.300689
C130	C	0.774081	0.969023	0.387087
C131	C	0.862680	0.975127	0.431379
C132	C	0.601287	0.968402	0.300702
H133	H	0.531241	0.734387	0.032660
O134	O	1.482350	0.258795	0.515187
C135	C	1.554344	0.187036	0.664601
C136	C	1.459782	0.234333	0.568686
H137	H	1.536137	0.167228	0.707880
H138	H	1.577715	0.233035	0.688346
H139	H	1.619216	0.125770	0.668572
H140	H	1.394846	0.295596	0.564641
H141	H	1.436498	0.188274	0.544983
O142	O	1.226016	0.258891	0.258912
C143	C	1.076833	0.258652	0.187203
C144	C	1.125490	0.305925	0.234468
H145	H	0.995543	0.296669	0.167410
H146	H	1.122470	0.189294	0.233219
H147	H	1.076448	0.255025	0.125928
H148	H	1.125884	0.309617	0.295740
H149	H	1.079838	0.375257	0.188391
O150	O	0.773970	0.258931	0.258861
C151	C	0.851817	0.258555	0.187249
C152	C	0.803206	0.305843	0.234542
H153	H	0.875487	0.296454	0.167591
H154	H	0.794558	0.254982	0.125910
H155	H	0.921464	0.189175	0.233295
H156	H	0.733567	0.375245	0.188566
H157	H	0.860530	0.309346	0.295892
O158	O	0.774006	0.741167	0.033001
C159	C	0.851852	0.812760	0.110557
C160	C	0.803205	0.765479	0.109162
H161	H	0.875493	0.832413	0.172136
H162	H	0.794626	0.874098	0.049739
H163	H	0.921523	0.766708	0.110854
H164	H	0.733544	0.811461	0.108895
H165	H	0.860497	0.704130	0.169976
O166	O	0.517510	0.741263	-0.514940
C167	C	0.342682	0.864384	-0.615664
C168	C	0.437354	0.817075	-0.519801
H169	H	0.277858	0.925697	-0.619629
H170	H	0.319268	0.818396	-0.639337
H171	H	0.360864	0.884111	-0.659011
H172	H	0.419250	0.797343	-0.476387
H173	H	0.460744	0.863092	-0.496199
H174	H	0.233105	1.032450	-0.265469
H175	H	0.233073	0.734401	-0.501312
O176	O	0.773775	0.484963	-0.258766
C177	C	0.751407	0.384169	-0.207145
C178	C	0.702846	0.480056	-0.254427
H179	H	0.694076	0.380167	-0.203638
H180	H	0.821087	0.360460	-0.137744
H181	H	0.774993	0.340880	-0.245107
H182	H	0.679197	0.523413	-0.216538
H183	H	0.633209	0.503694	-0.323833
H184	H	0.767064	0.967413	0.265678
H185	H	0.767039	0.265582	0.501454
H186	H	0.468852	0.265570	-0.032517
O187	O	0.226034	0.258854	-0.032834
C188	C	0.148314	0.187121	-0.110233
C189	C	0.196985	0.234362	-0.108889
H190	H	0.124834	0.167289	-0.171708
H191	H	0.078573	0.233167	-0.110623
H192	H	0.205579	0.125874	-0.049320
H193	H	0.139798	0.295606	-0.169791
H194	H	0.266745	0.188256	-0.108454
O195	O	0.226022	1.032825	-0.515042
C196	C	0.148284	1.110231	-0.664489
C197	C	0.196948	1.108891	-0.568576
H198	H	0.124783	1.171715	-0.707795
H199	H	0.078555	1.110595	-0.688186
H200	H	0.205559	1.049330	-0.668478
H201	H	0.139749	1.169780	-0.564512
H202	H	0.266694	1.108481	-0.544921
H203	H	0.767071	0.967462	0.501483
H204	H	0.233040	0.501379	-0.032534
O205	O	0.482255	0.484843	-0.258764
C206	C	0.554074	0.335417	-0.187237
C207	C	0.459570	0.431355	-0.234483
H208	H	0.535760	0.292141	-0.167609
H209	H	0.619034	0.331267	-0.125884
H210	H	0.577376	0.311809	-0.233304
H211	H	0.436177	0.455023	-0.188487
H212	H	0.394669	0.435450	-0.295848
H213	H	0.531275	0.967422	0.265705
O214	O	0.773888	0.741163	-0.258655
C215	C	0.823102	0.792762	-0.135467
C216	C	0.774493	0.745477	-0.182799
H217	H	0.823627	0.796248	-0.074119
H218	H	0.777397	0.862168	-0.181422
H219	H	0.904342	0.754815	-0.115790
H220	H	0.693259	0.783350	-0.202480
H221	H	0.820274	0.676066	-0.136815
O222	O	0.226047	0.741073	-0.258792
C223	C	0.148333	0.741352	-0.187077
C224	C	0.196995	0.694056	-0.234334
H225	H	0.124850	0.703348	-0.167273
H226	H	0.078594	0.810709	-0.233103
H227	H	0.205604	0.744985	-0.125810
H228	H	0.139801	0.690357	-0.295598
H229	H	0.266752	0.624726	-0.188248
O230	O	1.226087	0.515105	0.258995
C231	C	1.148411	0.664519	0.258772
C232	C	1.197075	0.568596	0.306046
H233	H	1.124960	0.707790	0.296803
H234	H	1.078651	0.688246	0.189419
H235	H	1.205668	0.668520	0.255126
H236	H	1.139894	0.564521	0.309759
H237	H	1.266853	0.544911	0.375372
H238	H	0.468846	1.032526	-0.265508
H239	H	0.767030	0.498589	0.032649
H240	H	0.531229	0.501373	0.265654
