data_functionalizedCrystal
_audit_creation_method	'MofGen! by Chris Wilmer'
_symmetry_space_group_name_H-M	'P1'
_symmetry_Int_Tables_number	1
_symmetry_cell_setting	triclinic
loop_
_symmetry_equiv_pos_as_xyz
  x,y,z
_cell_length_a	14.044220
_cell_length_b	10.723024
_cell_length_c	9.198806
_cell_angle_alpha	90.002012
_cell_angle_beta	90.000900
_cell_angle_gamma	91.171626
loop_
_atom_site_label
_atom_site_type_symbol
_atom_site_fract_x
_atom_site_fract_y
_atom_site_fract_z
O1	O	1.259664	-0.301050	-0.120731
O2	O	1.759664	0.198950	0.379269
O3	O	0.983624	-0.290186	-0.120768
O4	O	1.483624	0.209814	0.379232
O5	O	1.128011	-0.114679	-0.120743
O6	O	1.628011	0.385321	0.379257
O7	O	1.115277	-0.476557	-0.120756
O8	O	1.615277	0.023443	0.379244
O9	O	1.128000	-0.114677	0.121042
O10	O	1.628000	0.385323	0.621042
O11	O	0.983612	-0.290184	0.121017
O12	O	1.483612	0.209816	0.621017
O13	O	1.259652	-0.301048	0.121054
O14	O	1.759652	0.198952	0.621054
Cu15	Cu	1.121631	-0.295616	0.143112
Cu16	Cu	1.621631	0.204384	0.643112
Cu17	Cu	1.121645	-0.295618	-0.142826
Cu18	Cu	1.621645	0.204382	0.357174
O19	O	1.115265	-0.476555	0.121029
O20	O	1.615265	0.023445	0.621029
C21	C	0.948273	-0.285430	0.000120
C22	C	1.448273	0.214570	0.500120
C23	C	0.842955	-0.271245	0.000106
C24	C	1.342955	0.228755	0.500106
N25	N	1.121629	-0.295615	0.344226
N26	N	1.621629	0.204385	0.844226
C27	C	1.127079	-0.068086	0.000147
C28	C	1.627079	0.431914	0.500147
C29	C	1.124306	0.070746	0.000142
C30	C	1.624306	0.570746	0.500142
C31	C	0.650125	-0.245313	0.000135
C32	C	1.150125	0.254687	0.500135
C33	C	0.593146	-0.345915	0.000138
C34	C	1.093146	0.154085	0.500138
C35	C	0.485848	-0.331486	0.000155
C36	C	0.985848	0.168514	0.500155
C37	C	0.757432	-0.259740	0.000119
C38	C	1.257432	0.240260	0.500119
C39	C	1.295003	-0.305804	0.000163
C40	C	1.795003	0.194196	0.500163
C41	C	1.400321	-0.319989	0.000168
C42	C	1.900321	0.180011	0.500168
C43	C	1.116197	-0.523149	0.000135
C44	C	1.616197	-0.023149	0.500135
C45	C	1.118970	-0.661980	0.000131
C46	C	1.618970	-0.161980	0.500131
C47	C	1.205097	0.137646	0.000151
C48	C	1.705097	0.637646	0.500151
C49	C	1.202234	0.281136	0.000145
C50	C	1.702234	0.781136	0.500145
N51	N	1.121655	-0.295610	-0.343940
N52	N	1.621655	0.204390	0.156060
C53	C	1.182253	-0.221572	0.416434
C54	C	1.682253	0.278428	0.916434
C55	C	1.182267	-0.221570	0.583846
C56	C	1.682267	0.278430	1.083846
H57	H	0.624947	-0.442880	0.000128
H58	H	1.124947	0.057120	0.500128
Br59	Br	1.268788	-0.115919	0.687334
Br60	Br	1.768788	0.384081	1.187334
H61	H	0.618325	-0.148357	0.000147
H62	H	1.118325	0.351643	0.500147
Br63	Br	1.035126	-0.401261	0.447750
Br64	Br	1.535126	0.098739	0.947750
Br65	Br	1.005479	0.152326	0.000105
Br66	Br	1.505479	0.652326	0.500105
H67	H	1.276386	0.088691	0.000169
H68	H	1.776386	0.588691	0.500169
Br69	Br	1.317519	0.376986	0.000175
Br70	Br	1.817519	0.876986	0.500175
H71	H	1.049803	0.280515	0.000134
H72	H	1.549803	0.780515	0.500134
Br73	Br	1.268505	-0.115575	0.312911
Br74	Br	1.768505	0.384425	0.812911
H75	H	1.069753	-0.359009	0.593974
H76	H	1.569753	0.140991	1.093974
