data_functionalizedCrystal
_audit_creation_method	'MofGen! by Chris Wilmer'
_symmetry_space_group_name_H-M	'P1'
_symmetry_Int_Tables_number	1
_symmetry_cell_setting	triclinic
loop_
_symmetry_equiv_pos_as_xyz
  x,y,z
_cell_length_a	18.101398
_cell_length_b	29.839131
_cell_length_c	18.101390
_cell_angle_alpha	89.956564
_cell_angle_beta	89.974845
_cell_angle_gamma	90.032958
loop_
_atom_site_label
_atom_site_type_symbol
_atom_site_fract_x
_atom_site_fract_y
_atom_site_fract_z
Zn1	Zn	1.132102	-0.178863	-0.418794
Zn2	Zn	1.382102	0.071137	-0.168794
Zn3	Zn	1.632102	0.321137	0.081206
Zn4	Zn	1.882102	0.571137	0.331206
Zn5	Zn	1.131989	-0.253999	-0.294930
Zn6	Zn	1.381989	-0.003999	-0.044930
Zn7	Zn	1.631989	0.246001	0.205070
Zn8	Zn	1.881989	0.496001	0.455070
Zn9	Zn	1.008261	-0.178881	-0.294954
Zn10	Zn	1.258261	0.071119	-0.044954
Zn11	Zn	1.508261	0.321119	0.205046
Zn12	Zn	1.758261	0.571119	0.455046
Zn13	Zn	1.008203	-0.253964	-0.418717
Zn14	Zn	1.258203	-0.003964	-0.168717
Zn15	Zn	1.508203	0.246036	0.081283
Zn16	Zn	1.758203	0.496036	0.331283
O17	O	1.070139	-0.216427	-0.356849
O18	O	1.320139	0.033573	-0.106849
O19	O	1.570139	0.283573	0.143151
O20	O	1.820139	0.533573	0.393151
O21	O	1.235720	-0.188838	-0.402385
O22	O	1.485720	0.061162	-0.152385
O23	O	1.735720	0.311162	0.097615
O24	O	1.985720	0.561162	0.347615
O25	O	1.115552	-0.244057	-0.191300
O26	O	1.365552	0.005943	0.058700
O27	O	1.615552	0.255943	0.308700
O28	O	1.865552	0.505943	0.558700
O29	O	1.024760	-0.116011	-0.311424
O30	O	1.274760	0.133989	-0.061424
O31	O	1.524760	0.383989	0.188576
O32	O	1.774760	0.633989	0.438576
O33	O	1.235637	-0.244039	-0.311382
O34	O	1.485637	0.005961	-0.061382
O35	O	1.735637	0.255961	0.188618
O36	O	1.985637	0.505961	0.438618
O37	O	1.115746	-0.115999	-0.402409
O38	O	1.365746	0.134001	-0.152409
O39	O	1.615746	0.384001	0.097591
O40	O	1.865746	0.634001	0.347591
O41	O	1.024650	-0.188868	-0.191318
O42	O	1.274650	0.061132	0.058682
O43	O	1.524650	0.311132	0.308682
O44	O	1.774650	0.561132	0.558682
O45	O	0.904620	-0.188834	-0.311350
O46	O	1.154620	0.061166	-0.061350
O47	O	1.404620	0.311166	0.188650
O48	O	1.654620	0.561166	0.438650
O49	O	1.024662	-0.243980	-0.522360
O50	O	1.274662	0.006020	-0.272360
O51	O	1.524662	0.256020	-0.022360
O52	O	1.774662	0.506020	0.227640
O53	O	0.904578	-0.243997	-0.402278
O54	O	1.154578	0.006003	-0.152278
O55	O	1.404578	0.256003	0.097722
O56	O	1.654578	0.506003	0.347722
O57	O	1.115691	-0.188804	-0.522417
O58	O	1.365691	0.061196	-0.272417
O59	O	1.615691	0.311196	-0.022417
O60	O	1.865691	0.561196	0.227583
O61	O	1.115497	-0.316862	-0.311308
O62	O	1.365497	-0.066862	-0.061308
O63	O	1.615497	0.183138	0.188692
O64	O	1.865497	0.433138	0.438692
O65	O	1.024552	-0.316836	-0.402254
O66	O	1.274552	-0.066836	-0.152254
O67	O	1.524552	0.183164	0.097746
O68	O	1.774552	0.433164	0.347746
C69	C	0.877728	-0.216414	-0.356809
C70	C	1.127728	0.033586	-0.106809
C71	C	1.377728	0.283586	0.143191
C72	C	1.627728	0.533586	0.393191
C73	C	0.795414	-0.216419	-0.356809
C74	C	1.045414	0.033581	-0.106809
C75	C	1.295414	0.283581	0.143191
C76	C	1.545414	0.533581	0.393191
C77	C	0.644706	-0.216428	-0.356842
C78	C	0.894706	0.033572	-0.106842
C79	C	1.144706	0.283572	0.143158
C80	C	1.394706	0.533572	0.393158
C81	C	0.613354	-0.181671	-0.299728
C82	C	0.863354	0.068329	-0.049728
C83	C	1.113354	0.318329	0.200272
C84	C	1.363354	0.568329	0.450272
C85	C	0.527736	-0.181540	-0.299915
C86	C	0.777736	0.068460	-0.049915
C87	C	1.027736	0.318460	0.200085
C88	C	1.277736	0.568460	0.450085
C89	C	0.496323	-0.216437	-0.356874
C90	C	0.746323	0.033563	-0.106874
C91	C	0.996323	0.283563	0.143126
C92	C	1.246323	0.533563	0.393126
C93	C	0.527465	-0.203795	-0.435013
C94	C	0.777465	0.046205	-0.185013
C95	C	1.027465	0.296205	0.064987
C96	C	1.277465	0.546205	0.314987
C97	C	0.613110	-0.203538	-0.434664
C98	C	0.863110	0.046462	-0.184664
C99	C	1.113110	0.296462	0.065336
C100	C	1.363110	0.546462	0.315336
C101	C	0.613096	-0.263916	-0.336506
C102	C	0.863096	-0.013916	-0.086506
C103	C	1.113096	0.236084	0.163494
C104	C	1.363096	0.486084	0.413494
C105	C	0.527445	-0.263666	-0.334804
C106	C	0.777445	-0.013666	-0.084804
C107	C	1.027445	0.236334	0.165196
C108	C	1.277445	0.486334	0.415196
C109	C	0.412464	-0.216443	-0.356896
C110	C	0.662464	0.033557	-0.106896
C111	C	0.912464	0.283557	0.143104
C112	C	1.162464	0.533557	0.393104
C113	C	0.728565	-0.216421	-0.356825
C114	C	0.978565	0.033579	-0.106825
C115	C	1.228565	0.283579	0.143175
C116	C	1.478565	0.533579	0.393175
C117	C	1.070026	-0.333149	-0.356786
C118	C	1.320026	-0.083149	-0.106786
C119	C	1.570026	0.166851	0.143214
C120	C	1.820026	0.416851	0.393214
C121	C	1.070045	-0.383084	-0.356784
C122	C	1.320045	-0.133084	-0.106784
C123	C	1.570045	0.116916	0.143216
C124	C	1.820045	0.366916	0.393216
C125	C	1.117505	-0.692686	-0.404292
C126	C	1.367505	-0.442686	-0.154292
C127	C	1.617505	-0.192686	0.095708
C128	C	1.867505	0.057314	0.345708
C129	C	1.117585	-0.880359	-0.404336
C130	C	1.367585	-0.630359	-0.154336
C131	C	1.617585	-0.380359	0.095664
C132	C	1.867585	-0.130359	0.345664
O133	O	1.157826	-0.904588	-0.444683
O134	O	1.407826	-0.654588	-0.194683
O135	O	1.657826	-0.404588	0.055317
O136	O	1.907826	-0.154588	0.305317
N137	N	1.070264	-0.903869	-0.356931
N138	N	1.320264	-0.653869	-0.106931
N139	N	1.570264	-0.403869	0.143069
N140	N	1.820264	-0.153869	0.393069
C141	C	1.022917	-0.880458	-0.309514
C142	C	1.272917	-0.630458	-0.059514
C143	C	1.522917	-0.380458	0.190486
C144	C	1.772917	-0.130458	0.440486
O145	O	0.982664	-0.904761	-0.269199
O146	O	1.232664	-0.654761	-0.019199
O147	O	1.482664	-0.404761	0.230801
O148	O	1.732664	-0.154761	0.480801
C149	C	1.022833	-0.692786	-0.309474
C150	C	1.272833	-0.442786	-0.059474
C151	C	1.522833	-0.192786	0.190526
C152	C	1.772833	0.057214	0.440526
C153	C	1.070162	-0.669278	-0.356877
C154	C	1.320162	-0.419278	-0.106877
C155	C	1.570162	-0.169278	0.143123
C156	C	1.820162	0.080722	0.393123
C157	C	1.164829	-0.669178	-0.451692
C158	C	1.414829	-0.419178	-0.201692
C159	C	1.664829	-0.169178	0.048308
C160	C	1.914829	0.080822	0.298308
C161	C	1.164812	-0.622262	-0.451678
C162	C	1.414812	-0.372262	-0.201678
C163	C	1.664812	-0.122262	0.048322
C164	C	1.914812	0.127738	0.298322
C165	C	1.117469	-0.598855	-0.404263
C166	C	1.367469	-0.348855	-0.154263
C167	C	1.617469	-0.098855	0.095737
C168	C	1.867469	0.151145	0.345737
C169	C	1.070145	-0.622363	-0.356863
C170	C	1.320145	-0.372363	-0.106863
C171	C	1.570145	-0.122363	0.143137
C172	C	1.820145	0.127637	0.393137
C173	C	0.975482	-0.669376	-0.262062
C174	C	1.225482	-0.419376	-0.012062
C175	C	1.475482	-0.169376	0.237938
C176	C	1.725482	0.080624	0.487938
C177	C	0.975464	-0.622455	-0.262057
C178	C	1.225464	-0.372455	-0.012057
C179	C	1.475464	-0.122455	0.237943
C180	C	1.725464	0.127545	0.487943
C181	C	1.022794	-0.598947	-0.309461
C182	C	1.272794	-0.348947	-0.059461
C183	C	1.522794	-0.098947	0.190539
C184	C	1.772794	0.151053	0.440539
C185	C	1.022785	-0.552040	-0.309434
C186	C	1.272785	-0.302040	-0.059434
C187	C	1.522785	-0.052040	0.190566
C188	C	1.772785	0.197960	0.440566
N189	N	1.070105	-0.528529	-0.356840
N190	N	1.320105	-0.278529	-0.106840
N191	N	1.570105	-0.028529	0.143160
N192	N	1.820105	0.221471	0.393160
C193	C	1.117448	-0.551937	-0.404254
C194	C	1.367448	-0.301937	-0.154254
C195	C	1.617448	-0.051937	0.095746
C196	C	1.867448	0.198063	0.345746
C197	C	1.022965	-0.978989	-0.309538
C198	C	1.272965	-0.728989	-0.059538
C199	C	1.522965	-0.478989	0.190462
C200	C	1.772965	-0.228989	0.440462
C201	C	1.022987	-1.025906	-0.309547
C202	C	1.272987	-0.775906	-0.059547
C203	C	1.522987	-0.525906	0.190453
C204	C	1.772987	-0.275906	0.440453
C205	C	1.117654	-1.025804	-0.404370
C206	C	1.367654	-0.775804	-0.154370
C207	C	1.617654	-0.525804	0.095630
C208	C	1.867654	-0.275804	0.345630
C209	C	1.117636	-0.978885	-0.404357
C210	C	1.367636	-0.728885	-0.154357
C211	C	1.617636	-0.478885	0.095643
C212	C	1.867636	-0.228885	0.345643
C213	C	1.070286	-0.955478	-0.356943
C214	C	1.320286	-0.705478	-0.106943
C215	C	1.570286	-0.455478	0.143057
C216	C	1.820286	-0.205478	0.393057
C217	C	1.117407	-0.453411	-0.404220
C218	C	1.367407	-0.203411	-0.154220
C219	C	1.617407	0.046589	0.095780
C220	C	1.867407	0.296589	0.345780
C221	C	1.117388	-0.406491	-0.404199
C222	C	1.367388	-0.156491	-0.154199
C223	C	1.617388	0.093509	0.095801
C224	C	1.867388	0.343509	0.345801
C225	C	1.022718	-0.406598	-0.309379
C226	C	1.272718	-0.156598	-0.059379
C227	C	1.522718	0.093402	0.190621
C228	C	1.772718	0.343402	0.440621
C229	C	1.022740	-0.453514	-0.309396
C230	C	1.272740	-0.203514	-0.059396
C231	C	1.522740	0.046486	0.190604
C232	C	1.772740	0.296486	0.440604
C233	C	1.070087	-0.476919	-0.356823
C234	C	1.320087	-0.226919	-0.106823
C235	C	1.570087	0.023081	0.143177
C236	C	1.820087	0.273081	0.393177
O237	O	0.982559	-0.527781	-0.269115
O238	O	1.232559	-0.277781	-0.019115
O239	O	1.482559	-0.027781	0.230885
O240	O	1.732559	0.222219	0.480885
O241	O	1.157683	-0.527626	-0.444575
O242	O	1.407683	-0.277626	-0.194575
O243	O	1.657683	-0.027626	0.055425
O244	O	1.907683	0.222374	0.305425
C245	C	1.117523	-0.739601	-0.404306
C246	C	1.367523	-0.489601	-0.154306
C247	C	1.617523	-0.239601	0.095694
C248	C	1.867523	0.010399	0.345694
C249	C	1.070198	-0.763109	-0.356906
C250	C	1.320198	-0.513109	-0.106906
C251	C	1.570198	-0.263109	0.143094
C252	C	1.820198	-0.013109	0.393094
C253	C	1.022855	-0.739701	-0.309492
C254	C	1.272855	-0.489701	-0.059492
C255	C	1.522855	-0.239701	0.190508
C256	C	1.772855	0.010299	0.440508
C257	C	1.070220	-0.810027	-0.356915
C258	C	1.320220	-0.560027	-0.106915
C259	C	1.570220	-0.310027	0.143085
C260	C	1.820220	-0.060027	0.393085
C261	C	1.117562	-0.833434	-0.404330
C262	C	1.367562	-0.583434	-0.154330
C263	C	1.617562	-0.333434	0.095670
C264	C	1.867562	-0.083434	0.345670
C265	C	1.164883	-0.809924	-0.451735
C266	C	1.414883	-0.559924	-0.201735
C267	C	1.664883	-0.309924	0.048265
C268	C	1.914883	-0.059924	0.298265
C269	C	1.164865	-0.763009	-0.451721
C270	C	1.414865	-0.513009	-0.201721
C271	C	1.664865	-0.263009	0.048279
C272	C	1.914865	-0.013009	0.298279
C273	C	0.975535	-0.763212	-0.262086
C274	C	1.225535	-0.513212	-0.012086
C275	C	1.475535	-0.263212	0.237914
C276	C	1.725535	-0.013212	0.487914
C277	C	0.975557	-0.810127	-0.262104
C278	C	1.225557	-0.560127	-0.012104
C279	C	1.475557	-0.310127	0.237896
C280	C	1.725557	-0.060127	0.487896
C281	C	1.022899	-0.833535	-0.309519
C282	C	1.272899	-0.583535	-0.059519
C283	C	1.522899	-0.333535	0.190481
C284	C	1.772899	-0.083535	0.440481
C285	C	1.263301	-0.216440	-0.356890
C286	C	1.513301	0.033560	-0.106890
C287	C	1.763301	0.283560	0.143110
C288	C	2.013301	0.533560	0.393110
C289	C	1.345615	-0.216446	-0.356907
C290	C	1.595615	0.033554	-0.106907
C291	C	1.845615	0.283554	0.143093
C292	C	2.095615	0.533554	0.393093
C293	C	1.070183	-0.216386	-0.550011
C294	C	1.320183	0.033614	-0.300011
C295	C	1.570183	0.283614	-0.050011
C296	C	1.820183	0.533614	0.199989
C297	C	1.070201	-0.216368	-0.632325
C298	C	1.320201	0.033632	-0.382325
C299	C	1.570201	0.283632	-0.132325
C300	C	1.820201	0.533632	0.117675
C301	C	1.070272	-0.099248	-0.356928
C302	C	1.320272	0.150752	-0.106928
C303	C	1.570272	0.400752	0.143072
C304	C	1.820272	0.650752	0.393072
C305	C	1.070329	-0.049314	-0.356961
C306	C	1.320329	0.200686	-0.106961
C307	C	1.570329	0.450686	0.143039
C308	C	1.820329	0.700686	0.393039
C309	C	1.070241	-0.216340	-0.931416
C310	C	1.320241	0.033660	-0.681416
C311	C	1.570241	0.283660	-0.431416
C312	C	1.820241	0.533660	-0.181416
C313	C	1.127702	-0.181747	-0.900126
C314	C	1.377702	0.068253	-0.650126
C315	C	1.627702	0.318253	-0.400126
C316	C	1.877702	0.568253	-0.150126
C317	C	1.127523	-0.181619	-0.814508
C318	C	1.377523	0.068381	-0.564508
C319	C	1.627523	0.318381	-0.314508
C320	C	1.877523	0.568381	-0.064508
C321	C	1.070222	-0.216354	-0.783033
C322	C	1.320222	0.033646	-0.533033
C323	C	1.570222	0.283646	-0.283033
C324	C	1.820222	0.533646	-0.033033
C325	C	0.992207	-0.203490	-0.814103
C326	C	1.242207	0.046510	-0.564103
C327	C	1.492207	0.296510	-0.314103
C328	C	1.742207	0.546510	-0.064103
C329	C	0.992551	-0.203230	-0.899749
C330	C	1.242551	0.046770	-0.649749
C331	C	1.492551	0.296770	-0.399749
C332	C	1.742551	0.546770	-0.149749
C333	C	1.090108	-0.263887	-0.899816
C334	C	1.340108	-0.013887	-0.649816
C335	C	1.590108	0.236113	-0.399816
C336	C	1.840108	0.486113	-0.149816
C337	C	1.091821	-0.263645	-0.814166
C338	C	1.341821	-0.013645	-0.564166
C339	C	1.591821	0.236355	-0.314166
C340	C	1.841821	0.486355	-0.064166
C341	C	1.070207	-0.216363	-0.699174
C342	C	1.320207	0.033637	-0.449174
C343	C	1.570207	0.283637	-0.199174
C344	C	1.820207	0.533637	0.050826
C345	C	1.070252	-0.216331	-1.015276
C346	C	1.320252	0.033669	-0.765276
C347	C	1.570252	0.283669	-0.515276
C348	C	1.820252	0.533669	-0.265276
C349	C	1.070137	-0.216435	-0.164438
C350	C	1.320137	0.033565	0.085562
C351	C	1.570137	0.283565	0.335562
C352	C	1.820137	0.533565	0.585562
C353	C	1.070262	-0.216326	-0.082125
C354	C	1.320262	0.033674	0.167875
C355	C	1.570262	0.283674	0.417875
C356	C	1.820262	0.533674	0.667875
H357	H	0.506677	-0.189428	-0.241986
H358	H	0.756677	0.060572	0.008014
H359	H	1.006677	0.310572	0.258014
H360	H	1.256677	0.560572	0.508014
F361	F	0.972376	-0.478533	-0.258936
F362	F	1.222376	-0.228533	-0.008936
F363	F	1.472376	0.021467	0.241064
F364	F	1.722376	0.271467	0.491064
H365	H	0.984455	-1.045043	-0.270938
H366	H	1.234455	-0.795043	-0.020938
H367	H	1.484455	-0.545043	0.229062
H368	H	1.734455	-0.295043	0.479062
F369	F	1.168009	-0.953871	-0.454810
F370	F	1.418009	-0.703871	-0.204810
F371	F	1.668009	-0.453871	0.045190
F372	F	1.918009	-0.203871	0.295190
H373	H	1.155931	-0.387353	-0.442800
H374	H	1.405931	-0.137353	-0.192800
H375	H	1.655931	0.112647	0.057200
H376	H	1.905931	0.362647	0.307200
H377	H	0.975708	-0.168474	-0.919748
H378	H	1.225708	0.081526	-0.669748
H379	H	1.475708	0.331526	-0.419748
H380	H	1.725708	0.581526	-0.169748
H381	H	0.975058	-0.169120	-0.792674
H382	H	1.225058	0.080880	-0.542674
H383	H	1.475058	0.330880	-0.292674
H384	H	1.725058	0.580880	-0.042674
H385	H	0.948282	-0.227330	-0.920445
H386	H	1.198282	0.022670	-0.670445
H387	H	1.448282	0.272670	-0.420445
H388	H	1.698282	0.522670	-0.170445
H389	H	0.937017	-0.829263	-0.223496
H390	H	1.187017	-0.579263	0.026504
H391	H	1.437017	-0.329263	0.276504
H392	H	1.687017	-0.079263	0.526504
F393	F	1.167801	-0.478314	-0.454695
F394	F	1.417801	-0.228314	-0.204695
F395	F	1.667801	0.021686	0.045305
F396	F	1.917801	0.271686	0.295305
H397	H	0.633893	-0.189469	-0.241606
H398	H	0.883893	0.060531	0.008394
H399	H	1.133893	0.310531	0.258394
H400	H	1.383893	0.560531	0.508394
H401	H	1.048260	-0.289663	-0.920054
H402	H	1.298260	-0.039663	-0.670054
H403	H	1.548260	0.210337	-0.420054
H404	H	1.798260	0.460337	-0.170054
F405	F	0.639612	-0.297764	-0.390864
F406	F	0.889612	-0.047764	-0.140864
F407	F	1.139612	0.202236	0.109136
F408	F	1.389612	0.452236	0.359136
H409	H	0.936942	-0.688508	-0.223461
H410	H	1.186942	-0.438508	0.026539
H411	H	1.436942	-0.188508	0.276539
H412	H	1.686942	0.061492	0.526539
F413	F	0.500992	-0.135550	-0.317566
F414	F	0.750992	0.114450	-0.067566
F415	F	1.000992	0.364450	0.182434
F416	F	1.250992	0.614450	0.432434
H417	H	0.633119	-0.168831	-0.451851
H418	H	0.883119	0.081169	-0.201851
H419	H	1.133119	0.331169	0.048149
H420	H	1.383119	0.581169	0.298149
F421	F	0.641272	-0.279004	-0.263272
F422	F	0.891272	-0.029004	-0.013272
F423	F	1.141272	0.220996	0.236728
F424	F	1.391272	0.470996	0.486728
H425	H	1.203381	-0.688231	-0.490307
H426	H	1.453381	-0.438231	-0.240307
H427	H	1.703381	-0.188231	0.009693
H428	H	1.953381	0.061769	0.259693
F429	F	0.641521	-0.135937	-0.317149
F430	F	0.891521	0.114063	-0.067149
F431	F	1.141521	0.364063	0.182851
F432	F	1.391521	0.614063	0.432851
F433	F	1.203140	-0.192143	-0.787051
F434	F	1.453140	0.057857	-0.537051
F435	F	1.703140	0.307857	-0.287051
F436	F	1.953140	0.557857	-0.037051
H437	H	0.984406	-0.959934	-0.270926
H438	H	1.234406	-0.709934	-0.020926
H439	H	1.484406	-0.459934	0.229074
H440	H	1.734406	-0.209934	0.479074
F441	F	1.215182	-0.597249	-0.502136
F442	F	1.465182	-0.347249	-0.252136
F443	F	1.715182	-0.097249	-0.002136
F444	F	1.965182	0.152751	0.247864
H445	H	0.633853	-0.227763	-0.478693
H446	H	0.883853	0.022237	-0.228693
H447	H	1.133853	0.272237	0.021307
H448	H	1.383853	0.522237	0.271307
H449	H	0.507122	-0.228340	-0.478746
H450	H	0.757122	0.021660	-0.228746
H451	H	1.007122	0.271660	0.021254
H452	H	1.257122	0.521660	0.271254
F453	F	0.499473	-0.158933	-0.457876
F454	F	0.749473	0.091067	-0.207876
F455	F	0.999473	0.341067	0.042124
F456	F	1.249473	0.591067	0.292124
F457	F	0.500835	-0.276132	-0.259638
F458	F	0.750835	-0.026132	-0.009638
F459	F	1.000835	0.223868	0.240362
F460	F	1.250835	0.473868	0.490362
F461	F	0.499517	-0.299307	-0.385198
F462	F	0.749517	-0.049307	-0.135198
F463	F	0.999517	0.200693	0.114802
F464	F	1.249517	0.450693	0.364802
H465	H	1.053012	-0.290804	-0.792737
H466	H	1.303012	-0.040804	-0.542737
H467	H	1.553012	0.209196	-0.292737
H468	H	1.803012	0.459196	-0.042737
H469	H	1.203405	-0.743872	-0.490321
H470	H	1.453405	-0.493872	-0.240321
H471	H	1.703405	-0.243872	0.009679
H472	H	1.953405	0.006128	0.259679
F473	F	1.168040	-1.050724	-0.454832
F474	F	1.418040	-0.800724	-0.204832
F475	F	1.668040	-0.550724	0.045168
F476	F	1.918040	-0.300724	0.295168
F477	F	1.163191	-0.279181	-0.928058
F478	F	1.413191	-0.029181	-0.678058
F479	F	1.663191	0.220819	-0.428058
F480	F	1.913191	0.470819	-0.178058
H481	H	1.185742	-0.189704	-0.920732
H482	H	1.435742	0.060296	-0.670732
H483	H	1.685742	0.310296	-0.420732
H484	H	1.935742	0.560296	-0.170732
F485	F	0.934728	-0.235410	-0.787459
F486	F	1.184728	0.014590	-0.537459
F487	F	1.434728	0.264590	-0.287459
F488	F	1.684728	0.514590	-0.037459
H489	H	0.936982	-0.744157	-0.223477
H490	H	1.186982	-0.494157	0.026523
H491	H	1.436982	-0.244157	0.276523
H492	H	1.686982	0.005843	0.526523
F493	F	1.166865	-0.276324	-0.787629
F494	F	1.416865	-0.026324	-0.537629
F495	F	1.666865	0.223676	-0.287629
F496	F	1.916865	0.473676	-0.037629
F497	F	0.925066	-0.597546	-0.211592
F498	F	1.175066	-0.347546	0.038408
F499	F	1.425066	-0.097546	0.288408
F500	F	1.675066	0.152454	0.538408
F501	F	1.110735	-0.135964	-0.928289
F502	F	1.360735	0.114036	-0.678289
F503	F	1.610735	0.364036	-0.428289
F504	F	1.860735	0.614036	-0.178289
F505	F	0.972336	-0.381678	-0.258918
F506	F	1.222336	-0.131678	-0.008918
F507	F	1.472336	0.118322	0.241082
F508	F	1.722336	0.368322	0.491082
H509	H	1.203433	-0.828991	-0.490339
H510	H	1.453433	-0.578991	-0.240339
H511	H	1.703433	-0.328991	0.009661
H512	H	1.953433	-0.078991	0.259661
F513	F	1.110335	-0.135579	-0.787758
F514	F	1.360335	0.114421	-0.537758
F515	F	1.610335	0.364421	-0.287758
F516	F	1.860335	0.614421	-0.037758
