data_functionalizedCrystal
_audit_creation_method	'MofGen! by Chris Wilmer'
_symmetry_space_group_name_H-M	'P1'
_symmetry_Int_Tables_number	1
_symmetry_cell_setting	triclinic
loop_
_symmetry_equiv_pos_as_xyz
  x,y,z
_cell_length_a	23.532407
_cell_length_b	16.992695
_cell_length_c	15.455313
_cell_angle_alpha	87.142836
_cell_angle_beta	92.664564
_cell_angle_gamma	86.758489
loop_
_atom_site_label
_atom_site_type_symbol
_atom_site_fract_x
_atom_site_fract_y
_atom_site_fract_z
O1	O	-0.757639	-0.098595	0.072065
O2	O	-0.592458	-0.112363	0.072081
O3	O	-0.674387	0.008659	0.072066
O4	O	-0.675711	-0.219616	0.072080
O5	O	-0.679067	0.015559	-0.072197
O6	O	-0.597139	-0.105463	-0.072182
O7	O	-0.762320	-0.091695	-0.072198
Cu8	Cu	-0.680157	-0.097949	-0.085363
Cu9	Cu	-0.674621	-0.106109	0.085245
O10	O	-0.680391	-0.212717	-0.072183
C11	C	-0.573565	-0.108562	-0.000048
C12	C	-0.510296	-0.107508	-0.000042
C13	C	-0.240359	-0.031543	-0.000066
C14	C	-0.299808	-0.032522	-0.000066
O15	O	-0.333563	0.027742	-0.000101
N16	N	-0.326004	-0.104469	-0.000057
C17	C	-0.292748	-0.175442	-0.000055
O18	O	-0.320489	-0.236729	-0.000048
C19	C	-0.233301	-0.174462	-0.000060
C20	C	-0.207108	-0.102510	-0.000061
C21	C	-0.214166	0.040403	-0.000068
C22	C	-0.154721	0.041382	-0.000065
C23	C	-0.121470	-0.029585	-0.000061
C24	C	-0.147663	-0.101531	-0.000059
C25	C	-0.200046	-0.245433	-0.000065
C26	C	-0.140595	-0.244447	-0.000071
C27	C	-0.114402	-0.172495	-0.000072
C28	C	-0.054967	-0.171520	-0.000052
N29	N	-0.028771	-0.099572	-0.000062
C30	C	-0.062022	-0.028605	-0.000066
C31	C	-0.417593	-0.177495	-0.000045
C32	C	-0.477039	-0.178476	-0.000033
C33	C	-0.484094	-0.035556	-0.000046
C34	C	-0.424647	-0.034575	-0.000052
C35	C	-0.391396	-0.105547	-0.000055
C36	C	0.062817	-0.026555	-0.000061
C37	C	0.122267	-0.025583	-0.000055
C38	C	0.129317	-0.168503	-0.000046
C39	C	0.069872	-0.169476	-0.000048
C40	C	0.036623	-0.098495	-0.000058
O41	O	-0.021175	-0.231751	-0.000022
O42	O	-0.034274	0.032672	-0.000085
C43	C	-0.675023	0.041308	-0.000065
C44	C	-0.669940	0.128313	-0.000064
C45	C	0.218787	-0.095495	-0.000063
C46	C	0.155518	-0.096550	-0.000051
C47	C	-0.679755	-0.245366	-0.000050
C48	C	-0.684838	-0.332371	-0.000045
N49	N	-0.670728	-0.111842	0.205241
C50	C	-0.718987	0.178936	-0.000070
C51	C	-0.714207	0.260685	-0.000062
C52	C	-0.660380	0.291810	-0.000053
C53	C	-0.611330	0.241180	-0.000045
C54	C	-0.616110	0.159433	-0.000047
C55	C	-0.640568	0.535252	-0.000039
C56	C	-0.635791	0.617007	-0.000039
C57	C	-0.738669	0.636505	-0.000055
C58	C	-0.743444	0.554755	-0.000062
C59	C	-0.694394	0.504133	-0.000049
N60	N	-0.655493	0.375370	-0.000047
N61	N	-0.699281	0.420574	-0.000049
N62	N	-0.684054	-0.092209	-0.205359
C63	C	-0.705610	-0.060526	0.250629
C64	C	-0.702664	-0.064860	0.341438
C65	C	-0.664834	-0.120508	0.386857
C66	C	-0.629952	-0.171829	0.341463
C67	C	-0.632900	-0.167498	0.250656
C68	C	-0.652120	-0.139200	0.658440
C69	C	-0.649173	-0.143525	0.749254
C70	C	-0.721886	-0.036557	0.749222
C71	C	-0.724829	-0.032227	0.658414
C72	C	-0.689949	-0.083552	0.613028
N73	N	-0.661821	-0.124938	0.479677
N74	N	-0.692965	-0.079125	0.520208
H75	H	-0.390523	-0.235293	-0.000041
H76	H	-0.591957	0.642345	-0.000047
C77	C	-0.747222	0.000688	0.200676
H78	H	-0.767577	0.030624	0.240716
H79	H	-0.726458	0.034925	0.165245
H80	H	-0.773314	-0.025726	0.165259
C81	C	-0.607555	-0.204734	0.799217
H82	H	-0.610790	-0.199952	0.859798
H83	H	-0.616523	-0.256326	0.784357
H84	H	-0.569672	-0.195667	0.784329
C85	C	0.165901	-0.246560	-0.000048
H86	H	0.205056	-0.235665	-0.000059
H87	H	0.159248	-0.278497	0.050256
H88	H	0.155974	-0.273668	-0.050365
C89	C	-0.613765	-0.195670	0.608527
H90	H	-0.590814	-0.229430	0.648585
H91	H	-0.636843	-0.226522	0.573123
H92	H	-0.589968	-0.165898	0.573085
H93	H	-0.113525	-0.302242	-0.000078
H94	H	0.035752	0.031244	-0.000069
H95	H	0.048545	-0.228065	-0.000046
H96	H	-0.604497	-0.209286	0.213702
C97	C	-0.586615	0.479579	-0.000040
H98	H	-0.553875	0.509827	-0.000047
H99	H	-0.584703	0.444872	0.050265
H100	H	-0.587975	0.449697	-0.050357
H101	H	-0.599152	-0.217143	0.378448
C102	C	-0.766440	0.028985	0.608455
H103	H	-0.763196	0.024220	0.547873
H104	H	-0.804324	0.019933	0.623334
H105	H	-0.757461	0.080574	0.623327
C106	C	-0.741030	-0.008408	0.391360
H107	H	-0.763977	0.025361	0.351305
H108	H	-0.764822	-0.038191	0.426790
H109	H	-0.717958	0.022449	0.426776
H110	H	0.143590	0.033011	-0.000053
C111	C	-0.562159	0.103748	-0.000043
H112	H	-0.529417	0.133992	-0.000045
H113	H	-0.560254	0.069043	0.050264
H114	H	-0.563517	0.073863	-0.050358
H115	H	-0.133400	0.099973	-0.000070
H116	H	-0.778602	0.677730	-0.000064
H117	H	-0.221362	-0.304024	-0.000060
C118	C	-0.250734	0.118474	-0.000065
H119	H	-0.226611	0.161455	-0.000060
H120	H	-0.275710	0.123482	-0.050367
H121	H	-0.272430	0.118656	0.050255
C122	C	-0.778195	0.144702	-0.000082
H123	H	-0.774020	0.088766	-0.000092
H124	H	-0.796916	0.159696	0.050222
H125	H	-0.800176	0.164517	-0.050399
H126	H	-0.403325	0.024014	-0.000053
C127	C	-0.768158	0.316367	-0.000077
H128	H	-0.800900	0.286122	-0.000095
H129	H	-0.766806	0.346254	0.050230
H130	H	-0.770060	0.351070	-0.050391
C131	C	-0.520679	0.042508	-0.000059
H132	H	-0.559834	0.031614	-0.000065
H133	H	-0.510756	0.069631	0.050243
H134	H	-0.514023	0.074432	-0.050379
H135	H	-0.787276	0.529420	-0.000069
H136	H	-0.567502	0.266528	-0.000033
C137	C	-0.760258	0.019885	0.799149
H138	H	-0.753090	0.009333	0.859735
H139	H	-0.752257	0.072895	0.784257
H140	H	-0.799108	0.012235	0.784263
C141	C	-0.505847	-0.257621	-0.000018
H142	H	-0.546015	-0.248049	-0.000012
H143	H	-0.496286	-0.284419	-0.050321
H144	H	-0.493017	-0.289222	0.050301
