data_functionalizedCrystal
_audit_creation_method	'MofGen! by Chris Wilmer'
_symmetry_space_group_name_H-M	'P1'
_symmetry_Int_Tables_number	1
_symmetry_cell_setting	triclinic
loop_
_symmetry_equiv_pos_as_xyz
  x,y,z
_cell_length_a	19.805407
_cell_length_b	21.395361
_cell_length_c	21.395364
_cell_angle_alpha	90.006881
_cell_angle_beta	90.016178
_cell_angle_gamma	90.028024
loop_
_atom_site_label
_atom_site_type_symbol
_atom_site_fract_x
_atom_site_fract_y
_atom_site_fract_z
Zn1	Zn	1.034704	-0.249646	0.354234
Zn2	Zn	1.534704	0.250354	0.854234
Zn3	Zn	1.034614	-0.354380	0.249451
Zn4	Zn	1.534614	0.145620	0.749451
Zn5	Zn	0.921522	-0.249615	0.249473
Zn6	Zn	1.421522	0.250385	0.749473
Zn7	Zn	0.921474	-0.354385	0.354193
Zn8	Zn	1.421474	0.145615	0.854193
O9	O	0.978079	-0.302007	0.301838
O10	O	1.478079	0.197993	0.801838
O11	O	1.129409	-0.263550	0.340343
O12	O	1.629409	0.236450	0.840343
O13	O	1.019595	-0.340467	0.161776
O14	O	1.519595	0.159533	0.661776
O15	O	0.936594	-0.161941	0.263396
O16	O	1.436594	0.338059	0.763396
O17	O	1.129343	-0.340497	0.263359
O18	O	1.629343	0.159503	0.763359
O19	O	1.019749	-0.161964	0.340364
O20	O	1.519749	0.338036	0.840364
O21	O	0.936507	-0.263497	0.161792
O22	O	1.436507	0.236503	0.661792
O23	O	0.826799	-0.263502	0.263356
O24	O	1.326799	0.236498	0.763356
O25	O	0.936512	-0.340507	0.441876
O26	O	1.436512	0.159493	0.941876
O27	O	0.826764	-0.340476	0.340293
O28	O	1.326764	0.159524	0.840293
O29	O	1.019702	-0.263556	0.441907
O30	O	1.519702	0.236444	0.941907
O31	O	1.019548	-0.442058	0.263319
O32	O	1.519548	0.057942	0.763319
O33	O	0.936424	-0.442062	0.340273
O34	O	1.436424	0.057938	0.840273
C35	C	0.977989	-0.464794	0.301803
C36	C	1.477989	0.035206	0.801803
C37	C	0.978013	-0.534435	0.301809
C38	C	1.478013	-0.034435	0.801809
C39	C	0.802223	-0.301987	0.301823
C40	C	1.302223	0.198013	0.801823
C41	C	0.726991	-0.301994	0.301831
C42	C	1.226991	0.198006	0.801831
C43	C	1.021334	-0.567126	0.261780
C44	C	1.521334	-0.067126	0.761780
C45	C	1.021365	-0.632561	0.261794
C46	C	1.521365	-0.132561	0.761794
C47	C	0.978064	-0.665304	0.301830
C48	C	1.478064	-0.165304	0.801830
C49	C	0.934740	-0.632606	0.341867
C50	C	1.434740	-0.132606	0.841867
C51	C	0.934715	-0.567172	0.341856
C52	C	1.434715	-0.067172	0.841856
C53	C	0.917120	-0.769017	0.306741
C54	C	1.417120	-0.269017	0.806741
C55	C	0.917144	-0.834450	0.306748
C56	C	1.417144	-0.334450	0.806748
C57	C	0.978143	-0.867124	0.301867
C58	C	1.478143	-0.367124	0.801867
C59	C	1.039119	-0.834357	0.296967
C60	C	1.539119	-0.334357	0.796967
C61	C	1.039094	-0.768923	0.296957
C62	C	1.539094	-0.268923	0.796957
C63	C	0.978087	-0.736256	0.301847
C64	C	1.478087	-0.236256	0.801847
C65	C	1.021501	-0.970767	0.261852
C66	C	1.521501	-0.470767	0.761852
C67	C	1.021534	-1.036204	0.261870
C68	C	1.521534	-0.536204	0.761870
C69	C	0.934903	-1.036247	0.341939
C70	C	1.434903	-0.536247	0.841939
C71	C	0.934876	-0.970812	0.341924
C72	C	1.434876	-0.470812	0.841924
C73	C	0.978175	-0.938076	0.301877
C74	C	1.478175	-0.438076	0.801877
C75	C	0.691682	-0.261998	0.341977
C76	C	1.191682	0.238002	0.841977
C77	C	0.620993	-0.262002	0.341980
C78	C	1.120993	0.237998	0.841980
C79	C	0.585615	-0.302004	0.301838
C80	C	1.085615	0.197996	0.801838
C81	C	0.620929	-0.342001	0.261688
C82	C	1.120929	0.157999	0.761688
C83	C	0.691616	-0.341994	0.261683
C84	C	1.191616	0.158006	0.761683
C85	C	0.335856	-0.342029	0.261707
C86	C	0.835856	0.157971	0.761707
C87	C	0.265164	-0.342034	0.261717
C88	C	0.765164	0.157966	0.761717
C89	C	0.265233	-0.262037	0.342004
C90	C	0.765233	0.237963	0.842004
C91	C	0.335920	-0.262030	0.341999
C92	C	0.835920	0.237970	0.841999
C93	C	0.371228	-0.302024	0.301846
C94	C	0.871228	0.197976	0.801846
C95	C	0.447876	-0.302019	0.301843
C96	C	0.947876	0.197981	0.801843
C97	C	0.508968	-0.302012	0.301844
C98	C	1.008968	0.197988	0.801844
C99	C	1.154621	-0.302027	0.301853
C100	C	1.654621	0.197973	0.801853
C101	C	1.229853	-0.302035	0.301860
C102	C	1.729853	0.197965	0.801860
C103	C	0.978112	-0.302036	0.465261
C104	C	1.478112	0.197964	0.965261
C105	C	0.978126	-0.302048	0.534902
C106	C	1.478126	0.197952	1.034902
C107	C	0.978187	-0.138583	0.301887
C108	C	1.478187	0.361417	0.801887
C109	C	0.978233	-0.068942	0.301907
C110	C	1.478233	0.431058	0.801907
C111	C	1.021436	-0.261986	0.567632
C112	C	1.521436	0.238014	1.067632
C113	C	1.021426	-0.261976	0.633068
C114	C	1.521426	0.238024	1.133068
C115	C	0.978112	-0.302039	0.665771
C116	C	1.478112	0.197961	1.165771
C117	C	0.934794	-0.342103	0.633033
C118	C	1.434794	0.157897	1.133033
C119	C	0.934800	-0.342108	0.567599
C120	C	1.434800	0.157892	1.067599
C121	C	0.972722	-0.358480	0.769433
C122	C	1.472722	0.141520	1.269433
C123	C	0.972720	-0.358477	0.834866
C124	C	1.472720	0.141523	1.334866
C125	C	0.978088	-0.302024	0.867591
C126	C	1.478088	0.197976	1.367591
C127	C	0.983472	-0.245573	0.834876
C128	C	1.483472	0.254427	1.334876
C129	C	0.983478	-0.245578	0.769441
C130	C	1.483478	0.254422	1.269441
C131	C	0.978100	-0.302038	0.736723
C132	C	1.478100	0.197962	1.236723
C133	C	1.021389	-0.261948	0.971274
C134	C	1.521389	0.238052	1.471274
C135	C	1.021374	-0.261936	1.036710
C136	C	1.521374	0.238064	1.536710
C137	C	0.934746	-0.342069	1.036674
C138	C	1.434746	0.157931	1.536674
C139	C	0.934757	-0.342075	0.971239
C140	C	1.434757	0.157925	1.471239
C141	C	0.978083	-0.302015	0.938543
C142	C	1.478083	0.197985	1.438543
C143	C	0.978049	-0.301997	1.139050
C144	C	1.478049	0.198003	1.639050
C145	C	0.978060	-0.301999	1.069409
C146	C	1.478060	0.198001	1.569409
H147	H	1.056591	-0.540474	0.229173
H148	H	1.556591	-0.040474	0.729173
Br149	Br	0.383930	-0.207743	0.396482
Br150	Br	0.883930	0.292257	0.896482
H151	H	1.088742	-0.742246	0.292969
H152	H	1.588742	-0.242246	0.792969
H153	H	0.867443	-0.742421	0.310718
H154	H	1.367443	-0.242421	0.810718
Br155	Br	0.875979	-0.677040	0.396207
Br156	Br	1.375979	-0.177040	0.896207
H157	H	0.236477	-0.229469	0.374696
H158	H	0.736477	0.270531	0.874696
Br159	Br	0.573076	-0.207720	0.396467
Br160	Br	1.073076	0.292280	0.896467
H161	H	0.592119	-0.374568	0.229001
H162	H	1.092119	0.125432	0.729001
H163	H	0.720482	-0.229425	0.374667
H164	H	1.220482	0.270575	0.874667
H165	H	0.720364	-0.374562	0.228991
H166	H	1.220364	0.125438	0.728991
Br167	Br	0.217150	-0.396327	0.207235
Br168	Br	0.717150	0.103673	0.707235
Br169	Br	1.080232	-0.207617	0.523261
Br170	Br	1.580232	0.292383	1.023261
Br171	Br	1.080192	-0.207587	0.677497
Br172	Br	1.580192	0.292413	1.177497
H173	H	1.056642	-0.229310	1.063358
H174	H	1.556642	0.270690	1.563358
Br175	Br	0.875919	-0.522803	0.396186
Br176	Br	1.375919	-0.022803	0.896186
H177	H	1.056645	-0.659182	0.229199
H178	H	1.556645	-0.159182	0.729199
H179	H	0.364595	-0.374596	0.229013
H180	H	0.864595	0.125404	0.729013
Br181	Br	0.876006	-0.396470	0.677414
Br182	Br	1.376006	0.103530	1.177414
H183	H	0.899493	-0.374702	0.944590
H184	H	1.399493	0.125298	1.444590
Br185	Br	0.990781	-0.168970	0.725043
Br186	Br	1.490781	0.331030	1.225043
H187	H	0.987843	-0.199604	0.861519
H188	H	1.487843	0.300396	1.361519
H189	H	1.056664	-0.229325	0.944651
H190	H	1.556664	0.270675	1.444651
Br191	Br	0.965423	-0.435088	0.879260
Br192	Br	1.465423	0.064912	1.379260
Br193	Br	0.875953	-0.396434	1.081050
Br194	Br	1.375953	0.103566	1.581050
Br195	Br	0.965457	-0.435103	0.725027
Br196	Br	1.465457	0.064897	1.225027
Br197	Br	0.834392	-0.878913	0.313394
Br198	Br	1.334392	-0.378913	0.813394
Br199	Br	1.121909	-0.878692	0.290334
Br200	Br	1.621909	-0.378692	0.790334
Br201	Br	1.080259	-0.926336	0.207502
Br202	Br	1.580259	-0.426336	0.707502
Br203	Br	0.876016	-0.396481	0.523176
Br204	Br	1.376016	0.103519	1.023176
H205	H	1.056815	-1.062819	0.229275
H206	H	1.556815	-0.562819	0.729275
Br207	Br	0.876079	-0.926443	0.396250
Br208	Br	1.376079	-0.426443	0.896250
Br209	Br	0.876142	-1.080677	0.396281
Br210	Br	1.376142	-0.580677	0.896281
