data_functionalizedCrystal
_audit_creation_method	'MofGen! by Chris Wilmer'
_symmetry_space_group_name_H-M	'P1'
_symmetry_Int_Tables_number	1
_symmetry_cell_setting	triclinic
loop_
_symmetry_equiv_pos_as_xyz
  x,y,z
_cell_length_a	12.759401
_cell_length_b	29.839131
_cell_length_c	12.759393
_cell_angle_alpha	89.962110
_cell_angle_beta	89.981433
_cell_angle_gamma	90.040464
loop_
_atom_site_label
_atom_site_type_symbol
_atom_site_fract_x
_atom_site_fract_y
_atom_site_fract_z
Zn1	Zn	1.606060	-0.178838	-0.593937
Zn2	Zn	1.605873	-0.253977	-0.418238
Zn3	Zn	1.430362	-0.178860	-0.418276
Zn4	Zn	1.430269	-0.253941	-0.593879
O5	O	1.518141	-0.216404	-0.506083
O6	O	1.753056	-0.188811	-0.570638
O7	O	1.582551	-0.244037	-0.271222
O8	O	1.453787	-0.115990	-0.441618
O9	O	1.752919	-0.244015	-0.441553
O10	O	1.582871	-0.115974	-0.570676
O11	O	1.453605	-0.188849	-0.271250
O12	O	1.283329	-0.188814	-0.441562
O13	O	1.453628	-0.243954	-0.740908
O14	O	1.283260	-0.243975	-0.570577
O15	O	1.582781	-0.188776	-0.740951
O16	O	1.582461	-0.316839	-0.441497
O17	O	1.453446	-0.316813	-0.570539
C18	C	1.245174	-0.216394	-0.506068
C19	C	1.128397	-0.216400	-0.506087
C20	C	1.073600	-0.187709	-0.573406
C21	C	0.963876	-0.187718	-0.573412
C22	C	0.963756	-0.245111	-0.438778
C23	C	1.073478	-0.245100	-0.438767
C24	C	1.128519	-0.159009	-0.640725
C25	C	1.073722	-0.130317	-0.708051
C26	C	0.963998	-0.130325	-0.708057
C27	C	0.909071	-0.159026	-0.640739
C28	C	1.517951	-0.333127	-0.506030
C29	C	1.517966	-0.383061	-0.506043
C30	C	1.585441	-0.692706	-0.438988
C31	C	1.585571	-0.880379	-0.439029
O32	O	1.642790	-0.904644	-0.381976
N33	N	1.518359	-0.903846	-0.506162
C34	C	1.451114	-0.880392	-0.573294
O35	O	1.393957	-0.904659	-0.630403
C36	C	1.450991	-0.692720	-0.573258
C37	C	1.518200	-0.669255	-0.506113
C38	C	1.652646	-0.669240	-0.371850
C39	C	1.652609	-0.622325	-0.371836
C40	C	1.585367	-0.598875	-0.438961
C41	C	1.518163	-0.622340	-0.506099
C42	C	1.383752	-0.669267	-0.640395
C43	C	1.383729	-0.622346	-0.640382
C44	C	1.450938	-0.598881	-0.573237
C45	C	1.450884	-0.551974	-0.573211
N46	N	1.518096	-0.528506	-0.506078
C47	C	1.585338	-0.551957	-0.438953
C48	C	1.451183	-0.978923	-0.573307
C49	C	1.451212	-1.025841	-0.573315
C50	C	1.585670	-1.025824	-0.439051
C51	C	1.585635	-0.978905	-0.439038
C52	C	1.518395	-0.955456	-0.506174
C53	C	1.585254	-0.453431	-0.438929
C54	C	1.585208	-0.406511	-0.438918
C55	C	1.450754	-0.406533	-0.573186
C56	C	1.450796	-0.453448	-0.573193
C57	C	1.518054	-0.476896	-0.506061
O58	O	1.393703	-0.527679	-0.630242
O59	O	1.642503	-0.527682	-0.381869
C60	C	1.585479	-0.739621	-0.439002
C61	C	1.518274	-0.763086	-0.506140
C62	C	1.451033	-0.739636	-0.573265
C63	C	1.518304	-0.810004	-0.506148
C64	C	1.585545	-0.833454	-0.439023
C65	C	1.652757	-0.809987	-0.371890
C66	C	1.652720	-0.763071	-0.371877
C67	C	1.383820	-0.763103	-0.640398
C68	C	1.383862	-0.810019	-0.640405
C69	C	1.451104	-0.833469	-0.573280
C70	C	1.792174	-0.216415	-0.506098
C71	C	1.908951	-0.216420	-0.506104
C72	C	1.518215	-0.216359	-0.780116
C73	C	1.518246	-0.216339	-0.896893
C74	C	1.518360	-0.099226	-0.506158
C75	C	1.518454	-0.049291	-0.506190
C76	C	1.585505	-0.187606	-0.951779
C77	C	1.585530	-0.187590	-1.061503
C78	C	1.451034	-0.245044	-1.061445
C79	C	1.451004	-0.245058	-0.951723
C80	C	1.652747	-0.158887	-0.896948
C81	C	1.720013	-0.130151	-0.951834
C82	C	1.720038	-0.130135	-1.061558
C83	C	1.652797	-0.158855	-1.116396
C84	C	1.518128	-0.216417	-0.233115
C85	C	1.518301	-0.216310	-0.116339
H86	H	0.819726	-0.159021	-0.640727
H87	H	1.774801	-0.106734	-1.106244
O88	O	1.385659	-0.273021	-0.898563
C89	C	1.326315	-0.298366	-0.970483
H90	H	1.369353	-0.299904	-1.048706
H91	H	1.315064	-0.333768	-0.938755
H92	H	1.246542	-0.281920	-0.982144
O93	O	1.652860	-0.158979	-0.790364
C94	C	1.679739	-0.202050	-0.753713
H95	H	1.725475	-0.220612	-0.816973
H96	H	1.730155	-0.198854	-0.680348
H97	H	1.605325	-0.221510	-0.734183
O98	O	1.235104	-0.159001	-0.640914
C99	C	1.271783	-0.170601	-0.741545
H100	H	1.208583	-0.162963	-0.802098
H101	H	1.345220	-0.150342	-0.760309
H102	H	1.291206	-0.207877	-0.743603
O103	O	1.785212	-0.102189	-0.898618
C104	C	1.762359	-0.057409	-0.925484
H105	H	1.678437	-0.055133	-0.955638
H106	H	1.771436	-0.035224	-0.853346
H107	H	1.818722	-0.045660	-0.989190
H108	H	1.640421	-1.044925	-0.384395
O109	O	1.126958	-0.102460	-0.773585
C110	C	1.100193	-0.112342	-0.878256
H111	H	1.020507	-0.129619	-0.880362
H112	H	1.096498	-0.079944	-0.925509
H113	H	1.161931	-0.135453	-0.913537
O114	O	1.652987	-0.158797	-1.222983
C115	C	1.726749	-0.127268	-1.259672
H116	H	1.788126	-0.120986	-1.196450
H117	H	1.766612	-0.140817	-1.333066
H118	H	1.685157	-0.094506	-1.279169
H119	H	0.919384	-0.106959	-0.762869
O120	O	1.126877	-0.272928	-0.373411
C121	C	1.235496	-0.266770	-0.387855
H122	H	1.250529	-0.232116	-0.422414
H123	H	1.277163	-0.269771	-0.309143
H124	H	1.266630	-0.293442	-0.443685
H125	H	0.919026	-0.268479	-0.383972
O126	O	1.385651	-0.476295	-0.638459
C127	C	1.445456	-0.503373	-0.706397
H128	H	1.525102	-0.510378	-0.669415
H129	H	1.402685	-0.536381	-0.720453
H130	H	1.456940	-0.485258	-0.784258
O131	O	1.650599	-0.383787	-0.373659
C132	C	1.709937	-0.414550	-0.314402
H133	H	1.713574	-0.447978	-0.357452
H134	H	1.792712	-0.400963	-0.303261
H135	H	1.671510	-0.419585	-0.234578
H136	H	1.640025	-0.472517	-0.384266
O137	O	1.718006	-0.599604	-0.306589
C138	C	1.777340	-0.630371	-0.247339
H139	H	1.780958	-0.663799	-0.290389
H140	H	1.860122	-0.616789	-0.236209
H141	H	1.738922	-0.635402	-0.167509
O142	O	1.718141	-0.692021	-0.306820
C143	C	1.785976	-0.719102	-0.366734
H144	H	1.792319	-0.704941	-0.449497
H145	H	1.866881	-0.719578	-0.328867
H146	H	1.753584	-0.754686	-0.370284
O147	O	1.385883	-1.048563	-0.638630
C148	C	1.326516	-1.017798	-0.697852
H149	H	1.369531	-0.984335	-0.701513
H150	H	1.315272	-1.031329	-0.780626
H151	H	1.246741	-1.012853	-0.659309
H152	H	1.396289	-0.268426	-1.106103
O153	O	1.651024	-0.956182	-0.373785
C154	C	1.710351	-0.986947	-0.314522
H155	H	1.713980	-1.020376	-0.357569
H156	H	1.793129	-0.973364	-0.303379
H157	H	1.671919	-0.991979	-0.234699
H158	H	1.396425	-0.959834	-0.627978
H159	H	1.707505	-0.829088	-0.317232
H160	H	1.329018	-0.688365	-0.695066
H161	H	1.328975	-0.603256	-0.695055
H162	H	1.396003	-0.387432	-0.627835
H163	H	1.329123	-0.829120	-0.695082
O164	O	1.717961	-0.740330	-0.306511
C165	C	1.695048	-0.751835	-0.201782
H166	H	1.654674	-0.785916	-0.199586
H167	H	1.770899	-0.753430	-0.154742
H168	H	1.641043	-0.725462	-0.166334
O169	O	1.318393	-0.740397	-0.705634
C170	C	1.259104	-0.771176	-0.764901
H171	H	1.255534	-0.804635	-0.721868
H172	H	1.176304	-0.757659	-0.776024
H173	H	1.297530	-0.776121	-0.844732
