data_functionalizedCrystal
_audit_creation_method	'MofGen! by Chris Wilmer'
_symmetry_space_group_name_H-M	'P1'
_symmetry_Int_Tables_number	1
_symmetry_cell_setting	triclinic
loop_
_symmetry_equiv_pos_as_xyz
  x,y,z
_cell_length_a	23.532407
_cell_length_b	23.532407
_cell_length_c	22.010155
_cell_angle_alpha	90.000423
_cell_angle_beta	90.001992
_cell_angle_gamma	82.848674
loop_
_atom_site_label
_atom_site_type_symbol
_atom_site_fract_x
_atom_site_fract_y
_atom_site_fract_z
O1	O	-0.755264	-0.069127	-0.050440
O2	O	-0.589400	-0.079130	-0.050462
O3	O	-0.677334	0.008803	-0.050439
O4	O	-0.667330	-0.157060	-0.050463
O5	O	-0.677318	0.008790	0.050611
O6	O	-0.589384	-0.079143	0.050588
O7	O	-0.755248	-0.069140	0.050610
Cu8	Cu	-0.672315	-0.074143	0.059826
Cu9	Cu	-0.672333	-0.074127	-0.059678
O10	O	-0.667314	-0.157073	0.050587
C11	C	-0.568176	-0.078882	0.000060
C12	C	-0.504959	-0.078116	0.000052
C13	C	-0.105856	-0.125350	0.000065
C14	C	-0.046456	-0.124638	0.000068
O15	O	-0.009711	-0.168424	0.000083
N16	N	-0.023830	-0.072362	0.000074
C17	C	-0.060607	-0.020794	0.000083
O18	O	-0.035908	0.023737	0.000089
C19	C	-0.120006	-0.021506	0.000085
C20	C	-0.142629	-0.073785	0.000073
C21	C	-0.128479	-0.177625	0.000054
C22	C	-0.187876	-0.178336	0.000050
C23	C	-0.224649	-0.126772	0.000058
C24	C	-0.202025	-0.074496	0.000069
C25	C	-0.156783	0.030062	0.000099
C26	C	-0.216185	0.029345	0.000101
C27	C	-0.238808	-0.022934	0.000089
C28	C	-0.298194	-0.023643	0.000073
N29	N	-0.320820	-0.075920	0.000067
C30	C	-0.284048	-0.127484	0.000059
C31	C	0.064135	-0.019302	0.000081
C32	C	0.123533	-0.018589	0.000075
C33	C	0.137680	-0.122434	0.000060
C34	C	0.078281	-0.123146	0.000062
C35	C	0.041509	-0.071578	0.000075
C36	C	-0.408784	-0.128974	0.000051
C37	C	-0.468186	-0.129680	0.000045
C38	C	-0.482329	-0.025836	0.000062
C39	C	-0.422932	-0.025129	0.000065
C40	C	-0.386160	-0.076702	0.000062
O41	O	-0.334974	0.020119	0.000060
O42	O	-0.308755	-0.172007	0.000062
C43	C	0.223528	-0.069388	0.000081
C44	C	0.160311	-0.070154	0.000070
N45	N	-0.672305	-0.074153	0.143878
C46	C	-0.677071	0.030013	0.000087
C47	C	-0.676305	0.093230	0.000092
C48	C	-0.667577	-0.178283	0.000059
C49	C	-0.668343	-0.241500	0.000051
C50	C	-0.723539	0.492333	0.000065
C51	C	-0.722827	0.551733	0.000060
O52	O	-0.766613	0.588478	0.000043
N53	N	-0.670551	0.574359	0.000054
C54	C	-0.618983	0.537582	0.000046
O55	O	-0.574452	0.562281	0.000039
C56	C	-0.619695	0.478183	0.000046
C57	C	-0.671974	0.455560	0.000059
C58	C	-0.775814	0.469710	0.000077
C59	C	-0.776525	0.410313	0.000083
C60	C	-0.724961	0.373541	0.000076
C61	C	-0.672685	0.396164	0.000064
C62	C	-0.568127	0.441406	0.000034
C63	C	-0.568844	0.382004	0.000034
C64	C	-0.621123	0.359381	0.000046
C65	C	-0.621832	0.299995	0.000064
N66	N	-0.674109	0.277369	0.000071
C67	C	-0.725673	0.314141	0.000077
C68	C	-0.617491	0.662324	0.000044
C69	C	-0.616778	0.721722	0.000048
C70	C	-0.720623	0.735869	0.000061
C71	C	-0.721335	0.676470	0.000061
C72	C	-0.669767	0.639698	0.000050
C73	C	-0.727163	0.189405	0.000090
C74	C	-0.727869	0.130003	0.000098
C75	C	-0.624025	0.115860	0.000081
C76	C	-0.623318	0.175257	0.000076
C77	C	-0.674891	0.212029	0.000078
O78	O	-0.578070	0.263215	0.000078
O79	O	-0.770196	0.289434	0.000075
N80	N	-0.672347	-0.074112	-0.143730
C81	C	-0.711273	-0.035196	0.563668
C82	C	-0.711275	-0.035192	0.627275
O83	O	-0.744384	-0.002076	0.660175
N84	N	-0.672333	-0.074115	0.659085
C85	C	-0.633382	-0.113041	0.627284
O86	O	-0.600259	-0.146148	0.660182
C87	C	-0.633377	-0.113042	0.563678
C88	C	-0.672326	-0.074120	0.531871
C89	C	-0.750217	0.003723	0.531861
C90	C	-0.750215	0.003719	0.468258
C91	C	-0.711268	-0.035205	0.436461
C92	C	-0.672324	-0.074125	0.468268
C93	C	-0.594424	-0.151965	0.531878
C94	C	-0.594422	-0.151962	0.468268
C95	C	-0.633370	-0.113040	0.436461
C96	C	-0.633374	-0.113054	0.372868
N97	N	-0.672317	-0.074130	0.341058
C98	C	-0.711263	-0.035206	0.372855
C99	C	-0.633395	-0.113036	0.760862
C100	C	-0.633402	-0.113039	0.824468
C101	C	-0.711294	-0.035188	0.824454
C102	C	-0.711290	-0.035189	0.760848
C103	C	-0.672337	-0.074113	0.729052
C104	C	-0.711256	-0.035219	0.239284
C105	C	-0.711252	-0.035229	0.175675
C106	C	-0.633358	-0.113077	0.175694
C107	C	-0.633364	-0.113070	0.239297
C108	C	-0.672315	-0.074136	0.271090
O109	O	-0.600282	-0.146151	0.339928
O110	O	-0.744376	-0.002100	0.339950
H111	H	-0.378851	-0.170970	0.000050
H112	H	-0.486602	-0.172254	0.000034
O113	O	-0.595537	-0.150910	0.730073
C114	C	-0.561162	-0.185252	0.771795
H115	H	-0.584515	-0.185769	0.817131
H116	H	-0.552215	-0.230782	0.753425
H117	H	-0.518962	-0.166976	0.778565
O118	O	-0.595548	-0.150773	0.855428
C119	C	-0.560577	-0.120451	0.892208
H120	H	-0.583513	-0.075770	0.901739
H121	H	-0.551429	-0.144269	0.936936
H122	H	-0.518512	-0.116794	0.867693
H123	H	-0.138375	0.072634	0.000109
H124	H	-0.246123	0.071339	0.000112
O125	O	-0.772083	0.654429	-0.000013
C126	C	-0.775620	0.620509	-0.052356
H127	H	-0.730650	0.605464	-0.069811
H128	H	-0.798098	0.581736	-0.040585
H129	H	-0.800971	0.646897	-0.088999
H130	H	0.141947	0.023982	0.000075
O131	O	-0.092739	-0.227704	0.000150
C132	C	-0.057938	-0.230414	0.052472
H133	H	-0.079842	-0.201170	0.089062
H134	H	-0.051013	-0.276332	0.070025
H135	H	-0.014819	-0.215931	0.040639
H136	H	-0.742973	-0.003515	0.265163
O137	O	-0.400887	0.025619	0.000153
C138	C	-0.366968	0.029139	0.052502
H139	H	-0.351924	-0.015836	0.069943
H140	H	-0.328194	0.051619	0.040742
H141	H	-0.393357	0.054479	0.089150
O142	O	-0.749028	0.002675	0.729904
C143	C	-0.718702	0.037667	0.693155
H144	H	-0.674024	0.014731	0.683610
H145	H	-0.742521	0.046849	0.648434
H146	H	-0.715038	0.079714	0.717706
H147	H	-0.562700	-0.183658	0.442383
O148	O	-0.518136	0.024199	0.000098
C149	C	-0.575412	0.012354	0.000081
H150	H	-0.577437	-0.032371	0.019199
H151	H	-0.602508	0.045233	0.029429
H152	H	-0.592608	0.014623	-0.048397
H153	H	-0.206289	-0.220908	0.000040
H154	H	-0.781933	0.035423	0.557744
H155	H	-0.574207	0.740136	0.000048
H156	H	-0.762610	0.765821	0.000064
H157	H	-0.770443	0.111587	0.000110
H158	H	-0.819097	0.391900	0.000090
O159	O	-0.567342	0.626686	0.000068
C160	C	-0.521054	0.659400	0.000048
H161	H	-0.535773	0.703815	0.019179
H162	H	-0.484941	0.637295	0.029383
H163	H	-0.505020	0.663543	-0.048433
H164	H	-0.769159	0.219338	0.000089
O165	O	0.056403	-0.173980	0.000081
C166	C	0.101604	-0.219335	0.000056
H167	H	0.141871	-0.203604	0.019186
H168	H	0.089398	-0.255861	0.029389
H169	H	0.110093	-0.235217	-0.048426
O170	O	-0.788067	0.041588	0.437459
C171	C	-0.822447	0.075931	0.479174
H172	H	-0.799100	0.076448	0.524515
H173	H	-0.831391	0.121461	0.460802
H174	H	-0.864648	0.057656	0.485936
O175	O	-0.749103	0.002705	0.855280
C176	C	-0.740155	0.059037	0.839751
H177	H	-0.718205	0.058855	0.793568
H178	H	-0.783121	0.087304	0.837577
H179	H	-0.711905	0.076502	0.875550
H180	H	-0.562708	-0.183658	0.557767
O181	O	-0.825960	0.505345	0.000112
C182	C	-0.872245	0.472627	0.000106
H183	H	-0.857517	0.428212	0.019231
H184	H	-0.908349	0.494728	0.029454
H185	H	-0.888296	0.468485	-0.048369
H186	H	-0.525555	0.459814	0.000020
H187	H	-0.601654	-0.144769	0.265195
O188	O	-0.595603	-0.150908	0.144732
C189	C	-0.625897	-0.185900	0.107947
H190	H	-0.670592	-0.162996	0.098420
H191	H	-0.602076	-0.195022	0.063218
H192	H	-0.629518	-0.227977	0.132456
H193	H	0.167632	-0.164421	0.000057
H194	H	0.034198	0.022693	0.000085
H195	H	-0.526850	0.352066	0.000023
H196	H	-0.580748	0.193677	0.000083
O197	O	-0.573901	0.080190	-0.000009
C198	C	-0.542160	0.090387	-0.052361
H199	H	-0.556405	0.135528	-0.069805
H200	H	-0.494633	0.085938	-0.040605
H201	H	-0.549776	0.057940	-0.089006
O202	O	-0.749109	0.002638	0.144873
C203	C	-0.783492	0.036985	0.186582
H204	H	-0.760146	0.037510	0.231923
H205	H	-0.792440	0.082511	0.168203
H206	H	-0.825692	0.018707	0.193346
