data_functionalizedCrystal
_audit_creation_method	'MofGen! by Chris Wilmer'
_symmetry_space_group_name_H-M	'P1'
_symmetry_Int_Tables_number	1
_symmetry_cell_setting	triclinic
loop_
_symmetry_equiv_pos_as_xyz
  x,y,z
_cell_length_a	11.792254
_cell_length_b	11.792241
_cell_length_c	17.766277
_cell_angle_alpha	90.007934
_cell_angle_beta	89.998973
_cell_angle_gamma	84.196007
loop_
_atom_site_label
_atom_site_type_symbol
_atom_site_fract_x
_atom_site_fract_y
_atom_site_fract_z
O1	O	1.506891	0.155642	0.062594
O2	O	1.176551	0.171660	0.062596
O3	O	1.349737	-0.001519	0.062589
O4	O	1.333705	0.328821	0.062600
O5	O	1.349742	-0.001536	-0.062599
O6	O	1.176556	0.171643	-0.062593
O7	O	1.506895	0.155625	-0.062595
Cu8	Cu	1.341726	0.163632	-0.074024
Cu9	Cu	1.341721	0.163653	0.074025
O10	O	1.333709	0.328804	-0.062588
C11	C	1.134263	0.170642	0.000001
C12	C	1.008250	0.167622	0.000002
C13	C	0.905913	0.165168	0.000005
C14	C	0.777527	0.162100	0.000006
C15	C	1.348732	-0.043819	-0.000005
C16	C	1.345718	-0.169832	-0.000004
C17	C	1.340175	-0.400545	0.000009
C18	C	1.343255	-0.272160	0.000002
C19	C	1.549183	0.156643	0.000001
C20	C	1.675196	0.159663	0.000006
C21	C	1.334714	0.371104	0.000007
C22	C	1.337728	0.497118	0.000011
N23	N	1.341737	0.163617	-0.178155
N24	N	1.341718	0.163659	0.178156
C25	C	1.418543	0.087127	0.217540
C26	C	1.418553	0.087125	0.296342
C27	C	1.341718	0.163644	0.335756
C28	C	1.264886	0.240190	0.296363
C29	C	1.264886	0.240198	0.217562
C30	C	1.238438	0.177624	0.460602
C31	C	1.238436	0.177609	0.539401
C32	C	1.341718	0.163628	0.578803
C33	C	1.445006	0.149639	0.539396
C34	C	1.445006	0.149646	0.460596
C35	C	1.341710	0.163645	0.421202
C36	C	1.418561	0.087090	0.703633
C37	C	1.418572	0.087096	0.782436
C38	C	1.264895	0.240156	0.782455
C39	C	1.264894	0.240155	0.703654
C40	C	1.341725	0.163616	0.664247
H41	H	1.481116	0.024802	0.328414
O42	O	1.190403	0.314568	0.334729
C43	C	1.251468	0.385145	0.380307
H44	H	1.340068	0.340696	0.392106
H45	H	1.259533	0.469119	0.349951
C46	C	1.078770	0.463438	0.440671
C47	C	1.187588	0.408841	0.455168
H48	H	1.039365	0.478060	0.486847
H49	H	1.037629	0.415893	0.409962
H50	H	1.085507	0.533410	0.415372
H51	H	1.180850	0.338864	0.480458
H52	H	1.228728	0.456375	0.485883
H53	H	1.154333	0.188987	0.571480
H54	H	1.202339	0.302463	0.814546
O55	O	1.545435	0.136105	0.422432
C56	C	1.636600	0.123732	0.474098
H57	H	1.607562	0.163383	0.530278
H58	H	1.665233	0.029317	0.482462
C59	C	1.772396	0.135496	0.374347
C60	C	1.736733	0.184205	0.443346
H61	H	1.834165	0.172793	0.355377
H62	H	1.710977	0.143828	0.339537
H63	H	1.796249	0.056819	0.381326
H64	H	1.712867	0.262877	0.436364
H65	H	1.798151	0.175888	0.478153
H66	H	1.202331	0.302470	0.671585
H67	H	1.481107	0.024808	0.185457
H68	H	1.154327	0.189015	0.428528
H69	H	1.202325	0.302521	0.185495
H70	H	1.481125	0.024771	0.671547
O71	O	1.545337	0.136310	0.577677
C72	C	1.554857	0.232774	0.623258
H73	H	1.498553	0.308666	0.599519
H74	H	1.526395	0.214544	0.682990
C75	C	1.748914	0.167041	0.653583
C76	C	1.679768	0.260256	0.624422
H77	H	1.825966	0.183991	0.654305
H78	H	1.742500	0.102048	0.622877
H79	H	1.725182	0.151858	0.703357
H80	H	1.703492	0.275427	0.574646
H81	H	1.686190	0.325251	0.655120
H82	H	1.481139	0.024778	0.814503
