data_functionalizedCrystal
_audit_creation_method	'MofGen! by Chris Wilmer'
_symmetry_space_group_name_H-M	'P1'
_symmetry_Int_Tables_number	1
_symmetry_cell_setting	triclinic
loop_
_symmetry_equiv_pos_as_xyz
  x,y,z
_cell_length_a	10.540539
_cell_length_b	8.559649
_cell_length_c	7.088929
_cell_angle_alpha	84.655815
_cell_angle_beta	96.268640
_cell_angle_gamma	77.152078
loop_
_atom_site_label
_atom_site_type_symbol
_atom_site_fract_x
_atom_site_fract_y
_atom_site_fract_z
O1	O	1.647732	0.241177	-0.158890
O2	O	1.276098	0.262372	-0.158912
O3	O	1.494656	0.019546	-0.158897
O4	O	1.429173	0.484003	-0.158905
O5	O	1.523872	-0.012979	0.159080
O6	O	1.305313	0.229847	0.159065
O7	O	1.676947	0.208652	0.159088
Cu8	Cu	1.493798	0.216279	0.188110
Cu9	Cu	1.459247	0.254744	-0.187935
O10	O	1.458389	0.451478	0.159072
C11	C	1.514226	-0.056190	0.000088
C12	C	1.528996	-0.233400	0.000079
C13	C	1.243569	0.244520	0.000073
C14	C	1.103118	0.239766	0.000064
C15	C	0.938835	0.057488	0.000810
C16	C	1.084881	0.062384	0.000073
C17	C	1.015825	0.343703	-0.181510
C18	C	0.869902	0.337663	-0.181643
C19	C	0.902259	0.304284	0.179957
C20	C	1.049289	0.305674	0.182337
C21	C	1.709476	0.226504	0.000098
C22	C	1.849926	0.231259	0.000094
C23	C	1.438819	0.527214	0.000083
C24	C	1.424047	0.704426	0.000080
N25	N	1.518108	0.189224	0.452600
N26	N	1.434948	0.281787	-0.452424
H27	H	1.322895	-0.213232	0.000080
N28	N	1.320778	0.408832	0.439415
H29	H	1.235715	0.385987	0.474170
H30	H	1.327746	0.518672	0.474180
H31	H	1.630157	-0.315754	0.000100
N32	N	1.166494	-0.044210	0.172487
H33	H	1.107704	-0.094811	0.249652
H34	H	1.234173	-0.131859	0.128980
N35	N	1.632291	0.062174	0.560757
H36	H	1.625444	-0.047721	0.526031
H37	H	1.717289	0.085173	0.525943
H38	H	0.929550	-0.025907	0.131028
H39	H	0.904036	0.000954	-0.128680
H40	H	1.121728	0.008080	-0.130311
H41	H	0.835827	0.288454	-0.317370
N42	N	0.822095	0.473826	0.181618
H43	H	0.829298	0.543304	0.061876
H44	H	0.727137	0.471504	0.186668
N45	N	0.787661	0.507746	-0.192488
H46	H	0.846272	0.586311	-0.197179
H47	H	0.721110	0.532117	-0.311475
H48	H	1.060983	0.433876	0.193298
N49	N	1.064003	0.283444	-0.360502
H50	H	0.991593	0.248151	-0.438367
H51	H	1.090394	0.372970	-0.438529
N52	N	1.026552	0.517166	-0.190499
H53	H	1.088248	0.530075	-0.076681
H54	H	1.061571	0.547848	-0.312204
H55	H	0.889369	0.232800	0.317589
N56	N	1.128535	0.204880	0.360282
H57	H	1.199013	0.116887	0.323004
H58	H	1.170673	0.275741	0.440812
