data_functionalizedCrystal
_audit_creation_method	'MofGen! by Chris Wilmer'
_symmetry_space_group_name_H-M	'P1'
_symmetry_Int_Tables_number	1
_symmetry_cell_setting	triclinic
loop_
_symmetry_equiv_pos_as_xyz
  x,y,z
_cell_length_a	14.971486
_cell_length_b	15.538191
_cell_length_c	13.448316
_cell_angle_alpha	89.995865
_cell_angle_beta	89.998199
_cell_angle_gamma	65.443111
loop_
_atom_site_label
_atom_site_type_symbol
_atom_site_fract_x
_atom_site_fract_y
_atom_site_fract_z
O1	O	1.146981	0.122716	-0.082571
O2	O	0.881795	0.137412	-0.082598
O3	O	1.066009	-0.007007	-0.082584
O4	O	0.962767	0.267135	-0.082585
O5	O	1.065994	-0.007016	0.082800
O6	O	0.881781	0.137403	0.082786
O7	O	1.146967	0.122707	0.082812
Cu8	Cu	1.014372	0.130054	0.097900
Cu9	Cu	1.014389	0.130065	-0.097685
O10	O	0.962753	0.267127	0.082799
C11	C	0.848677	0.136750	0.000091
C12	C	0.750021	0.134781	0.000080
C13	C	0.665165	0.219623	0.000082
C14	C	0.572470	0.217767	0.000096
C15	C	0.564634	0.131067	0.000103
C16	C	0.649500	0.046219	0.000105
C17	C	0.742193	0.048076	0.000097
C18	C	0.456296	0.042354	0.000119
C19	C	0.363597	0.040496	0.000124
C20	C	0.286573	0.212045	0.000118
C21	C	0.379266	0.213902	0.000110
C22	C	0.464126	0.129053	0.000110
C23	C	1.076803	-0.042095	0.000106
C24	C	1.108978	-0.146632	0.000099
C25	C	0.789329	-0.434783	0.000088
C26	C	0.819585	-0.533015	0.000094
C27	C	0.989766	-0.555266	0.000110
C28	C	0.959525	-0.457034	0.000100
C29	C	0.859305	-0.396800	0.000090
C30	C	1.029501	-0.419051	0.000102
C31	C	0.999261	-0.320828	0.000097
C32	C	0.899046	-0.260588	0.000090
C33	C	0.829066	-0.298577	0.000085
C34	C	1.129720	-0.479287	0.000119
C35	C	1.199696	-0.441304	0.000121
C36	C	1.169457	-0.343079	0.000109
C37	C	1.069242	-0.282839	0.000102
C38	C	1.239438	-0.305090	0.000113
C39	C	1.209198	-0.206867	0.000109
C40	C	1.039002	-0.184615	0.000097
C41	C	1.180085	0.123369	0.000122
C42	C	1.278740	0.125339	0.000126
C43	C	0.951958	0.302214	0.000107
C44	C	0.919784	0.406752	0.000107
N45	N	1.014367	0.130046	0.235464
N46	N	1.014404	0.130065	-0.235250
C47	C	1.095947	0.066124	0.287511
C48	C	1.095953	0.066123	0.391614
C49	C	1.014381	0.130050	0.443669
C50	C	0.932793	0.193976	0.391615
C51	C	0.932785	0.193971	0.287514
C52	C	0.932816	0.193982	0.608595
C53	C	0.932824	0.193988	0.712704
C54	C	1.095984	0.066134	0.712695
C55	C	1.095976	0.066130	0.608594
C56	C	1.014389	0.130057	0.556548
H57	H	0.643113	-0.024374	0.000124
C58	C	0.673781	0.314991	0.000071
H59	H	0.741138	0.303949	0.000057
H60	H	0.642768	0.349928	0.057744
H61	H	0.642761	0.349928	-0.057609
H62	H	0.525390	-0.026740	0.000120
H63	H	0.357223	-0.030102	0.000131
H64	H	1.281296	-0.490360	0.000132
C65	C	0.835535	-0.045250	0.000086
H66	H	0.817594	-0.097152	0.000080
H67	H	0.873303	-0.048098	0.057754
H68	H	0.873287	-0.048085	-0.057599
C69	C	0.928763	-0.118348	0.000080
H70	H	0.920780	-0.054411	0.000071
H71	H	0.898741	-0.129871	0.057747
H72	H	0.898763	-0.129871	-0.057606
C73	C	1.185697	-0.004183	0.448861
H74	H	1.234283	-0.042245	0.402949
H75	H	1.166285	-0.043443	0.489483
H76	H	1.211904	0.029773	0.489457
C77	C	1.349671	-0.371353	0.000129
H78	H	1.357658	-0.435291	0.000129
H79	H	1.379676	-0.359825	0.057801
H80	H	1.379685	-0.359832	-0.057552
C81	C	0.843097	0.264299	0.769968
H82	H	0.854794	0.255151	0.839420
H83	H	0.786759	0.253963	0.752923
H84	H	0.832392	0.327168	0.752898
C85	C	1.185730	-0.004186	0.769937
H86	H	1.234316	-0.042250	0.724026
H87	H	1.166314	-0.043446	0.810558
H88	H	1.211940	0.029766	0.810536
H89	H	0.874427	-0.180608	0.000092
C90	C	0.843074	0.264304	0.551346
H91	H	0.794498	0.302385	0.597256
H92	H	0.816857	0.230368	0.510743
H93	H	0.862509	0.303559	0.510731
C94	C	0.718825	-0.232313	0.000065
H95	H	0.681476	-0.269000	0.000066
H96	H	0.703503	-0.193533	-0.057609
H97	H	0.703485	-0.193536	0.057744
H98	H	0.707720	-0.385736	0.000073
C99	C	0.742604	-0.574793	0.000077
H100	H	0.678589	-0.524849	0.000061
H101	H	0.750853	-0.612652	0.057747
H102	H	0.750872	-0.612641	-0.057606
H103	H	1.071366	-0.604322	0.000122
H104	H	0.385640	0.284500	0.000095
H105	H	1.266180	-0.175941	0.000111
C106	C	0.843050	0.264289	0.230263
H107	H	0.794472	0.302369	0.276173
H108	H	0.816836	0.230349	0.189662
H109	H	0.862479	0.303547	0.189645
H110	H	1.154338	-0.559266	0.000114
H111	H	0.503380	0.286854	0.000096
C112	C	0.193235	0.305380	0.000123
H113	H	0.211178	0.357280	0.000106
H114	H	0.155477	0.308224	0.057800
H115	H	0.155472	0.308221	-0.057553
C116	C	1.185678	-0.004198	0.230259
H117	H	1.234260	-0.042274	0.276170
H118	H	1.211888	0.029736	0.189638
H119	H	1.166241	-0.043459	0.189662
H120	H	1.162401	0.014080	0.566211
H121	H	0.866372	0.246023	0.434004
