data_functionalizedCrystal
_audit_creation_method	'MofGen! by Chris Wilmer'
_symmetry_space_group_name_H-M	'P1'
_symmetry_Int_Tables_number	1
_symmetry_cell_setting	triclinic
loop_
_symmetry_equiv_pos_as_xyz
  x,y,z
_cell_length_a	19.121459
_cell_length_b	19.121241
_cell_length_c	19.120904
_cell_angle_alpha	89.875472
_cell_angle_beta	90.078301
_cell_angle_gamma	89.914667
loop_
_atom_site_label
_atom_site_type_symbol
_atom_site_fract_x
_atom_site_fract_y
_atom_site_fract_z
Zn1	Zn	-0.252666	1.066084	-0.431907
Zn2	Zn	-0.364500	1.075968	-0.310116
Zn3	Zn	-0.252250	0.953832	-0.309693
Zn4	Zn	-0.374414	0.954217	-0.421899
O5	O	-0.310957	1.012525	-0.368404
O6	O	-0.263525	1.165326	-0.420116
O7	O	-0.345287	1.063742	-0.212132
O8	O	-0.154377	0.964425	-0.329916
O9	O	-0.345689	1.172588	-0.330637
O10	O	-0.154682	1.046896	-0.419706
O11	O	-0.262817	0.974009	-0.211821
O12	O	-0.272431	0.855952	-0.320212
O13	O	-0.362586	0.965081	-0.521155
O14	O	-0.362184	0.856235	-0.402650
O15	O	-0.273139	1.047269	-0.528507
O16	O	-0.463743	1.064115	-0.320933
O17	O	-0.471027	0.974665	-0.403060
C18	C	-0.318338	0.830701	-0.360300
C19	C	-0.321514	0.752916	-0.356848
C20	C	-0.280301	0.712593	-0.401879
C21	C	-0.283281	0.639505	-0.398631
C22	C	-0.327478	0.606743	-0.350354
C23	C	-0.368692	0.647071	-0.305318
C24	C	-0.365708	0.720157	-0.308564
C25	C	-0.338620	0.386260	-0.338217
C26	C	-0.341603	0.313168	-0.334976
C27	C	-0.256191	0.305607	-0.428288
C28	C	-0.253214	0.378695	-0.431532
C29	C	-0.294425	0.419017	-0.386494
C30	C	-0.330526	0.532036	-0.347034
C31	C	-0.291372	0.493723	-0.389812
C32	C	-0.492777	1.020523	-0.360973
C33	C	-0.570559	1.024007	-0.357820
C34	C	-1.010284	1.046067	-0.337828
C35	C	-0.937200	1.042786	-0.340792
C36	C	-0.904478	0.994544	-0.384997
C37	C	-0.944844	0.949575	-0.426236
C38	C	-1.017926	0.952852	-0.423268
C39	C	-0.684007	0.982315	-0.396091
C40	C	-0.610919	0.979042	-0.399058
C41	C	-0.603280	1.072253	-0.313612
C42	C	-0.676364	1.075529	-0.310651
C43	C	-0.716724	1.030557	-0.351888
C44	C	-0.829774	0.991192	-0.388029
C45	C	-0.791426	1.033907	-0.348852
C46	C	-0.128427	1.004515	-0.375880
C47	C	-0.050644	1.001102	-0.379066
C48	C	-0.319015	1.005115	-0.550933
C49	C	-0.322448	1.001958	-0.628716
C50	C	-0.303548	1.195060	-0.376540
C51	C	-0.300390	1.272845	-0.380007
C52	C	-0.277493	1.043263	-0.669088
C53	C	-0.280717	1.040288	-0.742173
C54	C	-0.328900	0.996010	-0.774885
C55	C	-0.373857	0.954700	-0.734508
C56	C	-0.370629	0.957672	-0.661424
C57	C	-0.340972	0.984891	-0.995359
C58	C	-0.344198	0.981923	-1.068448
C59	C	-0.251056	1.067511	-1.076108
C60	C	-0.247836	1.070482	-1.003023
C61	C	-0.292791	1.029169	-0.962652
C62	C	-0.332198	0.992969	-0.849590
C63	C	-0.289489	1.032207	-0.887949
C64	C	-0.302879	1.019944	-0.186589
C65	C	-0.299243	1.023229	-0.108820
H66	H	-0.404674	0.620390	-0.266007
H67	H	-0.249723	0.606677	-0.435301
O68	O	-0.414379	0.917534	-0.622309
C69	C	-0.457592	0.877807	-0.666852
H70	H	-0.461145	0.904455	-0.720131
H71	H	-0.512102	0.873631	-0.643146
H72	H	-0.434475	0.823212	-0.673296
O73	O	-0.384440	0.281264	-0.288040
C74	C	-0.344257	0.239062	-0.242655
H75	H	-0.292805	0.224775	-0.269108
H76	H	-0.374429	0.189306	-0.229783
H77	H	-0.333044	0.268979	-0.192374
H78	H	-0.217227	0.405365	-0.470847
O79	O	-0.708004	1.122534	-0.267758
C80	C	-0.687849	1.190800	-0.287024
H81	H	-0.635931	1.188658	-0.316184
H82	H	-0.681743	1.224186	-0.238078
H83	H	-0.729572	1.214756	-0.322389
O84	O	-0.378761	0.425390	-0.294540
C85	C	-0.449929	0.409979	-0.306065
H86	H	-0.456835	0.387795	-0.360928
H87	H	-0.482265	0.459811	-0.300695
H88	H	-0.468235	0.369871	-0.265892
O89	O	-1.042179	1.092921	-0.294960
C90	C	-1.115338	1.086169	-0.301175
H91	H	-1.128638	1.061450	-0.353729
H92	H	-1.140722	1.140031	-0.297699
H93	H	-1.135814	1.051568	-0.257126
O94	O	-0.898098	1.086542	-0.300715
C95	C	-0.942651	1.129817	-0.261055
H96	H	-0.995903	1.133385	-0.287714
H97	H	-0.918919	1.184314	-0.256957
H98	H	-0.949156	1.106746	-0.206426
O99	O	-0.564044	1.115833	-0.273475
C100	C	-0.521430	1.075964	-0.228199
H101	H	-0.545554	1.022016	-0.220485
H102	H	-0.517189	1.103461	-0.175526
H103	H	-0.467091	1.070176	-0.251975
O104	O	-0.237145	1.080441	-0.781469
C105	C	-0.277014	1.125678	-0.824125
H106	H	-0.331535	1.102882	-0.831796
H107	H	-0.250397	1.131704	-0.877105
H108	H	-0.281350	1.179027	-0.797969
O109	O	-0.391070	0.939006	-1.100263
C110	C	-0.436510	0.979107	-1.142479
H111	H	-0.437637	1.035308	-1.122732
H112	H	-0.491426	0.956115	-1.139981
H113	H	-0.417214	0.978326	-1.198859
H114	H	-0.238259	1.079321	-0.642459
O115	O	-0.242649	1.075121	-0.856097
C116	C	-0.197190	1.035010	-0.813911
H117	H	-0.223538	0.983501	-0.799588
H118	H	-0.184388	1.065190	-0.764172
H119	H	-0.146884	1.023905	-0.843857
O120	O	-0.384672	0.944862	-0.956083
C121	C	-0.426407	0.988398	-0.913744
H122	H	-0.399093	1.040794	-0.906158
H123	H	-0.434679	0.962381	-0.860701
H124	H	-0.479196	0.997221	-0.940134
O125	O	-0.913025	0.902810	-0.469258
C126	C	-0.871068	0.938888	-0.517967
H127	H	-0.890997	0.994809	-0.523895
H128	H	-0.873650	0.911316	-0.570708
H129	H	-0.814631	0.939714	-0.498689
O130	O	-1.057030	0.909146	-0.463398
C131	C	-1.012480	0.865852	-0.503040
H132	H	-0.959300	0.892078	-0.508880
H133	H	-1.036325	0.857053	-0.556979
H134	H	-1.005790	0.813417	-0.475318
H135	H	-0.399267	0.752988	-0.271895
H136	H	-0.208602	1.106540	-0.976394
O137	O	-0.248485	0.525466	-0.436800
C138	C	-0.267711	0.505487	-0.505100
H139	H	-0.296838	0.453549	-0.503053
H140	H	-0.218749	0.499497	-0.538520
H141	H	-0.303092	0.547258	-0.528958
H142	H	-0.413087	0.918645	-0.761148
O143	O	-0.373384	0.500242	-0.300048
C144	C	-0.354195	0.520252	-0.231746
H145	H	-0.297313	0.538019	-0.231474
H146	H	-0.360606	0.473847	-0.194787
H147	H	-0.389148	0.565067	-0.213746
H148	H	-0.584281	0.939756	-0.435057
H149	H	-0.818071	1.073183	-0.312858
O150	O	-0.237309	0.744303	-0.448798
C151	C	-0.201587	0.693036	-0.487858
H152	H	-0.199980	0.641989	-0.456984
H153	H	-0.145933	0.711416	-0.498606
H154	H	-0.229959	0.684249	-0.539568
O155	O	-0.216259	0.266363	-0.472058
C156	C	-0.259887	0.224035	-0.513697
H157	H	-0.312237	0.216423	-0.486279
H158	H	-0.233910	0.171004	-0.522004
H159	H	-0.268794	0.250450	-0.566479
H160	H	-0.214456	1.101144	-1.108986
O161	O	-0.723101	0.938603	-0.436219
C162	C	-0.678546	0.895313	-0.475859
H163	H	-0.625368	0.921544	-0.481697
H164	H	-0.702388	0.886512	-0.529799
H165	H	-0.671852	0.842880	-0.448136
O166	O	-0.797951	0.944433	-0.431054
C167	C	-0.755990	0.980519	-0.479755
H168	H	-0.775922	1.036439	-0.485681
H169	H	-0.758562	0.952950	-0.532498
H170	H	-0.699556	0.981347	-0.460468
H171	H	-0.371432	0.956921	-0.876232
