data_functionalizedCrystal
_audit_creation_method	'MofGen! by Chris Wilmer'
_symmetry_space_group_name_H-M	'P1'
_symmetry_Int_Tables_number	1
_symmetry_cell_setting	triclinic
loop_
_symmetry_equiv_pos_as_xyz
  x,y,z
_cell_length_a	14.519709
_cell_length_b	9.730217
_cell_length_c	10.654549
_cell_angle_alpha	89.998688
_cell_angle_beta	95.916468
_cell_angle_gamma	90.003164
loop_
_atom_site_label
_atom_site_type_symbol
_atom_site_fract_x
_atom_site_fract_y
_atom_site_fract_z
O1	O	-1.224722	0.114091	0.164614
O2	O	-0.956346	0.114136	0.184000
O3	O	-1.096702	0.114107	-0.008491
O4	O	-1.084366	0.114120	0.357105
O5	O	-1.096692	-0.114473	-0.008479
O6	O	-0.956336	-0.114444	0.184012
O7	O	-1.224712	-0.114489	0.164626
Zn8	Zn	-1.090523	-0.150759	0.174321
Zn9	Zn	-1.090535	0.150405	0.174305
O10	O	-1.084356	-0.114460	0.357117
C11	C	-0.921976	-0.000148	0.183103
C12	C	-0.819581	-0.000131	0.180395
N13	N	-1.090521	-0.356295	0.174330
C14	C	-0.444633	-0.000189	0.170428
C15	C	-0.548956	-0.000172	0.173196
C16	C	-0.632104	-0.000158	0.175411
C17	C	-0.736433	-0.000145	0.178180
C18	C	-0.977719	-0.644034	0.021595
C19	C	-0.921296	-0.572082	-0.054735
C20	C	-0.921278	-0.428202	-0.054711
C21	C	-0.977692	-0.356271	0.021648
C22	C	-1.034115	-0.428223	0.097977
C23	C	-1.034125	-0.572106	0.097948
C24	C	-1.146944	-0.428247	0.250660
C25	C	-1.146958	-0.572127	0.250644
C26	C	-1.203358	-0.356316	0.327018
C27	C	-1.259778	-0.428268	0.403356
C28	C	-1.259792	-0.572157	0.403330
C29	C	-1.203381	-0.644079	0.326974
C30	C	-0.259082	-0.000199	0.165523
C31	C	-0.361477	-0.000197	0.168231
C32	C	-1.095790	-0.000181	-0.055274
C33	C	-1.093078	-0.000176	-0.194691
N34	N	-1.090544	0.355942	0.174286
C35	C	-1.255819	-0.000211	-0.486241
C36	C	-1.341013	-0.000228	-0.435523
C37	C	-1.343565	-0.000227	-0.304529
C38	C	-1.260914	-0.000212	-0.224249
C39	C	-1.175720	-0.000195	-0.274967
C40	C	-1.173177	-0.000192	-0.405965
C41	C	-1.007883	-0.000159	-0.245409
C42	C	-1.005329	-0.000151	-0.376402
C43	C	-0.925232	-0.000144	-0.165129
C44	C	-0.840036	-0.000117	-0.215847
C45	C	-0.837487	-0.000117	-0.346849
C46	C	-0.920135	-0.000133	-0.427120
C47	C	-1.085268	-0.000169	0.403900
C48	C	-1.087980	-0.000165	0.543317
H49	H	-0.977721	-0.761188	0.021577
O50	O	-0.754705	0.000144	-0.396052
C51	C	-0.704273	0.118519	-0.355021
H52	H	-0.754081	0.201251	-0.327661
H53	H	-0.664529	0.158267	-0.434460
H54	H	-0.653427	0.091760	-0.269765
O55	O	-0.917778	0.000051	-0.554388
C56	C	-0.962944	0.118443	-0.606260
H57	H	-1.013413	0.157906	-0.539400
H58	H	-1.002497	0.091809	-0.701160
H59	H	-0.909447	0.201347	-0.620167
H60	H	-0.875336	-0.369619	-0.116867
O61	O	-0.866520	-0.642165	-0.128789
C62	C	-0.878583	-0.784588	-0.112393
H63	H	-0.905440	-0.804231	-0.017166
H64	H	-0.809431	-0.839221	-0.115794
H65	H	-0.930630	-0.825479	-0.190960
H66	H	-1.412937	-0.000248	-0.263236
H67	H	-1.305742	-0.630731	0.465483
O68	O	-0.977540	-0.216507	0.021554
C69	C	-0.915668	-0.168425	-0.062221
H70	H	-0.862136	-0.251339	-0.075875
H71	H	-0.879124	-0.072175	-0.021471
H72	H	-0.955709	-0.142880	-0.157058
H73	H	-1.203344	-0.239162	0.327026
H74	H	-1.305709	-0.369690	0.465515
O75	O	-1.263558	-0.000162	-0.097032
C76	C	-1.356474	-0.000229	-0.069482
H77	H	-1.402531	0.043040	-0.153339
H78	H	-1.363284	0.066124	0.017260
H79	H	-1.378741	-0.109899	-0.050088
H80	H	-1.203385	-0.761233	0.326948
O81	O	-0.759844	-0.000045	-0.137687
C82	C	-0.780366	-0.000098	-0.011195
H83	H	-0.852840	0.043157	-0.006009
H84	H	-0.727747	0.066273	0.048038
H85	H	-0.777104	-0.109762	0.026674
H86	H	-1.253749	-0.000194	-0.592904
H87	H	-1.408305	-0.000244	-0.500901
H88	H	-0.927316	-0.000152	-0.058468
