data_functionalizedCrystal
_audit_creation_method	'MofGen! by Chris Wilmer'
_symmetry_space_group_name_H-M	'P1'
_symmetry_Int_Tables_number	1
_symmetry_cell_setting	triclinic
loop_
_symmetry_equiv_pos_as_xyz
  x,y,z
_cell_length_a	12.827893
_cell_length_b	21.295417
_cell_length_c	12.827893
_cell_angle_alpha	90.014724
_cell_angle_beta	90.003977
_cell_angle_gamma	90.029863
loop_
_atom_site_label
_atom_site_type_symbol
_atom_site_fract_x
_atom_site_fract_y
_atom_site_fract_z
Zn1	Zn	1.597408	-0.250715	0.590795
Zn2	Zn	2.097408	0.249285	1.090795
Zn3	Zn	1.597305	-0.355956	0.416034
Zn4	Zn	2.097305	0.144044	0.916034
Zn5	Zn	1.422696	-0.250705	0.416069
Zn6	Zn	1.922696	0.249295	0.916069
Zn7	Zn	1.422591	-0.355950	0.590733
Zn8	Zn	1.922591	0.144050	1.090733
O9	O	1.510000	-0.303331	0.503408
O10	O	2.010000	0.196669	1.003408
O11	O	1.743630	-0.264682	0.567624
O12	O	2.243630	0.235318	1.067624
O13	O	1.574144	-0.341992	0.269802
O14	O	2.074144	0.158008	0.769802
O15	O	1.445959	-0.162617	0.439288
O16	O	1.945959	0.337383	0.939288
O17	O	1.743555	-0.342002	0.439227
O18	O	2.243555	0.157998	0.939227
O19	O	1.574319	-0.162624	0.567658
O20	O	2.074319	0.337376	1.067658
O21	O	1.445859	-0.264665	0.269828
O22	O	1.945859	0.235335	0.769828
O23	O	1.276446	-0.264659	0.439228
O24	O	1.776446	0.235341	0.939228
O25	O	1.445780	-0.341993	0.736978
O26	O	1.945780	0.158007	1.236978
O27	O	1.276369	-0.341983	0.567553
O28	O	1.776369	0.158017	1.067553
O29	O	1.574217	-0.264676	0.737023
O30	O	2.074217	0.235324	1.237023
O31	O	1.574042	-0.444044	0.439167
O32	O	2.074042	0.055956	0.939167
O33	O	1.445680	-0.444040	0.567518
O34	O	1.945680	0.055960	1.067518
C35	C	1.238490	-0.303320	0.503388
C36	C	1.738490	0.196680	1.003388
C37	C	1.122337	-0.303330	0.503404
C38	C	1.622337	0.196670	1.003404
C39	C	1.070589	-0.265137	0.567038
C40	C	1.570589	0.234863	1.067038
C41	C	0.950539	-0.265147	0.567056
C42	C	1.450539	0.234853	1.067056
C43	C	1.509867	-0.466883	0.503355
C44	C	2.009867	0.033117	1.003355
C45	C	1.509905	-0.536851	0.503367
C46	C	2.009905	-0.036851	1.003367
C47	C	1.576704	-0.569664	0.570258
C48	C	2.076704	-0.069664	1.070258
C49	C	1.576741	-0.635407	0.570283
C50	C	2.076741	-0.135407	1.070283
C51	C	1.509990	-0.668334	0.503400
C52	C	2.009990	-0.168334	1.003400
C53	C	1.443178	-0.635512	0.436505
C54	C	1.943178	-0.135512	0.936505
C55	C	1.443136	-0.569771	0.436489
C56	C	1.943136	-0.069771	0.936489
N57	N	1.502119	-0.771580	0.411945
N58	N	2.002119	-0.271580	0.911945
N59	N	1.502165	-0.834032	0.411963
N60	N	2.002165	-0.334032	0.911963
C61	C	1.510112	-0.866408	0.503447
C62	C	2.010112	-0.366408	1.003447
N63	N	1.518032	-0.833974	0.594914
N64	N	2.018032	-0.333974	1.094914
N65	N	1.517991	-0.771517	0.594894
N66	N	2.017991	-0.271517	1.094894
C67	C	1.510028	-0.739619	0.503411
C68	C	2.010028	-0.239619	1.003411
C69	C	1.576955	-0.970507	0.570371
C70	C	2.076955	-0.470507	1.070371
C71	C	1.576984	-1.036251	0.570399
C72	C	2.076984	-0.536251	1.070399
C73	C	1.443427	-1.036355	0.436611
C74	C	1.943427	-0.536355	0.936611
C75	C	1.443392	-0.970613	0.436593
C76	C	1.943392	-0.470613	0.936593
C77	C	1.510161	-0.937693	0.503472
C78	C	2.010161	-0.437693	1.003472
C79	C	1.782570	-0.303344	0.503428
C80	C	2.282570	0.196656	1.003428
C81	C	1.898723	-0.303349	0.503437
C82	C	2.398723	0.196651	1.003437
C83	C	1.509998	-0.303335	0.775978
C84	C	2.009998	0.196665	1.275978
C85	C	1.509998	-0.303336	0.892131
C86	C	2.009998	0.196664	1.392131
C87	C	1.510162	-0.139141	0.503484
C88	C	2.010162	0.360859	1.003484
C89	C	1.510231	-0.069173	0.503516
C90	C	2.010231	0.430827	1.003516
C91	C	1.573543	-0.265085	1.063983
C92	C	2.073543	0.234915	1.563983
C93	C	1.573545	-0.265083	0.943932
C94	C	2.073545	0.234917	1.443932
C95	C	1.509994	-0.303342	1.231898
C96	C	2.009994	0.196658	1.731898
C97	C	1.509994	-0.303340	1.115745
C98	C	2.009994	0.196660	1.615745
H99	H	0.943218	-0.336052	0.448961
H100	H	1.443218	0.163948	0.948961
Br101	Br	1.664223	-0.210486	0.869746
Br102	Br	2.164223	0.289514	1.369746
Br103	Br	1.419299	-0.357925	0.966310
Br104	Br	1.919299	0.142075	1.466310
H105	H	1.455594	-0.336093	1.071184
H106	H	1.955594	0.163907	1.571184
H107	H	0.906037	-0.232451	0.621539
H108	H	1.406037	0.267549	1.121539
H109	H	1.077763	-0.336034	0.448937
H110	H	1.577763	0.163966	0.948937
H111	H	1.115163	-0.232430	0.621500
H112	H	1.615163	0.267570	1.121500
Br113	Br	1.667314	-0.524990	0.661026
Br114	Br	2.167314	-0.024990	1.161026
H115	H	1.631128	-0.662129	0.624766
H116	H	2.131128	-0.162129	1.124766
H117	H	1.389070	-1.063163	0.382160
H118	H	1.889070	-0.563163	0.882160
H119	H	1.388827	-0.662325	0.382051
H120	H	1.888827	-0.162325	0.882051
H121	H	1.388739	-0.543054	0.382018
H122	H	1.888739	-0.043054	0.882018
H123	H	1.631319	-0.943703	0.624831
H124	H	2.131319	-0.443703	1.124831
H125	H	1.389002	-0.943894	0.382120
H126	H	1.889002	-0.443894	0.882120
Br127	Br	1.664236	-0.210502	1.138243
Br128	Br	2.164236	0.289498	1.638243
Br129	Br	1.667631	-1.080785	0.661204
Br130	Br	2.167631	-0.580785	1.161204
