data_functionalizedCrystal
_audit_creation_method	'MofGen! by Chris Wilmer'
_symmetry_space_group_name_H-M	'P1'
_symmetry_Int_Tables_number	1
_symmetry_cell_setting	triclinic
loop_
_symmetry_equiv_pos_as_xyz
  x,y,z
_cell_length_a	14.853567
_cell_length_b	26.809956
_cell_length_c	14.853559
_cell_angle_alpha	89.993459
_cell_angle_beta	83.633192
_cell_angle_gamma	90.005869
loop_
_atom_site_label
_atom_site_type_symbol
_atom_site_fract_x
_atom_site_fract_y
_atom_site_fract_z
O1	O	1.196368	0.041443	0.117692
O2	O	1.696368	0.541443	0.617692
O3	O	0.933908	0.041451	0.131713
O4	O	1.433908	0.541451	0.631713
O5	O	1.072153	0.041446	-0.006528
O6	O	1.572153	0.541446	0.493472
O7	O	1.058124	0.041448	0.255933
O8	O	1.558124	0.541448	0.755933
O9	O	1.072127	-0.041513	-0.006507
O10	O	1.572127	0.458487	0.493493
O11	O	0.933882	-0.041508	0.131734
O12	O	1.433882	0.458492	0.631734
O13	O	1.196342	-0.041517	0.117713
O14	O	1.696342	0.458483	0.617713
Zn15	Zn	1.065108	-0.054684	0.124727
Zn16	Zn	1.565108	0.445316	0.624727
Zn17	Zn	1.065142	0.054618	0.124699
Zn18	Zn	1.565142	0.554618	0.624699
O19	O	1.058097	-0.041512	0.255954
O20	O	1.558097	0.458488	0.755954
C21	C	0.900307	-0.000028	0.131089
C22	C	1.400307	0.499972	0.631089
C23	C	0.800223	-0.000024	0.129185
C24	C	1.300223	0.499976	0.629185
N25	N	1.065091	-0.129280	0.124745
N26	N	1.565091	0.370720	0.624745
C27	C	0.387692	-0.000036	0.039019
C28	C	0.887692	0.499964	0.539019
C29	C	0.366406	-0.000035	0.203252
C30	C	0.866406	0.499965	0.703252
C31	C	0.460440	-0.000033	0.205042
C32	C	0.960440	0.499967	0.705042
C33	C	0.518104	-0.000032	0.123819
C34	C	1.018104	0.499968	0.623819
C35	C	0.481735	-0.000033	0.040806
C36	C	0.981735	0.499967	0.540806
C37	C	0.496816	-0.000027	0.288054
C38	C	0.996816	0.499973	0.788054
C39	C	0.590855	-0.000025	0.289847
C40	C	1.090855	0.499975	0.789847
C41	C	0.648521	-0.000028	0.208623
C42	C	1.148521	0.499972	0.708623
C43	C	0.612147	-0.000029	0.125607
C44	C	1.112147	0.499971	0.625607
C45	C	0.669811	-0.000028	0.044384
C46	C	1.169811	0.499972	0.544384
C47	C	0.633438	-0.000033	-0.038633
C48	C	1.133438	0.499967	0.461367
C49	C	0.539401	-0.000036	-0.040417
C50	C	1.039401	0.499964	0.459583
C51	C	0.742559	-0.000025	0.210408
C52	C	1.242559	0.499975	0.710408
C53	C	0.763854	-0.000025	0.046172
C54	C	1.263854	0.499975	0.546172
C55	C	1.126349	-0.473908	0.063501
C56	C	1.626349	0.026092	0.563501
C57	C	1.126371	-0.682786	0.063488
C58	C	1.626371	-0.182786	0.563488
O59	O	1.178418	-0.709792	0.011421
O60	O	1.678418	-0.209792	0.511421
N61	N	1.065147	-0.708907	0.124680
N62	N	1.565147	-0.208907	0.624680
C63	C	1.003910	-0.682806	0.185875
C64	C	1.503910	-0.182806	0.685875
O65	O	0.951830	-0.709816	0.237916
O66	O	1.451830	-0.209816	0.737916
C67	C	1.003885	-0.473929	0.185884
C68	C	1.503885	0.026071	0.685884
C69	C	1.065119	-0.447810	0.124694
C70	C	1.565119	0.052190	0.624694
C71	C	1.187577	-0.447790	0.002316
C72	C	1.687577	0.052210	0.502316
C73	C	1.187575	-0.395573	0.002323
C74	C	1.687575	0.104427	0.502323
C75	C	1.126344	-0.369476	0.063516
C76	C	1.626344	0.130524	0.563516
C77	C	1.065116	-0.395594	0.124701
C78	C	1.565116	0.104406	0.624701
C79	C	0.942645	-0.447828	0.247074
C80	C	1.442645	0.052172	0.747074
C81	C	0.942642	-0.395606	0.247070
C82	C	1.442642	0.104394	0.747070
C83	C	1.003876	-0.369487	0.185880
C84	C	1.503876	0.130513	0.685880
C85	C	1.003883	-0.317280	0.185901
C86	C	1.503883	0.182720	0.685901
N87	N	1.065106	-0.291159	0.124710
N88	N	1.565106	0.208841	0.624710
C89	C	1.126337	-0.317257	0.063517
C90	C	1.626337	0.182743	0.563517
C91	C	1.003929	-0.792469	0.185867
C92	C	1.503929	-0.292469	0.685867
C93	C	1.003936	-0.844688	0.185867
C94	C	1.503936	-0.344688	0.685867
C95	C	1.126396	-0.844664	0.063478
C96	C	1.626396	-0.344664	0.563478
C97	C	1.126392	-0.792445	0.063484
C98	C	1.626392	-0.292445	0.563484
C99	C	1.065152	-0.766348	0.124676
C100	C	1.565152	-0.266348	0.624676
C101	C	1.126327	-0.207599	0.063537
C102	C	1.626327	0.292401	0.563537
C103	C	1.126322	-0.155378	0.063553
C104	C	1.626322	0.344622	0.563553
C105	C	1.003859	-0.155406	0.185938
C106	C	1.503859	0.344594	0.685938
C107	C	1.003868	-0.207622	0.185926
C108	C	1.503868	0.292378	0.685926
C109	C	1.065105	-0.233717	0.124719
C110	C	1.565105	0.266283	0.624719
O111	O	0.951856	-0.290242	0.237934
O112	O	1.451856	0.209758	0.737934
O113	O	1.178396	-0.290237	0.011470
O114	O	1.678396	0.209763	0.511470
C115	C	1.126352	-0.526124	0.063494
C116	C	1.626352	-0.026124	0.563494
C117	C	1.065124	-0.552243	0.124679
C118	C	1.565124	-0.052243	0.624679
C119	C	1.003894	-0.526145	0.185872
C120	C	1.503894	-0.026145	0.685872
C121	C	1.065131	-0.604462	0.124679
C122	C	1.565131	-0.104462	0.624679
C123	C	1.126362	-0.630560	0.063486
C124	C	1.626362	-0.130560	0.563486
C125	C	1.187585	-0.604438	0.002294
C126	C	1.687585	-0.104438	0.502294
C127	C	1.187582	-0.552222	0.002301
C128	C	1.687582	-0.052222	0.502301
C129	C	0.942670	-0.552266	0.247064
C130	C	1.442670	-0.052266	0.747064
C131	C	0.942679	-0.604483	0.247052
C132	C	1.442679	-0.104483	0.747052
C133	C	1.003909	-0.630581	0.185860
C134	C	1.503909	-0.130581	0.685860
C135	C	1.229944	-0.000037	0.118338
C136	C	1.729944	0.499963	0.618338
C137	C	1.330027	-0.000037	0.120242
C138	C	1.830027	0.499963	0.620242
C139	C	1.071506	-0.000033	-0.040106
C140	C	1.571506	0.499967	0.459894
C141	C	1.069605	-0.000030	-0.140190
C142	C	1.569605	0.499970	0.359810
N143	N	1.065166	0.129214	0.124674
N144	N	1.565166	0.629214	0.624674
C145	C	1.061555	0.045192	-0.563377
C146	C	1.561555	0.545192	-0.063377
C147	C	1.061527	-0.045254	-0.563348
C148	C	1.561527	0.454746	-0.063348
C149	C	1.063320	-0.045254	-0.469315
C150	C	1.563320	0.454746	0.030685
C151	C	1.064230	-0.000031	-0.422308
C152	C	1.564230	0.499969	0.077692
C153	C	1.063346	0.045193	-0.469334
C154	C	1.563346	0.545193	0.030666
C155	C	1.064195	-0.090477	-0.422281
C156	C	1.564195	0.409523	0.077719
C157	C	1.065987	-0.090479	-0.328241
C158	C	1.565987	0.409521	0.171759
C159	C	1.066903	-0.045256	-0.281233
C160	C	1.566903	0.454744	0.218767
C161	C	1.066021	-0.000030	-0.328266
C162	C	1.566021	0.499970	0.171734
C163	C	1.066930	0.045193	-0.281259
C164	C	1.566930	0.545193	0.218741
C165	C	1.066054	0.090419	-0.328290
C166	C	1.566054	0.590419	0.171710
C167	C	1.064262	0.090416	-0.422326
C168	C	1.564262	0.590416	0.077674
C169	C	1.068695	-0.045253	-0.187197
C170	C	1.568695	0.454747	0.312803
C171	C	1.068721	0.045194	-0.187216
C172	C	1.568721	0.545194	0.312784
C173	C	1.058745	-0.000032	0.289532
C174	C	1.558745	0.499968	0.789532
C175	C	1.060646	-0.000031	0.389616
C176	C	1.560646	0.499969	0.889616
H177	H	0.810799	-0.000026	-0.019971
H178	H	1.310799	0.499974	0.480029
F179	F	0.305034	-0.000029	0.289690
F180	F	0.805034	0.499971	0.789690
H181	H	1.069388	-0.082075	-0.148906
H182	H	1.569388	0.417925	0.351094
F183	F	1.252751	-0.475558	-0.062820
F184	F	1.752751	0.024442	0.437180
F185	F	0.781266	-0.000016	0.298754
F186	F	1.281266	0.499984	0.798754
F187	F	0.435442	-0.000021	0.374490
F188	F	0.935442	0.499979	0.874490
H189	H	0.892782	-0.469087	0.296900
H190	H	1.392782	0.030913	0.796900
F191	F	0.500683	-0.000039	-0.128762
F192	F	1.000683	0.499961	0.371238
F193	F	0.694819	-0.000029	-0.125073
F194	F	1.194819	0.499971	0.374927
F195	F	1.191562	-0.872449	-0.001648
F196	F	1.691562	-0.372449	0.498352
F197	F	0.348982	-0.000044	-0.049330
F198	F	0.848982	0.499956	0.450670
F199	F	0.629557	-0.000021	0.378200
F200	F	1.129557	0.499979	0.878200
H201	H	1.063548	0.127237	-0.460627
H202	H	1.563548	0.627237	0.039373
H203	H	1.060780	-0.082072	-0.601626
H204	H	1.560780	0.417928	-0.101626
F205	F	0.938705	-0.235418	0.251062
F206	F	1.438705	0.264582	0.751062
F207	F	1.060631	0.093322	-0.613431
F208	F	1.560631	0.593322	-0.113431
F209	F	0.877497	-0.524497	0.312196
F210	F	1.377497	-0.024497	0.812196
F211	F	1.191499	-0.127583	-0.001574
F212	F	1.691499	0.372417	0.498426
F213	F	0.877505	-0.632275	0.312188
F214	F	1.377505	-0.132275	0.812188
H215	H	0.954009	-0.134149	0.235763
H216	H	1.454009	0.365851	0.735763
F217	F	1.191503	-0.235363	-0.001607
F218	F	1.691503	0.264637	0.498393
F219	F	1.252743	-0.367781	-0.062807
F220	F	1.752743	0.132219	0.437193
F221	F	1.191563	-0.764652	-0.001643
F222	F	1.691563	-0.264652	0.498357
H223	H	0.954084	-0.865950	0.235702
H224	H	1.454084	-0.365950	0.735702
H225	H	0.954059	-0.771224	0.235700
H226	H	1.454059	-0.271224	0.735700
H227	H	0.892771	-0.374360	0.296899
H228	H	1.392771	0.125640	0.796899
H229	H	1.063449	-0.127295	-0.460560
H230	H	1.563449	0.372705	0.039440
H231	H	1.066704	-0.127305	-0.289957
H232	H	1.566704	0.372695	0.210043
H233	H	1.237445	-0.625696	-0.047529
H234	H	1.737445	-0.125696	0.452471
F235	F	1.252755	-0.524431	-0.062826
F236	F	1.752755	-0.024431	0.437174
F237	F	1.069696	0.093328	-0.137196
F238	F	1.569696	0.593328	0.362804
F239	F	1.067024	0.138547	-0.278251
F240	F	1.567024	0.638547	0.221749
