data_functionalizedCrystal
_audit_creation_method	'MofGen! by Chris Wilmer'
_symmetry_space_group_name_H-M	'P1'
_symmetry_Int_Tables_number	1
_symmetry_cell_setting	triclinic
loop_
_symmetry_equiv_pos_as_xyz
  x,y,z
_cell_length_a	23.532407
_cell_length_b	23.532407
_cell_length_c	10.868271
_cell_angle_alpha	89.990218
_cell_angle_beta	89.998361
_cell_angle_gamma	82.848712
loop_
_atom_site_label
_atom_site_type_symbol
_atom_site_fract_x
_atom_site_fract_y
_atom_site_fract_z
O1	O	0.755259	0.069136	-0.102257
O2	O	0.589396	0.079139	-0.102278
O3	O	0.677329	-0.008795	-0.102244
O4	O	0.667326	0.157069	-0.102291
O5	O	0.677322	-0.008798	0.102400
O6	O	0.589389	0.079135	0.102366
O7	O	0.755252	0.069132	0.102388
Zn8	Zn	0.672319	0.074133	0.134869
Zn9	Zn	0.672329	0.074138	-0.134759
O10	O	0.667319	0.157065	0.102354
C11	C	0.568176	0.078882	0.000042
C12	C	0.504959	0.078116	0.000035
C13	C	0.238792	0.022921	0.000084
C14	C	0.298192	0.023632	0.000083
O15	O	0.334937	-0.020153	0.000138
N16	N	0.320818	0.075909	0.000060
C17	C	0.284041	0.127477	0.000050
O18	O	0.308740	0.172007	0.000032
C19	C	0.224642	0.126765	0.000059
C20	C	0.202019	0.074485	0.000070
C21	C	0.216169	-0.029354	0.000095
C22	C	0.156772	-0.030066	0.000094
C23	C	0.119999	0.021499	0.000080
C24	C	0.142623	0.073774	0.000068
C25	C	0.187865	0.178333	0.000058
C26	C	0.128463	0.177616	0.000069
C27	C	0.105840	0.125336	0.000079
C28	C	0.046454	0.124627	0.000053
N29	N	0.023828	0.072351	0.000076
C30	C	0.060600	0.020787	0.000089
C31	C	0.408783	0.128968	0.000033
C32	C	0.468181	0.129681	0.000015
C33	C	0.482328	0.025836	0.000050
C34	C	0.422929	0.025124	0.000059
C35	C	0.386157	0.076692	0.000056
C36	C	-0.064136	0.019297	0.000085
C37	C	-0.123538	0.018590	0.000078
C38	C	-0.137680	0.122435	0.000049
C39	C	-0.078284	0.123142	0.000049
C40	C	-0.041512	0.071568	0.000071
O41	O	0.009675	0.168390	0.000003
O42	O	0.035892	-0.023737	0.000124
C43	C	0.677071	-0.030012	0.000081
C44	C	0.676305	-0.093229	0.000090
C45	C	0.723538	-0.492332	0.000029
C46	C	0.722827	-0.551733	0.000020
O47	O	0.766613	-0.588477	-0.000020
N48	N	0.670551	-0.574359	0.000014
C49	C	0.618982	-0.537581	0.000005
O50	O	0.574452	-0.562281	-0.000002
C51	C	0.619695	-0.478182	0.000005
C52	C	0.671974	-0.455559	0.000024
C53	C	0.775814	-0.469709	0.000046
C54	C	0.776525	-0.410313	0.000058
C55	C	0.724961	-0.373540	0.000052
C56	C	0.672685	-0.396163	0.000036
C57	C	0.568127	-0.441406	-0.000012
C58	C	0.568843	-0.382003	-0.000012
C59	C	0.621123	-0.359381	0.000006
C60	C	0.621832	-0.299994	0.000042
N61	N	0.674109	-0.277368	0.000048
C62	C	0.725673	-0.314141	0.000053
C63	C	0.617491	-0.662324	0.000001
C64	C	0.616778	-0.721722	0.000010
C65	C	0.720623	-0.735869	0.000022
C66	C	0.721335	-0.676470	0.000023
C67	C	0.669767	-0.639698	0.000007
C68	C	0.727163	-0.189404	0.000079
C69	C	0.727869	-0.130002	0.000096
C70	C	0.624025	-0.115860	0.000077
C71	C	0.623318	-0.175257	0.000066
C72	C	0.674891	-0.212028	0.000063
O73	O	0.578069	-0.263215	0.000077
O74	O	0.770196	-0.289433	0.000044
C75	C	0.776472	0.069389	0.000065
C76	C	0.839689	0.070155	0.000064
C77	C	0.667577	0.178283	0.000026
C78	C	0.668343	0.241500	0.000008
N79	N	0.672317	0.074130	0.318883
N80	N	0.672336	0.074137	-0.318773
C81	C	0.672326	0.074137	0.569889
C82	C	0.672319	0.074135	0.430211
H83	H	0.206274	0.220904	0.000044
Cl84	Cl	-0.049843	0.188865	0.000020
H85	H	-0.141954	-0.023984	0.000083
Cl86	Cl	-0.017919	-0.045539	0.000109
H87	H	0.574207	-0.740135	0.000016
H88	H	0.526850	-0.352065	-0.000027
H89	H	0.138359	-0.072637	0.000107
H90	H	0.819097	-0.391900	0.000067
H91	H	0.246104	-0.071347	0.000110
Cl92	Cl	0.840647	-0.515928	0.000055
Cl93	Cl	0.552656	-0.616101	-0.000004
Cl94	Cl	0.793597	-0.101567	0.000116
H95	H	0.378846	0.170964	0.000021
H96	H	0.769159	-0.219337	0.000071
Cl97	Cl	0.557594	-0.203698	0.000066
H98	H	0.763906	-0.658055	0.000036
H99	H	0.762610	-0.765821	0.000021
Cl100	Cl	0.502400	-0.469830	-0.000043
Cl101	Cl	0.394496	-0.040601	0.000079
H102	H	0.098525	0.219610	0.000071
H103	H	0.512280	-0.016150	0.000061
Cl104	Cl	0.559205	-0.069621	0.000067
Cl105	Cl	0.496613	0.195407	-0.000024
Cl106	Cl	-0.183920	0.187255	0.000026
