data_functionalizedCrystal
_audit_creation_method	'MofGen! by Chris Wilmer'
_symmetry_space_group_name_H-M	'P1'
_symmetry_Int_Tables_number	1
_symmetry_cell_setting	triclinic
loop_
_symmetry_equiv_pos_as_xyz
  x,y,z
_cell_length_a	12.759401
_cell_length_b	16.120507
_cell_length_c	16.120256
_cell_angle_alpha	95.613568
_cell_angle_beta	87.118542
_cell_angle_gamma	87.067213
loop_
_atom_site_label
_atom_site_type_symbol
_atom_site_fract_x
_atom_site_fract_y
_atom_site_fract_z
Zn1	Zn	1.552019	0.356781	0.489379
Zn2	Zn	2.052019	0.856781	0.989379
Zn3	Zn	1.551863	0.489467	0.356684
Zn4	Zn	2.051863	0.989467	0.856684
Zn5	Zn	1.385711	0.349711	0.349631
Zn6	Zn	1.885711	0.849711	0.849631
Zn7	Zn	1.366873	0.496510	0.496414
Zn8	Zn	1.866873	0.996510	0.996414
O9	O	1.464116	0.423117	0.423027
O10	O	1.964116	0.923117	0.923027
O11	O	1.699018	0.374393	0.471784
O12	O	2.199018	0.874393	0.971784
O13	O	1.537641	0.465022	0.238785
O14	O	2.037641	0.965022	0.738785
O15	O	1.415721	0.233683	0.362273
O16	O	1.915721	0.733683	0.862273
O17	O	1.698904	0.471877	0.374293
O18	O	2.198904	0.971877	0.874293
O19	O	1.537907	0.238878	0.464945
O20	O	2.037907	0.738878	0.964945
O21	O	1.415570	0.362343	0.233604
O22	O	1.915570	0.862343	0.733604
O23	O	1.236192	0.369173	0.369095
O24	O	1.736192	0.869173	0.869095
O25	O	1.383614	0.483882	0.612444
O26	O	1.883614	0.983882	1.112444
O27	O	1.222352	0.477026	0.476936
O28	O	1.722352	0.977026	0.976936
O29	O	1.519641	0.381223	0.607275
O30	O	2.019641	0.881223	1.107275
O31	O	1.519375	0.607367	0.381115
O32	O	2.019375	1.107367	0.881115
O33	O	1.383463	0.612542	0.483774
O34	O	1.883463	1.112542	0.983774
C35	C	1.191151	0.423097	0.423014
C36	C	1.691151	0.923097	0.923014
C37	C	1.074373	0.423110	0.423030
C38	C	1.574373	0.923110	0.923030
C39	C	1.019551	0.372455	0.473881
C40	C	1.519551	0.872455	0.973881
C41	C	0.909826	0.372471	0.473887
C42	C	1.409826	0.872471	0.973887
C43	C	0.909753	0.473804	0.372189
C44	C	1.409753	0.973804	0.872189
C45	C	1.019477	0.473783	0.372179
C46	C	1.519477	0.973783	0.872179
C47	C	1.019592	0.313954	0.532599
C48	C	1.519592	0.813954	1.032599
C49	C	0.909866	0.313970	0.532605
C50	C	1.409866	0.813970	1.032605
C51	C	1.449385	0.640283	0.433992
C52	C	1.949385	1.140283	0.933992
C53	C	1.443177	0.733189	0.438710
C54	C	1.943177	1.233189	0.938710
C55	C	1.496407	0.942098	0.398678
C56	C	1.996407	1.442098	0.898678
C57	C	1.431862	0.903284	0.447334
C58	C	1.931862	1.403284	0.947334
C59	C	1.438160	0.808634	0.442534
C60	C	1.938160	1.308634	0.942534
C61	C	1.490111	1.036756	0.403476
C62	C	1.990111	1.536756	0.903476
C63	C	1.738147	0.423138	0.423040
C64	C	2.238147	0.923138	0.923040
C65	C	1.854923	0.423147	0.423046
C66	C	2.354923	0.923147	0.923046
C67	C	1.449544	0.434127	0.641034
C68	C	1.949544	0.934127	1.141034
C69	C	1.443334	0.438818	0.733936
C70	C	1.943334	0.938818	1.233936
C71	C	1.478893	1.205104	0.412025
C72	C	1.978893	1.705104	0.912025
C73	C	1.485089	1.112198	0.407304
C74	C	1.985089	1.612198	0.907304
C75	C	1.478697	0.412091	0.205865
C76	C	1.978697	0.912091	0.705865
C77	C	1.485126	0.407164	0.112952
C78	C	1.985126	0.907164	0.612952
C79	C	1.496501	0.398630	0.942861
C80	C	1.996501	0.898630	1.442861
C81	C	1.431963	0.447349	0.904021
C82	C	1.931963	0.947349	1.404021
C83	C	1.438291	0.442601	0.809377
C84	C	1.938291	0.942601	1.309377
C85	C	1.490173	0.403377	1.037514
C86	C	1.990173	0.903377	1.537514
H87	H	1.054891	0.248315	0.512097
H88	H	1.554891	0.748315	1.012097
H89	H	1.371872	0.941138	0.492595
H90	H	1.871872	1.441138	0.992595
H91	H	1.556392	0.904247	0.353419
H92	H	2.056392	1.404247	0.853419
H93	H	1.556502	0.353359	0.905036
H94	H	2.056502	0.853359	1.405036
H95	H	0.881531	0.251276	0.506423
H96	H	1.381531	0.751276	1.006423
H97	H	1.371952	0.492620	0.941849
H98	H	1.871952	0.992620	1.441849
H99	H	0.874596	0.334682	0.598194
H100	H	1.374596	0.834682	1.098194
H101	H	1.064109	0.515022	0.330762
H102	H	1.564109	1.015022	0.830762
H103	H	1.047956	0.340338	0.595223
H104	H	1.547956	0.840338	1.095223
C105	C	0.849363	0.529546	0.316259
C106	C	1.349363	1.029546	0.816259
C107	C	0.780756	0.489926	0.248871
C108	C	1.280756	0.989926	0.748871
C109	C	0.720369	0.545670	0.192941
C110	C	1.220369	1.045670	0.692941
C111	C	0.728589	0.641035	0.204399
C112	C	1.228589	1.141035	0.704399
C113	C	0.797199	0.680660	0.271790
C114	C	1.297199	1.180660	0.771790
C115	C	0.857586	0.624916	0.327720
C116	C	1.357586	1.124916	0.827720
H117	H	0.774669	0.419326	0.240387
H118	H	1.274669	0.919326	0.740387
H119	H	0.669579	0.516336	0.143054
H120	H	1.169579	1.016336	0.643054
H121	H	0.683887	0.682300	0.162996
H122	H	1.183887	1.182300	0.662996
H123	H	0.803286	0.751259	0.280274
H124	H	1.303286	1.251259	0.780274
H125	H	0.908376	0.654250	0.377607
H126	H	1.408376	1.154250	0.877607
