data_functionalizedCrystal
_audit_creation_method	'MofGen! by Chris Wilmer'
_symmetry_space_group_name_H-M	'P1'
_symmetry_Int_Tables_number	1
_symmetry_cell_setting	triclinic
loop_
_symmetry_equiv_pos_as_xyz
  x,y,z
_cell_length_a	14.971482
_cell_length_b	15.712078
_cell_length_c	13.448316
_cell_angle_alpha	89.996297
_cell_angle_beta	89.993798
_cell_angle_gamma	101.596878
loop_
_atom_site_label
_atom_site_type_symbol
_atom_site_fract_x
_atom_site_fract_y
_atom_site_fract_z
O1	O	1.223683	0.112666	-0.082677
O2	O	1.723683	0.612666	0.417323
O3	O	0.967683	0.126163	-0.082682
O4	O	1.467683	0.626163	0.417318
O5	O	1.061626	-0.006448	-0.082675
O6	O	1.561626	0.493552	0.417325
O7	O	1.129740	0.245277	-0.082684
O8	O	1.629740	0.745277	0.417316
O9	O	1.061606	-0.006456	0.082709
O10	O	1.561606	0.493544	0.582709
O11	O	0.967663	0.126155	0.082702
O12	O	1.467663	0.626155	0.582702
O13	O	1.223663	0.112658	0.082707
O14	O	1.723663	0.612658	0.582707
Cu15	Cu	1.095661	0.119406	0.097805
Cu16	Cu	1.595661	0.619406	0.597805
Cu17	Cu	1.095685	0.119415	-0.097780
Cu18	Cu	1.595685	0.619415	0.402220
O19	O	1.129720	0.245269	0.082700
O20	O	1.629720	0.745269	0.582700
C21	C	0.934152	0.125556	0.000010
C22	C	1.434152	0.625556	0.500010
C23	C	0.834265	0.123749	0.000008
C24	C	1.334265	0.623749	0.500008
C25	C	0.787332	0.122893	0.090160
C26	C	1.287332	0.622893	0.590160
C27	C	0.693476	0.121182	0.090161
C28	C	1.193476	0.621182	0.590161
C29	C	0.646555	0.120332	0.000009
C30	C	1.146555	0.620332	0.500009
C31	C	0.693494	0.121185	-0.090150
C32	C	1.193494	0.621185	0.409850
C33	C	0.787348	0.122890	-0.090150
C34	C	1.287348	0.622890	0.409850
C35	C	0.497874	0.117632	-0.090143
C36	C	0.997874	0.617632	0.409857
C37	C	0.404014	0.115928	-0.090143
C38	C	0.904014	0.615928	0.409857
C39	C	0.404002	0.115923	0.090168
C40	C	0.904002	0.615923	0.590168
C41	C	0.497855	0.117629	0.090168
C42	C	0.997855	0.617629	0.590168
C43	C	0.544788	0.118483	0.000008
C44	C	1.044788	0.618483	0.500008
C45	C	1.050489	-0.038666	0.000016
C46	C	1.550489	0.461334	0.500016
C47	C	1.017322	-0.134655	0.000013
C48	C	1.517322	0.365345	0.500013
C49	C	1.298917	-0.501464	0.000008
C50	C	1.798917	-0.001464	0.500008
C51	C	1.267731	-0.591658	0.000008
C52	C	1.767731	-0.091658	0.500008
C53	C	1.111466	-0.571201	0.000005
C54	C	1.611466	-0.071201	0.500005
C55	C	1.142639	-0.481004	0.000010
C56	C	1.642639	0.018996	0.500010
C57	C	1.236366	-0.446143	0.000010
C58	C	1.736366	0.053857	0.500010
C59	C	1.080087	-0.425683	0.000012
C60	C	1.580087	0.074317	0.500012
C61	C	1.111258	-0.335494	0.000012
C62	C	1.611258	0.164506	0.500012
C63	C	1.204981	-0.300626	0.000009
C64	C	1.704981	0.199374	0.500009
C65	C	1.267536	-0.355954	0.000010
C66	C	1.767536	0.144046	0.500010
C67	C	0.986361	-0.460546	0.000004
C68	C	1.486361	0.039454	0.500004
C69	C	0.923810	-0.405225	0.000006
C70	C	1.423810	0.094775	0.500006
C71	C	0.954980	-0.315034	0.000013
C72	C	1.454980	0.184966	0.500013
C73	C	1.048703	-0.280166	0.000011
C74	C	1.548703	0.219834	0.500011
C75	C	0.892425	-0.259706	0.000013
C76	C	1.392425	0.240294	0.500013
C77	C	0.923596	-0.169516	0.000012
C78	C	1.423596	0.330484	0.500012
C79	C	1.079874	-0.189977	0.000011
C80	C	1.579874	0.310023	0.500011
C81	C	1.257194	0.113265	0.000013
C82	C	1.757194	0.613265	0.500013
C83	C	1.357081	0.115072	0.000009
C84	C	1.857081	0.615072	0.500009
C85	C	1.140857	0.277488	0.000007
C86	C	1.640857	0.777488	0.500007
C87	C	1.174024	0.373477	0.000004
C88	C	1.674024	0.873477	0.500004
N89	N	1.095651	0.119398	0.235370
N90	N	1.595651	0.619398	0.735370
N91	N	1.095700	0.119416	-0.235344
N92	N	1.595700	0.619416	0.264656
C93	C	1.137276	0.060702	0.287413
C94	C	1.637276	0.560702	0.787413
C95	C	1.137281	0.060702	0.391516
C96	C	1.637281	0.560702	0.891516
C97	C	1.095667	0.119402	0.443574
C98	C	1.595667	0.619402	0.943574
C99	C	1.054037	0.178101	0.391524
C100	C	1.554037	0.678101	0.891524
C101	C	1.054026	0.178097	0.287422
C102	C	1.554026	0.678097	0.787422
C103	C	1.054063	0.178106	0.608504
C104	C	1.554063	0.678106	1.108504
C105	C	1.054075	0.178112	0.712612
C106	C	1.554075	0.678112	1.212612
C107	C	1.137319	0.060712	0.712598
C108	C	1.637319	0.560712	1.212598
C109	C	1.137308	0.060707	0.608496
C110	C	1.637308	0.560707	1.108496
C111	C	1.095679	0.119408	0.556453
C112	C	1.595679	0.619408	1.056453
H113	H	0.825530	0.123593	0.163572
H114	H	1.325530	0.623593	0.663572
H115	H	0.960985	-0.533984	-0.000001
H116	H	1.460985	-0.033984	0.499999
Br117	Br	0.984270	-0.618521	-0.000009
Br118	Br	1.484270	-0.118521	0.499991
H119	H	0.536084	0.118328	-0.163560
H120	H	1.036084	0.618328	0.336440
H121	H	1.020187	0.225911	0.754993
H122	H	1.520187	0.725911	1.254993
H123	H	0.872659	-0.124472	0.000015
H124	H	1.372659	0.375528	0.500015
H125	H	1.020160	0.225904	0.566133
H126	H	1.520160	0.725904	1.066133
Br127	Br	1.352634	-0.666736	-0.000006
Br128	Br	1.852634	-0.166736	0.499994
Br129	Br	0.340309	0.114767	0.212527
Br130	Br	0.840309	0.614767	0.712527
Br131	Br	1.193794	-0.018949	0.537843
Br132	Br	1.693794	0.481051	1.037843
Br133	Br	0.796614	-0.452544	-0.000007
Br134	Br	1.296614	0.047456	0.499993
Br135	Br	1.193764	-0.018961	0.216774
Br136	Br	1.693764	0.481039	0.716774
H137	H	1.020148	0.225893	0.433915
H138	H	1.520148	0.725893	0.933915
H139	H	0.816112	-0.288104	0.000002
H140	H	1.316112	0.211896	0.500002
Br141	Br	1.193769	-0.018961	0.462150
Br142	Br	1.693769	0.481039	0.962150
H143	H	1.171214	0.012916	0.754978
H144	H	1.671214	0.512916	1.254978
H145	H	0.655264	0.120470	0.163572
H146	H	1.155264	0.620470	0.663572
Br147	Br	0.561536	0.118796	0.212517
Br148	Br	1.061536	0.618796	0.712517
H149	H	1.020129	0.225892	0.245050
H150	H	1.520129	0.725892	0.745050
H151	H	0.365814	0.115236	-0.163553
H152	H	0.865814	0.615236	0.336447
H153	H	0.655283	0.120486	-0.163553
H154	H	1.155283	0.620486	0.336447
Br155	Br	0.851042	0.124044	-0.212503
Br156	Br	1.351042	0.624044	0.287497
H157	H	1.375238	-0.473079	0.000019
H158	H	1.875238	0.026921	0.500019
H159	H	1.343858	-0.327569	0.000021
H160	H	1.843858	0.172431	0.500021
Br161	Br	1.207076	-0.142656	0.000051
Br162	Br	1.707076	0.357344	0.500051
H163	H	1.230359	-0.227188	0.000009
H164	H	1.730359	0.272812	0.500009
