data_functionalizedCrystal
_audit_creation_method	'MofGen! by Chris Wilmer'
_symmetry_space_group_name_H-M	'P1'
_symmetry_Int_Tables_number	1
_symmetry_cell_setting	triclinic
loop_
_symmetry_equiv_pos_as_xyz
  x,y,z
_cell_length_a	14.971486
_cell_length_b	10.654550
_cell_length_c	9.130313
_cell_angle_alpha	89.996249
_cell_angle_beta	90.002176
_cell_angle_gamma	84.049530
loop_
_atom_site_label
_atom_site_type_symbol
_atom_site_fract_x
_atom_site_fract_y
_atom_site_fract_z
O1	O	-1.187833	-0.163655	0.121630
O2	O	-0.927540	-0.183253	0.121670
O3	O	-1.063671	0.009349	0.121640
O4	O	-1.051702	-0.356258	0.121660
O5	O	-1.063663	0.009353	-0.121959
O6	O	-0.927532	-0.183250	-0.121929
O7	O	-1.187825	-0.163652	-0.121968
Cu8	Cu	-1.057678	-0.173450	-0.144191
Cu9	Cu	-1.057687	-0.173455	0.143893
O10	O	-1.051694	-0.356254	-0.121938
C11	C	-0.894206	-0.182375	-0.000124
C12	C	-0.794895	-0.179749	-0.000109
C13	C	-1.221159	-0.164530	-0.000171
C14	C	-1.320470	-0.167156	-0.000176
C15	C	-1.062788	0.056139	-0.000158
C16	C	-1.060159	0.195555	-0.000156
C17	C	-0.738285	-0.292898	-0.000105
C18	C	-0.644972	-0.290422	-0.000127
C19	C	-0.608271	-0.174797	-0.000143
C20	C	-0.664888	-0.061639	-0.000151
C21	C	-0.758199	-0.064116	-0.000140
C22	C	-0.470397	-0.056485	-0.000172
C23	C	-0.377080	-0.054007	-0.000180
C24	C	-0.357171	-0.282791	-0.000159
C25	C	-0.450482	-0.285268	-0.000147
C26	C	-0.507092	-0.172110	-0.000153
C27	C	-1.052577	-0.403044	-0.000137
C28	C	-1.055206	-0.542460	-0.000130
N29	N	-1.057678	-0.173447	-0.346814
C30	C	-1.140311	0.275900	-0.000167
C31	C	-1.137835	0.406894	-0.000149
C32	C	-0.975048	0.377185	-0.000114
C33	C	-0.977525	0.246193	-0.000121
C34	C	-1.117982	-0.088194	-0.576826
C35	C	-1.117976	-0.088195	-0.423489
C36	C	-0.997388	-0.258710	-0.423483
C37	C	-0.997398	-0.258714	-0.576817
N38	N	-1.057694	-0.173448	0.346515
H39	H	-0.768160	-0.387053	-0.000091
C40	C	-0.336709	0.073177	-0.000206
H41	H	-0.383787	0.140215	-0.000228
H42	H	-0.300718	0.078902	0.084738
H43	H	-0.300726	0.078887	-0.085169
C44	C	-1.226002	0.495269	-0.000171
H45	H	-1.275567	0.446345	-0.000204
H46	H	-1.228429	0.546979	0.084779
H47	H	-1.228412	0.546993	-0.085128
H48	H	-1.167069	-0.018775	-0.361077
H49	H	-0.516488	0.035661	-0.000179
C50	C	-0.624523	0.065550	-0.000167
H51	H	-0.671605	0.132583	-0.000180
H52	H	-0.588531	0.071271	0.084778
H53	H	-0.588542	0.071272	-0.085130
C54	C	-0.884158	0.432892	-0.000096
H55	H	-0.894161	0.522414	-0.000110
H56	H	-0.851121	0.405317	0.084854
H57	H	-0.851123	0.405326	-0.085053
H58	H	-0.804290	0.028022	-0.000142
C59	C	-0.931058	-0.352481	-0.339145
H60	H	-0.939679	-0.340261	-0.236845
H61	H	-0.941284	-0.436323	-0.364258
H62	H	-0.871281	-0.338689	-0.364289
C63	C	-0.889353	0.157807	-0.000113
H64	H	-0.839785	0.206724	-0.000113
H65	H	-0.886941	0.106081	0.084832
H66	H	-0.886935	0.106100	-0.085075
C67	C	-0.931072	-0.352490	-0.661148
H68	H	-0.895151	-0.403257	-0.593530
H69	H	-0.963570	-0.404845	-0.720958
H70	H	-0.893566	-0.307212	-0.720969
H71	H	-0.598884	-0.382559	-0.000122
H72	H	-1.167080	-0.018767	-0.639244
H73	H	-0.311074	-0.374929	-0.000161
C74	C	-1.231204	0.220201	-0.000189
H75	H	-1.278584	0.286818	-0.000179
H76	H	-1.235554	0.169725	-0.085139
H77	H	-1.235555	0.169713	0.084768
C78	C	-0.490853	-0.412452	-0.000133
H79	H	-0.443775	-0.479491	-0.000147
H80	H	-0.526836	-0.418174	0.084816
H81	H	-0.526843	-0.418164	-0.085091
