data_functionalizedCrystal
_audit_creation_method	'MofGen! by Chris Wilmer'
_symmetry_space_group_name_H-M	'P1'
_symmetry_Int_Tables_number	1
_symmetry_cell_setting	triclinic
loop_
_symmetry_equiv_pos_as_xyz
  x,y,z
_cell_length_a	17.699083
_cell_length_b	17.699083
_cell_length_c	16.776229
_cell_angle_alpha	90.007545
_cell_angle_beta	90.001114
_cell_angle_gamma	83.283015
loop_
_atom_site_label
_atom_site_type_symbol
_atom_site_fract_x
_atom_site_fract_y
_atom_site_fract_z
O1	O	-1.004078	-0.095713	-0.066178
O2	O	-0.504078	0.404287	0.433822
O3	O	-0.783700	-0.108165	-0.066204
O4	O	-0.283700	0.391835	0.433796
O5	O	-0.900116	0.008250	-0.066183
O6	O	-0.400116	0.508250	0.433817
O7	O	-0.887663	-0.212128	-0.066199
O8	O	-0.387663	0.287872	0.433801
O9	O	-0.900100	0.008257	0.066393
O10	O	-0.400100	0.508257	0.566393
O11	O	-0.783685	-0.108158	0.066372
O12	O	-0.283685	0.391842	0.566372
O13	O	-1.004063	-0.095706	0.066398
O14	O	-0.504063	0.404294	0.566398
Zn15	Zn	-0.893871	-0.101931	0.087435
Zn16	Zn	-0.393871	0.398069	0.587435
Zn17	Zn	-0.893892	-0.101940	-0.087241
Zn18	Zn	-0.393892	0.398060	0.412759
O19	O	-0.887648	-0.212121	0.066378
O20	O	-0.387648	0.287879	0.566378
C21	C	-0.755495	-0.107716	0.000081
C22	C	-0.255495	0.392284	0.500081
C23	C	-0.671477	-0.106377	0.000071
C24	C	-0.171477	0.393623	0.500071
C25	C	-0.899662	0.036451	0.000105
C26	C	-0.399662	0.536451	0.500105
C27	C	-0.898323	0.120469	0.000105
C28	C	-0.398323	0.620469	0.500105
N29	N	-0.893863	-0.101924	0.206646
N30	N	-0.393863	0.398076	0.706646
C31	C	-1.032268	-0.096156	0.000112
C32	C	-0.532268	0.403844	0.500112
C33	C	-1.116286	-0.097494	0.000116
C34	C	-0.616286	0.402506	0.500116
C35	C	-0.622856	-0.174710	0.000066
C36	C	-0.122856	0.325290	0.500066
C37	C	-0.543913	-0.173448	0.000077
C38	C	-0.043913	0.326552	0.500077
C39	C	-0.513592	-0.103852	0.000086
C40	C	-0.013592	0.396148	0.500086
C41	C	-0.562219	-0.035513	0.000093
C42	C	-0.062219	0.464487	0.500093
C43	C	-0.641161	-0.036776	0.000088
C44	C	-0.141161	0.463224	0.500088
C45	C	-0.243856	-0.030418	0.000113
C46	C	0.256144	0.469582	0.500113
C47	C	-0.164908	-0.029160	0.000115
C48	C	0.335092	0.470840	0.500115
C49	C	-0.146608	-0.167090	0.000101
C50	C	0.353392	0.332910	0.500101
C51	C	-0.225550	-0.168353	0.000097
C52	C	0.274450	0.331647	0.500097
C53	C	-0.274170	-0.100015	0.000108
C54	C	0.225830	0.399985	0.500108
C55	C	-0.359769	-0.101384	0.000098
C56	C	0.140231	0.398616	0.500098
C57	C	-0.427995	-0.102481	0.000090
C58	C	0.072005	0.397519	0.500090
C59	C	-0.888102	-0.240322	0.000087
C60	C	-0.388102	0.259678	0.500087
C61	C	-0.889440	-0.324340	0.000082
C62	C	-0.389440	0.175660	0.500082
C63	C	-0.966656	0.169090	0.000114
C64	C	-0.466656	0.669090	0.500114
C65	C	-0.965394	0.248033	0.000107
C66	C	-0.465394	0.748033	0.500107
C67	C	-0.895798	0.278354	0.000096
C68	C	-0.395798	0.778354	0.500096
C69	C	-0.827459	0.229727	0.000085
C70	C	-0.327459	0.729727	0.500085
C71	C	-0.828722	0.150785	0.000086
C72	C	-0.328722	0.650785	0.500086
C73	C	-0.822364	0.548090	0.000078
C74	C	-0.322364	1.048090	0.500078
C75	C	-0.821106	0.627038	0.000078
C76	C	-0.321106	1.127038	0.500078
C77	C	-0.959036	0.645338	0.000099
C78	C	-0.459036	1.145338	0.500099
C79	C	-0.960299	0.566396	0.000100
C80	C	-0.460299	1.066396	0.500100
C81	C	-0.891961	0.517776	0.000084
C82	C	-0.391961	1.017776	0.500084
C83	C	-0.893330	0.432177	0.000090
C84	C	-0.393330	0.932177	0.500090
C85	C	-0.894427	0.363951	0.000096
C86	C	-0.394427	0.863951	0.500096
N87	N	-0.893906	-0.101941	-0.206452
N88	N	-0.393906	0.398059	0.293548
C89	C	-0.945428	-0.050396	0.248372
C90	C	-0.445428	0.449604	0.748372
C91	C	-0.945432	-0.050396	0.331824
C92	C	-0.445432	0.449604	0.831824
C93	C	-0.893875	-0.101927	0.373549
C94	C	-0.393875	0.398073	0.873549
C95	C	-0.842305	-0.153457	0.331817
C96	C	-0.342305	0.346543	0.831817
C97	C	-0.842297	-0.153454	0.248366
C98	C	-0.342297	0.346546	0.748366
C99	C	-0.842332	-0.153472	0.668364
C100	C	-0.342332	0.346528	1.168364
C101	C	-0.842345	-0.153473	0.751820
C102	C	-0.342345	0.346527	1.251820
C103	C	-0.945466	-0.050414	0.751822
C104	C	-0.445466	0.449586	1.251822
C105	C	-0.945459	-0.050411	0.668372
C106	C	-0.445459	0.449589	1.168372
C107	C	-0.893887	-0.101938	0.626647
C108	C	-0.393887	0.398062	1.126647
C109	C	-0.893882	-0.101937	0.536158
C110	C	-0.393882	0.398063	1.036158
C111	C	-0.893882	-0.101932	0.464036
C112	C	-0.393882	0.398068	0.964036
H113	H	-0.647537	-0.231384	0.000058
H114	H	-0.147537	0.268616	0.500058
H115	H	-0.140225	0.027517	0.000124
H116	H	0.359775	0.527517	0.500124
C117	C	-0.786281	-0.209486	0.203204
C118	C	-0.286281	0.290514	0.703204
C119	C	-0.741144	-0.254630	0.257603
C120	C	-0.241144	0.245370	0.757603
C121	C	-0.689536	-0.306261	0.216030
C122	C	-0.189536	0.193739	0.716030
H123	H	-0.754753	-0.182384	0.170656
H124	H	-0.254753	0.317616	0.670656
H125	H	-0.813423	-0.240999	0.170657
H126	H	-0.313423	0.259001	0.670657
H127	H	-0.714003	-0.223121	0.290137
H128	H	-0.214003	0.276879	0.790137
H129	H	-0.772651	-0.281748	0.290152
H130	H	-0.272651	0.218252	0.790152
H131	H	-0.716679	-0.337774	0.183483
H132	H	-0.216679	0.162226	0.683483
H133	H	-0.658014	-0.279153	0.183485
H134	H	-0.158014	0.220847	0.683485
H135	H	-0.658910	-0.336902	0.252934
H136	H	-0.158910	0.163098	0.752934
H137	H	-1.016971	0.541714	0.000113
H138	H	-0.516971	1.041714	0.500113
C139	C	-1.001415	0.005661	0.797026
C140	C	-0.501415	0.505661	1.297026
C141	C	-0.989293	0.080021	0.776721
C142	C	-0.489293	0.580021	1.276721
C143	C	-1.040822	0.131694	0.818337
C144	C	-0.540822	0.631694	1.318337
H145	H	-0.994088	-0.001611	0.852713
H146	H	-0.494088	0.498389	1.352713
H147	H	-1.051924	-0.002449	0.783327
H148	H	-0.551924	0.497551	1.283327
H149	H	-0.938795	0.088128	0.790425
H150	H	-0.438795	0.588128	1.290425
H151	H	-0.996625	0.087317	0.721041
H152	H	-0.496625	0.587317	1.221041
H153	H	-1.091332	0.123584	0.804639
H154	H	-0.591332	0.623584	1.304639
H155	H	-1.033492	0.124415	0.874023
H156	H	-0.533492	0.624415	1.374023
H157	H	-1.032609	0.182152	0.804561
H158	H	-0.532609	0.682152	1.304561
C159	C	-0.296511	0.043858	0.000081
C160	C	0.203489	0.543858	0.500081
C161	C	-0.253058	0.105074	0.000067
C162	C	0.246942	0.605074	0.500067
C163	C	-0.301541	0.173511	0.000027
C164	C	0.198459	0.673511	0.500027
H165	H	-0.327704	0.046344	0.046301
H166	H	0.172296	0.546344	0.546301
H167	H	-0.327677	0.046275	-0.046170
H168	H	0.172323	0.546275	0.453830
H169	H	-0.221905	0.102658	0.046313
H170	H	0.278095	0.602658	0.546313
H171	H	-0.221867	0.102613	-0.046150
H172	H	0.278133	0.602613	0.453850
H173	H	-0.332707	0.175928	-0.046224
H174	H	0.167293	0.675928	0.453776
H175	H	-0.332731	0.175989	0.046248
H176	H	0.167269	0.675989	0.546248
H177	H	-0.272065	0.215055	0.000010
H178	H	0.227935	0.715055	0.500010
H179	H	-0.680748	0.018868	0.000091
H180	H	-0.180748	0.518868	0.500091
H181	H	-1.021038	0.287618	0.000116
H182	H	-0.521038	0.787618	0.500116
H183	H	-0.987419	-0.008438	0.365798
H184	H	-0.487419	0.491562	0.865798
C185	C	-0.748192	0.495275	-0.000098
C186	C	-0.248192	0.995275	0.499902
C187	C	-0.744880	0.449428	-0.068318
C188	C	-0.244880	0.949428	0.431682
C189	C	-0.676555	0.400771	-0.068513
C190	C	-0.176555	0.900771	0.431487
H191	H	-0.745734	0.464031	0.046078
H192	H	-0.245734	0.964031	0.546078
H193	H	-0.706545	0.524618	-0.000145
H194	H	-0.206545	1.024618	0.499855
H195	H	-0.786515	0.420087	-0.068264
H196	H	-0.286515	0.920087	0.431736
H197	H	-0.747325	0.480651	-0.114506
H198	H	-0.247325	0.980651	0.385494
H199	H	-0.634908	0.430114	-0.068559
H200	H	-0.134908	0.930114	0.431441
H201	H	-0.674103	0.369532	-0.022333
H202	H	-0.174103	0.869532	0.477667
H203	H	-0.674296	0.369663	-0.114802
H204	H	-0.174296	0.869663	0.385198
C205	C	-0.786274	-0.209453	0.796979
C206	C	-0.286274	0.290547	1.296979
C207	C	-0.741092	-0.254563	0.742578
C208	C	-0.241092	0.245437	1.242578
C209	C	-0.689429	-0.306129	0.784149
C210	C	-0.189429	0.193871	1.284149
H211	H	-0.813351	-0.241002	0.829526
H212	H	-0.313351	0.258998	1.329526
H213	H	-0.754789	-0.182279	0.829526
H214	H	-0.254789	0.317721	1.329526
H215	H	-0.772573	-0.281735	0.710045
H216	H	-0.272573	0.218265	1.210045
H217	H	-0.713999	-0.223035	0.710029
H218	H	-0.213999	0.276965	1.210029
H219	H	-0.657944	-0.278955	0.816696
H220	H	-0.157944	0.221045	1.316696
H221	H	-0.716511	-0.337673	0.816695
H222	H	-0.216511	0.162327	1.316695
H223	H	-0.658762	-0.336738	0.747244
H224	H	-0.158762	0.163262	1.247244
H225	H	-1.014680	0.684934	0.000107
H226	H	-0.514680	1.184934	0.500107
C227	C	-0.491164	-0.247666	-0.000097
C228	C	0.008836	0.252334	0.499903
C229	C	-0.504831	-0.289569	-0.068323
C230	C	-0.004831	0.210431	0.431677
C231	C	-0.456248	-0.357941	-0.068514
C232	C	0.043752	0.142059	0.431486
H233	H	-0.500302	-0.276301	0.046076
H234	H	-0.000302	0.223699	0.546076
H235	H	-0.439794	-0.236984	-0.000132
H236	H	0.060206	0.263016	0.499868
H237	H	-0.556189	-0.300253	-0.068280
H238	H	-0.056189	0.199747	0.431720
H239	H	-0.495688	-0.260957	-0.114506
H240	H	0.004312	0.239043	0.385494
H241	H	-0.404877	-0.347259	-0.068550
H242	H	0.095123	0.152741	0.431450
H243	H	-0.465390	-0.386569	-0.022339
H244	H	0.034610	0.113431	0.477661
H245	H	-0.465509	-0.386377	-0.114808
H246	H	0.034491	0.113623	0.385192
H247	H	-0.764429	0.651721	0.000071
H248	H	-0.264429	1.151721	0.500071
C249	C	-0.529156	0.039973	0.000063
C250	C	-0.029156	0.539973	0.500063
C251	C	-0.449615	0.026456	0.000043
C252	C	0.050385	0.526456	0.500043
C253	C	-0.419133	0.095977	0.000003
C254	C	0.080867	0.595977	0.500003
H255	H	-0.545771	0.068164	0.046285
H256	H	-0.045771	0.568164	0.546285
H257	H	-0.545811	0.068108	-0.046185
H258	H	-0.045811	0.568108	0.453815
H259	H	-0.432967	-0.001667	0.046288
H260	H	0.067033	0.498333	0.546288
H261	H	-0.432979	-0.001723	-0.046175
H262	H	0.067021	0.498277	0.453825
H263	H	-0.435788	0.124112	-0.046246
H264	H	0.064212	0.624112	0.453754
H265	H	-0.435753	0.124162	0.046226
H266	H	0.064247	0.624162	0.546226
H267	H	-0.365162	0.086815	-0.000018
H268	H	0.134838	0.586815	0.499982
H269	H	-0.107012	-0.222734	0.000097
H270	H	0.392988	0.277266	0.500097
H271	H	-0.800322	-0.195412	0.365793
H272	H	-0.300322	0.304588	0.865793
H273	H	-0.800342	-0.195428	0.634398
H274	H	-0.300342	0.304572	1.134398
H275	H	-1.023330	0.144409	0.000128
H276	H	-0.523330	0.644409	0.500128
H277	H	-0.773078	0.111198	0.000078
H278	H	-0.273078	0.611198	0.500078
H279	H	-0.987414	-0.008437	0.214406
H280	H	-0.487414	0.491563	0.714406
H281	H	-0.250232	-0.225025	0.000085
H282	H	0.249768	0.274975	0.500085
H283	H	-0.770792	0.254420	0.000071
H284	H	-0.270792	0.754420	0.500071
H285	H	-0.987444	-0.008452	0.634402
H286	H	-0.487444	0.491548	1.134402
