data_functionalizedCrystal
_audit_creation_method	'MofGen! by Chris Wilmer'
_symmetry_space_group_name_H-M	'P1'
_symmetry_Int_Tables_number	1
_symmetry_cell_setting	triclinic
loop_
_symmetry_equiv_pos_as_xyz
  x,y,z
_cell_length_a	9.798715
_cell_length_b	10.723024
_cell_length_c	27.732046
_cell_angle_alpha	83.554923
_cell_angle_beta	90.009434
_cell_angle_gamma	90.003391
loop_
_atom_site_label
_atom_site_type_symbol
_atom_site_fract_x
_atom_site_fract_y
_atom_site_fract_z
O1	O	-0.113503	-1.654381	-0.067789
O2	O	-0.113510	-1.290960	-0.074278
O3	O	-0.113476	-1.483959	-0.000707
O4	O	-0.113537	-1.461382	-0.141360
O5	O	0.113506	-1.483944	-0.000707
O6	O	0.113472	-1.290946	-0.074278
O7	O	0.113479	-1.654367	-0.067789
Zn8	Zn	0.149514	-1.472654	-0.071033
Zn9	Zn	-0.149545	-1.472673	-0.071034
O10	O	0.113445	-1.461368	-0.141360
C11	C	-0.000019	-1.244473	-0.073806
C12	C	-0.000020	-1.105977	-0.072393
N13	N	0.353614	-1.472650	-0.071033
N14	N	-0.353645	-1.472686	-0.071030
C15	C	0.000020	-1.483478	0.017303
C16	C	0.000035	-1.482052	0.070967
C17	C	0.421405	-1.553691	-0.040006
C18	C	0.578568	-1.553711	-0.040005
C19	C	-0.000015	-1.700854	-0.068261
C20	C	-0.000023	-1.839350	-0.069674
C21	C	-0.000039	-1.029290	-0.113559
C22	C	-0.000040	-0.886147	-0.112100
C23	C	-0.000011	-1.587123	0.409130
C24	C	-0.000016	-1.581832	0.610822
O25	O	-0.000072	-1.677908	0.641482
N26	N	-0.000016	-1.467393	0.630657
C27	C	-0.000022	-1.354268	0.600065
O28	O	-0.000036	-1.256809	0.621563
C29	C	-0.000027	-1.359560	0.398373
C30	C	-0.000013	-1.474007	0.378542
C31	C	0.000001	-1.701560	0.389298
C32	C	0.000010	-1.702882	0.338878
C33	C	0.000007	-1.589766	0.308289
C34	C	-0.000005	-1.475329	0.328121
C35	C	-0.000043	-1.246437	0.367782
C36	C	-0.000048	-1.247771	0.317356
C37	C	-0.000035	-1.362217	0.297525
C38	C	0.000002	-1.363534	0.247113
N39	N	0.000001	-1.477974	0.227278
C40	C	0.000004	-1.591089	0.257867
C41	C	-0.000018	-1.351498	0.705956
C42	C	-0.000014	-1.350174	0.756379
C43	C	-0.000010	-1.577739	0.767133
C44	C	-0.000004	-1.579061	0.716709
C45	C	-0.000018	-1.465937	0.686122
C46	C	0.000023	-1.593856	0.151980
C47	C	0.000038	-1.595168	0.101555
C48	C	0.000027	-1.367604	0.090805
C49	C	0.000020	-1.366292	0.141226
C50	C	0.000013	-1.479428	0.171813
O51	O	0.000042	-1.267510	0.216425
O52	O	-0.000013	-1.688534	0.236359
C53	C	-0.000019	-1.585801	0.459550
C54	C	-0.000031	-1.471364	0.479382
C55	C	-0.000034	-1.358248	0.448794
C56	C	-0.000028	-1.470041	0.529805
C57	C	-0.000025	-1.583157	0.560393
C58	C	-0.000025	-1.697596	0.540559
C59	C	-0.000017	-1.698917	0.490138
C60	C	-0.000033	-1.243809	0.468628
C61	C	-0.000041	-1.242497	0.519049
C62	C	-0.000038	-1.355613	0.549637
C63	C	-0.000038	-1.461853	0.840630
C64	C	-0.000011	-1.463290	0.786967
H65	H	0.363095	-1.623054	-0.013442
H66	H	0.636865	-1.623098	-0.013443
Br67	Br	0.549205	-1.357044	-0.115312
Br68	Br	0.000022	-1.038792	-0.011846
H69	H	-0.000001	-1.256980	0.772521
H70	H	0.411926	-1.403278	-0.097593
H71	H	-0.000047	-1.069608	-0.149884
Br72	Br	-0.000084	-0.776331	-0.170843
H73	H	-0.000039	-1.151694	0.443727
Br74	Br	0.000057	-1.750498	0.074645
Br75	Br	0.000013	-1.747399	0.193483
H76	H	-0.000061	-1.155649	0.292453
Br77	Br	-0.000011	-1.858211	0.311972
Br78	Br	0.000004	-1.855096	0.430802
H79	H	-0.000015	-0.905234	-0.034430
Br80	Br	0.000017	-1.734386	0.689801
Br81	Br	-0.000039	-1.197957	0.664451
H82	H	0.000047	-1.273100	0.157373
Br83	Br	-0.000066	-1.091107	0.394683
Br84	Br	-0.000011	-1.851109	0.582081
Br85	Br	0.000024	-1.214097	0.049283
H86	H	-0.000007	-1.669842	0.792047
Br87	Br	-0.000048	-1.087161	0.545956
H88	H	-0.000006	-1.792111	0.473997
