data_functionalizedCrystal
_audit_creation_method	'MofGen! by Chris Wilmer'
_symmetry_space_group_name_H-M	'P1'
_symmetry_Int_Tables_number	1
_symmetry_cell_setting	triclinic
loop_
_symmetry_equiv_pos_as_xyz
  x,y,z
_cell_length_a	19.805407
_cell_length_b	18.050589
_cell_length_c	19.805399
_cell_angle_alpha	89.977706
_cell_angle_beta	89.980427
_cell_angle_gamma	90.028221
loop_
_atom_site_label
_atom_site_type_symbol
_atom_site_fract_x
_atom_site_fract_y
_atom_site_fract_z
Zn1	Zn	1.034727	-0.295677	-0.382745
Zn2	Zn	1.368060	0.037657	-0.049411
Zn3	Zn	1.701394	0.370990	0.283922
Zn4	Zn	1.034638	-0.419869	-0.269567
Zn5	Zn	1.367972	-0.086535	0.063767
Zn6	Zn	1.701305	0.246798	0.397100
Zn7	Zn	0.921542	-0.295697	-0.269569
Zn8	Zn	1.254875	0.037636	0.063764
Zn9	Zn	1.588208	0.370970	0.397098
Zn10	Zn	0.921502	-0.419829	-0.382713
Zn11	Zn	1.254835	-0.086496	-0.049380
Zn12	Zn	1.588168	0.246837	0.283953
O13	O	0.978102	-0.357768	-0.326148
O14	O	1.311436	-0.024435	0.007185
O15	O	1.644769	0.308899	0.340518
O16	O	1.129432	-0.312159	-0.367743
O17	O	1.462765	0.021174	-0.034410
O18	O	1.796099	0.354508	0.298923
O19	O	1.019616	-0.403422	-0.174850
O20	O	1.352949	-0.070089	0.158483
O21	O	1.686282	0.263244	0.491816
O22	O	0.936610	-0.191770	-0.284596
O23	O	1.269943	0.141564	0.048737
O24	O	1.603277	0.474897	0.382071
O25	O	1.129367	-0.403402	-0.284592
O26	O	1.462700	-0.070069	0.048741
O27	O	1.796033	0.263264	0.382075
O28	O	1.019767	-0.191755	-0.367746
O29	O	1.353100	0.141579	-0.034412
O30	O	1.686433	0.474912	0.298921
O31	O	0.936524	-0.312194	-0.174852
O32	O	1.269857	0.021139	0.158481
O33	O	1.603191	0.354473	0.491814
O34	O	0.826820	-0.312156	-0.284566
O35	O	1.160153	0.021178	0.048767
O36	O	1.493487	0.354511	0.382101
O37	O	0.936542	-0.403335	-0.477434
O38	O	1.269875	-0.070002	-0.144101
O39	O	1.603208	0.263332	0.189232
O40	O	0.826791	-0.403355	-0.367693
O41	O	1.160124	-0.070022	-0.034359
O42	O	1.493457	0.263312	0.298974
O43	O	1.019728	-0.312121	-0.477457
O44	O	1.353061	0.021213	-0.144124
O45	O	1.686395	0.354546	0.189210
O46	O	1.019577	-0.523788	-0.284562
O47	O	1.352910	-0.190455	0.048771
O48	O	1.686243	0.142878	0.382105
O49	O	0.936456	-0.523759	-0.367690
O50	O	1.269789	-0.190426	-0.034357
O51	O	1.603122	0.142907	0.298976
C52	C	0.802246	-0.357754	-0.326127
C53	C	1.135580	-0.024420	0.007207
C54	C	1.468913	0.308913	0.340540
C55	C	0.727014	-0.357766	-0.326133
C56	C	1.060348	-0.024432	0.007200
C57	C	1.393681	0.308901	0.340533
C58	C	0.691673	-0.405325	-0.369347
C59	C	1.025006	-0.071991	-0.036014
C60	C	1.358339	0.261342	0.297319
C61	C	0.620984	-0.405326	-0.369357
C62	C	0.954317	-0.071993	-0.036023
C63	C	1.287651	0.261341	0.297310
C64	C	0.585639	-0.357771	-0.326148
C65	C	0.918972	-0.024438	0.007185
C66	C	1.252305	0.308895	0.340518
C67	C	0.620985	-0.310207	-0.282933
C68	C	0.954319	0.023126	0.050401
C69	C	1.287652	0.356460	0.383734
C70	C	0.691673	-0.310203	-0.282927
C71	C	1.025006	0.023131	0.050406
C72	C	1.358339	0.356464	0.383740
C73	C	0.335912	-0.310224	-0.282955
C74	C	0.669245	0.023110	0.050378
C75	C	1.002579	0.356443	0.383712
C76	C	0.265220	-0.310233	-0.282962
C77	C	0.598553	0.023100	0.050371
C78	C	0.931887	0.356433	0.383704
C79	C	0.265224	-0.405347	-0.369385
C80	C	0.598557	-0.072013	-0.036051
C81	C	0.931890	0.261320	0.297282
C82	C	0.335911	-0.405342	-0.369379
C83	C	0.669244	-0.072009	-0.036046
C84	C	1.002577	0.261324	0.297288
C85	C	0.371251	-0.357776	-0.326166
C86	C	0.704585	-0.024442	0.007167
C87	C	1.037918	0.308891	0.340501
C88	C	0.447900	-0.357774	-0.326157
C89	C	0.781233	-0.024440	0.007176
C90	C	1.114566	0.308893	0.340509
C91	C	0.508992	-0.357776	-0.326153
C92	C	0.842325	-0.024443	0.007180
C93	C	1.175658	0.308890	0.340513
C94	C	0.978021	-0.550720	-0.326137
C95	C	1.311354	-0.217387	0.007196
C96	C	1.644687	0.115947	0.340529
C97	C	0.978048	-0.633266	-0.326155
C98	C	1.311381	-0.299933	0.007178
C99	C	1.644714	0.033401	0.340512
C100	C	0.932891	-0.832728	-0.371344
C101	C	1.266224	-0.499394	-0.038011
C102	C	1.599557	-0.166061	0.295322
C103	C	0.916392	-0.882167	-0.309581
C104	C	1.249726	-0.548833	0.023752
C105	C	1.583059	-0.215500	0.357085
C106	C	0.978114	-0.784396	-0.326164
C107	C	1.311447	-0.451063	0.007169
C108	C	1.644781	-0.117730	0.340503
C109	C	0.994646	-0.882039	-0.387934
C110	C	1.327979	-0.548706	-0.054601
C111	C	1.661312	-0.215372	0.278733
C112	C	0.978177	-0.930381	-0.326178
C113	C	1.311510	-0.597048	0.007156
C114	C	1.644844	-0.263715	0.340489
C115	C	0.961583	-0.832748	-0.264368
C116	C	1.294917	-0.499415	0.068965
C117	C	1.628250	-0.166081	0.402299
C118	C	1.039865	-0.832616	-0.342762
C119	C	1.373198	-0.499283	-0.009429
C120	C	1.706532	-0.165949	0.323904
C121	C	1.023390	-0.882033	-0.280957
C122	C	1.356724	-0.548699	0.052377
C123	C	1.690057	-0.215366	0.385710
C124	C	0.978076	-0.700298	-0.326157
C125	C	1.311409	-0.366965	0.007177
C126	C	1.644743	-0.033631	0.340510
C127	C	0.978215	-1.014478	-0.326178
C128	C	1.311548	-0.681144	0.007155
C129	C	1.644882	-0.347811	0.340489
C130	C	1.154645	-0.357783	-0.326171
C131	C	1.487978	-0.024449	0.007163
C132	C	1.821312	0.308884	0.340496
C133	C	1.229877	-0.357789	-0.326180
C134	C	1.563210	-0.024456	0.007153
C135	C	1.896544	0.308878	0.340486
C136	C	0.978140	-0.357721	-0.502691
C137	C	1.311474	-0.024388	-0.169358
C138	C	1.644807	0.308945	0.163975
C139	C	0.978156	-0.357701	-0.577923
C140	C	1.311490	-0.024368	-0.244590
C141	C	1.644823	0.308965	0.088743
C142	C	0.978203	-0.164062	-0.326175
C143	C	1.311536	0.169271	0.007159
C144	C	1.644869	0.502604	0.340492
C145	C	0.978246	-0.081517	-0.326186
C146	C	1.311579	0.251817	0.007148
C147	C	1.644912	0.585150	0.340481
C148	C	1.021472	-0.310204	-0.613280
C149	C	1.354806	0.023130	-0.279947
C150	C	1.688139	0.356463	0.053386
C151	C	1.021479	-0.310182	-0.683969
C152	C	1.354813	0.023151	-0.350636
C153	C	1.688146	0.356485	-0.017302
C154	C	0.978173	-0.357662	-0.719299
C155	C	1.311507	-0.024329	-0.385966
C156	C	1.644840	0.309004	-0.052632
C157	C	0.934852	-0.405162	-0.683937
C158	C	1.268186	-0.071829	-0.350603
C159	C	1.601519	0.261504	-0.017270
C160	C	0.934843	-0.405180	-0.613250
C161	C	1.268176	-0.071846	-0.279916
C162	C	1.601509	0.261487	0.053417
C163	C	0.934891	-0.405093	-0.969010
C164	C	1.268224	-0.071760	-0.635677
C165	C	1.601557	0.261574	-0.302344
C166	C	0.934905	-0.405074	-1.039702
C167	C	1.268239	-0.071740	-0.706369
C168	C	1.601572	0.261593	-0.373036
C169	C	1.021527	-0.310096	-1.039729
C170	C	1.354861	0.023238	-0.706396
C171	C	1.688194	0.356571	-0.373063
C172	C	1.021518	-0.310113	-0.969042
C173	C	1.354851	0.023221	-0.635709
C174	C	1.688184	0.356554	-0.302376
C175	C	0.978195	-0.357609	-0.933686
C176	C	1.311528	-0.024276	-0.600353
C177	C	1.644861	0.309057	-0.267020
C178	C	0.978187	-0.357631	-0.857038
C179	C	1.311520	-0.024298	-0.523705
C180	C	1.644853	0.309035	-0.190371
C181	C	0.978184	-0.357645	-0.795946
C182	C	1.311517	-0.024312	-0.462613
C183	C	1.644851	0.309022	-0.129279
C184	C	0.978103	-0.357761	-0.150292
C185	C	1.311437	-0.024428	0.183041
C186	C	1.644770	0.308906	0.516374
C187	C	0.978218	-0.357572	-0.075061
C188	C	1.311552	-0.024238	0.258272
C189	C	1.644885	0.309095	0.591606
H190	H	0.364678	-0.271497	-0.247763
H191	H	0.698011	0.061836	0.085570
H192	H	1.031345	0.395169	0.418904
H193	H	1.056740	-0.271542	-0.584520
H194	H	1.390073	0.061792	-0.251186
H195	H	1.723406	0.395125	0.082147
H196	H	0.592202	-0.271484	-0.247754
H197	H	0.925535	0.061849	0.085579
H198	H	1.258868	0.395182	0.418912
H199	H	1.008603	-0.903691	-0.440167
H200	H	1.341936	-0.570358	-0.106834
H201	H	1.675270	-0.237024	0.226500
O202	O	0.854133	-0.908224	-0.292927
O203	O	1.187467	-0.574891	0.040407
O204	O	1.520800	-0.241558	0.373740
C205	C	0.758462	-0.981680	-0.327139
C206	C	1.091796	-0.648346	0.006194
C207	C	1.425129	-0.315013	0.339528
C208	C	0.828973	-0.952239	-0.346072
C209	C	1.162306	-0.618906	-0.012739
C210	C	1.495639	-0.285572	0.320594
H211	H	0.738093	-1.017259	-0.370102
H212	H	1.071426	-0.683925	-0.036769
H213	H	1.404760	-0.350592	0.296565
H214	H	0.762154	-1.016494	-0.279244
H215	H	1.095487	-0.683161	0.054089
H216	H	1.428820	-0.349828	0.387423
H217	H	0.722918	-0.933030	-0.318068
H218	H	1.056252	-0.599697	0.015265
H219	H	1.389585	-0.266363	0.348598
H220	H	0.864555	-1.000843	-0.355178
H221	H	1.197889	-0.667510	-0.021845
H222	H	1.531222	-0.334177	0.311488
H223	H	0.825228	-0.917402	-0.393949
H224	H	1.158561	-0.584069	-0.060616
H225	H	1.491895	-0.250736	0.272718
H226	H	0.899563	-0.443850	-0.584463
H227	H	1.232897	-0.110516	-0.251129
H228	H	1.566230	0.222817	0.082204
H229	H	1.092045	-0.810837	-0.356819
H230	H	1.425378	-0.477504	-0.023485
H231	H	1.758711	-0.144170	0.309848
H232	H	1.056784	-0.271452	-0.940280
H233	H	1.390118	0.061882	-0.606947
H234	H	1.723451	0.395215	-0.273613
O235	O	0.586575	-0.451563	-0.411236
O236	O	0.919909	-0.118230	-0.077903
O237	O	1.253242	0.215104	0.255430
C238	C	0.506757	-0.551874	-0.420179
C239	C	0.840090	-0.218540	-0.086846
C240	C	1.173424	0.114793	0.246488
C241	C	0.545672	-0.499544	-0.372674
C242	C	0.879005	-0.166211	-0.039340
C243	C	1.212339	0.167123	0.293993
H244	H	0.473688	-0.590690	-0.389020
H245	H	0.807022	-0.257356	-0.055686
H246	H	1.140355	0.075977	0.277647
H247	H	0.473647	-0.517873	-0.455617
H248	H	0.806980	-0.184540	-0.122284
H249	H	1.140313	0.148794	0.211049
H250	H	0.544170	-0.585833	-0.451074
H251	H	0.877503	-0.252500	-0.117740
H252	H	1.210837	0.080833	0.215593
H253	H	0.508308	-0.465573	-0.341735
H254	H	0.841641	-0.132240	-0.008402
H255	H	1.174974	0.201094	0.324932
H256	H	0.578793	-0.533587	-0.337280
H257	H	0.912126	-0.200254	-0.003946
H258	H	1.245459	0.133080	0.329387
H259	H	0.720447	-0.271471	-0.247741
H260	H	1.053780	0.061862	0.085592
H261	H	1.387114	0.395195	0.418926
O262	O	0.887245	-0.806983	-0.416946
O263	O	1.220579	-0.473650	-0.083613
O264	O	1.553912	-0.140316	0.249720
C265	C	0.852357	-0.803870	-0.533459
C266	C	1.185691	-0.470537	-0.200125
C267	C	1.519024	-0.137203	0.133208
C268	C	0.904089	-0.833091	-0.481889
C269	C	1.237422	-0.499758	-0.148556
C270	C	1.570755	-0.166424	0.184778
H271	H	0.865965	-0.824953	-0.585978
H272	H	1.199298	-0.491620	-0.252645
H273	H	1.532631	-0.158287	0.080688
H274	H	0.799748	-0.824253	-0.519240
H275	H	1.133081	-0.490920	-0.185907
H276	H	1.466414	-0.157587	0.147426
H277	H	0.853088	-0.740718	-0.533337
H278	H	1.186421	-0.407384	-0.200004
H279	H	1.519754	-0.074051	0.133329
H280	H	0.903419	-0.896241	-0.481984
H281	H	1.236753	-0.562908	-0.148650
H282	H	1.570086	-0.229574	0.184683
H283	H	0.956675	-0.812651	-0.496126
H284	H	1.290008	-0.479317	-0.162792
H285	H	1.623341	-0.145984	0.170541
O286	O	0.230963	-0.264068	-0.240893
O287	O	0.564296	0.069265	0.092440
O288	O	0.897630	0.402598	0.425774
C289	C	0.209276	-0.227877	-0.125816
C290	C	0.542610	0.105456	0.207517
C291	C	0.875943	0.438789	0.540851
C292	C	0.248123	-0.280188	-0.173382
C293	C	0.581456	0.053145	0.159951
C294	C	0.914790	0.386478	0.493284
H295	H	0.223125	-0.240902	-0.071223
H296	H	0.556458	0.092431	0.262110
H297	H	0.889792	0.425765	0.595444
H298	H	0.223214	-0.167998	-0.137742
H299	H	0.556548	0.165335	0.195591
H300	H	0.889881	0.498668	0.528925
H301	H	0.152686	-0.236039	-0.133273
H302	H	0.486020	0.097294	0.200061
H303	H	0.819353	0.430628	0.533394
H304	H	0.304722	-0.272093	-0.165952
H305	H	0.638055	0.061241	0.167381
H306	H	0.971389	0.394574	0.500715
H307	H	0.234129	-0.340048	-0.161445
H308	H	0.567462	-0.006715	0.171889
H309	H	0.900796	0.326619	0.505222
H310	H	0.364686	-0.444069	-0.404562
H311	H	0.698019	-0.110735	-0.071228
H312	H	1.031352	0.222598	0.262105
H313	H	1.056801	-0.271419	-1.068525
H314	H	1.390134	0.061915	-0.735191
H315	H	1.723468	0.395248	-0.401858
O316	O	1.063623	-0.264022	-0.718210
O317	O	1.396957	0.069311	-0.384877
O318	O	1.730290	0.402645	-0.051543
C319	C	1.149520	-0.169791	-0.710777
C320	C	1.482854	0.163543	-0.377444
C321	C	1.816187	0.496876	-0.044110
C322	C	1.101837	-0.222044	-0.671916
C323	C	1.435170	0.111290	-0.338583
C324	C	1.768503	0.444623	-0.005249
H325	H	1.180418	-0.135827	-0.673365
H326	H	1.513752	0.197507	-0.340032
H327	H	1.847085	0.530840	-0.006699
H328	H	1.184941	-0.203848	-0.743856
H329	H	1.518275	0.129485	-0.410522
H330	H	1.851608	0.462819	-0.077189
H331	H	1.118462	-0.130975	-0.743888
H332	H	1.451796	0.202358	-0.410554
H333	H	1.785129	0.535691	-0.077221
H334	H	1.132840	-0.260870	-0.638769
H335	H	1.466174	0.072464	-0.305435
H336	H	1.799507	0.405797	0.027898
H337	H	1.066414	-0.187940	-0.638880
H338	H	1.399747	0.145393	-0.305547
H339	H	1.733081	0.478727	0.027787
H340	H	0.899637	-0.443740	-1.068466
H341	H	1.232971	-0.110406	-0.735133
H342	H	1.566304	0.222927	-0.401800
H343	H	0.947565	-0.811186	-0.212121
H344	H	1.280899	-0.477852	0.121213
H345	H	1.614232	-0.144519	0.454546
H346	H	1.061661	-0.903545	-0.242711
H347	H	1.394994	-0.570212	0.090623
H348	H	1.728328	-0.236879	0.423956
H349	H	0.899624	-0.443779	-0.940232
H350	H	1.232958	-0.110445	-0.606899
H351	H	1.566291	0.222888	-0.273565
O352	O	0.892847	-0.451260	-0.718359
O353	O	1.226180	-0.117927	-0.385026
O354	O	1.559513	0.215407	-0.051692
C355	C	0.854441	-0.493298	-0.827242
C356	C	1.187774	-0.159964	-0.493908
C357	C	1.521108	0.173369	-0.160575
C358	C	0.902058	-0.441065	-0.788346
C359	C	1.235391	-0.107731	-0.455012
C360	C	1.568724	0.225602	-0.121679
H361	H	0.861861	-0.485062	-0.883833
H362	H	1.195195	-0.151728	-0.550499
H363	H	1.528528	0.181605	-0.217166
H364	H	0.866293	-0.553202	-0.813386
H365	H	1.199626	-0.219869	-0.480053
H366	H	1.532959	0.113465	-0.146720
H367	H	0.799876	-0.480261	-0.813294
H368	H	1.133210	-0.146927	-0.479961
H369	H	1.466543	0.186406	-0.146627
H370	H	0.956638	-0.454035	-0.802272
H371	H	1.289972	-0.120701	-0.468939
H372	H	1.623305	0.212632	-0.135606
H373	H	0.890148	-0.381176	-0.802204
H374	H	1.223481	-0.047842	-0.468871
H375	H	1.556814	0.285491	-0.135537
H376	H	0.720446	-0.444052	-0.404530
H377	H	1.053779	-0.110718	-0.071197
H378	H	1.387112	0.222615	0.262136
H379	H	0.236441	-0.444075	-0.404574
H380	H	0.569774	-0.110742	-0.071240
H381	H	0.903108	0.222592	0.262093
