data_functionalizedCrystal
_audit_creation_method	'MofGen! by Chris Wilmer'
_symmetry_space_group_name_H-M	'P1'
_symmetry_Int_Tables_number	1
_symmetry_cell_setting	triclinic
loop_
_symmetry_equiv_pos_as_xyz
  x,y,z
_cell_length_a	8.497374
_cell_length_b	12.759401
_cell_length_c	12.759400
_cell_angle_alpha	89.985155
_cell_angle_beta	89.991978
_cell_angle_gamma	90.000368
loop_
_atom_site_label
_atom_site_type_symbol
_atom_site_fract_x
_atom_site_fract_y
_atom_site_fract_z
Zn1	Zn	0.891904	1.606068	0.418444
Zn2	Zn	0.628108	1.606017	0.594091
Zn3	Zn	0.628137	1.430425	0.418427
Zn4	Zn	0.891846	1.430358	0.594082
O5	O	0.759999	1.518217	0.506261
O6	O	0.856923	1.753082	0.441755
O7	O	0.407350	1.582732	0.570785
O8	O	0.663163	1.453773	0.271408
O9	O	0.663113	1.753045	0.570802
O10	O	0.856951	1.582817	0.271421
O11	O	0.407371	1.453725	0.441725
O12	O	0.663107	1.283395	0.441717
O13	O	1.112616	1.453659	0.570787
O14	O	0.856853	1.283346	0.570770
O15	O	1.112658	1.582752	0.441746
O16	O	0.663058	1.582667	0.741110
O17	O	0.856824	1.453611	0.741104
C18	C	0.759978	1.245250	0.506241
C19	C	0.760006	1.128473	0.506258
C20	C	0.759966	1.518155	0.779228
C21	C	0.760005	1.518224	0.896005
C22	C	0.860722	1.073613	0.573564
C23	C	0.860739	0.963889	0.573577
C24	C	0.659310	0.963895	0.438977
C25	C	0.659302	1.073617	0.438959
C26	C	0.977011	1.073609	0.651278
C27	C	0.977028	0.963885	0.651291
C28	C	1.171479	1.518209	0.506262
C29	C	1.350123	1.518212	0.506274
C30	C	0.760021	1.792250	0.506281
C31	C	0.760031	1.909027	0.506290
C32	C	0.760066	1.518308	0.232228
C33	C	0.760095	1.518347	0.115451
C34	C	0.659222	1.585498	0.950835
C35	C	0.659270	1.585563	1.060559
C36	C	0.860889	1.451070	1.060613
C37	C	0.860847	1.451012	0.950891
C38	C	0.542814	1.663143	0.950805
C39	C	0.542862	1.663208	1.060529
H40	H	0.577299	1.118280	0.384145
H41	H	0.575625	1.744480	0.920956
H42	H	0.944096	0.934096	0.732632
O43	O	0.958689	1.385814	1.114093
C44	C	0.937152	1.400312	1.222695
H45	H	0.815455	1.434796	1.237688
H46	H	1.030810	1.456228	1.253758
C47	C	1.100974	1.251681	1.260697
C48	C	0.951498	1.294026	1.279113
H49	H	1.109830	1.186121	1.295500
H50	H	1.115490	1.241915	1.187531
H51	H	1.179006	1.298287	1.286583
H52	H	0.873470	1.247427	1.253215
H53	H	0.936969	1.303782	1.352277
H54	H	0.426703	1.634043	0.916826
O55	O	0.561528	0.910443	0.373713
C56	C	0.583159	0.801835	0.388140
H57	H	0.634625	0.786842	0.469274
H58	H	0.667327	0.770707	0.325912
C59	C	0.360356	0.763911	0.278709
C60	C	0.423555	0.745497	0.378363
H61	H	0.261907	0.729157	0.272674
H62	H	0.345785	0.837082	0.268986
H63	H	0.430511	0.737971	0.226863
H64	H	0.353410	0.771448	0.430206
H65	H	0.438110	0.672328	0.388095
H66	H	1.093178	0.929862	0.622279
H67	H	0.586726	1.740503	1.094486
H68	H	0.933039	1.107632	0.728518
O69	O	0.958537	1.385618	0.897510
C70	C	0.868619	1.317755	0.834138
H71	H	0.749098	1.354858	0.817705
H72	H	0.851218	1.239926	0.876488
C73	C	1.102152	1.253068	0.750087
C74	C	0.955360	1.298642	0.729896
H75	H	1.155660	1.241273	0.685788
H76	H	1.162734	1.298785	0.792785
H77	H	1.087631	1.188215	0.785381
H78	H	0.969884	1.363499	0.694615
H79	H	0.894783	1.252935	0.687190
O80	O	0.397209	1.637182	1.096253
C81	C	0.407273	1.545550	1.157672
H82	H	0.532264	1.536642	1.188873
H83	H	0.376060	1.474541	1.107604
C84	C	0.138069	1.564355	1.211925
C85	C	0.291583	1.553419	1.250255
H86	H	0.066702	1.569205	1.269032
H87	H	0.131286	1.626087	1.170543
H88	H	0.112081	1.505178	1.170202
H89	H	0.317576	1.612601	1.291965
H90	H	0.298368	1.491697	1.291646
H91	H	1.099249	1.103391	0.629612
