data_functionalizedCrystal
_audit_creation_method	'MofGen! by Chris Wilmer'
_symmetry_space_group_name_H-M	'P1'
_symmetry_Int_Tables_number	1
_symmetry_cell_setting	triclinic
loop_
_symmetry_equiv_pos_as_xyz
  x,y,z
_cell_length_a	31.640172
_cell_length_b	31.640172
_cell_length_c	12.970454
_cell_angle_alpha	59.998188
_cell_angle_beta	90.004135
_cell_angle_gamma	60.004780
loop_
_atom_site_label
_atom_site_type_symbol
_atom_site_fract_x
_atom_site_fract_y
_atom_site_fract_z
Zr1	Zr	0.407245	0.462535	-0.135155
O2	O	0.339767	0.550711	-0.299799
O3	O	0.427922	0.374366	-0.084684
O4	O	0.427934	0.462533	-0.299773
O5	O	0.339756	0.462543	0.084957
O6	O	0.497491	0.462524	-0.299750
O7	O	0.339756	0.462544	-0.084711
O8	O	0.497470	0.304809	0.085004
O9	O	0.339777	0.620258	-0.299797
O10	O	0.488661	0.410622	-0.063140
O11	O	0.436751	0.410628	0.063464
O12	O	0.436765	0.514434	-0.189775
O13	O	0.384856	0.514440	-0.063171
Zr14	Zr	0.518181	0.462521	0.135481
Zr15	Zr	0.518181	0.462521	-0.135119
Zr16	Zr	0.407246	0.462535	0.135445
Zr17	Zr	0.407260	0.573455	-0.135152
Zr18	Zr	0.518166	0.351600	0.135478
O19	O	0.497504	0.550690	0.085011
O20	O	0.497503	0.550691	-0.299748
O21	O	0.339768	0.550710	0.084959
O22	O	0.585659	0.374345	0.300125
O23	O	0.585658	0.374346	-0.084633
O24	O	0.427923	0.374365	0.300074
O25	O	0.585670	0.462513	-0.084631
O26	O	0.497492	0.462523	0.300099
O27	O	0.427935	0.462532	0.300076
O28	O	0.585671	0.462512	0.085037
O29	O	0.427956	0.620247	-0.299768
O30	O	0.497471	0.304809	0.300095
O31	O	0.585649	0.304798	0.300123
O32	O	0.585649	0.304798	0.085032
O33	O	0.339777	0.620258	-0.084706
O34	O	0.427956	0.620247	-0.084678
O35	O	0.488661	0.410622	0.190101
O36	O	0.540571	0.410615	0.063497
O37	O	0.488675	0.514427	-0.063137
O38	O	0.436766	0.514434	0.063467
C39	C	0.462694	0.323784	0.000159
C40	C	0.462688	0.276695	0.000158
C41	C	0.489820	-0.015350	-0.065911
C42	C	0.489830	-0.192346	-0.065911
O43	O	0.512894	-0.215253	-0.122069
N44	N	0.462734	-0.214472	0.000173
C45	C	0.435635	-0.192349	0.066268
O46	O	0.412592	-0.215234	0.122486
C47	C	0.435628	-0.015357	0.066274
C48	C	0.462722	0.006771	0.000175
C49	C	0.516912	0.006777	-0.132003
C50	C	0.516907	0.051026	-0.132008
C51	C	0.489809	0.073147	-0.065921
C52	C	0.462717	0.051020	0.000170
C53	C	0.408532	0.006762	0.132375
C54	C	0.408534	0.051012	0.132373
C55	C	0.435628	0.073140	0.066275
C56	C	0.435614	0.117389	0.066252
N57	N	0.462711	0.139515	0.000168
C58	C	0.489808	0.117394	-0.065918
C59	C	0.435640	-0.285271	0.066258
C60	C	0.435641	-0.329518	0.066255
C61	C	0.489837	-0.329513	-0.065922
C62	C	0.489833	-0.285262	-0.065925
C63	C	0.462737	-0.263145	0.000174
C64	C	0.489795	0.210320	-0.065925
C65	C	0.489785	0.254574	-0.065929
C66	C	0.435592	0.254563	0.066253
C67	C	0.435599	0.210315	0.066251
C68	C	0.462704	0.188193	0.000160
O69	O	0.412567	0.140320	0.122392
O70	O	0.512857	0.140277	-0.122106
C71	C	0.489825	-0.059599	-0.065906
C72	C	0.462732	-0.081726	0.000186
C73	C	0.435635	-0.059605	0.066272
C74	C	0.462733	-0.125973	0.000182
C75	C	0.489831	-0.148094	-0.065904
C76	C	0.516928	-0.125969	-0.131988
C77	C	0.516923	-0.081720	-0.131993
C78	C	0.408538	-0.081731	0.132356
C79	C	0.408545	-0.125979	0.132354
C80	C	0.435643	-0.148100	0.066268
C81	C	0.323950	0.462545	0.000118
C82	C	0.276855	0.462551	0.000103
C83	C	0.011938	0.408334	0.066291
C84	C	-0.165047	0.408323	0.066316
O85	O	-0.164895	0.362237	0.122579
N86	N	-0.214266	0.462511	0.000212
C87	C	-0.219238	0.516706	-0.065896
O88	O	-0.265162	0.562796	-0.122110
C89	C	-0.042253	0.516716	-0.065913
C90	C	0.006965	0.462524	0.000185
C91	C	0.061154	0.354146	0.132384
C92	C	0.105397	0.354149	0.132372
C93	C	0.100425	0.408340	0.066266
C94	C	0.051208	0.462527	0.000172
C95	C	-0.047225	0.570910	-0.132013
C96	C	-0.002974	0.570908	-0.132008
C97	C	0.046244	0.516716	-0.065911
C98	C	0.090479	0.516721	-0.065946
N99	N	0.139698	0.462533	0.000158
C100	C	0.144671	0.408342	0.066264
C101	C	-0.312155	0.516697	-0.065885
C102	C	-0.356401	0.516695	-0.065882
C103	C	-0.302208	0.408312	0.066332
C104	C	-0.257961	0.408315	0.066321
C105	C	-0.262936	0.462509	0.000219
C106	C	0.237583	0.408353	0.066231
C107	C	0.281828	0.408361	0.066209
C108	C	0.227630	0.516744	-0.065999
C109	C	0.183389	0.516736	-0.065983
C110	C	0.188369	0.462536	0.000142
O111	O	0.090366	0.562783	-0.122169
O112	O	0.190599	0.362259	0.122492
C113	C	-0.032306	0.408330	0.066303
C114	C	-0.081522	0.462518	0.000210
C115	C	-0.086494	0.516708	-0.065896
C116	C	-0.125768	0.462516	0.000212
C117	C	-0.120795	0.408325	0.066318
C118	C	-0.071576	0.354137	0.132422
C119	C	-0.027333	0.354140	0.132409
C120	C	-0.135713	0.570897	-0.132000
C121	C	-0.179954	0.570889	-0.131983
C122	C	-0.174981	0.516699	-0.065877
C123	C	0.601477	0.462510	0.000208
C124	C	0.648572	0.462504	0.000223
C125	C	0.462713	0.462529	-0.338316
C126	C	0.462712	0.462529	-0.453193
C127	C	0.462732	0.601272	0.000167
C128	C	0.462739	0.648361	0.000168
C129	C	0.462714	0.462527	0.338642
C130	C	0.462714	0.462527	0.453519
C131	C	0.601457	0.323766	0.000204
C132	C	0.648546	0.276672	0.000218
C133	C	0.462695	0.323783	0.338639
C134	C	0.462689	0.276694	0.453514
C135	C	0.601458	0.323765	0.338684
C136	C	0.648547	0.276671	0.453574
C137	C	0.323968	0.601290	-0.338357
C138	C	0.276880	0.648385	-0.453248
C139	C	0.323969	0.601290	0.000122
C140	C	0.276880	0.648384	0.000108
C141	C	0.462732	0.601273	-0.338312
C142	C	0.462738	0.648362	-0.453188
C143	C	0.643563	0.254559	-0.065890
C144	C	0.687803	0.210315	-0.065902
C145	C	0.737026	0.188181	0.000202
C146	C	0.742009	0.210298	0.066313
C147	C	0.697769	0.254544	0.066317
C148	C	0.489782	0.254577	0.573576
C149	C	0.489774	0.210339	0.681524
C150	C	0.462676	0.188215	0.669407
C151	C	0.435579	0.210336	0.549333
C152	C	0.435584	0.254577	0.441388
C153	C	0.697761	0.254551	0.441442
C154	C	0.742010	0.210307	0.549384
C155	C	0.737044	0.188180	0.669457
C156	C	0.687825	0.210304	0.681586
C157	C	0.643577	0.254550	0.573646
C158	C	0.227665	0.670510	-0.441116
C159	C	0.183416	0.714768	-0.549058
C160	C	0.188382	0.736897	-0.669130
C161	C	0.237602	0.714771	-0.681260
C162	C	0.281850	0.670516	-0.573320
C163	C	0.281864	0.670501	0.066205
C164	C	0.237623	0.714758	0.066187
C165	C	0.188400	0.736893	0.000079
C166	C	0.183418	0.714774	-0.066026
C167	C	0.227658	0.670521	-0.066015
C168	C	0.489842	0.670472	-0.441031
C169	C	0.489858	0.714711	-0.548958
C170	C	0.462767	0.736842	-0.669041
C171	C	0.435662	0.714728	-0.681196
C172	C	0.435649	0.670486	-0.573270
H173	H	0.511867	0.192312	-0.119741
O174	O	-0.095001	0.623592	-0.196392
C175	C	-0.100682	0.656562	-0.325423
H176	H	-0.060854	0.641147	-0.336244
H177	H	-0.123943	0.706133	-0.365898
H178	H	-0.121845	0.649067	-0.378462
O179	O	0.409387	0.648929	-0.585003
C180	C	0.444139	0.586923	-0.526489
H181	H	0.484969	0.574782	-0.521493
H182	H	0.432370	0.574217	-0.583730
H183	H	0.443180	0.561631	-0.426930
O184	O	0.595743	0.276021	0.585279
C185	C	0.568531	0.265191	0.526836
H186	H	0.585420	0.259691	0.453267
H187	H	0.525948	0.304488	0.478920
H188	H	0.572220	0.222640	0.601061
H189	H	0.321921	0.652503	-0.583213
H190	H	0.538971	0.069038	-0.185826
O191	O	0.779945	0.145178	0.000115
C192	C	0.764985	0.130421	-0.072437
H193	H	0.724141	0.142624	-0.077407
H194	H	0.792929	0.080412	-0.026672
H195	H	0.765790	0.156294	-0.171895
H196	H	0.413571	-0.347524	0.120062
O197	O	0.516193	-0.263783	-0.129939
C198	C	0.554230	-0.274611	-0.045068
H199	H	0.542840	-0.280118	0.041923
H200	H	0.557515	-0.235311	-0.093015
H201	H	0.593091	-0.317158	-0.015485
H202	H	0.511841	0.192333	0.779283
O203	O	0.145435	0.779825	-0.774070
C204	C	0.145497	0.758201	-0.846373
H205	H	0.186814	0.720570	-0.822782
H206	H	0.129207	0.795995	-0.951082
H207	H	0.120521	0.740555	-0.823723
O208	O	0.789864	0.188707	0.130510
C209	C	0.827837	0.144922	0.116299
H210	H	0.810577	0.125589	0.091935
H211	H	0.861956	0.107685	0.208301
H212	H	0.841683	0.166085	0.037173
O213	O	0.242562	0.736150	0.130526
C214	C	0.295495	0.707124	0.188860
H215	H	0.319077	0.662279	0.201939
H216	H	0.301666	0.699492	0.284882
H217	H	0.308545	0.736131	0.126934
O218	O	0.329687	0.648911	0.130585
C219	C	0.356903	0.586910	0.223346
H220	H	0.328191	0.574801	0.247912
H221	H	0.381370	0.574190	0.311616
H222	H	0.383155	0.561602	0.185522
H223	H	0.511849	0.272590	-0.119758
O224	O	-0.316926	0.569307	-0.130195
C225	C	-0.292970	0.572562	-0.222987
H226	H	-0.262813	0.525513	-0.195202
H227	H	-0.273328	0.595505	-0.231000
H228	H	-0.323395	0.599300	-0.317792
H229	H	0.782083	0.192298	0.539485
O230	O	0.135562	0.736323	-0.130123
C231	C	0.097590	0.780131	-0.115967
H232	H	0.114846	0.772859	-0.026697
H233	H	0.063464	0.776548	-0.108385
H234	H	0.083753	0.826411	-0.201370
O235	O	0.516034	0.276126	0.585423
C236	C	0.496111	0.301712	0.652017
H237	H	0.454812	0.314992	0.642994
H238	H	0.496180	0.343033	0.611010
H239	H	0.521231	0.267803	0.755893
H240	H	0.152381	0.772926	0.000080
O241	O	0.409312	0.188748	0.537799
C242	C	0.415117	0.144962	0.658829
H243	H	0.451705	0.125630	0.730370
H244	H	0.418236	0.107724	0.657671
H245	H	0.380106	0.166125	0.686313
H246	H	0.538981	-0.011231	-0.185817
H247	H	0.462676	0.152191	0.757314
H248	H	0.701814	0.272561	0.343683
O249	O	0.222721	0.649081	-0.130233
C250	C	0.169788	0.678121	-0.188599
H251	H	0.146200	0.696359	-0.136761
H252	H	0.163605	0.644937	-0.185035
H253	H	0.156754	0.716547	-0.291195
H254	H	0.462781	0.772866	-0.756911
O255	O	0.682913	0.188892	0.798134
C256	C	0.629987	0.217888	0.785716
H257	H	0.606383	0.262740	0.689398
H258	H	0.623831	0.225506	0.863139
H259	H	0.616950	0.188868	0.794571
H260	H	0.223612	0.652494	-0.343357
H261	H	0.413605	0.732754	-0.778982
O262	O	0.516207	0.649024	-0.324485
C263	C	0.540121	0.678042	-0.336925
H264	H	0.545486	0.696271	-0.433244
H265	H	0.579479	0.644844	-0.259502
H266	H	0.514735	0.716472	-0.328087
O267	O	0.516108	0.736295	-0.537296
C268	C	0.481330	0.798293	-0.595762
H269	H	0.445673	0.817066	-0.669354
H270	H	0.500996	0.821211	-0.643655
H271	H	0.469198	0.806736	-0.521557
H272	H	0.511901	-0.347531	-0.119734
O273	O	0.135637	0.736262	-0.537098
C274	C	0.129972	0.761852	-0.470510
H275	H	0.169806	0.741859	-0.410938
H276	H	0.106706	0.752140	-0.406341
H277	H	0.108826	0.812249	-0.540405
H278	H	0.701833	0.272543	0.120157
O279	O	0.409268	-0.263834	0.130484
C280	C	0.385366	-0.292865	0.188826
H281	H	0.380008	-0.311097	0.136972
H282	H	0.346004	-0.259678	0.185256
H283	H	0.410754	-0.331296	0.291423
H284	H	0.386468	0.069018	0.186199
O285	O	0.382177	-0.014652	0.196629
C286	C	0.358240	0.014394	0.254892
H287	H	0.379512	0.032595	0.268052
H288	H	0.359655	-0.018776	0.350869
H289	H	0.316200	0.052848	0.192870
H290	H	0.413528	0.272584	0.120055
O291	O	0.409334	0.188802	0.130719
C292	C	0.385438	0.217796	0.189101
H293	H	0.406642	0.236115	0.201983
H294	H	0.386998	0.184557	0.285220
H295	H	0.343353	0.256160	0.127313
H296	H	0.538986	-0.063707	-0.185816
H297	H	0.413523	0.272579	0.343632
H298	H	0.241639	0.732794	-0.779036
H299	H	0.386476	-0.143988	0.186175
O300	O	0.543328	-0.147472	-0.196091
C301	C	0.596218	-0.173080	-0.147451
H302	H	0.600648	-0.153084	-0.099061
H303	H	0.612823	-0.163386	-0.227881
H304	H	0.617951	-0.223474	-0.076080
H305	H	0.386472	-0.063725	0.186176
H306	H	0.321903	0.364229	0.120037
H307	H	0.241645	0.364218	0.120078
O308	O	-0.404248	0.569283	-0.130081
C309	C	-0.442240	0.557670	-0.115887
H310	H	-0.425003	0.511099	-0.091544
H311	H	-0.476361	0.592281	-0.207890
H312	H	-0.456077	0.560238	-0.036754
H313	H	0.065212	0.310015	0.186222
O314	O	0.153166	0.301453	0.196700
C315	C	0.148056	0.253630	0.255017
H316	H	0.108571	0.269523	0.268092
H317	H	0.179788	0.215728	0.351039
H318	H	0.151678	0.236965	0.193080
O319	O	-0.210191	0.355620	0.130648
C320	C	-0.215298	0.307794	0.188961
H321	H	-0.254783	0.323684	0.202035
H322	H	-0.183566	0.269892	0.284983
H323	H	-0.211674	0.291131	0.127021
O324	O	-0.066776	0.301511	0.196804
C325	C	-0.090759	0.298282	0.289544
H326	H	-0.092793	0.329034	0.314098
H327	H	-0.067302	0.250355	0.377825
H328	H	-0.131575	0.312847	0.251705
O329	O	-0.297473	0.355723	0.130537
C330	C	-0.347082	0.367349	0.116332
H331	H	-0.376407	0.413926	0.091965
H332	H	-0.346599	0.332748	0.208338
H333	H	-0.358356	0.364774	0.037210
O334	O	-0.227725	0.623589	-0.196217
C335	C	-0.222619	0.671415	-0.254585
H336	H	-0.183130	0.655523	-0.202748
H337	H	-0.254345	0.709314	-0.251021
H338	H	-0.226252	0.688082	-0.357181
H339	H	-0.007031	0.615040	-0.185821
H340	H	-0.139770	0.615026	-0.185835
H341	H	0.143313	0.560863	-0.119821
O342	O	0.595712	0.276104	-0.130004
C343	C	0.557726	0.319912	-0.115867
H344	H	0.574966	0.312641	-0.026585
H345	H	0.523601	0.316326	-0.108322
H346	H	0.543893	0.366191	-0.201262
H347	H	0.012739	0.310011	0.186235
O348	O	0.222898	0.569328	-0.130100
C349	C	0.272507	0.557704	-0.115950
H350	H	0.301834	0.511129	-0.026679
H351	H	0.272027	0.592307	-0.108372
H352	H	0.283774	0.560275	-0.201353
H353	H	0.683737	0.192313	-0.119737
H354	H	0.773078	0.152151	0.757339
