data_functionalizedCrystal
_audit_creation_method	'MofGen! by Chris Wilmer'
_symmetry_space_group_name_H-M	'P1'
_symmetry_Int_Tables_number	1
_symmetry_cell_setting	triclinic
loop_
_symmetry_equiv_pos_as_xyz
  x,y,z
_cell_length_a	14.519709
_cell_length_b	10.654554
_cell_length_c	13.596369
_cell_angle_alpha	89.996051
_cell_angle_beta	89.993066
_cell_angle_gamma	84.083445
loop_
_atom_site_label
_atom_site_type_symbol
_atom_site_fract_x
_atom_site_fract_y
_atom_site_fract_z
O1	O	0.129554	1.666594	-0.081763
O2	O	0.141890	1.300997	-0.081772
O3	O	0.001534	1.493489	-0.081759
O4	O	0.269910	1.474102	-0.081777
O5	O	0.001526	1.493469	0.081824
O6	O	0.141883	1.300978	0.081811
O7	O	0.129546	1.666574	0.081820
Zn8	Zn	0.135713	1.483773	0.107788
Zn9	Zn	0.135723	1.483798	-0.107740
O10	O	0.269902	1.474083	0.081806
C11	C	0.140980	1.254198	0.000018
C12	C	0.138267	1.114782	0.000015
C13	C	0.218361	0.903503	0.000019
C14	C	0.220910	1.034500	0.000011
C15	C	0.053068	1.064061	0.000017
C16	C	0.050520	0.933066	0.000018
C17	C	0.301010	0.823227	0.000024
C18	C	0.386209	0.873939	0.000020
C19	C	0.388758	1.004936	0.000013
C20	C	0.306109	1.085221	0.000009
C21	C	-0.032835	1.492575	0.000033
C22	C	-0.135230	1.489868	0.000033
C23	C	-0.510177	1.479901	0.000008
C24	C	-0.405855	1.482669	0.000015
C25	C	-0.322707	1.484884	0.000022
C26	C	-0.218378	1.487653	0.000027
C27	C	0.304271	1.474996	0.000012
C28	C	0.406666	1.477703	0.000005
C29	C	0.130456	1.713373	0.000027
C30	C	0.133169	1.852790	0.000024
N31	N	0.135706	1.483765	0.254879
N32	N	0.135723	1.483816	-0.254832
C33	C	0.135724	1.483797	0.656170
C34	C	0.135722	1.483784	0.544519
C35	C	0.135716	1.483781	0.455528
C36	C	0.135712	1.483768	0.343870
H37	H	0.308192	1.191886	-0.000018
Cl38	Cl	-0.056581	0.869307	0.000034
Cl39	Cl	0.495863	1.068685	-0.000005
Cl40	Cl	0.490104	0.773013	0.000012
Cl41	Cl	0.297811	0.658545	0.000038
Cl42	Cl	-0.050825	1.164990	0.000019
