data_functionalizedCrystal
_audit_creation_method	'MofGen! by Chris Wilmer'
_symmetry_space_group_name_H-M	'P1'
_symmetry_Int_Tables_number	1
_symmetry_cell_setting	triclinic
loop_
_symmetry_equiv_pos_as_xyz
  x,y,z
_cell_length_a	17.666332
_cell_length_b	10.654537
_cell_length_c	10.654545
_cell_angle_alpha	95.516298
_cell_angle_beta	89.997458
_cell_angle_gamma	90.008664
loop_
_atom_site_label
_atom_site_type_symbol
_atom_site_fract_x
_atom_site_fract_y
_atom_site_fract_z
O1	O	-0.062929	-1.667857	0.176355
O2	O	-0.062933	-1.302378	0.193171
O3	O	-0.062930	-1.493520	0.002024
O4	O	-0.062931	-1.476715	0.367502
O5	O	0.062967	-1.493485	0.002019
O6	O	0.062964	-1.302342	0.193166
O7	O	0.062968	-1.667822	0.176350
Cu8	Cu	0.074461	-1.485079	0.184758
Cu9	Cu	-0.074426	-1.485121	0.184763
O10	O	0.062965	-1.476680	0.367498
C11	C	0.000015	-1.255562	0.191936
C12	C	0.000013	-1.116118	0.188247
N13	N	0.179181	-1.485059	0.184753
C14	C	0.000003	-1.088148	0.416812
C15	C	-0.000005	-1.008654	0.529357
C16	C	-0.000005	-0.877636	0.525883
C17	C	0.000005	-0.826110	0.409853
C18	C	0.000013	-0.905604	0.297309
C19	C	0.000010	-1.036624	0.300794
C20	C	0.000028	-0.933574	0.068747
C21	C	0.000023	-1.064592	0.072217
C22	C	0.000038	-0.882048	-0.047284
C23	C	0.000041	-0.961542	-0.159831
C24	C	0.000040	-1.092568	-0.156353
C25	C	0.000031	-1.144086	-0.040327
C26	C	0.218785	-1.561881	0.261638
C27	C	0.298032	-1.561900	0.261635
C28	C	0.337673	-1.485074	0.184762
C29	C	0.298059	-1.408247	0.107862
C30	C	0.218813	-1.408240	0.107857
N31	N	0.462111	-1.375039	0.180378
N32	N	0.537391	-1.375050	0.180389
C33	C	0.576437	-1.485095	0.184769
N34	N	0.537358	-1.595130	0.189161
N35	N	0.462071	-1.595118	0.189156
C36	C	0.423602	-1.485074	0.184758
C37	C	0.701970	-1.561944	0.261654
C38	C	0.781219	-1.561966	0.261643
C39	C	0.781245	-1.408302	0.107877
C40	C	0.701997	-1.408291	0.107881
C41	C	0.662365	-1.485111	0.184777
N42	N	0.820854	-1.485141	0.184767
C43	C	0.000017	-1.492268	-0.044777
C44	C	0.000012	-1.488575	-0.184220
C45	C	0.000020	-0.714637	0.177590
C46	C	0.000020	-0.854080	0.181291
C47	C	-0.137244	-1.488629	-0.184223
C48	C	-0.205872	-1.486926	-0.249735
C49	C	-0.205873	-1.483457	-0.380753
C50	C	-0.137239	-1.481687	-0.446263
C51	C	-0.068611	-1.483390	-0.380752
C52	C	-0.068617	-1.486863	-0.249730
C53	C	0.068644	-1.483328	-0.380747
C54	C	0.068647	-1.486806	-0.249730
C55	C	0.137279	-1.481558	-0.446257
C56	C	0.205908	-1.483270	-0.380747
C57	C	0.205906	-1.486741	-0.249720
C58	C	0.137275	-1.488509	-0.184218
C59	C	0.000017	-1.477932	0.414298
C60	C	0.000016	-1.481624	0.553741
H61	H	-0.000014	-1.194829	0.419652
F62	F	0.000042	-0.742606	-0.050977
F63	F	0.137276	-1.477854	-0.585698
F64	F	0.000016	-0.686668	0.406163
H65	H	0.813519	-1.345750	0.045283
H66	H	-0.137250	-1.491468	-0.077543
F67	F	0.000057	-0.906697	-0.283304
F68	F	0.659788	-1.643722	0.343470
F69	F	0.176662	-1.326466	0.026028
F70	F	0.000054	-1.177162	-0.276141
F71	F	0.823369	-1.643741	0.343473
F72	F	0.659846	-1.326506	0.026068
F73	F	0.340191	-1.643669	0.343468
H74	H	-0.000006	-0.812911	0.617527
H75	H	0.000021	-1.250766	-0.037484
F76	F	0.176610	-1.643619	0.343497
H77	H	-0.261753	-1.488365	-0.196382
H78	H	0.330340	-1.345697	0.045270
F79	F	-0.278914	-1.481634	-0.450476
H80	H	-0.137246	-1.478847	-0.552944
H81	H	0.261785	-1.481821	-0.434094
F82	F	0.278951	-1.488546	-0.180007
H83	H	-0.000011	-1.050621	0.623826
F84	F	0.137267	-1.492210	-0.044777
