data_functionalizedCrystal
_audit_creation_method	'MofGen! by Chris Wilmer'
_symmetry_space_group_name_H-M	'P1'
_symmetry_Int_Tables_number	1
_symmetry_cell_setting	triclinic
loop_
_symmetry_equiv_pos_as_xyz
  x,y,z
_cell_length_a	19.288864
_cell_length_b	11.804365
_cell_length_c	19.288865
_cell_angle_alpha	101.783861
_cell_angle_beta	96.863755
_cell_angle_gamma	101.819883
loop_
_atom_site_label
_atom_site_type_symbol
_atom_site_fract_x
_atom_site_fract_y
_atom_site_fract_z
O1	O	0.935481	0.099426	-0.072522
O2	O	1.435481	0.599426	0.427478
O3	O	0.733209	0.099346	-0.084223
O4	O	1.233209	0.599346	0.415777
O5	O	0.840187	0.099365	0.022755
O6	O	1.340187	0.599365	0.522755
O7	O	0.828504	0.099407	-0.179500
O8	O	1.328504	0.599407	0.320500
O9	O	0.812024	-0.098696	-0.005380
O10	O	1.312024	0.401304	0.494620
O11	O	0.705046	-0.098715	-0.112357
O12	O	1.205046	0.401285	0.387643
O13	O	0.907318	-0.098635	-0.100657
O14	O	1.407318	0.401365	0.399343
Cu15	Cu	0.803611	-0.116759	-0.109076
Cu16	Cu	1.303611	0.383241	0.390924
Cu17	Cu	0.836917	0.117470	-0.075804
Cu18	Cu	1.336917	0.617470	0.424196
O19	O	0.800341	-0.098654	-0.207635
O20	O	1.300341	0.401346	0.292365
C21	C	0.693250	0.000305	-0.097915
C22	C	1.193250	0.500305	0.402085
C23	C	0.616142	0.000274	-0.096791
C24	C	1.116142	0.500274	0.403209
N25	N	0.780190	-0.281504	-0.132478
N26	N	1.280190	0.218496	0.367522
C27	C	0.571450	0.000306	-0.159554
C28	C	1.071450	0.500306	0.340446
C29	C	0.499005	0.000319	-0.158492
C30	C	0.999005	0.500319	0.341508
C31	C	0.471258	0.000324	-0.094659
C32	C	0.971258	0.500324	0.405341
C33	C	0.515959	0.000285	-0.031888
C34	C	1.015959	0.500285	0.468112
C35	C	0.588401	0.000260	-0.032954
C36	C	1.088401	0.500260	0.467046
C37	C	0.372867	0.069743	-0.034619
C38	C	0.872867	0.569743	0.465381
C39	C	0.300427	0.069775	-0.033554
C40	C	0.800427	0.569775	0.466446
C41	C	0.247823	0.000395	-0.091369
C42	C	0.747823	0.500395	0.408631
C43	C	0.267668	-0.069002	-0.150258
C44	C	0.767668	0.430998	0.349742
C45	C	0.340110	-0.069027	-0.151324
C46	C	0.840110	0.430973	0.348676
C47	C	0.392708	0.000350	-0.093496
C48	C	0.892708	0.500350	0.406504
C49	C	0.124577	0.000439	-0.152985
C50	C	0.624577	0.500439	0.347015
C51	C	0.052129	0.000445	-0.151921
C52	C	0.552129	0.500445	0.348079
C53	C	0.069087	0.000423	-0.025314
C54	C	0.569087	0.500423	0.474686
C55	C	0.141530	0.000405	-0.026381
C56	C	0.641530	0.500405	0.473619
C57	C	0.169272	0.000419	-0.090218
C58	C	0.669272	0.500419	0.409782
C59	C	0.916584	-0.655429	0.003813
C60	C	1.416584	-0.155429	0.503813
C61	C	0.934301	-0.530764	0.021519
C62	C	1.434301	-0.030764	0.521519
C63	C	0.895775	-0.468443	-0.016978
C64	C	1.395775	0.031557	0.483022
C65	C	0.839529	-0.530799	-0.073186
C66	C	1.339529	-0.030799	0.426814
C67	C	0.821814	-0.655476	-0.090897
C68	C	1.321814	-0.155476	0.409103
C69	C	0.801004	-0.468490	-0.111689
C70	C	1.301004	0.031510	0.388311
C71	C	0.744759	-0.530846	-0.167896
C72	C	1.244759	-0.030846	0.332104
C73	C	0.727046	-0.655510	-0.185604
C74	C	1.227046	-0.155510	0.314396
C75	C	0.765573	-0.717832	-0.147107
C76	C	1.265573	-0.217832	0.352893
C77	C	0.818719	-0.343813	-0.093977
C78	C	1.318719	0.156187	0.406023
C79	C	0.723949	-0.343860	-0.188687
C80	C	1.223949	0.156140	0.311313
C81	C	0.706232	-0.468525	-0.206394
C82	C	1.206232	0.031475	0.293606
C83	C	0.947278	0.000409	-0.086964
C84	C	1.447278	0.500409	0.413036
C85	C	1.024387	0.000448	-0.088088
C86	C	1.524387	0.500448	0.411912
C87	C	0.825729	0.000331	0.034563
C88	C	1.325729	0.500331	0.534563
C89	C	0.824598	0.000320	0.111665
C90	C	1.324598	0.500320	0.611665
N91	N	0.860343	0.282215	-0.052396
N92	N	1.360343	0.782215	0.447604
C93	C	0.814800	0.000383	-0.219443
C94	C	1.314800	0.500383	0.280557
C95	C	0.815931	0.000402	-0.296544
C96	C	1.315931	0.500402	0.203456
C97	C	0.887369	0.000339	0.156364
C98	C	1.387369	0.500339	0.656364
C99	C	0.886311	0.000357	0.228814
C100	C	1.386311	0.500357	0.728814
C101	C	0.822475	0.000333	0.256558
C102	C	1.322475	0.500333	0.756558
C103	C	0.759697	0.000320	0.211850
C104	C	1.259697	0.500320	0.711850
C105	C	0.760759	0.000314	0.139404
C106	C	1.260759	0.500314	0.639404
C107	C	0.762428	-0.069064	0.354988
C108	C	1.262428	0.430936	0.854988
C109	C	0.761368	-0.069064	0.427432
C110	C	1.261368	0.430936	0.927432
C111	C	0.819199	0.000358	0.480007
C112	C	1.319199	0.500358	0.980007
C113	C	0.878100	0.069766	0.460129
C114	C	1.378100	0.569766	0.960129
C115	C	0.879161	0.069759	0.387682
C116	C	1.379161	0.569759	0.887682
C117	C	0.821317	0.000340	0.335113
C118	C	1.321317	0.500340	0.835113
C119	C	0.880827	0.000399	0.603265
C120	C	1.380827	0.500399	1.103265
C121	C	0.879767	0.000424	0.675717
C122	C	1.379767	0.500424	1.175717
C123	C	0.753150	0.000376	0.658750
C124	C	1.253150	0.500376	1.158750
C125	C	0.754213	0.000362	0.586302
C126	C	1.254213	0.500362	1.086302
C127	C	0.818053	0.000368	0.558563
C128	C	1.318053	0.500368	1.058563
H129	H	0.462609	0.000341	-0.209603
H130	H	0.962609	0.500341	0.290397
O131	O	0.956229	0.000377	0.126456
O132	O	1.456229	0.500377	0.626456
H133	H	0.974910	-0.080328	0.132975
H134	H	1.474910	0.419672	0.632975
O135	O	0.958139	-0.722640	0.045329
O136	O	1.458139	-0.222640	0.545329
H137	H	0.920939	-0.779469	0.070946
H138	H	1.420939	-0.279469	0.570946
O139	O	0.686503	0.000311	0.538083
O140	O	1.186503	0.500311	1.038083
H141	H	0.667414	0.081018	0.559379
H142	H	1.167414	0.581018	1.059379
H143	H	0.594032	0.000319	-0.211535
H144	H	1.094032	0.500319	0.288465
O145	O	0.914877	-0.333983	0.002119
O146	O	1.414877	0.166017	0.502119
H147	H	0.867689	-0.301160	0.017760
H148	H	1.367689	0.198840	0.517760
H149	H	0.864515	-0.293054	-0.048213
H150	H	1.364515	0.206946	0.451787
H151	H	0.356264	-0.125535	-0.199272
H152	H	0.856264	0.374465	0.300728
O153	O	0.279021	0.144604	0.029962
O154	O	0.779021	0.644604	0.529962
H155	H	0.327767	0.192819	0.069994
H156	H	0.827767	0.692819	0.569994
H157	H	0.224837	-0.125498	-0.197336
H158	H	0.724837	0.374502	0.302664
H159	H	0.980096	-0.479999	0.067282
H160	H	1.480096	0.020001	0.567282
H161	H	0.147162	0.000433	-0.204967
H162	H	0.647162	0.500433	0.295033
H163	H	0.751146	-0.819344	-0.161521
H164	H	1.251146	-0.319344	0.338479
O165	O	0.039169	0.000413	0.043535
O166	O	0.539169	0.500413	0.543535
H167	H	0.068639	0.081121	0.085157
H168	H	0.568639	0.581121	0.585157
O169	O	0.666406	-0.722747	-0.246256
O170	O	1.166406	-0.222747	0.253744
H171	H	0.615674	-0.698878	-0.234169
H172	H	1.115674	-0.198878	0.265831
O173	O	0.189743	0.000381	0.041315
O174	O	0.689743	0.500381	0.541315
H175	H	0.158281	0.000394	0.085883
H176	H	0.658281	0.500394	0.585883
O177	O	0.645574	-0.535782	-0.267023
O178	O	1.145574	-0.035782	0.232977
H179	H	0.639736	-0.632940	-0.272871
H180	H	1.139736	-0.132940	0.227129
H181	H	0.927119	0.126276	0.371501
H182	H	1.427119	0.626276	0.871501
H183	H	0.701175	0.000362	0.681339
H184	H	1.201175	0.500362	1.181339
O185	O	0.954016	0.000361	0.277032
O186	O	1.454016	0.500361	0.777032
H187	H	0.942551	0.000366	0.332068
H188	H	1.442551	0.500366	0.832068
H189	H	0.692579	-0.293119	-0.220037
H190	H	1.192579	0.206881	0.279963
O191	O	0.940480	0.144660	0.516824
O192	O	1.440480	0.644660	1.016824
H193	H	0.929845	0.133021	0.570542
H194	H	1.429845	0.633021	1.070542
H195	H	0.932809	0.000409	0.580680
H196	H	1.432809	0.500409	1.080680
H197	H	0.415695	0.126247	0.012464
H198	H	0.915695	0.626247	0.512464
H199	H	0.493365	0.000305	0.020087
H200	H	0.993365	0.500305	0.520087
H201	H	0.930886	0.000446	0.712112
H202	H	1.430886	0.500446	1.212112
O203	O	0.697845	-0.143924	0.448873
O204	O	1.197845	0.356076	0.948873
H205	H	0.657803	-0.192181	0.400146
H206	H	1.157803	0.307819	0.900146
H207	H	0.015740	0.000464	-0.203033
H208	H	0.515740	0.500464	0.296967
H209	H	0.624790	0.000235	0.018157
H210	H	1.124790	0.500235	0.518157
H211	H	0.715332	-0.125602	0.312184
H212	H	1.215332	0.374398	0.812184
O213	O	0.690846	0.000292	0.241773
O214	O	1.190846	0.500292	0.741773
H215	H	0.647375	0.000287	0.198518
H216	H	1.147375	0.500287	0.698518
O217	O	0.693051	0.000273	0.091182
O218	O	1.193051	0.500273	0.591182
H219	H	0.648481	0.000251	0.122641
H220	H	1.148481	0.500251	0.622641
