data_functionalizedCrystal
_audit_creation_method	'MofGen! by Chris Wilmer'
_symmetry_space_group_name_H-M	'P1'
_symmetry_Int_Tables_number	1
_symmetry_cell_setting	triclinic
loop_
_symmetry_equiv_pos_as_xyz
  x,y,z
_cell_length_a	19.188930
_cell_length_b	14.044191
_cell_length_c	18.266242
_cell_angle_alpha	89.993547
_cell_angle_beta	89.988525
_cell_angle_gamma	88.168279
loop_
_atom_site_label
_atom_site_type_symbol
_atom_site_fract_x
_atom_site_fract_y
_atom_site_fract_z
O1	O	0.168308	1.257017	-0.060861
O2	O	0.162230	0.981072	-0.060870
O3	O	0.064127	1.127008	-0.060851
O4	O	0.266411	1.111081	-0.060880
O5	O	0.064120	1.126983	0.060911
O6	O	0.162223	0.981048	0.060892
O7	O	0.168301	1.256992	0.060901
Zn8	Zn	0.165261	1.119016	0.080229
Zn9	Zn	0.165270	1.119048	-0.080198
O10	O	0.266404	1.111057	0.060882
C11	C	0.159568	0.945757	0.000010
C12	C	0.151637	0.840563	0.000007
C13	C	0.193385	0.590104	0.000009
C14	C	0.137149	0.647966	0.000016
C15	C	0.145212	0.755137	0.000011
C16	C	0.185323	0.482923	0.000013
C17	C	0.038079	1.126480	0.000032
C18	C	-0.039525	1.124931	0.000038
C19	C	-0.078922	1.210561	0.000045
C20	C	-0.151839	1.209107	0.000033
C21	C	-0.185357	1.122017	0.000029
C22	C	-0.145952	1.036376	0.000019
C23	C	-0.073035	1.037833	0.000024
N24	N	-0.297662	1.055440	0.041465
N25	N	-0.366929	1.054061	0.041463
C26	C	-0.405050	1.117622	0.000015
N27	N	-0.371286	1.182628	-0.041422
N28	N	-0.302012	1.184009	-0.041416
C29	C	-0.264423	1.120428	0.000024
C30	C	-0.523512	1.201681	0.000007
C31	C	-0.596431	1.200223	-0.000009
C32	C	-0.590542	1.027490	-0.000016
C33	C	-0.517625	1.028951	-0.000007
C34	C	-0.484114	1.116049	0.000008
C35	C	0.292451	1.111585	-0.000003
C36	C	0.370056	1.113133	-0.000014
C37	C	0.170963	1.292308	0.000019
C38	C	0.178894	1.397501	0.000017
N39	N	0.165254	1.119001	0.189716
N40	N	0.165271	1.119071	-0.189685
C41	C	0.121839	1.183642	0.228033
C42	C	0.121836	1.183648	0.304678
C43	C	0.165261	1.119022	0.343003
C44	C	0.208679	1.054368	0.304676
C45	C	0.208676	1.054358	0.228033
N46	N	0.226274	1.106704	0.463326
N47	N	0.226275	1.106720	0.536134
C48	C	0.165273	1.119048	0.573925
N49	N	0.104269	1.131379	0.536157
N50	N	0.104268	1.131369	0.463343
C51	C	0.165269	1.119026	0.426110
C52	C	0.121851	1.183700	0.695349
C53	C	0.121847	1.183699	0.771996
C54	C	0.208696	1.054424	0.771993
C55	C	0.208694	1.054420	0.695348
C56	C	0.165273	1.119063	0.657031
H57	H	-0.183922	1.278839	0.000035
H58	H	0.086481	1.236288	0.335881
H59	H	-0.496227	1.272602	0.000016
H60	H	0.247581	0.621053	-0.000001
C61	C	0.074071	1.254737	0.185882
C62	C	0.074064	1.254726	0.101578
C63	C	0.026295	1.325818	0.059424
C64	C	-0.021468	1.396923	0.101575
C65	C	-0.021463	1.396937	0.185884
C66	C	0.026306	1.325844	0.228038
H67	H	0.109423	1.202088	0.070371
H68	H	0.026292	1.325807	-0.002988
H69	H	-0.056829	1.449550	0.070370
H70	H	-0.056821	1.449575	0.217091
H71	H	0.026310	1.325855	0.290450
H72	H	-0.051642	1.281484	0.000054
H73	H	0.244036	1.001747	0.335884
C74	C	0.256440	0.983253	0.185878
C75	C	0.304229	0.912189	0.228027
C76	C	0.351995	0.841086	0.185870
C77	C	0.351970	0.841047	0.101566
C78	C	0.304179	0.912115	0.059412
C79	C	0.256413	0.983218	0.101569
H80	H	0.304249	0.912214	0.290438
H81	H	0.387373	0.788477	0.217075
H82	H	0.387329	0.788413	0.070359
H83	H	0.304159	0.912089	-0.002999
H84	H	0.221035	1.035827	0.070364
C85	C	-0.474283	0.934755	-0.000000
C86	C	-0.511147	0.838955	-0.000002
C87	C	-0.467806	0.744754	0.000004
C88	C	-0.387601	0.746353	0.000011
C89	C	-0.350732	0.842156	0.000012
C90	C	-0.394074	0.936357	0.000007
H91	H	-0.570524	0.837769	-0.000007
H92	H	-0.495099	0.673835	0.000003
H93	H	-0.355517	0.676620	0.000015
H94	H	-0.291356	0.843343	0.000017
H95	H	-0.366781	1.007276	0.000008
H96	H	0.082948	0.617015	-0.000028
C97	C	0.256459	0.983322	0.653192
C98	C	0.304249	0.912257	0.695340
C99	C	0.352014	0.841154	0.653184
C100	C	0.351990	0.841116	0.568879
C101	C	0.304198	0.912184	0.526726
C102	C	0.256433	0.983287	0.568882
H103	H	0.304269	0.912283	0.757752
H104	H	0.387393	0.788546	0.684389
H105	H	0.387348	0.788482	0.537673
H106	H	0.304178	0.912158	0.464314
H107	H	0.221054	1.035896	0.537677
H108	H	0.086492	1.236333	0.664150
H109	H	-0.173247	0.965467	0.000015
H110	H	-0.040959	0.968100	0.000019
H111	H	-0.628507	1.269957	-0.000008
H112	H	0.086489	1.236335	0.803194
H113	H	-0.617832	0.956580	-0.000022
H114	H	0.244051	1.001801	0.803196
