data_functionalizedCrystal
_audit_creation_method	'MofGen! by Chris Wilmer'
_symmetry_space_group_name_H-M	'P1'
_symmetry_Int_Tables_number	1
_symmetry_cell_setting	triclinic
loop_
_symmetry_equiv_pos_as_xyz
  x,y,z
_cell_length_a	14.971486
_cell_length_b	11.792241
_cell_length_c	14.048226
_cell_angle_alpha	89.993434
_cell_angle_beta	89.998499
_cell_angle_gamma	83.903772
loop_
_atom_site_label
_atom_site_type_symbol
_atom_site_fract_x
_atom_site_fract_y
_atom_site_fract_z
O1	O	1.187540	0.147909	-0.079051
O2	O	1.687540	0.647909	0.420949
O3	O	0.927210	0.165622	-0.079077
O4	O	1.427210	0.665622	0.420923
O5	O	1.063692	-0.008446	-0.079057
O6	O	1.563692	0.491554	0.420943
O7	O	1.051058	0.321977	-0.079072
O8	O	1.551058	0.821977	0.420928
O9	O	1.063676	-0.008456	0.079264
O10	O	1.563676	0.491544	0.579264
O11	O	0.927194	0.165611	0.079244
O12	O	1.427194	0.665611	0.579244
O13	O	1.187523	0.147899	0.079270
O14	O	1.687523	0.647899	0.579270
Zn15	Zn	1.057356	0.156753	0.104394
Zn16	Zn	1.557356	0.656753	0.604394
Zn17	Zn	1.057378	0.156767	-0.104201
Zn18	Zn	1.557378	0.656767	0.395799
O19	O	1.051041	0.321966	0.079250
O20	O	1.551041	0.821966	0.579250
C21	C	0.893874	0.164824	0.000080
C22	C	1.393874	0.664824	0.500080
C23	C	0.794568	0.162451	0.000070
C24	C	1.294568	0.662451	0.500070
C25	C	0.737752	0.264710	0.000067
C26	C	1.237752	0.764710	0.500067
C27	C	0.644444	0.262473	0.000081
C28	C	1.144444	0.762473	0.500081
C29	C	0.607953	0.157975	0.000092
C30	C	1.107953	0.657975	0.500092
C31	C	0.664776	0.055707	0.000098
C32	C	1.164776	0.555707	0.500098
C33	C	0.758082	0.057946	0.000091
C34	C	1.258082	0.557946	0.500091
C35	C	0.470294	0.051049	0.000111
C36	C	0.970294	0.551049	0.500111
C37	C	0.376981	0.048810	0.000117
C38	C	0.876981	0.548810	0.500117
C39	C	0.356656	0.255577	0.000102
C40	C	0.856656	0.755577	0.500102
C41	C	0.449963	0.257815	0.000095
C42	C	0.949963	0.757815	0.500095
C43	C	0.506779	0.155547	0.000099
C44	C	1.006779	0.655547	0.500099
C45	C	1.062891	-0.050737	0.000103
C46	C	1.562891	0.449263	0.500103
C47	C	1.060515	-0.176735	0.000102
C48	C	1.560515	0.323265	0.500102
C49	C	1.056147	-0.407419	0.000086
C50	C	1.556147	0.092581	0.500086
C51	C	1.058574	-0.279050	0.000095
C52	C	1.558574	0.220950	0.500095
C53	C	1.220859	0.148696	0.000110
C54	C	1.720859	0.648696	0.500110
C55	C	1.320166	0.151070	0.000114
C56	C	1.820166	0.651070	0.500114
C57	C	1.051843	0.364257	0.000087
C58	C	1.551843	0.864257	0.500087
C59	C	1.054218	0.490256	0.000082
C60	C	1.554218	0.990256	0.500082
N61	N	1.057347	0.156744	0.246754
N62	N	1.557347	0.656744	0.746754
N63	N	1.057393	0.156768	-0.246562
N64	N	1.557393	0.656768	0.253438
C65	C	1.117801	0.079698	0.296582
C66	C	1.617801	0.579698	0.796582
C67	C	1.117807	0.079698	0.396239
C68	C	1.617807	0.579698	0.896239
C69	C	1.057363	0.156749	0.446068
C70	C	1.557363	0.656749	0.946068
C71	C	0.996903	0.233797	0.396234
C72	C	1.496903	0.733797	0.896234
C73	C	0.996894	0.233792	0.296578
C74	C	1.496894	0.733792	0.796578
C75	C	0.996929	0.233806	0.603948
C76	C	1.496929	0.733806	1.103948
C77	C	0.996940	0.233813	0.703611
C78	C	1.496940	0.733813	1.203611
C79	C	1.117843	0.079712	0.703609
C80	C	1.617843	0.579712	1.203609
C81	C	1.117833	0.079706	0.603953
C82	C	1.617833	0.579706	1.103953
C83	C	1.057374	0.156757	0.554126
C84	C	1.557374	0.656757	1.054126
H85	H	0.635057	-0.029377	0.000120
H86	H	1.135057	0.470623	0.500120
O87	O	0.819369	-0.052348	0.000091
O88	O	1.319369	0.447652	0.500091
H89	H	0.778321	-0.125389	0.000091
H90	H	1.278321	0.374611	0.500091
O91	O	0.489328	0.370519	0.000078
O92	O	0.989328	0.870519	0.500078
H93	H	0.531362	0.376468	0.064600
H94	H	1.031362	0.876468	0.564600
H95	H	1.167032	0.016961	0.436808
H96	H	1.667032	0.516961	0.936808
O97	O	0.295383	0.365886	0.000108
O98	O	0.795383	0.865886	0.500108
H99	H	0.224370	0.346778	0.000129
H100	H	0.724370	0.846778	0.500129
O101	O	0.931717	0.316910	0.449979
O102	O	1.431717	0.816910	0.949979
H103	H	0.889675	0.370480	0.398585
H104	H	1.389675	0.870480	0.898585
H105	H	0.767455	0.349805	0.000058
H106	H	1.267455	0.849805	0.500058
H107	H	0.347274	-0.036282	0.000127
H108	H	0.847274	0.463718	0.500127
O109	O	0.531572	-0.059259	0.000116
O110	O	1.031572	0.440741	0.500116
H111	H	0.574565	-0.063195	0.064647
H112	H	1.074565	0.436805	0.564647
H113	H	1.167025	0.016959	0.256017
H114	H	1.667025	0.516959	0.756017
O115	O	1.183021	-0.003399	0.550203
O116	O	1.683021	0.496601	1.050203
H117	H	1.225056	-0.056986	0.601591
H118	H	1.725056	0.443014	1.101591
O119	O	1.183049	-0.003405	0.757342
O120	O	1.683049	0.496595	1.257342
H121	H	1.172895	0.009529	0.835010
H122	H	1.672895	0.509529	1.335010
H123	H	0.947719	0.296555	0.744177
H124	H	1.447719	0.796555	1.244177
O125	O	0.931695	0.316895	0.242828
O126	O	1.431695	0.816895	0.742828
H127	H	0.889672	0.370483	0.294218
H128	H	1.389672	0.870483	0.794218
O129	O	0.931726	0.316913	0.550200
O130	O	1.431726	0.816913	1.050200
H131	H	0.889704	0.370504	0.601589
H132	H	1.389704	0.870504	1.101589
H133	H	0.598187	0.345744	0.000078
H134	H	1.098187	0.845744	0.500078
