data_functionalizedCrystal
_audit_creation_method	'MofGen! by Chris Wilmer'
_symmetry_space_group_name_H-M	'P1'
_symmetry_Int_Tables_number	1
_symmetry_cell_setting	triclinic
loop_
_symmetry_equiv_pos_as_xyz
  x,y,z
_cell_length_a	10.723024
_cell_length_b	15.944551
_cell_length_c	9.798715
_cell_angle_alpha	89.995900
_cell_angle_beta	89.996609
_cell_angle_gamma	83.983304
loop_
_atom_site_label
_atom_site_type_symbol
_atom_site_fract_x
_atom_site_fract_y
_atom_site_fract_z
O1	O	1.655699	0.117808	-0.113485
O2	O	1.292404	0.129085	-0.113490
O3	O	1.483972	0.001228	-0.113475
O4	O	1.464131	0.245664	-0.113500
O5	O	1.483958	0.001228	0.113507
O6	O	1.292390	0.129084	0.113492
O7	O	1.655685	0.117808	0.113497
Zn8	Zn	1.474035	0.123446	0.149533
Zn9	Zn	1.474054	0.123446	-0.149526
O10	O	1.464116	0.245664	0.113482
C11	C	1.245908	0.128264	0.000000
C12	C	1.107384	0.125809	-0.000001
C13	C	1.031498	0.197350	-0.000009
C14	C	0.888327	0.194814	-0.000011
C15	C	1.483141	-0.030070	0.000016
C16	C	1.480672	-0.123331	0.000017
C17	C	1.356026	-0.338901	-0.000004
C18	C	1.413901	-0.399587	0.111913
C19	C	1.476205	-0.294082	0.000006
C20	C	1.413943	-0.399570	-0.111874
C21	C	1.471880	-0.459020	-0.000010
C22	C	1.534112	-0.353540	0.112015
C23	C	1.534137	-0.353517	-0.111872
C24	C	1.592099	-0.414184	0.000072
C25	C	1.478692	-0.199066	0.000016
C26	C	1.469402	-0.554035	-0.000011
C27	C	1.702181	0.118629	0.000003
C28	C	1.840704	0.121084	-0.000004
C29	C	1.464947	0.276963	-0.000012
C30	C	1.467417	0.370223	-0.000022
N31	N	1.474031	0.123445	0.353632
N32	N	1.474067	0.123441	-0.353626
C33	C	1.554469	0.069525	0.421415
C34	C	1.554489	0.069522	0.578578
H35	H	0.905903	0.059835	-0.000006
O36	O	1.080220	0.272737	0.000042
C37	C	0.981863	0.338764	-0.000004
H38	H	0.893380	0.314793	0.042970
H39	H	0.963501	0.362032	-0.108903
C40	C	1.127429	0.441278	0.036220
C41	C	1.018756	0.411839	0.089012
H42	H	1.150187	0.486356	0.091123
H43	H	1.193696	0.396795	0.036246
H44	H	1.112113	0.460662	-0.054528
H45	H	1.034078	0.392446	0.179751
H46	H	0.952493	0.456320	0.089003
O47	O	1.391734	0.178483	0.577002
C48	C	1.268093	0.164311	0.611816
H49	H	1.268031	0.132002	0.715599
H50	H	1.229383	0.122303	0.531435
C51	C	1.185484	0.288906	0.490762
C52	C	1.185407	0.249230	0.618236
H53	H	1.134477	0.341287	0.494716
H54	H	1.268783	0.298453	0.467302
H55	H	1.153229	0.253890	0.423792
H56	H	1.217677	0.284241	0.685200
H57	H	1.102112	0.239691	0.641707
H58	H	1.363064	-0.419986	0.206528
O59	O	1.594552	-0.329170	-0.224888
C60	C	1.530888	-0.352389	-0.342658
H61	H	1.429154	-0.359737	-0.315845
H62	H	1.578087	-0.414759	-0.383489
C63	C	1.659966	-0.274551	-0.485296
C64	C	1.535011	-0.283569	-0.452367
H65	H	1.662513	-0.232102	-0.552973
H66	H	1.702861	-0.258910	-0.405953
H67	H	1.699284	-0.326531	-0.519314
H68	H	1.495700	-0.231593	-0.418333
H69	H	1.492109	-0.299199	-0.531706
O70	O	1.058603	0.050443	-0.000178
C71	C	1.099349	0.004489	-0.117748
H72	H	1.189682	0.027815	-0.156942
H73	H	1.024047	0.013852	-0.200066
C74	C	1.012605	-0.118519	-0.033894
C75	C	1.123560	-0.089874	-0.082026
H76	H	1.027534	-0.176727	-0.011862
H77	H	0.985149	-0.087558	0.045314
H78	H	0.949864	-0.110709	-0.102500
H79	H	1.186293	-0.097675	-0.013414
H80	H	1.151027	-0.120838	-0.161221
O81	O	1.236966	-0.299941	-0.000061
C82	C	1.173179	-0.324391	-0.116959
H83	H	1.219757	-0.387494	-0.155561
H84	H	1.176970	-0.274620	-0.199969
C85	C	0.978254	-0.255584	-0.032959
C86	C	1.035456	-0.333092	-0.080365
H87	H	0.893298	-0.260948	-0.010390
H88	H	1.021228	-0.239109	0.045795
H89	H	0.981425	-0.214116	-0.102143
H90	H	1.032298	-0.374556	-0.011175
H91	H	0.992477	-0.349575	-0.159107
H92	H	1.584893	-0.333259	0.206736
O93	O	0.810368	0.267805	0.000038
C94	C	0.684775	0.249024	-0.000001
H95	H	0.679897	0.183007	0.042980
H96	H	0.647145	0.251960	-0.108898
C97	C	0.610997	0.394804	0.036213
C98	C	0.605004	0.313723	0.089012
H99	H	0.561788	0.434715	0.091114
H100	H	0.695611	0.407458	0.036234
H101	H	0.579641	0.397238	-0.054534
H102	H	0.636374	0.311287	0.179751
H103	H	0.520393	0.301070	0.089009
O104	O	1.353307	-0.423741	-0.224854
C105	C	1.312048	-0.352069	-0.303396
H106	H	1.371648	-0.298914	-0.278559
H107	H	1.209653	-0.331011	-0.278672
C108	C	1.251590	-0.439313	-0.486647
C109	C	1.324798	-0.374029	-0.456150
H110	H	1.259448	-0.452859	-0.580872
H111	H	1.279382	-0.487600	-0.433730
H112	H	1.166267	-0.421756	-0.466033
H113	H	1.410120	-0.391590	-0.476748
H114	H	1.297020	-0.325745	-0.509074
O115	O	1.636465	0.014450	0.351673
C116	C	1.569367	-0.037610	0.269023
H117	H	1.471791	-0.004600	0.247804
H118	H	1.560744	-0.099766	0.323965
C119	C	1.759373	-0.095648	0.159248
C120	C	1.639533	-0.055101	0.133177
H121	H	1.802656	-0.106441	0.075454
H122	H	1.804580	-0.060577	0.214934
H123	H	1.752170	-0.147440	0.205037
H124	H	1.646737	-0.003306	0.087406
H125	H	1.594329	-0.090164	0.077480
H126	H	1.691940	-0.446772	0.000137
H127	H	1.623359	0.023362	0.636869
H128	H	1.405176	0.169603	0.411951
