data_functionalizedCrystal
_audit_creation_method	'MofGen! by Chris Wilmer'
_symmetry_space_group_name_H-M	'P1'
_symmetry_Int_Tables_number	1
_symmetry_cell_setting	triclinic
loop_
_symmetry_equiv_pos_as_xyz
  x,y,z
_cell_length_a	19.288859
_cell_length_b	10.908878
_cell_length_c	17.766277
_cell_angle_alpha	89.993001
_cell_angle_beta	89.989768
_cell_angle_gamma	71.609258
loop_
_atom_site_label
_atom_site_type_symbol
_atom_site_fract_x
_atom_site_fract_y
_atom_site_fract_z
O1	O	0.903115	0.160261	-0.062607
O2	O	0.698392	0.181894	-0.062605
O3	O	0.827892	-0.016013	-0.062603
O4	O	0.773615	0.358168	-0.062609
O5	O	0.827874	-0.016023	0.062585
O6	O	0.698374	0.181884	0.062583
O7	O	0.903098	0.160251	0.062581
Cu8	Cu	0.800734	0.171067	0.074013
Cu9	Cu	0.800755	0.171078	-0.074037
O10	O	0.773597	0.358158	0.062580
C11	C	0.672585	0.181194	-0.000011
C12	C	0.595719	0.179108	-0.000010
C13	C	0.832956	-0.063889	-0.000010
C14	C	0.848062	-0.206529	-0.000013
C15	C	0.020067	0.281123	-0.000012
C16	C	0.092289	0.283094	-0.000016
C17	C	0.150213	0.166971	-0.000013
C18	C	0.135910	0.048869	-0.000026
C19	C	0.063689	0.046902	-0.000029
C20	C	0.281334	0.080364	0.043850
C21	C	0.353553	0.082337	0.043858
C22	C	0.372969	0.173035	-0.000006
C23	C	0.320152	0.261782	-0.043868
C24	C	0.247931	0.259815	-0.043871
C25	C	0.228527	0.169092	-0.000010
C26	C	0.465576	0.293266	-0.000003
C27	C	0.537800	0.295232	-0.000012
C28	C	0.581420	0.061004	-0.000013
C29	C	0.509197	0.059042	-0.000012
C30	C	0.451278	0.175176	-0.000003
C31	C	0.792943	-0.255217	-0.000014
C32	C	0.808554	-0.402643	-0.000016
C33	C	0.928904	0.160951	-0.000015
C34	C	1.005770	0.163037	-0.000020
C35	C	0.768533	0.406034	-0.000015
C36	C	0.753427	0.548674	-0.000017
N37	N	0.800725	0.171057	0.178144
N38	N	0.800771	0.171077	-0.178167
C39	C	0.858078	0.083467	0.217531
C40	C	0.858083	0.083461	0.296333
C41	C	0.800738	0.171068	0.335744
C42	C	0.743375	0.258664	0.296347
C43	C	0.743369	0.258659	0.217547
C44	C	0.778113	0.288149	0.460581
C45	C	0.778125	0.288156	0.539379
C46	C	0.800755	0.171083	0.578790
C47	C	0.823389	0.053998	0.539393
C48	C	0.823382	0.053993	0.460593
C49	C	0.800739	0.171082	0.421190
C50	C	0.858117	0.083479	0.703624
C51	C	0.858117	0.083472	0.782427
C52	C	0.743412	0.258686	0.782440
C53	C	0.743410	0.258682	0.703638
C54	C	0.800766	0.171080	0.664235
H55	H	0.103933	0.379257	-0.000003
C56	C	0.887923	-0.493756	-0.000018
H57	H	0.920480	-0.444092	-0.000012
H58	H	0.896135	-0.546683	-0.043673
H59	H	0.896121	-0.546690	0.043644
C60	C	0.645127	-0.066729	-0.000012
H61	H	0.690188	-0.048646	-0.000005
H62	H	0.642259	-0.115163	-0.043668
H63	H	0.642246	-0.115174	0.043649
C64	C	0.259980	-0.019401	0.092106
H65	H	0.209405	-0.007870	0.085819
H66	H	0.269704	-0.007786	0.143572
H67	H	0.287652	-0.104100	0.076685
H68	H	0.841810	-0.041341	0.428519
H69	H	0.904819	0.012138	0.814497
C70	C	0.553530	0.425131	-0.000008
H71	H	0.604837	0.409673	-0.000018
H72	H	0.532729	0.472920	0.043649
H73	H	0.532736	0.472932	-0.043668
C74	C	0.493464	-0.070852	-0.000017
H75	H	0.442157	-0.055393	-0.000026
H76	H	0.514253	-0.118662	0.043637
H77	H	0.514269	-0.118632	-0.043680
C78	C	0.680287	0.355007	0.339692
H79	H	0.646121	0.407161	0.304945
H80	H	0.699091	0.408395	0.370428
H81	H	0.656711	0.308886	0.370437
H82	H	0.694676	-0.383870	-0.000009
C83	C	0.927427	-0.297646	-0.000014
H84	H	0.959984	-0.247982	-0.000008
H85	H	0.935639	-0.350573	-0.043669
H86	H	0.935625	-0.350580	0.043648
C87	C	0.848278	-0.074790	0.582734
H88	H	0.845032	-0.058023	0.635307
H89	H	0.897400	-0.120827	0.569814
H90	H	0.817744	-0.124962	0.569830
C91	C	0.921195	-0.012890	0.660274
H92	H	0.912982	-0.000339	0.607701
H93	H	0.923554	-0.098613	0.673196
H94	H	0.965967	0.000846	0.673173
C95	C	0.921161	-0.012904	0.174192
H96	H	0.955316	-0.065079	0.208940
H97	H	0.944746	0.033175	0.143436
H98	H	0.902335	-0.066286	0.143468
C99	C	0.921174	-0.012883	0.339672
H100	H	0.912960	-0.000336	0.392246
H101	H	0.965938	0.000858	0.326743
H102	H	0.923537	-0.098619	0.326771
H103	H	0.759672	0.383491	0.428499
C104	C	0.680334	0.355051	0.825782
H105	H	0.688553	0.342515	0.878355
H106	H	0.635565	0.341317	0.812882
H107	H	0.677976	0.440780	0.812860
H108	H	0.696709	0.330012	0.671566
C109	C	0.401864	0.421006	-0.000010
H110	H	0.420725	0.491619	-0.000019
H111	H	0.372773	0.425111	0.043644
H112	H	0.372795	0.425102	-0.043673
C113	C	0.753234	0.416942	0.582709
H114	H	0.739743	0.486665	0.547953
H115	H	0.792120	0.423891	0.613434
H116	H	0.712468	0.419732	0.613463
H117	H	0.734196	-0.187756	-0.000008
C118	C	0.680282	0.355021	0.174219
H119	H	0.646130	0.407203	0.208973
H120	H	0.656693	0.308936	0.143487
H121	H	0.699104	0.408398	0.143472
H122	H	-0.027087	0.375689	-0.000009
C123	C	0.411647	-0.015277	0.092102
H124	H	0.457438	-0.001106	0.085830
H125	H	0.415647	-0.100611	0.076676
H126	H	0.397697	-0.004316	0.143572
C127	C	0.189836	0.357415	-0.092120
H128	H	0.144044	0.343254	-0.085834
H129	H	0.203783	0.346452	-0.143586
H130	H	0.185831	0.442758	-0.076696
C131	C	0.341506	0.361512	-0.092150
H132	H	0.392086	0.349955	-0.085884
H133	H	0.313845	0.446224	-0.076755
H134	H	0.331776	0.349851	-0.143613
H135	H	0.052052	-0.049261	-0.000036
C136	C	0.199622	-0.078862	-0.000019
H137	H	0.244683	-0.060778	-0.000008
H138	H	0.196758	-0.127298	-0.043676
H139	H	0.196737	-0.127306	0.043641
