data_functionalizedCrystal
_audit_creation_method	'MofGen! by Chris Wilmer'
_symmetry_space_group_name_H-M	'P1'
_symmetry_Int_Tables_number	1
_symmetry_cell_setting	triclinic
loop_
_symmetry_equiv_pos_as_xyz
  x,y,z
_cell_length_a	14.628931
_cell_length_b	12.477989
_cell_length_c	12.477989
_cell_angle_alpha	89.511470
_cell_angle_beta	64.369326
_cell_angle_gamma	64.369026
loop_
_atom_site_label
_atom_site_type_symbol
_atom_site_fract_x
_atom_site_fract_y
_atom_site_fract_z
Zr1	Zr	1.088770	-0.193162	0.984931
O2	O	1.245630	-0.345093	0.833001
O3	O	0.908440	-0.146587	1.031505
O4	O	1.077035	-0.358109	1.044522
O5	O	1.094476	0.033282	0.809716
O6	O	1.094476	-0.368376	1.211375
O7	O	1.077035	-0.133571	0.819984
O8	O	0.792891	0.009998	1.188089
O9	O	1.396062	-0.345093	0.833001
O10	O	1.004321	-0.134386	1.175889
O11	O	1.004321	-0.002203	1.043706
O12	O	1.202820	-0.251243	1.059032
O13	O	1.202820	-0.119061	0.926849
Zr14	Zr	1.144404	0.056573	1.234664
Zr15	Zr	1.116587	-0.209537	1.251041
Zr16	Zr	1.116587	0.072948	0.968555
Zr17	Zr	1.328692	-0.193162	0.984931
Zr18	Zr	0.904482	0.056573	1.234664
O19	O	1.324734	0.009997	1.188090
O20	O	1.285182	-0.368377	1.211375
O21	O	1.285182	0.033281	0.809716
O22	O	0.987544	0.208504	1.386594
O23	O	0.947992	-0.169870	1.409879
O24	O	0.947992	0.231787	1.008220
O25	O	1.138697	-0.169871	1.409880
O26	O	1.156139	0.221520	1.175073
O27	O	1.138697	0.231787	1.008221
O28	O	1.156139	-0.003018	1.399612
O29	O	1.418173	-0.358109	1.044523
O30	O	0.815001	0.221520	1.175072
O31	O	0.837112	0.208504	1.386594
O32	O	0.815001	-0.003018	1.399611
O33	O	1.418172	-0.133571	0.819984
O34	O	1.440283	-0.146587	1.031506
O35	O	1.030354	0.114654	1.160563
O36	O	1.030354	-0.017528	1.292746
O37	O	1.228852	-0.134386	1.175889
O38	O	1.228852	-0.002204	1.043706
C39	C	0.816482	-0.068294	1.109797
C40	C	0.714629	-0.068294	1.109797
C41	C	1.081792	-0.047811	0.776935
C42	C	1.069983	-0.040860	0.663964
C43	C	1.151381	0.264568	1.089313
C44	C	1.163190	0.377539	1.082361
C45	C	0.669219	-0.133865	1.175368
C46	C	0.563949	-0.133866	1.175370
C47	C	1.416692	-0.068295	1.109798
C48	C	1.518545	-0.068295	1.109798
C49	C	1.081792	-0.401157	1.130282
C50	C	1.069983	-0.514128	1.137234
C51	C	1.151381	-0.088778	1.442661
C52	C	1.163190	-0.095729	1.555631
C53	C	0.851276	-0.088777	1.442660
C54	C	0.761232	-0.095729	1.555631
C55	C	0.851276	0.264569	1.089313
C56	C	0.761232	0.377540	1.082361
C57	C	0.886071	0.244086	1.422176
C58	C	0.807836	0.350105	1.528194
C59	C	1.347103	-0.380675	0.797419
C60	C	1.425338	-0.486694	0.691401
C61	C	1.381897	-0.047812	0.776935
C62	C	1.471941	-0.040860	0.663965
C63	C	1.381898	-0.401158	1.130282
C64	C	1.471942	-0.514129	1.137235
C65	C	0.705357	-0.160003	1.547685
C66	C	0.620760	-0.166559	1.653824
C67	C	0.592035	-0.108833	1.767907
C68	C	0.647920	-0.044557	1.775850
C69	C	0.732521	-0.038009	1.669713
C70	C	0.732536	0.491601	1.140093
C71	C	0.647944	0.597760	1.133555
C72	C	0.592044	0.589854	1.069292
C73	C	0.620747	0.475780	1.011552
C74	C	0.705343	0.369624	1.018083
C75	C	0.771097	0.330894	1.646991
C76	C	0.697600	0.430499	1.746617
C77	C	0.660837	0.549314	1.727444
C78	C	0.697583	0.568524	1.608635
C79	C	0.771085	0.468919	1.509012
C80	C	1.462089	-0.467483	0.572604
C81	C	1.535615	-0.567088	0.472978
C82	C	1.572383	-0.685903	0.492151
C83	C	1.535631	-0.705113	0.610960
C84	C	1.462112	-0.605508	0.710584
C85	C	1.527826	0.023403	0.671911
C86	C	1.612445	0.029929	0.565773
C87	C	1.641173	-0.027800	0.451691
C88	C	1.585285	-0.092072	0.443748
C89	C	1.500672	-0.098605	0.549884
C90	C	1.527817	-0.506183	1.201509
C91	C	1.612414	-0.612323	1.208065
C92	C	1.641139	-0.726406	1.150339
C93	C	1.585254	-0.734349	1.086063
C94	C	1.500653	-0.628211	1.079515
H95	H	0.708272	-0.189998	1.231512
H96	H	0.667640	0.665276	1.593042
F97	F	0.735914	-0.221453	1.426280
F98	F	1.441197	-0.166998	0.541408
F99	F	0.569583	0.005080	1.036409
H100	H	0.675568	-0.012154	1.053663
F101	F	1.574770	-0.831574	0.631346
F102	F	0.953870	0.494140	1.205596
F103	F	0.561294	-0.234967	1.645345
F104	F	0.953862	0.027496	0.672231
F105	F	0.501992	-0.115811	1.880859
H106	H	1.504444	-0.413301	1.248517
F107	F	1.731228	-0.020835	0.338740
F108	F	0.617334	0.016878	1.897276
H109	H	1.565526	-0.551424	0.376248
H110	H	1.252029	0.371218	1.030068
F111	F	0.791974	0.030411	1.678187
F112	F	0.512915	-0.207253	1.248743
H113	H	1.657938	0.082270	0.572264
F114	F	1.671882	-0.603843	1.276471
H115	H	1.710029	-0.812820	1.155680
F116	F	1.422968	-0.341039	0.552172
H117	H	1.632247	-0.766997	0.411020
H118	H	0.778043	0.498062	1.192423
H119	H	1.608656	-0.827249	1.039065
H120	H	1.608688	-0.139072	0.350847
F121	F	1.279303	-0.164096	0.547364
H122	H	1.455167	-0.634697	1.027171
H123	H	0.624586	0.690633	1.180580
H124	H	0.728694	0.276754	0.971074
F125	F	0.502009	0.702846	1.062352
F126	F	0.561242	0.467384	0.943162
H127	H	0.801018	0.234157	1.662625
H128	H	1.504444	0.070423	0.764792
H129	H	0.667688	0.414837	1.843348
H130	H	1.432189	-0.621165	0.807311
F131	F	0.810172	0.489384	1.382581
H132	H	0.600986	0.630408	1.808575
