data_functionalizedCrystal
_audit_creation_method	'MofGen! by Chris Wilmer'
_symmetry_space_group_name_H-M	'P1'
_symmetry_Int_Tables_number	1
_symmetry_cell_setting	triclinic
loop_
_symmetry_equiv_pos_as_xyz
  x,y,z
_cell_length_a	19.077105
_cell_length_b	12.645330
_cell_length_c	19.076919
_cell_angle_alpha	87.723750
_cell_angle_beta	89.923776
_cell_angle_gamma	87.714233
loop_
_atom_site_label
_atom_site_type_symbol
_atom_site_fract_x
_atom_site_fract_y
_atom_site_fract_z
Zn1	Zn	1.058309	-0.512860	0.440444
Zn2	Zn	1.558309	-0.012860	0.940444
Zn3	Zn	1.062962	-0.683311	0.322946
Zn4	Zn	1.562962	-0.183311	0.822946
Zn5	Zn	0.945526	-0.498659	0.318237
Zn6	Zn	1.445526	0.001341	0.818237
Zn7	Zn	0.940784	-0.682672	0.435699
Zn8	Zn	1.440784	-0.182672	0.935699
O9	O	1.001896	-0.594376	0.379332
O10	O	1.501896	-0.094376	0.879332
O11	O	1.157259	-0.541682	0.428815
O12	O	1.657259	-0.041682	0.928815
O13	O	1.051316	-0.653141	0.223990
O14	O	1.551316	-0.153141	0.723990
O15	O	0.960524	-0.352199	0.334463
O16	O	1.460524	0.147801	0.834463
O17	O	1.160677	-0.666911	0.342490
O18	O	1.660677	-0.166911	0.842490
O19	O	1.043386	-0.362632	0.424248
O20	O	1.543386	0.137368	0.924248
O21	O	0.965036	-0.517478	0.220530
O22	O	1.465036	-0.017478	0.720530
O23	O	0.846565	-0.516858	0.329862
O24	O	1.346565	-0.016858	0.829862
O25	O	0.952442	-0.665822	0.534660
O26	O	1.452442	-0.165822	1.034660
O27	O	0.843081	-0.652051	0.416161
O28	O	1.343081	-0.152051	0.916161
O29	O	1.038788	-0.541062	0.538146
O30	O	1.538788	-0.041062	1.038146
O31	O	1.046718	-0.831570	0.337888
O32	O	1.546718	-0.331570	0.837888
O33	O	0.956954	-0.831101	0.420727
O34	O	1.456954	-0.331101	0.920727
C35	C	0.819326	-0.582845	0.371986
C36	C	1.319326	-0.082845	0.871986
C37	C	0.741222	-0.577939	0.368860
C38	C	1.241222	-0.077939	0.868860
C39	C	0.702735	-0.646120	0.412251
C40	C	1.202735	-0.146120	0.912251
C41	C	0.629348	-0.641496	0.409318
C42	C	1.129348	-0.141496	0.909318
C43	C	0.594448	-0.568695	0.362988
C44	C	1.094448	-0.068695	0.862988
C45	C	0.632940	-0.500507	0.319594
C46	C	1.132940	-0.000507	0.819594
C47	C	0.706326	-0.505126	0.322532
C48	C	1.206326	-0.005126	0.822532
C49	C	0.375159	-0.547316	0.349394
C50	C	0.875159	-0.047316	0.849394
C51	C	0.301768	-0.542704	0.346458
C52	C	0.801768	-0.042704	0.846458
C53	C	0.298181	-0.683692	0.436183
C54	C	0.798181	-0.183692	0.936183
C55	C	0.371569	-0.688309	0.439113
C56	C	0.871569	-0.188309	0.939113
C57	C	0.410054	-0.620117	0.395722
C58	C	0.910054	-0.120117	0.895722
N59	N	0.519434	-0.563970	0.359986
N60	N	1.019434	-0.063970	0.859986
N61	N	0.485066	-0.624839	0.398728
N62	N	0.985066	-0.124839	0.898728
C63	C	1.001845	-0.869801	0.379320
C64	C	1.501845	-0.369801	0.879320
C65	C	1.001886	-0.987635	0.379341
C66	C	1.501886	-0.487635	0.879341
C67	C	0.945633	-1.154972	0.431631
C68	C	1.445633	-0.654972	0.931631
C69	C	0.945363	-1.032385	0.431445
C70	C	1.445363	-0.532385	0.931445
C71	C	0.984820	-1.026659	0.304483
C72	C	1.484820	-0.526659	0.804483
C73	C	0.984477	-1.149256	0.304800
C74	C	1.484477	-0.649256	0.804800
C75	C	1.075561	-1.160522	0.401321
C76	C	1.575561	-0.660522	0.901321
C77	C	1.075039	-1.037980	0.402922
C78	C	1.575039	-0.537980	0.902922
C79	C	1.185178	-0.605952	0.386707
C80	C	1.685178	-0.105952	0.886707
C81	C	1.263281	-0.610885	0.389850
C82	C	1.763281	-0.110885	0.889850
C83	C	0.994567	-0.604955	0.562612
C84	C	1.494567	-0.104955	1.062612
C85	C	0.991444	-0.609463	0.640716
C86	C	1.491444	-0.109463	1.140716
C87	C	1.001965	-0.317876	0.379360
C88	C	1.501965	0.182124	0.879360
C89	C	1.001995	-0.200049	0.379372
C90	C	1.501995	0.299951	0.879372
C91	C	1.009236	-0.583764	0.196766
C92	C	1.509236	-0.083764	0.696766
C93	C	1.012495	-0.578966	0.118668
C94	C	1.512495	-0.078966	0.618668
C95	C	1.034930	-0.546628	0.679225
C96	C	1.534930	-0.046628	1.179225
C97	C	1.031987	-0.550859	0.752611
C98	C	1.531987	-0.050859	1.252611
C99	C	0.985561	-0.617932	0.787487
C100	C	1.485561	-0.117932	1.287487
C101	C	0.942070	-0.680769	0.748972
C102	C	1.442070	-0.180769	1.248972
C103	C	0.945010	-0.676531	0.675587
C104	C	1.445010	-0.176531	1.175587
C105	C	0.971944	-0.637565	1.006769
C106	C	1.471944	-0.137565	1.506769
C107	C	0.969009	-0.641800	1.080159
C108	C	1.469009	-0.141800	1.580159
C109	C	1.058925	-0.511889	1.083793
C110	C	1.558925	-0.011889	1.583793
C111	C	1.061864	-0.507662	1.010407
C112	C	1.561864	-0.007662	1.510407
C113	C	1.018371	-0.570495	0.971898
C114	C	1.518371	-0.070495	1.471898
N115	N	0.982553	-0.622261	0.862499
N116	N	1.482553	-0.122261	1.362499
N117	N	1.021376	-0.566159	0.896887
N118	N	1.521376	-0.066159	1.396887
H119	H	0.737661	-0.449601	0.287201
H120	H	1.237661	0.050399	0.787201
O121	O	0.958994	-0.997702	0.504854
O122	O	1.458994	-0.497702	1.004854
H123	H	0.965842	-1.068539	0.540808
H124	H	1.465842	-0.568539	1.040808
H125	H	0.604518	-0.441227	0.281874
H126	H	1.104518	0.058773	0.781874
O127	O	1.105831	-0.444109	1.125320
O128	O	1.605831	0.055891	1.625320
H129	H	1.094363	-0.359340	1.110745
H130	H	1.594363	0.140660	1.610745
O131	O	0.256674	-0.757229	0.482990
O132	O	0.756674	-0.257229	0.982990
H133	H	0.199780	-0.741783	0.473171
H134	H	0.699780	-0.241783	0.973171
O135	O	1.096951	-1.206977	0.472612
O136	O	1.596951	-0.706977	0.972612
H137	H	1.146896	-1.254261	0.467913
H138	H	1.646896	-0.754261	0.967913
O139	O	0.898107	-0.744300	0.634046
O140	O	1.398107	-0.244300	1.134046
H141	H	0.863708	-0.692651	0.599185
H142	H	1.363708	-0.192651	1.099185
H143	H	0.931202	-0.696421	1.108552
H144	H	1.431202	-0.196421	1.608552
O145	O	0.740370	-0.724626	0.462236
O146	O	1.240370	-0.224626	0.962236
H147	H	0.797867	-0.716387	0.456991
H148	H	1.297867	-0.216387	0.956991
H149	H	0.904267	-0.735377	0.777373
H150	H	1.404267	-0.235377	1.277373
H151	H	0.936539	-0.688744	0.975424
H152	H	1.436539	-0.188744	1.475424
O153	O	0.958899	-1.199700	0.505194
O154	O	1.458899	-0.699700	1.005194
H155	H	1.005837	-1.254474	0.505308
H156	H	1.505837	-0.754474	1.005308
H157	H	0.598015	-0.697017	0.444651
H158	H	1.098015	-0.197017	0.944651
O159	O	0.873753	-1.190351	0.412289
O160	O	1.373753	-0.690351	0.912289
H161	H	0.877994	-1.239900	0.365615
H162	H	1.377994	-0.739900	0.865615
H163	H	0.890765	-0.998945	0.416668
H164	H	1.390765	-0.498945	0.916668
H165	H	0.399979	-0.747594	0.476839
H166	H	0.899979	-0.247594	0.976839
O167	O	0.264121	-0.464173	0.296491
O168	O	0.764121	0.035827	0.796491
H169	H	0.303210	-0.417522	0.266817
H170	H	0.803210	0.082478	0.766817
O171	O	1.133279	-0.998099	0.356490
O172	O	1.633279	-0.498099	0.856490
H173	H	1.184138	-1.035170	0.374579
H174	H	1.684138	-0.535170	0.874579
O175	O	0.914466	-0.980373	0.279956
O176	O	1.414466	-0.480373	0.779956
H177	H	0.921415	-0.932103	0.230748
H178	H	1.421415	-0.432103	0.730748
O179	O	0.416654	-0.473790	0.302572
O180	O	0.916654	0.026210	0.802572
H181	H	0.402094	-0.390429	0.314136
H182	H	0.902094	0.109571	0.814136
O183	O	0.913361	-1.181501	0.280636
O184	O	1.413361	-0.681501	0.780636
H185	H	0.879538	-1.109556	0.268837
H186	H	1.379538	-0.609556	0.768837
O187	O	1.036695	-1.188475	0.251244
O188	O	1.536695	-0.688475	0.751244
H189	H	1.062076	-1.119872	0.225230
H190	H	1.562076	-0.619872	0.725230
H191	H	1.099671	-0.453047	0.982016
H192	H	1.599671	0.046953	1.482016
H193	H	1.024702	-0.997486	0.264350
H194	H	1.524702	-0.497486	0.764350
H195	H	1.087964	-1.012952	0.458029
H196	H	1.587964	-0.512952	0.958029
O197	O	1.131171	-1.199480	0.351072
O198	O	1.631171	-0.699480	0.851072
H199	H	1.106575	-1.246737	0.310645
H200	H	1.606575	-0.746737	0.810645
O201	O	1.085004	-0.474285	0.641610
O202	O	1.585004	0.025715	1.141610
H203	H	1.114742	-0.431297	0.680720
H204	H	1.614742	0.068703	1.180720
H205	H	1.067399	-0.499695	0.783962
H206	H	1.567399	0.000305	1.283962
