data_functionalizedCrystal
_audit_creation_method	'MofGen! by Chris Wilmer'
_symmetry_space_group_name_H-M	'P1'
_symmetry_Int_Tables_number	1
_symmetry_cell_setting	triclinic
loop_
_symmetry_equiv_pos_as_xyz
  x,y,z
_cell_length_a	11.169417
_cell_length_b	12.759399
_cell_length_c	12.759393
_cell_angle_alpha	89.971563
_cell_angle_beta	89.979802
_cell_angle_gamma	90.014543
loop_
_atom_site_label
_atom_site_type_symbol
_atom_site_fract_x
_atom_site_fract_y
_atom_site_fract_z
Zn1	Zn	-1.834901	0.418234	0.594052
Zn2	Zn	-1.834777	0.593953	0.418382
Zn3	Zn	-1.634192	0.418285	0.418386
Zn4	Zn	-1.634176	0.593868	0.594018
O5	O	-1.734511	0.506085	0.506209
O6	O	-2.002834	0.441558	0.570761
O7	O	-1.808124	0.570707	0.271361
O8	O	-1.660875	0.271258	0.441705
O9	O	-2.002743	0.570657	0.441697
O10	O	-1.808335	0.271220	0.570766
O11	O	-1.660755	0.441645	0.271364
O12	O	-1.466240	0.441563	0.441672
O13	O	-1.660847	0.570513	0.741043
O14	O	-1.466228	0.570563	0.570708
O15	O	-1.808319	0.441475	0.741068
O16	O	-1.808108	0.740963	0.441664
O17	O	-1.660727	0.740901	0.570703
C18	C	-1.422687	0.506060	0.506187
C19	C	-1.289287	0.506075	0.506202
C20	C	-1.734435	0.779053	0.506202
C21	C	-1.734512	0.895829	0.506234
C22	C	-1.047554	0.506102	0.506224
C23	C	-1.180954	0.506087	0.506209
C24	C	-1.811338	0.950689	0.439121
C25	C	-1.811409	1.060413	0.439159
C26	C	-1.657820	1.060408	0.573428
C27	C	-1.657755	0.950686	0.573394
C28	C	-1.900008	0.950692	0.361599
C29	C	-1.900079	1.060416	0.361637
C30	C	-1.734595	0.505979	0.780243
C31	C	-1.734631	0.505934	0.897020
C32	C	-1.734616	1.232052	0.506253
C33	C	-1.734649	1.115275	0.506307
C34	C	-1.734497	0.506115	0.233242
C35	C	-1.734693	0.505864	0.116466
C36	C	-1.811430	0.438738	0.951896
C37	C	-1.811459	0.438700	1.061620
C38	C	-1.657886	0.573063	1.061581
C39	C	-1.657852	0.573095	0.951859
C40	C	-1.900098	0.361167	0.951920
C41	C	-1.900127	0.361129	1.061644
H42	H	-1.595209	0.906020	0.628052
H43	H	-1.595372	0.627742	1.106245
O44	O	-2.023244	0.390001	1.101112
H45	H	-2.047379	0.469244	1.072086
O46	O	-2.023089	0.911137	0.390549
H47	H	-2.059111	0.862859	0.325446
H48	H	-1.866737	0.916744	0.284270
H49	H	-1.595328	1.105086	0.628107
H50	H	-1.866870	0.283819	1.095687
O51	O	-2.017043	1.105398	0.400338
H52	H	-2.079000	1.040513	0.420820
O53	O	-1.867164	0.253396	0.912482
H54	H	-1.851052	0.200611	0.980191
H55	H	-1.875247	1.090278	0.280258
O56	O	-1.574955	0.645534	0.892690
H57	H	-1.595465	0.727999	0.913719
O58	O	-2.017024	0.399786	0.906824
H59	H	-2.079044	0.420231	0.971650
