data_functionalizedCrystal
_audit_creation_method	'MofGen! by Chris Wilmer'
_symmetry_space_group_name_H-M	'P1'
_symmetry_Int_Tables_number	1
_symmetry_cell_setting	triclinic
loop_
_symmetry_equiv_pos_as_xyz
  x,y,z
_cell_length_a	13.032831
_cell_length_b	16.625546
_cell_length_c	13.033429
_cell_angle_alpha	82.778950
_cell_angle_beta	89.091437
_cell_angle_gamma	82.826778
loop_
_atom_site_label
_atom_site_type_symbol
_atom_site_fract_x
_atom_site_fract_y
_atom_site_fract_z
Zn1	Zn	1.498517	-0.391465	-0.780838
Zn2	Zn	1.520229	-0.545312	-0.608832
Zn3	Zn	1.348357	-0.395765	-0.587067
Zn4	Zn	1.326494	-0.511523	-0.758969
O5	O	1.423399	-0.461016	-0.683927
O6	O	1.645318	-0.424215	-0.776282
O7	O	1.515666	-0.541414	-0.462018
O8	O	1.368339	-0.282364	-0.612815
O9	O	1.661270	-0.537245	-0.649909
O10	O	1.478661	-0.279205	-0.755178
O11	O	1.389392	-0.431542	-0.446028
O12	O	1.201535	-0.398779	-0.591610
O13	O	1.331077	-0.479657	-0.905797
O14	O	1.185473	-0.483826	-0.717905
O15	O	1.457462	-0.391452	-0.921864
O16	O	1.494467	-0.653660	-0.628704
O17	O	1.352130	-0.628836	-0.739009
C18	C	1.156187	-0.438103	-0.650024
C19	C	1.041869	-0.428318	-0.635544
C20	C	0.982995	-0.466124	-0.691484
C21	C	0.864842	-0.456011	-0.676520
C22	C	1.423307	-0.670504	-0.683871
C23	C	1.423358	-0.760127	-0.683894
C24	C	1.423523	-1.088307	-0.684024
C25	C	1.423474	-0.996996	-0.683990
C26	C	1.423440	-0.924220	-0.683958
C27	C	1.423392	-0.832904	-0.683926
C28	C	1.691655	-0.484019	-0.717963
C29	C	1.805969	-0.493822	-0.732467
C30	C	1.389409	-0.431306	-0.952193
C31	C	1.374924	-0.418645	-1.066512
C32	C	1.423516	-0.250711	-0.684008
C33	C	1.423567	-0.161091	-0.684043
C34	C	1.415981	-0.454290	-1.243542
C35	C	1.430951	-0.467371	-1.125387
C36	C	1.457316	-0.490558	-0.416712
C37	C	1.472000	-0.503009	-0.302419
H38	H	1.356941	-0.402892	-1.280608
O39	O	1.304465	-0.357264	-1.110551
C40	C	1.175394	-0.245036	-1.082928
C41	C	1.255166	-0.314504	-1.032922
H42	H	1.135498	-0.210456	-1.020186
H43	H	1.216262	-0.201339	-1.139202
H44	H	1.115311	-0.271927	-1.126423
H45	H	1.315271	-0.287685	-0.989373
H46	H	1.214227	-0.358190	-0.976705
O47	O	0.820610	-0.408590	-0.606037
C48	C	0.716715	-0.402638	-0.451953
C49	C	0.766768	-0.456432	-0.531691
H50	H	0.673154	-0.441292	-0.391836
H51	H	0.779389	-0.375771	-0.412081
H52	H	0.660485	-0.351002	-0.492961
H53	H	0.822990	-0.508108	-0.490762
H54	H	0.704039	-0.483237	-0.571559
H55	H	1.004801	-0.388460	-0.576578
H56	H	1.531048	-0.554401	-1.265353
H57	H	1.490003	-0.518766	-1.088326
H58	H	1.020063	-0.505974	-0.750457
H59	H	0.843030	-0.533673	-0.791448
