data_functionalizedCrystal
_audit_creation_method	'MofGen! by Chris Wilmer'
_symmetry_space_group_name_H-M	'P1'
_symmetry_Int_Tables_number	1
_symmetry_cell_setting	triclinic
loop_
_symmetry_equiv_pos_as_xyz
  x,y,z
_cell_length_a	15.944551
_cell_length_b	15.944551
_cell_length_c	15.021413
_cell_angle_alpha	90.003065
_cell_angle_beta	89.997174
_cell_angle_gamma	83.498738
loop_
_atom_site_label
_atom_site_type_symbol
_atom_site_fract_x
_atom_site_fract_y
_atom_site_fract_z
O1	O	1.114529	0.108321	-0.073941
O2	O	1.614529	0.608321	0.426059
O3	O	0.869979	0.121677	-0.073964
O4	O	1.369979	0.621677	0.426036
O5	O	0.998932	-0.007276	-0.073944
O6	O	1.498932	0.492724	0.426056
O7	O	0.985576	0.237274	-0.073961
O8	O	1.485576	0.737274	0.426039
O9	O	0.998912	-0.007257	0.074121
O10	O	1.498912	0.492743	0.574121
O11	O	0.869959	0.121695	0.074101
O12	O	1.369959	0.621695	0.574101
O13	O	1.114508	0.108339	0.074123
O14	O	1.614508	0.608339	0.574123
Zn15	Zn	0.992230	0.115020	0.097620
Zn16	Zn	1.492230	0.615020	0.597620
Zn17	Zn	0.992257	0.114996	-0.097461
Zn18	Zn	1.492257	0.614996	0.402539
O19	O	0.985555	0.237292	0.074103
O20	O	1.485555	0.737292	0.574103
C21	C	0.838675	0.121132	0.000066
C22	C	1.338675	0.621132	0.500066
C23	C	0.745429	0.119470	0.000057
C24	C	1.245429	0.619470	0.500057
C25	C	0.530572	0.035565	0.000081
C26	C	1.030572	0.535565	0.500081
C27	C	0.469562	0.074518	-0.072926
C28	C	0.969562	0.574518	0.427074
C29	C	0.574703	0.116462	0.000068
C30	C	1.074703	0.616462	0.500068
C31	C	0.469564	0.074556	0.073054
C32	C	0.969564	0.574556	0.573054
C33	C	0.409790	0.113551	0.000083
C34	C	0.909790	0.613551	0.500083
C35	C	0.514921	0.155438	-0.072998
C36	C	1.014921	0.655438	0.427002
C37	C	0.514930	0.155464	0.073047
C38	C	1.014930	0.655464	0.573047
C39	C	0.453937	0.194476	0.000023
C40	C	0.953937	0.694476	0.500023
C41	C	0.669705	0.118137	0.000059
C42	C	1.169705	0.618137	0.500059
C43	C	0.314789	0.111883	0.000085
C44	C	0.814789	0.611883	0.500085
C45	C	0.998367	-0.038561	0.000089
C46	C	1.498367	0.461439	0.500089
C47	C	0.996705	-0.131807	0.000089
C48	C	1.496705	0.368193	0.500089
C49	C	0.912801	-0.346663	0.000069
C50	C	1.412801	0.153337	0.500069
C51	C	0.951753	-0.407672	0.073077
C52	C	1.451753	0.092328	0.573077
C53	C	0.993698	-0.302533	0.000082
C54	C	1.493698	0.197467	0.500082
C55	C	0.951792	-0.407673	-0.072903
C56	C	1.451792	0.092327	0.427097
C57	C	0.990787	-0.467445	0.000071
C58	C	1.490787	0.032555	0.500071
C59	C	1.032672	-0.362313	0.073150
C60	C	1.532672	0.137687	0.573150
C61	C	1.032700	-0.362308	-0.072895
C62	C	1.532700	0.137692	0.427105
C63	C	1.071711	-0.423298	0.000131
C64	C	1.571711	0.076702	0.500131
C65	C	0.995372	-0.207530	0.000089
C66	C	1.495372	0.292470	0.500089
C67	C	0.989119	-0.562446	0.000070
C68	C	1.489119	-0.062446	0.500070
C69	C	1.145813	0.108885	0.000092
C70	C	1.645813	0.608885	0.500092
C71	C	1.239059	0.110547	0.000094
C72	C	1.739059	0.610547	0.500094
C73	C	0.986120	0.268577	0.000069
C74	C	1.486120	0.768577	0.500069
C75	C	0.987782	0.361823	0.000063
C76	C	1.487782	0.861823	0.500063
N77	N	0.992218	0.115036	0.230758
N78	N	1.492218	0.615036	0.730758
N79	N	0.992276	0.114973	-0.230598
N80	N	1.492276	0.614973	0.269402
C81	C	0.932581	0.174636	0.470432
C82	C	1.432581	0.674636	0.970432
C83	C	1.008481	0.190943	0.529772
C84	C	1.508481	0.690943	1.029772
C85	C	0.992239	0.115015	0.412365
C86	C	1.492239	0.615015	0.912365
C87	C	0.916360	0.098727	0.529766
C88	C	1.416360	0.598727	1.029766
C89	C	0.992253	0.114997	0.587789
C90	C	1.492253	0.614997	1.087789
C91	C	1.068178	0.131360	0.470398
C92	C	1.568178	0.631360	0.970398
C93	C	0.976006	0.039111	0.470387
C94	C	1.476006	0.539111	0.970387
C95	C	1.051962	0.055386	0.529701
C96	C	1.551962	0.555386	1.029701
C97	C	0.992230	0.115028	0.311307
C98	C	1.492230	0.615028	0.811307
C99	C	0.992271	0.114984	0.688844
C100	C	1.492271	0.614984	1.188844
H101	H	0.449461	0.040295	-0.134642
H102	H	0.949461	0.540295	0.365358
C103	C	0.864500	0.242798	0.435263
C104	C	1.364500	0.742798	0.935263
H105	H	0.876182	0.296690	0.455597
H106	H	1.376182	0.796690	0.955597
H107	H	0.810699	0.231766	0.456461
H108	H	1.310699	0.731766	0.956461
H109	H	0.864634	0.242001	0.372026
H110	H	1.364634	0.742001	0.872026
H111	H	0.852184	0.084959	0.555847
H112	H	1.352184	0.584959	1.055847
C113	C	0.822095	-0.301661	0.000156
C114	C	1.322095	0.198339	0.500156
H115	H	0.793480	-0.317077	0.052091
H116	H	1.293480	0.182923	0.552091
H117	H	0.793075	-0.317839	-0.051181
H118	H	1.293075	0.182161	0.448819
H119	H	0.823775	-0.242295	-0.000367
H120	H	1.323775	0.257705	0.499633
H121	H	1.066851	-0.342314	0.134941
H122	H	1.566851	0.157686	0.634941
H123	H	1.066896	-0.342185	-0.134615
H124	H	1.566896	0.157815	0.365385
H125	H	0.449470	0.040332	0.134773
H126	H	0.949470	0.540332	0.634773
C127	C	0.905522	-0.434832	0.156448
C128	C	1.405522	0.065168	0.656448
H129	H	0.849071	-0.408331	0.156355
H130	H	1.349071	0.091669	0.656355
H131	H	0.933709	-0.418542	0.208291
H132	H	1.433709	0.081458	0.708291
H133	H	0.905248	-0.494381	0.156117
H134	H	1.405248	0.005619	0.656117
C135	C	1.027042	0.277642	0.565024
C136	C	1.527042	0.777642	1.065024
H137	H	0.984598	0.319950	0.544738
H138	H	1.484598	0.819950	1.044738
H139	H	1.080541	0.289622	0.543827
H140	H	1.580541	0.789622	1.043827
H141	H	1.027417	0.276845	0.628261
H142	H	1.527417	0.776845	1.128261
H143	H	0.535052	0.189659	0.134767
H144	H	1.035052	0.689659	0.634767
C145	C	1.162496	-0.468102	0.000194
C146	C	1.662496	0.031898	0.500194
H147	H	1.191087	-0.452584	0.052102
H148	H	1.691087	0.047416	0.552102
H149	H	1.191453	-0.451885	-0.051171
H150	H	1.691453	0.048115	0.448829
H151	H	1.160954	-0.527488	-0.000291
H152	H	1.660954	-0.027488	0.499709
H153	H	0.534918	0.189621	-0.134787
H154	H	1.034918	0.689621	0.365213
H155	H	1.132368	0.145206	0.444430
H156	H	1.632368	0.645206	0.944430
C157	C	1.120190	-0.012745	0.564641
C158	C	1.620190	0.487255	1.064641
H159	H	1.094400	-0.052464	0.599449
H160	H	1.594400	0.447536	1.099449
H161	H	1.159340	0.013003	0.600249
H162	H	1.659340	0.513003	1.100249
H163	H	1.148915	-0.040816	0.515771
H164	H	1.648915	0.459184	1.015771
C165	C	0.575596	-0.055132	-0.000023
C166	C	1.075596	0.444868	0.499977
H167	H	0.560185	-0.083744	-0.051962
H168	H	1.060185	0.416256	0.448038
H169	H	0.559434	-0.084169	0.051309
H170	H	1.059434	0.415831	0.551309
H171	H	0.634959	-0.053431	0.000494
H172	H	1.134959	0.446569	0.500494
H173	H	0.962240	-0.025051	0.444283
H174	H	1.462240	0.474949	0.944283
C175	C	0.905568	-0.434816	-0.156284
C176	C	1.405568	0.065184	0.343716
H177	H	0.849124	-0.408299	-0.156194
H178	H	1.349124	0.091701	0.343806
H179	H	0.905290	-0.494360	-0.155979
H180	H	1.405290	0.005640	0.344021
H181	H	0.933766	-0.418514	-0.208122
H182	H	1.433766	0.081486	0.291878
C183	C	0.409134	0.285261	-0.000037
C184	C	0.909134	0.785261	0.499963
H185	H	0.424652	0.313852	-0.051944
H186	H	0.924652	0.813852	0.448056
H187	H	0.425354	0.314217	0.051328
H188	H	0.925354	0.814217	0.551328
H189	H	0.349749	0.283719	0.000449
H190	H	0.849749	0.783719	0.500449
