data_functionalizedCrystal
_audit_creation_method	'MofGen! by Chris Wilmer'
_symmetry_space_group_name_H-M	'P1'
_symmetry_Int_Tables_number	1
_symmetry_cell_setting	triclinic
loop_
_symmetry_equiv_pos_as_xyz
  x,y,z
_cell_length_a	17.699083
_cell_length_b	17.699083
_cell_length_c	16.176319
_cell_angle_alpha	90.007696
_cell_angle_beta	90.001389
_cell_angle_gamma	83.283015
loop_
_atom_site_label
_atom_site_type_symbol
_atom_site_fract_x
_atom_site_fract_y
_atom_site_fract_z
O1	O	-1.004079	-0.095713	-0.068632
O2	O	-0.783700	-0.108166	-0.068660
O3	O	-0.900116	0.008250	-0.068638
O4	O	-0.887663	-0.212129	-0.068654
O5	O	-0.900100	0.008257	0.068855
O6	O	-0.783684	-0.108158	0.068834
O7	O	-1.004063	-0.095706	0.068861
Cu8	Cu	-0.893872	-0.101931	0.081401
Cu9	Cu	-0.893891	-0.101940	-0.081200
O10	O	-0.887647	-0.212121	0.068839
C11	C	-0.755495	-0.107716	0.000084
C12	C	-0.671477	-0.106377	0.000073
C13	C	-0.899662	0.036451	0.000109
C14	C	-0.898323	0.120469	0.000109
C15	C	-1.032268	-0.096156	0.000116
C16	C	-1.116286	-0.097494	0.000121
C17	C	-0.888102	-0.240322	0.000091
C18	C	-0.889440	-0.324340	0.000085
C19	C	-0.622856	-0.174710	0.000069
C20	C	-0.543913	-0.173448	0.000079
C21	C	-0.513592	-0.103852	0.000089
C22	C	-0.562219	-0.035513	0.000096
C23	C	-0.641161	-0.036776	0.000091
C24	C	-0.243856	-0.030418	0.000117
C25	C	-0.164908	-0.029160	0.000120
C26	C	-0.146608	-0.167090	0.000105
C27	C	-0.225550	-0.168353	0.000100
C28	C	-0.274170	-0.100015	0.000112
C29	C	-0.359769	-0.101384	0.000102
C30	C	-0.427995	-0.102481	0.000093
N31	N	-0.893864	-0.101925	0.195767
C32	C	-0.966656	0.169090	0.000119
C33	C	-0.965394	0.248033	0.000111
C34	C	-0.895798	0.278354	0.000100
C35	C	-0.827459	0.229727	0.000088
C36	C	-0.828722	0.150785	0.000089
C37	C	-0.822364	0.548090	0.000080
C38	C	-0.821106	0.627038	0.000081
C39	C	-0.959036	0.645338	0.000102
C40	C	-0.960299	0.566396	0.000104
C41	C	-0.891961	0.517776	0.000087
C42	C	-0.893330	0.432177	0.000094
C43	C	-0.894427	0.363951	0.000099
N44	N	-0.893905	-0.101941	-0.195565
C45	C	-0.945429	-0.050397	0.239040
C46	C	-0.945432	-0.050396	0.325588
C47	C	-0.893875	-0.101927	0.368859
C48	C	-0.842305	-0.153457	0.325579
C49	C	-0.842299	-0.153454	0.239034
C50	C	-0.842331	-0.153472	0.674608
C51	C	-0.842344	-0.153473	0.761159
C52	C	-0.945465	-0.050414	0.761161
C53	C	-0.945458	-0.050410	0.674616
C54	C	-0.893886	-0.101937	0.631344
C55	C	-0.893882	-0.101937	0.537499
C56	C	-0.893883	-0.101932	0.462702
H57	H	-0.647537	-0.231384	0.000060
C58	C	-0.693917	0.037439	-0.000078
C59	C	-0.680250	0.079342	-0.070822
C60	C	-0.728841	0.147709	-0.071009
H61	H	-0.684787	0.066076	0.047815
H62	H	-0.745285	0.026750	-0.000126
H63	H	-0.628894	0.090032	-0.070767
H64	H	-0.689385	0.050727	-0.118727
H65	H	-0.780209	0.137021	-0.071056
H66	H	-0.719707	0.176340	-0.023112
H67	H	-0.719579	0.176146	-0.119010
H68	H	-1.014680	0.684934	0.000111
C69	C	-1.001413	0.005661	0.808041
C70	C	-0.989291	0.080021	0.786984
C71	C	-1.040821	0.131694	0.830143
H72	H	-0.994087	-0.001610	0.865794
H73	H	-1.051923	-0.002449	0.793835
H74	H	-0.938794	0.088128	0.801196
H75	H	-0.996624	0.087317	0.729238
H76	H	-1.091331	0.123584	0.815936
H77	H	-1.033490	0.124416	0.887894
H78	H	-1.032608	0.182153	0.815856
C79	C	-1.035884	0.533521	-0.000056
C80	C	-1.077183	0.558221	-0.070801
C81	C	-1.146812	0.527945	-0.070986
H82	H	-1.064103	0.550203	0.047837
H83	H	-1.026882	0.479539	-0.000101
H84	H	-1.086188	0.612191	-0.070748
H85	H	-1.048988	0.541539	-0.118705
H86	H	-1.137810	0.473963	-0.071031
H87	H	-1.175024	0.544629	-0.023090
H88	H	-1.174839	0.544693	-0.118988
H89	H	-0.504328	-0.229092	0.000075
H90	H	-0.773078	0.111198	0.000081
H91	H	-0.764429	0.651721	0.000074
H92	H	-0.537526	0.021154	0.000116
H93	H	-0.800357	-0.195437	0.796390
H94	H	-0.800323	-0.195413	0.360816
C95	C	-0.296763	0.043694	0.000157
C96	C	-0.372388	0.027700	0.000173
C97	C	-0.421150	0.095957	0.000216
H98	H	-0.287680	0.072286	-0.047777
H99	H	-0.287631	0.072250	0.048123
H100	H	-0.381516	-0.000843	-0.047789
H101	H	-0.381495	-0.000880	0.048103
H102	H	-0.412019	0.124512	0.048183
H103	H	-0.412060	0.124543	-0.047718
H104	H	-0.472467	0.085114	0.000235
C105	C	-1.001441	0.005638	0.192213
C106	C	-1.046585	0.050777	0.248639
C107	C	-1.098184	0.102415	0.205535
H108	H	-1.032965	-0.021458	0.158439
H109	H	-0.974292	0.037154	0.158480
H110	H	-1.073732	0.019265	0.282358
H111	H	-1.015082	0.077890	0.282415
H112	H	-1.071035	0.133931	0.171802
H113	H	-1.129702	0.075312	0.171762
H114	H	-1.128815	0.133053	0.243813
H115	H	-0.766718	0.508512	0.000067
C116	C	-1.042298	0.136321	0.000086
C117	C	-1.101870	0.195802	0.000068
C118	C	-1.171564	0.165647	0.000022
H119	H	-1.045764	0.105923	0.048019
H120	H	-1.045702	0.105923	-0.047881
H121	H	-1.098468	0.226187	0.048029
H122	H	-1.098429	0.226204	-0.047862
H123	H	-1.174968	0.135249	-0.047944
H124	H	-1.175022	0.135249	0.047957
H125	H	-1.211992	0.205999	0.000002
C126	C	-0.751973	0.262790	0.000118
C127	C	-0.765490	0.342331	0.000143
C128	C	-0.695969	0.372813	0.000185
H129	H	-0.723790	0.246172	-0.047820
H130	H	-0.723830	0.246139	0.048081
H131	H	-0.793620	0.358976	-0.047814
H132	H	-0.793661	0.358971	0.048077
H133	H	-0.667827	0.356162	0.048148
H134	H	-0.667791	0.356189	-0.047753
H135	H	-0.705131	0.426784	0.000210
C136	C	-0.786311	-0.209503	0.627783
C137	C	-0.741179	-0.254646	0.684206
C138	C	-0.689570	-0.306280	0.641098
H139	H	-0.754780	-0.182405	0.594030
H140	H	-0.813453	-0.241018	0.594028
H141	H	-0.714039	-0.223135	0.717946
H142	H	-0.772689	-0.281761	0.717961
H143	H	-0.716711	-0.337794	0.607343
H144	H	-0.658044	-0.279175	0.607346
H145	H	-0.658946	-0.336920	0.679373
H146	H	-0.987419	-0.008438	0.360821
C147	C	-1.039564	0.300855	-0.000050
C148	C	-1.042892	0.346683	-0.070802
C149	C	-1.111214	0.395343	-0.070987
H150	H	-1.042009	0.332112	0.047838
H151	H	-1.081213	0.271514	-0.000084
H152	H	-1.001255	0.376021	-0.070760
H153	H	-1.040460	0.315446	-0.118701
H154	H	-1.152863	0.366002	-0.071021
H155	H	-1.113653	0.426594	-0.023096
H156	H	-1.113484	0.426438	-0.118995
H157	H	-0.107012	-0.222734	0.000100
H158	H	-0.800309	-0.195412	0.203801
C159	C	-1.001269	0.005586	0.627487
C160	C	-0.990179	-0.005393	0.542432
C161	C	-1.041523	0.046233	0.498992
H162	H	-0.993057	0.056067	0.641663
H163	H	-1.051838	-0.002437	0.641531
H164	H	-0.939621	0.002637	0.528393
H165	H	-0.998396	-0.055862	0.528230
H166	H	-1.092092	0.038209	0.513036
H167	H	-1.033307	0.096710	0.513176
H168	H	-1.034010	0.038786	0.441278
C169	C	-0.258506	-0.243896	-0.000089
C170	C	-0.303270	-0.248659	-0.070844
C171	C	-0.333629	-0.318245	-0.071053
H172	H	-0.288977	-0.247335	0.047797
H173	H	-0.218260	-0.284432	-0.000137
H174	H	-0.343511	-0.208134	-0.070789
H175	H	-0.272817	-0.245234	-0.118741
H176	H	-0.293383	-0.358781	-0.071100
H177	H	-0.364096	-0.321677	-0.023164
H178	H	-0.363999	-0.321489	-0.119062
H179	H	-0.140225	0.027517	0.000128
