data_functionalizedCrystal
_audit_creation_method	'MofGen! by Chris Wilmer'
_symmetry_space_group_name_H-M	'P1'
_symmetry_Int_Tables_number	1
_symmetry_cell_setting	triclinic
loop_
_symmetry_equiv_pos_as_xyz
  x,y,z
_cell_length_a	8.597340
_cell_length_b	10.723023
_cell_length_c	7.088929
_cell_angle_alpha	83.718316
_cell_angle_beta	103.954719
_cell_angle_gamma	84.901670
loop_
_atom_site_label
_atom_site_type_symbol
_atom_site_fract_x
_atom_site_fract_y
_atom_site_fract_z
O1	O	2.103243	0.171369	0.187486
O2	O	1.638783	0.191739	0.110972
O3	O	1.881728	-0.000106	0.151001
O4	O	1.860299	0.363215	0.147458
O5	O	1.914195	-0.025802	0.474325
O6	O	1.671250	0.166043	0.434297
O7	O	2.135710	0.145673	0.510811
Cu8	Cu	1.906444	0.153512	0.502076
Cu9	Cu	1.868049	0.183901	0.119707
O10	O	1.892765	0.337519	0.470782
C11	C	1.595545	0.178135	0.262837
C12	C	1.418339	0.175867	0.233645
C13	C	1.896402	-0.059441	0.312403
C14	C	1.891736	-0.197958	0.311628
C15	C	1.906475	-0.273031	0.478773
C16	C	1.901653	-0.416197	0.477975
C17	C	2.178947	0.159278	0.358941
C18	C	2.356152	0.161547	0.388121
C19	C	1.878091	0.396854	0.309375
C20	C	1.882755	0.535373	0.310138
N21	N	1.933461	0.132138	0.771015
N22	N	1.841045	0.205265	-0.149230
H23	H	1.922671	-0.231315	0.622465
N24	N	1.714151	0.305633	0.721722
H25	H	1.655571	0.351985	0.805712
H26	H	1.767523	0.367347	0.647442
H27	H	2.029258	0.056360	0.868455
H28	H	1.336002	0.186394	0.079040
N29	N	1.465193	0.147591	0.592909
H30	H	1.580574	0.151238	0.585445
H31	H	1.431811	0.218421	0.663140
H32	H	1.914253	-0.480705	0.621072
N33	N	1.870320	-0.253191	0.121275
H34	H	1.768961	-0.296362	0.096921
H35	H	1.861231	-0.183348	0.009982
N36	N	1.865974	-0.379156	0.120587
H37	H	1.965753	-0.334727	0.129375
H38	H	1.852621	-0.431201	0.008534
