data_functionalizedCrystal
_audit_creation_method	'MofGen! by Chris Wilmer'
_symmetry_space_group_name_H-M	'P1'
_symmetry_Int_Tables_number	1
_symmetry_cell_setting	triclinic
loop_
_symmetry_equiv_pos_as_xyz
  x,y,z
_cell_length_a	10.654554
_cell_length_b	13.262508
_cell_length_c	9.730223
_cell_angle_alpha	105.916979
_cell_angle_beta	89.999030
_cell_angle_gamma	84.460358
loop_
_atom_site_label
_atom_site_type_symbol
_atom_site_fract_x
_atom_site_fract_y
_atom_site_fract_z
O1	O	1.667065	0.147443	-0.059196
O2	O	1.301514	0.161484	-0.053944
O3	O	1.493486	0.001740	-0.113654
O4	O	1.475094	0.307186	0.000514
O5	O	1.493483	0.001744	0.114928
O6	O	1.301512	0.161488	0.174637
O7	O	1.667063	0.147447	0.169386
Zn8	Zn	1.484287	0.154468	0.208304
Zn9	Zn	1.484290	0.154463	-0.092862
O10	O	1.475091	0.307190	0.229095
C11	C	1.254721	0.160454	0.059961
C12	C	1.115294	0.157366	0.058808
C13	C	0.933250	0.057506	0.021465
C14	C	1.064257	0.060406	0.022563
C15	C	1.035316	0.251432	0.093971
C16	C	0.904312	0.248530	0.092882
C17	C	0.949960	-0.052781	-0.019767
C18	C	1.080967	-0.049881	-0.018669
C19	C	1.492454	-0.037369	-0.013984
C20	C	1.489367	-0.153908	-0.057552
C21	C	1.480654	-0.482416	0.318053
C22	C	1.483545	-0.372920	0.358988
C23	C	1.485001	-0.318162	0.254857
C24	C	1.483566	-0.372909	0.109782
C25	C	1.480665	-0.482414	0.068843
C26	C	1.485011	-0.318160	0.005647
C27	C	1.483576	-0.372907	-0.139427
C28	C	1.480677	-0.482401	-0.180360
C29	C	1.479221	-0.537160	-0.076228
C30	C	1.487912	-0.208655	0.046587
C31	C	1.487922	-0.208654	-0.202623
C32	C	1.485032	-0.318149	-0.243559
C33	C	1.713856	0.148477	0.055477
C34	C	1.853283	0.151565	0.056621
C35	C	1.476123	0.346299	0.129423
C36	C	1.479210	0.462838	0.172982
N37	N	1.484294	0.154471	0.413841
N38	N	1.484293	0.154451	-0.298403
C39	C	1.569321	0.083761	0.459337
C40	C	1.569318	0.083748	0.603215
C41	C	1.399257	0.225165	0.656093
C42	C	1.399255	0.225172	0.512215
C43	C	1.667508	0.002118	0.428811
C44	C	1.667505	0.002105	0.572689
H45	H	0.920820	-0.095914	0.059764
H46	H	0.914515	-0.087901	-0.131592
H47	H	1.484727	-0.328355	0.477107
C48	C	1.090549	0.356780	0.133142
C49	C	1.049935	0.413706	0.036837
C50	C	1.100772	0.510765	0.072886
H51	H	1.180020	0.345190	0.128745
H52	H	1.063090	0.395605	0.227323
H53	H	1.077401	0.374889	-0.057320
H54	H	0.960471	0.425324	0.041219
H55	H	1.073313	0.549590	0.167066
H56	H	1.190241	0.499165	0.068489
H57	H	1.073213	0.549406	0.007557
H58	H	1.646484	-0.078559	0.359602
C59	C	1.489240	-0.149083	-0.315565
C60	C	1.382973	-0.075211	-0.295172
C61	C	1.384116	-0.020309	-0.399179
H62	H	1.487876	-0.197264	-0.407876
H63	H	1.563462	-0.113750	-0.307621
H64	H	1.308770	-0.110542	-0.303129
H65	H	1.384315	-0.027009	-0.202882
H66	H	1.458338	0.015023	-0.391234
H67	H	1.382755	-0.068498	-0.491483
H68	H	1.312022	0.029825	-0.385348
H69	H	1.763923	0.020090	0.618461
C70	C	1.306874	0.302052	0.463107
C71	C	1.232428	0.363983	0.580064
C72	C	1.147320	0.434827	0.534885
H73	H	1.254291	0.264004	0.392751
H74	H	1.352233	0.346165	0.423500
H75	H	1.187073	0.319875	0.619650
H76	H	1.284977	0.402054	0.650431
H77	H	1.192678	0.478940	0.495277
H78	H	1.094745	0.396770	0.464528
H79	H	1.096806	0.476862	0.614234
H80	H	1.126777	-0.083206	0.067574
C81	C	1.789029	0.036175	0.382285
C82	C	1.869531	0.058741	0.498129
C83	C	1.981492	0.090107	0.455318
H84	H	1.770366	0.097326	0.350219
H85	H	1.829047	-0.019021	0.306739
H86	H	1.829521	0.113933	0.573651
H87	H	1.888230	-0.002395	0.530210
H88	H	2.021510	0.034910	0.379772
H89	H	1.962816	0.151255	0.423251
H90	H	2.036131	0.105412	0.533907
H91	H	1.476874	-0.626321	-0.109551
C92	C	0.817344	0.350573	0.130817
C93	C	0.741272	0.354484	0.014695
C94	C	0.661132	0.448467	0.049596
H95	H	0.866347	0.408817	0.152524
H96	H	0.765561	0.353417	0.211549
H97	H	0.793050	0.351650	-0.066012
H98	H	0.692243	0.296261	-0.007029
H99	H	0.609348	0.451312	0.130327
H100	H	0.710145	0.506705	0.071304
H101	H	0.609499	0.451129	-0.029182
C102	C	1.137042	-0.105457	-0.166826
C103	C	1.222861	-0.190459	-0.159065
C104	C	1.274527	-0.241684	-0.295516
H105	H	1.179404	-0.057451	-0.202107
H106	H	1.071505	-0.130571	-0.229371
H107	H	1.288388	-0.165345	-0.096543
H108	H	1.180530	-0.238489	-0.123809
H109	H	1.208990	-0.266797	-0.358060
H110	H	1.316883	-0.193670	-0.330785
H111	H	1.332752	-0.299369	-0.290270
C112	C	1.487889	-0.199255	0.299223
C113	C	1.380926	-0.151998	0.249014
C114	C	1.383542	-0.042459	0.289880
H115	H	1.561617	-0.181816	0.259702
H116	H	1.488471	-0.174443	0.400537
H117	H	1.380356	-0.176801	0.147720
H118	H	1.307182	-0.169407	0.288529
H119	H	1.384123	-0.017646	0.391194
H120	H	1.457273	-0.025030	0.250356
H121	H	1.310963	-0.010381	0.255831
C122	C	1.479307	-0.542006	-0.337820
C123	C	1.585544	-0.615906	-0.372689
C124	C	1.584319	-0.670845	-0.517721
H125	H	1.480654	-0.493850	-0.394149
H126	H	1.405066	-0.577318	-0.356212
H127	H	1.659766	-0.580596	-0.354311
H128	H	1.584219	-0.664084	-0.316397
H129	H	1.510078	-0.706157	-0.536114
H130	H	1.585663	-0.622681	-0.574038
H131	H	1.656393	-0.720999	-0.541396
H132	H	1.489069	-0.164090	0.164707
H133	H	1.479460	-0.527009	0.402821
H134	H	1.483862	-0.362739	-0.361681
H135	H	1.330019	0.282727	0.736203
H136	H	1.637388	-0.074134	0.588809
