data_functionalizedCrystal
_audit_creation_method	'MofGen! by Chris Wilmer'
_symmetry_space_group_name_H-M	'P1'
_symmetry_Int_Tables_number	1
_symmetry_cell_setting	triclinic
loop_
_symmetry_equiv_pos_as_xyz
  x,y,z
_cell_length_a	12.837943
_cell_length_b	10.489741
_cell_length_c	11.295483
_cell_angle_alpha	94.137284
_cell_angle_beta	85.461227
_cell_angle_gamma	89.684057
loop_
_atom_site_label
_atom_site_type_symbol
_atom_site_fract_x
_atom_site_fract_y
_atom_site_fract_z
O1	O	1.384854	0.324137	-0.099003
O2	O	1.082927	0.307742	-0.099010
O3	O	1.240760	0.131100	-0.098999
O4	O	1.227021	0.500780	-0.099013
O5	O	1.226897	0.146588	0.099051
O6	O	1.069064	0.323231	0.099040
O7	O	1.370991	0.339626	0.099047
Cu8	Cu	1.218762	0.332842	0.117127
Cu9	Cu	1.235156	0.314526	-0.117090
O10	O	1.213158	0.516268	0.099036
C11	C	1.037334	0.309948	0.000014
C12	C	0.922133	0.293430	0.000012
C13	C	0.682657	0.492006	0.000021
C14	C	0.574415	0.476492	0.000020
C15	C	0.597406	0.246889	0.000016
C16	C	0.705648	0.262403	0.000017
C17	C	0.748269	0.384966	0.000018
C18	C	0.856513	0.400478	0.000011
C19	C	0.879501	0.170877	0.000016
C20	C	0.771260	0.155363	0.000014
C21	C	1.232791	0.091198	0.000025
C22	C	1.229686	-0.050774	0.000023
C23	C	1.129262	-0.129987	0.000012
C24	C	1.169867	-0.209242	0.097662
C25	C	1.183558	-0.224485	-0.097600
C26	C	1.270327	-0.128153	0.097754
C27	C	1.284011	-0.143394	-0.097596
C28	C	1.324687	-0.222613	0.000078
C29	C	1.416585	0.337420	0.000020
C30	C	1.531786	0.353937	0.000015
C31	C	1.221127	0.556170	0.000010
C32	C	1.224233	0.698141	0.000004
N33	N	1.207238	0.345726	0.281863
N34	N	1.246688	0.301633	-0.281825
C35	C	1.329641	0.208822	0.531161
C36	C	1.320940	0.218568	0.655824
C37	C	1.181131	0.374956	0.655854
C38	C	1.189832	0.365210	0.531191
C39	C	1.264090	0.282142	0.468849
C40	C	1.272796	0.272403	0.344183
C41	C	1.132982	0.428784	0.344216
C42	C	1.124281	0.438530	0.468879
H43	H	0.562677	0.147112	0.000113
C44	C	1.393043	0.137920	0.724369
H45	H	1.377222	0.155611	0.807543
H46	H	1.463818	0.158642	0.703922
H47	H	1.382555	0.049737	0.703941
H48	H	0.736541	0.055577	0.000027
C49	C	1.436273	-0.277201	0.000216
H50	H	1.451525	-0.332935	-0.069160
H51	H	1.441340	-0.323231	0.068977
H52	H	1.484786	-0.209142	0.000920
C53	C	1.042574	0.529860	0.537456
H54	H	1.004768	0.572114	0.482488
H55	H	1.076867	0.591375	0.586100
H56	H	0.995653	0.482416	0.586075
H57	H	0.520997	0.563656	0.000025
C58	C	1.133949	-0.281392	-0.209125
H59	H	1.182977	-0.336632	-0.255113
H60	H	1.114580	-0.214288	-0.255409
H61	H	1.073684	-0.328384	-0.185647
H62	H	1.333263	0.204769	0.293425
C63	C	0.729545	0.626814	0.000011
H64	H	0.674964	0.688344	0.000015
H65	H	0.776127	0.632233	-0.069053
H66	H	0.766456	0.643041	0.069085
H67	H	0.932936	0.083716	0.000006
H68	H	1.046686	-0.089431	0.000108
C69	C	1.104666	-0.248756	0.209183
H70	H	1.147273	-0.296800	0.255159
H71	H	1.047686	-0.299408	0.185711
H72	H	1.078825	-0.174421	0.255491
C73	C	1.411322	0.117458	0.462580
H74	H	1.449115	0.075183	0.517547
H75	H	1.458244	0.164860	0.413936
H76	H	1.376992	0.055944	0.413962
H77	H	1.306997	-0.086177	0.180402
H78	H	1.079610	0.488490	0.293468
H79	H	1.120664	0.442579	0.706630
C80	C	0.903396	0.535289	0.000015
H81	H	0.848812	0.596816	0.000029
H82	H	0.949977	0.540723	-0.069047
H83	H	0.940307	0.551507	0.069090
C84	C	1.349169	-0.103839	-0.209121
H85	H	1.318242	-0.136905	-0.278441
H86	H	1.418250	-0.136957	-0.209823
H87	H	1.351188	-0.013240	-0.207917
