data_functionalizedCrystal
_audit_creation_method	'MofGen! by Chris Wilmer'
_symmetry_space_group_name_H-M	'P1'
_symmetry_Int_Tables_number	1
_symmetry_cell_setting	triclinic
loop_
_symmetry_equiv_pos_as_xyz
  x,y,z
_cell_length_a	17.699104
_cell_length_b	14.853568
_cell_length_c	16.776229
_cell_angle_alpha	90.001170
_cell_angle_beta	90.006643
_cell_angle_gamma	96.536648
loop_
_atom_site_label
_atom_site_type_symbol
_atom_site_fract_x
_atom_site_fract_y
_atom_site_fract_z
O1	O	1.004364	-0.114093	0.066296
O2	O	1.504364	0.385907	0.566296
O3	O	0.784026	-0.128906	0.066293
O4	O	1.284026	0.371094	0.566293
O5	O	0.900080	0.009751	0.066299
O6	O	1.400080	0.509751	0.566299
O7	O	0.888310	-0.252751	0.066291
O8	O	1.388310	0.247249	0.566291
O9	O	0.900067	0.009751	-0.066278
O10	O	1.400067	0.509751	0.433722
O11	O	0.784013	-0.128906	-0.066283
O12	O	1.284013	0.371094	0.433717
O13	O	1.004351	-0.114093	-0.066280
O14	O	1.504351	0.385907	0.433720
Zn15	Zn	0.894180	-0.121500	-0.087331
Zn16	Zn	1.394180	0.378500	0.412669
Zn17	Zn	0.894197	-0.121500	0.087344
Zn18	Zn	1.394197	0.378500	0.587344
O19	O	0.888296	-0.252750	-0.066286
O20	O	1.388296	0.247250	0.433714
C21	C	0.755821	-0.128372	0.000005
C22	C	1.255821	0.371628	0.500005
C23	C	0.671800	-0.126770	0.000004
C24	C	1.171800	0.373230	0.500004
C25	C	0.147117	-0.199125	0.000010
C26	C	0.647117	0.300875	0.500010
C27	C	0.226064	-0.200625	0.000012
C28	C	0.726064	0.299375	0.500012
C29	C	0.274471	-0.119228	0.000015
C30	C	0.774471	0.380772	0.500015
C31	C	0.243926	-0.036325	0.000023
C32	C	0.743926	0.463675	0.500023
C33	C	0.164979	-0.034827	0.000026
C34	C	0.664979	0.465173	0.500026
C35	C	0.562307	-0.042368	0.000010
C36	C	1.062307	0.457632	0.500010
C37	C	0.641258	-0.043873	0.000004
C38	C	1.141258	0.456127	0.500004
C39	C	0.623392	-0.208167	-0.000004
C40	C	1.123392	0.291833	0.499996
C41	C	0.544446	-0.206668	-0.000001
C42	C	1.044446	0.293332	0.499999
C43	C	0.513908	-0.123766	0.000012
C44	C	1.013908	0.376234	0.500012
C45	C	0.428304	-0.122141	0.000011
C46	C	0.928304	0.377859	0.500011
C47	C	0.360073	-0.120852	0.000010
C48	C	0.860073	0.379148	0.500010
C49	C	0.899540	0.043338	0.000013
C50	C	1.399540	0.543338	0.500013
C51	C	0.897942	0.143416	0.000021
C52	C	1.397942	0.643416	0.500021
C53	C	0.822246	0.555678	0.000010
C54	C	1.322246	1.055678	0.500010
C55	C	0.960121	0.577454	0.000012
C56	C	1.460121	1.077454	0.500012
C57	C	0.961624	0.483426	0.000016
C58	C	1.461624	0.983426	0.500016
C59	C	0.893437	0.425519	0.000016
C60	C	1.393437	0.925519	0.500016
C61	C	0.823747	0.461640	0.000011
C62	C	1.323747	0.961640	0.500011
C63	C	1.031313	0.447297	0.000012
C64	C	1.531313	0.947297	0.500012
C65	C	1.032819	0.353263	0.000015
C66	C	1.532819	0.853263	0.500015
C67	C	0.964631	0.295355	0.000020
C68	C	1.464631	0.795355	0.500020
C69	C	0.894938	0.331481	0.000017
C70	C	1.394938	0.831481	0.500017
C71	C	0.826751	0.273575	0.000016
C72	C	1.326751	0.773575	0.500016
C73	C	0.757057	0.309700	0.000019
C74	C	1.257057	0.809700	0.500019
C75	C	0.755559	0.403731	0.000017
C76	C	1.255559	0.903731	0.500017
C77	C	0.966129	0.201323	0.000022
C78	C	1.466129	0.701323	0.500022
C79	C	0.828252	0.179537	0.000017
C80	C	1.328252	0.679537	0.500017
C81	C	1.032555	-0.114627	0.000010
C82	C	1.532555	0.385373	0.500010
C83	C	1.116577	-0.116229	0.000016
C84	C	1.616577	0.383771	0.500016
N85	N	0.894173	-0.121499	-0.206542
N86	N	1.394173	0.378501	0.293458
C87	C	0.888836	0.713662	0.000005
C88	C	1.388836	1.213662	0.500005
C89	C	0.890433	0.613584	0.000011
C90	C	1.390433	1.113584	0.500011
C91	C	0.940130	-0.176115	-0.248257
C92	C	1.440130	0.323885	0.251743
C93	C	0.940138	-0.176112	-0.331709
C94	C	1.440138	0.323888	0.168291
C95	C	0.894186	-0.121496	-0.373445
C96	C	1.394186	0.378504	0.126555
C97	C	0.848227	-0.066873	-0.331725
C98	C	1.348227	0.433127	0.168275
C99	C	0.848223	-0.066872	-0.248274
C100	C	1.348223	0.433128	0.251726
C101	C	0.848243	-0.066874	-0.668272
C102	C	1.348243	0.433126	-0.168272
C103	C	0.848248	-0.066881	-0.751728
C104	C	1.348248	0.433119	-0.251728
C105	C	0.940157	-0.176114	-0.751707
C106	C	1.440157	0.323886	-0.251707
C107	C	0.940153	-0.176113	-0.668256
C108	C	1.440153	0.323887	-0.168256
C109	C	0.894198	-0.121487	-0.626543
C110	C	1.394198	0.378513	-0.126543
C111	C	0.894191	-0.121490	-0.536055
C112	C	1.394191	0.378510	-0.036055
C113	C	0.894188	-0.121497	-0.463932
C114	C	1.394188	0.378503	0.036068
N115	N	0.894209	-0.121494	0.206555
N116	N	1.394209	0.378506	0.706555
H117	H	0.107709	-0.265409	0.000002
H118	H	0.607709	0.234591	0.500002
Br119	Br	1.127400	0.304244	0.000023
Br120	Br	1.627400	0.804244	0.500023
Br121	Br	0.785844	0.007224	-0.611671
Br122	Br	1.285844	0.507224	-0.111671
Br123	Br	0.664841	-0.320679	-0.000018
Br124	Br	1.164841	0.179321	0.499982
Br125	Br	0.478756	-0.317139	-0.000008
Br126	Br	0.978756	0.182861	0.499992
H127	H	0.250926	-0.268127	0.000015
H128	H	0.750926	0.231873	0.500015
H129	H	1.086827	0.494451	0.000005
H130	H	1.586827	0.994451	0.500005
H131	H	0.810801	-0.022398	-0.214311
H132	H	1.310801	0.477602	0.285689
H133	H	0.810816	-0.022400	-0.365713
H134	H	1.310816	0.477600	0.134287
Br135	Br	0.706953	0.066602	0.000006
Br136	Br	1.206953	0.566602	0.500006
H137	H	0.765503	0.585095	0.000016
H138	H	1.265503	1.085095	0.500016
H139	H	1.022872	0.171914	0.000015
H140	H	1.522872	0.671914	0.500015
H141	H	0.537453	0.025135	0.000018
H142	H	1.037453	0.525135	0.500018
Br143	Br	1.052656	0.656041	-0.000004
Br144	Br	1.552656	1.156041	0.499996
Br145	Br	1.002495	-0.250244	-0.191624
Br146	Br	1.502495	0.249756	0.308376
Br147	Br	0.309619	0.074144	0.000031
Br148	Br	0.809619	0.574144	0.500031
Br149	Br	1.002526	-0.250250	-0.808322
Br150	Br	1.502526	0.249750	-0.308322
H151	H	0.977562	-0.220584	-0.365670
H152	H	1.477562	0.279416	0.134330
H153	H	0.140115	0.032676	0.000033
H154	H	0.640115	0.532676	0.500033
H155	H	0.772724	0.132395	0.000021
H156	H	1.272724	0.632395	0.500021
Br157	Br	0.660983	0.452764	0.000025
Br158	Br	1.160983	0.952764	0.500025
H159	H	0.977570	-0.220590	-0.634279
H160	H	1.477570	0.279410	-0.134279
Br161	Br	0.664521	0.231101	0.000008
Br162	Br	1.164521	0.731101	0.500008
Br163	Br	0.785879	0.007244	-0.808370
Br164	Br	1.285879	0.507244	-0.308370
