data_functionalizedCrystal
_audit_creation_method	'MofGen! by Chris Wilmer'
_symmetry_space_group_name_H-M	'P1'
_symmetry_Int_Tables_number	1
_symmetry_cell_setting	triclinic
loop_
_symmetry_equiv_pos_as_xyz
  x,y,z
_cell_length_a	25.639239
_cell_length_b	19.077142
_cell_length_c	19.076919
_cell_angle_alpha	89.925643
_cell_angle_beta	92.268407
_cell_angle_gamma	92.265911
loop_
_atom_site_label
_atom_site_type_symbol
_atom_site_fract_x
_atom_site_fract_y
_atom_site_fract_z
Zn1	Zn	-0.252951	-1.058185	-0.440433
Zn2	Zn	-0.002951	-0.808185	-0.190433
Zn3	Zn	0.247049	-0.558185	0.059567
Zn4	Zn	0.497049	-0.308185	0.309567
Zn5	Zn	-0.337016	-1.062797	-0.322920
Zn6	Zn	-0.087016	-0.812797	-0.072920
Zn7	Zn	0.162984	-0.562797	0.177080
Zn8	Zn	0.412984	-0.312797	0.427080
Zn9	Zn	-0.245946	-0.945405	-0.318223
Zn10	Zn	0.004054	-0.695405	-0.068223
Zn11	Zn	0.254054	-0.445405	0.181777
Zn12	Zn	0.504054	-0.195405	0.431777
Zn13	Zn	-0.336700	-0.940619	-0.435668
Zn14	Zn	-0.086700	-0.690619	-0.185668
Zn15	Zn	0.163300	-0.440619	0.064332
Zn16	Zn	0.413300	-0.190619	0.314332
O17	O	-0.293153	-1.001752	-0.379311
O18	O	-0.043153	-0.751752	-0.129311
O19	O	0.206847	-0.501752	0.120689
O20	O	0.456847	-0.251752	0.370689
O21	O	-0.267167	-1.157128	-0.428804
O22	O	-0.017167	-0.907128	-0.178804
O23	O	0.232833	-0.657128	0.071196
O24	O	0.482833	-0.407128	0.321196
O25	O	-0.322137	-1.051158	-0.223966
O26	O	-0.072137	-0.801158	0.026034
O27	O	0.177863	-0.551158	0.276034
O28	O	0.427863	-0.301158	0.526034
O29	O	-0.173713	-0.960439	-0.334463
O30	O	0.076287	-0.710439	-0.084463
O31	O	0.326287	-0.460439	0.165537
O32	O	0.576287	-0.210439	0.415537
O33	O	-0.328929	-1.160516	-0.342468
O34	O	-0.078929	-0.910516	-0.092468
O35	O	0.171071	-0.660516	0.157532
O36	O	0.421071	-0.410516	0.407532
O37	O	-0.178860	-1.043298	-0.424250
O38	O	0.071140	-0.793298	-0.174250
O39	O	0.321140	-0.543298	0.075750
O40	O	0.571140	-0.293298	0.325750
O41	O	-0.255228	-0.964911	-0.220515
O42	O	-0.005228	-0.714911	0.029485
O43	O	0.244772	-0.464911	0.279485
O44	O	0.494772	-0.214911	0.529485
O45	O	-0.254920	-0.846440	-0.329843
O46	O	-0.004920	-0.596440	-0.079843
O47	O	0.245080	-0.346440	0.170157
O48	O	0.495080	-0.096440	0.420157
O49	O	-0.328390	-0.952281	-0.534631
O50	O	-0.078390	-0.702281	-0.284631
O51	O	0.171610	-0.452281	-0.034631
O52	O	0.421610	-0.202281	0.215369
O53	O	-0.321597	-0.842923	-0.416129
O54	O	-0.071597	-0.592923	-0.166129
O55	O	0.178403	-0.342923	0.083871
O56	O	0.428403	-0.092923	0.333871
O57	O	-0.266860	-1.038657	-0.538132
O58	O	-0.016860	-0.788657	-0.288132
O59	O	0.233140	-0.538657	-0.038132
O60	O	0.483140	-0.288657	0.211868
O61	O	-0.410137	-1.046517	-0.337847
O62	O	-0.160137	-0.796517	-0.087847
O63	O	0.089863	-0.546517	0.162153
O64	O	0.339863	-0.296517	0.412153
O65	O	-0.409904	-0.956753	-0.420683
O66	O	-0.159904	-0.706753	-0.170683
O67	O	0.090096	-0.456753	0.079317
O68	O	0.340096	-0.206753	0.329317
C69	C	-0.287464	-0.819186	-0.371960
C70	C	-0.037464	-0.569186	-0.121960
C71	C	0.212536	-0.319186	0.128040
C72	C	0.462536	-0.069186	0.378040
C73	C	-0.285044	-0.741082	-0.368832
C74	C	-0.035044	-0.491082	-0.118832
C75	C	0.214956	-0.241082	0.131168
C76	C	0.464956	0.008918	0.381168
C77	C	-0.318670	-0.702580	-0.412216
C78	C	-0.068670	-0.452580	-0.162216
C79	C	0.181330	-0.202580	0.087784
C80	C	0.431330	0.047420	0.337784
C81	C	-0.316388	-0.629193	-0.409280
C82	C	-0.066388	-0.379193	-0.159280
C83	C	0.183612	-0.129193	0.090720
C84	C	0.433612	0.120807	0.340720
C85	C	-0.280483	-0.594311	-0.362956
C86	C	-0.030483	-0.344311	-0.112956
C87	C	0.219517	-0.094311	0.137044
C88	C	0.469517	0.155689	0.387044
C89	C	-0.246854	-0.632819	-0.319570
C90	C	0.003146	-0.382819	-0.069570
C91	C	0.253146	-0.132819	0.180430
C92	C	0.503146	0.117181	0.430430
C93	C	-0.249133	-0.706204	-0.322510
C94	C	0.000867	-0.456204	-0.072510
C95	C	0.250867	-0.206204	0.177490
C96	C	0.500867	0.043796	0.427490
C97	C	-0.269937	-0.375027	-0.349357
C98	C	-0.019937	-0.125027	-0.099357
C99	C	0.230063	0.124973	0.150643
C100	C	0.480063	0.374973	0.400643
C101	C	-0.267661	-0.301637	-0.346419
C102	C	-0.017661	-0.051637	-0.096419
C103	C	0.232339	0.198363	0.153581
C104	C	0.482339	0.448363	0.403581
C105	C	-0.337195	-0.298017	-0.436130
C106	C	-0.087195	-0.048017	-0.186130
C107	C	0.162805	0.201983	0.063870
C108	C	0.412805	0.451983	0.313870
C109	C	-0.339473	-0.371403	-0.439063
C110	C	-0.089473	-0.121403	-0.189063
C111	C	0.160527	0.128597	0.060937
C112	C	0.410527	0.378597	0.310937
C113	C	-0.305842	-0.409905	-0.395680
C114	C	-0.055842	-0.159905	-0.145680
C115	C	0.194158	0.090095	0.104320
C116	C	0.444158	0.340095	0.354320
N117	N	-0.278152	-0.519298	-0.359952
N118	N	-0.028152	-0.269298	-0.109952
N119	N	0.221848	-0.019298	0.140048
N120	N	0.471848	0.230702	0.390048
N121	N	-0.308172	-0.484916	-0.398687
N122	N	-0.058172	-0.234916	-0.148687
N123	N	0.191828	0.015084	0.101313
N124	N	0.441828	0.265084	0.351313
C125	C	-0.428991	-1.001635	-0.379274
C126	C	-0.178991	-0.751635	-0.129274
C127	C	0.071009	-0.501635	0.120726
C128	C	0.321009	-0.251635	0.370726
C129	C	-0.487106	-1.001648	-0.379284
C130	C	-0.237106	-0.751648	-0.129284
C131	C	0.012894	-0.501648	0.120716
C132	C	0.262894	-0.251648	0.370716
C133	C	-0.847588	-1.048606	-0.336260
C134	C	-0.597588	-0.798606	-0.086260
C135	C	-0.347588	-0.548606	0.163740
C136	C	-0.097588	-0.298606	0.413740
C137	C	-0.902193	-1.048633	-0.336270
C138	C	-0.652193	-0.798633	-0.086270
C139	C	-0.402193	-0.548633	0.163730
C140	C	-0.152193	-0.298633	0.413730
O141	O	-0.930525	-1.088437	-0.299649
O142	O	-0.680525	-0.838437	-0.049649
O143	O	-0.430525	-0.588437	0.200351
O144	O	-0.180525	-0.338437	0.450351
N145	N	-0.929398	-1.001873	-0.379362
N146	N	-0.679398	-0.751873	-0.129362
N147	N	-0.429398	-0.501873	0.120638
N148	N	-0.179398	-0.251873	0.370638
C149	C	-0.901994	-0.955089	-0.422452
C150	C	-0.651994	-0.705089	-0.172452
C151	C	-0.401994	-0.455089	0.077548
C152	C	-0.151994	-0.205089	0.327548
O153	O	-0.930148	-0.915319	-0.459107
O154	O	-0.680148	-0.665319	-0.209107
O155	O	-0.430148	-0.415319	0.040893
O156	O	-0.180148	-0.165319	0.290893
C157	C	-0.847390	-0.955066	-0.422445
C158	C	-0.597390	-0.705066	-0.172445
C159	C	-0.347390	-0.455066	0.077555
C160	C	-0.097390	-0.205066	0.327555
C161	C	-0.820188	-1.001824	-0.379345
C162	C	-0.570188	-0.751824	-0.129345
C163	C	-0.320188	-0.501824	0.120655
C164	C	-0.070188	-0.251824	0.370655
C165	C	-0.820385	-1.095360	-0.293163
C166	C	-0.570385	-0.845360	-0.043163
C167	C	-0.320385	-0.595360	0.206837
C168	C	-0.070385	-0.345360	0.456837
C169	C	-0.765784	-1.095332	-0.293152
C170	C	-0.515784	-0.845332	-0.043152
C171	C	-0.265784	-0.595332	0.206848
C172	C	-0.015784	-0.345332	0.456848
C173	C	-0.738384	-1.048550	-0.336237
C174	C	-0.488384	-0.798550	-0.086237
C175	C	-0.238384	-0.548550	0.163763
C176	C	0.011616	-0.298550	0.413763
C177	C	-0.765586	-1.001796	-0.379333
C178	C	-0.515586	-0.751796	-0.129333
C179	C	-0.265586	-0.501796	0.120667
C180	C	-0.015586	-0.251796	0.370667
C181	C	-0.819988	-0.908286	-0.465538
C182	C	-0.569988	-0.658286	-0.215538
C183	C	-0.319988	-0.408286	0.034462
C184	C	-0.069988	-0.158286	0.284462
C185	C	-0.765380	-0.908267	-0.465528
C186	C	-0.515380	-0.658267	-0.215528
C187	C	-0.265380	-0.408267	0.034472
C188	C	-0.015380	-0.158267	0.284472
C189	C	-0.738178	-0.955025	-0.422427
C190	C	-0.488178	-0.705025	-0.172427
C191	C	-0.238178	-0.455025	0.077573
C192	C	0.011822	-0.205025	0.327573
C193	C	-0.683585	-0.954986	-0.422407
C194	C	-0.433585	-0.704986	-0.172407
C195	C	-0.183585	-0.454986	0.077593
C196	C	0.066415	-0.204986	0.327593
N197	N	-0.656380	-1.001745	-0.379315
N198	N	-0.406380	-0.751745	-0.129315
N199	N	-0.156380	-0.501745	0.120685
N200	N	0.093620	-0.251745	0.370685
C201	C	-0.683780	-1.048527	-0.336230
C202	C	-0.433780	-0.798527	-0.086230
C203	C	-0.183780	-0.548527	0.163770
C204	C	0.066220	-0.298527	0.413770
C205	C	-1.016667	-0.955141	-0.422465
C206	C	-0.766667	-0.705141	-0.172465
C207	C	-0.516667	-0.455141	0.077535
C208	C	-0.266667	-0.205141	0.327535
C209	C	-1.071270	-0.955160	-0.422470
C210	C	-0.821270	-0.705160	-0.172470
C211	C	-0.571270	-0.455160	0.077530
C212	C	-0.321270	-0.205160	0.327530
C213	C	-1.071465	-1.048705	-0.336288
C214	C	-0.821465	-0.798705	-0.086288
C215	C	-0.571465	-0.548705	0.163712
C216	C	-0.321465	-0.298705	0.413712
C217	C	-1.016861	-1.048682	-0.336281
C218	C	-0.766861	-0.798682	-0.086281
C219	C	-0.516861	-0.548682	0.163719
C220	C	-0.266861	-0.298682	0.413719
C221	C	-0.989462	-1.001901	-0.379373
C222	C	-0.739462	-0.751901	-0.129373
C223	C	-0.489462	-0.501901	0.120627
C224	C	-0.239462	-0.251901	0.370627
C225	C	-0.569112	-1.048464	-0.336209
C226	C	-0.319112	-0.798464	-0.086209
C227	C	-0.069112	-0.548464	0.163791
C228	C	0.180888	-0.298464	0.413791
C229	C	-0.514506	-1.048430	-0.336199
C230	C	-0.264506	-0.798430	-0.086199
C231	C	-0.014506	-0.548430	0.163801
C232	C	0.235494	-0.298430	0.413801
C233	C	-0.514316	-0.954888	-0.422383
C234	C	-0.264316	-0.704888	-0.172383
C235	C	-0.014316	-0.454888	0.077617
C236	C	0.235684	-0.204888	0.327617
C237	C	-0.568918	-0.954920	-0.422390
C238	C	-0.318918	-0.704920	-0.172390
C239	C	-0.068918	-0.454920	0.077610
C240	C	0.181082	-0.204920	0.327610
C241	C	-0.596315	-1.001713	-0.379301
C242	C	-0.346315	-0.751713	-0.129301
C243	C	-0.096315	-0.501713	0.120699
C244	C	0.153685	-0.251713	0.370699
O245	O	-0.655218	-0.915204	-0.459012
O246	O	-0.405218	-0.665204	-0.209012
O247	O	-0.155218	-0.415204	0.040988
O248	O	0.094782	-0.165204	0.290988
O249	O	-0.655620	-1.088296	-0.299588
O250	O	-0.405620	-0.838296	-0.049588
O251	O	-0.155620	-0.588296	0.200412
O252	O	0.094380	-0.338296	0.450412
C253	C	-0.156786	-1.001888	-0.379364
C254	C	0.093214	-0.751888	-0.129364
C255	C	0.343214	-0.501888	0.120636
C256	C	0.593214	-0.251888	0.370636
C257	C	-0.098674	-1.001946	-0.379387
C258	C	0.151326	-0.751946	-0.129387
C259	C	0.401326	-0.501946	0.120613
C260	C	0.651326	-0.251946	0.370613
C261	C	-0.298371	-0.994421	-0.562590
C262	C	-0.048371	-0.744421	-0.312590
C263	C	0.201629	-0.494421	-0.062590
C264	C	0.451629	-0.244421	0.187410
C265	C	-0.300594	-0.991296	-0.640693
C266	C	-0.050594	-0.741296	-0.390693
C267	C	0.199406	-0.491296	-0.140693
C268	C	0.449406	-0.241296	0.109307
C269	C	-0.298862	-0.185031	-0.386683
C270	C	-0.048862	0.064969	-0.136683
C271	C	0.201138	0.314969	0.113317
C272	C	0.451138	0.564969	0.363317
C273	C	-0.301287	-0.263135	-0.389803
C274	C	-0.051287	-0.013135	-0.139803
C275	C	0.198713	0.236865	0.110197
C276	C	0.448713	0.486865	0.360197
C277	C	-0.269605	-1.034797	-0.679210
C278	C	-0.019605	-0.784797	-0.429210
C279	C	0.230395	-0.534797	-0.179210
C280	C	0.480395	-0.284797	0.070790
C281	C	-0.271692	-1.031853	-0.752595
C282	C	-0.021692	-0.781853	-0.502595
C283	C	0.228308	-0.531853	-0.252595
C284	C	0.478308	-0.281853	-0.002595
C285	C	-0.304771	-0.985412	-0.787463
C286	C	-0.054771	-0.735412	-0.537463
C287	C	0.195229	-0.485412	-0.287463
C288	C	0.445229	-0.235412	-0.037463
C289	C	-0.335761	-0.941906	-0.748941
C290	C	-0.085761	-0.691906	-0.498941
C291	C	0.164239	-0.441906	-0.248941
C292	C	0.414239	-0.191906	0.001059
C293	C	-0.333671	-0.944847	-0.675557
C294	C	-0.083671	-0.694847	-0.425557
C295	C	0.166329	-0.444847	-0.175557
C296	C	0.416329	-0.194847	0.074443
C297	C	-0.314454	-0.971790	-1.006743
C298	C	-0.064454	-0.721790	-0.756743
C299	C	0.185546	-0.471790	-0.506743
C300	C	0.435546	-0.221790	-0.256743
C301	C	-0.316543	-0.968854	-1.080133
C302	C	-0.066543	-0.718854	-0.830133
C303	C	0.183457	-0.468854	-0.580133
C304	C	0.433457	-0.218854	-0.330133
C305	C	-0.252472	-1.058801	-1.083782
C306	C	-0.002472	-0.808801	-0.833782
C307	C	0.247528	-0.558801	-0.583782
C308	C	0.497528	-0.308801	-0.333782
C309	C	-0.250388	-1.061741	-1.010396
C310	C	-0.000388	-0.811741	-0.760396
C311	C	0.249612	-0.561741	-0.510396
C312	C	0.499612	-0.311741	-0.260396
C313	C	-0.281376	-1.018233	-0.971880
C314	C	-0.031376	-0.768233	-0.721880
C315	C	0.218624	-0.518233	-0.471880
C316	C	0.468624	-0.268233	-0.221880
N317	N	-0.306906	-0.982403	-0.862475
N318	N	-0.056906	-0.732403	-0.612475
N319	N	0.193094	-0.482403	-0.362475
N320	N	0.443094	-0.232403	-0.112475
N321	N	-0.279238	-1.021238	-0.896870
N322	N	-0.029238	-0.771238	-0.646870
N323	N	0.220762	-0.521238	-0.396870
N324	N	0.470762	-0.271238	-0.146870
C325	C	-0.287920	-1.009095	-0.196746
C326	C	-0.037920	-0.759095	0.053254
C327	C	0.212080	-0.509095	0.303254
C328	C	0.462080	-0.259095	0.553254
C329	C	-0.285553	-1.012355	-0.118649
C330	C	-0.035553	-0.762355	0.131351
C331	C	0.214447	-0.512355	0.381351
C332	C	0.464447	-0.262355	0.631351
H333	H	-0.343771	-0.597847	-0.444608
H334	H	-0.093771	-0.347847	-0.194608
H335	H	0.156229	-0.097847	0.055392
H336	H	0.406229	0.152153	0.305392
H337	H	-0.358900	-0.909417	-0.644197
H338	H	-0.108900	-0.659417	-0.394197
H339	H	0.141100	-0.409417	-0.144197
H340	H	0.391100	-0.159417	0.105803
H341	H	-0.238417	-0.273238	-0.308700
H342	H	0.011583	-0.023238	-0.058700
H343	H	0.261583	0.226762	0.191300
H344	H	0.511583	0.476762	0.441300
H345	H	-0.347909	-0.730975	-0.449936
H346	H	-0.097909	-0.480975	-0.199936
H347	H	0.152091	-0.230975	0.050064
H348	H	0.402091	0.019025	0.300064
H349	H	-0.491998	-0.916797	-0.457460
H350	H	-0.241998	-0.666797	-0.207460
H351	H	0.008002	-0.416797	0.042540
H352	H	0.258002	-0.166797	0.292540
H353	H	-0.343481	-0.931033	-1.108520
H354	H	-0.093481	-0.681033	-0.858520
H355	H	0.156519	-0.431033	-0.608520
H356	H	0.406519	-0.181033	-0.358520
H357	H	-0.242556	-0.406367	-0.314025
H358	H	0.007444	-0.156367	-0.064025
H359	H	0.257444	0.093633	0.185975
H360	H	0.507444	0.343633	0.435975
H361	H	-0.339695	-0.936373	-0.975393
H362	H	-0.089695	-0.686373	-0.725393
H363	H	0.160305	-0.436373	-0.475393
H364	H	0.410305	-0.186373	-0.225393
H365	H	-0.362693	-0.904089	-0.777336
H366	H	-0.112693	-0.654089	-0.527336
H367	H	0.137307	-0.404089	-0.277336
H368	H	0.387307	-0.154089	-0.027336
H369	H	-0.223453	-1.099561	-0.982012
H370	H	0.026547	-0.849561	-0.732012
H371	H	0.276547	-0.599561	-0.482012
H372	H	0.526547	-0.349561	-0.232012
H373	H	-0.364575	-0.266661	-0.471452
H374	H	-0.114575	-0.016661	-0.221452
H375	H	0.135425	0.233339	0.028548
H376	H	0.385425	0.483339	0.278548
H377	H	-0.368712	-0.399799	-0.476784
H378	H	-0.118712	-0.149799	-0.226784
H379	H	0.131288	0.100201	0.023216
H380	H	0.381288	0.350201	0.273216
H381	H	-0.217617	-0.604412	-0.281854
H382	H	0.032383	-0.354412	-0.031854
H383	H	0.282383	-0.104412	0.218146
H384	H	0.532383	0.145588	0.468146
H385	H	-0.227243	-1.094222	-1.115149
H386	H	0.022757	-0.844222	-0.865149
H387	H	0.272757	-0.594222	-0.615149
H388	H	0.522757	-0.344222	-0.365149
H389	H	-0.221749	-0.737552	-0.287185
H390	H	0.028251	-0.487552	-0.037185
H391	H	0.278251	-0.237552	0.212815
H392	H	0.528251	0.012448	0.462815
H393	H	-0.591413	-1.086570	-0.301123
H394	H	-0.341413	-0.836570	-0.051123
H395	H	-0.091413	-0.586570	0.198877
H396	H	0.158587	-0.336570	0.448877
H397	H	-0.492359	-1.086506	-0.301099
H398	H	-0.242359	-0.836506	-0.051099
H399	H	0.007641	-0.586506	0.198901
H400	H	0.257641	-0.336506	0.448901
H401	H	-1.093413	-0.917079	-0.457559
H402	H	-0.843413	-0.667079	-0.207559
H403	H	-0.593413	-0.417079	0.042441
H404	H	-0.343413	-0.167079	0.292441
H405	H	-0.743639	-1.133408	-0.258058
H406	H	-0.493639	-0.883408	-0.008058
H407	H	-0.243639	-0.633408	0.241942
H408	H	0.006361	-0.383408	0.491942
H409	H	-0.842127	-0.870207	-0.500632
H410	H	-0.592127	-0.620207	-0.250632
H411	H	-0.342127	-0.370207	-0.000632
H412	H	-0.092127	-0.120207	0.249368
H413	H	-0.842688	-1.133460	-0.258078
H414	H	-0.592688	-0.883460	-0.008078
H415	H	-0.342688	-0.633460	0.241922
H416	H	-0.092688	-0.383460	0.491922
H417	H	-1.093784	-1.086800	-0.301208
H418	H	-0.843784	-0.836800	-0.051208
H419	H	-0.593784	-0.586800	0.198792
H420	H	-0.343784	-0.336800	0.448792
H421	H	-0.994362	-0.917041	-0.457554
H422	H	-0.744362	-0.667041	-0.207554
H423	H	-0.494362	-0.417041	0.042446
H424	H	-0.244362	-0.167041	0.292446
H425	H	-0.994716	-1.086757	-0.301185
H426	H	-0.744716	-0.836757	-0.051185
H427	H	-0.494716	-0.586757	0.198815
H428	H	-0.244716	-0.336757	0.448815
H429	H	-0.743075	-0.870173	-0.500621
H430	H	-0.493075	-0.620173	-0.250621
H431	H	-0.243075	-0.370173	-0.000621
H432	H	0.006925	-0.120173	0.249379
H433	H	-0.591067	-0.916848	-0.457489
H434	H	-0.341067	-0.666848	-0.207489
H435	H	-0.091067	-0.416848	0.042511
H436	H	0.158933	-0.166848	0.292511
H437	H	-0.242670	-1.072618	-0.650826
H438	H	0.007330	-0.822618	-0.400826
H439	H	0.257330	-0.572618	-0.150826
H440	H	0.507330	-0.322618	0.099174
H441	H	-0.246459	-1.067278	-0.783952
H442	H	0.003541	-0.817278	-0.533952
H443	H	0.253541	-0.567278	-0.283952
H444	H	0.503541	-0.317278	-0.033952
