data_functionalizedCrystal
_audit_creation_method	'MofGen! by Chris Wilmer'
_symmetry_space_group_name_H-M	'P1'
_symmetry_Int_Tables_number	1
_symmetry_cell_setting	triclinic
loop_
_symmetry_equiv_pos_as_xyz
  x,y,z
_cell_length_a	18.101397
_cell_length_b	21.395362
_cell_length_c	18.101390
_cell_angle_alpha	89.957156
_cell_angle_beta	90.035542
_cell_angle_gamma	89.961273
loop_
_atom_site_label
_atom_site_type_symbol
_atom_site_fract_x
_atom_site_fract_y
_atom_site_fract_z
Zn1	Zn	-0.294440	-0.957872	0.419184
Zn2	Zn	0.038893	-0.624539	0.752518
Zn3	Zn	0.372226	-0.291205	1.085851
Zn4	Zn	-0.418297	-0.957803	0.295337
Zn5	Zn	-0.084964	-0.624469	0.628671
Zn6	Zn	0.248369	-0.291136	0.962004
Zn7	Zn	-0.294514	-0.853096	0.295306
Zn8	Zn	0.038820	-0.519763	0.628640
Zn9	Zn	0.372153	-0.186430	0.961973
Zn10	Zn	-0.418284	-0.853075	0.419086
Zn11	Zn	-0.084951	-0.519742	0.752420
Zn12	Zn	0.248383	-0.186408	1.085753
O13	O	-0.356384	-0.905462	0.357229
O14	O	-0.023050	-0.572128	0.690562
O15	O	0.310283	-0.238795	1.023895
O16	O	-0.310845	-1.045541	0.402810
O17	O	0.022488	-0.712207	0.736143
O18	O	0.355822	-0.378874	1.069476
O19	O	-0.401913	-0.943893	0.191700
O20	O	-0.068580	-0.610560	0.525033
O21	O	0.264753	-0.277227	0.858367
O22	O	-0.190871	-0.867033	0.311767
O23	O	0.142462	-0.533700	0.645100
O24	O	0.475796	-0.200367	0.978434
O25	O	-0.401842	-1.045490	0.311820
O26	O	-0.068509	-0.712157	0.645153
O27	O	0.264824	-0.378823	0.978486
O28	O	-0.190817	-0.944011	0.402780
O29	O	0.142516	-0.610678	0.736113
O30	O	0.475850	-0.277345	1.069446
O31	O	-0.310970	-0.866966	0.191677
O32	O	0.022363	-0.533633	0.525011
O33	O	0.355697	-0.200299	0.858344
O34	O	-0.310957	-0.765416	0.311672
O35	O	0.022376	-0.432082	0.645005
O36	O	0.355710	-0.098749	0.978339
O37	O	-0.401819	-0.866996	0.522732
O38	O	-0.068486	-0.533663	0.856066
O39	O	0.264847	-0.200330	1.189399
O40	O	-0.401891	-0.765400	0.402613
O41	O	-0.068557	-0.432066	0.735946
O42	O	0.264776	-0.098733	1.069280
O43	O	-0.310832	-0.943990	0.522804
O44	O	0.022501	-0.610657	0.856138
O45	O	0.355835	-0.277324	1.189471
O46	O	-0.521928	-0.943872	0.311725
O47	O	-0.188595	-0.610539	0.645058
O48	O	0.144738	-0.277206	0.978391
O49	O	-0.521919	-0.866929	0.402643
O50	O	-0.188585	-0.533596	0.735976
O51	O	0.144748	-0.200263	1.069309
C52	C	-0.356431	-0.742674	0.357129
C53	C	-0.023098	-0.409341	0.690462
C54	C	0.310236	-0.076007	1.023796
C55	C	-0.356469	-0.673033	0.357104
C56	C	-0.023136	-0.339699	0.690437
C57	C	0.310198	-0.006366	1.023770
C58	C	-0.403882	-0.640328	0.404383
C59	C	-0.070549	-0.306994	0.737716
C60	C	0.262784	0.026339	1.071050
C61	C	-0.403867	-0.574892	0.404410
C62	C	-0.070534	-0.241559	0.737744
C63	C	0.262799	0.091774	1.071077
C64	C	-0.356447	-0.542164	0.357146
C65	C	-0.023113	-0.208831	0.690479
C66	C	0.310220	0.124502	1.023812
C67	C	-0.309024	-0.574877	0.309863
C68	C	0.024309	-0.241544	0.643196
C69	C	0.357643	0.091790	0.976530
C70	C	-0.309035	-0.640311	0.309842
C71	C	0.024298	-0.306978	0.643176
C72	C	0.357631	0.026355	0.976509
C73	C	-0.350504	-0.438444	0.290467
C74	C	-0.017171	-0.105110	0.623801
C75	C	0.316163	0.228223	0.957134
C76	C	-0.350498	-0.373011	0.290487
C77	C	-0.017165	-0.039677	0.623820
C78	C	0.316168	0.293656	0.957154
C79	C	-0.356408	-0.340344	0.357210
C80	C	-0.023075	-0.007010	0.690544
C81	C	0.310258	0.326323	1.023877
C82	C	-0.362340	-0.373117	0.423916
C83	C	-0.029007	-0.039784	0.757249
C84	C	0.304327	0.293549	1.090583
C85	C	-0.362351	-0.438551	0.423895
C86	C	-0.029018	-0.105218	0.757228
C87	C	0.304316	0.228115	1.090562
C88	C	-0.356429	-0.471212	0.357163
C89	C	-0.023096	-0.137879	0.690497
C90	C	0.310237	0.195455	1.023830
C91	C	-0.403808	-0.236686	0.404523
C92	C	-0.070475	0.096647	0.737857
C93	C	0.262858	0.429981	1.071190
C94	C	-0.403788	-0.171249	0.404552
C95	C	-0.070455	0.162084	0.737885
C96	C	0.262879	0.495417	1.071219
C97	C	-0.308949	-0.171236	0.309998
C98	C	0.024385	0.162098	0.643331
C99	C	0.357718	0.495431	0.976664
C100	C	-0.308965	-0.236671	0.309976
C101	C	0.024368	0.096662	0.643309
C102	C	0.357702	0.429996	0.976642
C103	C	-0.356399	-0.269392	0.357237
C104	C	-0.023065	0.063941	0.690571
C105	C	0.310268	0.397274	1.023904
C106	C	-0.548794	-0.905408	0.357193
C107	C	-0.215461	-0.572075	0.690526
C108	C	0.117872	-0.238741	1.023859
C109	C	-0.631108	-0.905442	0.357202
C110	C	-0.297775	-0.572109	0.690535
C111	C	0.035558	-0.238776	1.023869
C112	C	-0.930199	-0.905522	0.357270
C113	C	-0.596866	-0.572189	0.690603
C114	C	-0.263533	-0.238856	1.023936
C115	C	-0.898849	-0.953798	0.299913
C116	C	-0.565516	-0.620464	0.633246
C117	C	-0.232183	-0.287131	0.966580
C118	C	-0.813231	-0.953965	0.300062
C119	C	-0.479897	-0.620632	0.633395
C120	C	-0.146564	-0.287298	0.966729
C121	C	-0.781817	-0.905483	0.357236
C122	C	-0.448483	-0.572149	0.690569
C123	C	-0.115150	-0.238816	1.023902
C124	C	-0.812810	-0.923382	0.435305
C125	C	-0.479477	-0.590049	0.768638
C126	C	-0.146144	-0.256715	1.101972
C127	C	-0.898455	-0.923755	0.434993
C128	C	-0.565122	-0.590422	0.768326
C129	C	-0.231789	-0.257089	1.101659
C130	C	-0.898735	-0.839219	0.337232
C131	C	-0.565402	-0.505885	0.670566
C132	C	-0.232068	-0.172552	1.003899
C133	C	-0.813085	-0.839546	0.335490
C134	C	-0.479752	-0.506213	0.668823
C135	C	-0.146419	-0.172880	1.002157
C136	C	-0.697957	-0.905459	0.357221
C137	C	-0.364624	-0.572126	0.690554
C138	C	-0.031291	-0.238792	1.023888
C139	C	-1.014059	-0.905547	0.357289
C140	C	-0.680725	-0.572214	0.690623
C141	C	-0.347392	-0.238881	1.023956
C142	C	-0.163222	-0.905532	0.357281
C143	C	0.170112	-0.572199	0.690614
C144	C	0.503445	-0.238866	1.023948
C145	C	-0.080908	-0.905563	0.357303
C146	C	0.252426	-0.572229	0.690636
C147	C	0.585759	-0.238896	1.023970
C148	C	-0.356316	-0.905499	0.550391
C149	C	-0.022983	-0.572165	0.883724
C150	C	0.310351	-0.238832	1.217057
C151	C	-0.356287	-0.905515	0.632705
C152	C	-0.022954	-0.572181	0.966038
C153	C	0.310379	-0.238848	1.299371
C154	C	-0.356349	-0.068885	0.357308
C155	C	-0.023016	0.264448	0.690641
C156	C	0.310317	0.597782	1.023974
C157	C	-0.356366	-0.138526	0.357287
C158	C	-0.023033	0.194807	0.690621
C159	C	0.310301	0.528141	1.023954
C160	C	-0.356398	-0.905460	0.164818
C161	C	-0.023064	-0.572127	0.498151
C162	C	0.310269	-0.238794	0.831485
C163	C	-0.356218	-0.905566	0.082504
C164	C	-0.022884	-0.572233	0.415838
C165	C	0.310449	-0.238899	0.749171
C166	C	-0.356241	-0.905548	0.931796
C167	C	-0.022908	-0.572215	1.265129
C168	C	0.310426	-0.238882	1.598463
C169	C	-0.299196	-0.954150	0.900516
C170	C	0.034138	-0.620817	1.233849
C171	C	0.367471	-0.287484	1.567183
C172	C	-0.298984	-0.953999	0.814898
C173	C	0.034349	-0.620666	1.148231
C174	C	0.367683	-0.287332	1.481564
C175	C	-0.356264	-0.905532	0.783413
C176	C	-0.022931	-0.572199	1.116747
C177	C	0.310403	-0.238866	1.450080
C178	C	-0.335086	-0.839523	0.814456
C179	C	-0.001752	-0.506190	1.147789
C180	C	0.331581	-0.172857	1.481123
C181	C	-0.334658	-0.839814	0.900101
C182	C	-0.001325	-0.506481	1.233435
C183	C	0.332009	-0.173148	1.566768
C184	C	-0.434612	-0.922374	0.900213
C185	C	-0.101279	-0.589041	1.233546
C186	C	0.232055	-0.255707	1.566879
C187	C	-0.434212	-0.923822	0.814563
C188	C	-0.100878	-0.590489	1.147897
C189	C	0.232455	-0.257156	1.481230
C190	C	-0.356278	-0.905519	0.699554
C191	C	-0.022945	-0.572186	1.032887
C192	C	0.310388	-0.238852	1.366220
C193	C	-0.356225	-0.905557	1.015655
C194	C	-0.022892	-0.572224	1.348989
C195	C	0.310442	-0.238891	1.682322
H196	H	-0.270413	-0.548226	0.271381
H197	H	0.062921	-0.214893	0.604714
H198	H	0.396254	0.118441	0.938048
H199	H	-0.442396	-0.144622	0.443057
H200	H	-0.109063	0.188711	0.776390
H201	H	0.224270	0.522044	1.109724
H202	H	-0.278435	-0.825002	0.793013
H203	H	0.054899	-0.491668	1.126347
H204	H	0.388232	-0.158335	1.459680
H205	H	-0.375357	-0.802328	0.794057
H206	H	-0.042023	-0.468994	1.127391
H207	H	0.291310	-0.135661	1.460724
H208	H	-0.453901	-0.969664	0.921879
H209	H	-0.120568	-0.636331	1.255212
H210	H	0.212766	-0.302997	1.588545
H211	H	-0.345688	-0.465036	0.236130
H212	H	-0.012355	-0.131703	0.569463
H213	H	0.320978	0.201631	0.902796
H214	H	-0.919011	-0.803250	0.379007
H215	H	-0.585677	-0.469917	0.712341
H216	H	-0.252344	-0.136583	1.045674
O217	O	-0.785988	-1.019021	0.317629
O218	O	-0.452655	-0.685688	0.650962
O219	O	-0.119322	-0.352355	0.984295
H220	H	-0.724671	-1.019370	0.317789
H221	H	-0.391338	-0.686036	0.651122
H222	H	-0.058005	-0.352703	0.984455
O223	O	-0.786264	-0.821659	0.259390
O224	O	-0.452931	-0.488326	0.592723
O225	O	-0.119597	-0.154993	0.926057
H226	H	-0.724979	-0.820005	0.259234
H227	H	-0.391645	-0.486671	0.592568
H228	H	-0.058312	-0.153338	0.925901
H229	H	-0.270423	-0.666939	0.271342
H230	H	0.062910	-0.333606	0.604675
H231	H	0.396243	-0.000273	0.938008
H232	H	-0.270359	-0.263300	0.271472
H233	H	0.062974	0.070034	0.604805
H234	H	0.396307	0.403367	0.938139
H235	H	-0.442477	-0.548259	0.442914
H236	H	-0.109144	-0.214925	0.776247
H237	H	0.224190	0.118408	1.109580
O238	O	-0.927425	-0.817651	0.263123
O239	O	-0.594091	-0.484317	0.596457
O240	O	-0.260758	-0.150984	0.929790
H241	H	-0.988635	-0.814958	0.264906
H242	H	-0.655302	-0.481624	0.598239
H243	H	-0.321969	-0.148291	0.931572
H244	H	-0.374401	-0.802370	0.920789
H245	H	-0.041068	-0.469036	1.254123
H246	H	0.292265	-0.135703	1.587456
O247	O	-0.926524	-0.939036	0.223148
O248	O	-0.593191	-0.605703	0.556481
O249	O	-0.259858	-0.272370	0.889815
H250	H	-0.878873	-0.929580	0.186242
H251	H	-0.545539	-0.596247	0.519575
H252	H	-0.212206	-0.262914	0.852909
H253	H	-0.792460	-0.889295	0.479191
H254	H	-0.459127	-0.555962	0.812524
H255	H	-0.125794	-0.222629	1.145857
H256	H	-0.367151	-0.346521	0.478248
H257	H	-0.033818	-0.013188	0.811582
H258	H	0.299515	0.320146	1.144915
O259	O	-0.344097	-0.337663	0.218546
O260	O	-0.010764	-0.004329	0.551879
O261	O	0.322570	0.329004	0.885212
H262	H	-0.339972	-0.371369	0.172147
H263	H	-0.006639	-0.038036	0.505480
H264	H	0.326694	0.295297	0.838814
O265	O	-0.784771	-0.789333	0.386764
O266	O	-0.451438	-0.456000	0.720097
O267	O	-0.118105	-0.122666	1.053431
H268	H	-0.802105	-0.800077	0.444190
H269	H	-0.468771	-0.466744	0.777523
H270	H	-0.135438	-0.133411	1.110857
O271	O	-0.927243	-1.018505	0.317276
O272	O	-0.593910	-0.685171	0.650609
O273	O	-0.260577	-0.351838	0.983942
H274	H	-0.963585	-1.016432	0.366580
H275	H	-0.630252	-0.683098	0.699913
H276	H	-0.296919	-0.349765	1.033246
O277	O	-0.924824	-0.987952	0.457460
O278	O	-0.591491	-0.654619	0.790794
O279	O	-0.258157	-0.321286	1.124127
H280	H	-0.876405	-1.018439	0.468443
H281	H	-0.543072	-0.685106	0.801776
H282	H	-0.209738	-0.351773	1.135109
H283	H	-0.792278	-0.942767	0.242176
H284	H	-0.458945	-0.609433	0.575509
H285	H	-0.125612	-0.276100	0.908842
H286	H	-0.241460	-0.943153	0.922051
H287	H	0.091873	-0.609820	1.255384
H288	H	0.425206	-0.276487	1.588718
H289	H	-0.919191	-0.890134	0.479202
H290	H	-0.585858	-0.556801	0.812535
H291	H	-0.252524	-0.223467	1.145869
O292	O	-0.454939	-0.271990	0.455517
O293	O	-0.121605	0.061344	0.788851
O294	O	0.211728	0.394677	1.122184
H295	H	-0.492591	-0.301750	0.422307
H296	H	-0.159257	0.031584	0.755640
H297	H	0.174076	0.364917	1.088973
O298	O	-0.455373	-0.988169	0.787700
O299	O	-0.122040	-0.654836	1.121033
O300	O	0.211294	-0.321502	1.454366
H301	H	-0.410570	-1.007049	0.752305
H302	H	-0.077236	-0.673716	1.085638
H303	H	0.256097	-0.340383	1.418972
H304	H	-0.791283	-0.971304	0.452560
H305	H	-0.457950	-0.637971	0.785894
H306	H	-0.124617	-0.304637	1.119227
O307	O	-0.222079	-0.939254	0.787765
O308	O	0.111255	-0.605920	1.121098
O309	O	0.444588	-0.272587	1.454431
H310	H	-0.184896	-0.932196	0.835816
H311	H	0.148438	-0.598862	1.169149
H312	H	0.481771	-0.265529	1.502483
H313	H	-0.312244	-1.002946	0.793913
H314	H	0.021090	-0.669612	1.127246
H315	H	0.354423	-0.336279	1.460579
O316	O	-0.257806	-0.135947	0.259010
O317	O	0.075527	0.197386	0.592343
O318	O	0.408861	0.530720	0.925677
H319	H	-0.265768	-0.084951	0.266962
H320	H	0.067566	0.248382	0.600295
H321	H	0.400899	0.581715	0.933628
O322	O	-0.493541	-0.880342	0.786183
O323	O	-0.160207	-0.547008	1.119517
O324	O	0.173126	-0.213675	1.452850
H325	H	-0.468284	-0.844855	0.749273
H326	H	-0.134951	-0.511521	1.082606
H327	H	0.198383	-0.178188	1.415939
H328	H	-0.367179	-0.465233	0.478209
H329	H	-0.033845	-0.131900	0.811542
H330	H	0.299488	0.201433	1.144876
O331	O	-0.490920	-0.875491	0.927004
O332	O	-0.157587	-0.542157	1.260337
O333	O	0.175747	-0.208824	1.593671
H334	H	-0.463270	-0.840373	0.962641
H335	H	-0.129937	-0.507040	1.295975
H336	H	0.203396	-0.173707	1.629308
H337	H	-0.277370	-0.825552	0.920088
H338	H	0.055963	-0.492219	1.253422
H339	H	0.389296	-0.158885	1.586755
O340	O	-0.455030	-0.675622	0.455366
O341	O	-0.121697	-0.342288	0.788699
O342	O	0.211636	-0.008955	1.122032
H343	H	-0.487992	-0.641882	0.488253
H344	H	-0.154659	-0.308549	0.821586
H345	H	0.178675	0.024785	1.154919
O346	O	-0.316520	-1.019199	0.927850
O347	O	0.016814	-0.685866	1.261183
O348	O	0.350147	-0.352533	1.594517
H349	H	-0.365972	-1.017587	0.964025
H350	H	-0.032638	-0.684254	1.297358
H351	H	0.300695	-0.350920	1.630691
