data_functionalizedCrystal
_audit_creation_method	'MofGen! by Chris Wilmer'
_symmetry_space_group_name_H-M	'P1'
_symmetry_Int_Tables_number	1
_symmetry_cell_setting	triclinic
loop_
_symmetry_equiv_pos_as_xyz
  x,y,z
_cell_length_a	16.109301
_cell_length_b	27.732046
_cell_length_c	15.186229
_cell_angle_alpha	90.010028
_cell_angle_beta	89.999006
_cell_angle_gamma	96.948219
loop_
_atom_site_label
_atom_site_type_symbol
_atom_site_fract_x
_atom_site_fract_y
_atom_site_fract_z
O1	O	1.102361	-0.062131	-0.073193
O2	O	0.860203	-0.069863	-0.073207
O3	O	0.988803	0.004369	-0.073179
O4	O	0.973760	-0.136362	-0.073220
O5	O	0.988795	0.004370	0.073278
O6	O	0.860194	-0.069861	0.073251
O7	O	1.102352	-0.062130	0.073265
Zn8	Zn	0.981272	-0.065995	0.096511
Zn9	Zn	0.981283	-0.065997	-0.096453
O10	O	0.973752	-0.136361	0.073237
C11	C	0.829228	-0.069549	0.000021
C12	C	0.736944	-0.068610	0.000016
C13	C	0.988484	0.022378	0.000052
C14	C	0.987533	0.076036	0.000062
C15	C	0.427438	-0.109587	0.000020
C16	C	0.514147	-0.110474	0.000014
C17	C	0.535112	-0.022401	0.000028
C18	C	0.448404	-0.021515	0.000027
C19	C	0.394569	-0.065109	0.000027
C20	C	0.567986	-0.066883	0.000023
C21	C	0.662000	-0.067844	0.000017
C22	C	0.300549	-0.064148	0.000032
C23	C	1.057545	0.414559	0.000035
C24	C	1.054020	0.616233	0.000031
O25	O	1.118038	0.647221	-0.000002
N26	N	0.977766	0.635676	0.000029
C27	C	0.902387	0.604697	0.000021
O28	O	0.837448	0.625862	0.000010
C29	C	0.905914	0.403023	0.000019
C30	C	0.982173	0.383584	0.000030
C31	C	1.133798	0.395118	0.000046
C32	C	1.134679	0.344703	0.000052
C33	C	1.059306	0.313727	0.000047
C34	C	0.983053	0.333168	0.000036
C35	C	0.830537	0.372045	0.000005
C36	C	0.831425	0.321624	0.000002
C37	C	0.907684	0.302184	0.000014
C38	C	0.908562	0.251777	0.000037
N39	N	0.984816	0.232334	0.000040
C40	C	1.060188	0.263309	0.000045
C41	C	0.900541	0.710579	0.000024
C42	C	0.899660	0.760997	0.000027
C43	C	1.051292	0.772530	0.000035
C44	C	1.052173	0.722111	0.000039
C45	C	0.976795	0.691136	0.000027
C46	C	1.062032	0.157432	0.000057
C47	C	1.062906	0.107012	0.000067
C48	C	0.911273	0.095483	0.000054
C49	C	0.910399	0.145899	0.000049
C50	C	0.985785	0.176873	0.000048
O51	O	0.844578	0.220761	0.000061
O52	O	1.125118	0.242135	0.000036
C53	C	1.056665	0.464974	0.000030
C54	C	0.980412	0.484415	0.000019
C55	C	0.905039	0.453440	0.000014
C56	C	0.979530	0.534833	0.000021
C57	C	1.054902	0.565808	0.000026
C58	C	1.131156	0.546365	0.000029
C59	C	1.132037	0.495950	0.000034
C60	C	0.828785	0.472883	0.000012
C61	C	0.827911	0.523299	0.000007
C62	C	0.903283	0.554274	0.000012
C63	C	1.133327	-0.062443	0.000036
C64	C	1.225611	-0.063382	0.000034
C65	C	0.974074	0.845631	0.000015
C66	C	0.975032	0.791972	0.000031
N67	N	0.981270	-0.065994	0.228204
N68	N	0.981291	-0.065994	-0.228145
C69	C	1.038234	-0.033136	0.453938
C70	C	1.038236	-0.033134	0.546128
C71	C	0.924322	-0.098854	0.546113
C72	C	0.924316	-0.098853	0.453925
C73	C	0.981276	-0.065994	0.407840
C74	C	0.981285	-0.065994	0.592218
C75	C	0.981287	-0.065993	0.692174
C76	C	0.981273	-0.065994	0.307878
H77	H	0.383607	-0.145085	0.000019
N78	N	0.547737	-0.155903	0.000003
N79	N	0.593782	-0.166226	-0.061735
H80	H	0.617506	-0.198312	-0.061744
H81	H	1.112663	0.797759	0.000039
N82	N	0.414838	0.023925	0.000026
N83	N	0.462911	0.062845	0.000030
H84	H	0.439206	0.094936	0.000026
N85	N	1.140813	0.087163	0.000086
N86	N	1.208103	0.114829	0.000090
H87	H	1.263124	0.100813	0.000103
H88	H	1.084613	-0.006379	0.416418
N89	N	0.754418	0.289992	-0.000021
N90	N	0.686342	0.307360	-0.000036
H91	H	0.631956	0.285021	-0.000053
H92	H	0.578954	0.013092	0.000030
N93	N	1.139043	0.189059	0.000054
N94	N	1.207115	0.171687	0.000064
H95	H	1.261505	0.194023	0.000065
N96	N	1.212584	0.324857	0.000060
N97	N	1.279868	0.352527	0.000061
H98	H	1.334893	0.338515	0.000064
H99	H	1.084615	-0.006378	0.583659
H100	H	0.877947	-0.125608	0.583645
H101	H	1.194135	0.480127	0.000043
H102	H	1.192527	0.571594	0.000036
N103	N	0.866121	-0.132419	0.406844
N104	N	0.815271	-0.161756	0.447999
H105	H	0.774170	-0.185460	0.414749
N106	N	1.210804	0.426747	0.000045
N107	N	1.278874	0.409373	0.000051
H108	H	1.333265	0.431708	0.000055
H109	H	0.849907	0.070254	0.000053
H110	H	1.114270	0.706287	0.000048
N111	N	0.821763	0.780852	0.000044
N112	N	0.771097	0.771361	0.061778
H113	H	0.716080	0.785382	0.061788
H114	H	0.768438	0.387864	-0.000010
N115	N	0.823532	0.678949	0.000012
N116	N	0.755460	0.696322	0.000012
H117	H	0.701070	0.673985	0.000007
H118	H	0.848303	0.161728	0.000064
N119	N	0.750001	0.543144	0.000005
N120	N	0.682714	0.515477	0.000000
H121	H	0.627690	0.529491	-0.000006
N122	N	0.751782	0.441253	0.000004
N123	N	0.683710	0.458625	0.000000
H124	H	0.629320	0.436288	-0.000001
