data_functionalizedCrystal
_audit_creation_method	'MofGen! by Chris Wilmer'
_symmetry_space_group_name_H-M	'P1'
_symmetry_Int_Tables_number	1
_symmetry_cell_setting	triclinic
loop_
_symmetry_equiv_pos_as_xyz
  x,y,z
_cell_length_a	29.839125
_cell_length_b	29.839134
_cell_length_c	17.077402
_cell_angle_alpha	90.015628
_cell_angle_beta	89.984422
_cell_angle_gamma	89.975687
loop_
_atom_site_label
_atom_site_type_symbol
_atom_site_fract_x
_atom_site_fract_y
_atom_site_fract_z
Zn1	Zn	-0.254160	0.686778	-0.312770
Zn2	Zn	-0.179032	0.686734	-0.444012
Zn3	Zn	-0.179026	0.611660	-0.312748
Zn4	Zn	-0.254118	0.611632	-0.443981
O5	O	-0.216584	0.649201	-0.378378
O6	O	-0.244214	0.749639	-0.330202
O7	O	-0.116164	0.676769	-0.426604
O8	O	-0.189008	0.621655	-0.202904
O9	O	-0.189018	0.749607	-0.426625
O10	O	-0.244208	0.676843	-0.202920
O11	O	-0.116160	0.621612	-0.330164
O12	O	-0.188967	0.548789	-0.330134
O13	O	-0.316990	0.621607	-0.426572
O14	O	-0.244137	0.548769	-0.426551
O15	O	-0.317021	0.676816	-0.330172
O16	O	-0.188978	0.676742	-0.553855
O17	O	-0.244143	0.621565	-0.553832
C18	C	-0.216547	0.532478	-0.378337
C19	C	-0.216542	0.482544	-0.378339
C20	C	-0.187916	0.125955	-0.328100
C21	C	-0.187889	0.313628	-0.328078
O22	O	-0.163508	0.337891	-0.285296
N23	N	-0.216564	0.337099	-0.378351
C24	C	-0.245251	0.313649	-0.428630
O25	O	-0.269644	0.337918	-0.471385
C26	C	-0.245280	0.125976	-0.428648
C27	C	-0.216599	0.102508	-0.378377
C28	C	-0.159238	0.102487	-0.277832
C29	C	-0.159243	0.055571	-0.277841
C30	C	-0.187927	0.032124	-0.328118
C31	C	-0.216605	0.055593	-0.378386
C32	C	-0.273968	0.102527	-0.478923
C33	C	-0.273974	0.055606	-0.478921
C34	C	-0.245293	0.032137	-0.428650
C35	C	-0.245293	-0.014770	-0.428672
N36	N	-0.216618	-0.038241	-0.378398
C37	C	-0.187934	-0.014794	-0.328121
C38	C	-0.245233	0.412179	-0.428619
C39	C	-0.245225	0.459097	-0.428616
C40	C	-0.187863	0.459073	-0.328061
C41	C	-0.187869	0.412155	-0.328069
C42	C	-0.216557	0.388708	-0.378345
C43	C	-0.187948	-0.113320	-0.328144
C44	C	-0.187954	-0.160239	-0.328160
C45	C	-0.245317	-0.160211	-0.428711
C46	C	-0.245309	-0.113296	-0.428699
C47	C	-0.216623	-0.089851	-0.378409
O48	O	-0.269665	-0.039062	-0.471425
O49	O	-0.163552	-0.039071	-0.285360
C50	C	-0.187911	0.172871	-0.328091
C51	C	-0.216588	0.196339	-0.378359
C52	C	-0.245272	0.172892	-0.428636
C53	C	-0.216581	0.243257	-0.378355
C54	C	-0.187897	0.266704	-0.328078
C55	C	-0.159222	0.243233	-0.277805
C56	C	-0.159227	0.196318	-0.277814
C57	C	-0.273947	0.196363	-0.478909
C58	C	-0.273939	0.243278	-0.478897
C59	C	-0.245256	0.266725	-0.428620
C60	C	-0.333762	0.649213	-0.378371
C61	C	-0.383697	0.649218	-0.378368
C62	C	-0.693359	0.677996	-0.328041
C63	C	-0.881033	0.678018	-0.327974
O64	O	-0.905314	0.702452	-0.285258
N65	N	-0.904482	0.649278	-0.378158
C66	C	-0.881011	0.620528	-0.428358
O67	O	-0.905262	0.596080	-0.471035
C68	C	-0.693338	0.620504	-0.428420
C69	C	-0.669891	0.649249	-0.378239
C70	C	-0.669912	0.706738	-0.277863
C71	C	-0.622997	0.706734	-0.277883
C72	C	-0.599528	0.677988	-0.328081
C73	C	-0.622976	0.649245	-0.378259
C74	C	-0.669868	0.591752	-0.478616
C75	C	-0.622947	0.591748	-0.478626
C76	C	-0.599499	0.620493	-0.428445
C77	C	-0.552592	0.620494	-0.428478
N78	N	-0.529142	0.649234	-0.378294
C79	C	-0.552611	0.677981	-0.328096
C80	C	-0.979541	0.620543	-0.428323
C81	C	-1.026459	0.620550	-0.428308
C82	C	-1.026478	0.678040	-0.327923
C83	C	-0.979559	0.678035	-0.327942
C84	C	-0.956092	0.649284	-0.378139
C85	C	-0.454085	0.677970	-0.328143
C86	C	-0.407165	0.677965	-0.328170
C87	C	-0.407150	0.620474	-0.428552
C88	C	-0.454066	0.620481	-0.428528
C89	C	-0.477532	0.649231	-0.378317
O90	O	-0.528282	0.596069	-0.471165
O91	O	-0.528351	0.702418	-0.285413
C92	C	-0.740275	0.678000	-0.328021
C93	C	-0.763722	0.649257	-0.378199
C94	C	-0.740254	0.620511	-0.428397
C95	C	-0.810640	0.649264	-0.378184
C96	C	-0.834108	0.678011	-0.327986
C97	C	-0.810659	0.706751	-0.277802
C98	C	-0.763743	0.706747	-0.277822
C99	C	-0.763703	0.591770	-0.478581
C100	C	-0.810619	0.591777	-0.478557
C101	C	-0.834087	0.620524	-0.428359
C102	C	-0.099861	0.649215	-0.378328
C103	C	-0.049927	0.649297	-0.378110
C104	C	-0.216566	0.649158	-0.582326
C105	C	-0.216573	0.649180	-0.669576
C106	C	-0.216622	0.766379	-0.378419
C107	C	-0.216638	0.816314	-0.378437
C108	C	-0.187880	0.677940	-0.710552
C109	C	-0.187891	0.677962	-0.792532
C110	C	-0.216594	0.649222	-0.833535
C111	C	-0.245291	0.620460	-0.792553
C112	C	-0.245282	0.620441	-0.710574
C113	C	-0.245308	0.620502	-0.963423
C114	C	-0.245317	0.620521	-1.045408
C115	C	-0.187918	0.678023	-1.045381
C116	C	-0.187908	0.678004	-0.963402
C117	C	-0.216605	0.649242	-0.922426
C118	C	-0.216612	0.649257	-0.173634
C119	C	-0.216624	0.649281	-0.086384
H120	H	-0.164598	-0.179345	-0.287222
F121	F	-0.275745	0.484069	-0.482132
F122	F	-0.275842	0.589875	-0.836194
F123	F	-0.275838	-0.185174	-0.482226
F124	F	-0.598048	0.737327	-0.224469
H125	H	-0.135873	0.177214	-0.236877
H126	H	-0.164534	0.701404	-0.930018
H127	H	-0.135881	0.121572	-0.236886
H128	H	-0.744600	0.568361	-0.519460
H129	H	-1.045594	0.701447	-0.287050
F130	F	-0.275822	0.589832	-0.666965
F131	F	-0.128693	0.268195	-0.224298
F132	F	-1.051408	0.589962	-0.481729
H133	H	-0.268698	0.597126	-1.078790
H134	H	-0.297306	0.177277	-0.519851
F135	F	-0.157416	-0.088374	-0.274621
H136	H	-0.960438	0.597131	-0.469205
H137	H	-0.829775	0.730159	-0.236931
H138	H	-0.135889	0.036467	-0.236904
H139	H	-0.164505	0.701342	-0.677172
F140	F	-0.275851	0.589891	-0.919815
F141	F	-0.157353	0.708574	-0.836138
H142	H	-0.164516	0.393050	-0.287131
H143	H	-0.164554	0.701444	-1.078748
F144	F	-0.835568	0.561183	-0.531976
H145	H	-0.297294	0.262382	-0.519841
F146	F	-0.157336	0.484035	-0.274553
H147	H	-0.473185	0.701380	-0.287253
F148	F	-0.694882	0.737341	-0.224437
F149	F	-0.275767	0.387232	-0.482135
H150	H	-0.268660	-0.094187	-0.469640
H151	H	-0.388076	0.701375	-0.287305
H152	H	-0.744657	0.730154	-0.236959
F153	F	-0.304495	0.127494	-0.532429
F154	F	-0.382166	0.589881	-0.481973
F155	F	-0.954609	0.708629	-0.274532
F156	F	-0.694812	0.561158	-0.532030
F157	F	-0.479021	0.589890	-0.481941
H158	H	-0.297337	0.036518	-0.519860
F159	F	-0.597974	0.561145	-0.532053
