data_functionalizedCrystal
_audit_creation_method	'MofGen! by Chris Wilmer'
_symmetry_space_group_name_H-M	'P1'
_symmetry_Int_Tables_number	1
_symmetry_cell_setting	triclinic
loop_
_symmetry_equiv_pos_as_xyz
  x,y,z
_cell_length_a	14.908571
_cell_length_b	16.959454
_cell_length_c	14.908694
_cell_angle_alpha	93.271572
_cell_angle_beta	83.592472
_cell_angle_gamma	86.716421
loop_
_atom_site_label
_atom_site_type_symbol
_atom_site_fract_x
_atom_site_fract_y
_atom_site_fract_z
Zn1	Zn	1.413345	-0.416138	-0.591530
Zn2	Zn	1.913345	0.083862	-0.091530
Zn3	Zn	1.404514	-0.540230	-0.440172
Zn4	Zn	1.904514	-0.040230	0.059828
Zn5	Zn	1.253246	-0.399970	-0.431464
Zn6	Zn	1.753246	0.100030	0.068536
Zn7	Zn	1.261946	-0.540169	-0.582770
Zn8	Zn	1.761946	-0.040169	-0.082770
O9	O	1.333263	-0.474127	-0.511484
O10	O	1.833263	0.025873	-0.011484
O11	O	1.538840	-0.439390	-0.578762
O12	O	2.038840	0.060610	-0.078762
O13	O	1.377112	-0.514884	-0.312351
O14	O	1.877112	-0.014884	0.187649
O15	O	1.274539	-0.291508	-0.452719
O16	O	1.774539	0.208492	0.047281
O17	O	1.532352	-0.530561	-0.467560
O18	O	2.032352	-0.030561	0.032440
O19	O	1.392162	-0.303386	-0.570319
O20	O	1.892162	0.196614	-0.070319
O21	O	1.265976	-0.411835	-0.305953
O22	O	1.765976	0.088165	0.194047
O23	O	1.127733	-0.411776	-0.444225
O24	O	1.627733	0.088224	0.055775
O25	O	1.289365	-0.530456	-0.710598
O26	O	1.789365	-0.030456	-0.210598
O27	O	1.134125	-0.514779	-0.555389
O28	O	1.634125	-0.014779	-0.055389
O29	O	1.400598	-0.439331	-0.717034
O30	O	1.900598	0.060669	-0.217034
O31	O	1.385547	-0.650829	-0.459065
O32	O	1.885547	-0.150829	0.040935
O33	O	1.280802	-0.650784	-0.563832
O34	O	1.780802	-0.150784	-0.063832
C35	C	1.098086	-0.461517	-0.497912
C36	C	1.598086	0.038483	0.002088
C37	C	0.997477	-0.456143	-0.492127
C38	C	1.497477	0.043857	0.007873
C39	C	0.815118	-0.553450	-0.596856
C40	C	1.315118	-0.053450	-0.096856
C41	C	0.720587	-0.548404	-0.591424
C42	C	1.220587	-0.048404	-0.091424
C43	C	0.713885	-0.440999	-0.475836
C44	C	1.213885	0.059001	0.024164
C45	C	0.808415	-0.446046	-0.481268
C46	C	1.308415	0.053954	0.018732
C47	C	0.859028	-0.502274	-0.541780
C48	C	1.359028	-0.002274	-0.041780
C49	C	0.953560	-0.507325	-0.547206
C50	C	1.453560	-0.007325	-0.047206
C51	C	0.946856	-0.399917	-0.431624
C52	C	1.446856	0.100083	0.068376
C53	C	0.852326	-0.394870	-0.426192
C54	C	1.352326	0.105130	0.073808
C55	C	1.333186	-0.679488	-0.511464
C56	C	1.833186	-0.179488	-0.011464
C57	C	1.333238	-0.767349	-0.511491
C58	C	1.833238	-0.267349	-0.011491
C59	C	1.278806	-1.138836	-0.566034
C60	C	1.778806	-0.638836	-0.066034
C61	C	1.387977	-1.138833	-0.457040
C62	C	1.887977	-0.638833	0.042960
C63	C	1.387945	-1.056285	-0.457030
C64	C	1.887945	-0.556285	0.042970
C65	C	1.333341	-1.015008	-0.511522
C66	C	1.833341	-0.515008	-0.011522
C67	C	1.278770	-1.056280	-0.566024
C68	C	1.778770	-0.556280	-0.066024
C69	C	1.442508	-1.015006	-0.402522
C70	C	1.942508	-0.515006	0.097478
C71	C	1.442477	-0.932453	-0.402509
C72	C	1.942477	-0.432453	0.097491
C73	C	1.387878	-0.891176	-0.457006
C74	C	1.887878	-0.391176	0.042994
C75	C	1.333306	-0.932452	-0.511511
C76	C	1.833306	-0.432452	-0.011511
C77	C	1.278702	-0.891176	-0.566003
C78	C	1.778702	-0.391176	-0.066003
C79	C	1.224134	-0.932452	-0.620514
C80	C	1.724134	-0.432452	-0.120514
C81	C	1.224171	-1.015002	-0.620521
C82	C	1.724171	-0.515002	-0.120521
C83	C	1.387841	-0.808625	-0.456999
C84	C	1.887841	-0.308625	0.043001
C85	C	1.278666	-0.808620	-0.565993
C86	C	1.778666	-0.308620	-0.065993
C87	C	1.569358	-0.486786	-0.525109
C88	C	2.069358	0.013214	-0.025109
C89	C	1.669968	-0.492181	-0.530916
C90	C	2.169968	0.007819	-0.030916
C91	C	1.346937	-0.486690	-0.747577
C92	C	1.846937	0.013310	-0.247577
C93	C	1.352764	-0.492044	-0.848186
C94	C	1.852764	0.007956	-0.348186
C95	C	1.333365	-0.267966	-0.511525
C96	C	1.833365	0.232034	-0.011525
C97	C	1.333409	-0.180112	-0.511542
C98	C	1.833409	0.319888	-0.011542
C99	C	1.247967	-0.394801	-1.030580
C100	C	1.747967	0.105199	-0.530580
C101	C	1.253439	-0.399829	-1.125110
C102	C	1.753439	0.100171	-0.625110
C103	C	1.369175	-0.507130	-1.131780
C104	C	1.869175	-0.007130	-0.631780
C105	C	1.363703	-0.502103	-1.037249
C106	C	1.863703	-0.002103	-0.537249
C107	C	1.303098	-0.445935	-0.986652
C108	C	1.803098	0.054065	-0.486652
C109	C	1.297631	-0.440904	-0.892120
C110	C	1.797631	0.059096	-0.392120
C111	C	1.413361	-0.548209	-0.898791
C112	C	1.913361	-0.048209	-0.398791
C113	C	1.418833	-0.553237	-0.993322
C114	C	1.918833	-0.053237	-0.493322
C115	C	1.319694	-0.461558	-0.276312
C116	C	1.819694	0.038442	0.223688
C117	C	1.314042	-0.455991	-0.175714
C118	C	1.814042	0.044009	0.324286
H119	H	0.994768	-0.553110	-0.596476
H120	H	1.494768	-0.053110	-0.096476
Cl121	Cl	1.184126	-0.335545	-1.180331
Cl122	Cl	1.684126	0.164455	-0.680331
H123	H	1.458256	-0.589844	-0.863015
H124	H	1.958256	-0.089844	-0.363015
H125	H	1.248287	-0.395167	-0.850925
H126	H	1.748287	0.104833	-0.350925
H127	H	1.234380	-1.172446	-0.610418
H128	H	1.734380	-0.672446	-0.110418
H129	H	1.486956	-1.048619	-0.358151
H130	H	1.986956	-0.548619	0.141849
Cl131	Cl	1.511085	-0.880572	-0.333992
Cl132	Cl	2.011085	-0.380572	0.166008
Cl133	Cl	1.210023	-0.756737	-0.634506
Cl134	Cl	1.710023	-0.256737	-0.134506
Cl135	Cl	1.456425	-0.756738	-0.388467
Cl136	Cl	1.956425	-0.256738	0.111533
Cl137	Cl	1.495015	-0.623846	-1.056937
Cl138	Cl	1.995015	-0.123846	-0.556937
H139	H	1.179671	-0.898834	-0.664877
H140	H	1.679671	-0.398834	-0.164877
Cl141	Cl	0.665388	-0.612741	-0.660669
Cl142	Cl	1.165388	-0.112741	-0.160669
Cl143	Cl	0.878749	-0.624143	-0.672916
Cl144	Cl	1.378749	-0.124143	-0.172916
Cl145	Cl	1.155575	-1.066896	-0.689040
Cl146	Cl	1.655575	-0.566896	-0.189040
H147	H	0.672659	-0.395216	-0.426577
H148	H	1.172659	0.104784	0.073423
H149	H	0.811104	-0.349089	-0.376928
H150	H	1.311104	0.150911	0.123072
Cl151	Cl	1.002063	-0.335584	-0.362372
Cl152	Cl	1.502063	0.164416	0.137628
H153	H	1.432427	-1.172445	-0.412670
H154	H	1.932427	-0.672445	0.087330
H155	H	1.198629	-0.349061	-0.989383
H156	H	1.698629	0.150939	-0.489383
H157	H	1.418504	-0.552869	-1.172991
H158	H	1.918504	-0.052869	-0.672991
