data_functionalizedCrystal
_audit_creation_method	'MofGen! by Chris Wilmer'
_symmetry_space_group_name_H-M	'P1'
_symmetry_Int_Tables_number	1
_symmetry_cell_setting	triclinic
loop_
_symmetry_equiv_pos_as_xyz
  x,y,z
_cell_length_a	10.685976
_cell_length_b	10.686285
_cell_length_c	12.759393
_cell_angle_alpha	94.398003
_cell_angle_beta	85.640271
_cell_angle_gamma	81.631153
loop_
_atom_site_label
_atom_site_type_symbol
_atom_site_fract_x
_atom_site_fract_y
_atom_site_fract_z
Zn1	Zn	1.979320	-0.653829	0.425687
Zn2	Zn	1.995506	-0.866112	0.235440
Zn3	Zn	1.767067	-0.637642	0.264636
Zn4	Zn	1.783354	-0.849770	0.425694
O5	O	1.881311	-0.751838	0.337865
O6	O	2.159082	-0.695602	0.388229
O7	O	1.965160	-0.835870	0.092290
O8	O	1.781633	-0.462172	0.298216
O9	O	2.170974	-0.851565	0.248455
O10	O	1.937575	-0.474064	0.416539
O11	O	1.797327	-0.668014	0.113741
O12	O	1.591612	-0.652168	0.298223
O13	O	1.809391	-0.823713	0.572716
O14	O	1.603578	-0.808018	0.416551
O15	O	1.953367	-0.679756	0.572711
O16	O	1.980953	-1.041561	0.248462
O17	O	1.825086	-1.029555	0.388241
C18	C	1.551541	-0.726564	0.360556
C19	C	1.410467	-0.715782	0.370287
C20	C	1.906577	-1.081615	0.315205
C21	C	1.917502	-1.222704	0.305538
C22	C	2.212369	-0.777212	0.315085
C23	C	2.353446	-0.788024	0.305377
C24	C	1.881391	-0.751717	0.611901
C25	C	1.881424	-0.751665	0.728679
C26	C	1.855982	-0.420776	0.360634
C27	C	1.845187	-0.279697	0.370336
C28	C	1.881299	-0.751873	0.064896
C29	C	1.881483	-0.751586	-0.051874
C30	C	1.956403	-0.676700	0.783539
C31	C	1.956430	-0.676656	0.893265
C32	C	1.806496	-0.826554	0.893258
C33	C	1.806463	-0.826590	0.783536
C34	C	2.042970	-0.590161	0.783544
C35	C	2.042997	-0.590118	0.893269
H36	H	1.351358	-0.645687	0.433309
N37	N	1.725661	-0.907360	0.952441
H38	H	1.752299	-0.999569	0.925754
H39	H	1.633486	-0.880593	0.940927
H40	H	2.009118	-0.489848	0.762348
H41	H	2.139029	-0.632549	0.740661
H42	H	1.745404	-0.887629	0.738873
N43	N	1.431737	-0.880894	0.221896
H44	H	1.524800	-0.875698	0.226539
H45	H	1.407061	-0.859281	0.149833
H46	H	1.774919	-1.220556	0.433210
H47	H	2.000648	-0.494025	0.936151
H48	H	1.987767	-1.281852	0.242654
N49	N	2.175873	-0.634985	0.921375
H50	H	2.205188	-0.566133	0.967887
H51	H	2.235064	-0.655060	0.854726
