data_functionalizedCrystal
_audit_creation_method	'MofGen! by Chris Wilmer'
_symmetry_space_group_name_H-M	'P1'
_symmetry_Int_Tables_number	1
_symmetry_cell_setting	triclinic
loop_
_symmetry_equiv_pos_as_xyz
  x,y,z
_cell_length_a	17.077404
_cell_length_b	12.594516
_cell_length_c	12.594509
_cell_angle_alpha	89.975000
_cell_angle_beta	90.021213
_cell_angle_gamma	89.973044
loop_
_atom_site_label
_atom_site_type_symbol
_atom_site_fract_x
_atom_site_fract_y
_atom_site_fract_z
Zn1	Zn	1.200047	0.423720	0.601861
Zn2	Zn	1.199941	0.601725	0.423888
Zn3	Zn	1.068775	0.423762	0.423891
Zn4	Zn	1.068738	0.601658	0.601819
O5	O	1.134375	0.512716	0.512865
O6	O	1.309880	0.447344	0.578268
O7	O	1.182513	0.578164	0.274942
O8	O	1.086248	0.274811	0.447518
O9	O	1.309802	0.578123	0.447512
O10	O	1.182693	0.274780	0.578272
O11	O	1.086146	0.447415	0.274945
O12	O	0.958923	0.447349	0.447477
O13	O	1.086185	0.578008	0.750770
O14	O	0.958896	0.578048	0.578200
O15	O	1.182657	0.447278	0.750801
O16	O	1.182477	0.750662	0.447471
O17	O	1.086083	0.750612	0.578197
C18	C	0.930427	0.512697	0.512835
C19	C	0.843178	0.512714	0.512848
C20	C	1.134286	0.789257	0.512852
C21	C	1.134319	0.907563	0.512883
C22	C	0.802194	0.580872	0.580806
C23	C	0.720213	0.580874	0.580823
C24	C	0.679218	0.512723	0.512876
C25	C	0.720208	0.444558	0.444915
C26	C	0.802187	0.444551	0.444904
C27	C	0.549338	0.444579	0.444940
C28	C	0.467353	0.444587	0.444949
C29	C	0.467364	0.580902	0.580860
C30	C	0.549343	0.580895	0.580849
C31	C	0.590327	0.512731	0.512886
C32	C	1.081876	0.976827	0.583934
C33	C	1.062740	1.047690	0.486811
C34	C	1.153498	1.047499	0.610022
C35	C	1.115146	0.976867	0.415708
C36	C	1.205937	0.976670	0.538985
C37	C	1.186828	1.047500	0.441794
C38	C	1.339119	0.512736	0.512895
C39	C	1.426369	0.512745	0.512908
C40	C	1.134429	0.512630	0.790486
C41	C	1.134452	0.512594	0.908791
C42	C	1.134452	1.235095	0.512898
C43	C	1.134396	1.116790	0.512909
C44	C	1.134367	0.512725	0.236324
C45	C	1.134496	0.512461	0.118019
C46	C	1.082014	0.583609	1.048791
C47	C	1.062835	0.486544	0.977987
C48	C	1.153595	0.609649	0.978024
C49	C	1.115281	0.415344	1.048772
C50	C	1.206074	0.538515	1.048816
C51	C	1.186923	0.441383	0.978043
H52	H	0.835566	0.636372	0.636133
Br53	Br	1.260807	1.098897	0.341558
Br54	Br	0.664595	0.673376	0.673059
H55	H	1.037616	0.643643	1.079856
Br56	Br	0.961914	0.449891	0.926135
H57	H	0.433977	0.389080	0.389633
H58	H	1.169688	1.078525	0.692160
H59	H	1.037459	0.945795	0.643933
H60	H	1.099040	0.333186	1.079720
H61	H	1.002211	1.078909	0.464755
H62	H	1.098885	0.945970	0.333547
Br63	Br	1.306802	0.924637	0.575821
Br64	Br	1.260869	0.341086	0.926592
H65	H	1.266608	0.560530	1.079951
Br66	Br	1.180543	0.746540	0.926207
H67	H	0.433991	0.636401	0.636201
Br68	Br	0.604958	0.352068	0.352706
Br69	Br	0.604980	0.673397	0.673053
H70	H	0.686823	0.389064	0.389595
H71	H	0.835555	0.389045	0.389571
