data_functionalizedCrystal
_audit_creation_method	'MofGen! by Chris Wilmer'
_symmetry_space_group_name_H-M	'P1'
_symmetry_Int_Tables_number	1
_symmetry_cell_setting	triclinic
loop_
_symmetry_equiv_pos_as_xyz
  x,y,z
_cell_length_a	19.377625
_cell_length_b	19.376995
_cell_length_c	14.560438
_cell_angle_alpha	48.616706
_cell_angle_beta	75.509352
_cell_angle_gamma	62.433786
loop_
_atom_site_label
_atom_site_type_symbol
_atom_site_fract_x
_atom_site_fract_y
_atom_site_fract_z
Zr1	Zr	0.829284	0.780215	-0.580437
O2	O	0.742652	0.928934	-0.733274
O3	O	0.836992	0.631501	-0.503017
O4	O	0.864174	0.780215	-0.738703
O5	O	0.715470	0.780217	-0.346446
O6	O	0.981475	0.780209	-0.777759
O7	O	0.715470	0.780220	-0.497587
O8	O	0.932850	0.514187	-0.356158
O9	O	0.764094	1.046240	-0.768046
O10	O	0.950592	0.692663	-0.536076
O11	O	0.863052	0.692665	-0.394134
O12	O	0.895056	0.867757	-0.671625
O13	O	0.807516	0.867760	-0.529683
Zr14	Zr	1.016364	0.780202	-0.401673
Zr15	Zr	1.016364	0.780205	-0.642726
Zr16	Zr	0.829284	0.780211	-0.339384
Zr17	Zr	0.863481	0.967304	-0.635895
Zr18	Zr	0.982167	0.593112	-0.346215
O19	O	1.008656	0.928916	-0.479094
O20	O	1.008657	0.928920	-0.821840
O21	O	0.742652	0.928929	-0.390527
O22	O	1.102996	0.631483	-0.248837
O23	O	1.102996	0.631487	-0.591583
O24	O	0.836991	0.631496	-0.160270
O25	O	1.130178	0.780199	-0.635665
O26	O	0.981474	0.780202	-0.243407
O27	O	0.864174	0.780207	-0.204352
O28	O	1.130178	0.780197	-0.484524
O29	O	0.912798	1.046232	-0.817557
O30	O	0.932850	0.514184	-0.164553
O31	O	1.081554	0.514177	-0.214065
O32	O	1.081554	0.514179	-0.405670
O33	O	0.764094	1.046237	-0.576441
O34	O	0.912798	1.046230	-0.625952
O35	O	0.950592	0.692659	-0.310486
O36	O	1.038132	0.692657	-0.452427
O37	O	0.982596	0.867751	-0.587976
O38	O	0.895056	0.867754	-0.446035
C39	C	0.880049	0.546187	-0.421686
C40	C	0.865531	0.466763	-0.398143
C41	C	0.799377	0.354819	-0.290874
C42	C	0.813024	0.429450	-0.313004
C43	C	0.904410	0.429457	-0.461189
C44	C	0.890767	0.354828	-0.439076
C45	C	0.838251	0.317514	-0.353915
C46	C	0.929641	0.317523	-0.502117
C47	C	0.916003	0.242897	-0.480000
C48	C	0.863491	0.205576	-0.394841
C49	C	0.824613	0.242888	-0.331798
C50	C	0.982162	0.354834	-0.587271
C51	C	1.021036	0.317529	-0.650312
C52	C	1.007393	0.242906	-0.628202
C53	C	0.954881	0.205585	-0.543043
C54	C	1.046272	0.205594	-0.691245
C55	C	1.032633	0.130968	-0.669128
C56	C	0.941243	0.130958	-0.520926
C57	C	0.688815	0.780220	-0.413141
C58	C	0.609395	0.780224	-0.386698
C59	C	0.348176	0.780203	-0.715980
C60	C	0.273551	0.780198	-0.691097
C61	C	0.273571	0.780196	-0.524577
C62	C	0.348196	0.780205	-0.549451
C63	C	0.385493	0.780207	-0.645153
C64	C	0.385513	0.780210	-0.478624
C65	C	0.460134	0.780214	-0.503492
C66	C	0.497437	0.780213	-0.599187
C67	C	0.460113	0.780211	-0.670021
C68	C	0.348217	0.780201	-0.382917
C69	C	0.385535	0.780205	-0.312089
C70	C	0.460154	0.780216	-0.336962
C71	C	0.497457	0.780215	-0.432658
C72	C	0.497477	0.780218	-0.266128
C73	C	0.572098	0.780222	-0.290996
C74	C	0.572077	0.780219	-0.457525
C75	C	1.156833	0.780197	-0.568969
C76	C	1.236254	0.780193	-0.595412
C77	C	0.922824	0.780212	-0.792576
C78	C	0.922825	0.780214	-0.894909
C79	C	0.965599	1.014229	-0.560425
C80	C	0.980117	1.093654	-0.583968
C81	C	0.987446	0.780211	-0.964501
C82	C	0.987447	0.780202	-1.060646
C83	C	0.858198	0.780202	-1.017598
C84	C	0.858200	0.780204	-0.921451
C85	C	0.922824	0.780204	-0.189535
C86	C	0.922823	0.780203	-0.087201
C87	C	1.114058	0.546176	-0.499600
C88	C	1.178961	0.466747	-0.502500
C89	C	0.880048	0.546183	-0.120165
C90	C	0.865531	0.466757	0.005711
C91	C	1.114057	0.546172	-0.198079
C92	C	1.178960	0.466742	-0.098646
C93	C	0.731591	1.014245	-0.784031
C94	C	0.666688	1.093675	-0.883465
C95	C	0.731590	1.014241	-0.482511
C96	C	0.666687	1.093669	-0.479611
C97	C	0.965600	1.014233	-0.861945
C98	C	0.980117	1.093659	-0.987822
C99	C	1.163745	0.429450	-0.547535
C100	C	1.224723	0.354829	-0.550283
C101	C	1.300915	0.317501	-0.507987
C102	C	1.316131	0.354806	-0.462951
C103	C	1.255154	0.429431	-0.460212
C104	C	0.904408	0.429455	0.108498
C105	C	0.890766	0.354836	0.226780
C106	C	0.838250	0.317516	0.242272
C107	C	0.799369	0.354826	0.139473
C108	C	0.813007	0.429448	0.021195
C109	C	1.255142	0.429439	-0.126045
C110	C	1.316134	0.354817	-0.032632
C111	C	1.300942	0.317493	0.088182
C112	C	1.224753	0.354803	0.115580
C113	C	1.163763	0.429429	0.022166
C114	C	0.590508	1.130986	-0.856068
C115	C	0.529520	1.205632	-0.949488
C116	C	0.544713	1.242959	-1.070303
C117	C	0.620901	1.205645	-1.097700
C118	C	0.681888	1.131006	-1.004282
C119	C	0.681904	1.130974	-0.434587
C120	C	0.620930	1.205616	-0.431872
C121	C	0.544738	1.242946	-0.474173
C122	C	0.529522	1.205638	-0.519203
C123	C	0.590497	1.131003	-0.521926
C124	C	1.032637	1.130956	-1.003274
C125	C	1.046294	1.205575	-1.121542
C126	C	1.007425	1.242901	-1.224356
C127	C	0.954902	1.205597	-1.208899
C128	C	0.941251	1.130975	-1.090633
H129	H	0.781359	0.459827	-0.261670
O130	O	1.271548	0.469690	-0.256346
H131	H	1.237132	0.455361	-0.288141
H132	H	1.350559	0.256736	-0.510223
O133	O	0.961048	0.469704	0.091804
H134	H	0.985777	0.431228	0.183161
H135	H	1.018547	1.303664	-1.320649
H136	H	0.495096	1.303719	-0.471949
H137	H	0.923258	1.236000	-1.292627
H138	H	1.350611	0.256728	0.164234
O139	O	0.637277	1.245913	-1.228013
H140	H	0.700497	1.207439	-1.231387
O141	O	0.612353	0.780233	-0.214615
H142	H	0.573879	0.780243	-0.143899
O143	O	1.102909	0.245850	-0.783096
H144	H	1.150794	0.231528	-0.736224
O145	O	0.233336	0.780195	-0.421363
H146	H	0.269340	0.711854	-0.333302
O147	O	1.208305	0.314597	-0.598853
H148	H	1.165865	0.280588	-0.542665
O149	O	0.447343	1.245905	-0.564826
H150	H	0.407506	1.304062	-0.555352
H151	H	0.827152	0.256754	0.338589
O152	O	0.742732	0.314569	0.156179
H153	H	0.762931	0.280569	0.110775
O154	O	0.574080	1.090763	-0.570480
H155	H	0.531630	1.056770	-0.514298
H156	H	0.781349	0.459810	-0.062492
O157	O	0.884591	1.090762	-1.073972
H158	H	0.859855	1.129269	-1.165339
H159	H	1.378166	0.324446	-0.054961
O160	O	0.612303	0.780232	-0.560759
H161	H	0.624611	0.848581	-0.628975
H162	H	0.558199	0.780211	-0.619429
O163	O	0.848764	0.125100	-0.370997
H164	H	0.864929	0.057090	-0.272687
H165	H	1.212394	0.324403	0.213959
H166	H	0.898472	0.100584	-0.451591
O167	O	0.932722	0.314591	0.337638
H168	H	0.917784	0.377242	0.337621
H169	H	0.781841	0.212513	-0.262463
O170	O	1.081591	0.469640	0.051731
H171	H	1.081279	0.431132	0.151439
O172	O	0.637353	1.245834	-0.383286
H173	H	0.602916	1.231522	-0.303380
H174	H	0.756606	0.324444	-0.221539
H175	H	0.947171	0.459844	-0.530524
H176	H	1.089060	1.235940	-1.134104
O177	O	0.788497	0.780211	-0.846382
H178	H	0.743553	0.780221	-0.881002
H179	H	1.064292	1.100576	-0.919571
O180	O	0.574113	1.090739	-0.725766
H181	H	0.510892	1.129244	-0.722432
H182	H	1.101712	0.459841	-0.581995
H183	H	0.993258	0.415606	-0.605284
O184	O	0.447346	1.245853	-0.919922
H185	H	0.447031	1.207335	-0.820211
O186	O	0.478932	1.323474	-1.171062
H187	H	0.423409	1.343141	-1.131701
O188	O	1.074549	0.090734	-0.737131
H189	H	1.138568	0.056738	-0.716432
H190	H	0.743916	1.100627	-1.026603
O191	O	1.057145	0.780201	-1.135710
H192	H	1.038553	0.848534	-1.233453
O193	O	0.764082	1.090733	-0.388984
H194	H	0.764410	1.129236	-0.357244
H195	H	1.063797	0.347916	-0.719647
H196	H	0.378541	0.780215	-0.793919
O197	O	0.500351	0.780215	-0.773244
H198	H	0.461868	0.780209	-0.818321
O199	O	0.788491	0.780208	-1.046237
H200	H	0.799341	0.780220	-1.124797
H201	H	1.040068	0.780217	-0.942893
H202	H	1.378174	0.324403	-0.428516
H203	H	0.243171	0.780193	-0.748780
H204	H	0.287458	0.780193	-0.362670
O205	O	1.271566	0.469642	-0.411612
H206	H	1.334791	0.431133	-0.382649
H207	H	0.467104	0.780206	-0.188200
O208	O	0.345305	0.780208	-0.208874
H209	H	0.287145	0.780211	-0.203484
