data_functionalizedCrystal
_audit_creation_method	'MofGen! by Chris Wilmer'
_symmetry_space_group_name_H-M	'P1'
_symmetry_Int_Tables_number	1
_symmetry_cell_setting	triclinic
loop_
_symmetry_equiv_pos_as_xyz
  x,y,z
_cell_length_a	17.038272
_cell_length_b	10.654550
_cell_length_c	9.130313
_cell_angle_alpha	90.003780
_cell_angle_beta	89.998262
_cell_angle_gamma	92.201771
loop_
_atom_site_label
_atom_site_type_symbol
_atom_site_fract_x
_atom_site_fract_y
_atom_site_fract_z
O1	O	0.109874	-1.678036	-0.121922
O2	O	0.120343	-1.313530	-0.121899
O3	O	0.001281	-1.493617	-0.121899
O4	O	0.228936	-1.497950	-0.121923
O5	O	0.001284	-1.493615	0.121700
O6	O	0.120346	-1.313528	0.121700
O7	O	0.109878	-1.678034	0.121676
Cu8	Cu	0.115112	-1.495781	0.143931
Cu9	Cu	0.115108	-1.495783	-0.144153
O10	O	0.228939	-1.497948	0.121676
C11	C	0.119576	-1.266660	-0.000097
C12	C	0.117276	-1.127003	-0.000087
C13	C	-0.027867	-1.489675	-0.000100
C14	C	-0.114726	-1.477918	-0.000099
C15	C	0.110645	-1.724905	-0.000129
C16	C	0.112944	-1.864562	-0.000148
C17	C	-0.164237	-1.585862	-0.000105
C18	C	-0.245850	-1.574808	-0.000118
C19	C	-0.277949	-1.455808	-0.000115
C20	C	-0.228431	-1.347856	-0.000114
C21	C	-0.146821	-1.358911	-0.000111
C22	C	-0.523925	-1.416750	-0.000133
C23	C	-0.605542	-1.405702	-0.000131
C24	C	-0.622955	-1.632656	-0.000137
C25	C	-0.541342	-1.643701	-0.000126
C26	C	-0.491831	-1.535749	-0.000133
C27	C	-0.361370	-1.444505	-0.000124
C28	C	-0.408412	-1.547052	-0.000134
C29	C	0.258088	-1.501889	-0.000126
C30	C	0.344947	-1.513646	-0.000136
N31	N	0.115114	-1.495788	0.346553
C32	C	0.187378	-1.054026	-0.000116
C33	C	0.185212	-0.922804	-0.000141
C34	C	0.042837	-0.937548	-0.000115
C35	C	0.045004	-1.068767	-0.000080
C36	C	0.269577	-1.045513	-0.000137
C37	C	0.267411	-0.914292	-0.000162
N38	N	0.115100	-1.495785	-0.346776
C39	C	0.062412	-1.575554	0.423205
C40	C	0.062403	-1.575550	0.576542
C41	C	0.167805	-1.416010	0.576561
C42	C	0.167810	-1.416009	0.423227
C43	C	0.001561	-1.667667	0.423195
C44	C	0.001552	-1.667663	0.576532
H45	H	-0.138109	-1.682764	-0.000098
Cl46	Cl	-0.084577	-1.223204	-0.000110
H47	H	0.292254	-0.870926	0.105003
Cl48	Cl	-0.048014	-0.864328	-0.000105
Cl49	Cl	0.315223	-0.854291	-0.157570
Cl50	Cl	0.234055	-1.315712	0.326863
H51	H	0.014955	-1.765419	0.618141
Cl52	Cl	-0.268785	-1.198254	-0.000129
H53	H	0.301726	-1.077829	0.101811
Cl54	Cl	-0.461694	-1.281036	-0.000145
Cl55	Cl	0.309983	-1.104327	-0.162515
Cl56	Cl	-0.308089	-1.710516	-0.000120
Cl57	Cl	0.234047	-1.315722	0.672961
Cl58	Cl	-0.091271	-1.625941	0.358937
H59	H	0.020614	-1.760620	0.375629
H60	H	-0.055271	-1.631874	0.624087
Cl61	Cl	-0.500995	-1.793307	-0.000177
Cl62	Cl	-0.645894	-1.256091	-0.000119
Cl63	Cl	-0.368057	-1.696647	-0.000145
Cl64	Cl	-0.401730	-1.294910	-0.000128
Cl65	Cl	-0.685200	-1.768358	-0.000133
H66	H	-0.012080	-1.128180	-0.000035
