data_functionalizedCrystal
_audit_creation_method	'MofGen! by Chris Wilmer'
_symmetry_space_group_name_H-M	'P1'
_symmetry_Int_Tables_number	1
_symmetry_cell_setting	triclinic
loop_
_symmetry_equiv_pos_as_xyz
  x,y,z
_cell_length_a	12.759401
_cell_length_b	17.640280
_cell_length_c	12.759393
_cell_angle_alpha	78.768122
_cell_angle_beta	89.981504
_cell_angle_gamma	78.801088
loop_
_atom_site_label
_atom_site_type_symbol
_atom_site_fract_x
_atom_site_fract_y
_atom_site_fract_z
Zn1	Zn	1.690815	-0.314620	-0.509515
Zn2	Zn	1.726240	-0.446817	-0.298344
Zn3	Zn	1.515128	-0.314662	-0.333843
Zn4	Zn	1.550620	-0.446756	-0.474002
O5	O	1.620701	-0.380714	-0.403926
O6	O	1.842537	-0.332165	-0.481509
O7	O	1.698207	-0.429329	-0.156021
O8	O	1.508755	-0.204049	-0.386865
O9	O	1.868564	-0.429289	-0.326362
O10	O	1.637831	-0.204019	-0.515931
O11	O	1.543105	-0.332235	-0.182102
O12	O	1.372813	-0.332176	-0.352430
O13	O	1.569245	-0.429185	-0.625745
O14	O	1.398888	-0.429226	-0.455404
O15	O	1.672246	-0.332106	-0.651837
O16	O	1.732622	-0.557416	-0.291927
O17	O	1.603595	-0.557371	-0.420982
C18	C	1.347729	-0.380699	-0.403916
C19	C	1.230956	-0.380712	-0.403931
C20	C	1.189721	-0.431327	-0.457417
C21	C	1.079999	-0.431337	-0.457425
C22	C	1.052758	-0.330115	-0.350454
C23	C	1.162476	-0.330102	-0.350453
C24	C	1.258201	-0.481937	-0.510895
C25	C	1.216967	-0.532556	-0.564384
C26	C	1.107245	-0.532566	-0.564393
C27	C	1.038758	-0.481957	-0.510913
C28	C	1.675832	-0.586073	-0.348771
C29	C	1.699514	-0.673926	-0.325211
C30	C	1.441225	-0.962886	-0.583293
C31	C	1.463480	-1.045438	-0.561121
C32	C	1.597919	-1.045419	-0.426872
C33	C	1.575680	-0.962866	-0.449037
C34	C	1.497331	-0.921606	-0.527247
C35	C	1.631785	-0.921585	-0.392991
C36	C	1.609543	-0.839039	-0.415150
C37	C	1.531196	-0.797773	-0.493355
C38	C	1.475089	-0.839060	-0.549406
C39	C	1.710129	-0.962847	-0.314775
C40	C	1.766234	-0.921566	-0.258729
C41	C	1.743998	-0.839018	-0.280893
C42	C	1.665650	-0.797753	-0.359098
C43	C	1.800105	-0.797732	-0.224841
C44	C	1.777863	-0.715186	-0.247000
C45	C	1.643408	-0.715207	-0.381257
C46	C	1.894738	-0.380729	-0.403937
C47	C	2.011516	-0.380736	-0.403942
C48	C	1.620753	-0.380634	-0.677981
C49	C	1.620775	-0.380600	-0.794767
C50	C	1.565383	-0.174553	-0.459319
C51	C	1.541809	-0.086700	-0.482925
C52	C	1.674416	-0.330046	-0.863218
C53	C	1.674433	-0.330017	-0.972949
C54	C	1.567168	-0.431104	-0.945768
C55	C	1.567145	-0.431128	-0.836040
C56	C	1.728046	-0.279518	-0.821945
C57	C	1.781692	-0.228960	-0.890397
C58	C	1.781709	-0.228932	-1.000128
C59	C	1.728080	-0.279461	-1.041408
C60	C	1.620694	-0.380736	-0.130953
C61	C	1.620815	-0.380548	-0.014227
H62	H	1.196048	-0.288881	-0.306909
O63	O	1.515178	-0.480165	-0.986033
C64	C	1.526682	-0.469291	-1.097564
H65	H	1.600819	-0.443403	-1.119509
H66	H	1.535456	-0.528487	-1.123351
H67	H	1.453076	-0.427191	-1.140018
O68	O	1.067110	-0.581619	-0.616495
C69	C	0.991583	-0.536690	-0.696511
H70	H	1.007929	-0.474440	-0.719858
H71	H	0.998071	-0.565353	-0.769602
H72	H	0.907676	-0.533946	-0.664778
H73	H	1.523446	-0.472282	-0.780308
H74	H	1.823549	-0.681575	-0.201360
O75	O	1.364744	-0.481782	-0.510933
C76	C	1.381076	-0.406057	-0.558448
H77	H	1.305607	-0.360518	-0.552842
H78	H	1.450673	-0.391956	-0.514870
H79	H	1.400154	-0.404463	-0.646052
O80	O	1.509421	-0.717588	-0.514985
C81	C	1.428260	-0.690025	-0.596052
H82	H	1.379696	-0.737626	-0.597929
H83	H	1.373538	-0.634837	-0.579133
H84	H	1.465914	-0.675324	-0.676644
O85	O	1.283333	-0.581738	-0.616428
C86	C	1.223408	-0.626425	-0.663620
H87	H	1.136504	-0.594061	-0.676027
H88	H	1.257428	-0.634927	-0.744092
H89	H	1.227838	-0.686422	-0.608902
H90	H	0.949415	-0.481962	-0.510935
O91	O	1.833621	-0.179836	-0.850200
C92	C	1.760092	-0.128784	-0.800469
H93	H	1.687949	-0.156660	-0.776529
H94	H	1.800032	-0.118210	-0.726159
H95	H	1.732836	-0.070199	-0.858502
O96	O	0.986093	-0.281040	-0.298508
C97	C	0.880408	-0.291895	-0.309996
H98	H	0.881834	-0.352923	-0.327890
H99	H	0.837225	-0.286477	-0.232767
H100	H	0.836704	-0.245062	-0.378620
O101	O	1.728246	-0.279542	-0.715354
C102	C	1.834391	-0.299880	-0.673276
H103	H	1.891275	-0.286372	-0.740167
H104	H	1.843520	-0.264245	-0.609461
H105	H	1.854210	-0.365466	-0.636175
H106	H	1.579616	-0.681611	-0.444952
H107	H	1.411297	-0.805464	-0.613101
O108	O	1.365065	-0.922922	-0.659283
C109	C	1.320339	-0.977055	-0.704036
H110	H	1.332565	-1.035917	-0.645199
H111	H	1.231145	-0.953240	-0.721584
H112	H	1.361138	-0.985781	-0.781510
O113	O	1.833905	-0.179795	-1.066468
C114	C	1.881208	-0.135191	-1.006509
H115	H	1.893515	-0.167587	-0.919589
H116	H	1.961732	-0.126761	-1.040482
H117	H	1.826629	-0.075161	-1.010970
O118	O	1.409147	-1.085627	-0.615599
C119	C	1.481769	-1.133297	-0.670730
H120	H	1.564735	-1.145630	-0.630438
H121	H	1.454614	-1.191363	-0.669181
H122	H	1.484682	-1.101445	-0.757151
O123	O	1.674010	-1.085624	-0.350955
C124	C	1.681584	-1.167334	-0.343384
H125	H	1.650179	-1.178598	-0.421414
H126	H	1.768721	-1.198670	-0.327895
H127	H	1.631980	-1.190807	-0.274722
O128	O	1.731838	-1.043032	-0.293419
C129	C	1.766164	-1.070548	-0.386754
H130	H	1.799106	-1.022928	-0.443006
H131	H	1.831427	-1.125741	-0.364457
H132	H	1.695718	-1.085225	-0.428270
H133	H	1.830023	-0.955171	-0.195047
O134	O	1.876319	-0.837855	-0.149002
C135	C	1.956977	-0.885565	-0.196056
H136	H	1.956726	-0.860654	-0.285497
H137	H	2.038093	-0.886482	-0.157871
H138	H	1.941335	-0.948138	-0.182850
O139	O	1.728135	-0.279579	-1.147963
C140	C	1.775472	-0.355320	-1.164264
H141	H	1.769729	-0.400860	-1.088790
H142	H	1.731863	-0.369350	-1.233893
H143	H	1.863100	-0.356995	-1.183292
