data_functionalizedCrystal
_audit_creation_method	'MofGen! by Chris Wilmer'
_symmetry_space_group_name_H-M	'P1'
_symmetry_Int_Tables_number	1
_symmetry_cell_setting	triclinic
loop_
_symmetry_equiv_pos_as_xyz
  x,y,z
_cell_length_a	17.699083
_cell_length_b	12.503572
_cell_length_c	17.699083
_cell_angle_alpha	86.484775
_cell_angle_beta	83.283015
_cell_angle_gamma	93.505083
loop_
_atom_site_label
_atom_site_type_symbol
_atom_site_fract_x
_atom_site_fract_y
_atom_site_fract_z
O1	O	1.008441	0.089171	0.091332
O2	O	1.258441	0.339171	0.341332
O3	O	1.508441	0.589171	0.591332
O4	O	1.758441	0.839171	0.841332
O5	O	0.788064	0.089207	0.103783
O6	O	1.038064	0.339207	0.353783
O7	O	1.288064	0.589207	0.603783
O8	O	1.538064	0.839207	0.853783
O9	O	0.904478	0.089179	-0.012631
O10	O	1.154478	0.339179	0.237369
O11	O	1.404478	0.589179	0.487369
O12	O	1.654478	0.839179	0.737369
O13	O	0.892027	0.089200	0.207746
O14	O	1.142027	0.339200	0.457746
O15	O	1.392027	0.589200	0.707746
O16	O	1.642027	0.839200	0.957746
O17	O	0.895723	-0.089461	-0.003862
O18	O	1.145723	0.160539	0.246138
O19	O	1.395723	0.410539	0.496138
O20	O	1.645723	0.660539	0.746138
O21	O	0.779309	-0.089433	0.112552
O22	O	1.029309	0.160567	0.362552
O23	O	1.279309	0.410567	0.612552
O24	O	1.529309	0.660567	0.862552
O25	O	0.999686	-0.089468	0.100101
O26	O	1.249686	0.160532	0.350101
O27	O	1.499686	0.410532	0.600101
O28	O	1.749686	0.660532	0.850101
Cu29	Cu	0.888698	-0.105762	0.107128
Cu30	Cu	1.138698	0.144238	0.357128
Cu31	Cu	1.388698	0.394238	0.607128
Cu32	Cu	1.638698	0.644238	0.857128
Cu33	Cu	0.899052	0.105500	0.096757
Cu34	Cu	1.149052	0.355500	0.346757
Cu35	Cu	1.399052	0.605500	0.596757
Cu36	Cu	1.649052	0.855500	0.846757
O37	O	0.883272	-0.089440	0.216516
O38	O	1.133272	0.160560	0.466516
O39	O	1.383272	0.410560	0.716516
O40	O	1.633272	0.660560	0.966516
C41	C	0.755490	-0.000109	0.107721
C42	C	1.005490	0.249891	0.357721
C43	C	1.255490	0.499891	0.607721
C44	C	1.505490	0.749891	0.857721
C45	C	0.671473	-0.000095	0.106382
C46	C	0.921473	0.249905	0.356382
C47	C	1.171473	0.499905	0.606382
C48	C	1.421473	0.749905	0.856382
N49	N	0.881421	-0.254352	0.114421
N50	N	1.131421	-0.004352	0.364421
N51	N	1.381421	0.245648	0.614421
N52	N	1.631421	0.495648	0.864421
C53	C	0.622852	-0.000089	0.174715
C54	C	0.872852	0.249911	0.424715
C55	C	1.122852	0.499911	0.674715
C56	C	1.372852	0.749911	0.924715
C57	C	0.543908	-0.000103	0.173453
C58	C	0.793908	0.249897	0.423453
C59	C	1.043908	0.499897	0.673453
C60	C	1.293908	0.749897	0.923453
C61	C	0.513587	-0.000116	0.103857
C62	C	0.763587	0.249884	0.353857
C63	C	1.013587	0.499884	0.603857
C64	C	1.263587	0.749884	0.853857
C65	C	0.562213	-0.000125	0.035519
C66	C	0.812213	0.249875	0.285519
C67	C	1.062213	0.499875	0.535519
C68	C	1.312213	0.749875	0.785519
C69	C	0.641155	-0.000119	0.036782
C70	C	0.891155	0.249881	0.286782
C71	C	1.141155	0.499881	0.536782
C72	C	1.391155	0.749881	0.786782
C73	C	0.243849	-0.000152	0.030425
C74	C	0.493849	0.249848	0.280425
C75	C	0.743849	0.499848	0.530425
C76	C	0.993849	0.749848	0.780425
C77	C	0.164901	-0.000155	0.029168
C78	C	0.414901	0.249845	0.279168
C79	C	0.664901	0.499845	0.529168
C80	C	0.914901	0.749845	0.779168
C81	C	0.146602	-0.000137	0.167097
C82	C	0.396602	0.249863	0.417097
C83	C	0.646602	0.499863	0.667097
C84	C	0.896602	0.749863	0.917097
C85	C	0.225544	-0.000130	0.168359
C86	C	0.475544	0.249870	0.418359
C87	C	0.725544	0.499870	0.668359
C88	C	0.975544	0.749870	0.918359
C89	C	0.274163	-0.000145	0.100022
C90	C	0.524163	0.249855	0.350022
C91	C	0.774163	0.499855	0.600022
C92	C	1.024163	0.749855	0.850022
C93	C	0.359763	-0.000132	0.101391
C94	C	0.609763	0.249868	0.351391
C95	C	0.859763	0.499868	0.601391
C96	C	1.109763	0.749868	0.851391
C97	C	0.427989	-0.000121	0.102487
C98	C	0.677989	0.249879	0.352487
C99	C	0.927989	0.499879	0.602487
C100	C	1.177989	0.749879	0.852487
C101	C	0.870717	-0.473465	0.125157
C102	C	1.120717	-0.223465	0.375157
C103	C	1.370717	0.026535	0.625157
C104	C	1.620717	0.276535	0.875157
C105	C	0.917037	-0.526803	0.078723
C106	C	1.167037	-0.276803	0.328723
C107	C	1.417037	-0.026803	0.578723
C108	C	1.667037	0.223197	0.828723
C109	C	0.911081	-0.648725	0.084697
C110	C	1.161081	-0.398725	0.334697
C111	C	1.411081	-0.148725	0.584697
C112	C	1.661081	0.101275	0.834697
C113	C	0.876672	-0.351532	0.119185
C114	C	1.126672	-0.101532	0.369185
C115	C	1.376672	0.148468	0.619185
C116	C	1.626672	0.398468	0.869185
C117	C	1.032260	-0.000151	0.096163
C118	C	1.282260	0.249849	0.346163
C119	C	1.532260	0.499849	0.596163
C120	C	1.782260	0.749849	0.846163
C121	C	1.116278	-0.000157	0.097502
C122	C	1.366278	0.249843	0.347502
C123	C	1.616278	0.499843	0.597502
C124	C	1.866278	0.749843	0.847502
C125	C	0.899655	-0.000141	-0.036444
C126	C	1.149655	0.249859	0.213556
C127	C	1.399655	0.499859	0.463556
C128	C	1.649655	0.749859	0.713556
C129	C	0.898316	-0.000142	-0.120462
C130	C	1.148316	0.249858	0.129538
C131	C	1.398316	0.499858	0.379538
C132	C	1.648316	0.749858	0.629538
N133	N	0.906335	0.254091	0.089457
N134	N	1.156335	0.504091	0.339457
N135	N	1.406335	0.754091	0.589457
N136	N	1.656335	1.004091	0.839457
C137	C	0.966649	-0.000154	-0.169082
C138	C	1.216649	0.249846	0.080918
C139	C	1.466649	0.499846	0.330918
C140	C	1.716649	0.749846	0.580918
C141	C	0.965387	-0.000144	-0.248026
C142	C	1.215387	0.249856	0.001974
C143	C	1.465387	0.499856	0.251974
C144	C	1.715387	0.749856	0.501974
C145	C	0.895791	-0.000130	-0.278347
C146	C	1.145791	0.249870	-0.028347
C147	C	1.395791	0.499870	0.221653
C148	C	1.645791	0.749870	0.471653
C149	C	0.827453	-0.000114	-0.229721
C150	C	1.077453	0.249886	0.020279
C151	C	1.327453	0.499886	0.270279
C152	C	1.577453	0.749886	0.520279
C153	C	0.828716	-0.000116	-0.150779
C154	C	1.078716	0.249884	0.099221
C155	C	1.328716	0.499884	0.349221
C156	C	1.578716	0.749884	0.599221
C157	C	0.822359	-0.000105	-0.548084
C158	C	1.072359	0.249895	-0.298084
C159	C	1.322359	0.499895	-0.048084
C160	C	1.572359	0.749895	0.201916
C161	C	0.821101	-0.000106	-0.627032
C162	C	1.071101	0.249894	-0.377032
C163	C	1.321101	0.499894	-0.127032
C164	C	1.571101	0.749894	0.122968
C165	C	0.959029	-0.000133	-0.645331
C166	C	1.209029	0.249867	-0.395331
C167	C	1.459029	0.499867	-0.145331
C168	C	1.709029	0.749867	0.104669
C169	C	0.960292	-0.000135	-0.566389
C170	C	1.210292	0.249865	-0.316389
C171	C	1.460292	0.499865	-0.066389
C172	C	1.710292	0.749865	0.183611
C173	C	0.891955	-0.000113	-0.517770
C174	C	1.141955	0.249887	-0.267770
C175	C	1.391955	0.499887	-0.017770
C176	C	1.641955	0.749887	0.232230
C177	C	0.893324	-0.000122	-0.432171
C178	C	1.143324	0.249878	-0.182171
C179	C	1.393324	0.499878	0.067829
C180	C	1.643324	0.749878	0.317829
C181	C	0.894421	-0.000129	-0.363945
C182	C	1.144421	0.249871	-0.113945
C183	C	1.394421	0.499871	0.136055
C184	C	1.644421	0.749871	0.386055
C185	C	0.888096	-0.000118	0.240328
C186	C	1.138096	0.249882	0.490328
C187	C	1.388096	0.499882	0.740328
C188	C	1.638096	0.749882	0.990328
C189	C	0.889435	-0.000111	0.324345
C190	C	1.139435	0.249889	0.574345
C191	C	1.389435	0.499889	0.824345
C192	C	1.639435	0.749889	1.074345
H193	H	0.647533	-0.000078	0.231388
H194	H	0.897533	0.249922	0.481388
H195	H	1.147533	0.499922	0.731388
H196	H	1.397533	0.749922	0.981388
H197	H	1.016964	-0.000152	-0.541706
H198	H	1.266964	0.249848	-0.291706
H199	H	1.516964	0.499848	-0.041706
H200	H	1.766964	0.749848	0.208294
F201	F	0.749628	-0.000079	-0.496350
F202	F	0.999628	0.249921	-0.246350
F203	F	1.249628	0.499921	0.003650
F204	F	1.499628	0.749921	0.253650
H205	H	0.773073	-0.000106	-0.111192
H206	H	1.023073	0.249894	0.138808
H207	H	1.273073	0.499894	0.388808
H208	H	1.523073	0.749894	0.638808
H209	H	1.014673	-0.000145	-0.684927
H210	H	1.264673	0.249855	-0.434927
H211	H	1.514673	0.499855	-0.184927
H212	H	1.764673	0.749855	0.065073
H213	H	0.770788	-0.000095	-0.254415
H214	H	1.020788	0.249905	-0.004415
H215	H	1.270788	0.499905	0.245585
H216	H	1.520788	0.749905	0.495585
F217	F	0.692901	-0.000129	-0.035947
F218	F	0.942901	0.249871	0.214053
F219	F	1.192901	0.499871	0.464053
F220	F	1.442901	0.749871	0.714053
H221	H	0.504324	-0.000097	0.229097
H222	H	0.754324	0.249903	0.479097
H223	H	1.004324	0.499903	0.729097
H224	H	1.254324	0.749903	0.979097
F225	F	0.747024	-0.000089	-0.659300
F226	F	0.997024	0.249911	-0.409300
F227	F	1.247024	0.499911	-0.159300
F228	F	1.497024	0.749911	0.090700
H229	H	0.250227	-0.000115	0.225031
H230	H	0.500227	0.249885	0.475031
H231	H	0.750227	0.499885	0.725031
H232	H	1.000227	0.749885	0.975031
F233	F	0.132633	-0.000169	-0.044909
F234	F	0.382633	0.249831	0.205091
F235	F	0.632633	0.499831	0.455091
F236	F	0.882633	0.749831	0.705091
H237	H	0.107005	-0.000130	0.222741
H238	H	0.357005	0.249870	0.472741
H239	H	0.607005	0.499870	0.722741
H240	H	0.857005	0.749870	0.972741
F241	F	0.813041	-0.533457	0.182980
F242	F	1.063041	-0.283457	0.432980
F243	F	1.313041	-0.033457	0.682980
F244	F	1.563041	0.216543	0.932980
F245	F	1.040723	-0.000180	-0.136819
F246	F	1.290723	0.249820	0.113181
F247	F	1.540723	0.499820	0.363181
F248	F	1.790723	0.749820	0.613181
F249	F	0.974944	-0.466810	0.021125
F250	F	1.224944	-0.216810	0.271125
F251	F	1.474944	0.033190	0.521125
F252	F	1.724944	0.283190	0.771125
F253	F	0.295584	-0.000168	-0.042306
F254	F	0.545584	0.249832	0.207694
F255	F	0.795584	0.499832	0.457694
F256	F	1.045584	0.749832	0.707694
F257	F	1.038116	-0.000160	-0.299768
F258	F	1.288116	0.249840	-0.049768
F259	F	1.538116	0.499840	0.200232
F260	F	1.788116	0.749840	0.450232
H261	H	0.537519	-0.000151	-0.021146
H262	H	0.787519	0.249849	0.228854
H263	H	1.037519	0.499849	0.478854
H264	H	1.287519	0.749849	0.728854
