data_functionalizedCrystal
_audit_creation_method	'MofGen! by Chris Wilmer'
_symmetry_space_group_name_H-M	'P1'
_symmetry_Int_Tables_number	1
_symmetry_cell_setting	triclinic
loop_
_symmetry_equiv_pos_as_xyz
  x,y,z
_cell_length_a	6.817900
_cell_length_b	15.866870
_cell_length_c	10.943624
_cell_angle_alpha	110.425160
_cell_angle_beta	108.838799
_cell_angle_gamma	102.655915
loop_
_atom_site_label
_atom_site_type_symbol
_atom_site_fract_x
_atom_site_fract_y
_atom_site_fract_z
V1	V	-4.123267	-0.132606	-0.465660
O2	O	-4.072829	0.006398	-0.391843
O3	O	-4.108858	-0.262961	-0.524945
O4	O	-4.101110	-0.130555	-0.640251
O5	O	-4.080631	-0.126924	-0.275739
V6	V	-4.599090	-0.115981	-0.435356
O7	O	-4.401416	-0.169075	-0.532137
O8	O	-4.771139	-0.079512	-0.368879
O9	O	-4.390293	0.014373	-0.376071
O10	O	-4.766925	-0.254985	-0.509173
O11	O	-4.759124	-0.121663	-0.625277
O12	O	-4.398041	-0.118032	-0.260765
C13	C	-3.961278	-0.294739	-0.533718
C14	C	-4.030959	-0.401305	-0.583354
C15	C	-3.950655	-0.683418	-0.122938
C16	C	-4.016146	-0.783558	-0.169621
C17	C	-4.139936	-0.810895	-0.419093
C18	C	-4.074444	-0.710755	-0.372429
C19	C	-3.979808	-0.647024	-0.224350
C20	C	-4.103597	-0.674361	-0.473842
C21	C	-4.038121	-0.574230	-0.427182
C22	C	-3.943492	-0.510493	-0.279110
C23	C	-3.914333	-0.546893	-0.177691
C24	C	-4.198248	-0.738094	-0.621921
C25	C	-4.227401	-0.701700	-0.723333
C26	C	-4.161910	-0.601567	-0.676673
C27	C	-4.067281	-0.537830	-0.528601
C28	C	-4.191070	-0.565167	-0.778093
C29	C	-4.125594	-0.465036	-0.731433
C30	C	-4.001805	-0.437699	-0.481941
C31	C	-3.951393	-0.125841	-0.680800
C32	C	-4.014785	-0.125027	-0.823939
C33	C	-3.859294	-0.119542	-0.898476
C34	C	-4.053424	-0.200952	-1.043210
C35	C	-3.933636	-0.042175	-0.934259
C36	C	-4.208130	-0.206513	-0.966833
C37	C	-4.088258	-0.047664	-0.857824
C38	C	-4.282526	-0.129097	-1.002539
C39	C	-4.201216	0.046146	-0.367297
C40	C	-4.110775	0.152712	-0.317670
C41	C	-4.211100	-0.122749	-0.220211
C42	C	-4.126945	-0.123559	-0.077068
H43	H	-3.992393	-0.813184	-0.087027
H44	H	-3.837238	-0.494998	-0.057108
H45	H	-4.462079	-0.133156	-1.047716
H46	H	-4.304468	-0.753604	-0.843900
H47	H	-4.251560	-0.819627	-0.659906
C48	C	-4.243848	-0.346602	-1.269205
C49	C	-4.034453	-0.288432	-1.150940
H50	H	-4.232122	-0.400608	-1.335701
H51	H	-4.293684	-0.309768	-1.315950
H52	H	-4.347739	-0.368894	-1.236167
H53	H	-3.930566	-0.266134	-1.183977
H54	H	-3.984588	-0.325272	-1.104188
H55	H	-4.217003	-0.862798	-0.539660
H56	H	-3.679863	-0.115611	-0.853157
C57	C	-4.254504	-0.502107	-0.982727
C58	C	-4.157626	-0.425024	-0.842903
H59	H	-4.274273	-0.477403	-1.051542
H60	H	-4.395422	-0.543717	-1.001352
H61	H	-4.159493	-0.537469	-0.990119
H62	H	-4.252646	-0.389666	-0.835507
H63	H	-4.016687	-0.383399	-0.824273
C64	C	-4.302712	-0.300334	-0.848684
C65	C	-4.363990	-0.300383	-0.983786
H66	H	-4.398919	-0.358288	-0.859153
H67	H	-4.314857	-0.245961	-0.783266
H68	H	-4.152808	-0.296734	-0.812019
H69	H	-4.513890	-0.303975	-1.020445
H70	H	-4.351867	-0.354770	-1.049226
C71	C	-4.346424	-0.730802	-0.960395
C72	C	-4.295101	-0.635228	-0.940857
H73	H	-4.410636	-0.774051	-1.060880
H74	H	-4.449677	-0.744709	-0.922400
H75	H	-4.213750	-0.738465	-0.911171
H76	H	-4.427778	-0.627564	-0.990072
H77	H	-4.191842	-0.621316	-0.978869
H78	H	-4.102238	0.017144	-0.777997
C79	C	-3.557143	0.056414	-0.864837
C80	C	-3.777821	0.051595	-0.917591
H81	H	-3.460944	0.114304	-0.854538
H82	H	-3.546191	0.001952	-0.930909
H83	H	-3.514625	0.056270	-0.773274
H84	H	-3.820346	0.051732	-1.009159
H85	H	-3.788782	0.106071	-0.851517
H86	H	-3.924711	-0.385804	-0.361359
C87	C	-3.782305	-0.352176	-0.076425
C88	C	-3.871517	-0.400426	-0.227810
H89	H	-3.737885	-0.284226	-0.044759
H90	H	-3.656309	-0.366656	-0.035314
H91	H	-3.892239	-0.372914	-0.046537
H92	H	-3.761578	-0.379693	-0.257697
H93	H	-3.997528	-0.385938	-0.268936
C94	C	-3.834894	-0.666441	0.119004
C95	C	-3.846655	-0.613355	0.039834
H96	H	-3.770716	-0.623187	0.219485
H97	H	-3.745024	-0.702928	0.101249
H98	H	-3.980979	-0.709201	0.089983
H99	H	-3.700568	-0.570601	0.068847
H100	H	-3.936526	-0.576852	0.057599
