data_functionalizedCrystal
_audit_creation_method	'MofGen! by Chris Wilmer'
_symmetry_space_group_name_H-M	'P1'
_symmetry_Int_Tables_number	1
_symmetry_cell_setting	triclinic
loop_
_symmetry_equiv_pos_as_xyz
  x,y,z
_cell_length_a	15.944545
_cell_length_b	15.944493
_cell_length_c	13.596369
_cell_angle_alpha	89.999885
_cell_angle_beta	89.997458
_cell_angle_gamma	83.485608
loop_
_atom_site_label
_atom_site_type_symbol
_atom_site_fract_x
_atom_site_fract_y
_atom_site_fract_z
O1	O	1.114506	0.108311	-0.081715
O2	O	1.614506	0.608311	0.418285
O3	O	0.869953	0.121673	-0.081729
O4	O	1.369953	0.621673	0.418271
O5	O	0.998933	-0.007286	-0.081730
O6	O	1.498933	0.492714	0.418270
O7	O	0.985526	0.237271	-0.081714
O8	O	1.485526	0.737271	0.418286
O9	O	0.998920	-0.007293	0.081853
O10	O	1.498920	0.492707	0.581853
O11	O	0.869940	0.121667	0.081854
O12	O	1.369940	0.621667	0.581854
O13	O	1.114493	0.108304	0.081868
O14	O	1.614493	0.608304	0.581868
Zn15	Zn	0.992214	0.114984	0.107833
Zn16	Zn	1.492214	0.614984	0.607833
Zn17	Zn	0.992231	0.114993	-0.107694
Zn18	Zn	1.492231	0.614993	0.392306
O19	O	0.985513	0.237264	0.081869
O20	O	1.485513	0.737264	0.581869
C21	C	0.838652	0.121116	0.000060
C22	C	1.338652	0.621116	0.500060
C23	C	0.745406	0.119456	0.000054
C24	C	1.245406	0.619456	0.500054
C25	C	0.474791	0.034560	0.000059
C26	C	0.974791	0.534560	0.500059
C27	C	0.525358	0.075487	0.080719
C28	C	1.025358	0.575487	0.580719
C29	C	0.409764	0.113535	0.000071
C30	C	0.909764	0.613535	0.500071
C31	C	0.525351	0.075515	-0.080561
C32	C	1.025351	0.575515	0.419439
C33	C	0.574677	0.116440	0.000061
C34	C	1.074677	0.616440	0.500061
C35	C	0.459102	0.154441	0.080797
C36	C	0.959102	0.654441	0.580797
C37	C	0.459092	0.154457	-0.080555
C38	C	0.959092	0.654457	0.419445
C39	C	0.509626	0.195442	0.000124
C40	C	1.009626	0.695442	0.500124
C41	C	0.314762	0.111859	0.000077
C42	C	0.814762	0.611859	0.500077
C43	C	0.669676	0.118122	0.000062
C44	C	1.169676	0.618122	0.500062
C45	C	0.998378	-0.038584	0.000058
C46	C	1.498378	0.461416	0.500058
C47	C	0.996735	-0.131833	0.000045
C48	C	1.496735	0.368167	0.500045
C49	C	1.072656	-0.367594	0.000068
C50	C	1.572656	0.132406	0.500068
C51	C	1.031721	-0.418158	-0.080589
C52	C	1.531721	0.081842	0.419411
C53	C	0.993691	-0.302554	0.000057
C54	C	1.493691	0.197446	0.500057
C55	C	1.031690	-0.418141	0.080691
C56	C	1.531690	0.081859	0.580691
C57	C	0.990757	-0.467463	0.000073
C58	C	1.490757	0.032537	0.500073
C59	C	0.952778	-0.351889	-0.080667
C60	C	1.452778	0.148111	0.419333
C61	C	0.952758	-0.351869	0.080686
C62	C	1.452758	0.148131	0.580686
C63	C	0.911766	-0.402400	0.000009
C64	C	1.411766	0.097600	0.500009
C65	C	0.995384	-0.207554	0.000047
C66	C	1.495384	0.292446	0.500047
C67	C	0.989058	-0.562460	0.000075
C68	C	1.489058	-0.062460	0.500075
C69	C	1.145793	0.108862	0.000077
C70	C	1.645793	0.608862	0.500077
C71	C	1.239039	0.110522	0.000076
C72	C	1.739039	0.610522	0.500076
C73	C	0.986067	0.268562	0.000079
C74	C	1.486067	0.768562	0.500079
C75	C	0.987710	0.361811	0.000086
C76	C	1.487710	0.861811	0.500086
N77	N	0.992209	0.114978	0.254925
N78	N	1.492209	0.614978	0.754925
N79	N	0.992243	0.114993	-0.254786
N80	N	1.492243	0.614993	0.245214
C81	C	0.992230	0.114994	0.656216
C82	C	1.492230	0.614994	1.156216
C83	C	0.992222	0.114993	0.544565
C84	C	1.492222	0.614993	1.044565
C85	C	0.992220	0.114987	0.455574
C86	C	1.492220	0.614987	0.955574
C87	C	0.992211	0.114984	0.343916
C88	C	1.492211	0.614984	0.843916
H89	H	0.430144	0.187784	-0.148745
H90	H	0.930144	0.687784	0.351255
H91	H	0.843695	-0.417864	-0.000039
H92	H	1.343695	0.082136	0.499961
N93	N	0.420933	0.198572	0.171231
N94	N	0.920933	0.698572	0.671231
H95	H	0.467051	0.219696	0.212162
H96	H	0.967051	0.719696	0.712162
H97	H	0.379159	0.247845	0.150706
H98	H	0.879159	0.747845	0.650706
N99	N	0.530121	0.285605	0.000174
N100	N	1.030121	0.785605	0.500174
H101	H	0.505775	0.315322	0.061120
H102	H	1.005775	0.815322	0.561120
H103	H	0.593394	0.286174	-0.000444
H104	H	1.093394	0.786174	0.499556
H105	H	1.065075	-0.447102	-0.148775
H106	H	1.565075	0.052898	0.351225
H107	H	0.554281	0.042151	-0.148748
H108	H	1.054281	0.542151	0.351252
H109	H	1.065049	-0.447076	0.148876
H110	H	1.565049	0.052924	0.648876
H111	H	0.554290	0.042130	0.148906
H112	H	1.054290	0.542130	0.648906
N113	N	1.162752	-0.346893	-0.000021
N114	N	1.662752	0.153107	0.499979
H115	H	1.192487	-0.371142	-0.061003
H116	H	1.692487	0.128858	0.438997
H117	H	1.163178	-0.283603	0.000640
H118	H	1.663178	0.216397	0.500640
H119	H	0.919454	-0.323066	-0.148928
H120	H	1.419454	0.176934	0.351072
H121	H	0.919434	-0.322910	0.148874
H122	H	1.419434	0.177090	0.648874
H123	H	0.459152	-0.033454	0.000133
H124	H	0.959152	0.466546	0.500133
