data_functionalizedCrystal
_audit_creation_method	'MofGen! by Chris Wilmer'
_symmetry_space_group_name_H-M	'P1'
_symmetry_Int_Tables_number	1
_symmetry_cell_setting	triclinic
loop_
_symmetry_equiv_pos_as_xyz
  x,y,z
_cell_length_a	12.759401
_cell_length_b	18.215405
_cell_length_c	18.215399
_cell_angle_alpha	89.969449
_cell_angle_beta	89.982118
_cell_angle_gamma	90.026410
loop_
_atom_site_label
_atom_site_type_symbol
_atom_site_fract_x
_atom_site_fract_y
_atom_site_fract_z
Zn1	Zn	1.606160	-0.292962	-0.416064
Zn2	Zn	1.606030	-0.416033	-0.292992
Zn3	Zn	1.430468	-0.292988	-0.293016
Zn4	Zn	1.430420	-0.415995	-0.416021
O5	O	1.518269	-0.354494	-0.354524
O6	O	1.753164	-0.309293	-0.399747
O7	O	1.582707	-0.399738	-0.190011
O8	O	1.453849	-0.190001	-0.309366
O9	O	1.753068	-0.399713	-0.309326
O10	O	1.582930	-0.189981	-0.399769
O11	O	1.453723	-0.309338	-0.190028
O12	O	1.283441	-0.309300	-0.309325
O13	O	1.453766	-0.399647	-0.519011
O14	O	1.283405	-0.399672	-0.399696
O15	O	1.582882	-0.309255	-0.519043
O16	O	1.582659	-0.519012	-0.309285
O17	O	1.453640	-0.518984	-0.399674
C18	C	1.245302	-0.354485	-0.354509
C19	C	1.128525	-0.354499	-0.354520
C20	C	1.073672	-0.401628	-0.401503
C21	C	0.963948	-0.401631	-0.401517
C22	C	0.963940	-0.307375	-0.307560
C23	C	1.073662	-0.307369	-0.307550
C24	C	1.518159	-0.545701	-0.354488
C25	C	1.518207	-0.627500	-0.354498
C26	C	1.585546	-0.815684	-0.307519
C27	C	1.585593	-0.892543	-0.307536
C28	C	1.451128	-0.892553	-0.401581
C29	C	1.451087	-0.815696	-0.401567
C30	C	1.518294	-0.777263	-0.354531
C31	C	1.518382	-0.930979	-0.354564
C32	C	1.518433	-1.014313	-0.354583
C33	C	1.518245	-0.693924	-0.354512
C34	C	1.792303	-0.354504	-0.354539
C35	C	1.909079	-0.354508	-0.354545
C36	C	1.518333	-0.354444	-0.546477
C37	C	1.518361	-0.354422	-0.628275
C38	C	1.518409	-0.162542	-0.354575
C39	C	1.518469	-0.080743	-0.354597
C40	C	1.585616	-0.307311	-0.816487
C41	C	1.585628	-0.307290	-0.893346
C42	C	1.451180	-0.401419	-0.893302
C43	C	1.451163	-0.401436	-0.816444
C44	C	1.518387	-0.354383	-0.778039
C45	C	1.518416	-0.354345	-0.931755
C46	C	1.518430	-0.354322	-1.015089
C47	C	1.518373	-0.354405	-0.694700
C48	C	1.518266	-0.354492	-0.163317
C49	C	1.518442	-0.354306	-0.081519
H50	H	0.919257	-0.269004	-0.269318
H51	H	1.396410	-0.439768	-0.785139
O52	O	1.127116	-0.261610	-0.261976
C53	C	1.296150	-0.219864	-0.220293
C54	C	1.235745	-0.271709	-0.271949
H55	H	1.383987	-0.228021	-0.228328
H56	H	1.274698	-0.160524	-0.233329
H57	H	1.274472	-0.232702	-0.160938
H58	H	1.257390	-0.258937	-0.331322
H59	H	1.257202	-0.331033	-0.258851
H60	H	1.640271	-0.784394	-0.269221
H61	H	1.396409	-0.923854	-0.439875
H62	H	1.640351	-0.268996	-0.785220
H63	H	1.118339	-0.440003	-0.439750
O64	O	1.385656	-0.778483	-0.447261
C65	C	1.252336	-0.786597	-0.540575
C66	C	1.326356	-0.828832	-0.488853
H67	H	1.204389	-0.827286	-0.574227
H68	H	1.197343	-0.750689	-0.506781
H69	H	1.300541	-0.750540	-0.579047
H70	H	1.278236	-0.864929	-0.450371
H71	H	1.381353	-0.864693	-0.522693
H72	H	1.640357	-0.923821	-0.269255
O73	O	1.651036	-0.261542	-0.930580
C74	C	1.784347	-0.168152	-0.922508
C75	C	1.710342	-0.219939	-0.880249
H76	H	1.832299	-0.134492	-0.881834
H77	H	1.839335	-0.201896	-0.958468
H78	H	1.736129	-0.129691	-0.958515
H79	H	1.758475	-0.258410	-0.844203
H80	H	1.655351	-0.186149	-0.844335
O81	O	1.386039	-0.447206	-0.930644
C82	C	1.371858	-0.546517	-1.017420
C83	C	1.445748	-0.494718	-0.975164
H84	H	1.420102	-0.584933	-1.053436
H85	H	1.323820	-0.580217	-0.976769
H86	H	1.316934	-0.512705	-1.053375
H87	H	1.500736	-0.528473	-0.939208
H88	H	1.493713	-0.461016	-1.015854
O89	O	0.910827	-0.447482	-0.447178
C90	C	0.922422	-0.540941	-0.540398
C91	C	0.982711	-0.489063	-0.488709
H92	H	0.980513	-0.574562	-0.574001
H93	H	0.871035	-0.579428	-0.506581
H94	H	0.871071	-0.507195	-0.578917
H95	H	1.034119	-0.522750	-0.450180
H96	H	1.034031	-0.450574	-0.522572
