data_functionalizedCrystal
_audit_creation_method	'MofGen! by Chris Wilmer'
_symmetry_space_group_name_H-M	'P1'
_symmetry_Int_Tables_number	1
_symmetry_cell_setting	triclinic
loop_
_symmetry_equiv_pos_as_xyz
  x,y,z
_cell_length_a	19.288859
_cell_length_b	13.262508
_cell_length_c	17.766277
_cell_angle_alpha	105.911986
_cell_angle_beta	89.989768
_cell_angle_gamma	83.810045
loop_
_atom_site_label
_atom_site_type_symbol
_atom_site_fract_x
_atom_site_fract_y
_atom_site_fract_z
O1	O	0.922002	0.130898	-0.035809
O2	O	1.422002	0.630898	0.464191
O3	O	0.719828	0.148567	-0.032190
O4	O	1.219828	0.648567	0.467810
O5	O	0.826005	-0.013079	-0.065281
O6	O	1.326005	0.486921	0.434719
O7	O	0.815824	0.292544	-0.002718
O8	O	1.315824	0.792544	0.497282
O9	O	0.825986	-0.013087	0.059906
O10	O	1.325986	0.486913	0.559906
O11	O	0.719809	0.148559	0.092997
O12	O	1.219809	0.648559	0.592997
O13	O	0.921983	0.130890	0.089378
O14	O	1.421983	0.630890	0.589378
Cu15	Cu	0.820894	0.139724	0.102618
Cu16	Cu	1.320894	0.639724	0.602618
Cu17	Cu	0.820916	0.139733	-0.045430
Cu18	Cu	1.320916	0.639733	0.454570
O19	O	0.815805	0.292536	0.122469
O20	O	1.315805	0.792536	0.622469
C21	C	0.693939	0.147995	0.030288
C22	C	1.193939	0.647995	0.530288
C23	C	0.616827	0.146292	0.029940
C24	C	1.116827	0.646292	0.529940
C25	C	0.053197	0.229615	0.046996
C26	C	0.553197	0.729615	0.546996
C27	C	0.125651	0.231225	0.047321
C28	C	0.625651	0.731225	0.547321
C29	C	0.169890	0.136379	0.027907
C30	C	0.669890	0.636379	0.527907
C31	C	0.141669	0.039915	0.008146
C32	C	0.641669	0.539915	0.508146
C33	C	0.069216	0.038308	0.007814
C34	C	0.569216	0.538308	0.507814
C35	C	0.290805	0.065640	0.057288
C36	C	0.790805	0.565640	0.557288
C37	C	0.363257	0.067251	0.057626
C38	C	0.863257	0.567251	0.557626
C39	C	0.393361	0.141331	0.028928
C40	C	0.893361	0.641331	0.528928
C41	C	0.351003	0.213818	-0.000094
C42	C	0.851003	0.713818	0.499906
C43	C	0.278549	0.212211	-0.000427
C44	C	0.778549	0.712211	0.499573
C45	C	0.248455	0.138110	0.028265
C46	C	0.748455	0.638110	0.528265
C47	C	0.500137	0.239534	0.049035
C48	C	1.000137	0.739534	0.549035
C49	C	0.572593	0.241139	0.049356
C50	C	1.072593	0.741139	0.549356
C51	C	0.588609	0.049827	0.010188
C52	C	1.088609	0.549827	0.510188
C53	C	0.516154	0.048224	0.009860
C54	C	1.016154	0.548224	0.509860
C55	C	0.471922	0.143080	0.029289
C56	C	0.971922	0.643080	0.529289
C57	C	0.825427	-0.052183	-0.010693
C58	C	1.325427	0.447817	0.489307
C59	C	0.823723	-0.168689	-0.034548
C60	C	1.323723	0.331311	0.465452
C61	C	0.818875	-0.497130	0.171177
C62	C	1.318875	0.002870	0.671177
C63	C	0.820471	-0.387666	0.193590
C64	C	1.320471	0.112334	0.693590
C65	C	0.821284	-0.332917	0.136558
C66	C	1.321284	0.167083	0.636558
C67	C	0.820501	-0.387642	0.057108
C68	C	1.320501	0.112358	0.557108
C69	C	0.818900	-0.497115	0.034693
C70	C	1.318900	0.002885	0.534693
C71	C	0.821309	-0.332902	0.000073
C72	C	1.321309	0.167098	0.500073
C73	C	0.820526	-0.387627	-0.079376
C74	C	1.320526	0.112373	0.420624
C75	C	0.818926	-0.497090	-0.101788
C76	C	1.318926	0.002910	0.398212
C77	C	0.818113	-0.551839	-0.044755
C78	C	1.318113	-0.051839	0.455245
C79	C	0.822910	-0.223428	0.022489
C80	C	1.322910	0.276572	0.522489
C81	C	0.822935	-0.223413	-0.113995
C82	C	1.322935	0.276587	0.386005
C83	C	0.821340	-0.332877	-0.136409
C84	C	1.321340	0.167123	0.363591
C85	C	0.947872	0.131461	0.026899
C86	C	1.447872	0.631461	0.526899
C87	C	1.024984	0.133165	0.027242
C88	C	1.524984	0.633165	0.527242
C89	C	0.816384	0.331640	0.067880
C90	C	1.316384	0.831640	0.567880
C91	C	0.818088	0.448146	0.091729
C92	C	1.318088	0.948146	0.591729
N93	N	0.820884	0.139716	0.206747
N94	N	1.320884	0.639716	0.706747
N95	N	0.820932	0.139732	-0.149560
N96	N	1.320932	0.639732	0.350440
C97	C	0.867914	0.068174	0.231488
C98	C	1.367914	0.568174	0.731488
C99	C	0.867918	0.068169	0.310289
C100	C	1.367918	0.568169	0.810289
C101	C	0.820898	0.139724	0.364349
C102	C	1.320898	0.639724	0.864349
C103	C	0.773859	0.211272	0.339599
C104	C	1.273859	0.711272	0.839599
C105	C	0.773851	0.211267	0.260798
C106	C	1.273851	0.711267	0.760798
C107	C	0.812071	0.235354	0.508763
C108	C	1.312071	0.735354	1.008763
C109	C	0.812083	0.235360	0.587563
C110	C	1.312083	0.735360	1.087563
C111	C	0.820917	0.139737	0.607398
C112	C	1.320917	0.639737	1.107398
C113	C	0.829753	0.044104	0.548422
C114	C	1.329753	0.544104	1.048422
C115	C	0.829745	0.044100	0.469621
C116	C	1.329745	0.544100	0.969621
C117	C	0.820901	0.139736	0.449797
C118	C	1.320901	0.639736	0.949797
C119	C	0.867955	0.068184	0.717583
C120	C	1.367955	0.568184	1.217583
C121	C	0.867954	0.068178	0.796385
C122	C	1.367954	0.568178	1.296385
C123	C	0.773897	0.211289	0.825696
C124	C	1.273897	0.711289	1.325696
C125	C	0.773895	0.211286	0.746893
C126	C	1.273895	0.711286	1.246893
C127	C	0.820927	0.139735	0.692842
C128	C	1.320927	0.639735	1.192842
H129	H	0.148627	0.309769	0.063415
H130	H	0.648627	0.809769	0.563415
Cl131	Cl	0.840845	-0.076117	0.395484
Cl132	Cl	1.340845	0.423883	0.895484
H133	H	0.735552	0.269526	0.240655
H134	H	1.235552	0.769526	0.740655
Cl135	Cl	0.823895	-0.154644	0.122365
Cl136	Cl	1.323895	0.345356	0.622365
H137	H	0.046246	-0.040235	-0.008273
H138	H	0.546246	0.459765	0.491727
Cl139	Cl	0.927036	-0.021779	0.163538
Cl140	Cl	1.427036	0.478221	0.663538
H141	H	0.804893	0.313229	0.635576
H142	H	1.304893	0.813229	1.135576
H143	H	0.017187	0.306855	0.062812
H144	H	0.517187	0.806855	0.562812
H145	H	0.244064	0.271231	-0.024059
H146	H	0.744064	0.771231	0.475941
Cl147	Cl	0.817839	-0.565960	0.242865
Cl148	Cl	1.317839	-0.065960	0.742865
Cl149	Cl	0.927079	-0.021774	0.827489
Cl150	Cl	1.427079	0.478226	1.327489
Cl151	Cl	0.714781	0.301236	0.893650
Cl152	Cl	1.214781	0.801236	1.393650
Cl153	Cl	0.840864	-0.076116	0.573346
Cl154	Cl	1.340864	0.423884	1.073346
H155	H	0.906249	0.009919	0.673571
H156	H	1.406249	0.509919	1.173571
H157	H	0.624628	-0.027399	-0.005626
H158	H	1.124628	0.472601	0.494374
Cl159	Cl	0.714771	0.301234	0.715787
Cl160	Cl	1.214771	0.801234	1.215787
H161	H	0.822582	-0.243786	0.154812
H162	H	1.322582	0.256214	0.654812
H163	H	0.735573	0.269531	0.383619
H164	H	1.235573	0.769531	0.883619
H165	H	0.906218	0.009909	0.330437
H166	H	1.406218	0.509909	0.830437
H167	H	0.816817	-0.640975	-0.063000
H168	H	1.316817	-0.140975	0.437000
H169	H	0.804866	0.313227	0.492624
H170	H	1.304866	0.813227	0.992624
Cl171	Cl	0.821443	-0.318874	0.293465
Cl172	Cl	1.321443	0.181126	0.793465
H173	H	0.266301	0.005309	0.080657
H174	H	0.766301	0.505309	0.580657
Cl175	Cl	0.444527	0.358779	0.073456
Cl176	Cl	0.944527	0.858779	0.573456
Cl177	Cl	0.388838	0.306964	-0.036163
Cl178	Cl	0.888838	0.806964	0.463837
H179	H	0.493184	-0.030316	-0.006221
H180	H	0.993184	0.469684	0.493779
Cl181	Cl	0.608061	0.362403	0.074183
Cl182	Cl	1.108061	0.862403	0.574183
H183	H	0.397739	0.008233	0.081263
H184	H	0.897739	0.508233	0.581263
H185	H	0.177693	-0.037309	-0.007663
H186	H	0.677693	0.462691	0.492337
Cl187	Cl	0.817932	-0.565883	-0.201667
Cl188	Cl	1.317932	-0.065883	0.298333
Cl189	Cl	0.823943	-0.154590	-0.185698
Cl190	Cl	1.323943	0.345410	0.314302
Cl191	Cl	0.820357	-0.401687	-0.236285
Cl192	Cl	1.320357	0.098313	0.263715
