data_functionalizedCrystal
_audit_creation_method	'MofGen! by Chris Wilmer'
_symmetry_space_group_name_H-M	'P1'
_symmetry_Int_Tables_number	1
_symmetry_cell_setting	triclinic
loop_
_symmetry_equiv_pos_as_xyz
  x,y,z
_cell_length_a	27.731993
_cell_length_b	19.288865
_cell_length_c	17.766277
_cell_angle_alpha	90.011603
_cell_angle_beta	90.002172
_cell_angle_gamma	97.121679
loop_
_atom_site_label
_atom_site_type_symbol
_atom_site_fract_x
_atom_site_fract_y
_atom_site_fract_z
O1	O	0.641197	-0.082469	-0.062400
O2	O	1.141197	0.417531	0.437600
O3	O	0.500438	-0.095075	-0.062447
O4	O	1.000438	0.404925	0.437553
O5	O	0.574885	0.012385	-0.062407
O6	O	1.074885	0.512385	0.437593
O7	O	0.566750	-0.189929	-0.062440
O8	O	1.066750	0.310071	0.437560
O9	O	0.574872	0.012390	0.062781
O10	O	1.074872	0.512390	0.562781
O11	O	0.500425	-0.095070	0.062741
O12	O	1.000425	0.404930	0.562741
O13	O	0.641184	-0.082464	0.062788
O14	O	1.141184	0.417536	0.562788
Cu15	Cu	0.570803	-0.088766	0.074196
Cu16	Cu	1.070803	0.411234	0.574196
Cu17	Cu	0.570819	-0.088772	-0.073854
Cu18	Cu	1.070819	0.411228	0.426146
O19	O	0.566737	-0.189924	0.062749
O20	O	1.066737	0.310076	0.562749
C21	C	0.482423	-0.094814	0.000141
C22	C	0.982423	0.405186	0.500141
C23	C	0.428764	-0.094035	0.000124
C24	C	0.928764	0.405965	0.500124
C25	C	0.045594	-0.088389	-0.068079
C26	C	0.545594	0.411611	0.431921
C27	C	0.247261	-0.091360	-0.068100
C28	C	0.747261	0.408640	0.431900
O29	O	0.273341	-0.091718	-0.126137
O30	O	0.773341	0.408282	0.373863
N31	N	0.272475	-0.091728	0.000139
N32	N	0.772475	0.408272	0.500139
C33	C	0.247270	-0.091350	0.068388
C34	C	0.747270	0.408650	0.568388
O35	O	0.273344	-0.091724	0.126428
O36	O	0.773344	0.408276	0.626428
C37	C	0.045605	-0.088375	0.068408
C38	C	0.545605	0.411625	0.568408
C39	C	0.020393	-0.088013	0.000164
C40	C	0.520393	0.411987	0.500164
C41	C	0.020382	-0.088027	-0.136317
C42	C	0.520382	0.411973	0.363683
C43	C	-0.030032	-0.087288	-0.136311
C44	C	0.469968	0.412712	0.363689
C45	C	-0.055234	-0.086912	-0.068067
C46	C	0.444766	0.413088	0.431933
C47	C	-0.030021	-0.087274	0.000170
C48	C	0.469979	0.412726	0.500170
C49	C	0.020401	-0.087991	0.136656
C50	C	0.520401	0.412009	0.636656
C51	C	-0.030018	-0.087246	0.136655
C52	C	0.469982	0.412754	0.636655
C53	C	-0.055230	-0.086884	0.068411
C54	C	0.444770	0.413116	0.568411
C55	C	-0.105637	-0.086159	0.068420
C56	C	0.394363	0.413841	0.568420
N57	N	-0.130851	-0.085791	0.000181
N58	N	0.369149	0.414209	0.500181
C59	C	-0.105650	-0.086167	-0.068062
C60	C	0.394350	0.413833	0.431938
C61	C	0.353147	-0.092913	0.068372
C62	C	0.853147	0.407087	0.568372
C63	C	0.403563	-0.093658	0.068367
C64	C	0.903563	0.406342	0.568367
C65	C	0.403550	-0.093667	-0.068120
C66	C	0.903550	0.406333	0.431880
C67	C	0.353133	-0.092927	-0.068115
C68	C	0.853133	0.407073	0.431885
C69	C	0.327933	-0.092545	0.000133
C70	C	0.827933	0.407455	0.500133
C71	C	-0.211522	-0.084616	-0.068045
C72	C	0.288478	0.415384	0.431955
C73	C	-0.261941	-0.083880	-0.068033
C74	C	0.238059	0.416120	0.431967
C75	C	-0.261924	-0.083868	0.068454
C76	C	0.238076	0.416132	0.568454
C77	C	-0.211510	-0.084608	0.068443
C78	C	0.288490	0.415392	0.568443
C79	C	-0.186310	-0.084979	0.000187
C80	C	0.313690	0.415021	0.500187
O81	O	-0.131747	-0.085793	0.126427
O82	O	0.368253	0.414207	0.626427
O83	O	-0.131731	-0.085777	-0.126094
O84	O	0.368269	0.414223	0.373906
C85	C	0.096008	-0.089128	-0.068085
C86	C	0.596008	0.410872	0.431915
C87	C	0.121220	-0.089490	0.000153
C88	C	0.621220	0.410510	0.500153
C89	C	0.096019	-0.089114	0.068396
C90	C	0.596019	0.410886	0.568396
C91	C	0.171636	-0.090236	0.000148
C92	C	0.671636	0.409764	0.500148
C93	C	0.196838	-0.090612	-0.068096
C94	C	0.696838	0.409388	0.431904
C95	C	0.171624	-0.090243	-0.136334
C96	C	0.671624	0.409757	0.363666
C97	C	0.121210	-0.089504	-0.136328
C98	C	0.621210	0.410496	0.363672
C99	C	0.121233	-0.089483	0.136635
C100	C	0.621233	0.410517	0.636635
C101	C	0.171647	-0.090222	0.136623
C102	C	0.671647	0.409778	0.636623
C103	C	0.196849	-0.090599	0.068380
C104	C	0.696849	0.409401	0.568380
C105	C	0.574616	0.038262	0.000189
C106	C	1.074616	0.538262	0.500189
C107	C	0.573831	0.115361	0.000195
C108	C	1.073831	0.615361	0.500195
C109	C	0.659199	-0.082725	0.000198
C110	C	1.159199	0.417275	0.500198
C111	C	0.712857	-0.083504	0.000211
C112	C	1.212857	0.416496	0.500211
C113	C	0.567005	-0.215801	0.000150
C114	C	1.067005	0.284199	0.500150
C115	C	0.567791	-0.292899	0.000139
C116	C	1.067791	0.207101	0.500139
N117	N	0.570796	-0.088761	0.178326
N118	N	1.070796	0.411239	0.678326
C119	C	0.617513	0.160342	0.000214
C120	C	1.117513	0.660342	0.500214
C121	C	0.616775	0.232784	0.000202
C122	C	1.116775	0.732784	0.500202
C123	C	0.572352	0.260242	0.000186
C124	C	1.072352	0.760242	0.500186
C125	C	0.528664	0.215251	0.000164
C126	C	1.028664	0.715251	0.500164
C127	C	0.529403	0.142810	0.000168
C128	C	1.029403	0.642810	0.500168
C129	C	0.537426	0.368304	0.044025
C130	C	1.037426	0.868304	0.544025
C131	C	0.536688	0.440743	0.044025
C132	C	1.036688	0.940743	0.544025
C133	C	0.570069	0.483673	0.000169
C134	C	1.070069	0.983673	0.500169
C135	C	0.604196	0.454155	-0.043679
C136	C	1.104196	0.954155	0.456321
C137	C	0.604936	0.381714	-0.043674
C138	C	1.104936	0.881714	0.456326
C139	C	0.571545	0.338791	0.000181
C140	C	1.071545	0.838791	0.500181
C141	C	0.612954	0.607204	0.000173
C142	C	1.112954	1.107204	0.500173
C143	C	0.612214	0.679648	0.000156
C144	C	1.112214	1.179648	0.500156
C145	C	0.524102	0.662113	0.000125
C146	C	1.024102	1.162113	0.500125
C147	C	0.524844	0.589672	0.000135
C148	C	1.024844	1.089672	0.500135
C149	C	0.569271	0.562222	0.000162
C150	C	1.069271	1.062222	0.500162
N151	N	0.570830	-0.088772	-0.177985
N152	N	1.070830	0.411228	0.322015
C153	C	0.603771	-0.041201	0.217730
C154	C	1.103771	0.458799	0.717730
C155	C	0.603774	-0.041198	0.296532
C156	C	1.103774	0.458802	0.796532
C157	C	0.570806	-0.088767	0.335926
C158	C	1.070806	0.411233	0.835926
C159	C	0.537824	-0.136331	0.296512
C160	C	1.037824	0.363669	0.796512
C161	C	0.537819	-0.136328	0.217712
C162	C	1.037819	0.363672	0.717712
C163	C	0.564335	-0.152097	0.460753
C164	C	1.064335	0.347903	0.960753
C165	C	0.564343	-0.152100	0.539552
C166	C	1.064343	0.347900	1.039552
C167	C	0.570819	-0.088775	0.578973
C168	C	1.070819	0.411225	1.078973
C169	C	0.577296	-0.025443	0.539585
C170	C	1.077296	0.474557	1.039585
C171	C	0.577291	-0.025441	0.460785
C172	C	1.077291	0.474559	0.960785
C173	C	0.570808	-0.088775	0.421372
C174	C	1.070808	0.411225	0.921372
C175	C	0.603799	-0.041207	0.703823
C176	C	1.103799	0.458793	1.203823
C177	C	0.603799	-0.041203	0.782627
C178	C	1.103799	0.458797	1.282627
C179	C	0.537851	-0.136342	0.782605
C180	C	1.037851	0.363658	1.282605
C181	C	0.537849	-0.136340	0.703803
C182	C	1.037849	0.363660	1.203803
C183	C	0.570826	-0.088774	0.664417
C184	C	1.070826	0.411226	1.164417
H185	H	-0.191011	-0.084920	-0.123625
H186	H	0.308989	0.415080	0.376375
Cl187	Cl	-0.179814	-0.085071	0.154235
Cl188	Cl	0.320186	0.414929	0.654235
Cl189	Cl	-0.293615	-0.083397	0.154242
Cl190	Cl	0.206385	0.416603	0.654242
H191	H	0.653689	0.137997	0.000233
H192	H	1.153689	0.637997	0.500233
H193	H	0.424085	-0.093964	0.123938
H194	H	0.924085	0.406036	0.623938
Cl195	Cl	0.671693	0.289342	0.000224
Cl196	Cl	1.171693	0.789342	0.500224
H197	H	-0.050555	-0.086991	-0.191881
H198	H	0.449445	0.413009	0.308119
H199	H	0.631378	0.489107	-0.079391
H200	H	1.131378	0.989107	0.420609
Cl201	Cl	0.435241	-0.094141	-0.153912
Cl202	Cl	0.935241	0.405859	0.346088
H203	H	0.040896	-0.088331	-0.191892
H204	H	0.540896	0.411669	0.308108
H205	H	0.493831	0.106186	0.000154
H206	H	0.993831	0.606186	0.500154
Cl207	Cl	0.089558	-0.089018	0.222436
Cl208	Cl	0.589558	0.410982	0.722436
H209	H	0.508898	0.464770	0.079724
H210	H	1.008898	0.964770	0.579724
Cl211	Cl	0.089522	-0.089048	-0.222125
Cl212	Cl	0.589522	0.410952	0.277875
H213	H	0.630622	-0.002468	0.185664
H214	H	1.130622	0.497532	0.685664
H215	H	-0.050534	-0.086941	0.192232
H216	H	0.449466	0.413059	0.692232
H217	H	0.192151	-0.090554	-0.191901
H218	H	0.692151	0.409446	0.308099
H219	H	0.511006	-0.175071	0.814679
H220	H	1.011006	0.324929	1.314679
H221	H	0.630628	-0.002467	0.328621
H222	H	1.130628	0.497533	0.828621
H223	H	0.332608	-0.092632	-0.123684
H224	H	0.832608	0.407368	0.376316
H225	H	0.649129	0.584854	0.000191
H226	H	1.149129	1.084854	0.500191
H227	H	0.647787	0.716271	0.000167
H228	H	1.147787	1.216271	0.500167
H229	H	0.630650	-0.002474	0.671754
H230	H	1.130650	0.497526	1.171754
Cl231	Cl	0.585429	0.054172	0.411272
Cl232	Cl	1.085429	0.554172	0.911272
Cl233	Cl	0.585442	0.054171	0.589134
Cl234	Cl	1.085442	0.554171	1.089134
H235	H	0.040921	-0.088284	0.192227
H236	H	0.540921	0.411716	0.692227
H237	H	0.630650	-0.002470	0.814710
H238	H	1.130650	0.497530	1.314710
Cl239	Cl	0.496361	-0.196124	0.168172
Cl240	Cl	0.996361	0.303876	0.668172
H241	H	0.332634	-0.092600	0.123951
H242	H	0.832634	0.407400	0.623951
Cl243	Cl	0.468256	0.696625	0.000102
Cl244	Cl	0.968256	1.196625	0.500102
H245	H	0.192170	-0.090523	0.192199
H246	H	0.692170	0.409477	0.692199
Cl247	Cl	0.647833	0.344608	-0.098798
Cl248	Cl	1.147833	0.844608	0.401202
H249	H	0.492495	0.237612	0.000149
H250	H	0.992495	0.737612	0.500149
H251	H	0.489273	0.553047	0.000124
H252	H	0.989273	1.053047	0.500124
Cl253	Cl	0.495458	0.314342	0.099167
Cl254	Cl	0.995458	0.814342	0.599167
H255	H	0.510999	-0.175071	0.671718
H256	H	1.010999	0.324929	1.171718
Cl257	Cl	0.556204	-0.231716	0.589059
Cl258	Cl	1.056204	0.268284	1.089059
H259	H	0.559053	-0.203667	0.428663
H260	H	1.059053	0.296333	0.928663
Cl261	Cl	0.496376	-0.196129	0.346035
Cl262	Cl	0.996376	0.303871	0.846035
H263	H	-0.282467	-0.083588	-0.123607
H264	H	0.217533	0.416412	0.376393
