data_functionalizedCrystal
_audit_creation_method	'MofGen! by Chris Wilmer'
_symmetry_space_group_name_H-M	'P1'
_symmetry_Int_Tables_number	1
_symmetry_cell_setting	triclinic
loop_
_symmetry_equiv_pos_as_xyz
  x,y,z
_cell_length_a	29.839131
_cell_length_b	21.395364
_cell_length_c	21.395355
_cell_angle_alpha	90.025600
_cell_angle_beta	89.979828
_cell_angle_gamma	89.961079
loop_
_atom_site_label
_atom_site_type_symbol
_atom_site_fract_x
_atom_site_fract_y
_atom_site_fract_z
Zn1	Zn	-0.178935	-0.957812	-0.354272
Zn2	Zn	-0.254051	-0.957695	-0.249491
Zn3	Zn	-0.178932	-0.853027	-0.249506
Zn4	Zn	-0.254036	-0.852977	-0.354229
O5	O	-0.216488	-0.905378	-0.301875
O6	O	-0.188907	-1.045475	-0.340384
O7	O	-0.244091	-0.943783	-0.161815
O8	O	-0.116065	-0.866997	-0.263428
O9	O	-0.244094	-1.045389	-0.263402
O10	O	-0.116068	-0.943982	-0.340398
O11	O	-0.188902	-0.866884	-0.161827
O12	O	-0.188887	-0.765343	-0.263387
O13	O	-0.244069	-0.866911	-0.441913
O14	O	-0.244066	-0.765306	-0.340326
O15	O	-0.188893	-0.943934	-0.441944
O16	O	-0.316916	-0.943734	-0.263361
O17	O	-0.316905	-0.866798	-0.340312
C18	C	-0.216475	-0.742590	-0.301854
C19	C	-0.216480	-0.672949	-0.301860
C20	C	-0.333211	-0.905265	-0.301844
C21	C	-0.383145	-0.905274	-0.301851
C22	C	-0.245265	-0.171150	-0.341887
C23	C	-0.245266	-0.236585	-0.341882
C24	C	-0.216492	-0.269311	-0.301885
C25	C	-0.187723	-0.236595	-0.261879
C26	C	-0.187726	-0.171161	-0.261882
C27	C	-0.176006	-0.373010	-0.297037
C28	C	-0.176002	-0.438443	-0.297039
C29	C	-0.216482	-0.471132	-0.301874
C30	C	-0.256967	-0.438379	-0.306720
C31	C	-0.256970	-0.372945	-0.306723
C32	C	-0.216485	-0.340263	-0.301878
C33	C	-0.245252	-0.574792	-0.341868
C34	C	-0.245253	-0.640228	-0.341858
C35	C	-0.187707	-0.640237	-0.261859
C36	C	-0.187709	-0.574802	-0.261866
C37	C	-0.216481	-0.542083	-0.301874
C38	C	-0.692782	-0.945511	-0.261865
C39	C	-0.880455	-0.945589	-0.261889
O40	O	-0.904714	-0.979711	-0.227868
N41	N	-0.903930	-0.905508	-0.301922
C42	C	-0.880485	-0.865408	-0.341954
O43	O	-0.904759	-0.831323	-0.376010
C44	C	-0.692813	-0.865334	-0.341933
C45	C	-0.669340	-0.905413	-0.301893
C46	C	-0.669309	-0.985588	-0.221829
C47	C	-0.622393	-0.985566	-0.221821
C48	C	-0.598951	-0.945467	-0.261849
C49	C	-0.622424	-0.905391	-0.301885
C50	C	-0.669368	-0.825237	-0.381968
C51	C	-0.622447	-0.825224	-0.381960
C52	C	-0.598974	-0.865303	-0.341920
C53	C	-0.552066	-0.865270	-0.341905
N54	N	-0.528591	-0.905351	-0.301872
C55	C	-0.552033	-0.945450	-0.261844
C56	C	-0.979016	-0.865448	-0.341962
C57	C	-1.025933	-0.865466	-0.341967
C58	C	-1.025900	-0.945648	-0.261902
C59	C	-0.978981	-0.945627	-0.261895
C60	C	-0.955540	-0.905529	-0.301929
C61	C	-0.453507	-0.945400	-0.261830
C62	C	-0.406588	-0.945372	-0.261823
C63	C	-0.406625	-0.865193	-0.341890
C64	C	-0.453541	-0.865218	-0.341894
C65	C	-0.476981	-0.905326	-0.301862
O66	O	-0.527779	-0.831171	-0.375913
O67	O	-0.527751	-0.979539	-0.227804
C68	C	-0.739697	-0.945534	-0.261873
C69	C	-0.763171	-0.905457	-0.301909
C70	C	-0.739728	-0.865359	-0.341937
C71	C	-0.810088	-0.905475	-0.301914
C72	C	-0.833531	-0.945573	-0.261886
C73	C	-0.810055	-0.985654	-0.221853
C74	C	-0.763140	-0.985632	-0.221845
C75	C	-0.763204	-0.825278	-0.381970
C76	C	-0.810119	-0.825303	-0.381974
C77	C	-0.833562	-0.865401	-0.341946
C78	C	-0.099310	-0.905509	-0.301920
C79	C	-0.049376	-0.905564	-0.301939
C80	C	-0.216479	-0.905430	-0.465298
C81	C	-0.216475	-0.905452	-0.534939
C82	C	-0.216500	-0.068801	-0.301892
C83	C	-0.216498	-0.138442	-0.301889
C84	C	-0.187744	-0.945556	-0.567670
C85	C	-0.187725	-0.945555	-0.633105
C86	C	-0.216445	-0.905457	-0.665808
C87	C	-0.245178	-0.865346	-0.633070
C88	C	-0.245194	-0.865343	-0.567635
C89	C	-0.256896	-0.900471	-0.769472
C90	C	-0.256881	-0.900477	-0.834905
C91	C	-0.216397	-0.905461	-0.867629
C92	C	-0.175927	-0.910451	-0.834912
C93	C	-0.175942	-0.910448	-0.769477
C94	C	-0.216431	-0.905455	-0.736760
C95	C	-0.187643	-0.945566	-0.971311
C96	C	-0.187623	-0.945561	-1.036748
C97	C	-0.245080	-0.865354	-1.036711
C98	C	-0.245096	-0.865356	-0.971276
C99	C	-0.216378	-0.905465	-0.938580
C100	C	-0.216465	-0.905362	-0.139087
C101	C	-0.216342	-0.905462	-0.069446
H102	H	-0.268695	-0.144515	-0.374462
H103	H	-0.472653	-0.832584	-0.374500
F104	F	-0.275743	-0.822669	-0.667875
H105	H	-0.829150	-1.018302	-0.189259
F106	F	-0.835096	-0.782640	-0.424591
H107	H	-0.164280	-0.666881	-0.229291
H108	H	-0.268691	-0.263221	-0.374455
H109	H	-0.164359	-0.978215	-0.541053
F110	F	-0.275678	-0.822674	-0.936441
H111	H	-0.143040	-0.346401	-0.293089
H112	H	-0.289935	-0.346280	-0.310667
H113	H	-0.744031	-1.018268	-0.189241
F114	F	-0.299988	-0.895180	-0.734650
H115	H	-0.289835	-0.896418	-0.861538
F116	F	-0.157101	-0.271425	-0.219310
F117	F	-0.157088	-0.539990	-0.219298
H118	H	-0.688472	-0.792598	-0.414569
F119	F	-1.050857	-0.988322	-0.219300
F120	F	-0.132837	-0.915757	-0.869733
H121	H	-1.045041	-0.832824	-0.374565
H122	H	-0.744121	-0.792626	-0.414566
H123	H	-0.143036	-0.465105	-0.293100
F124	F	-0.300053	-0.473163	-0.311865
F125	F	-0.381668	-0.822521	-0.384490
F126	F	-0.694251	-1.028271	-0.179223
F127	F	-0.597417	-1.028231	-0.179212
F128	F	-0.275875	-0.539968	-0.384445
F129	F	-0.954004	-0.988284	-0.219280
H130	H	-0.268589	-0.832683	-0.540987
H131	H	-0.268682	-0.666858	-0.374427
H132	H	-0.164326	-0.978211	-0.659759
F133	F	-0.157107	-0.136350	-0.219309
F134	F	-0.381608	-0.988031	-0.219205
H135	H	-0.472587	-0.978061	-0.229233
H136	H	-0.164256	-0.978222	-0.944689
F137	F	-0.954073	-0.822767	-0.384574
F138	F	-0.275643	-0.822674	-1.071512
H139	H	-0.603363	-0.792572	-0.414563
F140	F	-0.132872	-0.915756	-0.734660
F141	F	-0.157046	-0.988254	-1.071582
