data_functionalizedCrystal
_audit_creation_method	'MofGen! by Chris Wilmer'
_symmetry_space_group_name_H-M	'P1'
_symmetry_Int_Tables_number	1
_symmetry_cell_setting	triclinic
loop_
_symmetry_equiv_pos_as_xyz
  x,y,z
_cell_length_a	15.944493
_cell_length_b	16.109301
_cell_length_c	14.586319
_cell_angle_alpha	89.998582
_cell_angle_beta	89.998474
_cell_angle_gamma	96.531738
loop_
_atom_site_label
_atom_site_type_symbol
_atom_site_fract_x
_atom_site_fract_y
_atom_site_fract_z
O1	O	0.107970	-1.103144	0.076170
O2	O	0.441303	-0.769811	0.409504
O3	O	0.774636	-0.436478	0.742837
O4	O	0.121406	-0.861084	0.076183
O5	O	0.454740	-0.527750	0.409517
O6	O	0.788073	-0.194417	0.742850
O7	O	-0.007592	-0.988749	0.076184
O8	O	0.325741	-0.655416	0.409517
O9	O	0.659074	-0.322083	0.742851
O10	O	0.236968	-0.975479	0.076170
O11	O	0.570302	-0.642145	0.409503
O12	O	0.903635	-0.308812	0.742836
O13	O	-0.007595	-0.988739	-0.076297
O14	O	0.325738	-0.655406	0.257037
O15	O	0.659071	-0.322072	0.590370
O16	O	0.121403	-0.861074	-0.076297
O17	O	0.454737	-0.527740	0.257036
O18	O	0.788070	-0.194407	0.590369
O19	O	0.107967	-1.103134	-0.076311
O20	O	0.441300	-0.769801	0.257023
O21	O	0.774633	-0.436467	0.590356
Cu22	Cu	0.114685	-0.982103	-0.090227
Cu23	Cu	0.448018	-0.648769	0.243107
Cu24	Cu	0.781351	-0.315436	0.576440
Cu25	Cu	0.114688	-0.982115	0.090100
Cu26	Cu	0.448022	-0.648782	0.423433
Cu27	Cu	0.781355	-0.315448	0.756766
O28	O	0.236965	-0.975469	-0.076311
O29	O	0.570299	-0.642135	0.257022
O30	O	0.903632	-0.308802	0.590355
C31	C	0.120861	-0.830104	-0.000055
C32	C	0.454194	-0.496770	0.333278
C33	C	0.787527	-0.163437	0.666611
C34	C	0.119229	-0.737808	-0.000050
C35	C	0.452562	-0.404475	0.333284
C36	C	0.785895	-0.071142	0.666617
N37	N	0.114682	-0.982100	-0.217058
N38	N	0.448015	-0.648767	0.116275
N39	N	0.781348	-0.315434	0.449608
C40	C	-0.038888	-0.988202	-0.000052
C41	C	0.294445	-0.654868	0.333281
C42	C	0.627778	-0.321535	0.666614
C43	C	-0.132136	-0.986576	-0.000041
C44	C	0.201197	-0.653242	0.333293
C45	C	0.534530	-0.319909	0.666626
C46	C	-0.367921	-1.061722	-0.000062
C47	C	-0.034588	-0.728389	0.333271
C48	C	0.298745	-0.395056	0.666605
C49	C	-0.418474	-1.021204	0.075121
C50	C	-0.085141	-0.687870	0.408454
C51	C	0.248192	-0.354537	0.741787
C52	C	-0.302856	-0.983563	-0.000052
C53	C	0.030477	-0.650229	0.333282
C54	C	0.363810	-0.316896	0.666615
C55	C	-0.418453	-1.021175	-0.075213
C56	C	-0.085120	-0.687842	0.258120
C57	C	0.248213	-0.354509	0.591453
C58	C	-0.467765	-0.980658	-0.000066
C59	C	-0.134432	-0.647325	0.333267
C60	C	0.198902	-0.313991	0.666600
C61	C	-0.352181	-0.943065	0.075193
C62	C	-0.018848	-0.609732	0.408526
C63	C	0.314485	-0.276398	0.741860
C64	C	-0.352157	-0.943048	-0.075209
C65	C	-0.018824	-0.609715	0.258125
C66	C	0.314510	-0.276381	0.591458
C67	C	-0.402677	-0.902472	-0.000008
C68	C	-0.069344	-0.569138	0.333326
C69	C	0.263989	-0.235805	0.666659
C70	C	-0.207857	-0.985238	-0.000042
C71	C	0.125476	-0.651905	0.333291
C72	C	0.458810	-0.318571	0.666624
C73	C	-0.562762	-0.978976	-0.000069
C74	C	-0.229428	-0.645643	0.333264
C75	C	0.103905	-0.312310	0.666598
C76	C	0.268262	-0.976016	-0.000073
C77	C	0.601595	-0.642683	0.333261
C78	C	0.934928	-0.309349	0.666594
C79	C	0.361510	-0.977642	-0.000079
C80	C	0.694843	-0.644309	0.333255
C81	C	1.028176	-0.310976	0.666588
C82	C	0.108513	-1.134114	-0.000070
C83	C	0.441846	-0.800781	0.333263
C84	C	0.775179	-0.467447	0.666597
C85	C	0.110144	-1.226410	-0.000070
C86	C	0.443478	-0.893076	0.333264
C87	C	0.776811	-0.559743	0.666597
C88	C	0.191980	-0.515544	-0.000065
C89	C	0.525313	-0.182211	0.333269
C90	C	0.858646	0.151122	0.666602
C91	C	0.190440	-0.428824	-0.000070
C92	C	0.523773	-0.095491	0.333263
C93	C	0.857107	0.237843	0.666596
C94	C	0.037388	-0.448680	-0.000057
C95	C	0.370721	-0.115347	0.333276
C96	C	0.704054	0.217986	0.666609
C97	C	0.038928	-0.535399	-0.000058
C98	C	0.372262	-0.202066	0.333275
C99	C	0.705595	0.131268	0.666609
C100	C	0.116227	-0.568829	-0.000057
C101	C	0.449560	-0.235495	0.333276
C102	C	0.782893	0.097838	0.666610
C103	C	0.113146	-0.395389	-0.000062
C104	C	0.446480	-0.062056	0.333271
C105	C	0.779813	0.271278	0.666605
C106	C	0.111476	-0.301363	-0.000068
C107	C	0.444810	0.031970	0.333265
C108	C	0.778143	0.365304	0.666598
C109	C	0.117897	-0.662861	-0.000053
C110	C	0.451231	-0.329527	0.333281
C111	C	0.784564	0.003806	0.666614
C112	C	0.057580	-1.038653	-0.548052
C113	C	0.390913	-0.705319	-0.214719
C114	C	0.724246	-0.371986	0.118615
C115	C	0.057580	-1.038651	-0.452071
C116	C	0.390914	-0.705317	-0.118737
C117	C	0.724247	-0.371984	0.214596
C118	C	0.171793	-0.925569	-0.452082
C119	C	0.505126	-0.592236	-0.118749
C120	C	0.838459	-0.258902	0.214585
C121	C	0.171796	-0.925576	-0.548061
C122	C	0.505129	-0.592242	-0.214728
C123	C	0.838462	-0.258909	0.118605
C124	C	0.114685	-0.982117	-0.596044
C125	C	0.448018	-0.648783	-0.262711
C126	C	0.781351	-0.315450	0.070623
C127	C	0.114682	-0.982108	-0.404083
C128	C	0.448015	-0.648775	-0.070750
C129	C	0.781349	-0.315441	0.262583
C130	C	0.114683	-0.982105	-0.300016
C131	C	0.448016	-0.648772	0.033317
C132	C	0.781350	-0.315439	0.366651
C133	C	0.114684	-0.982120	-0.700118
C134	C	0.448018	-0.648787	-0.366784
C135	C	0.781351	-0.315454	-0.033451
N136	N	0.114685	-0.982124	0.216931
N137	N	0.448018	-0.648791	0.550265
N138	N	0.781352	-0.315457	0.883598
H139	H	-0.352315	-1.129047	0.000010
H140	H	-0.018982	-0.795714	0.333343
H141	H	0.314352	-0.462380	0.666677
N142	N	-0.456834	-1.064925	0.159311
N143	N	-0.123501	-0.731591	0.492645
N144	N	0.209833	-0.398258	0.825978
H145	H	-0.444489	-1.125045	0.159255
H146	H	-0.111155	-0.791711	0.492588
H147	H	0.222178	-0.458378	0.825921
H148	H	-0.519916	-1.062944	0.158935
H149	H	-0.186583	-0.729611	0.492269
H150	H	0.146750	-0.396277	0.825602
H151	H	-0.323187	-0.910064	-0.138769
H152	H	0.010147	-0.576731	0.194564
H153	H	0.343480	-0.243397	0.527897
N154	N	-0.004009	-1.099631	-0.400307
N155	N	0.329325	-0.766298	-0.066973
N156	N	0.662658	-0.432964	0.266360
H157	H	-0.040185	-1.135448	-0.445271
H158	H	0.293149	-0.802115	-0.111937
H159	H	0.626482	-0.468781	0.221396
H160	H	-0.041152	-1.067806	-0.360485
H161	H	0.292182	-0.734473	-0.027152
H162	H	0.625515	-0.401140	0.306181
H163	H	-0.418121	-0.835095	0.000037
H164	H	-0.084788	-0.501761	0.333371
H165	H	0.248546	-0.168428	0.666704
N166	N	-0.042786	-0.592870	-0.000048
N167	N	0.290547	-0.259536	0.333285
N168	N	0.623881	0.073797	0.666619
H169	H	-0.045555	-0.629296	0.056475
H170	H	0.287778	-0.295962	0.389808
H171	H	0.621111	0.037371	0.723142
H172	H	-0.045511	-0.629235	-0.056612
H173	H	0.287822	-0.295901	0.276721
H174	H	0.621155	0.037432	0.610055
H175	H	0.254921	-0.542760	-0.000071
H176	H	0.588255	-0.209426	0.333263
H177	H	0.921588	0.123907	0.666596
N178	N	0.233384	-0.864588	-0.599832
N179	N	0.566717	-0.531255	-0.266499
N180	N	0.900051	-0.197922	0.066835
H181	H	0.270587	-0.896354	-0.639650
H182	H	0.603920	-0.563020	-0.306316
H183	H	0.937254	-0.229687	0.027017
H184	H	0.269500	-0.828779	-0.554814
H185	H	0.602833	-0.495446	-0.221481
H186	H	0.936166	-0.162112	0.111852
H187	H	0.011078	-1.084693	-0.587117
H188	H	0.344411	-0.751359	-0.253784
H189	H	0.677744	-0.418026	0.079550
N190	N	-0.456792	-1.064905	-0.159405
N191	N	-0.123458	-0.731572	0.173928
N192	N	0.209875	-0.398239	0.507262
H193	H	-0.444439	-1.125023	-0.159336
H194	H	-0.111105	-0.791690	0.173997
H195	H	0.222228	-0.458356	0.507331
H196	H	-0.431716	-1.035938	-0.216142
H197	H	-0.098383	-0.702604	0.117192
H198	H	0.234951	-0.369271	0.450525
N199	N	0.272145	-0.371352	-0.000129
N200	N	0.605478	-0.038019	0.333204
N201	N	0.938811	0.295315	0.666537
H202	H	0.321343	-0.405692	-0.000145
H203	H	0.654676	-0.072358	0.333188
H204	H	0.988010	0.260975	0.666521
H205	H	0.274872	-0.334916	0.056379
H206	H	0.608206	-0.001583	0.389712
H207	H	0.941539	0.331750	0.723046
N208	N	0.233385	-0.864585	-0.400329
N209	N	0.566719	-0.531252	-0.066996
N210	N	0.900052	-0.197918	0.266337
H211	H	0.224717	-0.873156	-0.332244
H212	H	0.558051	-0.539823	0.001089
H213	H	0.891384	-0.206489	0.334423
H214	H	0.223665	-0.805611	-0.417116
H215	H	0.556998	-0.472278	-0.083783
H216	H	0.890332	-0.138944	0.249550
N217	N	-0.314000	-0.899369	0.159478
N218	N	0.019333	-0.566036	0.492811
N219	N	0.352667	-0.232702	0.826144
H220	H	-0.250834	-0.900774	0.158976
H221	H	0.082499	-0.567441	0.492309
H222	H	0.415832	-0.234108	0.825643
H223	H	-0.338794	-0.928679	0.216149
H224	H	-0.005460	-0.595345	0.549482
H225	H	0.327873	-0.262012	0.882815
H226	H	-0.025546	-0.421451	-0.000064
H227	H	0.307787	-0.088118	0.333270
H228	H	0.641120	0.245216	0.666603
