data_functionalizedCrystal
_audit_creation_method	'MofGen! by Chris Wilmer'
_symmetry_space_group_name_H-M	'P1'
_symmetry_Int_Tables_number	1
_symmetry_cell_setting	triclinic
loop_
_symmetry_equiv_pos_as_xyz
  x,y,z
_cell_length_a	19.188933
_cell_length_b	19.188930
_cell_length_c	10.065875
_cell_angle_alpha	98.754308
_cell_angle_beta	81.284263
_cell_angle_gamma	83.145175
loop_
_atom_site_label
_atom_site_type_symbol
_atom_site_fract_x
_atom_site_fract_y
_atom_site_fract_z
O1	O	0.936388	0.076883	-0.113461
O2	O	0.733078	0.088614	-0.113476
O3	O	0.840598	-0.018904	-0.113441
O4	O	0.828868	0.184402	-0.113495
O5	O	0.820095	0.001680	0.113541
O6	O	0.712575	0.109199	0.113507
O7	O	0.915885	0.097467	0.113521
Zn8	Zn	0.810975	0.106601	0.149552
Zn9	Zn	0.837988	0.079480	-0.149506
O10	O	0.808366	0.204986	0.113487
C11	C	0.696816	0.098526	0.000014
C12	C	0.619312	0.097385	0.000010
C13	C	0.077231	0.078020	-0.123702
C14	C	0.150056	0.079088	-0.123707
C15	C	0.175297	0.090846	0.000020
C16	C	0.127709	0.101519	0.123762
C17	C	0.054886	0.100444	0.123764
N18	N	0.275999	0.140615	0.092105
N19	N	0.345177	0.141637	0.092095
C20	C	0.394705	0.094084	0.000022
N21	N	0.372442	0.045477	-0.092062
N22	N	0.303257	0.044458	-0.092055
C23	C	0.254259	0.092012	0.000032
C24	C	0.521250	0.084564	-0.123719
C25	C	0.594076	0.085628	-0.123719
C26	C	0.571726	0.108066	0.123754
C27	C	0.498902	0.106995	0.123751
C28	C	0.473668	0.095247	0.000011
C29	C	0.829966	-0.034623	0.000054
C30	C	0.828824	-0.112126	0.000066
C31	C	0.891914	-0.157049	0.000077
C32	C	0.890844	-0.229875	0.000055
C33	C	0.826679	-0.257772	0.000049
C34	C	0.763581	-0.212841	0.000030
C35	C	0.764654	-0.140018	0.000039
N36	N	0.770654	-0.358773	0.077292
N37	N	0.769639	-0.427952	0.077287
C38	C	0.823443	-0.477183	0.000021
N39	N	0.878309	-0.454623	-0.077222
N40	N	0.879326	-0.385437	-0.077211
C41	C	0.825509	-0.336736	0.000039
C42	C	0.885378	-0.601073	0.000007
C43	C	0.884306	-0.673900	-0.000024
C44	C	0.757040	-0.656863	-0.000034
C45	C	0.758115	-0.584039	-0.000018
C46	C	0.822285	-0.556147	0.000009
C47	C	0.952148	0.087555	0.000029
C48	C	1.029653	0.088696	0.000024
C49	C	0.818998	0.220704	-0.000011
C50	C	0.820140	0.298207	-0.000032
N51	N	0.792544	0.125110	0.353652
N52	N	0.856425	0.060966	-0.353606
C53	C	0.831571	0.085916	0.421443
C54	C	0.817392	0.100166	0.578606
H55	H	0.460162	0.115691	0.224502
C56	C	0.876613	-0.039124	0.377114
C57	C	0.890852	0.026385	0.342699
H58	H	0.913211	-0.075872	0.328485
H59	H	0.874878	-0.037372	0.472386
H60	H	0.832095	-0.048558	0.353788
H61	H	0.935368	0.035822	0.366035
H62	H	0.892595	0.024634	0.247406
H63	H	0.148264	0.111091	0.224502
H64	H	0.935684	-0.710477	-0.000022
C65	C	0.040111	0.122732	0.368378
C66	C	0.002582	0.112187	0.259774
H67	H	0.007817	0.129987	0.452343
H68	H	0.074423	0.081980	0.363241
H69	H	0.063535	0.163390	0.363213
H70	H	-0.020838	0.071526	0.264933
H71	H	-0.031743	0.152943	0.264913
H72	H	0.773476	0.144272	0.636913
C73	C	0.901327	-0.064069	0.602522
C74	C	0.915689	0.001358	0.567863
H75	H	0.937907	-0.100884	0.554082
H76	H	0.899520	-0.062216	0.697834
H77	H	0.856816	-0.073481	0.579132
H78	H	0.960198	0.010773	0.591262
H79	H	0.917504	-0.000493	0.472529
C80	C	0.550653	0.062492	-0.368333
C81	C	0.493507	0.071646	-0.259729
H82	H	0.533526	0.054514	-0.452299
H83	H	0.573145	0.104078	-0.363193
H84	H	0.584038	0.022668	-0.363172
H85	H	0.460124	0.111474	-0.264885
H86	H	0.471004	0.030055	-0.264872
H87	H	0.713277	-0.103441	0.000030
H88	H	0.748632	0.169213	0.411964
H89	H	0.056691	0.068451	-0.224461
C90	C	0.658781	-0.675330	-0.116734
C91	C	0.686507	-0.687520	-0.000047
H92	H	0.615238	-0.694263	-0.116747
H93	H	0.650391	-0.625534	-0.116715
H94	H	0.691907	-0.697938	-0.195876
H95	H	0.653383	-0.664907	0.079096
H96	H	0.694894	-0.737325	-0.000053
H97	H	0.188801	0.070398	-0.224463
H98	H	0.706739	-0.547461	-0.000019
C99	C	0.705429	-0.316908	0.000034
C100	C	0.693049	-0.243502	0.000030
H101	H	0.661882	-0.335834	0.000038
H102	H	0.738542	-0.339509	-0.079112
H103	H	0.724247	-0.325161	0.079196
H104	H	0.674235	-0.235249	-0.079138
H105	H	0.659923	-0.220894	0.079184
C106	C	0.977494	-0.095614	-0.116591
C107	C	0.962451	-0.126393	0.000087
H108	H	1.021039	-0.076685	-0.116581
H109	H	0.981580	-0.130840	-0.195731
H110	H	0.940070	-0.058433	-0.116578
H111	H	0.999873	-0.163578	0.000069
H112	H	0.958370	-0.091164	0.079247
C113	C	0.952913	-0.311084	0.116758
C114	C	0.960196	-0.279265	0.000077
H115	H	0.995726	-0.341577	0.116766
H116	H	0.943537	-0.275149	0.195896
H117	H	0.914541	-0.338116	0.116728
H118	H	0.998564	-0.252229	0.000112
H119	H	0.969580	-0.315205	-0.079082
C120	C	0.715629	0.077309	-0.233605
C121	C	0.646379	0.073891	-0.259729
H122	H	0.747918	0.070060	-0.317575
H123	H	0.717522	0.122794	-0.182775
H124	H	0.728413	0.041382	-0.182766
H125	H	0.633593	0.109822	-0.310560
H126	H	0.644484	0.028400	-0.310581
C127	C	0.673429	0.119676	0.233634
C128	C	0.599462	0.120988	0.259760
H129	H	0.690553	0.127655	0.317603
H130	H	0.695397	0.074541	0.182809
H131	H	0.684500	0.155951	0.182788
H132	H	0.588392	0.084709	0.310597
H133	H	0.577488	0.166129	0.310607
C134	C	1.011069	-0.625228	-0.000017
C135	C	0.955914	-0.570412	0.000003
H136	H	1.054615	-0.606300	-0.000032
H137	H	1.000860	-0.646106	0.079129
H138	H	1.015142	-0.660448	-0.079179
H139	H	0.951837	-0.535194	0.079170
H140	H	0.966125	-0.549523	-0.079151
