data_functionalizedCrystal
_audit_creation_method	'MofGen! by Chris Wilmer'
_symmetry_space_group_name_H-M	'P1'
_symmetry_Int_Tables_number	1
_symmetry_cell_setting	triclinic
loop_
_symmetry_equiv_pos_as_xyz
  x,y,z
_cell_length_a	12.759401
_cell_length_b	12.594516
_cell_length_c	12.759393
_cell_angle_alpha	90.029124
_cell_angle_beta	90.018496
_cell_angle_gamma	90.016214
loop_
_atom_site_label
_atom_site_type_symbol
_atom_site_fract_x
_atom_site_fract_y
_atom_site_fract_z
Zn1	Zn	1.606246	-0.423675	0.593999
Zn2	Zn	2.106246	0.076325	1.093999
Zn3	Zn	1.606136	-0.601694	0.418327
Zn4	Zn	2.106136	-0.101694	0.918327
Zn5	Zn	1.430547	-0.423730	0.418339
Zn6	Zn	1.930547	0.076270	0.918339
Zn7	Zn	1.430532	-0.601612	0.593968
Zn8	Zn	1.930532	-0.101612	1.093968
O9	O	1.518365	-0.512678	0.506158
O10	O	2.018365	-0.012678	1.006158
O11	O	1.753252	-0.447300	0.570704
O12	O	2.253252	0.052700	1.070704
O13	O	1.582804	-0.578144	0.271307
O14	O	2.082804	-0.078144	0.771307
O15	O	1.453907	-0.274777	0.441658
O16	O	1.953907	0.225223	0.941658
O17	O	1.753171	-0.578090	0.441638
O18	O	2.253171	-0.078090	0.941638
O19	O	1.582991	-0.274736	0.570715
O20	O	2.082991	0.225264	1.070715
O21	O	1.453800	-0.447395	0.271316
O22	O	1.953800	0.052605	0.771316
O23	O	1.283524	-0.447316	0.441628
O24	O	1.783524	0.052684	0.941628
O25	O	1.453880	-0.577951	0.740993
O26	O	1.953880	-0.077951	1.240993
O27	O	1.283513	-0.578005	0.570663
O28	O	1.783513	-0.078005	1.070663
O29	O	1.582976	-0.447221	0.741016
O30	O	2.082976	0.052779	1.241016
O31	O	1.582789	-0.750629	0.441608
O32	O	2.082789	-0.250629	0.941608
O33	O	1.453774	-0.750569	0.570651
O34	O	1.953774	-0.250569	1.070651
C35	C	1.245398	-0.512658	0.506144
C36	C	1.745398	-0.012658	1.006144
C37	C	1.128621	-0.512676	0.506163
C38	C	1.628621	-0.012676	1.006163
C39	C	1.073781	-0.580834	0.573240
C40	C	1.573781	-0.080834	1.073240
C41	C	0.964057	-0.580848	0.573251
C42	C	1.464057	-0.080848	1.073251
C43	C	0.964023	-0.444541	0.439099
C44	C	1.464023	0.055459	0.939099
C45	C	1.073745	-0.444523	0.439094
C46	C	1.573745	0.055477	0.939094
C47	C	1.128657	-0.648987	0.640308
C48	C	1.628657	-0.148987	1.140308
C49	C	1.073816	-0.717152	0.707390
C50	C	1.573816	-0.217152	1.207390
C51	C	0.964092	-0.717165	0.707402
C52	C	1.464092	-0.217165	1.207402
C53	C	0.909209	-0.649014	0.640331
C54	C	1.409209	-0.149014	1.140331
C55	C	1.518296	-0.789219	0.506148
C56	C	2.018296	-0.289219	1.006148
C57	C	1.518363	-0.907524	0.506179
C58	C	2.018363	-0.407524	1.006179
C59	C	1.448185	-0.976783	0.576316
C60	C	1.948185	-0.476783	1.076316
C61	C	1.422585	-1.047654	0.480449
C62	C	1.922585	-0.547654	0.980449
C63	C	1.544058	-1.047453	0.602062
C64	C	2.044058	-0.547453	1.102062
C65	C	1.492713	-0.976836	0.410261
C66	C	1.992713	-0.476836	0.910261
C67	C	1.614230	-0.976629	0.531938
C68	C	2.114230	-0.476629	1.031938
C69	C	1.588667	-1.047468	0.436006
C70	C	2.088667	-0.547468	0.936006
C71	C	1.792398	-0.512698	0.506173
C72	C	2.292398	-0.012698	1.006173
C73	C	1.909175	-0.512707	0.506179
C74	C	2.409175	-0.012707	1.006179
C75	C	1.518439	-0.512570	0.780192
C76	C	2.018439	-0.012570	1.280192
C77	C	1.518470	-0.512525	0.896968
C78	C	2.018470	-0.012525	1.396968
C79	C	1.518463	-0.235057	0.506192
C80	C	2.018463	0.264943	1.006192
C81	C	1.518505	-0.116752	0.506206
C82	C	2.018505	0.383248	1.006206
C83	C	1.518352	-0.512708	0.233191
C84	C	2.018352	-0.012708	0.733191
C85	C	1.518525	-0.512454	0.116415
C86	C	2.018525	-0.012454	0.616415
C87	C	1.585700	-0.444447	0.951844
C88	C	2.085700	0.055553	1.451844
C89	C	1.585725	-0.444409	1.061568
C90	C	2.085725	0.055591	1.561568
C91	C	1.451288	-0.580534	1.061531
C92	C	1.951288	-0.080534	1.561531
C93	C	1.451258	-0.580567	0.951809
C94	C	1.951258	-0.080567	1.451809
C95	C	1.652912	-0.376405	0.897003
C96	C	2.152912	0.123595	1.397003
C97	C	1.720147	-0.308323	0.951879
C98	C	2.220147	0.191677	1.451879
C99	C	1.720172	-0.308284	1.061603
C100	C	2.220172	0.191716	1.561603
C101	C	1.652962	-0.376328	1.116451
C102	C	2.152962	0.123672	1.616451
H103	H	0.919328	-0.389056	0.384493
H104	H	1.419328	0.110944	0.884493
H105	H	1.388731	-0.945746	0.635542
H106	H	1.888731	-0.445746	1.135542
F107	F	1.316698	-1.088428	0.451975
F108	F	1.816698	-0.588428	0.951975
H109	H	1.118397	-0.389014	0.384482
H110	H	1.618397	0.110986	0.884482
H111	H	1.565734	-1.078472	0.683138
H112	H	2.065734	-0.578472	1.183138
H113	H	1.470943	-0.945945	0.329163
H114	H	1.970943	-0.445945	0.829163
F115	F	0.905730	-0.789703	0.778802
F116	F	1.405730	-0.289703	1.278802
H117	H	1.652975	-0.376279	1.205796
H118	H	2.152975	0.123721	1.705796
F119	F	1.379704	-0.653021	0.893403
F120	F	1.879704	-0.153021	1.393403
F121	F	1.666321	-1.087780	0.358409
F122	F	2.166321	-0.587780	0.858409
H123	H	1.217999	-0.648985	0.640305
H124	H	1.717999	-0.148985	1.140305
H125	H	1.396567	-0.635932	1.106198
H126	H	1.896567	-0.135932	1.606198
F127	F	1.720089	-0.935823	0.560447
F128	F	2.220089	-0.435823	1.060447
H129	H	1.118509	-0.772632	0.762003
H130	H	1.618509	-0.272632	1.262003
F131	F	0.792429	-0.649024	0.640355
F132	F	1.292429	-0.149024	1.140355
F133	F	1.791660	-0.235896	0.893504
F134	F	2.291660	0.264104	1.393504
F135	F	1.791730	-0.235828	1.120003
F136	F	2.291730	0.264172	1.620003
F137	F	1.652894	-0.376444	0.780225
F138	F	2.152894	0.123556	1.280225
