data_functionalizedCrystal
_audit_creation_method	'MofGen! by Chris Wilmer'
_symmetry_space_group_name_H-M	'P1'
_symmetry_Int_Tables_number	1
_symmetry_cell_setting	triclinic
loop_
_symmetry_equiv_pos_as_xyz
  x,y,z
_cell_length_a	14.519709
_cell_length_b	15.995350
_cell_length_c	13.596369
_cell_angle_alpha	89.996243
_cell_angle_beta	89.999709
_cell_angle_gamma	96.413740
loop_
_atom_site_label
_atom_site_type_symbol
_atom_site_fract_x
_atom_site_fract_y
_atom_site_fract_z
O1	O	-1.223669	0.109760	-0.081658
O2	O	-0.890336	0.443093	0.251675
O3	O	-0.557002	0.776427	0.585008
O4	O	-0.955169	0.122685	-0.081688
O5	O	-0.621835	0.456019	0.251646
O6	O	-0.288502	0.789352	0.584979
O7	O	-1.096759	-0.005654	-0.081671
O8	O	-0.763425	0.327679	0.251662
O9	O	-0.430092	0.661013	0.584995
O10	O	-1.082079	0.238099	-0.081675
O11	O	-0.748746	0.571433	0.251659
O12	O	-0.415413	0.904766	0.584992
O13	O	-1.096744	-0.005661	0.081912
O14	O	-0.763411	0.327673	0.415245
O15	O	-0.430078	0.661006	0.748578
O16	O	-0.955155	0.122679	0.081895
O17	O	-0.621821	0.456012	0.415228
O18	O	-0.288488	0.789345	0.748562
O19	O	-1.223655	0.109753	0.081925
O20	O	-0.890322	0.443086	0.415258
O21	O	-0.556988	0.776420	0.748591
Zn22	Zn	-1.089403	0.116215	0.107882
Zn23	Zn	-0.756069	0.449548	0.441215
Zn24	Zn	-0.422736	0.782881	0.774549
Zn25	Zn	-1.089421	0.116224	-0.107645
Zn26	Zn	-0.756088	0.449557	0.225688
Zn27	Zn	-0.422754	0.782890	0.559021
O28	O	-1.082065	0.238093	0.081908
O29	O	-0.748732	0.571426	0.415241
O30	O	-0.415399	0.904759	0.748575
C31	C	-0.920803	0.122080	0.000100
C32	C	-0.587470	0.455413	0.333433
C33	C	-0.254136	0.788746	0.666766
C34	C	-0.818425	0.120275	0.000088
C35	C	-0.485092	0.453608	0.333422
C36	C	-0.151758	0.786941	0.666755
C37	C	-1.096145	-0.036853	0.000118
C38	C	-0.762811	0.296480	0.333452
C39	C	-0.429478	0.629814	0.666785
C40	C	-1.094325	-0.129806	0.000112
C41	C	-0.760992	0.203527	0.333446
C42	C	-0.427659	0.536861	0.666779
C43	C	-1.258021	0.110359	0.000135
C44	C	-0.924687	0.443692	0.333468
C45	C	-0.591354	0.777026	0.666801
C46	C	-1.360399	0.112164	0.000140
C47	C	-1.027065	0.445497	0.333473
C48	C	-0.693732	0.778831	0.666806
C49	C	-0.443541	0.113629	0.000133
C50	C	-0.110208	0.446962	0.333467
C51	C	0.223125	0.780296	0.666800
C52	C	-0.547846	0.115475	0.000120
C53	C	-0.214513	0.448808	0.333454
C54	C	0.118821	0.782141	0.666787
C55	C	-0.630980	0.116952	0.000110
C56	C	-0.297647	0.450285	0.333443
C57	C	0.035687	0.783618	0.666777
C58	C	-0.735291	0.118797	0.000099
C59	C	-0.401958	0.452131	0.333432
C60	C	-0.068624	0.785464	0.666766
C61	C	-1.087791	-0.467563	0.000115
C62	C	-0.754458	-0.134230	0.333448
C63	C	-0.421125	0.199103	0.666782
C64	C	-0.986954	-0.420280	-0.000263
C65	C	-0.653620	-0.086947	0.333070
C66	C	-0.320287	0.246386	0.666404
C67	C	-0.988773	-0.323587	0.000106
C68	C	-0.655440	0.009746	0.333439
C69	C	-0.322107	0.343079	0.666773
C70	C	-1.091032	-0.299998	0.000113
C71	C	-0.757699	0.033335	0.333446
C72	C	-0.424366	0.366669	0.666780
C73	C	-1.140761	-0.341005	0.093531
C74	C	-0.807428	-0.007672	0.426864
C75	C	-0.474094	0.325662	0.760197
C76	C	-1.138228	-0.437644	0.093609
C77	C	-0.804895	-0.104311	0.426942
C78	C	-0.471561	0.229022	0.760275
C79	C	-1.140327	-0.437992	-0.092415
C80	C	-0.806994	-0.104658	0.240918
C81	C	-0.473660	0.228675	0.574251
C82	C	-1.140303	-0.341046	-0.093650
C83	C	-0.806970	-0.007713	0.239683
C84	C	-0.473636	0.325620	0.573017
C85	C	-1.092869	-0.205298	0.000115
C86	C	-0.759536	0.128036	0.333449
C87	C	-0.426203	0.461369	0.666782
C88	C	-1.085957	-0.562264	0.000119
C89	C	-0.752624	-0.228931	0.333453
C90	C	-0.419291	0.104403	0.666786
C91	C	-1.082679	0.269292	0.000116
C92	C	-0.749346	0.602625	0.333450
C93	C	-0.416012	0.935958	0.666783
C94	C	-1.084498	0.362245	0.000116
C95	C	-0.751165	0.695578	0.333449
C96	C	-0.417832	1.028911	0.666782
N97	N	-1.089397	0.116208	0.254974
N98	N	-0.756063	0.449541	0.588307
N99	N	-0.422730	0.782875	0.921641
N100	N	-1.089434	0.116224	-0.254737
N101	N	-0.756101	0.449557	0.078596
N102	N	-0.422768	0.782890	0.411929
C103	C	-1.089420	0.116225	0.656265
C104	C	-0.756087	0.449558	0.989598
C105	C	-0.422753	0.782891	1.322932
C106	C	-1.089411	0.116223	0.544614
C107	C	-0.756077	0.449556	0.877947
C108	C	-0.422744	0.782890	1.211280
C109	C	-1.089409	0.116217	0.455623
C110	C	-0.756075	0.449550	0.788956
C111	C	-0.422742	0.782884	1.122290
C112	C	-1.089399	0.116214	0.343965
C113	C	-0.756065	0.449547	0.677298
C114	C	-0.422732	0.782881	1.010631
H115	H	-0.949683	-0.295221	-0.066860
H116	H	-0.616350	0.038112	0.266474
H117	H	-0.283016	0.371446	0.599807
C118	C	-0.935599	-0.286018	0.090711
C119	C	-0.602266	0.047315	0.424044
C120	C	-0.268933	0.380649	0.757378
H121	H	-0.936522	-0.226725	0.091241
H122	H	-0.603189	0.106609	0.424574
H123	H	-0.269855	0.439942	0.757907
H124	H	-0.964191	-0.309458	0.148823
H125	H	-0.630857	0.023875	0.482156
H126	H	-0.297524	0.357208	0.815489
H127	H	-0.873267	-0.298682	0.087958
H128	H	-0.539934	0.034651	0.421291
H129	H	-0.206601	0.367984	0.754624
H130	H	-1.101954	-0.456003	0.163434
H131	H	-0.768620	-0.122670	0.496768
H132	H	-0.435287	0.210664	0.830101
C133	C	-1.094081	-0.302753	0.187439
C134	C	-0.760747	0.030580	0.520772
C135	C	-0.427414	0.363914	0.854106
H136	H	-1.044294	-0.261803	0.169916
H137	H	-0.710960	0.071530	0.503250
H138	H	-0.377627	0.404864	0.836583
H139	H	-1.138120	-0.276950	0.225240
H140	H	-0.804787	0.056383	0.558574
H141	H	-0.471453	0.389717	0.891907
H142	H	-1.071008	-0.345914	0.225088
H143	H	-0.737674	-0.012581	0.558421
H144	H	-0.404341	0.320753	0.891754
C145	C	-1.238234	-0.481064	0.099360
C146	C	-0.904901	-0.147730	0.432694
C147	C	-0.571567	0.185603	0.766027
H148	H	-1.280227	-0.439617	0.101647
H149	H	-0.946894	-0.106283	0.434981
H150	H	-0.613561	0.227050	0.768314
H151	H	-1.250961	-0.515560	0.043035
H152	H	-0.917628	-0.182227	0.376369
H153	H	-0.584294	0.151106	0.709702
H154	H	-1.245212	-0.514789	0.156969
H155	H	-0.911878	-0.181455	0.490302
H156	H	-0.578545	0.151878	0.823636
H157	H	-0.946656	-0.438870	-0.067255
H158	H	-0.613322	-0.105536	0.266078
H159	H	-0.279989	0.227797	0.599412
C160	C	-0.932740	-0.446823	0.089725
C161	C	-0.599406	-0.113489	0.423058
C162	C	-0.266073	0.219844	0.756391
H163	H	-0.971292	-0.486592	0.127526
H164	H	-0.637959	-0.153259	0.460860
H165	H	-0.304626	0.180074	0.794193
H166	H	-0.879654	-0.471446	0.068244
H167	H	-0.546321	-0.138113	0.401577
H168	H	-0.212988	0.195221	0.734911
H169	H	-0.913842	-0.398799	0.128934
H170	H	-0.580509	-0.065466	0.462267
H171	H	-0.247176	0.267867	0.795601
H172	H	-1.215888	-0.326767	0.097010
H173	H	-0.882554	0.006566	0.430343
H174	H	-0.549221	0.339900	0.763677
C175	C	-1.095796	-0.465794	-0.188067
C176	C	-0.762463	-0.132460	0.145266
C177	C	-0.429130	0.200873	0.478600
H178	H	-1.044742	-0.495699	-0.172462
H179	H	-0.711408	-0.162365	0.160871
H180	H	-0.378075	0.170968	0.494205
H181	H	-1.140294	-0.501200	-0.224539
H182	H	-0.806960	-0.167867	0.108794
H183	H	-0.473627	0.165467	0.442127
H184	H	-1.074857	-0.417625	-0.226201
H185	H	-0.741523	-0.084292	0.107132
H186	H	-0.408190	0.249042	0.440466
H187	H	-1.103945	-0.313849	-0.162758
H188	H	-0.770612	0.019484	0.170576
H189	H	-0.437278	0.352817	0.503909
H190	H	-1.214674	-0.469641	-0.093038
H191	H	-0.881341	-0.136308	0.240295
H192	H	-0.548007	0.197025	0.573629
C193	C	-1.241045	-0.320150	-0.101264
C194	C	-0.907712	0.013183	0.232069
C195	C	-0.574379	0.346516	0.565402
H196	H	-1.254438	-0.285971	-0.047114
H197	H	-0.921105	0.047362	0.286219
H198	H	-0.587771	0.380696	0.619553
H199	H	-1.248862	-0.290791	-0.160884
H200	H	-0.915528	0.042542	0.172449
H201	H	-0.582195	0.375875	0.505782
H202	H	-1.281995	-0.370806	-0.100467
H203	H	-0.948661	-0.037472	0.232866
H204	H	-0.615328	0.295861	0.566199
