data_functionalizedCrystal
_audit_creation_method	'MofGen! by Chris Wilmer'
_symmetry_space_group_name_H-M	'P1'
_symmetry_Int_Tables_number	1
_symmetry_cell_setting	triclinic
loop_
_symmetry_equiv_pos_as_xyz
  x,y,z
_cell_length_a	23.532407
_cell_length_b	22.610064
_cell_length_c	23.532409
_cell_angle_alpha	90.007112
_cell_angle_beta	82.849157
_cell_angle_gamma	89.995143
loop_
_atom_site_label
_atom_site_type_symbol
_atom_site_fract_x
_atom_site_fract_y
_atom_site_fract_z
O1	O	-0.755264	0.049135	-0.069127
O2	O	-0.505264	0.299135	0.180873
O3	O	-0.255264	0.549135	0.430873
O4	O	-0.005264	0.799135	0.680873
O5	O	-0.589401	0.049145	-0.079131
O6	O	-0.339401	0.299145	0.170869
O7	O	-0.089401	0.549145	0.420869
O8	O	0.160599	0.799145	0.670869
O9	O	-0.677333	0.049140	0.008803
O10	O	-0.427333	0.299140	0.258803
O11	O	-0.177333	0.549140	0.508803
O12	O	0.072667	0.799140	0.758803
O13	O	-0.667331	0.049140	-0.157061
O14	O	-0.417331	0.299140	0.092939
O15	O	-0.167331	0.549140	0.342939
O16	O	0.082669	0.799140	0.592939
O17	O	-0.677318	-0.049229	0.008790
O18	O	-0.427318	0.200771	0.258790
O19	O	-0.177318	0.450771	0.508790
O20	O	0.072682	0.700771	0.758790
O21	O	-0.589385	-0.049224	-0.079143
O22	O	-0.339385	0.200776	0.170857
O23	O	-0.089385	0.450776	0.420857
O24	O	0.160615	0.700776	0.670857
O25	O	-0.755248	-0.049234	-0.069140
O26	O	-0.505248	0.200766	0.180860
O27	O	-0.255248	0.450766	0.430860
O28	O	-0.005248	0.700766	0.680860
Zn29	Zn	-0.672314	-0.064847	-0.074144
Zn30	Zn	-0.422314	0.185153	0.175856
Zn31	Zn	-0.172314	0.435153	0.425856
Zn32	Zn	0.077686	0.685153	0.675856
Zn33	Zn	-0.672335	0.064758	-0.074127
Zn34	Zn	-0.422335	0.314758	0.175873
Zn35	Zn	-0.172335	0.564758	0.425873
Zn36	Zn	0.077665	0.814758	0.675873
O37	O	-0.667316	-0.049230	-0.157073
O38	O	-0.417316	0.200770	0.092927
O39	O	-0.167316	0.450770	0.342927
O40	O	0.082684	0.700770	0.592927
C41	C	-0.568177	-0.000038	-0.078882
C42	C	-0.318177	0.249962	0.171118
C43	C	-0.068177	0.499962	0.421118
C44	C	0.181823	0.749962	0.671118
C45	C	-0.504960	-0.000033	-0.078116
C46	C	-0.254960	0.249967	0.171884
C47	C	-0.004960	0.499967	0.421884
C48	C	0.245040	0.749967	0.671884
N49	N	-0.672305	-0.153300	-0.074155
N50	N	-0.422305	0.096700	0.175845
N51	N	-0.172305	0.346700	0.425845
N52	N	0.077695	0.596700	0.675845
C53	C	-0.238792	-0.000046	-0.022921
C54	C	0.011208	0.249954	0.227079
C55	C	0.261208	0.499954	0.477079
C56	C	0.511208	0.749954	0.727079
C57	C	-0.298192	-0.000047	-0.023632
C58	C	-0.048192	0.249953	0.226368
C59	C	0.201808	0.499953	0.476368
C60	C	0.451808	0.749953	0.726368
O61	O	-0.334936	-0.000067	0.020153
O62	O	-0.084936	0.249933	0.270153
O63	O	0.165064	0.499933	0.520153
O64	O	0.415064	0.749933	0.770153
N65	N	-0.320819	-0.000043	-0.075909
N66	N	-0.070819	0.249957	0.174091
N67	N	0.179181	0.499957	0.424091
N68	N	0.429181	0.749957	0.674091
C69	C	-0.284042	-0.000045	-0.127477
C70	C	-0.034042	0.249955	0.122523
C71	C	0.215958	0.499955	0.372523
C72	C	0.465958	0.749955	0.622523
O73	O	-0.308742	-0.000043	-0.172007
O74	O	-0.058742	0.249957	0.077993
O75	O	0.191258	0.499957	0.327993
O76	O	0.441258	0.749957	0.577993
C77	C	-0.224643	-0.000049	-0.126765
C78	C	0.025357	0.249951	0.123235
C79	C	0.275357	0.499951	0.373235
C80	C	0.525357	0.749951	0.623235
C81	C	-0.202020	-0.000046	-0.074485
C82	C	0.047980	0.249954	0.175515
C83	C	0.297980	0.499954	0.425515
C84	C	0.547980	0.749954	0.675515
C85	C	-0.216168	-0.000044	0.029354
C86	C	0.033832	0.249956	0.279354
C87	C	0.283832	0.499956	0.529354
C88	C	0.533832	0.749956	0.779354
C89	C	-0.156772	-0.000043	0.030066
C90	C	0.093228	0.249957	0.280066
C91	C	0.343228	0.499957	0.530066
C92	C	0.593228	0.749957	0.780066
C93	C	-0.120000	-0.000043	-0.021499
C94	C	0.130000	0.249957	0.228501
C95	C	0.380000	0.499957	0.478501
C96	C	0.630000	0.749957	0.728501
C97	C	-0.142623	-0.000045	-0.073774
C98	C	0.107377	0.249955	0.176226
C99	C	0.357377	0.499955	0.426226
C100	C	0.607377	0.749955	0.676226
C101	C	-0.187867	-0.000055	-0.178332
C102	C	0.062133	0.249945	0.071668
C103	C	0.312133	0.499945	0.321668
C104	C	0.562133	0.749945	0.571668
C105	C	-0.128464	-0.000059	-0.177616
C106	C	0.121536	0.249941	0.072384
C107	C	0.371536	0.499941	0.322384
C108	C	0.621536	0.749941	0.572384
C109	C	-0.105841	-0.000057	-0.125336
C110	C	0.144159	0.249943	0.124664
C111	C	0.394159	0.499943	0.374664
C112	C	0.644159	0.749943	0.624664
C113	C	-0.046455	-0.000043	-0.124627
C114	C	0.203545	0.249957	0.125373
C115	C	0.453545	0.499957	0.375373
C116	C	0.703545	0.749957	0.625373
N117	N	-0.023828	-0.000047	-0.072351
N118	N	0.226172	0.249953	0.177649
N119	N	0.476172	0.499953	0.427649
N120	N	0.726172	0.749953	0.677649
C121	C	-0.060601	-0.000047	-0.020787
C122	C	0.189399	0.249953	0.229213
C123	C	0.439399	0.499953	0.479213
C124	C	0.689399	0.749953	0.729213
C125	C	-0.408784	-0.000039	-0.128968
C126	C	-0.158784	0.249961	0.121032
C127	C	0.091216	0.499961	0.371032
C128	C	0.341216	0.749961	0.621032
C129	C	-0.468182	-0.000031	-0.129681
C130	C	-0.218182	0.249969	0.120319
C131	C	0.031818	0.499969	0.370319
C132	C	0.281818	0.749969	0.620319
C133	C	-0.482329	-0.000033	-0.025836
C134	C	-0.232329	0.249967	0.224164
C135	C	0.017671	0.499967	0.474164
C136	C	0.267671	0.749967	0.724164
C137	C	-0.422930	-0.000037	-0.025124
C138	C	-0.172930	0.249963	0.224876
C139	C	0.077070	0.499963	0.474876
C140	C	0.327070	0.749963	0.724876
C141	C	-0.386158	-0.000042	-0.076692
C142	C	-0.136158	0.249958	0.173308
C143	C	0.113842	0.499958	0.423308
C144	C	0.363842	0.749958	0.673308
C145	C	0.064136	-0.000043	-0.019297
C146	C	0.314136	0.249957	0.230703
C147	C	0.564136	0.499957	0.480703
C148	C	0.814136	0.749957	0.730703
C149	C	0.123538	-0.000038	-0.018590
C150	C	0.373538	0.249962	0.231410
C151	C	0.623538	0.499962	0.481410
C152	C	0.873538	0.749962	0.731410
C153	C	0.137680	-0.000039	-0.122435
C154	C	0.387680	0.249961	0.127565
C155	C	0.637680	0.499961	0.377565
C156	C	0.887680	0.749961	0.627565
C157	C	0.078283	-0.000040	-0.123142
C158	C	0.328283	0.249960	0.126858
C159	C	0.578283	0.499960	0.376858
C160	C	0.828283	0.749960	0.626858
C161	C	0.041512	-0.000044	-0.071568
C162	C	0.291512	0.249956	0.178432
C163	C	0.541512	0.499956	0.428432
C164	C	0.791512	0.749956	0.678432
O165	O	-0.009676	-0.000025	-0.168390
O166	O	0.240324	0.249975	0.081610
O167	O	0.490324	0.499975	0.331610
O168	O	0.740324	0.749975	0.581610
O169	O	-0.035892	-0.000057	0.023736
O170	O	0.214108	0.249943	0.273736
O171	O	0.464108	0.499943	0.523736
O172	O	0.714108	0.749943	0.773736
C173	C	-0.711273	-0.561943	-0.035196
C174	C	-0.461273	-0.311943	0.214804
C175	C	-0.211273	-0.061943	0.464804
C176	C	0.038727	0.188057	0.714804
C177	C	-0.711276	-0.623863	-0.035192
C178	C	-0.461276	-0.373863	0.214808
C179	C	-0.211276	-0.123863	0.464808
C180	C	0.038724	0.126137	0.714808
O181	O	-0.744384	-0.655884	-0.002076
O182	O	-0.494384	-0.405884	0.247924
O183	O	-0.244384	-0.155884	0.497924
O184	O	0.005616	0.094116	0.747924
N185	N	-0.672334	-0.654837	-0.074115
N186	N	-0.422334	-0.404837	0.175885
N187	N	-0.172334	-0.154837	0.425885
N188	N	0.077666	0.095163	0.675885
C189	C	-0.633383	-0.623887	-0.113041
C190	C	-0.383383	-0.373887	0.136959
C191	C	-0.133383	-0.123887	0.386959
C192	C	0.116617	0.126113	0.636959
O193	O	-0.600261	-0.655919	-0.146148
O194	O	-0.350261	-0.405919	0.103852
O195	O	-0.100261	-0.155919	0.353852
O196	O	0.149739	0.094081	0.603852
C197	C	-0.633378	-0.561969	-0.113042
C198	C	-0.383378	-0.311969	0.136958
C199	C	-0.133378	-0.061969	0.386958
C200	C	0.116622	0.188031	0.636958
C201	C	-0.672326	-0.530998	-0.074120
C202	C	-0.422326	-0.280998	0.175880
C203	C	-0.172326	-0.030998	0.425880
C204	C	0.077674	0.219002	0.675880
C205	C	-0.750217	-0.530973	0.003723
C206	C	-0.500217	-0.280973	0.253723
C207	C	-0.250217	-0.030973	0.503723
C208	C	-0.000217	0.219027	0.753723
C209	C	-0.750215	-0.469057	0.003718
C210	C	-0.500215	-0.219057	0.253718
C211	C	-0.250215	0.030943	0.503718
C212	C	-0.000215	0.280943	0.753718
C213	C	-0.711268	-0.438112	-0.035206
C214	C	-0.461268	-0.188112	0.214794
C215	C	-0.211268	0.061888	0.464794
C216	C	0.038732	0.311888	0.714794
C217	C	-0.672324	-0.469083	-0.074125
C218	C	-0.422324	-0.219083	0.175875
C219	C	-0.172324	0.030917	0.425875
C220	C	0.077676	0.280917	0.675875
C221	C	-0.594425	-0.531020	-0.151965
C222	C	-0.344425	-0.281020	0.098035
C223	C	-0.094425	-0.031020	0.348035
C224	C	0.155575	0.218980	0.598035
C225	C	-0.594423	-0.469097	-0.151962
C226	C	-0.344423	-0.219097	0.098038
C227	C	-0.094423	0.030903	0.348038
C228	C	0.155577	0.280903	0.598038
C229	C	-0.633371	-0.438127	-0.113040
C230	C	-0.383371	-0.188127	0.136960
C231	C	-0.133371	0.061873	0.386960
C232	C	0.116629	0.311873	0.636960
C233	C	-0.633375	-0.376222	-0.113054
C234	C	-0.383375	-0.126222	0.136946
C235	C	-0.133375	0.123778	0.386946
C236	C	0.116625	0.373778	0.636946
N237	N	-0.672316	-0.345248	-0.074131
N238	N	-0.422316	-0.095248	0.175869
N239	N	-0.172316	0.154752	0.425869
N240	N	0.077684	0.404752	0.675869
C241	C	-0.711263	-0.376193	-0.035207
C242	C	-0.461263	-0.126193	0.214793
C243	C	-0.211263	0.123807	0.464793
C244	C	0.038737	0.373807	0.714793
C245	C	-0.633397	-0.753921	-0.113036
C246	C	-0.383397	-0.503921	0.136964
C247	C	-0.133397	-0.253921	0.386964
C248	C	0.116603	-0.003921	0.636964
C249	C	-0.633404	-0.815839	-0.113038
C250	C	-0.383404	-0.565839	0.136962
C251	C	-0.133404	-0.315839	0.386962
C252	C	0.116596	-0.065839	0.636962
C253	C	-0.711296	-0.815810	-0.035188
C254	C	-0.461296	-0.565810	0.214812
C255	C	-0.211296	-0.315810	0.464812
C256	C	0.038704	-0.065810	0.714812
C257	C	-0.711291	-0.753892	-0.035189
C258	C	-0.461291	-0.503892	0.214811
C259	C	-0.211291	-0.253892	0.464811
C260	C	0.038709	-0.003892	0.714811
C261	C	-0.672338	-0.722947	-0.074112
C262	C	-0.422338	-0.472947	0.175888
C263	C	-0.172338	-0.222947	0.425888
C264	C	0.077662	0.027053	0.675888
C265	C	-0.711256	-0.246166	-0.035221
C266	C	-0.461256	0.003834	0.214779
C267	C	-0.211256	0.253834	0.464779
C268	C	0.038744	0.503834	0.714779
C269	C	-0.711251	-0.184245	-0.035231
C270	C	-0.461251	0.065755	0.214769
C271	C	-0.211251	0.315755	0.464769
C272	C	0.038749	0.565755	0.714769
C273	C	-0.633358	-0.184279	-0.113079
C274	C	-0.383358	0.065721	0.136921
C275	C	-0.133358	0.315721	0.386921
C276	C	0.116642	0.565721	0.636921
C277	C	-0.633364	-0.246194	-0.113071
C278	C	-0.383364	0.003806	0.136929
C279	C	-0.133364	0.253806	0.386929
C280	C	0.116636	0.503806	0.636929
C281	C	-0.672315	-0.277137	-0.074137
C282	C	-0.422315	-0.027137	0.175863
C283	C	-0.172315	0.222863	0.425863
C284	C	0.077685	0.472863	0.675863
O285	O	-0.600282	-0.344162	-0.146152
O286	O	-0.350282	-0.094162	0.103848
O287	O	-0.100282	0.155838	0.353848
O288	O	0.149718	0.405838	0.603848
O289	O	-0.744376	-0.344155	-0.002101
O290	O	-0.494376	-0.094155	0.247899
O291	O	-0.244376	0.155845	0.497899
O292	O	0.005624	0.405845	0.747899
C293	C	0.223528	-0.000047	-0.069389
C294	C	0.473528	0.249953	0.180611
C295	C	0.723528	0.499953	0.430611
C296	C	0.973528	0.749953	0.680611
C297	C	0.160311	-0.000039	-0.070154
C298	C	0.410311	0.249961	0.179846
C299	C	0.660311	0.499961	0.429846
C300	C	0.910311	0.749961	0.679846
C301	C	-0.677071	-0.000043	0.030012
C302	C	-0.427071	0.249957	0.280012
C303	C	-0.177071	0.499957	0.530012
C304	C	0.072929	0.749957	0.780012
C305	C	-0.676304	-0.000038	0.093229
C306	C	-0.426304	0.249962	0.343229
C307	C	-0.176304	0.499962	0.593229
C308	C	0.073696	0.749962	0.843229
N309	N	-0.672349	0.153211	-0.074111
N310	N	-0.422349	0.403211	0.175889
N311	N	-0.172349	0.653211	0.425889
N312	N	0.077651	0.903211	0.675889
C313	C	-0.667578	-0.000045	-0.178283
C314	C	-0.417578	0.249955	0.071717
C315	C	-0.167578	0.499955	0.321717
C316	C	0.082422	0.749955	0.571717
C317	C	-0.668345	-0.000046	-0.241500
C318	C	-0.418345	0.249954	0.008500
C319	C	-0.168345	0.499954	0.258500
C320	C	0.081655	0.749954	0.508500
C321	C	-0.673054	0.053586	0.366481
C322	C	-0.423054	0.303586	0.616481
C323	C	-0.173054	0.553586	0.866481
C324	C	0.076946	0.803586	1.116481
C325	C	-0.673765	0.053586	0.307081
C326	C	-0.423765	0.303586	0.557081
C327	C	-0.173765	0.553586	0.807081
C328	C	0.076235	0.803586	1.057081
O329	O	-0.674161	0.099187	0.276362
O330	O	-0.424161	0.349187	0.526362
O331	O	-0.174161	0.599187	0.776362
O332	O	0.075839	0.849187	1.026362
N333	N	-0.674109	-0.000036	0.277372
N334	N	-0.424109	0.249964	0.527372
N335	N	-0.174109	0.499964	0.777372
N336	N	0.075891	0.749964	1.027372
C337	C	-0.673747	-0.053662	0.307067
C338	C	-0.423747	0.196338	0.557067
C339	C	-0.173747	0.446338	0.807067
C340	C	0.076253	0.696338	1.057067
O341	O	-0.674105	-0.099271	0.276343
O342	O	-0.424105	0.150729	0.526343
O343	O	-0.174105	0.400729	0.776343
O344	O	0.075895	0.650729	1.026343
C345	C	-0.673040	-0.053661	0.366466
C346	C	-0.423040	0.196339	0.616466
C347	C	-0.173040	0.446339	0.866466
C348	C	0.076960	0.696339	1.116466
C349	C	-0.672690	-0.000036	0.396172
C350	C	-0.422690	0.249964	0.646172
C351	C	-0.172690	0.499964	0.896172
C352	C	0.077310	0.749964	1.146172
C353	C	-0.672705	0.107207	0.396187
C354	C	-0.422705	0.357207	0.646187
C355	C	-0.172705	0.607207	0.896187
C356	C	0.077295	0.857207	1.146187
C357	C	-0.671992	0.107206	0.455583
C358	C	-0.421992	0.357206	0.705583
C359	C	-0.171992	0.607206	0.955583
C360	C	0.078008	0.857206	1.205583
C361	C	-0.671628	0.053585	0.485273
C362	C	-0.421628	0.303585	0.735273
C363	C	-0.171628	0.553585	0.985273
C364	C	0.078372	0.803585	1.235273
C365	C	-0.671977	-0.000036	0.455568
C366	C	-0.421977	0.249964	0.705568
C367	C	-0.171977	0.499964	0.955568
C368	C	0.078023	0.749964	1.205568
C369	C	-0.672682	-0.107286	0.396161
C370	C	-0.422682	0.142714	0.646161
C371	C	-0.172682	0.392714	0.896161
C372	C	0.077318	0.642714	1.146161
C373	C	-0.671974	-0.107281	0.455565
C374	C	-0.421974	0.142719	0.705565
C375	C	-0.171974	0.392719	0.955565
C376	C	0.078026	0.642719	1.205565
C377	C	-0.671625	-0.053656	0.485270
C378	C	-0.421625	0.196344	0.735270
C379	C	-0.171625	0.446344	0.985270
C380	C	0.078375	0.696344	1.235270
C381	C	-0.670901	-0.053658	0.544654
C382	C	-0.420901	0.196342	0.794654
C383	C	-0.170901	0.446342	1.044654
C384	C	0.079099	0.696342	1.294654
N385	N	-0.670557	-0.000036	0.574363
N386	N	-0.420557	0.249964	0.824363
N387	N	-0.170557	0.499964	1.074363
N388	N	0.079443	0.749964	1.324363
C389	C	-0.670921	0.053586	0.544673
C390	C	-0.420921	0.303586	0.794673
C391	C	-0.170921	0.553586	1.044673
C392	C	0.079079	0.803586	1.294673
C393	C	-0.675234	-0.053659	0.182324
C394	C	-0.425234	0.196341	0.432324
C395	C	-0.175234	0.446341	0.682324
C396	C	0.074766	0.696341	0.932324
C397	C	-0.675937	-0.053660	0.122924
C398	C	-0.425937	0.196340	0.372924
C399	C	-0.175937	0.446340	0.622924
C400	C	0.074063	0.696340	0.872924
C401	C	-0.675957	0.053588	0.122943
C402	C	-0.425957	0.303588	0.372943
C403	C	-0.175957	0.553588	0.622943
C404	C	0.074043	0.803588	0.872943
C405	C	-0.675249	0.053588	0.182343
C406	C	-0.425249	0.303588	0.432343
C407	C	-0.175249	0.553588	0.682343
C408	C	0.074751	0.803588	0.932343
C409	C	-0.674890	-0.000037	0.212033
C410	C	-0.424890	0.249963	0.462033
C411	C	-0.174890	0.499963	0.712033
C412	C	0.075110	0.749963	0.962033
C413	C	-0.669424	0.053581	0.669409
C414	C	-0.419424	0.303581	0.919409
C415	C	-0.169424	0.553581	1.169409
C416	C	0.080576	0.803581	1.419409
C417	C	-0.668709	0.053576	0.728809
C418	C	-0.418709	0.303576	0.978809
C419	C	-0.168709	0.553576	1.228809
C420	C	0.081291	0.803576	1.478809
C421	C	-0.668692	-0.053672	0.728786
C422	C	-0.418692	0.196328	0.978786
C423	C	-0.168692	0.446328	1.228786
C424	C	0.081308	0.696328	1.478786
C425	C	-0.669404	-0.053667	0.669390
C426	C	-0.419404	0.196333	0.919390
C427	C	-0.169404	0.446333	1.169390
C428	C	0.080596	0.696333	1.419390
C429	C	-0.669772	-0.000036	0.639703
C430	C	-0.419772	0.249964	0.889703
C431	C	-0.169772	0.499964	1.139703
C432	C	0.080228	0.749964	1.389703
O433	O	-0.670508	-0.099235	0.575411
O434	O	-0.420508	0.150765	0.825411
O435	O	-0.170508	0.400765	1.075411
O436	O	0.079492	0.650765	1.325411
O437	O	-0.670570	0.099188	0.575405
O438	O	-0.420570	0.349188	0.825405
O439	O	-0.170570	0.599188	1.075405
O440	O	0.079430	0.849188	1.325405
H441	H	0.141954	-0.000035	0.023984
H442	H	0.391954	0.249965	0.273984
H443	H	0.641954	0.499965	0.523984
H444	H	0.891954	0.749965	0.773984
N445	N	-0.673066	-0.165128	0.364136
N446	N	-0.423066	0.084872	0.614136
N447	N	-0.173066	0.334872	0.864136
N448	N	0.076934	0.584872	1.114136
H449	H	-0.708670	-0.167519	0.344303
H450	H	-0.458670	0.082481	0.594303
H451	H	-0.208670	0.332481	0.844303
H452	H	0.041330	0.582481	1.094303
H453	H	-0.638030	-0.167493	0.334709
H454	H	-0.388030	0.082507	0.584709
H455	H	-0.138030	0.332507	0.834709
H456	H	0.111970	0.582507	1.084709
H457	H	-0.676211	-0.097327	0.098742
H458	H	-0.426211	0.152673	0.348742
H459	H	-0.176211	0.402673	0.598742
H460	H	0.073789	0.652673	0.848742
N461	N	-0.398537	-0.000043	0.031266
N462	N	-0.148537	0.249957	0.281266
N463	N	0.101463	0.499957	0.531266
N464	N	0.351463	0.749957	0.781266
H465	H	-0.374209	-0.036512	0.033872
H466	H	-0.124209	0.213488	0.283872
H467	H	0.125791	0.463488	0.533872
H468	H	0.375791	0.713488	0.783872
H469	H	-0.374237	0.036443	0.033853
H470	H	-0.124237	0.286443	0.283853
H471	H	0.125763	0.536443	0.533853
H472	H	0.375763	0.786443	0.783853
N473	N	-0.753259	-0.150849	0.006759
N474	N	-0.503259	0.099151	0.256759
N475	N	-0.253259	0.349151	0.506759
N476	N	-0.003259	0.599151	0.756759
H477	H	-0.731639	-0.125158	0.031864
H478	H	-0.481639	0.124842	0.281864
H479	H	-0.231639	0.374842	0.531864
H480	H	0.018361	0.624842	0.781864
H481	H	-0.778344	-0.125193	-0.014913
H482	H	-0.528344	0.124807	0.235087
H483	H	-0.278344	0.374807	0.485087
H484	H	-0.028344	0.624807	0.735087
N485	N	-0.521996	-0.000033	0.029782
N486	N	-0.271996	0.249967	0.279782
N487	N	-0.021996	0.499967	0.529782
N488	N	0.228004	0.749967	0.779782
H489	H	-0.563057	-0.000034	0.021393
H490	H	-0.313057	0.249966	0.271393
H491	H	-0.063057	0.499966	0.521393
H492	H	0.186943	0.749966	0.771393
H493	H	-0.514703	-0.036501	0.052574
H494	H	-0.264703	0.213499	0.302574
H495	H	-0.014703	0.463499	0.552574
H496	H	0.235297	0.713499	0.802574
N497	N	-0.492580	-0.000018	-0.186068
N498	N	-0.242580	0.249982	0.063932
N499	N	0.007420	0.499982	0.313932
N500	N	0.257420	0.749982	0.563932
H501	H	-0.460266	-0.000016	-0.218622
H502	H	-0.210266	0.249984	0.031378
H503	H	0.039734	0.499984	0.281378
H504	H	0.289734	0.749984	0.531378
H505	H	-0.516913	-0.036483	-0.188636
H506	H	-0.266913	0.213517	0.061364
H507	H	-0.016913	0.463517	0.311364
H508	H	0.233087	0.713517	0.561364
H509	H	-0.743005	-0.728679	-0.003495
H510	H	-0.493005	-0.478679	0.246505
H511	H	-0.243005	-0.228679	0.496505
H512	H	0.006995	0.021321	0.746505
H513	H	-0.742972	-0.271352	-0.003517
H514	H	-0.492972	-0.021352	0.246483
H515	H	-0.242972	0.228648	0.496483
H516	H	0.007028	0.478648	0.746483
H517	H	-0.669724	0.097252	0.645244
H518	H	-0.419724	0.347252	0.895244
H519	H	-0.169724	0.597252	1.145244
H520	H	0.080276	0.847252	1.395244
H521	H	0.034204	-0.000045	0.022699
H522	H	0.284204	0.249955	0.272699
H523	H	0.534204	0.499955	0.522699
H524	H	0.784204	0.749955	0.772699
N525	N	-0.674836	-0.111500	0.214344
N526	N	-0.424836	0.138500	0.464344
N527	N	-0.174836	0.388500	0.714344
N528	N	0.075164	0.638500	0.964344
H529	H	-0.709851	-0.113899	0.243797
H530	H	-0.459851	0.136101	0.493797
H531	H	-0.209851	0.386101	0.743797
H532	H	0.040149	0.636101	0.993797
H533	H	-0.675139	-0.145432	0.186468
H534	H	-0.425139	0.104568	0.436468
H535	H	-0.175139	0.354568	0.686468
H536	H	0.074861	0.604568	0.936468
N537	N	-0.671590	-0.165121	0.487588
N538	N	-0.421590	0.084879	0.737588
N539	N	-0.171590	0.334879	0.987588
N540	N	0.078410	0.584879	1.237588
H541	H	-0.671920	-0.199088	0.459753
H542	H	-0.421920	0.050912	0.709753
H543	H	-0.171920	0.300912	0.959753
H544	H	0.078080	0.550912	1.209753
H545	H	-0.635986	-0.167459	0.507422
H546	H	-0.385986	0.082541	0.757422
H547	H	-0.135986	0.332541	1.007422
H548	H	0.114014	0.582541	1.257422
H549	H	-0.206275	-0.000055	-0.220904
H550	H	0.043725	0.249945	0.029096
H551	H	0.293725	0.499945	0.279096
H552	H	0.543725	0.749945	0.529096
N553	N	0.053882	-0.000038	-0.179529
N554	N	0.303882	0.249962	0.070471
N555	N	0.553882	0.499962	0.320471
N556	N	0.803882	0.749962	0.570471
H557	H	0.029559	-0.036506	-0.182144
H558	H	0.279559	0.213494	0.067856
H559	H	0.529559	0.463494	0.317856
H560	H	0.779559	0.713494	0.567856
H561	H	0.029574	0.036449	-0.182101
H562	H	0.279574	0.286449	0.067899
H563	H	0.529574	0.536449	0.317899
H564	H	0.779574	0.786449	0.567899
N565	N	-0.591399	-0.849239	-0.155021
N566	N	-0.341399	-0.599239	0.094979
N567	N	-0.091399	-0.349239	0.344979
N568	N	0.158601	-0.099239	0.594979
H569	H	-0.566728	-0.820234	-0.179676
H570	H	-0.316728	-0.570234	0.070324
H571	H	-0.066728	-0.320234	0.320324
H572	H	0.183272	-0.070234	0.570324
H573	H	-0.566348	-0.874926	-0.133341
H574	H	-0.316348	-0.624926	0.116659
H575	H	-0.066348	-0.374926	0.366659
H576	H	0.183652	-0.124926	0.616659
N577	N	-0.591383	-0.720548	-0.155022
N578	N	-0.341383	-0.470548	0.094978
N579	N	-0.091383	-0.220548	0.344978
N580	N	0.158617	0.029452	0.594978
H581	H	-0.566717	-0.749569	-0.179676
H582	H	-0.316717	-0.499569	0.070324
H583	H	-0.066717	-0.249569	0.320324
H584	H	0.183283	0.000431	0.570324
H585	H	-0.613036	-0.694857	-0.180093
H586	H	-0.363036	-0.444857	0.069907
H587	H	-0.113036	-0.194857	0.319907
H588	H	0.136964	0.055143	0.569907
H589	H	-0.562710	-0.556228	-0.183658
H590	H	-0.312710	-0.306228	0.066342
H591	H	-0.062710	-0.056228	0.316342
H592	H	0.187290	0.193772	0.566342
H593	H	-0.601654	-0.271411	-0.144770
H594	H	-0.351654	-0.021411	0.105230
H595	H	-0.101654	0.228589	0.355230
H596	H	0.148346	0.478589	0.605230
N597	N	-0.792219	-0.435660	0.045705
N598	N	-0.542219	-0.185660	0.295705
N599	N	-0.292219	0.064340	0.545705
N600	N	-0.042219	0.314340	0.795705
H601	H	-0.786313	-0.391737	0.039803
H602	H	-0.536313	-0.141737	0.289803
H603	H	-0.286313	0.108263	0.539803
H604	H	-0.036313	0.358263	0.789803
H605	H	-0.832581	-0.446482	0.039330
H606	H	-0.582581	-0.196482	0.289330
H607	H	-0.332581	0.053518	0.539330
H608	H	-0.082581	0.303518	0.789330
H609	H	-0.138358	-0.000043	0.072637
H610	H	0.111642	0.249957	0.322637
H611	H	0.361642	0.499957	0.572637
H612	H	0.611642	0.749957	0.822637
H613	H	-0.671712	0.150874	0.479764
H614	H	-0.421712	0.400874	0.729764
H615	H	-0.171712	0.650874	0.979764
H616	H	0.078288	0.900874	1.229764
H617	H	-0.378847	-0.000038	-0.170964
H618	H	-0.128847	0.249962	0.079036
H619	H	0.121153	0.499962	0.329036
H620	H	0.371153	0.749962	0.579036
N621	N	-0.255825	-0.000048	0.084975
N622	N	-0.005825	0.249952	0.334975
N623	N	0.244175	0.499952	0.584975
N624	N	0.494175	0.749952	0.834975
H625	H	-0.232470	-0.000049	0.118194
H626	H	0.017530	0.249951	0.368194
H627	H	0.267530	0.499951	0.618194
H628	H	0.517530	0.749951	0.868194
H629	H	-0.280780	0.036420	0.086951
H630	H	-0.030780	0.286420	0.336951
H631	H	0.219220	0.536420	0.586951
H632	H	0.469220	0.786420	0.836951
N633	N	-0.753307	-0.849191	0.006796
N634	N	-0.503307	-0.599191	0.256796
N635	N	-0.253307	-0.349191	0.506796
N636	N	-0.003307	-0.099191	0.756796
H637	H	-0.731691	-0.874881	0.031904
H638	H	-0.481691	-0.624881	0.281904
H639	H	-0.231691	-0.374881	0.531904
H640	H	0.018309	-0.124881	0.781904
H641	H	-0.777968	-0.820138	0.031413
H642	H	-0.527968	-0.570138	0.281413
H643	H	-0.277968	-0.320138	0.531413
H644	H	-0.027968	-0.070138	0.781413
H645	H	-0.098526	-0.000066	-0.219610
H646	H	0.151474	0.249934	0.030390
H647	H	0.401474	0.499934	0.280390
H648	H	0.651474	0.749934	0.530390
H649	H	-0.562701	-0.443906	-0.183658
H650	H	-0.312701	-0.193906	0.066342
H651	H	-0.062701	0.056094	0.316342
H652	H	0.187299	0.306094	0.566342
N653	N	0.177347	-0.000037	-0.178048
N654	N	0.427347	0.249963	0.071952
N655	N	0.677347	0.499963	0.321952
N656	N	0.927347	0.749963	0.571952
H657	H	0.218407	-0.000038	-0.169660
H658	H	0.468407	0.249962	0.080340
H659	H	0.718407	0.499962	0.330340
H660	H	0.968407	0.749962	0.580340
H661	H	0.170059	-0.036505	-0.200849
H662	H	0.420059	0.213495	0.049151
H663	H	0.670059	0.463495	0.299151
H664	H	0.920059	0.713495	0.549151
N665	N	-0.673099	0.165046	0.364169
N666	N	-0.423099	0.415046	0.614169
N667	N	-0.173099	0.665046	0.864169
N668	N	0.076901	0.915046	1.114169
H669	H	-0.672771	0.199009	0.392009
H670	H	-0.422771	0.449009	0.642009
H671	H	-0.172771	0.699009	0.892009
H672	H	0.077229	0.949009	1.142009
H673	H	-0.638082	0.167387	0.334717
H674	H	-0.388082	0.417387	0.584717
H675	H	-0.138082	0.667387	0.834717
H676	H	0.111918	0.917387	1.084717
H677	H	-0.781933	-0.556163	0.035422
H678	H	-0.531933	-0.306163	0.285422
H679	H	-0.281933	-0.056163	0.535422
H680	H	-0.031933	0.193837	0.785422
H681	H	-0.601649	-0.159074	-0.144772
H682	H	-0.351649	0.090926	0.105228
H683	H	-0.101649	0.340926	0.355228
H684	H	0.148351	0.590926	0.605228
N685	N	-0.668363	0.111417	0.760853
N686	N	-0.418363	0.361417	1.010853
N687	N	-0.168363	0.611417	1.260853
N688	N	0.081637	0.861417	1.510853
H689	H	-0.668715	0.145384	0.733029
H690	H	-0.418715	0.395384	0.983029
H691	H	-0.168715	0.645384	1.233029
H692	H	0.081285	0.895384	1.483029
H693	H	-0.703388	0.113727	0.790298
H694	H	-0.453388	0.363727	1.040298
H695	H	-0.203388	0.613727	1.290298
H696	H	0.046612	0.863727	1.540298
H697	H	-0.674963	0.097255	0.206525
H698	H	-0.424963	0.347255	0.456525
H699	H	-0.174963	0.597255	0.706525
H700	H	0.075037	0.847255	0.956525
H701	H	-0.676251	0.097249	0.098758
H702	H	-0.426251	0.347249	0.348758
H703	H	-0.176251	0.597249	0.598758
H704	H	0.073749	0.847249	0.848758
N705	N	-0.669770	-0.111503	0.637345
N706	N	-0.419770	0.138497	0.887345
N707	N	-0.169770	0.388497	1.137345
N708	N	0.080230	0.638497	1.387345
H709	H	-0.669428	-0.145472	0.665169
H710	H	-0.419428	0.104528	0.915169
H711	H	-0.169428	0.354528	1.165169
H712	H	0.080572	0.604528	1.415169
H713	H	-0.705376	-0.113844	0.617514
H714	H	-0.455376	0.136156	0.867514
H715	H	-0.205376	0.386156	1.117514
H716	H	0.044624	0.636156	1.367514
N717	N	-0.668309	-0.111504	0.760817
N718	N	-0.418309	0.138496	1.010817
N719	N	-0.168309	0.388496	1.260817
N720	N	0.081691	0.638496	1.510817
H721	H	-0.667811	-0.103362	0.802953
H722	H	-0.417811	0.146638	1.052953
H723	H	-0.167811	0.396638	1.302953
H724	H	0.082189	0.646638	1.552953
H725	H	-0.703745	-0.134912	0.755239
H726	H	-0.453745	0.115088	1.005239
H727	H	-0.203745	0.365088	1.255239
H728	H	0.046255	0.615088	1.505239
