data_functionalizedCrystal
_audit_creation_method	'MofGen! by Chris Wilmer'
_symmetry_space_group_name_H-M	'P1'
_symmetry_Int_Tables_number	1
_symmetry_cell_setting	triclinic
loop_
_symmetry_equiv_pos_as_xyz
  x,y,z
_cell_length_a	12.645331
_cell_length_b	10.686285
_cell_length_c	10.686551
_cell_angle_alpha	80.915481
_cell_angle_beta	85.602654
_cell_angle_gamma	85.630546
loop_
_atom_site_label
_atom_site_type_symbol
_atom_site_fract_x
_atom_site_fract_y
_atom_site_fract_z
Zn1	Zn	1.693603	-0.450199	-0.679057
Zn2	Zn	1.693517	-0.678779	-0.450555
Zn3	Zn	1.503688	-0.466549	-0.466813
Zn4	Zn	1.528956	-0.662392	-0.662754
O5	O	1.604941	-0.564480	-0.564795
O6	O	1.841941	-0.480535	-0.648765
O7	O	1.657725	-0.664326	-0.275081
O8	O	1.518341	-0.286757	-0.508595
O9	O	1.841878	-0.648472	-0.480885
O10	O	1.657871	-0.274745	-0.664530
O11	O	1.518258	-0.508401	-0.287026
O12	O	1.358690	-0.492512	-0.492786
O13	O	1.561408	-0.620544	-0.842547
O14	O	1.377255	-0.636398	-0.636743
O15	O	1.682373	-0.464647	-0.854525
O16	O	1.682227	-0.854228	-0.465076
O17	O	1.561325	-0.842189	-0.620978
C18	C	1.624539	-0.894262	-0.539521
C19	C	1.633023	-1.035341	-0.528751
C20	C	1.329507	-0.564452	-0.564760
C21	C	1.211679	-0.564469	-0.564773
C22	C	1.032406	-0.473458	-0.474786
C23	C	1.154955	-0.473746	-0.474337
C24	C	1.172962	-0.700987	-0.517996
C25	C	1.050292	-0.700500	-0.517372
C26	C	1.050507	-0.520205	-0.701818
C27	C	1.172890	-0.517276	-0.701300
C28	C	1.881450	-0.564508	-0.564830
C29	C	1.999282	-0.564520	-0.564845
C30	C	1.624719	-0.538944	-0.895881
C31	C	1.633147	-0.528062	-1.036971
C32	C	1.585297	-0.233407	-0.590195
C33	C	1.576926	-0.092324	-0.601019
C34	C	1.585296	-0.589824	-0.235003
C35	C	1.577052	-0.600349	-0.093942
H36	H	1.687534	-1.094492	-0.458626
H37	H	1.197763	-0.416763	-0.736387
H38	H	1.687628	-0.457850	-1.096140
H39	H	1.522410	-1.033182	-0.671132
N40	N	1.208217	-0.749727	-0.386301
H41	H	1.249258	-0.683594	-0.356741
H42	H	1.143788	-0.767913	-0.326074
N43	N	1.504875	-0.693345	-1.015599
H44	H	1.528071	-0.782287	-1.031647
H45	H	1.508898	-0.688091	-0.922565
H46	H	1.210729	-0.771095	-0.581083
N47	N	0.987292	-0.339419	-0.514865
H48	H	1.009486	-0.282549	-0.455844
H49	H	1.015008	-0.307902	-0.604583
N50	N	1.188807	-0.340080	-0.514718
H51	H	1.124071	-0.280440	-0.532971
H52	H	1.226772	-0.313487	-0.444370
H53	H	1.017519	-0.736872	-0.416933
H54	H	0.996992	-0.503280	-0.374097
H55	H	1.029224	-0.771198	-0.579550
N56	N	1.187675	-0.513628	-0.340165
H57	H	1.122454	-0.531099	-0.281083
H58	H	1.236756	-0.593068	-0.336161
H59	H	1.015872	-0.421852	-0.742383
H60	H	1.212079	-0.577940	-0.772817
H61	H	1.030140	-0.586406	-0.769046
