data_functionalizedCrystal
_audit_creation_method	'MofGen! by Chris Wilmer'
_symmetry_space_group_name_H-M	'P1'
_symmetry_Int_Tables_number	1
_symmetry_cell_setting	triclinic
loop_
_symmetry_equiv_pos_as_xyz
  x,y,z
_cell_length_a	17.699083
_cell_length_b	7.088929
_cell_length_c	17.699083
_cell_angle_alpha	96.211898
_cell_angle_beta	83.283015
_cell_angle_gamma	83.803027
loop_
_atom_site_label
_atom_site_type_symbol
_atom_site_fract_x
_atom_site_fract_y
_atom_site_fract_z
O1	O	0.996305	0.158727	0.103493
O2	O	1.496305	0.658727	0.603493
O3	O	0.775923	0.158790	0.115949
O4	O	1.275923	0.658790	0.615949
O5	O	0.892341	0.158740	-0.000469
O6	O	1.392341	0.658740	0.499531
O7	O	0.879887	0.158777	0.219911
O8	O	1.379887	0.658777	0.719911
O9	O	0.907899	-0.159242	-0.016062
O10	O	1.407899	0.340758	0.483938
O11	O	0.791481	-0.159192	0.100355
O12	O	1.291481	0.340808	0.600355
O13	O	1.011863	-0.159255	0.087900
O14	O	1.511863	0.340745	0.587900
Cu15	Cu	0.903093	-0.188258	0.092704
Cu16	Cu	1.403093	0.311742	0.592704
Cu17	Cu	0.884693	0.187792	0.111145
Cu18	Cu	1.384693	0.687792	0.611145
O19	O	0.895445	-0.159205	0.204318
O20	O	1.395445	0.340795	0.704318
C21	C	0.755505	-0.000193	0.107706
C22	C	1.255505	0.499807	0.607706
C23	C	0.671486	-0.000170	0.106369
C24	C	1.171486	0.499830	0.606369
N25	N	0.916039	-0.452752	0.079733
N26	N	1.416039	0.047248	0.579733
C27	C	0.622864	-0.000159	0.174703
C28	C	1.122864	0.499841	0.674703
C29	C	0.543922	-0.000184	0.173439
C30	C	1.043922	0.499816	0.673439
C31	C	0.513602	-0.000206	0.103842
C32	C	1.013602	0.499794	0.603842
C33	C	0.562230	-0.000223	0.035502
C34	C	1.062230	0.499777	0.535502
C35	C	0.641172	-0.000211	0.036766
C36	C	1.141172	0.499789	0.536766
C37	C	0.243870	-0.000271	0.030405
C38	C	0.743870	0.499729	0.530405
C39	C	0.164922	-0.000276	0.029146
C40	C	0.664922	0.499724	0.529146
C41	C	0.146620	-0.000243	0.167078
C42	C	0.646620	0.499757	0.667078
C43	C	0.225561	-0.000232	0.168342
C44	C	0.725561	0.499768	0.668342
C45	C	0.274183	-0.000259	0.100002
C46	C	0.774183	0.499741	0.600002
C47	C	0.359781	-0.000235	0.101373
C48	C	0.859781	0.499765	0.601373
C49	C	0.428005	-0.000216	0.102471
C50	C	0.928005	0.499784	0.602471
C51	C	1.032281	-0.000268	0.096142
C52	C	1.532281	0.499732	0.596142
C53	C	1.116300	-0.000279	0.097481
C54	C	1.616300	0.499721	0.597481
C55	C	0.899674	-0.000252	-0.036463
C56	C	1.399674	0.499748	0.463537
C57	C	0.898335	-0.000252	-0.120481
C58	C	1.398335	0.499748	0.379519
N59	N	0.871753	0.452286	0.124109
N60	N	1.371753	0.952286	0.624109
C61	C	0.966670	-0.000274	-0.169103
C62	C	1.466670	0.499726	0.330897
C63	C	0.965407	-0.000257	-0.248045
C64	C	1.465407	0.499743	0.251955
C65	C	0.895809	-0.000231	-0.278365
C66	C	1.395809	0.499769	0.221635
C67	C	0.827469	-0.000203	-0.229736
C68	C	1.327469	0.499797	0.270264
C69	C	0.828732	-0.000207	-0.150795
C70	C	1.328732	0.499793	0.349205
C71	C	0.822373	-0.000186	-0.548099
C72	C	1.322373	0.499814	-0.048099
C73	C	0.821115	-0.000188	-0.627047
C74	C	1.321115	0.499812	-0.127047
C75	C	0.959047	-0.000236	-0.645349
C76	C	1.459047	0.499764	-0.145349
C77	C	0.960311	-0.000240	-0.566408
C78	C	1.460311	0.499760	-0.066408
C79	C	0.891971	-0.000202	-0.517786
C80	C	1.391971	0.499798	-0.017786
C81	C	0.893341	-0.000217	-0.432187
C82	C	1.393341	0.499783	0.067813
C83	C	0.894439	-0.000230	-0.363963
C84	C	1.394439	0.499770	0.136037
C85	C	0.888112	-0.000210	0.240312
C86	C	1.388112	0.499790	0.740312
C87	C	0.889450	-0.000197	0.324330
C88	C	1.389450	0.499803	0.824330
H89	H	0.647544	-0.000139	0.231377
H90	H	1.147544	0.499861	0.731377
H91	H	0.770801	-0.000170	-0.254428
H92	H	1.270801	0.499830	0.245572
N93	N	0.976850	-0.560919	0.018822
N94	N	1.476850	-0.060919	0.518822
H95	H	0.975940	-0.702869	0.019742
H96	H	1.475940	-0.202869	0.519742
H97	H	0.966437	-0.526044	-0.033143
H98	H	1.466437	-0.026044	0.466857
H99	H	0.825855	-0.466048	0.170096
H100	H	1.325855	0.033952	0.670096
N101	N	0.755029	-0.000171	-0.098348
N102	N	1.255029	0.499829	0.401652
H103	H	0.710747	-0.000156	-0.129532
H104	H	1.210747	0.499844	0.370468
H105	H	0.758313	-0.118047	-0.070977
H106	H	1.258313	0.381953	0.429023
H107	H	0.504337	-0.000173	0.229084
H108	H	1.004337	0.499827	0.729084
H109	H	1.021052	-0.000279	-0.287631
H110	H	1.521052	0.499721	0.212369
N111	N	0.748666	-0.000153	-0.495665
N112	N	1.248666	0.499847	0.004335
H113	H	0.760020	-0.000144	-0.441054
H114	H	1.260020	0.499856	0.058946
H115	H	0.712567	0.117741	-0.499691
H116	H	1.212567	0.617741	0.000309
H117	H	1.023345	-0.000307	-0.144424
H118	H	1.523345	0.499693	0.355576
H119	H	0.250242	-0.000205	0.225015
H120	H	0.750242	0.499795	0.725015
H121	H	0.107023	-0.000232	0.222723
H122	H	0.607023	0.499768	0.722723
H123	H	0.140239	-0.000297	-0.027532
H124	H	0.640239	0.499703	0.472468
N125	N	1.035380	-0.000263	-0.533713
N126	N	1.535380	0.499737	-0.033713
H127	H	1.033209	0.117610	-0.495584
H128	H	1.533209	0.617610	0.004416
H129	H	1.044706	-0.118220	-0.507194
H130	H	1.544706	0.381780	-0.007194
H131	H	1.014693	-0.000258	-0.684947
H132	H	1.514693	0.499742	-0.184947
H133	H	0.283448	-0.000294	-0.025242
H134	H	0.783448	0.499706	0.474758
H135	H	0.537539	-0.000268	-0.021167
H136	H	1.037539	0.499732	0.478833
N137	N	0.693613	-0.000234	-0.036940
N138	N	1.193613	0.499766	0.463060
H139	H	0.678105	0.117632	-0.061534
H140	H	1.178105	0.617632	0.438466
H141	H	0.748205	-0.000304	-0.025523
H142	H	1.248205	0.499696	0.474477
N143	N	0.746046	-0.000171	-0.659752
N144	N	1.246046	0.499829	-0.159752
H145	H	0.702944	-0.000146	-0.616972
H146	H	1.202944	0.499854	-0.116972
H147	H	0.736755	0.117704	-0.686327
H148	H	1.236755	0.617704	-0.186327
