data_functionalizedCrystal
_audit_creation_method	'MofGen! by Chris Wilmer'
_symmetry_space_group_name_H-M	'P1'
_symmetry_Int_Tables_number	1
_symmetry_cell_setting	triclinic
loop_
_symmetry_equiv_pos_as_xyz
  x,y,z
_cell_length_a	13.032831
_cell_length_b	15.297327
_cell_length_c	13.033109
_cell_angle_alpha	107.902170
_cell_angle_beta	76.665514
_cell_angle_gamma	93.742008
loop_
_atom_site_label
_atom_site_type_symbol
_atom_site_fract_x
_atom_site_fract_y
_atom_site_fract_z
Zn1	Zn	1.587185	-0.634181	-0.919127
Zn2	Zn	1.541562	-0.763090	-0.764422
Zn3	Zn	1.394822	-0.590304	-0.711221
Zn4	Zn	1.386591	-0.763011	-0.919452
O5	O	1.477540	-0.687646	-0.828556
O6	O	1.726493	-0.669677	-0.920734
O7	O	1.506448	-0.721840	-0.605475
O8	O	1.442878	-0.469897	-0.716400
O9	O	1.692974	-0.764386	-0.807073
O10	O	1.584206	-0.502133	-0.869147
O11	O	1.398639	-0.594895	-0.566389
O12	O	1.248370	-0.594818	-0.716715
O13	O	1.428848	-0.764251	-1.071299
O14	O	1.242322	-0.721705	-0.869701
O15	O	1.576224	-0.669600	-1.071060
O16	O	1.498466	-0.889307	-0.807388
O17	O	1.384610	-0.889249	-0.921288
C18	C	1.207656	-0.653492	-0.787471
C19	C	1.092197	-0.638905	-0.769925
C20	C	1.435725	-0.922014	-0.870174
C21	C	1.417935	-1.022293	-0.888029
C22	C	1.037731	-0.695259	-0.837713
C23	C	0.918398	-0.680185	-0.819580
C24	C	1.605153	-1.305013	-0.701377
C25	C	1.621867	-1.210795	-0.684595
C26	C	1.570886	-1.163665	-0.735453
C27	C	1.503187	-1.210763	-0.803094
C28	C	1.486466	-1.304989	-0.819870
C29	C	1.452198	-1.163641	-0.853946
C30	C	1.384500	-1.210738	-0.921587
C31	C	1.367782	-1.304955	-0.938361
C32	C	1.418763	-1.352085	-0.887504
C33	C	1.468919	-1.069414	-0.837170
C34	C	1.350232	-1.069390	-0.955663
C35	C	1.333519	-1.163608	-0.972444
C36	C	1.748478	-0.721935	-0.869801
C37	C	1.863935	-0.736547	-0.887378
C38	C	1.506707	-0.721811	-1.111664
C39	C	1.519136	-0.736370	-1.232307
C40	C	1.519549	-0.452370	-0.786803
C41	C	1.537451	-0.352110	-0.769010
C42	C	1.471336	-0.680051	-1.266755
C43	C	1.484181	-0.695097	-1.391446
C44	C	1.448557	-0.653557	-0.546547
C45	C	1.436374	-0.638770	-0.425889
H46	H	1.079448	-0.754664	-0.909177
H47	H	1.524040	-1.031076	-0.782095
H48	H	0.876688	-0.620771	-0.748118
C49	C	0.919722	-0.815740	-0.982580
C50	C	1.026986	-0.814967	-0.981623
C51	C	1.078407	-0.887909	-1.069297
H52	H	0.911977	-0.809290	-1.050605
H53	H	0.889596	-0.872200	-0.974665
H54	H	1.057103	-0.758520	-0.989547
H55	H	1.034762	-0.821429	-0.913619
H56	H	1.048281	-0.944370	-1.061382
H57	H	1.070653	-0.881453	-1.137315
H58	H	1.151188	-0.887400	-1.068653
C59	C	1.586553	-0.815389	-1.316109
C60	C	1.668922	-0.780533	-1.382227
C61	C	1.731059	-0.853298	-1.459423
H62	H	1.544454	-0.855008	-1.361361
H63	H	1.614945	-0.848765	-1.278366
H64	H	1.640532	-0.747172	-1.419968
H65	H	1.711046	-0.740922	-1.337006
H66	H	1.759451	-0.886674	-1.421680
H67	H	1.688952	-0.892913	-1.504667
H68	H	1.786959	-0.829658	-1.504287
C69	C	1.036382	-0.559779	-0.674654
C70	C	0.929108	-0.560583	-0.675579
C71	C	0.877658	-0.487715	-0.587817
H72	H	1.066432	-0.503278	-0.682462
H73	H	1.044183	-0.566316	-0.606677
H74	H	0.921313	-0.554038	-0.743540
H75	H	0.899028	-0.617067	-0.667756
H76	H	0.885459	-0.494253	-0.519840
H77	H	0.907717	-0.431220	-0.595633
H78	H	0.804866	-0.488256	-0.588427
H79	H	1.534617	-0.754458	-1.454264
H80	H	1.278397	-1.201969	-1.027518
C81	C	1.588827	-1.061332	-0.717093
C82	C	1.492612	-1.014376	-0.668714
C83	C	1.509107	-0.920102	-0.651769
H84	H	1.617699	-1.050574	-0.786008
H85	H	1.636401	-1.039989	-0.669479
H86	H	1.445055	-1.035712	-0.716326
H87	H	1.463725	-1.025107	-0.599791
H88	H	1.556681	-0.898758	-0.604156
H89	H	1.537981	-0.909353	-0.720688
H90	H	1.443831	-0.888229	-0.618933
H91	H	1.420898	-0.620698	-1.203935
C92	C	1.695452	-1.159837	-0.611176
C93	C	1.736545	-1.221280	-0.570255
C94	C	1.804353	-1.174372	-0.502629
H95	H	1.657500	-1.112390	-0.551190
H96	H	1.751541	-1.133797	-0.653058
H97	H	1.680465	-1.247305	-0.528373
H98	H	1.774515	-1.268728	-0.630215
H99	H	1.860443	-1.148333	-0.544511
H100	H	1.766394	-1.126927	-0.442649
H101	H	1.832251	-1.216056	-0.474863
H102	H	1.385935	-0.579411	-1.363072
C103	C	1.660399	-1.356345	-0.646262
C104	C	1.631262	-1.448938	-0.675432
C105	C	1.682130	-1.496251	-0.624668
H106	H	1.640482	-1.330311	-0.568262
H107	H	1.734595	-1.351675	-0.670059
H108	H	1.557083	-1.453603	-0.651629
H109	H	1.651181	-1.474998	-0.753423
H110	H	1.756325	-1.491581	-0.648465
H111	H	1.662209	-1.470210	-0.546670
H112	H	1.662375	-1.559082	-0.644460
H113	H	1.405161	-1.428807	-0.901166
H114	H	1.308716	-1.031017	-0.997073
C115	C	1.294275	-1.355937	-1.011874
C116	C	1.253226	-1.294506	-1.052846
C117	C	1.185519	-1.341437	-1.120580
H118	H	1.238155	-1.382007	-0.970090
H119	H	1.332323	-1.403368	-1.071830
H120	H	1.215179	-1.247091	-0.992899
H121	H	1.309322	-1.268433	-1.094648
H122	H	1.223567	-1.388868	-1.180536
H123	H	1.129405	-1.367505	-1.078788
H124	H	1.157667	-1.299765	-1.148396
