data_functionalizedCrystal
_audit_creation_method	'MofGen! by Chris Wilmer'
_symmetry_space_group_name_H-M	'P1'
_symmetry_Int_Tables_number	1
_symmetry_cell_setting	triclinic
loop_
_symmetry_equiv_pos_as_xyz
  x,y,z
_cell_length_a	16.992694
_cell_length_b	15.944551
_cell_length_c	16.053802
_cell_angle_alpha	92.564789
_cell_angle_beta	87.249047
_cell_angle_gamma	87.083481
loop_
_atom_site_label
_atom_site_type_symbol
_atom_site_fract_x
_atom_site_fract_y
_atom_site_fract_z
O1	O	1.043704	0.174798	-0.069327
O2	O	0.815419	0.172843	-0.069352
O3	O	0.935795	0.051964	-0.069332
O4	O	0.923328	0.295677	-0.069348
O5	O	0.929169	0.058588	0.069526
O6	O	0.808793	0.179467	0.069506
O7	O	1.037078	0.181422	0.069530
Zn8	Zn	0.921884	0.181497	0.091565
Zn9	Zn	0.930613	0.172769	-0.091386
O10	O	0.916702	0.302301	0.069510
C11	C	0.782894	0.173641	0.000074
C12	C	0.695850	0.166141	0.000065
C13	C	0.645613	0.238506	0.000061
C14	C	0.563826	0.231454	0.000073
C15	C	0.532276	0.152037	0.000083
C16	C	0.582519	0.079667	0.000089
C17	C	0.664305	0.086719	0.000083
C18	C	0.288676	0.122807	0.000107
C19	C	0.206884	0.115759	0.000111
C20	C	0.188196	0.267548	0.000095
C21	C	0.269984	0.274593	0.000084
C22	C	0.320220	0.202223	0.000095
N23	N	0.448677	0.144827	0.000092
N24	N	0.403818	0.209434	0.000092
C25	C	0.931964	0.023948	0.000097
C26	C	0.930413	-0.069402	0.000098
C27	C	0.852090	-0.289513	0.000078
C28	C	0.885194	-0.344825	0.068547
C29	C	0.927606	-0.240317	0.000091
C30	C	0.891744	-0.351338	-0.068356
C31	C	0.924889	-0.405412	0.000081
C32	C	0.960728	-0.294396	0.068617
C33	C	0.967271	-0.300907	-0.068348
C34	C	1.000429	-0.356196	0.000138
C35	C	0.929169	-0.145209	0.000098
C36	C	0.923332	-0.500518	0.000080
C37	C	1.069603	0.180624	0.000103
C38	C	1.156648	0.188124	0.000106
C39	C	0.920533	0.330318	0.000079
C40	C	0.922085	0.423667	0.000073
N41	N	0.915931	0.187453	0.216424
N42	N	0.936572	0.166806	-0.216246
C43	C	0.967170	0.136040	0.260127
C44	C	0.963014	0.140215	0.347533
C45	C	0.907622	0.195808	0.391235
C46	C	0.856378	0.247223	0.347526
C47	C	0.860531	0.243043	0.260121
C48	C	0.889481	0.214042	0.652641
C49	C	0.885333	0.218220	0.740052
C50	C	0.991968	0.111209	0.740053
C51	C	0.996120	0.107038	0.652646
C52	C	0.944873	0.158450	0.608945
N53	N	0.903374	0.200078	0.480578
N54	N	0.949118	0.154175	0.519604
H55	H	0.295666	0.339262	0.000066
H56	H	1.004736	0.098349	0.383115
H57	H	1.033690	0.069351	0.775642
O58	O	0.176141	0.038659	0.000237
C59	C	0.091261	-0.053970	0.072218
C60	C	0.126005	0.033377	0.072171
H61	H	0.050732	-0.058276	0.130379
H62	H	0.056152	-0.063859	0.014147
H63	H	0.141231	-0.104468	0.072186
H64	H	0.076084	0.083929	0.072232
H65	H	0.161135	0.043194	0.130236
O66	O	0.676125	0.315719	0.000087
C67	C	0.648949	0.465524	0.000027
C68	C	0.614293	0.378131	0.000014
H69	H	0.598976	0.516007	-0.000050
H70	H	0.683979	0.475450	0.058149
H71	H	0.689561	0.469805	-0.058075
H72	H	0.573647	0.373788	0.058076
H73	H	0.579310	0.368242	-0.058147
O74	O	0.839670	0.264071	0.610327
C75	C	0.733436	0.370619	0.619558
C76	C	0.789813	0.314019	0.667587
H77	H	0.693101	0.411003	0.665832
H78	H	0.769187	0.412975	0.578646
H79	H	0.696244	0.329730	0.578629
H80	H	0.827018	0.354843	0.708561
H81	H	0.754016	0.271657	0.708446
O82	O	0.777257	-0.254920	0.000185
C83	C	0.638562	-0.279914	0.001007
C84	C	0.723265	-0.319200	0.000900
H85	H	0.594887	-0.331867	0.001568
H86	H	0.626463	-0.236183	0.058843
H87	H	0.631635	-0.242602	-0.057377
H88	H	0.730252	-0.356553	0.059245
H89	H	0.735325	-0.362884	-0.056974
O90	O	0.802533	0.301112	0.390069
C91	C	0.690738	0.316451	0.488729
C92	C	0.751681	0.255327	0.440618
H93	H	0.649598	0.279456	0.529596
H94	H	0.722602	0.362652	0.529692
H95	H	0.654863	0.352498	0.442464
H96	H	0.787573	0.219223	0.486823
H97	H	0.719770	0.209181	0.399642
O98	O	0.712997	0.016337	0.000046
C99	C	0.722905	-0.134957	0.000108
C100	C	0.667674	-0.055317	0.000127
H101	H	0.686282	-0.192909	0.000191
H102	H	0.764413	-0.138283	-0.058020
H103	H	0.758914	-0.132630	0.058204
H104	H	0.631613	-0.057591	-0.057930
H105	H	0.626218	-0.052021	0.058293
H106	H	0.522926	0.290381	0.000068
O107	O	0.139322	0.337777	-0.000020
C108	C	0.039592	0.414503	-0.071979
C109	C	0.094888	0.334916	-0.071948
H110	H	0.003664	0.412224	-0.130136
H111	H	-0.001981	0.417774	-0.013904
H112	H	0.076205	0.472464	-0.071946
H113	H	0.058339	0.276910	-0.072011
H114	H	0.136463	0.331719	-0.130018
H115	H	0.850491	-0.364314	0.126426
O116	O	0.857033	-0.381262	-0.137437
C117	C	0.871832	-0.469709	-0.263486
C118	C	0.911239	-0.435905	-0.185283
H119	H	0.915645	-0.513881	-0.302200
H120	H	0.818023	-0.505324	-0.243788
H121	H	0.852666	-0.414892	-0.302396
H122	H	0.930455	-0.490673	-0.146338
H123	H	0.965014	-0.400266	-0.205039
O124	O	1.008533	-0.277516	-0.137419
C125	C	1.006048	-0.199736	-0.262634
C126	C	0.959240	-0.226150	-0.184426
H127	H	0.966210	-0.158217	-0.300670
H128	H	1.058649	-0.163305	-0.242952
H129	H	1.027930	-0.258190	-0.302210
H130	H	0.937305	-0.167741	-0.144816
H131	H	0.906678	-0.262611	-0.204166
H132	H	0.840224	0.263494	0.775630
H133	H	0.818806	0.284908	0.224539
H134	H	0.989876	-0.269501	0.126566
H135	H	1.063164	-0.385145	0.000184
H136	H	0.329568	0.063878	0.000117
H137	H	1.041224	0.061770	0.617066
O138	O	1.021002	0.081963	0.217808
C139	C	1.126359	-0.023703	0.227044
C140	C	1.065420	0.037491	0.275070
H141	H	1.162298	-0.059662	0.273320
H142	H	1.094491	-0.069970	0.186159
H143	H	1.167439	0.013271	0.186089
H144	H	1.024323	0.000587	0.316071
H145	H	1.097339	0.083758	0.315903
H146	H	0.556825	0.015004	0.000110
