data_functionalizedCrystal
_audit_creation_method	'MofGen! by Chris Wilmer'
_symmetry_space_group_name_H-M	'P1'
_symmetry_Int_Tables_number	1
_symmetry_cell_setting	triclinic
loop_
_symmetry_equiv_pos_as_xyz
  x,y,z
_cell_length_a	34.408637
_cell_length_b	34.407814
_cell_length_c	34.404193
_cell_angle_alpha	60.004510
_cell_angle_beta	60.009006
_cell_angle_gamma	59.994604
loop_
_atom_site_label
_atom_site_type_symbol
_atom_site_fract_x
_atom_site_fract_y
_atom_site_fract_z
O1	O	0.053973	-0.567860	0.474801
O2	O	0.553973	-0.067860	0.974801
O3	O	0.020377	-0.442124	0.382567
O4	O	0.520377	0.057876	0.882567
O5	O	0.100004	-0.521670	0.382483
O6	O	0.600004	-0.021670	0.882483
O7	O	-0.025653	-0.488314	0.474886
O8	O	0.474347	0.011686	0.974886
O9	O	0.126426	-0.495253	0.408816
O10	O	0.626426	0.004747	0.908816
O11	O	0.046800	-0.415707	0.408900
O12	O	0.546800	0.084293	0.908900
O13	O	0.080396	-0.541443	0.501134
O14	O	0.580396	-0.041443	1.001134
Zn15	Zn	0.067793	-0.474381	0.459198
Zn16	Zn	0.567793	0.025619	0.959198
Zn17	Zn	0.032980	-0.509186	0.424503
Zn18	Zn	0.532980	-0.009186	0.924503
O19	O	0.000769	-0.461897	0.501219
O20	O	0.500769	0.038103	1.001219
N21	N	0.091552	-0.450631	0.482879
N22	N	0.591552	0.049369	0.982879
N23	N	0.009225	-0.532940	0.400823
N24	N	0.509225	-0.032940	0.900823
C25	C	0.142848	-0.268847	0.534081
C26	C	0.642848	0.231153	1.034081
C27	C	0.142979	-0.399386	0.664559
C28	C	0.642979	0.100614	1.164559
C29	C	0.142862	-0.399365	0.534081
C30	C	0.642862	0.100635	1.034081
C31	C	0.273409	-0.399338	0.533986
C32	C	0.773409	0.100662	1.033986
C33	C	0.157225	-0.311914	0.548422
C34	C	0.657225	0.188086	1.048422
C35	C	0.157300	-0.385019	0.621491
C36	C	0.657300	0.114981	1.121491
C37	C	0.230339	-0.384991	0.548370
C38	C	0.730339	0.115009	1.048370
C39	C	0.157235	-0.385007	0.548422
C40	C	0.657235	0.114993	1.048422
C41	C	0.124548	-0.214028	0.515827
C42	C	0.624548	0.285972	1.015827
C43	C	0.124571	-0.417639	0.515827
C44	C	0.624571	0.082361	1.015827
C45	C	0.175526	-0.366733	0.566676
C46	C	0.675526	0.133267	1.066676
C47	C	0.353121	-0.385580	0.491988
C48	C	0.853121	0.114420	0.991988
C49	C	0.402952	-0.402180	0.475348
C50	C	0.902952	0.097820	0.975348
C51	C	0.402981	-0.482812	0.506096
C52	C	0.902981	0.017188	1.006096
C53	C	0.353151	-0.466211	0.522737
C54	C	0.853151	0.033789	1.022737
C55	C	0.136544	-0.189099	0.466839
C56	C	0.636544	0.310901	0.966839
C57	C	0.119905	-0.139265	0.450247
C58	C	0.619905	0.360735	0.950247
C59	C	0.079280	-0.139291	0.531632
C60	C	0.579280	0.360709	1.031632
C61	C	0.095918	-0.189125	0.548224
C62	C	0.595918	0.310875	1.048224
C63	C	0.075577	-0.405615	0.527900
C64	C	0.575577	0.094385	1.027900
C65	C	0.058953	-0.422228	0.511301
C66	C	0.558953	0.077772	1.011301
C67	C	0.140315	-0.462889	0.470566
C68	C	0.640315	0.037111	0.970566
C69	C	0.156941	-0.446276	0.487159
C70	C	0.656941	0.053724	0.987159
C71	C	0.075772	-0.405653	0.744326
C72	C	0.575772	0.094347	1.244326
C73	C	0.059206	-0.422280	0.794159
C74	C	0.559206	0.077720	1.294159
C75	C	0.140607	-0.462951	0.794094
C76	C	0.640607	0.037049	1.294094
C77	C	0.157172	-0.446325	0.744260
C78	C	0.657172	0.053675	1.244260
C79	C	0.124753	-0.417674	0.719377
C80	C	0.624753	0.082326	1.219377
C81	C	0.328223	-0.417595	0.515681
C82	C	0.828223	0.082405	1.015681
C83	C	-0.172390	-0.583988	0.349141
C84	C	0.327610	-0.083988	0.849141
C85	C	-0.041751	-0.584138	0.218783
C86	C	0.458249	-0.084138	0.718783
C87	C	-0.041941	-0.584130	0.349402
C88	C	0.458059	-0.084130	0.849402
C89	C	-0.041957	-0.714607	0.349338
C90	C	0.458043	-0.214607	0.849338
C91	C	-0.129326	-0.598388	0.334853
C92	C	0.370674	-0.098388	0.834853
C93	C	-0.056165	-0.598473	0.261852
C94	C	0.443835	-0.098473	0.761852
C95	C	-0.056282	-0.671535	0.334962
C96	C	0.443718	-0.171535	0.834962
C97	C	-0.056272	-0.598469	0.334999
C98	C	0.443728	-0.098469	0.834999
C99	C	-0.227205	-0.565659	0.367327
C100	C	0.272795	-0.065659	0.867327
C101	C	-0.023703	-0.565882	0.367734
C102	C	0.476297	-0.065882	0.867734
C103	C	-0.074511	-0.616717	0.316667
C104	C	0.425489	-0.116717	0.816667
C105	C	-0.055754	-0.794298	0.391257
C106	C	0.444246	-0.294298	0.891257
C107	C	-0.039181	-0.844132	0.407888
C108	C	0.460819	-0.344132	0.907888
C109	C	0.041447	-0.844215	0.377269
C110	C	0.541447	-0.344215	0.877269
C111	C	0.024873	-0.794381	0.360637
C112	C	0.524873	-0.294381	0.860637
C113	C	-0.252183	-0.577666	0.416302
C114	C	0.247817	-0.077666	0.916302
C115	C	-0.302014	-0.561001	0.432833
C116	C	0.197986	-0.061001	0.932833
C117	C	-0.301886	-0.520329	0.351410
C118	C	0.198114	-0.020329	0.851410
C119	C	-0.252055	-0.536994	0.334880
C120	C	0.247945	-0.036994	0.834880
C121	C	-0.035709	-0.516892	0.355682
C122	C	0.464291	-0.016892	0.855682
C123	C	-0.019129	-0.500308	0.372353
C124	C	0.480871	-0.000308	0.872353
C125	C	0.021465	-0.581700	0.413115
C126	C	0.521465	-0.081700	0.913115
C127	C	0.004884	-0.598286	0.396450
C128	C	0.504884	-0.098286	0.896450
C129	C	-0.035389	-0.516907	0.139026
C130	C	0.464611	-0.016907	0.639026
C131	C	-0.018707	-0.500324	0.089193
C132	C	0.481293	-0.000324	0.589193
C133	C	0.021949	-0.581721	0.089240
C134	C	0.521949	-0.081721	0.589240
C135	C	0.005268	-0.598303	0.139074
C136	C	0.505268	-0.098303	0.639074
C137	C	-0.023402	-0.565894	0.163965
C138	C	0.476598	-0.065894	0.663965
C139	C	-0.023728	-0.769425	0.367633
C140	C	0.476272	-0.269425	0.867633
N141	N	0.427173	-0.450553	0.482630
N142	N	0.927173	0.049447	0.982630
O143	O	0.589997	-0.458460	0.365361
O144	O	1.089997	0.041540	0.865361
O145	O	0.590185	-0.550997	0.490963
O146	O	1.090185	-0.050997	0.990963
O147	O	0.590104	-0.550786	0.411309
O148	O	1.090104	-0.050786	0.911309
O149	O	0.590077	-0.458671	0.445016
O150	O	1.090077	0.041329	0.945016
O151	O	0.510940	-0.524462	0.437777
O152	O	1.010940	-0.024462	0.937777
O153	O	0.511020	-0.524674	0.517432
O154	O	1.011020	-0.024674	1.017432
O155	O	0.510832	-0.432136	0.391830
O156	O	1.010832	0.067864	0.891830
Zn157	Zn	0.498357	-0.474225	0.458833
Zn158	Zn	0.998357	0.025775	0.958833
Zn159	Zn	0.602660	-0.508908	0.423960
Zn160	Zn	1.102660	-0.008908	0.923960
O161	O	0.510913	-0.432348	0.471484
O162	O	1.010913	0.067652	0.971484
N163	N	0.673844	-0.532580	0.400158
N164	N	1.173844	-0.032580	0.900158
N165	N	0.091520	-0.115070	0.482873
N166	N	0.591520	0.384930	0.982873
O167	O	-0.025663	0.047841	0.474857
O168	O	0.474337	0.547841	0.974857
O169	O	0.099940	0.047877	0.382299
O170	O	0.599940	0.547877	0.882299
O171	O	0.020247	0.047844	0.382560
O172	O	0.520247	0.547844	0.882560
O173	O	0.054030	0.047874	0.474596
O174	O	0.554030	0.547874	0.974596
O175	O	0.046674	-0.031326	0.408942
O176	O	0.546674	0.468674	0.908942
O177	O	0.126367	-0.031293	0.408680
O178	O	0.626367	0.468707	0.908680
O179	O	0.000764	-0.031329	0.501238
O180	O	0.500764	0.468671	1.001238
Zn181	Zn	0.067761	-0.043881	0.459148
Zn182	Zn	0.567761	0.456119	0.959148
Zn183	Zn	0.032943	0.060429	0.424389
Zn184	Zn	0.532943	0.560429	0.924389
O185	O	0.080457	-0.031296	0.500977
O186	O	0.580457	0.468704	1.000977
N187	N	0.009178	0.131618	0.400665
N188	N	0.509178	0.631618	0.900665
N189	N	0.091852	-0.450680	0.818332
N190	N	0.591852	0.049320	1.318332
O191	O	0.083862	-0.567845	0.981235
O192	O	0.583862	-0.067845	1.481235
O193	O	-0.008657	-0.442198	0.981276
O194	O	0.491343	0.057802	1.481276
O195	O	-0.008441	-0.521875	0.981252
O196	O	0.491559	-0.021875	1.481252
O197	O	0.083646	-0.488168	0.981258
O198	O	0.583646	0.011832	1.481258
O199	O	0.017919	-0.495468	0.902085
O200	O	0.517919	0.004532	1.402085
O201	O	0.017703	-0.415791	0.902109
O202	O	0.517703	0.084209	1.402109
O203	O	0.110222	-0.541438	0.902067
O204	O	0.610222	-0.041438	1.402067
Zn205	Zn	0.068148	-0.474422	0.889518
Zn206	Zn	0.568148	0.025578	1.389518
Zn207	Zn	0.033417	-0.509214	0.993825
Zn208	Zn	0.533417	-0.009214	1.493825
O209	O	0.110006	-0.461761	0.902091
O210	O	0.610006	0.038239	1.402091
N211	N	0.009712	-0.532961	1.065011
N212	N	0.509712	-0.032961	1.565011
C213	C	0.030439	-0.413071	0.383027
C214	C	0.530439	0.086929	0.883027
C215	C	0.129046	-0.511580	0.382922
C216	C	0.629046	-0.011580	0.882922
C217	C	0.070334	-0.570496	0.500675
C218	C	0.570334	-0.070496	1.000675
C219	C	-0.028274	-0.471987	0.500780
C220	C	0.471726	0.028013	1.000780
C221	C	0.550625	-0.550579	0.520021
C222	C	1.050625	-0.050579	1.020021
C223	C	0.550527	-0.550317	0.421379
C224	C	1.050527	-0.050317	0.921379
C225	C	0.550389	-0.432554	0.362773
C226	C	1.050389	0.067446	0.862773
C227	C	0.550491	-0.432816	0.461414
C228	C	1.050491	0.067184	0.961414
C229	C	0.128944	0.008394	0.382712
C230	C	0.628944	0.508394	0.882712
C231	C	0.030287	0.008256	0.383068
C232	C	0.530287	0.508256	0.883068
C233	C	-0.028273	0.008252	0.500793
C234	C	0.471727	0.508252	1.000793
C235	C	0.070417	0.008292	0.500470
C236	C	0.570417	0.508292	1.000470
C237	C	-0.008218	-0.413165	0.941698
C238	C	0.491782	0.086835	1.441698
C239	C	-0.007945	-0.511830	0.941653
C240	C	0.492055	-0.011830	1.441653
C241	C	0.109783	-0.570471	0.941646
C242	C	0.609783	-0.070471	1.441646
C243	C	0.109516	-0.471800	0.941673
C244	C	0.609516	0.028200	1.441673
H245	H	0.019320	-0.412483	0.814467
H246	H	0.519320	0.087517	1.314467
O247	O	-0.071271	0.008221	0.535519
O248	O	0.428729	0.508221	1.035519
C249	C	-0.120005	0.008247	0.615764
C250	C	0.379995	0.508247	1.115764
C251	C	-0.071285	0.008271	0.576484
C252	C	0.428715	0.508271	1.076484
H253	H	-0.120036	0.008298	0.648890
H254	H	0.379964	0.508298	1.148890
H255	H	-0.126980	-0.024901	0.624804
H256	H	0.373020	0.475099	1.124804
H257	H	-0.149081	0.041364	0.602661
H258	H	0.350919	0.541364	1.102661
H259	H	-0.042179	-0.024823	0.589554
H260	H	0.457821	0.475177	1.089554
H261	H	-0.064351	0.041441	0.567449
H262	H	0.435649	0.541441	1.067449
O263	O	0.078816	-0.613587	0.535253
O264	O	0.578816	-0.113587	1.035253
C265	C	0.055867	-0.683587	0.587233
C266	C	0.555867	-0.183587	1.087233
C267	C	0.046202	-0.634791	0.548084
C268	C	0.546202	-0.134791	1.048084
H269	H	0.029511	-0.700749	0.597612
H270	H	0.529511	-0.200749	1.097612
H271	H	0.051582	-0.678662	0.619725
H272	H	0.551582	-0.178662	1.119725
H273	H	0.093690	-0.707491	0.573320
H274	H	0.593690	-0.207491	1.073320
H275	H	0.008381	-0.610861	0.561952
H276	H	0.508381	-0.110861	1.061952
H277	H	0.050518	-0.639752	0.515600
H278	H	0.550518	-0.139752	1.015600
O279	O	0.172066	-0.519984	0.348244
O280	O	0.672066	-0.019984	0.848244
C281	C	0.220895	-0.488627	0.267997
C282	C	0.720895	0.011373	0.767997
C283	C	0.172151	-0.479049	0.307223
C284	C	0.672151	0.020951	0.807223
H285	H	0.220982	-0.455534	0.234826
H286	H	0.720982	0.044466	0.734826
H287	H	0.227850	-0.519748	0.259022
H288	H	0.727850	-0.019748	0.759022
H289	H	0.249953	-0.497681	0.281119
H290	H	0.749953	0.002319	0.781119
H291	H	0.143062	-0.469973	0.294133
H292	H	0.643062	0.030027	0.794133
H293	H	0.165236	-0.447941	0.316192
H294	H	0.665236	0.052059	0.816192
H295	H	0.077653	0.008301	0.529384
H296	H	0.577653	0.508301	1.029384
H297	H	-0.037264	-0.377079	0.941710
H298	H	0.462736	0.122921	1.441710
O299	O	-0.071349	-0.463562	0.535384
O300	O	0.428651	0.036438	1.035384
C301	C	-0.141239	-0.486678	0.587461
C302	C	0.358761	0.013322	1.087461
C303	C	-0.092471	-0.496265	0.548266
C304	C	0.407529	0.003735	1.048266
H305	H	-0.158326	-0.513118	0.597895
H306	H	0.341674	-0.013118	1.097895
H307	H	-0.165245	-0.448884	0.573629
H308	H	0.334755	0.051116	1.073629
H309	H	-0.136232	-0.490952	0.619901
H310	H	0.363768	0.009048	1.119901
H311	H	-0.097432	-0.492017	0.515813
H312	H	0.402568	0.007983	1.015813
H313	H	-0.068482	-0.534055	0.562136
H314	H	0.431518	-0.034055	1.062136
H315	H	-0.036863	-0.519031	0.941619
H316	H	0.463137	-0.019031	1.441619
H317	H	0.138832	-0.606554	0.941627
H318	H	0.638832	-0.106554	1.441627
H319	H	0.550485	-0.403881	0.468626
H320	H	1.050485	0.096119	0.968626
O321	O	0.143987	-0.463112	0.941647
O322	O	0.643987	0.036888	1.441647
C323	C	0.165748	-0.406566	0.941683
C324	C	0.665748	0.093434	1.441683
C325	C	0.126672	-0.416338	0.941702
C326	C	0.626672	0.083662	1.441702
H327	H	0.151760	-0.368753	0.941737
H328	H	0.651760	0.131247	1.441737
H329	H	0.198228	-0.410786	0.908536
H330	H	0.698228	0.089214	1.408536
H331	H	0.176177	-0.432944	0.974799
H332	H	0.676177	0.067056	1.474799
H333	H	0.116203	-0.389969	0.908608
H334	H	0.616203	0.110031	1.408608
H335	H	0.094218	-0.412135	0.974870
H336	H	0.594218	0.087865	1.474870
H337	H	0.049370	-0.382321	0.724071
H338	H	0.549370	0.117679	1.224071
H339	H	0.019058	-0.412426	0.521121
H340	H	0.519058	0.087574	1.021121
H341	H	0.550674	-0.579628	0.556096
H342	H	1.050674	-0.079628	1.056096
O343	O	0.021913	-0.370023	0.348405
O344	O	0.521913	0.129977	0.848405
C345	C	0.017472	-0.327405	0.269126
C346	C	0.517472	0.172595	0.769126
C347	C	0.027151	-0.376187	0.308289
C348	C	0.527151	0.123813	0.808289
H349	H	0.021693	-0.332371	0.236687
H350	H	0.521693	0.167629	0.736687
H351	H	0.043856	-0.310237	0.258661
H352	H	0.543856	0.189763	0.758661
H353	H	-0.020336	-0.303486	0.283055
H354	H	0.479664	0.196514	0.783055
H355	H	0.064945	-0.400144	0.294394
H356	H	0.564945	0.099856	0.794394
H357	H	0.000737	-0.393317	0.318749
H358	H	0.500737	0.106683	0.818749
O359	O	0.550518	-0.584781	0.412706
O360	O	1.050518	-0.084781	0.912706
C361	C	0.550503	-0.606568	0.356158
C362	C	1.050503	-0.106568	0.856158
C363	C	0.550502	-0.567491	0.365919
C364	C	1.050502	-0.067491	0.865919
H365	H	0.550499	-0.592606	0.318328
H366	H	1.050499	-0.092606	0.818328
H367	H	0.517393	-0.617000	0.382505
H368	H	1.017393	-0.117000	0.882505
H369	H	0.583654	-0.639041	0.360407
H370	H	1.083654	-0.139041	0.860407
H371	H	0.517373	-0.534992	0.361664
H372	H	1.017373	-0.034992	0.861664
H373	H	0.583633	-0.557099	0.339574
H374	H	1.083633	-0.057099	0.839574
H375	H	0.550329	-0.403500	0.326702
H376	H	1.050329	0.096500	0.826702
O377	O	0.171869	0.008640	0.347915
O378	O	0.671869	0.508640	0.847915
C379	C	0.220458	0.009046	0.267527
C380	C	0.720458	0.509046	0.767527
C381	C	0.171826	0.008762	0.306893
C382	C	0.671826	0.508762	0.806893
H383	H	0.220436	0.009155	0.234348
H384	H	0.720436	0.509155	0.734348
H385	H	0.249686	-0.024016	0.280428
H386	H	0.749686	0.475984	0.780428
H387	H	0.227246	0.042248	0.258652
H388	H	0.727246	0.542248	0.758652
H389	H	0.164993	-0.024417	0.315785
H390	H	0.664993	0.475583	0.815785
H391	H	0.142625	0.041847	0.293971
H392	H	0.642625	0.541847	0.793971
O393	O	0.172163	-0.490791	0.818192
O394	O	0.672163	0.009209	1.318192
C395	C	0.254650	-0.529357	0.812868
C396	C	0.754650	-0.029357	1.312868
C397	C	0.218966	-0.497827	0.785519
C398	C	0.718966	0.002173	1.285519
H399	H	0.292498	-0.535048	0.786464
H400	H	0.792498	-0.035048	1.286464
H401	H	0.248965	-0.565228	0.836179
H402	H	0.748965	-0.065228	1.336179
H403	H	0.248899	-0.511108	0.836214
H404	H	0.748899	-0.011108	1.336214
H405	H	0.224695	-0.516035	0.762147
H406	H	0.724695	-0.016035	1.262147
H407	H	0.224659	-0.461958	0.762238
H408	H	0.724659	0.038042	1.262238
O409	O	0.021592	0.008212	0.348634
O410	O	0.521592	0.508212	0.848634
C411	C	-0.034988	0.008183	0.326907
C412	C	0.465012	0.508183	0.826907
C413	C	-0.025204	0.008231	0.365945
C414	C	0.474796	0.508231	0.865945
H415	H	-0.072825	0.008208	0.340885
H416	H	0.427175	0.508208	0.840885
H417	H	-0.008660	-0.024962	0.316514
H418	H	0.491340	0.475038	0.816514
H419	H	-0.030728	0.041304	0.294405
H420	H	0.469272	0.541304	0.794405
H421	H	-0.029470	-0.024868	0.398472
H422	H	0.470530	0.475132	0.898472
H423	H	-0.051530	0.041397	0.376298
H424	H	0.448470	0.541397	0.876298
H425	H	0.166679	-0.486211	0.447227
H426	H	0.666679	0.013789	0.947227
H427	H	0.197059	-0.456117	0.723950
H428	H	0.697059	0.043883	1.223950
H429	H	0.049217	-0.382297	0.551240
H430	H	0.549217	0.117703	1.051240
H431	H	0.332881	-0.492283	0.542031
H432	H	0.832881	0.007717	1.042031
O433	O	0.204545	-0.457928	0.475347
O434	O	0.704545	0.042072	0.975347
C435	C	0.279128	-0.454057	0.412124
C436	C	0.779128	0.045943	0.912124
C437	C	0.225226	-0.440844	0.425436
C438	C	0.725226	0.059156	0.925436
H439	H	0.295864	-0.440242	0.371772
H440	H	0.795864	0.059758	0.871772
H441	H	0.295985	-0.494407	0.425820
H442	H	0.795985	0.005593	0.925820
H443	H	0.285434	-0.437275	0.428934
H444	H	0.785434	0.062725	0.928934
H445	H	0.218878	-0.457595	0.408631
H446	H	0.718878	0.042405	0.908631
H447	H	0.208397	-0.400490	0.411749
H448	H	0.708397	0.099510	0.911749
O449	O	0.427144	-0.530039	0.512920
O450	O	0.927144	-0.030039	1.012920
C451	C	0.442411	-0.598776	0.498287
C452	C	0.942411	-0.098776	0.998287
C453	C	0.415005	-0.545292	0.490534
C454	C	0.915005	-0.045292	0.990534
H455	H	0.432614	-0.611122	0.480185
H456	H	0.932614	-0.111122	0.980185
H457	H	0.432638	-0.619661	0.538048
H458	H	0.932638	-0.119661	1.038048
H459	H	0.482300	-0.605131	0.482340
H460	H	0.982300	-0.105131	0.982340
H461	H	0.375109	-0.538892	0.506454
H462	H	0.875109	-0.038892	1.006454
H463	H	0.424818	-0.524434	0.450768
H464	H	0.924818	-0.024434	0.950768
O465	O	0.427068	-0.371013	0.452321
O466	O	0.927068	0.128987	0.952321
C467	C	0.421786	-0.289290	0.423596
C468	C	0.921786	0.210710	0.923596
C469	C	0.394414	-0.324531	0.449675
C470	C	0.894414	0.175469	0.949675
H471	H	0.395397	-0.251702	0.421457
H472	H	0.895397	0.248298	0.921457
H473	H	0.445074	-0.290772	0.386110
H474	H	0.945074	0.209228	0.886110
H475	H	0.445155	-0.299315	0.443946
H476	H	0.945155	0.200685	0.943946
H477	H	0.371020	-0.314530	0.429365
H478	H	0.871020	0.185470	0.929365
H479	H	0.371156	-0.323043	0.487163
H480	H	0.871156	0.176957	0.987163
O481	O	0.016467	-0.645871	0.408204
O482	O	0.516467	-0.145871	0.908204
C483	C	-0.012210	-0.711795	0.446453
C484	C	0.487790	-0.211795	0.946453
C485	C	-0.025397	-0.657903	0.433186
C486	C	0.474603	-0.157903	0.933186
H487	H	-0.046050	-0.721538	0.466644
H488	H	0.453950	-0.221538	0.966644
H489	H	0.011048	-0.732133	0.469865
H490	H	0.511048	-0.232133	0.969865
H491	H	0.008137	-0.721606	0.412637
H492	H	0.508137	-0.221606	0.912637
H493	H	-0.045761	-0.648048	0.466975
H494	H	0.454239	-0.148048	0.966975
H495	H	-0.048633	-0.637594	0.409755
H496	H	0.451367	-0.137594	0.909755
H497	H	0.332825	-0.345993	0.486242
H498	H	0.832825	0.154007	0.986242
H499	H	0.159856	-0.209371	0.440456
H500	H	0.659856	0.290629	0.940456
H501	H	0.129672	-0.118967	0.410356
H502	H	0.629672	0.381033	0.910356
H503	H	0.055974	-0.119015	0.558014
H504	H	0.555974	0.380985	1.058014
H505	H	-0.028474	-0.460433	0.068892
H506	H	0.471526	0.039567	0.568892
O507	O	0.084321	-0.213305	0.595818
O508	O	0.584321	0.286695	1.095818
C509	C	0.088158	-0.228500	0.670421
C510	C	0.588158	0.271500	1.170421
C511	C	0.101334	-0.201103	0.616523
C512	C	0.601334	0.298897	1.116523
H513	H	0.101898	-0.218638	0.687179
H514	H	0.601898	0.281362	1.187179
H515	H	0.104974	-0.268405	0.676766
H516	H	0.604974	0.231595	1.176766
H517	H	0.047811	-0.218715	0.687228
H518	H	0.547811	0.281285	1.187228
H519	H	0.141674	-0.210848	0.599681
H520	H	0.641674	0.289152	1.099681
H521	H	0.084483	-0.161205	0.610212
H522	H	0.584483	0.338795	1.110212
O523	O	-0.063173	-0.485404	0.163180
O524	O	0.436827	0.014596	0.663180
C525	C	-0.069571	-0.420917	0.178426
C526	C	0.430429	0.079083	0.678426
C527	C	-0.038054	-0.456575	0.151051
C528	C	0.461946	0.043425	0.651051
H529	H	-0.049280	-0.397593	0.168622
H530	H	0.450720	0.102407	0.668622
H531	H	-0.079428	-0.441155	0.218333
H532	H	0.420572	0.058845	0.718333
H533	H	-0.103358	-0.397582	0.168565
H534	H	0.396642	0.102418	0.668565
H535	H	-0.004248	-0.479919	0.160873
H536	H	0.495752	0.020081	0.660873
H537	H	-0.028236	-0.436308	0.111151
H538	H	0.471764	0.063692	0.611151
O539	O	0.049802	-0.613268	0.065135
O540	O	0.549802	-0.113268	0.565135
C541	C	0.088333	-0.695752	0.070441
C542	C	0.588333	-0.195752	0.570441
C543	C	0.056793	-0.660080	0.097800
C544	C	0.556793	-0.160080	0.597800
H545	H	0.093986	-0.733608	0.096839
H546	H	0.593986	-0.233608	0.596839
H547	H	0.124216	-0.690093	0.047179
H548	H	0.624216	-0.190093	0.547179
H549	H	0.070115	-0.689961	0.047045
H550	H	0.570115	-0.189961	0.547045
H551	H	0.074968	-0.665849	0.121221
H552	H	0.574968	-0.165849	0.621221
H553	H	0.020911	-0.665748	0.121031
H554	H	0.520911	-0.165748	0.621031
H555	H	-0.058984	-0.490504	0.332300
H556	H	0.441016	0.009496	0.832300
O557	O	0.016827	-0.645881	0.163352
O558	O	0.516827	-0.145881	0.663352
C559	C	-0.011886	-0.711807	0.219550
C560	C	0.488114	-0.211807	0.719550
C561	C	-0.025043	-0.657919	0.192095
C562	C	0.474957	-0.157919	0.692095
H563	H	-0.045730	-0.721559	0.242787
H564	H	0.454270	-0.221559	0.742787
H565	H	0.008334	-0.721656	0.242969
H566	H	0.508334	-0.221656	0.742969
H567	H	0.011484	-0.732110	0.193189
H568	H	0.511484	-0.232110	0.693189
H569	H	-0.048428	-0.637580	0.218421
H570	H	0.451572	-0.137580	0.718421
H571	H	-0.045239	-0.648108	0.168669
H572	H	0.454761	-0.148108	0.668669
H573	H	-0.028907	-0.460416	0.362542
H574	H	0.471093	0.039584	0.862542
H575	H	0.050956	-0.774133	0.341399
H576	H	0.550956	-0.274133	0.841399
O577	O	0.049287	-0.613226	0.440951
O578	O	0.549287	-0.113226	0.940951
C579	C	0.122595	-0.677734	0.447427
C580	C	0.622595	-0.177734	0.947427
C581	C	0.091129	-0.642068	0.415857
C582	C	0.591129	-0.142068	0.915857
H583	H	0.156436	-0.701055	0.427147
H584	H	0.656436	-0.201055	0.927147
H585	H	0.102298	-0.701069	0.481214
H586	H	0.602298	-0.201069	0.981214
H587	H	0.132358	-0.657454	0.457283
H588	H	0.632358	-0.157454	0.957283
H589	H	0.081357	-0.662309	0.405965
H590	H	0.581357	-0.162309	0.905965
H591	H	0.111444	-0.618733	0.382092
H592	H	0.611444	-0.118733	0.882092
O593	O	0.088676	-0.868384	0.370417
O594	O	0.588676	-0.368384	0.870417
C595	C	0.166897	-0.863210	0.338318
C596	C	0.666897	-0.363210	0.838318
C597	C	0.113425	-0.835777	0.346035
C598	C	0.613425	-0.335777	0.846035
H599	H	0.186921	-0.836859	0.318613
H600	H	0.686921	-0.336859	0.818613
H601	H	0.180976	-0.886536	0.316380
H602	H	0.680976	-0.386536	0.816380
H603	H	0.172376	-0.886552	0.374281
H604	H	0.672376	-0.386552	0.874281
H605	H	0.107906	-0.812410	0.310093
H606	H	0.607906	-0.312410	0.810093
H607	H	0.099372	-0.812482	0.367994
H608	H	0.599372	-0.312482	0.867994
H609	H	-0.095331	-0.773979	0.396956
H610	H	0.404669	-0.273979	0.896956
O611	O	-0.070328	-0.868246	0.430776
O612	O	0.429672	-0.368246	0.930776
C613	C	-0.128853	-0.883461	0.426213
C614	C	0.371147	-0.383461	0.926213
C615	C	-0.093607	-0.856113	0.400238
C616	C	0.406393	-0.356113	0.900238
H617	H	-0.147676	-0.873669	0.401531
H618	H	0.352324	-0.373669	0.901531
H619	H	-0.156299	-0.873629	0.459418
H620	H	0.343701	-0.373629	0.959418
H621	H	-0.108648	-0.923363	0.436913
H622	H	0.391352	-0.423363	0.936913
H623	H	-0.113771	-0.816205	0.389506
H624	H	0.386229	-0.316205	0.889506
H625	H	-0.066162	-0.865985	0.367054
H626	H	0.433838	-0.365985	0.867054
O627	O	-0.228120	-0.605488	0.447887
O628	O	0.271880	-0.105488	0.947887
C629	C	-0.233506	-0.644088	0.530393
C630	C	0.266494	-0.144088	1.030393
C631	C	-0.260820	-0.612566	0.494678
C632	C	0.239180	-0.112566	0.994678
H633	H	-0.259932	-0.649828	0.568231
H634	H	0.240068	-0.149828	1.068231
H635	H	-0.210187	-0.625867	0.524735
H636	H	0.289813	-0.125867	1.024735
H637	H	-0.210173	-0.679935	0.524650
H638	H	0.289827	-0.179935	1.024650
H639	H	-0.284178	-0.576713	0.500400
H640	H	0.215822	-0.076713	1.000400
H641	H	-0.284109	-0.630824	0.500345
H642	H	0.215891	-0.130824	1.000345
H643	H	-0.322118	-0.496994	0.324987
H644	H	0.177882	0.003006	0.824987
O645	O	-0.326336	-0.572682	0.480397
O646	O	0.173664	-0.072682	0.980397
C647	C	-0.382662	-0.610970	0.546299
C648	C	0.117338	-0.110970	1.046299
C649	C	-0.355156	-0.597764	0.492425
C650	C	0.144844	-0.097764	0.992425
H651	H	-0.405961	-0.631260	0.556042
H652	H	0.094039	-0.131260	1.056042
H653	H	-0.406021	-0.577154	0.556104
H654	H	0.093979	-0.077154	1.056104
H655	H	-0.356335	-0.634304	0.566643
H656	H	0.143665	-0.134304	1.066643
H657	H	-0.381448	-0.574443	0.472045
H658	H	0.118552	-0.074443	0.972045
H659	H	-0.331789	-0.631600	0.482658
H660	H	0.168211	-0.131600	0.982658
H661	H	-0.231721	-0.527215	0.295000
H662	H	0.268279	-0.027215	0.795000
