data_functionalizedCrystal
_audit_creation_method	'MofGen! by Chris Wilmer'
_symmetry_space_group_name_H-M	'P1'
_symmetry_Int_Tables_number	1
_symmetry_cell_setting	triclinic
loop_
_symmetry_equiv_pos_as_xyz
  x,y,z
_cell_length_a	15.944545
_cell_length_b	15.944551
_cell_length_c	11.295483
_cell_angle_alpha	94.094426
_cell_angle_beta	85.897240
_cell_angle_gamma	83.497455
loop_
_atom_site_label
_atom_site_type_symbol
_atom_site_fract_x
_atom_site_fract_y
_atom_site_fract_z
O1	O	1.120181	0.102655	-0.098950
O2	O	0.875631	0.116015	-0.098970
O3	O	1.004584	-0.012939	-0.098948
O4	O	0.991229	0.231609	-0.098971
O5	O	0.993257	-0.001630	0.099100
O6	O	0.864305	0.127324	0.099079
O7	O	1.108855	0.113964	0.099099
Cu8	Cu	0.985546	0.121677	0.117173
Cu9	Cu	0.998940	0.108302	-0.117043
O10	O	0.979902	0.242918	0.099078
C11	C	0.838674	0.121116	0.000053
C12	C	0.745429	0.119455	0.000045
C13	C	0.474795	0.034563	0.000066
C14	C	0.519792	0.081068	0.097713
C15	C	0.409784	0.113536	0.000066
C16	C	0.530939	0.069939	-0.097547
C17	C	0.574698	0.116440	0.000054
C18	C	0.453548	0.160024	0.097795
C19	C	0.464697	0.148879	-0.097554
C20	C	0.509660	0.195443	0.000118
C21	C	0.314781	0.111861	0.000074
C22	C	0.669697	0.118122	0.000055
C23	C	0.998366	-0.038579	0.000076
C24	C	0.996704	-0.131825	0.000077
C25	C	0.912800	-0.346681	0.000054
C26	C	0.946178	-0.402123	0.097707
C27	C	0.993697	-0.302551	0.000067
C28	C	0.957364	-0.413256	-0.097554
C29	C	0.990787	-0.467465	0.000053
C30	C	1.027092	-0.356760	0.097801
C31	C	1.038272	-0.367892	-0.097547
C32	C	1.071707	-0.423315	0.000130
C33	C	0.995371	-0.207548	0.000077
C34	C	0.989119	-0.562466	0.000052
C35	C	1.145812	0.108863	0.000074
C36	C	1.239058	0.110523	0.000074
C37	C	0.986120	0.268558	0.000051
C38	C	0.987783	0.361803	0.000042
N39	N	0.976131	0.131083	0.281907
N40	N	1.008362	0.098890	-0.281778
C41	C	1.076135	0.031132	0.531213
C42	C	1.069026	0.038247	0.655876
C43	C	0.954801	0.152421	0.655897
C44	C	0.961910	0.145307	0.531235
C45	C	1.022580	0.084661	0.468897
C46	C	1.029692	0.077552	0.344232
C47	C	0.915463	0.191721	0.344256
C48	C	0.908354	0.198835	0.468919
H49	H	0.525149	0.263511	0.000168
F50	F	0.574908	0.020168	-0.205443
H51	H	0.845647	-0.313366	0.000146
F52	F	0.433031	0.186273	-0.205469
F53	F	0.895286	-0.422244	0.205610
F54	F	1.065603	-0.324468	0.205828
F55	F	1.159547	-0.466656	0.000205
F56	F	0.454324	-0.054325	0.000195
F57	F	1.140711	-0.033403	0.464868
F58	F	1.089129	-0.347741	-0.205455
H59	H	0.544001	0.052429	0.180273
F60	F	0.890228	0.216953	0.722255
F61	F	0.409718	0.209754	0.205815
H62	H	0.927859	-0.438047	-0.180118
H63	H	1.079094	0.028173	0.293478
F64	F	1.126025	-0.018728	0.722193
F65	F	0.843786	0.263373	0.535273
H66	H	0.871857	0.235310	0.293504
