data_functionalizedCrystal
_audit_creation_method	'MofGen! by Chris Wilmer'
_symmetry_space_group_name_H-M	'P1'
_symmetry_Int_Tables_number	1
_symmetry_cell_setting	triclinic
loop_
_symmetry_equiv_pos_as_xyz
  x,y,z
_cell_length_a	14.044209
_cell_length_b	10.540539
_cell_length_c	13.101039
_cell_angle_alpha	86.610474
_cell_angle_beta	86.334262
_cell_angle_gamma	91.143278
loop_
_atom_site_label
_atom_site_type_symbol
_atom_site_fract_x
_atom_site_fract_y
_atom_site_fract_z
O1	O	-0.128498	1.705793	-0.085173
O2	O	0.371502	2.205793	0.414827
O3	O	-0.141093	1.337655	-0.085186
O4	O	0.358907	1.837655	0.414814
O5	O	0.003226	1.516199	-0.085165
O6	O	0.503226	2.016199	0.414835
O7	O	-0.272816	1.527249	-0.085194
O8	O	0.227184	2.027249	0.414806
O9	O	-0.007146	1.503390	0.085263
O10	O	0.492854	2.003390	0.585263
O11	O	-0.151465	1.324846	0.085242
O12	O	0.348535	1.824846	0.585242
O13	O	-0.138870	1.692985	0.085255
O14	O	0.361130	2.192985	0.585255
Zn15	Zn	-0.146814	1.506882	0.112308
Zn16	Zn	0.353186	2.006882	0.612308
Zn17	Zn	-0.133148	1.523758	-0.112239
Zn18	Zn	0.366852	2.023758	0.387761
O19	O	-0.283188	1.514441	0.085234
O20	O	0.216812	2.014441	0.585234
C21	C	-0.145334	1.283852	0.000026
C22	C	0.354666	1.783852	0.500026
C23	C	-0.142508	1.142619	0.000022
C24	C	0.357492	1.642619	0.500022
C25	C	0.033387	1.504957	0.000050
C26	C	0.533387	2.004957	0.500050
C27	C	0.138711	1.490528	0.000054
C28	C	0.638711	1.990528	0.500054
C29	C	-0.034243	0.948214	0.000431
C30	C	0.465757	1.448214	0.500431
C31	C	-0.037084	1.095152	0.000036
C32	C	0.462916	1.595152	0.500036
C33	C	-0.187319	1.093389	-0.097303
C34	C	0.312681	1.593389	0.402697
C35	C	-0.183717	0.946486	-0.097373
C36	C	0.316283	1.446486	0.402627
C37	C	-0.197657	0.931649	0.096436
C38	C	0.302343	1.431649	0.596436
C39	C	-0.198705	1.078633	0.097711
C40	C	0.301295	1.578633	0.597711
C41	C	0.331551	1.464150	0.000045
C42	C	0.831551	1.964150	0.500045
C43	C	0.388492	1.566493	0.000047
C44	C	0.888492	2.066493	0.500047
C45	C	0.495795	1.551816	0.000042
C46	C	0.995795	2.051816	0.500042
C47	C	0.224238	1.478825	0.000050
C48	C	0.724238	1.978825	0.500050
C49	C	0.686650	1.525685	0.000025
C50	C	1.186650	2.025685	0.500025
C51	C	0.581327	1.540121	0.000038
C52	C	1.081327	2.040121	0.500038
C53	C	-0.134628	1.746788	0.000040
C54	C	0.365372	2.246788	0.500040
C55	C	-0.137454	1.888022	0.000038
C56	C	0.362546	2.388022	0.500038
N57	N	-0.156140	1.495374	0.265555
N58	N	0.343860	1.995374	0.765555
N59	N	-0.123815	1.535275	-0.265486
N60	N	0.376185	2.035275	0.234514
C61	C	-0.168837	1.479718	0.474596
C62	C	0.331163	1.979718	0.974596
C63	C	-0.111121	1.550927	0.525480
C64	C	0.388879	2.050927	1.025480
C65	C	-0.118186	1.542216	0.641797
C66	C	0.381814	2.042216	1.141797
C67	C	-0.161773	1.488428	0.358268
C68	C	0.338227	1.988428	0.858268
H69	H	-0.001409	1.128487	0.069803
H70	H	0.498591	1.628487	0.569803
Cl71	Cl	-0.306500	1.140442	-0.102932
Cl72	Cl	0.193500	1.640442	0.397068
H73	H	-0.056405	1.618434	0.481686
H74	H	0.443595	2.118434	0.981686
Cl75	Cl	0.339338	1.718789	0.000062
Cl76	Cl	0.839338	2.218789	0.500062
H77	H	0.003158	0.910173	0.070228
H78	H	0.503158	1.410173	0.570228
Cl79	Cl	-0.253315	1.375503	0.542205
Cl80	Cl	0.246685	1.875503	1.042205
H81	H	0.011453	0.919031	-0.068969
H82	H	0.511453	1.419031	0.431031
H83	H	0.007371	1.138085	-0.069843
H84	H	0.507371	1.638085	0.430157
H85	H	-0.141792	0.919952	-0.170116
H86	H	0.358208	1.419952	0.329884
Cl87	Cl	-0.300357	0.884766	-0.104208
Cl88	Cl	0.199643	1.384766	0.395792
H89	H	0.363389	1.365516	0.000040
H90	H	0.863389	1.865516	0.500040
Cl91	Cl	-0.151909	0.869069	0.210333
Cl92	Cl	0.348091	1.369069	0.710333
Cl93	Cl	-0.126102	1.162038	-0.209122
Cl94	Cl	0.373898	1.662038	0.290878
H95	H	-0.275924	1.110188	0.103579
H96	H	0.224076	1.610188	0.603579
Cl97	Cl	-0.148151	1.127568	0.208874
Cl98	Cl	0.351849	1.627568	0.708874
H99	H	-0.273844	0.892071	0.097085
H100	H	0.226156	1.392071	0.597085
