data_functionalizedCrystal
_audit_creation_method	'MofGen! by Chris Wilmer'
_symmetry_space_group_name_H-M	'P1'
_symmetry_Int_Tables_number	1
_symmetry_cell_setting	triclinic
loop_
_symmetry_equiv_pos_as_xyz
  x,y,z
_cell_length_a	11.792241
_cell_length_b	10.268362
_cell_length_c	9.065218
_cell_angle_alpha	89.999487
_cell_angle_beta	84.604650
_cell_angle_gamma	90.000426
loop_
_atom_site_label
_atom_site_type_symbol
_atom_site_fract_x
_atom_site_fract_y
_atom_site_fract_z
O1	O	1.508031	0.108168	0.202216
O2	O	1.177806	0.108198	0.223058
O3	O	1.349744	0.108180	-0.002069
O4	O	1.336093	0.108186	0.427343
O5	O	1.349727	-0.108421	-0.002062
O6	O	1.177789	-0.108403	0.223065
O7	O	1.508014	-0.108433	0.202224
Cu8	Cu	1.342900	-0.128195	0.212645
Cu9	Cu	1.342920	0.127960	0.212636
O10	O	1.336076	-0.108414	0.427351
C11	C	1.135499	-0.000099	0.221752
C12	C	1.009464	-0.000087	0.217834
C13	C	0.778711	-0.000125	0.210629
C14	C	0.907119	-0.000104	0.214632
N15	N	1.342895	-0.308361	0.212651
C16	C	1.342903	-0.426203	0.212652
C17	C	1.342917	-0.574041	0.212638
C18	C	1.550321	-0.000133	0.203529
C19	C	1.676356	-0.000136	0.207448
C20	C	1.348424	-0.000118	-0.057040
C21	C	1.344501	-0.000112	-0.220846
N22	N	1.342934	0.308126	0.212619
C23	C	1.337396	-0.000113	0.482322
C24	C	1.341319	-0.000111	0.646128
