data_functionalizedCrystal
_audit_creation_method	'MofGen! by Chris Wilmer'
_symmetry_space_group_name_H-M	'P1'
_symmetry_Int_Tables_number	1
_symmetry_cell_setting	triclinic
loop_
_symmetry_equiv_pos_as_xyz
  x,y,z
_cell_length_a	13.339070
_cell_length_b	10.540539
_cell_length_c	12.376457
_cell_angle_alpha	101.393660
_cell_angle_beta	75.589755
_cell_angle_gamma	100.077393
loop_
_atom_site_label
_atom_site_type_symbol
_atom_site_fract_x
_atom_site_fract_y
_atom_site_fract_z
O1	O	1.366170	0.620442	-0.094026
O2	O	1.071037	0.536703	-0.094022
O3	O	1.225337	0.396162	-0.094023
O4	O	1.211871	0.760984	-0.094026
O5	O	1.186775	0.431235	0.093989
O6	O	1.032476	0.571777	0.093990
O7	O	1.327609	0.655516	0.093986
Zn8	Zn	1.173920	0.619215	0.123839
Zn9	Zn	1.224726	0.573004	-0.123875
O10	O	1.173309	0.796058	0.093987
C11	C	1.013965	0.540095	-0.000016
C12	C	0.901358	0.497931	-0.000014
C13	C	1.205046	0.366051	-0.000019
C14	C	1.202026	0.224072	-0.000025
C15	C	0.538938	0.825771	-0.000035
C16	C	0.644738	0.865389	-0.000040
C17	C	0.708898	0.773528	-0.000033
C18	C	0.667248	0.642042	-0.000022
C19	C	0.561440	0.602418	-0.000026
C20	C	0.731400	0.550175	-0.000024
C21	C	0.689750	0.418690	-0.000014
C22	C	0.583951	0.379073	-0.000017
C23	C	0.519791	0.470934	-0.000024
C24	C	0.837208	0.589799	-0.000020
C25	C	0.859710	0.366447	-0.000012
C26	C	0.753910	0.326829	-0.000007
C27	C	1.086335	0.001104	-0.000445
C28	C	1.089311	0.148845	-0.000022
C29	C	1.234249	0.200932	0.107338
C30	C	1.230384	0.053093	0.107429
C31	C	1.276528	0.013471	-0.106376
C32	C	1.277857	0.160541	-0.107796
C33	C	1.384681	0.652124	-0.000023
C34	C	1.497290	0.694286	-0.000032
C35	C	1.193600	0.826168	-0.000020
C36	C	1.196622	0.968146	-0.000021
N37	N	1.139253	0.650755	0.292897
N38	N	1.259401	0.541457	-0.292934
C39	C	1.339873	0.468218	0.647881
C40	C	1.364130	0.446141	0.529541
C41	C	1.307913	0.497292	0.470375
C42	C	1.227434	0.570525	0.529559
C43	C	1.203180	0.592613	0.647911
C44	C	1.171220	0.621687	0.470404
C45	C	1.090741	0.694920	0.529589
C46	C	1.066490	0.717003	0.647929
C47	C	1.122707	0.665852	0.707096
C48	C	1.195474	0.599599	0.352053
C49	C	1.058781	0.723994	0.352082
C50	C	1.034523	0.746071	0.470422
H51	H	0.871108	0.696856	-0.000025
C52	C	0.930274	0.265394	-0.000002
H53	H	0.999248	0.307825	0.000011
H54	H	0.931011	0.200783	-0.065564
H55	H	0.904106	0.225252	0.065572
H56	H	1.102955	0.683822	0.803458
H57	H	1.062415	0.162543	-0.076985
H58	H	0.795045	0.805792	-0.000039
C59	C	0.946009	0.826633	0.535533
H60	H	0.939625	0.832465	0.614487
H61	H	0.882195	0.785312	0.516157
H62	H	0.961614	0.911841	0.516136
H63	H	0.678643	0.972442	-0.000057
C64	C	0.977974	0.797565	0.713035
H65	H	0.971587	0.803403	0.791989
H66	H	0.914161	0.756241	0.693657
H67	H	0.993579	0.882772	0.693634
H68	H	1.180182	0.245593	0.187236
C69	C	1.009894	0.204907	0.104119
H70	H	1.011434	0.295495	0.104727
H71	H	1.027384	0.192754	0.170906
H72	H	0.941854	0.161069	0.100961
C73	C	0.468364	0.926800	-0.000043
H74	H	0.399387	0.884369	-0.000037
H75	H	0.494528	0.966949	-0.065606
H76	H	0.467623	0.991409	0.065530
C77	C	0.403410	0.427357	-0.000018
H78	H	0.371169	0.500899	-0.000025
H79	H	0.370184	0.389379	0.065545
H80	H	0.397079	0.364921	-0.065591
H81	H	1.254458	0.173055	-0.187220
C82	C	1.249792	-0.066448	-0.216307
H83	H	1.189640	-0.128210	-0.198366
H84	H	1.306934	-0.110952	-0.258231
H85	H	1.236280	-0.009480	-0.260134
H86	H	0.550046	0.272007	-0.000021
H87	H	1.327667	0.479314	0.374017
H88	H	0.719985	0.219769	-0.000008
C89	C	1.047504	-0.077449	-0.104443
H90	H	1.098198	-0.131058	-0.148535
H91	H	1.036711	-0.019052	-0.148657
H92	H	0.983648	-0.130733	-0.080290
C93	C	1.005215	-0.040808	0.102987
H94	H	1.038268	-0.078301	0.146430
H95	H	0.951627	-0.103280	0.078304
H96	H	0.975720	0.033315	0.148053
C97	C	1.153982	0.016753	0.215838
H98	H	1.125590	0.092302	0.259406
H99	H	1.190068	-0.016992	0.258766
H100	H	1.099133	-0.047456	0.196219
H101	H	1.310448	0.033663	0.112299
H102	H	1.316205	0.252244	0.111329
C103	C	1.386707	-0.013034	-0.107365
H104	H	1.384074	-0.051536	-0.043316
H105	H	1.432502	0.066863	-0.105011
H106	H	1.411506	-0.070814	-0.174372
C107	C	1.283997	0.519059	0.286957
H108	H	1.290402	0.513240	0.208001
H109	H	1.268412	0.433859	0.306355
H110	H	1.347806	0.560411	0.306345
H111	H	1.429656	0.386518	0.481358
H112	H	1.385643	0.426586	0.696063
C113	C	0.996942	0.780271	0.287011
H114	H	1.022907	0.756620	0.208053
H115	H	1.004595	0.872709	0.306401
H116	H	0.925176	0.746179	0.306418
H117	H	1.361364	0.211563	-0.114280
