data_functionalizedCrystal
_audit_creation_method	'MofGen! by Chris Wilmer'
_symmetry_space_group_name_H-M	'P1'
_symmetry_Int_Tables_number	1
_symmetry_cell_setting	triclinic
loop_
_symmetry_equiv_pos_as_xyz
  x,y,z
_cell_length_a	9.065215
_cell_length_b	14.519709
_cell_length_c	7.540329
_cell_angle_alpha	89.995460
_cell_angle_beta	89.997574
_cell_angle_gamma	84.347421
loop_
_atom_site_label
_atom_site_type_symbol
_atom_site_fract_x
_atom_site_fract_y
_atom_site_fract_z
O1	O	1.957867	0.135213	-0.147466
O2	O	2.291200	0.468546	0.185867
O3	O	2.624534	0.801879	0.519200
O4	O	1.528374	0.146307	-0.147475
O5	O	1.861707	0.479640	0.185859
O6	O	2.195040	0.812974	0.519192
O7	O	1.754508	0.006605	-0.147454
O8	O	2.087841	0.339938	0.185879
O9	O	2.421174	0.673271	0.519212
O10	O	1.731733	0.274915	-0.147487
O11	O	2.065066	0.608248	0.185847
O12	O	2.398400	0.941582	0.519180
O13	O	1.754494	0.006603	0.147511
O14	O	2.087828	0.339936	0.480844
O15	O	2.421161	0.673270	0.814177
O16	O	1.528360	0.146305	0.147490
O17	O	1.861693	0.479639	0.480824
O18	O	2.195027	0.812972	0.814157
O19	O	1.957853	0.135211	0.147499
O20	O	2.291187	0.468544	0.480832
O21	O	2.624520	0.801877	0.814165
Cu22	Cu	1.743106	0.140758	0.174427
Cu23	Cu	2.076439	0.474091	0.507760
Cu24	Cu	2.409772	0.807425	0.841094
Cu25	Cu	1.743121	0.140760	-0.174403
Cu26	Cu	2.076455	0.474093	0.158930
Cu27	Cu	2.409788	0.807427	0.492263
O28	O	1.731719	0.274913	0.147478
O29	O	2.065053	0.608246	0.480812
O30	O	2.398386	0.941580	0.814145
C31	C	1.473400	0.145241	0.000007
C32	C	1.806734	0.478574	0.333340
C33	C	2.140067	0.811907	0.666673
C34	C	1.309617	0.142054	0.000004
C35	C	1.642950	0.475388	0.333337
C36	C	1.976283	0.808721	0.666671
C37	C	1.753439	-0.027764	0.000028
C38	C	2.086773	0.305570	0.333362
C39	C	2.420106	0.638903	0.666695
C40	C	1.750259	-0.130168	0.000029
C41	C	2.083592	0.203165	0.333363
C42	C	2.416926	0.536498	0.666696
C43	C	1.738550	-0.505150	-0.000017
C44	C	2.071883	-0.171816	0.333316
C45	C	2.405216	0.161517	0.666650
C46	C	1.741801	-0.400818	-0.000004
C47	C	2.075135	-0.067485	0.333330
C48	C	2.408468	0.265849	0.666663
C49	C	1.744404	-0.317662	0.000008
C50	C	2.077737	0.015671	0.333341
C51	C	2.411071	0.349004	0.666674
C52	C	1.747656	-0.213324	0.000018
C53	C	2.080990	0.120009	0.333351
C54	C	2.414323	0.453343	0.666685
C55	C	2.012827	0.136277	0.000013
C56	C	2.346160	0.469611	0.333346
C57	C	2.679494	0.802944	0.666680
C58	C	2.176610	0.139464	0.000004
C59	C	2.509944	0.472797	0.333338
C60	C	2.843277	0.806130	0.666671
C61	C	1.732788	0.309282	-0.000008
C62	C	2.066121	0.642615	0.333325
C63	C	2.399454	0.975948	0.666658
C64	C	1.735968	0.411686	-0.000021
C65	C	2.069301	0.745019	0.333312
C66	C	2.402635	1.078353	0.666646
N67	N	1.743105	0.140756	0.419776
N68	N	2.076438	0.474089	0.753109
N69	N	2.409772	0.807423	1.086442
N70	N	1.743134	0.140755	-0.419752
N71	N	2.076467	0.474088	-0.086418
N72	N	2.409800	0.807421	0.246915
