data_functionalizedCrystal
_audit_creation_method	'MofGen! by Chris Wilmer'
_symmetry_space_group_name_H-M	'P1'
_symmetry_Int_Tables_number	1
_symmetry_cell_setting	triclinic
loop_
_symmetry_equiv_pos_as_xyz
  x,y,z
_cell_length_a	14.446369
_cell_length_b	23.196402
_cell_length_c	14.446369
_cell_angle_alpha	59.998062
_cell_angle_beta	90.000000
_cell_angle_gamma	60.002885
loop_
_atom_site_label
_atom_site_type_symbol
_atom_site_fract_x
_atom_site_fract_y
_atom_site_fract_z
Zr1	Zr	0.891871	0.630950	-0.121409
O2	O	0.744078	0.751221	-0.269217
O3	O	0.937164	0.510686	-0.076103
O4	O	0.937180	0.630954	-0.269217
O5	O	0.744065	0.630948	0.076234
O6	O	1.089517	0.630948	-0.269211
O7	O	0.744062	0.630954	-0.076103
O8	O	1.089488	0.415811	0.076234
O9	O	0.744094	0.846085	-0.269211
O10	O	1.070184	0.560146	-0.056771
O11	O	0.956499	0.560146	0.056913
O12	O	0.956518	0.701745	-0.170454
O13	O	0.842832	0.701745	-0.056771
Zr14	Zr	1.134835	0.630933	0.121560
Zr15	Zr	1.134831	0.630942	-0.121400
Zr16	Zr	0.891875	0.630942	0.121551
Zr17	Zr	0.891895	0.782247	-0.121400
Zr18	Zr	1.134811	0.479636	0.121551
O19	O	1.089543	0.751198	0.076254
O20	O	1.089536	0.751209	-0.269204
O21	O	0.744085	0.751209	0.076241
O22	O	1.282628	0.510662	0.269367
O23	O	1.282622	0.510674	-0.076091
O24	O	0.937170	0.510674	0.269355
O25	O	1.282641	0.630935	-0.076083
O26	O	1.089527	0.630930	0.269367
O27	O	0.937189	0.630935	0.269362
O28	O	1.282644	0.630930	0.076254
O29	O	0.937215	0.846079	-0.269204
O30	O	1.089492	0.415805	0.269355
O31	O	1.282613	0.415798	0.269362
O32	O	1.282609	0.415805	0.076241
O33	O	0.744097	0.846079	-0.076090
O34	O	0.937218	0.846072	-0.076083
O35	O	1.070188	0.560138	0.170604
O36	O	1.183874	0.560138	0.056921
O37	O	1.070207	0.701738	-0.056762
O38	O	0.956522	0.701738	0.056921
C39	C	1.013322	0.441692	0.000064
C40	C	1.013312	0.377462	0.000060
C41	C	1.097238	0.295028	0.083979
C42	C	1.097246	0.234668	0.083990
C43	C	1.013336	0.256746	0.000063
C44	C	0.929395	0.339195	-0.083863
C45	C	0.929383	0.399553	-0.083865
C46	C	0.987203	0.201163	-0.102370
C47	C	0.987223	0.140805	-0.102369
C48	C	1.013366	0.070585	0.000068
C49	C	1.039515	0.060722	0.102511
C50	C	1.039503	0.121079	0.102509
C51	C	1.013339	0.191304	0.000056
C52	C	1.097306	-0.077303	0.084005
C53	C	1.097306	-0.137662	0.084016
C54	C	0.929459	-0.033132	-0.083845
C55	C	0.929455	0.027224	-0.083847
C56	C	1.013384	0.005134	0.000077
C57	C	0.709447	0.630952	0.000064
C58	C	0.606304	0.630956	0.000060
C59	C	0.387948	0.720253	-0.071278
C60	C	0.495180	0.720314	-0.071679
C61	C	0.602972	0.586599	-0.052244
C62	C	0.495203	0.587166	-0.052767
C63	C	0.496570	0.585321	0.123793
C64	C	0.602540	0.587004	0.123599
C65	C	1.317259	0.630931	0.000086
C66	C	1.420402	0.630928	0.000090
C67	C	1.013348	0.630952	-0.303831
C68	C	1.013346	0.630956	-0.406974
C69	C	1.013384	0.820192	0.000087
C70	C	1.013394	0.884421	0.000090
C71	C	0.941310	0.720253	-0.625340
C72	C	0.941614	0.720314	-0.518108
C73	C	1.136872	0.586593	-0.410296
C74	C	1.136485	0.587160	-0.518064
C75	C	0.962878	0.585327	-0.516707
C76	C	0.960370	0.587010	-0.410738
C77	C	1.013359	0.630931	0.303981
C78	C	1.013360	0.630928	0.407124
C79	C	1.317228	0.441682	0.000075
C80	C	1.420361	0.377448	0.000075
C81	C	1.013328	0.441682	0.303970
C82	C	1.013319	0.377448	0.407109
C83	C	1.317234	0.441671	0.303981
C84	C	1.420368	0.377434	0.407124
C85	C	0.709472	0.820212	-0.303831
C86	C	0.606338	0.884449	-0.406974
C87	C	0.709478	0.820202	0.000075
C88	C	0.606345	0.884435	0.000075
C89	C	1.013378	0.820202	-0.303820
C90	C	1.013387	0.884435	-0.406959
C91	C	1.409448	0.347288	-0.059281
C92	C	1.506343	0.286942	-0.059304
C93	C	1.614149	0.256754	0.000037
C94	C	1.625060	0.286921	0.059395
C95	C	1.528166	0.347269	0.059410
C96	C	1.072660	0.347280	0.514900
C97	C	1.072648	0.286934	0.611820
C98	C	1.013301	0.256754	0.600945
C99	C	0.953953	0.286929	0.493143
C100	C	0.953959	0.347277	0.396226
C101	C	1.528154	0.347268	0.396219
C102	C	1.625069	0.286919	0.493124
C103	C	1.614196	0.256734	0.600932
C104	C	1.506399	0.286906	0.611834
C105	C	1.409486	0.347258	0.514931
C106	C	0.498552	0.914623	-0.396069
C107	C	0.401637	0.974990	-0.492973
C108	C	0.412510	1.005179	-0.600781
C109	C	0.520307	0.975003	-0.611684
C110	C	0.617220	0.914641	-0.514780
C111	C	0.617258	0.914602	0.059421
C112	C	0.520363	0.974964	0.059417
C113	C	0.412557	1.005154	0.000073
C114	C	0.401646	0.974985	-0.059280
C115	C	0.498540	0.914628	-0.059282
C116	C	1.072745	0.914596	-0.396048
C117	C	1.072776	0.974942	-0.492949
C118	C	1.013440	1.005130	-0.600759
C119	C	0.954079	0.974963	-0.611668
C120	C	0.954057	0.914614	-0.514768
H121	H	1.165590	0.167537	0.152330
C122	C	0.305900	1.071565	-0.707365
H123	H	0.240153	1.085199	-0.685420
H124	H	0.305880	1.118661	-0.751218
H125	H	0.305886	1.051776	-0.751200
C126	C	1.743631	0.253733	0.481111
H127	H	1.736218	0.280346	0.403025
H128	H	1.783917	0.263625	0.516434
H129	H	1.783895	0.196750	0.516449
H130	H	0.529147	0.999590	-0.699472
H131	H	0.965936	0.148840	-0.185783
H132	H	1.321676	0.371866	-0.107617
C133	C	1.540184	0.380430	0.124721
H134	H	1.618269	0.353797	0.160066
H135	H	1.504859	0.437410	0.073522
H136	H	1.504857	0.370522	0.180891
C137	C	0.735781	0.881424	-0.526783
H138	H	0.791950	0.841146	-0.453637
H139	H	0.744225	0.857894	-0.567060
H140	H	0.744316	0.924740	-0.567050
C141	C	1.494453	0.253689	0.730425
H142	H	1.567613	0.213419	0.786567
H143	H	1.454194	0.297003	0.738952
H144	H	1.454197	0.230133	0.738927
C145	C	0.888742	0.881454	-0.526784
H146	H	0.853401	0.908086	-0.604872
H147	H	0.939935	0.824473	-0.491453
H148	H	0.832573	0.891362	-0.491459
C149	C	1.720726	0.190366	0.000024
H150	H	1.786499	0.176705	0.043861
H151	H	1.720709	0.143285	0.031788
H152	H	1.720724	0.210159	-0.075592
H153	H	0.905634	0.262348	0.484305
C154	C	0.841853	0.623948	-0.584275
H155	H	0.820980	0.668249	-0.659578
H156	H	0.839361	0.584284	-0.585851
H157	H	0.790548	0.643157	-0.549091
H158	H	1.060795	0.003549	0.185924
C159	C	1.191074	0.629745	-0.586081
H160	H	1.191325	0.630462	-0.652410
H161	H	1.148826	0.684082	-0.607001
H162	H	1.266764	0.600949	-0.540792
C163	C	1.290928	0.380425	0.526940
H164	H	1.298343	0.353794	0.605027
H165	H	1.250642	0.437405	0.491609
H166	H	1.250663	0.370520	0.491612
C167	C	0.493008	0.767331	-0.024297
H168	H	0.426427	0.786570	-0.004634
H169	H	0.557919	0.732140	0.041150
H170	H	0.493309	0.812305	-0.080193
H171	H	0.489677	0.890046	-0.308295
H172	H	0.333999	0.755308	-0.036372
H173	H	1.693118	0.207591	0.679827
C174	C	0.283075	1.008166	-0.480961
H175	H	0.290488	0.981527	-0.402874
H176	H	0.242804	1.065143	-0.516278
H177	H	0.242797	0.998276	-0.516304
H178	H	1.497437	0.262388	-0.107640
C179	C	1.540131	0.380467	0.277641
H180	H	1.466983	0.420728	0.221479
H181	H	1.580396	0.404012	0.269145
H182	H	1.580397	0.337137	0.269140
H183	H	0.332968	0.755142	-0.161980
C184	C	0.735832	0.881403	0.124706
H185	H	0.728437	0.908026	0.160036
H186	H	0.776096	0.824424	0.180867
H187	H	0.776106	0.891296	0.073480
H188	H	0.529269	0.999518	0.107754
H189	H	0.313858	0.999575	-0.107596
H190	H	1.120980	0.262373	0.699588
H191	H	0.333669	1.054301	0.000084
C192	C	1.138024	0.881397	-0.277469
H193	H	1.173386	0.908003	-0.284866
H194	H	1.086810	0.891290	-0.237193
H195	H	1.194176	0.824413	-0.237202
H196	H	0.444863	0.618693	-0.143796
H197	H	0.489639	0.890068	-0.107605
C198	C	0.605871	0.628213	-0.174044
H199	H	0.603832	0.600926	-0.204970
H200	H	0.542095	0.683559	-0.219276
H201	H	0.673496	0.625813	-0.173022
C202	C	1.013468	1.071514	-0.707342
H203	H	0.969635	1.085174	-0.773118
H204	H	0.981711	1.118597	-0.707336
H205	H	1.089084	1.051716	-0.707332
H206	H	1.193085	0.521623	-0.491412
C207	C	1.189623	-0.228344	0.176334
H208	H	1.177604	-0.261130	0.164326
H209	H	1.262067	-0.239925	0.172852
H210	H	1.186136	-0.239927	0.248784
C211	C	0.837430	0.630705	-0.411447
H212	H	0.818458	0.675540	-0.409448
H213	H	0.787558	0.649835	-0.478388
H214	H	0.830436	0.593699	-0.346922
C215	C	1.137940	0.380472	0.526878
H216	H	1.129461	0.420732	0.453726
H217	H	1.108631	0.404019	0.567140
H218	H	1.216013	0.337139	0.567152
H219	H	1.121112	0.999497	-0.484045
H220	H	0.905770	0.999552	-0.699460
H221	H	0.905640	0.371833	0.308461
H222	H	1.165579	0.277034	0.152318
C223	C	1.013310	0.190367	0.707560
H224	H	1.057163	0.176721	0.773311
H225	H	0.937711	0.210143	0.707579
H226	H	1.045090	0.143271	0.707575
H227	H	1.177570	0.617399	-0.408151
C228	C	1.189613	-0.101592	0.176320
H229	H	1.177596	-0.053839	0.164291
H230	H	1.186134	-0.132960	0.248770
H231	H	1.262062	-0.132954	0.172834
C232	C	0.837156	-0.008839	-0.176159
H233	H	0.849184	-0.056592	-0.164142
H234	H	0.764710	0.022523	-0.172678
H235	H	0.840640	0.022529	-0.248612
H236	H	1.712848	0.262333	0.107707
C237	C	0.837146	0.117904	-0.176171
H238	H	0.787178	0.122412	-0.226160
H239	H	0.795687	0.143623	-0.141702
H240	H	0.871628	0.143621	-0.217626
C241	C	0.837066	0.490234	-0.176186
H242	H	0.787094	0.494742	-0.226173
H243	H	0.795611	0.515952	-0.141715
H244	H	0.871547	0.515951	-0.217643
H245	H	1.060790	0.113046	0.185921
H246	H	1.192883	0.520891	-0.332030
C247	C	0.958590	0.278353	-0.215045
H248	H	0.943081	0.275562	-0.276047
H249	H	0.893929	0.325103	-0.224829
H250	H	1.021168	0.281988	-0.213770
H251	H	0.492738	0.755333	-0.162931
C252	C	0.837098	0.363483	-0.176181
H253	H	0.849132	0.315729	-0.164169
H254	H	0.764650	0.394843	-0.172703
H255	H	0.840585	0.394852	-0.248632
C256	C	0.531188	0.498637	0.012907
H257	H	0.611544	0.462486	0.039780
H258	H	0.504091	0.486876	0.075364
H259	H	0.500142	0.491931	-0.035925
C260	C	0.708693	0.497845	0.014585
H261	H	0.755919	0.487028	0.075119
H262	H	0.686056	0.461865	0.044287
H263	H	0.749342	0.489891	-0.034427
H264	H	0.446552	0.613900	0.167487
C265	C	0.988169	0.767382	-0.699606
H266	H	1.051455	0.732856	-0.710909
H267	H	0.930882	0.813557	-0.770831
H268	H	1.011102	0.784793	-0.662878
H269	H	0.602027	0.619346	0.162672
C270	C	1.023901	0.498936	-0.303818
H271	H	1.083838	0.487761	-0.255270
H272	H	0.972895	0.492579	-0.265198
H273	H	1.054196	0.462126	-0.325029
H274	H	0.681689	0.521812	0.181248
H275	H	0.850653	0.755128	-0.519733
C276	C	0.533630	0.496430	0.195970
H277	H	0.502859	0.487123	0.150996
H278	H	0.614015	0.460573	0.222827
H279	H	0.506849	0.486762	0.258603
H280	H	0.850115	0.755311	-0.679293
H281	H	1.015107	0.519523	-0.489261
H282	H	0.976631	0.755337	-0.520558
