data_functionalizedCrystal
_audit_creation_method	'MofGen! by Chris Wilmer'
_symmetry_space_group_name_H-M	'P1'
_symmetry_Int_Tables_number	1
_symmetry_cell_setting	triclinic
loop_
_symmetry_equiv_pos_as_xyz
  x,y,z
_cell_length_a	19.188925
_cell_length_b	19.188924
_cell_length_c	11.892095
_cell_angle_alpha	93.873774
_cell_angle_beta	86.113334
_cell_angle_gamma	83.142256
loop_
_atom_site_label
_atom_site_type_symbol
_atom_site_fract_x
_atom_site_fract_y
_atom_site_fract_z
O1	O	0.930624	0.082671	-0.094033
O2	O	0.727312	0.094409	-0.094030
O3	O	0.834837	-0.013115	-0.094018
O4	O	0.823099	0.190196	-0.094045
O5	O	0.825872	-0.004164	0.093988
O6	O	0.718347	0.103361	0.093976
O7	O	0.921659	0.091622	0.093974
Zn8	Zn	0.818580	0.098913	0.123825
Zn9	Zn	0.830392	0.087119	-0.123881
O10	O	0.814134	0.199147	0.093962
C11	C	0.696819	0.098506	-0.000027
C12	C	0.619314	0.097367	-0.000025
C13	C	0.057543	0.152830	-0.000035
C14	C	0.130366	0.153906	-0.000041
C15	C	0.175302	0.090815	-0.000031
C16	C	0.147410	0.026640	-0.000043
C17	C	0.074588	0.025565	-0.000049
N18	N	0.292928	0.048186	0.063974
N19	N	0.362105	0.049211	0.063981
C20	C	0.394710	0.094049	-0.000018
N21	N	0.355523	0.137834	-0.064010
N22	N	0.286339	0.136811	-0.064013
C23	C	0.254266	0.091973	-0.000026
C24	C	0.501558	0.159386	-0.000020
C25	C	0.574383	0.160459	-0.000034
C26	C	0.591425	0.033192	-0.000024
C27	C	0.518601	0.032120	-0.000023
C28	C	0.473671	0.095219	-0.000015
C29	C	0.829975	-0.034651	-0.000014
C30	C	0.828836	-0.112155	-0.000011
C31	C	0.833192	-0.153434	-0.102493
C32	C	0.832112	-0.226257	-0.102502
C33	C	0.826691	-0.257800	-0.000022
C34	C	0.822331	-0.216512	0.102474
C35	C	0.823404	-0.143689	0.102480
N36	N	0.861102	-0.373833	0.076251
N37	N	0.860085	-0.443012	0.076238
C38	C	0.823458	-0.477210	-0.000033
N39	N	0.787896	-0.439618	-0.076309
N40	N	0.788916	-0.370433	-0.076300
C41	C	0.825527	-0.336763	-0.000017
C42	C	0.826642	-0.597451	-0.102532
C43	C	0.825558	-0.670275	-0.102536
C44	C	0.815784	-0.660530	0.102443
C45	C	0.816861	-0.587707	0.102444
C46	C	0.822293	-0.556173	-0.000046
C47	C	0.952153	0.087526	-0.000032
C48	C	1.029658	0.088665	-0.000041
C49	C	0.818996	0.220682	-0.000045
C50	C	0.820135	0.298187	-0.000055
N51	N	0.810523	0.106961	0.292878
N52	N	0.838454	0.079065	-0.292935
C53	C	0.894513	0.023019	0.529536
C54	C	0.888887	0.028650	0.647877
C55	C	0.793642	0.123851	0.647904
C56	C	0.799268	0.118220	0.529563
C57	C	0.849706	0.067803	0.470383
C58	C	0.855335	0.062176	0.352039
C59	C	0.760087	0.157372	0.352069
C60	C	0.754461	0.163003	0.470410
H61	H	0.495898	-0.020130	-0.000021
C62	C	0.452891	0.227962	-0.000089
C63	C	0.492904	0.284386	-0.000128
C64	C	0.448100	0.347567	-0.000209
H65	H	0.420986	0.233410	0.065454
H66	H	0.427268	0.227101	-0.065678
H67	H	0.518515	0.285247	0.065455
H68	H	0.524807	0.278961	-0.065666
H69	H	0.422476	0.346707	-0.065799
H70	H	0.416197	0.353008	0.065335
H71	H	0.475242	0.385858	-0.000247
C72	C	0.640180	-0.035344	-0.000248
C73	C	0.632232	-0.078589	-0.096987
C74	C	0.677144	-0.141727	-0.097244
H75	H	0.628664	-0.058633	0.065238
H76	H	0.687558	-0.025548	-0.000308
H77	H	0.584865	-0.088386	-0.096916
H78	H	0.643754	-0.055322	-0.162488
H79	H	0.724522	-0.131932	-0.097304
H80	H	0.665624	-0.165010	-0.031754
H81	H	0.671762	-0.171074	-0.162884
C82	C	0.711555	0.206031	0.287704
C83	C	0.751852	0.245432	0.219735
C84	C	0.707174	0.290259	0.160417
H85	H	0.680701	0.236924	0.339776
H86	H	0.684774	0.178814	0.241481
H87	H	0.778621	0.272647	0.265954
H88	H	0.782705	0.214557	0.167642
H89	H	0.680393	0.263042	0.114194
H90	H	0.676322	0.321147	0.212497
H91	H	0.734509	0.316993	0.114285
H92	H	0.813320	-0.554098	0.185897
C93	C	0.937564	-0.019854	0.712244
C94	C	0.976948	0.020461	0.780186
C95	C	1.021790	-0.024200	0.839507
H96	H	0.968467	-0.050699	0.660174
H97	H	0.910358	-0.046645	0.758487
H98	H	1.004152	0.047239	0.733947
H99	H	0.946063	0.051304	0.832276
H100	H	0.994584	-0.050991	0.885749
H101	H	1.052689	-0.055042	0.787429
H102	H	1.048513	0.003147	0.885619
C103	C	0.160737	0.223535	0.000154
C104	C	0.197443	0.232452	0.096874
C105	C	0.225434	0.296581	0.097089
H106	H	0.123617	0.261021	0.000216
H107	H	0.191959	0.223495	-0.065368
H108	H	0.166223	0.232498	0.162379
H109	H	0.234573	0.194982	0.096832
H110	H	0.256656	0.296540	0.031566
H111	H	0.188310	0.334062	0.097148
H112	H	0.250347	0.302636	0.162706
H113	H	0.837613	-0.127763	-0.185949
C114	C	0.830338	-0.714981	-0.213929
C115	C	0.835349	-0.671777	-0.303677
C116	C	0.839768	-0.712937	-0.406309
H117	H	0.789438	-0.738155	-0.218369
H118	H	0.870850	-0.749030	-0.218236
H119	H	0.794842	-0.637740	-0.299372
H120	H	0.876248	-0.648603	-0.299274
H121	H	0.880279	-0.746987	-0.410616
H122	H	0.798866	-0.736110	-0.410738
H123	H	0.843175	-0.683631	-0.467215
C124	C	0.818564	-0.098938	0.213836
C125	C	0.755306	-0.105681	0.275675
C126	C	0.750828	-0.064472	0.378268
H127	H	0.819938	-0.051028	0.199320
H128	H	0.857060	-0.114331	0.256009
H129	H	0.716819	-0.090284	0.233511
H130	H	0.753917	-0.153581	0.290222
H131	H	0.789324	-0.079866	0.420442
H132	H	0.752204	-0.016565	0.363741
H133	H	0.707911	-0.069047	0.420244
H134	H	0.896406	0.021126	0.303856
C135	C	0.196307	-0.041783	0.000026
C136	C	0.266049	-0.027107	0.000065
C137	C	0.311110	-0.090122	0.000138
H138	H	0.191094	-0.071273	-0.065519
H139	H	0.184784	-0.064989	0.065614
H140	H	0.277568	-0.003912	-0.065516
H141	H	0.271283	0.002373	0.065605
H142	H	0.299587	-0.113328	0.065726
H143	H	0.305891	-0.119608	-0.065408
H144	H	0.358434	-0.080173	0.000175
H145	H	0.835655	-0.259871	-0.185958
H146	H	0.020965	0.204211	-0.000034
H147	H	0.752572	0.164894	0.696104
H148	H	0.597085	0.212712	-0.000038
C149	C	0.044176	-0.044035	-0.000107
C150	C	-0.029213	-0.031473	-0.000136
C151	C	-0.057253	-0.095573	-0.000203
H152	H	0.056409	-0.066941	0.065437
H153	H	0.062700	-0.073130	-0.065695
H154	H	-0.047730	-0.002389	0.065446
H155	H	-0.041465	-0.008578	-0.065675
H156	H	-0.038730	-0.124668	-0.065792
H157	H	-0.045016	-0.118474	0.065342
H158	H	-0.107050	-0.087059	-0.000234
C159	C	0.816482	-0.250891	0.213622
C160	C	0.816494	-0.323505	0.191683
C161	C	0.811111	-0.355197	0.294048
H162	H	0.773948	-0.231587	0.255811
H163	H	0.855369	-0.242447	0.255747
H164	H	0.777610	-0.331944	0.149576
H165	H	0.859024	-0.342829	0.149510
H166	H	0.849998	-0.346753	0.336173
H167	H	0.768576	-0.335887	0.336230
H168	H	0.811124	-0.404469	0.279177
H169	H	0.831061	-0.571774	-0.185986
H170	H	0.811364	-0.686211	0.185884
H171	H	0.935586	-0.018028	0.481350
C172	C	0.699772	0.217719	0.534872
C173	C	0.704445	0.213078	0.651172
C174	C	0.654084	0.263479	0.710587
H175	H	0.654082	0.209390	0.515633
H176	H	0.708141	0.263393	0.515537
H177	H	0.696071	0.167415	0.670500
H178	H	0.750123	0.221414	0.670446
H179	H	0.662453	0.309153	0.691251
H180	H	0.608398	0.255146	0.691338
H181	H	0.657252	0.260341	0.789502
