data_functionalizedCrystal
_audit_creation_method	'MofGen! by Chris Wilmer'
_symmetry_space_group_name_H-M	'P1'
_symmetry_Int_Tables_number	1
_symmetry_cell_setting	triclinic
loop_
_symmetry_equiv_pos_as_xyz
  x,y,z
_cell_length_a	17.038272
_cell_length_b	10.654550
_cell_length_c	9.730223
_cell_angle_alpha	90.003749
_cell_angle_beta	89.998176
_cell_angle_gamma	92.201771
loop_
_atom_site_label
_atom_site_type_symbol
_atom_site_fract_x
_atom_site_fract_y
_atom_site_fract_z
O1	O	0.109875	-1.678036	-0.114405
O2	O	0.120343	-1.313530	-0.114384
O3	O	0.001281	-1.493617	-0.114383
O4	O	0.228936	-1.497950	-0.114406
O5	O	0.001284	-1.493615	0.114196
O6	O	0.120346	-1.313528	0.114196
O7	O	0.109878	-1.678034	0.114175
Zn8	Zn	0.115112	-1.495781	0.150477
Zn9	Zn	0.115108	-1.495783	-0.150686
O10	O	0.228939	-1.497948	0.114174
C11	C	0.119576	-1.266660	-0.000091
C12	C	0.117276	-1.127003	-0.000082
N13	N	0.115115	-1.495788	0.356014
C14	C	-0.027867	-1.489675	-0.000093
C15	C	-0.114726	-1.477918	-0.000093
C16	C	-0.164237	-1.585862	-0.000098
C17	C	-0.245850	-1.574808	-0.000111
C18	C	-0.277949	-1.455808	-0.000108
C19	C	-0.228431	-1.347856	-0.000107
C20	C	-0.146821	-1.358911	-0.000105
C21	C	-0.523925	-1.416750	-0.000125
C22	C	-0.605542	-1.405702	-0.000123
C23	C	-0.622955	-1.632656	-0.000129
C24	C	-0.541342	-1.643701	-0.000118
C25	C	-0.491831	-1.535749	-0.000124
C26	C	-0.361370	-1.444505	-0.000116
C27	C	-0.408412	-1.547052	-0.000126
C28	C	0.258088	-1.501889	-0.000119
C29	C	0.344947	-1.513646	-0.000128
C30	C	0.110645	-1.724905	-0.000121
C31	C	0.112944	-1.864562	-0.000139
C32	C	0.187378	-1.054026	-0.000109
C33	C	0.185212	-0.922804	-0.000132
C34	C	0.042837	-0.937548	-0.000108
C35	C	0.045004	-1.068767	-0.000075
C36	C	0.259650	-1.112262	-0.000116
C37	C	0.329758	-1.039285	-0.000145
C38	C	0.327592	-0.908063	-0.000168
C39	C	0.255319	-0.849818	-0.000163
N40	N	0.115100	-1.495785	-0.356223
C41	C	0.062412	-1.575554	0.427940
C42	C	0.062402	-1.575550	0.571823
C43	C	0.167805	-1.416010	0.571841
C44	C	0.167810	-1.416009	0.427961
C45	C	0.009717	-1.655334	0.355993
C46	C	-0.042990	-1.735107	0.427919
C47	C	-0.042999	-1.735103	0.571802
C48	C	0.009697	-1.655325	0.643759
H49	H	-0.286159	-1.662708	-0.000112
O50	O	-0.475950	-1.311761	-0.000051
C51	C	-0.467299	-1.085488	-0.000101
C52	C	-0.521725	-1.204290	-0.000159
H53	H	-0.504286	-0.998568	-0.000217
H54	H	-0.428674	-1.084902	0.095584
H55	H	-0.428636	-1.085051	-0.095737
H56	H	-0.560438	-1.204805	0.095412
H57	H	-0.560297	-1.204830	-0.095907
H58	H	-0.016004	-0.890114	-0.000127
H59	H	0.009721	-1.655347	0.238836
O60	O	0.218915	-1.338344	0.641676
C61	C	0.263518	-1.124756	0.685668
C62	C	0.205577	-1.212565	0.606521
H63	H	0.252765	-1.023047	0.657253
H64	H	0.254461	-1.138353	0.800874
H65	H	0.326267	-1.147879	0.657399
H66	H	0.142804	-1.189496	0.634675
H67	H	0.214702	-1.198953	0.491334
O68	O	-0.510075	-1.759233	-0.000313
C69	C	-0.428083	-1.903465	-0.118782
C70	C	-0.463423	-1.772574	-0.118722
H71	H	-0.390371	-1.914304	-0.214520
H72	H	-0.390263	-1.914344	-0.023186
H73	H	-0.477507	-1.978690	-0.118723
H74	H	-0.414050	-1.697271	-0.118829
H75	H	-0.501264	-1.761804	-0.214309
O76	O	-0.094304	-1.812522	0.641522
C77	C	-0.229910	-1.871596	0.685585
C78	C	-0.171895	-1.783851	0.606523
H79	H	-0.292654	-1.848430	0.657340
H80	H	-0.219192	-1.973344	0.657264
H81	H	-0.220827	-1.857916	0.800773
H82	H	-0.180944	-1.797420	0.491317
H83	H	-0.182627	-1.682135	0.634958
H84	H	0.210725	-1.351055	0.369398
O85	O	-0.133189	-1.701556	-0.000165
C86	C	-0.159083	-1.925493	-0.000109
C87	C	-0.194346	-1.794545	-0.000057
H88	H	-0.208511	-2.000710	0.000007
H89	H	-0.121336	-1.936424	-0.095792
H90	H	-0.121286	-1.936282	0.095528
H91	H	-0.232178	-1.783666	-0.095629
H92	H	-0.232047	-1.783674	0.095690
O93	O	-0.259704	-1.232327	-0.000289
C94	C	-0.341698	-1.088108	-0.118742
C95	C	-0.306351	-1.218994	-0.118697
H96	H	-0.379407	-1.077276	-0.214479
H97	H	-0.379523	-1.077233	-0.023146
H98	H	-0.292278	-1.012877	-0.118674
H99	H	-0.355721	-1.294304	-0.118814
H100	H	-0.268506	-1.229762	-0.214285
H101	H	0.009680	-1.655319	0.760918
O102	O	-0.094145	-1.812750	0.358152
C103	C	-0.138703	-2.026326	0.313969
C104	C	-0.080735	-1.938552	0.393102
H105	H	-0.127870	-2.128057	0.342175
H106	H	-0.201476	-2.003360	0.342266
H107	H	-0.129642	-2.012535	0.198792
H108	H	-0.089725	-1.952295	0.508297
H109	H	-0.017983	-1.961541	0.364691
O110	O	-0.023112	-1.139613	-0.000302
C111	C	-0.144155	-1.192359	-0.118661
C112	C	-0.067036	-1.112070	-0.118596
H113	H	-0.179697	-1.170100	-0.214277
H114	H	-0.130234	-1.296166	-0.118724
H115	H	-0.179653	-1.170186	-0.022961
H116	H	-0.031500	-1.134134	-0.214280
H117	H	-0.081012	-1.008287	-0.118462
H118	H	-0.663275	-1.720544	-0.000126
H119	H	-0.631674	-1.308794	-0.000099
H120	H	-0.106509	-1.271011	-0.000101
H121	H	-0.382273	-1.643941	-0.000158
H122	H	-0.387514	-1.347615	-0.000111
H123	H	0.384677	-0.848648	-0.000177
H124	H	0.261422	-1.219109	-0.000103
H125	H	0.388600	-1.086717	-0.000137
H126	H	0.253562	-0.742968	-0.000161
