data_functionalizedCrystal
_audit_creation_method	'MofGen! by Chris Wilmer'
_symmetry_space_group_name_H-M	'P1'
_symmetry_Int_Tables_number	1
_symmetry_cell_setting	triclinic
loop_
_symmetry_equiv_pos_as_xyz
  x,y,z
_cell_length_a	11.169417
_cell_length_b	14.909042
_cell_length_c	11.169409
_cell_angle_alpha	93.330125
_cell_angle_beta	90.019824
_cell_angle_gamma	86.720188
loop_
_atom_site_label
_atom_site_type_symbol
_atom_site_fract_x
_atom_site_fract_y
_atom_site_fract_z
Zn1	Zn	1.862467	-0.359060	0.650981
Zn2	Zn	2.195800	-0.025727	0.984314
Zn3	Zn	2.529133	0.307607	1.317648
Zn4	Zn	1.873915	-0.509951	0.438716
Zn5	Zn	2.207248	-0.176618	0.772049
Zn6	Zn	2.540581	0.156715	1.105382
Zn7	Zn	1.661757	-0.359115	0.450311
Zn8	Zn	1.995090	-0.025782	0.783645
Zn9	Zn	2.328424	0.307552	1.116978
Zn10	Zn	1.673313	-0.509878	0.639366
Zn11	Zn	2.006646	-0.176544	0.972699
Zn12	Zn	2.339980	0.156789	1.306033
O13	O	1.767863	-0.434501	0.544844
O14	O	2.101196	-0.101168	0.878177
O15	O	2.434530	0.232166	1.211510
O16	O	2.031936	-0.379084	0.622832
O17	O	2.365269	-0.045751	0.956165
O18	O	2.698602	0.287583	1.289498
O19	O	1.845726	-0.489996	0.272300
O20	O	2.179059	-0.156663	0.605633
O21	O	2.512393	0.176670	0.938967
O22	O	1.678754	-0.232865	0.486644
O23	O	2.012088	0.100469	0.819978
O24	O	2.345421	0.433802	1.153311
O25	O	2.040346	-0.489943	0.466881
O26	O	2.373680	-0.156610	0.800215
O27	O	2.707013	0.176724	1.133548
O28	O	1.826215	-0.232824	0.634076
O29	O	2.159548	0.100509	0.967409
O30	O	2.492882	0.433842	1.300742
O31	O	1.689855	-0.379178	0.280819
O32	O	2.023188	-0.045844	0.614153
O33	O	2.356521	0.287489	0.947486
O34	O	1.495340	-0.379106	0.475382
O35	O	1.828673	-0.045773	0.808715
O36	O	2.162006	0.287560	1.142048
O37	O	1.698450	-0.489818	0.808861
O38	O	2.031783	-0.156484	1.142194
O39	O	2.365117	0.176849	1.475528
O40	O	1.503830	-0.489871	0.614280
O41	O	1.837163	-0.156538	0.947613
O42	O	2.170496	0.176796	1.280946
O43	O	1.837420	-0.379013	0.817394
O44	O	2.170754	-0.045679	1.150728
O45	O	2.504087	0.287654	1.484061
O46	O	1.856932	-0.636185	0.455619
O47	O	2.190265	-0.302851	0.788952
O48	O	2.523598	0.030482	1.122285
O49	O	1.709551	-0.636131	0.603036
O50	O	2.042884	-0.302797	0.936369
O51	O	2.376217	0.030536	1.269702
C52	C	1.456037	-0.434487	0.544829
C53	C	1.789370	-0.101154	0.878163
C54	C	2.122704	0.232179	1.211496
C55	C	1.322638	-0.434503	0.544850
C56	C	1.655972	-0.101170	0.878183
C57	C	1.989305	0.232163	1.211516
C58	C	1.785770	-0.668891	0.526835
C59	C	2.119103	-0.335558	0.860168
C60	C	2.452437	-0.002224	1.193501
C61	C	1.793540	-0.769164	0.519170
C62	C	2.126874	-0.435831	0.852504
C63	C	2.460207	-0.102497	1.185837
C64	C	1.654526	-0.957596	0.658141
C65	C	1.987860	-0.624263	0.991474
C66	C	2.321193	-0.290929	1.324808
C67	C	1.661824	-1.051811	0.650944
C68	C	1.995157	-0.718478	0.984277
C69	C	2.328490	-0.385145	1.317611
C70	C	1.815426	-1.051812	0.497574
C71	C	2.148759	-0.718479	0.830907
C72	C	2.482092	-0.385145	1.164241
C73	C	1.808128	-0.957597	0.504771
C74	C	2.141462	-0.624263	0.838104
C75	C	2.474795	-0.290930	1.171438
C76	C	1.727677	-0.910492	0.585059
C77	C	2.061011	-0.577159	0.918392
C78	C	2.394344	-0.243825	1.251725
C79	C	1.720387	-0.816275	0.592261
C80	C	2.053720	-0.482941	0.925594
C81	C	2.387053	-0.149608	1.258928
C82	C	1.873982	-0.816277	0.438886
C83	C	2.207315	-0.482944	0.772219
C84	C	2.540648	-0.149610	1.105552
C85	C	1.881279	-0.910492	0.431689
C86	C	2.214612	-0.577159	0.765022
C87	C	2.547946	-0.243826	1.098355
C88	C	2.080906	-0.434515	0.544859
C89	C	2.414240	-0.101182	0.878192
C90	C	2.747573	0.232151	1.211525
C91	C	2.214307	-0.434522	0.544865
C92	C	2.547640	-0.101188	0.878198
C93	C	2.880973	0.232145	1.211532
C94	C	1.767947	-0.434401	0.857894
C95	C	2.101281	-0.101068	1.191227
C96	C	2.434614	0.232266	1.524561
C97	C	1.767983	-0.434358	0.991297
C98	C	2.101317	-0.101025	1.324631
C99	C	2.434650	0.232308	1.657964
C100	C	1.749919	-0.199196	0.562949
C101	C	2.083252	0.134138	0.896282
C102	C	2.416585	0.467471	1.229616
C103	C	1.742272	-0.098923	0.570665
C104	C	2.075605	0.234411	0.903998
C105	C	2.408938	0.567744	1.237331
C106	C	1.767843	-0.434536	0.233016
C107	C	2.101176	-0.101202	0.566349
C108	C	2.434509	0.232131	0.899683
C109	C	1.768020	-0.434324	0.099633
C110	C	2.101353	-0.100991	0.432966
C111	C	2.434686	0.232342	0.766300
H112	H	1.654883	-0.777923	0.657638
H113	H	1.988216	-0.444590	0.990971
H114	H	2.321549	-0.111256	1.324305
Br115	Br	1.990458	-0.974428	0.322734
Br116	Br	2.323791	-0.641095	0.656067
Br117	Br	2.657124	-0.307761	0.989400
Br118	Br	1.924601	-1.115755	0.388623
Br119	Br	2.257934	-0.782422	0.721956
Br120	Br	2.591267	-0.449089	1.055289
H121	H	1.933550	-0.777914	0.379380
H122	H	2.266883	-0.444581	0.712714
H123	H	2.600216	-0.111248	1.046047
H124	H	1.589028	-0.919243	0.723523
H125	H	1.922362	-0.585909	1.056856
H126	H	2.255695	-0.252576	1.390189
H127	H	1.602260	-1.090160	0.710459
H128	H	1.935593	-0.756827	1.043792
H129	H	2.268926	-0.423493	1.377125
