data_functionalizedCrystal
_audit_creation_method	'MofGen! by Chris Wilmer'
_symmetry_space_group_name_H-M	'P1'
_symmetry_Int_Tables_number	1
_symmetry_cell_setting	triclinic
loop_
_symmetry_equiv_pos_as_xyz
  x,y,z
_cell_length_a	19.902436
_cell_length_b	14.628931
_cell_length_c	14.628931
_cell_angle_alpha	89.999882
_cell_angle_beta	60.002575
_cell_angle_gamma	59.994751
loop_
_atom_site_label
_atom_site_type_symbol
_atom_site_fract_x
_atom_site_fract_y
_atom_site_fract_z
Zr1	Zr	0.735486	-0.120060	0.880639
O2	O	0.875666	-0.266039	0.734682
O3	O	0.595305	-0.075296	0.925379
O4	O	0.735486	-0.266021	0.925383
O5	O	0.735485	0.075118	0.734678
O6	O	0.735486	-0.266021	1.075815
O7	O	0.735485	-0.075314	0.734678
O8	O	0.484729	0.075150	1.075808
O9	O	0.986242	-0.266053	0.734685
O10	O	0.652963	-0.056221	1.056730
O11	O	0.652963	0.056045	0.944464
O12	O	0.818008	-0.168508	0.944469
O13	O	0.818007	-0.056242	0.832203
Zr14	Zr	0.735485	0.119862	1.120560
Zr15	Zr	0.735486	-0.120060	1.120560
Zr16	Zr	0.735485	0.119862	0.880639
Zr17	Zr	0.911842	-0.120083	0.880644
Zr18	Zr	0.559128	0.119885	1.120555
O19	O	0.875665	0.075098	1.075820
O20	O	0.875666	-0.266040	1.075819
O21	O	0.875665	0.075099	0.734682
O22	O	0.595305	0.265841	1.266517
O23	O	0.595305	-0.075297	1.266517
O24	O	0.595305	0.265842	0.925380
O25	O	0.735485	-0.075316	1.266521
O26	O	0.735485	0.265823	1.075816
O27	O	0.735485	0.265823	0.925384
O28	O	0.735485	0.075117	1.266521
O29	O	0.986242	-0.266054	0.925390
O30	O	0.484728	0.265856	1.075809
O31	O	0.484728	0.265855	1.266514
O32	O	0.484729	0.075150	1.266514
O33	O	0.986242	-0.075348	0.734685
O34	O	0.986242	-0.075348	0.925391
O35	O	0.652963	0.168310	1.056730
O36	O	0.652963	0.056044	1.168996
O37	O	0.818007	-0.056243	1.056735
O38	O	0.818007	0.056023	0.944469
C39	C	0.514890	-0.000070	1.000593
C40	C	0.440022	-0.000060	1.000591
C41	C	0.735485	-0.000098	0.700494
C42	C	0.735485	-0.000098	0.598641
C43	C	0.735485	0.300007	1.000600
C44	C	0.735484	0.401860	1.000600
C45	C	0.168012	-0.000112	1.000602
C46	C	0.196250	0.071050	0.930126
C47	C	0.274369	0.070757	0.929744
C48	C	0.302959	-0.000086	1.000597
C49	C	0.338523	-0.122085	0.948948
C50	C	0.260685	-0.121710	0.948418
C51	C	0.133497	0.049746	1.122763
C52	C	0.210549	0.052230	1.122584
C53	C	0.379227	-0.000077	1.000594
C54	C	0.091748	-0.000129	1.000601
C55	C	0.956081	-0.000128	1.000606
C56	C	1.030949	-0.000138	1.000608
C57	C	0.735486	-0.300205	1.000599
C58	C	0.735486	-0.402058	1.000599
C59	C	0.817357	0.391567	0.944911
C60	C	0.817359	0.496836	0.944910
C61	C	0.735485	-0.078858	0.553232
C62	C	0.735485	-0.078859	0.447962
C63	C	0.735485	-0.000100	1.300705
C64	C	0.735485	-0.000100	1.402558
C65	C	0.514890	-0.000071	1.300698
C66	C	0.440022	-0.000061	1.402549
C67	C	0.514889	0.300036	1.000594
C68	C	0.440021	0.401899	1.000592
C69	C	0.514889	0.300035	1.300699
C70	C	0.440021	0.401898	1.402550
C71	C	0.956081	-0.300233	0.700500
C72	C	1.030950	-0.402096	0.598649
C73	C	0.956081	-0.000127	0.700501
C74	C	1.030949	-0.000137	0.598650
C75	C	0.956081	-0.300234	1.000605
C76	C	1.030950	-0.402097	1.000607
C77	C	0.404863	-0.058668	1.391778
C78	C	0.334526	-0.058681	1.487468
C79	C	0.299345	-0.000080	1.593929
C80	C	0.334511	0.058528	1.604698
C81	C	0.404851	0.058535	1.509009
C82	C	0.404862	0.508346	1.059192
C83	C	0.334525	0.604066	1.059186
C84	C	0.299344	0.593337	1.000585
C85	C	0.334510	0.486878	0.941977
C86	C	0.404850	0.391160	0.941978
C87	C	0.404862	0.391132	1.508992
C88	C	0.334525	0.486834	1.604701
C89	C	0.299344	0.593300	1.593965
C90	C	0.334509	0.604064	1.487512
C91	C	0.404850	0.508363	1.391806
C92	C	1.066117	-0.391330	0.492207
C93	C	1.136476	-0.487032	0.396498
C94	C	1.171661	-0.593498	0.407234
C95	C	1.136491	-0.604262	0.513687
C96	C	1.066138	-0.508561	0.609393
C97	C	1.066115	0.058460	0.609421
C98	C	1.136471	0.058447	0.513731
C99	C	1.171655	-0.000157	0.407270
C100	C	1.136486	-0.058762	0.396501
C101	C	1.066136	-0.058754	0.492190
C102	C	1.066109	-0.391331	1.059220
C103	C	1.136446	-0.487033	1.059243
C104	C	1.171628	-0.593499	1.000648
C105	C	1.136462	-0.604263	0.942034
C106	C	1.066121	-0.508562	0.942017
H107	H	0.131744	0.161112	0.964587
H108	H	0.305901	0.690740	1.106916
C109	C	0.443513	0.520214	1.274723
H110	H	0.490449	0.447976	1.219252
H111	H	0.393002	0.559994	1.266347
H112	H	0.470959	0.559975	1.266334
H113	H	0.305903	-0.106407	1.478678
C114	C	1.175193	-0.721378	0.525481
H115	H	1.222120	-0.776823	0.453231
H116	H	1.202639	-0.729798	0.565245
H117	H	1.124691	-0.729773	0.565227
H118	H	0.665391	0.488606	1.048271
H119	H	1.165094	0.106174	0.522521
H120	H	0.305855	0.478158	0.894266
H121	H	1.037473	-0.304648	0.483445
H122	H	1.165118	-0.690961	0.894326
H123	H	0.735491	-0.146292	0.408908
H124	H	1.228946	-0.671415	0.329294
H125	H	1.165099	-0.478246	0.309829
H126	H	1.037505	-0.517340	0.696060
H127	H	0.065449	0.138203	1.165915
C128	C	1.249036	-0.000153	0.302021
H129	H	1.264929	0.043150	0.323694
H130	H	1.303927	-0.074818	0.258723
H131	H	1.225976	0.031239	0.258727
H132	H	0.887454	0.488199	0.897237
H133	H	0.433467	0.304490	0.894262
C134	C	0.295792	0.123006	1.721805
H135	H	0.326802	0.157916	1.714528
H136	H	0.229378	0.178455	1.761551
H137	H	0.307321	0.072422	1.761581
H138	H	0.735480	-0.146283	0.592291
C139	C	0.300581	-0.175619	0.826985
H140	H	0.253458	-0.175870	0.825591
H141	H	0.318055	-0.133889	0.782555
H142	H	0.354841	-0.250371	0.797897
H143	H	0.665388	0.606588	1.048282
C144	C	0.443507	0.123021	1.520871
H145	H	0.412468	0.157927	1.597982
H146	H	0.509921	0.072451	1.485982
H147	H	0.431958	0.178493	1.485987
C148	C	0.171701	0.173655	1.174706
H149	H	0.211630	0.192398	1.122356
H150	H	0.109205	0.222897	1.193611
H151	H	0.170318	0.180577	1.240297
C152	C	0.221965	0.698633	1.000601
H153	H	0.206062	0.763562	1.043907
H154	H	0.245013	0.698650	0.925945
H155	H	0.167070	0.698656	1.031989
H156	H	0.887451	0.304821	0.897230
H157	H	1.228904	-0.671416	1.000670
C158	C	1.175188	-0.123211	0.279391
H159	H	1.222113	-0.114805	0.223953
H160	H	1.202636	-0.200317	0.270975
H161	H	1.124686	-0.094249	0.270989
C162	C	1.027449	-0.123199	0.480328
H163	H	1.058476	-0.158088	0.403217
H164	H	1.038967	-0.178662	0.515219
H165	H	0.961033	-0.072595	0.515210
H166	H	1.037473	0.106190	0.696098
H167	H	0.735490	0.067330	0.441598
C168	C	1.027418	-0.274231	1.123684
H169	H	1.058432	-0.281542	1.158600
H170	H	1.038949	-0.234458	1.073109
H171	H	0.961000	-0.234457	1.179140
H172	H	1.165071	-0.478247	1.106972
C173	C	0.221964	-0.000084	1.699177
H174	H	0.206061	-0.043375	1.677505
H175	H	0.245009	-0.031462	1.742482
H176	H	0.167069	0.074589	1.742465
H177	H	0.359416	-0.177402	0.997815
C178	C	0.735486	0.090996	0.545890
H179	H	0.735480	0.140413	0.588034
H180	H	0.790600	0.056896	0.471063
H181	H	0.680364	0.131896	0.546049
C182	C	0.443556	0.274029	1.520817
H183	H	0.490480	0.218564	1.448579
H184	H	0.471002	0.265633	1.560575
H185	H	0.393050	0.265642	1.560584
H186	H	1.037502	-0.517343	0.894283
C187	C	0.443555	-0.123141	1.274684
H188	H	0.412542	-0.158053	1.281990
H189	H	0.432025	-0.072565	1.234907
H190	H	0.509974	-0.178606	1.234922
H191	H	0.433499	0.517104	1.106912
C192	C	0.221963	0.698561	1.699249
H193	H	0.206061	0.676891	1.764176
H194	H	0.245010	0.741861	1.699272
H195	H	0.167069	0.741858	1.699262
H196	H	0.222210	0.036773	0.840548
C197	C	0.295846	0.474974	1.721784
H198	H	0.326865	0.397858	1.714461
H199	H	0.307380	0.509851	1.761564
H200	H	0.229428	0.509881	1.761551
C201	C	0.295795	0.721180	1.475718
H202	H	0.248859	0.776625	1.547968
H203	H	0.346281	0.729593	1.435958
H204	H	0.268335	0.729582	1.435968
H205	H	0.247723	0.160593	0.964388
H206	H	0.244737	-0.177612	0.996435
C207	C	0.429056	-0.176396	0.828687
H208	H	0.445307	-0.124912	0.809770
H209	H	0.479744	-0.241817	0.823908
H210	H	0.417965	-0.195949	0.778187
C211	C	0.108013	-0.019928	1.194038
H212	H	0.118332	-0.079108	1.149625
H213	H	0.146865	-0.050260	1.220569
H214	H	0.043107	0.026601	1.255882
H215	H	0.226155	0.005788	1.179519
H216	H	0.338828	0.036188	0.839635
