data_functionalizedCrystal
_audit_creation_method	'MofGen! by Chris Wilmer'
_symmetry_space_group_name_H-M	'P1'
_symmetry_Int_Tables_number	1
_symmetry_cell_setting	triclinic
loop_
_symmetry_equiv_pos_as_xyz
  x,y,z
_cell_length_a	14.395555
_cell_length_b	14.446369
_cell_length_c	14.446369
_cell_angle_alpha	60.001874
_cell_angle_beta	90.001433
_cell_angle_gamma	60.003187
loop_
_atom_site_label
_atom_site_type_symbol
_atom_site_fract_x
_atom_site_fract_y
_atom_site_fract_z
Zr1	Zr	0.894908	1.013242	-0.121500
O2	O	0.746591	1.206341	-0.269298
O3	O	0.940370	0.820134	-0.076191
O4	O	0.940377	1.013236	-0.269302
O5	O	0.746584	1.013247	0.076142
O6	O	1.093244	1.013243	-0.269306
O7	O	0.746584	1.013238	-0.076187
O8	O	1.093232	0.667819	0.076135
O9	O	0.746596	1.358671	-0.269299
O10	O	1.073848	0.899571	-0.056870
O11	O	0.959765	0.899572	0.056813
O12	O	0.959773	1.126925	-0.170550
O13	O	0.845689	1.126927	-0.056866
Zr14	Zr	1.138713	1.013267	0.121441
Zr15	Zr	1.138713	1.013253	-0.121505
Zr16	Zr	0.894907	1.013256	0.121447
Zr17	Zr	0.894916	1.256192	-0.121501
Zr18	Zr	1.138705	0.770317	0.121443
O19	O	1.093250	1.206375	0.076133
O20	O	1.093251	1.206356	-0.269307
O21	O	0.746590	1.206360	0.076141
O22	O	1.287030	0.820169	0.269240
O23	O	1.287030	0.820150	-0.076199
O24	O	0.940370	0.820153	0.269248
O25	O	1.287037	1.013263	-0.076200
O26	O	1.093243	1.013273	0.269244
O27	O	0.940376	1.013266	0.269247
O28	O	1.287037	1.013271	0.076129
O29	O	0.940388	1.358680	-0.269304
O30	O	1.093232	0.667829	0.269246
O31	O	1.287025	0.667838	0.269241
O32	O	1.287025	0.667827	0.076131
O33	O	0.746595	1.358682	-0.076189
O34	O	0.940388	1.358691	-0.076193
O35	O	1.073848	0.899584	0.170492
O36	O	1.187931	0.899583	0.056808
O37	O	1.073856	1.126937	-0.056872
O38	O	0.959772	1.126938	0.056812
C39	C	1.016800	0.709361	-0.000028
C40	C	1.016797	0.606222	-0.000027
C41	C	0.944839	0.566935	0.071683
C42	C	0.945170	0.459299	0.072063
C43	C	1.140815	0.371514	0.051887
C44	C	1.140405	0.478759	0.052432
C45	C	0.965767	0.653934	-0.123697
C46	C	0.963279	0.547760	-0.123513
C47	C	0.711847	1.013241	-0.000022
C48	C	0.608345	1.013236	-0.000019
C49	C	0.609955	0.889273	0.061962
C50	C	0.516941	0.951247	0.106888
C51	C	0.516930	0.951267	-0.044913
C52	C	0.516694	1.075211	0.044969
C53	C	0.516697	1.075214	-0.106891
C54	C	0.423666	1.137278	-0.061992
C55	C	1.321774	1.013268	-0.000036
C56	C	1.425276	1.013273	-0.000039
C57	C	1.016811	1.013238	-0.303918
C58	C	1.016811	1.013232	-0.407056
C59	C	1.016820	1.317148	-0.000031
C60	C	1.016824	1.420287	-0.000031
C61	C	1.089116	0.869855	-0.482039
C62	C	1.088803	0.869758	-0.374711
C63	C	0.892853	1.084452	-0.481613
C64	C	0.893250	1.083542	-0.588472
C65	C	1.067461	1.086503	-0.590050
C66	C	1.069969	1.083801	-0.481378
C67	C	1.016810	1.013271	0.303860
C68	C	1.016810	1.013277	0.406998
C69	C	1.321764	0.709375	-0.000035
C70	C	1.425262	0.606241	-0.000037
C71	C	1.016800	0.709378	0.303862
C72	C	1.016796	0.606245	0.407000
C73	C	1.321763	0.709391	0.303855
C74	C	1.425262	0.606263	0.406990
C75	C	0.711857	1.317118	-0.303913
C76	C	0.608359	1.420246	-0.407048
C77	C	0.711857	1.317134	-0.000023
C78	C	0.608358	1.420268	-0.000022
C79	C	1.016821	1.317131	-0.303920
C80	C	1.016824	1.420264	-0.407058
C81	C	1.644386	0.459946	0.071283
C82	C	1.536784	0.566861	0.071696
C83	C	1.428598	0.479389	0.052260
C84	C	1.536738	0.372021	0.052771
C85	C	1.535366	0.546984	-0.123780
C86	C	1.429032	0.655448	-0.123574
C87	C	0.944491	0.459932	0.481985
C88	C	0.944800	0.566849	0.374655
C89	C	1.140755	0.479402	0.481551
C90	C	1.140362	0.372030	0.588410
C91	C	0.966157	0.546989	0.590000
C92	C	0.963644	0.655455	0.481328
C93	C	1.500504	0.459941	0.625346
C94	C	1.392800	0.566871	0.518122
C95	C	1.500060	0.479422	0.410300
C96	C	1.607293	0.372038	0.518061
C97	C	1.608919	0.546977	0.516721
C98	C	1.499867	0.655455	0.410760
H99	H	0.853305	0.655637	0.037079
H100	H	1.507821	0.522191	-0.177205
H101	H	1.509991	0.342064	0.004145
C102	C	1.425709	0.427298	0.174063
H103	H	1.422478	0.482654	0.193229
H104	H	1.360513	0.426008	0.178947
H105	H	1.492377	0.341095	0.225163
C106	C	0.821492	0.687531	0.301328
H107	H	0.770758	0.671502	0.337015
H108	H	0.812507	0.761396	0.292904
H109	H	0.805129	0.704124	0.228823
H110	H	1.338352	0.656209	0.519748
C111	C	0.993045	0.339135	0.195298
H112	H	1.012378	0.355984	0.245323
H113	H	0.937290	0.322024	0.212024
H114	H	1.059031	0.265259	0.204581
H115	H	1.607007	0.281294	0.568391
H116	H	1.180082	0.813880	-0.320439
C117	C	1.497355	0.510214	0.698264
H118	H	1.563925	0.507498	0.709569
H119	H	1.432056	0.597751	0.660670
H120	H	1.494167	0.456378	0.769560
H121	H	0.979295	0.370270	0.480949
H122	H	0.853879	0.495834	0.037273
H123	H	1.181936	0.279080	0.141998
H124	H	0.875813	0.747512	-0.167105
C125	C	1.538974	0.687558	0.024322
H126	H	1.605788	0.671537	0.004656
H127	H	1.473833	0.761409	-0.041117
H128	H	1.538680	0.704170	0.080221
C129	C	1.026707	0.519100	-0.201717
H130	H	1.086946	0.428614	-0.159896
H131	H	0.975386	0.541709	-0.262834
H132	H	1.056954	0.569282	-0.230646
C133	C	1.499069	0.338836	0.699592
H134	H	1.566036	0.264247	0.710887
H135	H	1.496141	0.324894	0.770819
H136	H	1.434148	0.352647	0.662858
C137	C	1.193336	1.013657	-0.411920
H138	H	1.212376	0.941670	-0.337932
H139	H	1.243393	0.982945	-0.448140
H140	H	1.200343	1.073084	-0.406816
H141	H	1.587258	0.281275	0.143793
H142	H	0.516018	0.898849	-0.082874
C143	C	0.838460	1.015176	-0.588120
H144	H	0.816177	0.988211	-0.522796
H145	H	0.773531	1.074303	-0.654301
H146	H	0.891880	0.940819	-0.587023
C147	C	1.536971	0.509469	0.304570
H148	H	1.507016	0.599855	0.257354
H149	H	1.617658	0.458766	0.327198
H150	H	1.508987	0.488344	0.263915
C151	C	1.188914	1.024500	-0.595598
H152	H	1.209868	0.953366	-0.599767
H153	H	1.191417	1.088185	-0.660857
H154	H	1.240394	0.993661	-0.529567
H155	H	1.022780	1.188471	-0.506893
C156	C	0.992240	0.518472	0.194196
H157	H	1.055695	0.522074	0.201835
H158	H	0.934876	0.572638	0.211292
H159	H	1.015417	0.430785	0.245046
H160	H	0.516013	0.898859	0.197261
C161	C	1.195541	0.423643	0.175352
H162	H	1.217975	0.336052	0.224485
H163	H	1.260408	0.425275	0.180722
H164	H	1.142241	0.475590	0.196690
C165	C	0.820871	0.510194	0.478843
H166	H	0.812248	0.507484	0.545175
H167	H	0.770748	0.597727	0.413769
H168	H	0.803359	0.456344	0.475675
C169	C	1.042097	0.794179	-0.480633
H170	H	0.978589	0.849611	-0.547374
H171	H	1.099587	0.720039	-0.477713
H172	H	1.019082	0.766223	-0.415949
H173	H	1.196962	0.501010	0.003551
C174	C	1.718896	0.338844	0.193813
H175	H	1.738197	0.363632	0.236350
H176	H	1.678067	0.302967	0.227352
H177	H	1.786405	0.275226	0.193329
C178	C	1.041327	0.793795	-0.302053
H179	H	1.022147	0.762886	-0.338099
H180	H	1.097220	0.721596	-0.229444
H181	H	0.975302	0.850058	-0.293812
C182	C	1.717541	0.510246	0.024142
H183	H	1.728878	0.507541	-0.039484
H184	H	1.679804	0.597783	0.001683
H185	H	1.789091	0.456421	0.081144
H186	H	0.836443	1.188768	-0.667051
H187	H	1.686149	0.342079	0.491406
H188	H	1.196787	0.343008	0.002140
C189	C	1.322497	0.509424	-0.014561
H190	H	1.275106	0.599812	-0.075089
H191	H	1.345205	0.458726	-0.044269
H192	H	1.281707	0.488286	0.034452
H193	H	0.836639	1.189944	-0.508843
C194	C	1.534489	0.698840	0.303843
H195	H	1.579452	0.728056	0.308425
H196	H	1.577236	0.627062	0.298471
H197	H	1.468133	0.768186	0.238666
H198	H	1.585559	0.586555	-0.167471
H199	H	1.180631	0.813568	-0.479702
H200	H	1.448258	0.440879	0.408155
C201	C	0.316094	1.278991	-0.132792
H202	H	0.315432	1.322818	-0.100736
H203	H	0.315996	1.323337	-0.208379
H204	H	0.250483	1.278240	-0.132917
C205	C	0.839882	0.601034	-0.175928
H206	H	0.821063	0.545827	-0.122792
H207	H	0.789797	0.687050	-0.194929
H208	H	0.832665	0.603059	-0.242395
C209	C	0.517810	1.145932	0.096399
H210	H	0.584046	1.145447	0.096129
H211	H	0.452071	1.233759	0.052705
H212	H	0.518027	1.102194	0.172110
H213	H	1.017921	0.680199	-0.177372
H214	H	1.687410	0.522184	0.489275
C215	C	1.195125	0.249438	0.588040
H216	H	1.217396	0.265599	0.522709
H217	H	1.260056	0.177677	0.654214
H218	H	1.141689	0.229427	0.586941
H219	H	1.338811	0.529419	0.520568
H220	H	1.613064	0.586534	0.566748
C221	C	1.430183	0.777691	0.411464
H222	H	1.355929	0.798674	0.409462
H223	H	1.466533	0.760633	0.478400
H224	H	1.425074	0.849193	0.346940
H225	H	0.517669	1.127557	-0.197245
H226	H	0.852017	1.034979	-0.430009
H227	H	1.015027	1.192168	-0.668247
H228	H	1.197169	0.342081	0.666989
C229	C	0.717710	0.747684	0.132864
H230	H	0.718495	0.703846	0.208791
H231	H	0.717919	0.703196	0.101734
H232	H	0.783204	0.748667	0.131827
H233	H	1.539249	0.529399	0.162947
C234	C	1.429711	0.777703	-0.176366
H235	H	1.427701	0.798684	-0.123353
H236	H	1.496874	0.760670	-0.195543
H237	H	1.364951	0.849196	-0.242767
H238	H	1.349599	0.687566	-0.181217
H239	H	0.979934	0.529383	0.320869
H240	H	1.196971	0.501652	0.508780
H241	H	1.181586	0.440844	0.429943
H242	H	0.872323	0.745941	0.429910
C243	C	0.844710	0.600449	0.595564
H244	H	0.815720	0.676854	0.593678
H245	H	0.797242	0.621521	0.532586
H246	H	0.846247	0.535948	0.663875
H247	H	1.010841	0.687583	0.506849
H248	H	1.018576	0.522206	0.668213
