data_functionalizedCrystal
_audit_creation_method	'MofGen! by Chris Wilmer'
_symmetry_space_group_name_H-M	'P1'
_symmetry_Int_Tables_number	1
_symmetry_cell_setting	triclinic
loop_
_symmetry_equiv_pos_as_xyz
  x,y,z
_cell_length_a	19.188905
_cell_length_b	19.188924
_cell_length_c	9.798715
_cell_angle_alpha	89.994789
_cell_angle_beta	89.989196
_cell_angle_gamma	83.138260
loop_
_atom_site_label
_atom_site_type_symbol
_atom_site_fract_x
_atom_site_fract_y
_atom_site_fract_z
O1	O	0.926153	0.087083	-0.113722
O2	O	0.722839	0.098836	-0.113676
O3	O	0.830366	-0.008697	-0.113684
O4	O	0.818626	0.194616	-0.113714
O5	O	0.830358	-0.008697	0.113298
O6	O	0.722831	0.098835	0.113306
O7	O	0.926145	0.087083	0.113260
Zn8	Zn	0.824487	0.092959	0.149321
Zn9	Zn	0.824497	0.092959	-0.149737
O10	O	0.818618	0.194616	0.113268
C11	C	0.829982	-0.034708	-0.000192
C12	C	0.828844	-0.112213	-0.000188
C13	C	0.696824	0.098458	-0.000179
C14	C	0.619318	0.097324	-0.000161
C15	C	0.828317	-0.148612	-0.123916
C16	C	0.827237	-0.221434	-0.123926
C17	C	0.826698	-0.257857	-0.000201
C18	C	0.827221	-0.221449	0.123543
C19	C	0.828294	-0.148627	0.123550
N20	N	0.864743	-0.377524	0.091876
N21	N	0.863725	-0.446702	0.091861
C22	C	0.823464	-0.477266	-0.000214
N23	N	0.784267	-0.436040	-0.092294
N24	N	0.785288	-0.366856	-0.092283
C25	C	0.825534	-0.336821	-0.000195
C26	C	0.821765	-0.592627	-0.123961
C27	C	0.820680	-0.665451	-0.123966
C28	C	0.820672	-0.665465	0.123507
C29	C	0.821749	-0.592642	0.123508
C30	C	0.822299	-0.556228	-0.000230
C31	C	0.582931	0.096780	-0.123892
C32	C	0.510107	0.095707	-0.123909
C33	C	0.473676	0.095164	-0.000188
C34	C	0.510072	0.095713	0.123560
C35	C	0.582893	0.096793	0.123574
N36	N	0.364653	0.053735	0.091893
N37	N	0.295476	0.052708	0.091871
C38	C	0.254269	0.091911	-0.000220
N39	N	0.284854	0.132173	-0.092311
N40	N	0.354037	0.133197	-0.092294
C41	C	0.394713	0.093993	-0.000188
C42	C	0.138918	0.090205	-0.123978
C43	C	0.066093	0.089136	-0.123990
C44	C	0.066059	0.089135	0.123483
C45	C	0.138882	0.090210	0.123491
C46	C	0.175308	0.090742	-0.000243
C47	C	0.952160	0.087461	-0.000240
C48	C	1.029666	0.088594	-0.000267
C49	C	0.819002	0.220627	-0.000227
C50	C	0.820141	0.298132	-0.000240
N51	N	0.824485	0.092959	0.353421
N52	N	0.824505	0.092955	-0.353837
C53	C	0.869635	0.047612	0.421195
C54	C	0.869646	0.047609	0.578357
H55	H	0.828762	-0.118968	-0.224673
C56	C	0.772282	0.145408	0.567453
H57	H	0.743966	0.173860	0.630381
H58	H	0.743242	0.120431	0.511728
H59	H	0.797425	0.174305	0.511696
C60	C	0.622996	0.097380	-0.259991
H61	H	0.671579	0.098099	-0.242267
H62	H	0.605607	0.137911	-0.310830
H63	H	0.616531	0.056493	-0.310832
H64	H	0.480475	0.095264	-0.224670
H65	H	0.036397	0.088697	0.224220
C66	C	0.622924	0.097387	0.259680
H67	H	0.671511	0.098111	0.241967
H68	H	0.616439	0.056506	0.310527
H69	H	0.605527	0.137924	0.310507
H70	H	0.480404	0.095272	0.224295
H71	H	0.908279	0.008788	0.362869
C72	C	0.026062	0.088540	-0.260098
H73	H	-0.022526	0.087830	-0.242388
H74	H	0.043458	0.048008	-0.310927
H75	H	0.032549	0.129427	-0.310942
H76	H	0.826803	-0.251075	-0.224684
H77	H	0.168576	0.090645	-0.224730
C78	C	0.178912	0.090800	0.259598
H79	H	0.146787	0.090318	0.333282
H80	H	0.201863	0.131927	0.264743
H81	H	0.212775	0.050509	0.264749
H82	H	0.826781	-0.251109	0.224281
C83	C	0.921865	-0.004841	0.657083
H84	H	0.915018	0.002034	0.752385
H85	H	0.968484	0.002475	0.633702
H86	H	0.914298	-0.051397	0.633744
H87	H	0.785836	0.131777	0.411748
H88	H	0.828720	-0.118991	0.224307
H89	H	0.822208	-0.562977	-0.224716
H90	H	0.820228	-0.695119	0.224246
C91	C	0.820097	-0.705489	-0.260075
H92	H	0.820584	-0.673370	-0.333761
H93	H	0.778971	-0.728441	-0.265219
H94	H	0.860389	-0.739353	-0.265223
H95	H	0.822184	-0.563007	0.224261
