data_functionalizedCrystal
_audit_creation_method	'MofGen! by Chris Wilmer'
_symmetry_space_group_name_H-M	'P1'
_symmetry_Int_Tables_number	1
_symmetry_cell_setting	triclinic
loop_
_symmetry_equiv_pos_as_xyz
  x,y,z
_cell_length_a	17.917603
_cell_length_b	14.560438
_cell_length_c	14.560438
_cell_angle_alpha	90.001148
_cell_angle_beta	57.012187
_cell_angle_gamma	63.034080
loop_
_atom_site_label
_atom_site_type_symbol
_atom_site_fract_x
_atom_site_fract_y
_atom_site_fract_z
Zr1	Zr	0.818614	0.930608	-0.166359
O2	O	0.974640	0.792696	-0.321746
O3	O	0.662587	0.966827	-0.112665
O4	O	0.818611	0.975563	-0.313004
O5	O	0.818618	0.783960	0.029732
O6	O	0.818609	1.126703	-0.313002
O7	O	0.818616	0.783960	-0.121406
O8	O	0.539511	1.111076	0.045369
O9	O	1.097717	0.799588	-0.328639
O10	O	0.726761	1.102388	-0.097084
O11	O	0.726765	0.989594	0.015707
O12	O	0.910463	0.999880	-0.220167
O13	O	0.910466	0.887086	-0.107376
Zr14	Zr	0.818614	1.171661	0.074693
Zr15	Zr	0.818610	1.171660	-0.166355
Zr16	Zr	0.818617	0.930609	0.074689
Zr17	Zr	1.014906	0.941600	-0.177352
Zr18	Zr	0.622321	1.160669	0.085687
O19	O	0.974640	1.135443	0.020999
O20	O	0.974636	1.135440	-0.321740
O21	O	0.974645	0.792698	0.020993
O22	O	0.662587	1.309573	0.230080
O23	O	0.662582	1.309571	-0.112659
O24	O	0.662592	0.966829	0.230074
O25	O	0.818609	1.318309	-0.121398
O26	O	0.818616	1.126706	0.221338
O27	O	0.818618	0.975566	0.221336
O28	O	0.818611	1.318309	0.029740
O29	O	1.097714	0.991192	-0.328636
O30	O	0.539513	1.111077	0.236970
O31	O	0.539511	1.302681	0.236973
O32	O	0.539508	1.302680	0.045372
O33	O	1.097719	0.799589	-0.137038
O34	O	1.097717	0.991193	-0.137035
O35	O	0.726765	1.102389	0.128501
O36	O	0.726761	1.215183	0.015710
O37	O	0.910463	1.112675	-0.107373
O38	O	0.910466	0.999881	0.005418
C39	C	0.573081	1.037385	-0.032081
C40	C	0.489750	1.032719	-0.027414
C41	C	0.818618	1.051136	0.255681
C42	C	0.818619	1.051137	0.358012
C43	C	0.818609	1.352654	-0.045828
C44	C	0.818608	1.454987	-0.045827
C45	C	0.337180	1.024193	-0.018892
C46	C	0.300042	1.078073	-0.072771
C47	C	0.215147	1.073330	-0.068029
C48	C	0.422083	1.028935	-0.023632
C49	C	1.064146	1.064884	-0.059584
C50	C	1.147477	1.069550	-0.064251
C51	C	0.818618	0.749615	-0.045838
C52	C	0.818619	0.647282	-0.045839
C53	C	0.722720	1.556571	0.018422
C54	C	0.722725	1.652720	0.018413
C55	C	0.914515	1.545687	-0.110096
C56	C	0.914509	1.449540	-0.110092
C57	C	0.818609	1.051133	-0.347347
C58	C	0.818608	1.051132	-0.449678
C59	C	0.914508	0.997630	0.341843
C60	C	0.914503	0.997624	0.437998
C61	C	0.722712	1.104640	0.566490
C62	C	0.722718	1.104639	0.470335
C63	C	0.573077	1.338904	-0.032077
C64	C	0.489744	1.436571	-0.027408
C65	C	0.573085	1.037387	0.269433
C66	C	0.489755	1.032721	0.376431
C67	C	0.573081	1.338906	0.269437
C68	C	0.489750	1.436573	0.376437
C69	C	1.064146	0.763363	-0.361103
C70	C	1.147477	0.665696	-0.468103
C71	C	1.064150	0.763365	-0.059589
C72	C	1.147483	0.665698	-0.064258
C73	C	1.064142	1.064882	-0.361099
C74	C	1.147472	1.069548	-0.468097
C75	C	0.450610	1.423558	-0.084103
C76	C	0.372321	1.515318	-0.079740
C77	C	0.333162	1.620088	-0.018673
C78	C	0.372304	1.633099	0.038023
C79	C	0.450597	1.541341	0.033652
C80	C	0.450623	1.089408	0.485566
C81	C	0.372336	1.085020	0.586111
C82	C	0.333179	1.023952	0.577518
C83	C	0.372319	0.967258	0.468371
C84	C	0.450609	0.971640	0.367829
C85	C	0.450615	1.541326	0.367810
C86	C	0.372327	1.633105	0.468338
C87	C	0.333170	1.620127	0.577492
C88	C	0.372313	1.515364	0.586117
C89	C	0.450605	1.423588	0.485590
C90	C	1.186622	0.560943	-0.459476
C91	C	1.264934	0.469166	-0.560005
C92	C	1.304095	0.482144	-0.669160
C93	C	1.264947	0.586907	-0.677785
C94	C	1.186642	0.678682	-0.577257
C95	C	1.186625	0.678711	-0.007573
C96	C	1.264936	0.586953	-0.011964
C97	C	1.304098	0.482183	-0.073034
C98	C	1.264952	0.469171	-0.129726
C99	C	1.186648	0.560929	-0.125341
C100	C	1.186605	1.130627	-0.459467
C101	C	1.264892	1.135032	-0.559993
C102	C	1.304050	1.078352	-0.669149
C103	C	1.264909	1.017271	-0.677776
C104	C	1.186618	1.012872	-0.577251
H105	H	0.332006	1.127764	-0.122462
Br106	Br	0.592568	1.177249	0.718929
Br107	Br	0.283903	0.941383	0.063932
H108	H	1.154781	0.550318	-0.171498
Br109	Br	0.592570	1.563965	0.105635
Br110	Br	1.044653	1.311664	-0.197302
H111	H	0.992594	1.541266	-0.162417
H112	H	0.269420	1.694866	0.659339
H113	H	0.992596	0.954063	0.250388
Br114	Br	1.133480	1.207561	-0.311340
Br115	Br	1.318044	0.327001	-0.548273
Br116	Br	0.592585	1.790585	0.105606
Br117	Br	1.044643	0.924987	0.416047
H118	H	1.296842	0.597461	-0.766670
H119	H	0.340425	0.917537	0.461393
Br120	Br	0.319219	1.775270	0.456605
Br121	Br	1.318109	0.326974	-0.212598
H122	H	0.482458	1.338296	0.492631
Br123	Br	1.317999	1.217928	-0.548257
Br124	Br	1.410305	1.084331	-0.805567
Br125	Br	0.319145	1.775297	0.120898
H126	H	0.482496	1.139137	0.492584
H127	H	1.367856	0.407405	-0.751007
H128	H	0.644630	1.148210	0.483510
H129	H	1.154741	0.550356	-0.370606
H130	H	1.296804	0.971123	-0.766664
H131	H	0.482493	1.338257	-0.133844
Br132	Br	1.133527	0.929962	-0.588984
Br133	Br	0.319215	1.497634	-0.156689
Br134	Br	1.133521	0.820843	-0.588986
H135	H	0.269410	1.694795	-0.015122
Br136	Br	0.226926	1.018016	0.713983
Br137	Br	0.503745	1.558969	0.219684
Br138	Br	0.503692	1.559021	0.110611
H139	H	0.340477	1.131192	0.674973
H140	H	0.482461	0.925482	0.278970
Br141	Br	1.133497	0.820889	0.075312
Br142	Br	1.318043	0.604637	0.064984
Br143	Br	0.319161	1.497770	0.734265
H144	H	1.367858	0.407477	-0.076596
