data_functionalizedCrystal
_audit_creation_method	'MofGen! by Chris Wilmer'
_symmetry_space_group_name_H-M	'P1'
_symmetry_Int_Tables_number	1
_symmetry_cell_setting	triclinic
loop_
_symmetry_equiv_pos_as_xyz
  x,y,z
_cell_length_a	11.169417
_cell_length_b	29.839131
_cell_length_c	11.169417
_cell_angle_alpha	90.015401
_cell_angle_beta	90.000863
_cell_angle_gamma	90.042299
loop_
_atom_site_label
_atom_site_type_symbol
_atom_site_fract_x
_atom_site_fract_y
_atom_site_fract_z
Zn1	Zn	1.834478	-0.178916	0.678477
Zn2	Zn	2.334478	0.321084	1.178477
Zn3	Zn	1.834325	-0.254025	0.477767
Zn4	Zn	2.334325	0.245975	0.977767
Zn5	Zn	1.633831	-0.178911	0.477812
Zn6	Zn	2.133831	0.321089	0.977812
Zn7	Zn	1.633663	-0.254021	0.678412
Zn8	Zn	2.133663	0.245979	1.178412
O9	O	1.734074	-0.216468	0.578117
O10	O	2.234074	0.283532	1.078117
O11	O	2.002408	-0.188883	0.651861
O12	O	2.502408	0.311117	1.151861
O13	O	1.807735	-0.244061	0.309823
O14	O	2.307735	0.255939	0.809823
O15	O	1.660581	-0.116045	0.504477
O16	O	2.160581	0.383955	1.004477
O17	O	2.002295	-0.244066	0.504400
O18	O	2.502295	0.255934	1.004400
O19	O	1.807996	-0.116048	0.651905
O20	O	2.307996	0.383952	1.151905
O21	O	1.660433	-0.188875	0.309856
O22	O	2.160433	0.311125	0.809856
O23	O	1.465859	-0.188871	0.504413
O24	O	1.965859	0.311129	1.004413
O25	O	1.660295	-0.244058	0.846370
O26	O	2.160295	0.255942	1.346370
O27	O	1.465736	-0.244054	0.651793
O28	O	1.965736	0.255946	1.151793
O29	O	1.807834	-0.188879	0.846418
O30	O	2.307834	0.311121	1.346418
O31	O	1.807573	-0.316892	0.504337
O32	O	2.307573	0.183108	1.004337
O33	O	1.660147	-0.316889	0.651750
O34	O	2.160147	0.183111	1.151750
C35	C	1.422250	-0.216461	0.578101
C36	C	1.922250	0.283539	1.078101
C37	C	1.288850	-0.216469	0.578123
C38	C	1.788850	0.283531	1.078123
C39	C	1.733858	-0.333191	0.578057
C40	C	2.233858	0.166809	1.078057
C41	C	1.733875	-0.383125	0.578072
C42	C	2.233875	0.116875	1.078072
C43	C	1.810978	-0.692758	0.501471
C44	C	2.310978	-0.192758	1.001471
C45	C	1.811127	-0.880431	0.501518
C46	C	2.311127	-0.380431	1.001518
O47	O	1.876511	-0.904686	0.436343
O48	O	2.376511	-0.404686	0.936343
N49	N	1.734323	-0.903910	0.578207
N50	N	2.234323	-0.403910	1.078207
C51	C	1.657483	-0.880469	0.654896
C52	C	2.157483	-0.380469	1.154896
O53	O	1.592169	-0.904746	0.720135
O54	O	2.092169	-0.404746	1.220135
C55	C	1.657342	-0.692797	0.654855
C56	C	2.157342	-0.192797	1.154855
C57	C	1.734142	-0.669319	0.578152
C58	C	2.234142	-0.169319	1.078152
C59	C	1.887773	-0.669280	0.424775
C60	C	2.387773	-0.169280	0.924775
C61	C	1.887731	-0.622365	0.424760
C62	C	2.387731	-0.122365	0.924760
C63	C	1.810894	-0.598927	0.501440
C64	C	2.310894	-0.098927	1.001440
C65	C	1.734099	-0.622404	0.578136
C66	C	2.234099	-0.122404	1.078136
C67	C	1.580508	-0.669356	0.731549
C68	C	2.080508	-0.169356	1.231549
C69	C	1.580482	-0.622435	0.731534
C70	C	2.080482	-0.122435	1.231534
C71	C	1.657282	-0.598958	0.654831
C72	C	2.157282	-0.098958	1.154831
C73	C	1.657220	-0.552050	0.654801
C74	C	2.157220	-0.052050	1.154801
N75	N	1.734023	-0.528571	0.578112
N76	N	2.234023	-0.028571	1.078112
C77	C	1.810860	-0.552009	0.501431
C78	C	2.310860	-0.052009	1.001431
C79	C	1.657561	-0.978999	0.654911
C80	C	2.157561	-0.478999	1.154911
C81	C	1.657594	-1.025917	0.654920
C82	C	2.157594	-0.525917	1.154920
C83	C	1.811240	-1.025876	0.501543
C84	C	2.311240	-0.525876	1.001543
C85	C	1.811199	-0.978957	0.501528
C86	C	2.311199	-0.478957	1.001528
C87	C	1.734364	-0.955520	0.578221
C88	C	2.234364	-0.455520	1.078221
C89	C	1.810764	-0.453483	0.501404
C90	C	2.310764	0.046517	1.001404
C91	C	1.810712	-0.406563	0.501391
C92	C	2.310712	0.093437	1.001391
C93	C	1.657071	-0.406609	0.654773
C94	C	2.157071	0.093391	1.154773
C95	C	1.657119	-0.453525	0.654781
C96	C	2.157119	0.046475	1.154781
C97	C	1.733975	-0.476960	0.578092
C98	C	2.233975	0.023040	1.078092
O99	O	1.591879	-0.527766	0.719951
O100	O	2.091879	-0.027766	1.219951
O101	O	1.876183	-0.527724	0.436221
O102	O	2.376183	-0.027724	0.936221
C103	C	1.811021	-0.739673	0.501487
C104	C	2.311021	-0.239673	1.001487
C105	C	1.734226	-0.763150	0.578183
C106	C	2.234226	-0.263150	1.078183
C107	C	1.657389	-0.739712	0.654863
C108	C	2.157389	-0.239712	1.154863
C109	C	1.734260	-0.810068	0.578192
C110	C	2.234260	-0.310068	1.078192
C111	C	1.811097	-0.833506	0.501511
C112	C	2.311097	-0.333506	1.001511
C113	C	1.887900	-0.810027	0.424822
C114	C	2.387900	-0.310027	0.924822
C115	C	1.887858	-0.763111	0.424806
C116	C	2.387858	-0.263111	0.924806
C117	C	1.580586	-0.763192	0.731553
C118	C	2.080586	-0.263192	1.231553
C119	C	1.580634	-0.810107	0.731561
C120	C	2.080634	-0.310107	1.231561
C121	C	1.657471	-0.833545	0.654881
C122	C	2.157471	-0.333545	1.154881
C123	C	2.047117	-0.216475	0.578133
C124	C	2.547117	0.283525	1.078133
C125	C	2.180517	-0.216478	0.578140
C126	C	2.680517	0.283522	1.078140
C127	C	1.734063	-0.216469	0.891159
C128	C	2.234063	0.283531	1.391159
C129	C	1.734058	-0.216469	1.024559
C130	C	2.234058	0.283531	1.524559
C131	C	1.734325	-0.099290	0.578203
C132	C	2.234325	0.400710	1.078203
C133	C	1.734431	-0.049355	0.578239
C134	C	2.234431	0.450645	1.078239
C135	C	1.734072	-0.216476	1.266292
C136	C	2.234072	0.283524	1.766292
C137	C	1.734061	-0.216470	1.132892
C138	C	2.234061	0.283530	1.632892
H139	H	1.873251	-0.387450	0.438926
H140	H	2.373251	0.112550	0.938926
H141	H	1.517915	-0.603355	0.793991
H142	H	2.017915	-0.103355	1.293991
C143	C	1.573109	-1.051739	0.739283
C144	C	2.073109	-0.551739	1.239283
H145	H	1.584121	-1.083040	0.728309
H146	H	2.084121	-0.583040	1.228309
H147	H	1.590603	-1.044030	0.819933
H148	H	2.090603	-0.544030	1.319933
H149	H	1.492475	-1.044082	0.721641
H150	H	1.992475	-0.544082	1.221641
H151	H	1.873351	-0.472559	0.438959
H152	H	2.373351	0.027441	0.938959
H153	H	1.517964	-0.688463	0.794003
H154	H	2.017964	-0.188463	1.294003
C155	C	1.572563	-0.380821	0.739120
C156	C	2.072563	0.119179	1.239120
H157	H	1.583554	-0.349517	0.728129
H158	H	2.083554	0.150483	1.228129
H159	H	1.491939	-0.388540	0.721503
H160	H	1.991939	0.111460	1.221503
H161	H	1.590083	-0.388491	0.819780
H162	H	2.090083	0.111509	1.319780
H163	H	1.594989	-0.959920	0.717365
H164	H	2.094989	-0.459920	1.217365
H165	H	1.950349	-0.688359	0.362332
H166	H	2.450349	-0.188359	0.862332
H167	H	1.950460	-0.829118	0.362382
H168	H	2.450460	-0.329118	0.862382
H169	H	1.594586	-0.472641	0.717243
H170	H	2.094586	0.027359	1.217243
C171	C	1.972226	-0.596546	0.340400
C172	C	2.472226	-0.096546	0.840400
H173	H	2.017996	-0.617230	0.294750
H174	H	2.517996	-0.117230	0.794750
H175	H	1.926362	-0.578266	0.288054
H176	H	2.426362	-0.078266	0.788054
H177	H	2.024473	-0.578220	0.386363
H178	H	2.524473	-0.078220	0.886363
C179	C	1.895755	-1.051663	0.417193
C180	C	2.395755	-0.551663	0.917193
H181	H	1.884773	-1.082968	0.428194
H182	H	2.384773	-0.582968	0.928194
H183	H	1.878261	-1.043993	0.336534
H184	H	2.378261	-0.543993	0.836534
H185	H	1.976380	-1.043945	0.434835
H186	H	2.476380	-0.543945	0.934835
C187	C	1.972347	-0.737292	0.340441
C188	C	2.472347	-0.237292	0.840441
H189	H	2.018116	-0.757976	0.294789
H190	H	2.518116	-0.257976	0.794789
H191	H	1.926479	-0.719013	0.288096
H192	H	2.426479	-0.219013	0.788096
H193	H	2.024597	-0.718965	0.386398
H194	H	2.524597	-0.218965	0.886398
H195	H	1.873737	-0.959845	0.439071
H196	H	2.373737	-0.459845	0.939071
C197	C	1.496150	-0.835927	0.815943
C198	C	1.996150	-0.335927	1.315943
H199	H	1.450396	-0.815245	0.861613
H200	H	1.950396	-0.315245	1.361613
H201	H	1.443905	-0.854260	0.770010
H202	H	1.943905	-0.354260	1.270010
H203	H	1.542047	-0.854200	0.868288
H204	H	2.042047	-0.354200	1.368288
C205	C	1.496051	-0.737416	0.815896
C206	C	1.996051	-0.237416	1.315896
H207	H	1.450314	-0.758123	0.861558
H208	H	1.950314	-0.258123	1.361558
H209	H	1.541883	-0.719085	0.868232
H210	H	2.041883	-0.219085	1.368232
H211	H	1.443774	-0.719144	0.769922
H212	H	1.943774	-0.219144	1.269922
