data_functionalizedCrystal
_audit_creation_method	'MofGen! by Chris Wilmer'
_symmetry_space_group_name_H-M	'P1'
_symmetry_Int_Tables_number	1
_symmetry_cell_setting	triclinic
loop_
_symmetry_equiv_pos_as_xyz
  x,y,z
_cell_length_a	17.699077
_cell_length_b	14.519731
_cell_length_c	16.176319
_cell_angle_alpha	89.992219
_cell_angle_beta	89.993140
_cell_angle_gamma	83.484715
loop_
_atom_site_label
_atom_site_type_symbol
_atom_site_fract_x
_atom_site_fract_y
_atom_site_fract_z
O1	O	1.004423	0.116597	-0.068737
O2	O	0.784088	0.131776	-0.068742
O3	O	0.900089	-0.010076	-0.068732
O4	O	0.888422	0.258448	-0.068747
O5	O	0.900073	-0.010085	0.068761
O6	O	0.784072	0.131767	0.068751
O7	O	1.004407	0.116588	0.068756
Cu8	Cu	0.894238	0.124177	0.081308
Cu9	Cu	0.894257	0.124187	-0.081294
O10	O	0.888406	0.258439	0.068746
C11	C	0.755881	0.131228	0.000004
C12	C	0.671858	0.129599	0.000003
C13	C	0.632380	0.128827	0.074951
C14	C	0.553433	0.127282	0.074952
C15	C	0.513965	0.126516	0.000004
C16	C	0.553449	0.127285	-0.074950
C17	C	0.632395	0.128824	-0.074950
C18	C	0.235068	0.121079	-0.074951
C19	C	0.156116	0.119543	-0.074946
C20	C	0.156105	0.119537	0.074951
C21	C	0.235052	0.121076	0.074951
C22	C	0.274529	0.121840	-0.000002
C23	C	0.360133	0.123514	-0.000003
C24	C	0.428362	0.124849	0.000003
C25	C	0.899534	-0.044437	0.000015
C26	C	0.897896	-0.146811	0.000015
C27	C	0.896565	-0.229949	0.000013
C28	C	0.894902	-0.334251	0.000007
C29	C	0.893582	-0.417384	0.000002
C30	C	0.891919	-0.521692	-0.000003
C31	C	1.032613	0.117136	0.000008
C32	C	1.116636	0.118764	0.000004
C33	C	0.888961	0.292801	-0.000003
C34	C	0.890599	0.395174	-0.000008
N35	N	0.894230	0.124168	0.195673
N36	N	0.894271	0.124188	-0.195659
C37	C	0.945611	0.061382	0.238942
C38	C	0.945615	0.061381	0.325489
C39	C	0.894241	0.124172	0.368766
C40	C	0.842855	0.186961	0.325491
C41	C	0.842848	0.186957	0.238946
C42	C	0.842881	0.186978	0.674519
C43	C	0.842893	0.186979	0.761071
C44	C	0.945648	0.061403	0.761062
C45	C	0.945641	0.061399	0.674517
C46	C	0.894252	0.124184	0.631250
C47	C	0.894248	0.124183	0.537406
C48	C	0.894248	0.124178	0.462608
H49	H	0.267201	0.121699	-0.135983
H50	H	0.987489	0.010276	0.796300
H51	H	0.521295	0.126637	0.135983
H52	H	0.987476	0.010272	0.639283
N53	N	0.790418	0.251116	0.805292
N54	N	0.814511	0.308327	0.853570
H55	H	0.777454	0.353621	0.884803
H56	H	0.267182	0.121704	0.135982
H57	H	0.801040	0.238102	0.639298
N58	N	0.790376	0.251087	0.369707
N59	N	0.790389	0.251084	0.446979
H60	H	0.753325	0.296376	0.478207
H61	H	0.801008	0.238082	0.203717
N62	N	0.115767	0.118757	0.151510
N63	N	0.045279	0.117384	0.151506
H64	H	0.016790	0.116837	0.205573
H65	H	0.664508	0.129458	0.135983
H66	H	0.664538	0.129455	-0.135981
N67	N	0.115810	0.118763	-0.151515
N68	N	0.151066	0.119446	-0.218432
H69	H	0.122600	0.118896	-0.272507
H70	H	0.521309	0.126655	-0.135974
H71	H	0.987448	0.010255	0.203711
H72	H	0.987452	0.010256	0.360718
