data_functionalizedCrystal
_audit_creation_method	'MofGen! by Chris Wilmer'
_symmetry_space_group_name_H-M	'P1'
_symmetry_Int_Tables_number	1
_symmetry_cell_setting	triclinic
loop_
_symmetry_equiv_pos_as_xyz
  x,y,z
_cell_length_a	10.489741
_cell_length_b	19.188930
_cell_length_c	8.965430
_cell_angle_alpha	89.995304
_cell_angle_beta	89.998843
_cell_angle_gamma	83.841978
loop_
_atom_site_label
_atom_site_type_symbol
_atom_site_fract_x
_atom_site_fract_y
_atom_site_fract_z
O1	O	1.691851	0.098497	-0.123966
O2	O	1.320449	0.107743	-0.123991
O3	O	1.516868	0.001536	-0.123949
O4	O	1.495432	0.204704	-0.124008
O5	O	1.516851	0.001543	0.124130
O6	O	1.320432	0.107750	0.124088
O7	O	1.691834	0.098504	0.124113
Cu8	Cu	1.506132	0.103128	0.146752
Cu9	Cu	1.506151	0.103120	-0.146630
O10	O	1.495415	0.204711	0.124070
C11	C	1.272924	0.107048	0.000046
C12	C	1.131341	0.104959	0.000037
C13	C	1.064712	0.037383	0.000071
C14	C	0.971880	0.069302	-0.122251
C15	C	0.971897	0.069325	0.122336
C16	C	1.040374	0.136906	-0.122386
C17	C	1.040401	0.136919	0.122310
C18	C	0.947595	0.168887	-0.000041
C19	C	1.516165	-0.024476	0.000095
C20	C	1.514081	-0.101994	0.000108
C21	C	1.629334	-0.146146	0.000123
C22	C	1.627376	-0.218983	0.000099
C23	C	1.510159	-0.247665	0.000090
C24	C	1.394892	-0.203503	0.000066
C25	C	1.396853	-0.130668	0.000075
N26	N	1.420556	-0.356268	0.084510
N27	N	1.418701	-0.425459	0.084504
C28	C	1.504244	-0.467113	0.000059
N29	N	1.591732	-0.436964	-0.084362
N30	N	1.593591	-0.367767	-0.084350
C31	C	1.508020	-0.326642	0.000079
C32	C	1.617382	-0.590244	0.000046
C33	C	1.615419	-0.663081	0.000012
C34	C	1.382932	-0.647600	-0.000005
C35	C	1.384898	-0.574764	0.000013
C36	C	1.502126	-0.546090	0.000046
C37	C	1.739359	0.099199	0.000073
C38	C	1.880941	0.101288	0.000071
C39	C	1.496118	0.230723	0.000023
C40	C	1.498202	0.308242	0.000001
N41	N	1.506127	0.103133	0.353101
N42	N	1.506166	0.103109	-0.352979
C43	C	1.415262	0.152234	0.450387
C44	C	1.530443	0.166361	0.549804
C45	C	1.390995	0.089012	0.549812
C46	C	1.621366	0.117292	0.450329
C47	C	1.481842	0.039916	0.450328
C48	C	1.597106	0.054016	0.549700
H49	H	1.115644	-0.018169	-0.000065
H50	H	1.709275	-0.699030	0.000016
O51	O	1.274932	0.074683	0.602119
C52	C	1.158880	-0.003199	0.747599
C53	C	1.290407	0.012947	0.688496
H54	H	1.171343	-0.053121	0.817421
H55	H	1.115385	0.042286	0.819460
H56	H	1.092519	-0.010739	0.649565
H57	H	1.356865	0.020473	0.786438
H58	H	1.333797	-0.032546	0.616591
H59	H	0.941552	0.040722	0.225750
O60	O	0.935788	0.035257	-0.245763
C61	C	0.931295	0.031682	-0.514360
C62	C	0.972250	0.070302	-0.374614
H63	H	0.960733	0.060008	-0.618571
H64	H	0.979943	-0.024374	-0.514308
H65	H	0.822792	0.030846	-0.513647
H66	H	1.080737	0.071192	-0.375235
H67	H	0.923509	0.126338	-0.374720
O68	O	1.731363	-0.562500	-0.000016
C69	C	1.961747	-0.585540	0.000059
C70	C	1.832755	-0.617050	0.000101
H71	H	2.043756	-0.629629	0.000185
H72	H	1.968561	-0.551845	-0.103782
H73	H	1.968410	-0.551811	0.103860
H74	H	1.826005	-0.650811	-0.103630
H75	H	1.825996	-0.650705	0.104010
O76	O	1.269178	-0.675568	0.000045
C77	C	1.163120	-0.780914	-0.000090
C78	C	1.292039	-0.749330	-0.000100
H79	H	1.181559	-0.840554	-0.000239
H80	H	1.106153	-0.762836	0.103750
H81	H	1.106199	-0.762726	-0.103891
H82	H	1.349064	-0.767503	0.103631
H83	H	1.348910	-0.767404	-0.104009
H84	H	1.291047	-0.538814	0.000010
O85	O	1.743317	-0.118409	0.000078
C86	C	1.973701	-0.141454	0.000202
C87	C	1.844706	-0.172961	0.000218
H88	H	2.055708	-0.185544	0.000347
H89	H	1.980533	-0.107761	-0.103638
H90	H	1.980350	-0.107723	0.104003
H91	H	1.837970	-0.206723	-0.103512
H92	H	1.837929	-0.206613	0.104127
H93	H	1.718768	0.129289	0.406814
H94	H	1.299453	-0.226861	0.000056
O95	O	1.323812	0.201904	0.398418
C96	C	1.246118	0.324662	0.390219
C97	C	1.349775	0.268485	0.449148
H98	H	1.267058	0.378504	0.431236
H99	H	1.246344	0.323932	0.263069
H100	H	1.148150	0.313129	0.432812
H101	H	1.447794	0.279979	0.406666
H102	H	1.349437	0.269228	0.576296
H103	H	0.896927	0.224498	-0.000124
H104	H	1.461239	-0.013519	0.406599
H105	H	1.551010	0.219812	0.593498
H106	H	1.070570	0.165474	-0.225917
O107	O	1.688820	0.004379	0.601225
C108	C	1.767993	-0.118207	0.606953
C109	C	1.664061	-0.062068	0.548468
H110	H	1.747997	-0.171944	0.564348
H111	H	1.866073	-0.106107	0.565810
H112	H	1.766803	-0.118132	0.734102
H113	H	1.665133	-0.062111	0.421322
H114	H	1.566029	-0.074188	0.589724
H115	H	1.070801	0.165492	0.225715
H116	H	1.302998	-0.094719	0.000064
O117	O	1.739302	-0.261912	-0.000141
C118	C	1.871987	-0.353161	-0.128583
C119	C	1.745201	-0.304575	-0.128519
H120	H	1.876786	-0.387677	-0.232350
H121	H	1.956160	-0.320191	-0.128656
H122	H	1.876837	-0.387618	-0.024713
H123	H	1.740226	-0.270109	-0.232371
H124	H	1.661088	-0.337586	-0.128369
