data_functionalizedCrystal
_audit_creation_method	'MofGen! by Chris Wilmer'
_symmetry_space_group_name_H-M	'P1'
_symmetry_Int_Tables_number	1
_symmetry_cell_setting	triclinic
loop_
_symmetry_equiv_pos_as_xyz
  x,y,z
_cell_length_a	16.625539
_cell_length_b	16.625548
_cell_length_c	18.101165
_cell_angle_alpha	90.184977
_cell_angle_beta	89.799111
_cell_angle_gamma	90.020568
loop_
_atom_site_label
_atom_site_type_symbol
_atom_site_fract_x
_atom_site_fract_y
_atom_site_fract_z
Zn1	Zn	-0.454943	-1.233848	-0.294814
Zn2	Zn	-0.204943	-0.983848	-0.044814
Zn3	Zn	0.045057	-0.733848	0.205186
Zn4	Zn	0.295057	-0.483848	0.455186
Zn5	Zn	-0.319704	-1.234242	-0.418666
Zn6	Zn	-0.069704	-0.984242	-0.168666
Zn7	Zn	0.180296	-0.734242	0.081334
Zn8	Zn	0.430296	-0.484242	0.331334
Zn9	Zn	-0.320123	-1.099010	-0.294842
Zn10	Zn	-0.070123	-0.849010	-0.044842
Zn11	Zn	0.179877	-0.599010	0.205158
Zn12	Zn	0.429877	-0.349010	0.455158
Zn13	Zn	-0.454494	-1.099471	-0.418624
Zn14	Zn	-0.204494	-0.849471	-0.168624
Zn15	Zn	0.045506	-0.599471	0.081376
Zn16	Zn	0.295506	-0.349471	0.331376
O17	O	-0.387316	-1.166643	-0.356737
O18	O	-0.137316	-0.916643	-0.106737
O19	O	0.112684	-0.666643	0.143263
O20	O	0.362684	-0.416643	0.393263
O21	O	-0.437016	-1.346733	-0.311249
O22	O	-0.187016	-1.096733	-0.061249
O23	O	0.062984	-0.846733	0.188751
O24	O	0.312984	-0.596733	0.438751
O25	O	-0.206927	-1.216275	-0.402270
O26	O	0.043073	-0.966275	-0.152270
O27	O	0.293073	-0.716275	0.097730
O28	O	0.543073	-0.466275	0.347730
O29	O	-0.338371	-1.116539	-0.191203
O30	O	-0.088371	-0.866539	0.058797
O31	O	0.161629	-0.616539	0.308797
O32	O	0.411629	-0.366539	0.558797
O33	O	-0.337656	-1.347022	-0.402243
O34	O	-0.087656	-1.097022	-0.152243
O35	O	0.162344	-0.847022	0.097757
O36	O	0.412344	-0.597022	0.347757
O37	O	-0.437422	-1.215604	-0.191183
O38	O	-0.187422	-0.965604	0.058817
O39	O	0.062578	-0.715604	0.308817
O40	O	0.312578	-0.465604	0.558817
O41	O	-0.207235	-1.116921	-0.311297
O42	O	0.042765	-0.866921	-0.061297
O43	O	0.292765	-0.616921	0.188703
O44	O	0.542765	-0.366921	0.438703
O45	O	-0.337936	-0.986239	-0.311256
O46	O	-0.087936	-0.736239	-0.061256
O47	O	0.162064	-0.486239	0.188744
O48	O	0.412064	-0.236239	0.438744
O49	O	-0.567386	-1.117324	-0.402170
O50	O	-0.317386	-0.867324	-0.152170
O51	O	-0.067386	-0.617324	0.097830
O52	O	0.182614	-0.367324	0.347830
O53	O	-0.436657	-0.986577	-0.402198
O54	O	-0.186657	-0.736577	-0.152198
O55	O	0.063343	-0.486577	0.097802
O56	O	0.313343	-0.236577	0.347802
O57	O	-0.567716	-1.216051	-0.311208
O58	O	-0.317716	-0.966051	-0.061208
O59	O	-0.067716	-0.716051	0.188792
O60	O	0.182284	-0.466051	0.438792
O61	O	-0.337221	-1.216722	-0.522296
O62	O	-0.087221	-0.966722	-0.272296
O63	O	0.162779	-0.716722	-0.022296
O64	O	0.412779	-0.466722	0.227704
O65	O	-0.436251	-1.117706	-0.522265
O66	O	-0.186251	-0.867706	-0.272265
O67	O	0.063749	-0.617706	-0.022265
O68	O	0.313749	-0.367706	0.227735
C69	C	-0.387294	-0.957152	-0.356726
C70	C	-0.137294	-0.707152	-0.106726
C71	C	0.112706	-0.457152	0.143274
C72	C	0.362706	-0.207152	0.393274
C73	C	-0.387303	-0.867531	-0.356739
C74	C	-0.137303	-0.617531	-0.106739
C75	C	0.112697	-0.367531	0.143261
C76	C	0.362697	-0.117531	0.393261
C77	C	-0.386659	-1.167329	-0.549152
C78	C	-0.136659	-0.917329	-0.299152
C79	C	0.113341	-0.667329	-0.049152
C80	C	0.363341	-0.417329	0.200848
C81	C	-0.386405	-1.167696	-0.631468
C82	C	-0.136405	-0.917696	-0.381468
C83	C	0.113595	-0.667696	-0.131468
C84	C	0.363595	-0.417696	0.118532
C85	C	-0.597625	-1.166695	-0.356681
C86	C	-0.347625	-0.916695	-0.106681
C87	C	-0.097625	-0.666695	0.143319
C88	C	0.152375	-0.416695	0.393319
C89	C	-0.687247	-1.166717	-0.356658
C90	C	-0.437247	-0.916717	-0.106658
C91	C	-0.187247	-0.666717	0.143342
C92	C	0.062753	-0.416717	0.393342
C93	C	-1.015423	-1.166754	-0.356575
C94	C	-0.765423	-0.916754	-0.106575
C95	C	-0.515423	-0.666754	0.143425
C96	C	-0.265423	-0.416754	0.393425
C97	C	-0.924114	-1.166742	-0.356600
C98	C	-0.674114	-0.916742	-0.106600
C99	C	-0.424114	-0.666742	0.143400
C100	C	-0.174114	-0.416742	0.393400
C101	C	-0.851338	-1.166736	-0.356617
C102	C	-0.601338	-0.916736	-0.106617
C103	C	-0.351338	-0.666736	0.143383
C104	C	-0.101338	-0.416736	0.393383
C105	C	-0.760023	-1.166723	-0.356641
C106	C	-0.510023	-0.916723	-0.106641
C107	C	-0.260023	-0.666723	0.143359
C108	C	-0.010023	-0.416723	0.393359
C109	C	-0.177825	-1.166637	-0.356738
C110	C	0.072175	-0.916637	-0.106738
C111	C	0.322175	-0.666637	0.143262
C112	C	0.572175	-0.416637	0.393262
C113	C	-0.088205	-1.166770	-0.356553
C114	C	0.161795	-0.916770	-0.106553
C115	C	0.411795	-0.666770	0.143447
C116	C	0.661795	-0.416770	0.393447
C117	C	-0.387339	-1.376952	-0.356748
C118	C	-0.137339	-1.126952	-0.106748
C119	C	0.112661	-0.876952	0.143252
C120	C	0.362661	-0.626952	0.393252
C121	C	-0.387349	-1.466573	-0.356753
C122	C	-0.137349	-1.216573	-0.106753
C123	C	0.112651	-0.966573	0.143247
C124	C	0.362651	-0.716573	0.393247
C125	C	-0.387338	-0.539355	-0.356744
C126	C	-0.137338	-0.289355	-0.106744
C127	C	0.112662	-0.039355	0.143256
C128	C	0.362662	0.210645	0.393256
C129	C	-0.387325	-0.630664	-0.356741
C130	C	-0.137325	-0.380664	-0.106741
C131	C	0.112675	-0.130664	0.143259
C132	C	0.362675	0.119336	0.393259
C133	C	-0.387320	-0.703440	-0.356742
C134	C	-0.137320	-0.453440	-0.106742
C135	C	0.112680	-0.203440	0.143258
C136	C	0.362680	0.046560	0.393258
C137	C	-0.387309	-0.794754	-0.356738
C138	C	-0.137309	-0.544754	-0.106738
C139	C	0.112691	-0.294754	0.143262
C140	C	0.362691	-0.044754	0.393262
C141	C	-0.387993	-1.165976	-0.163570
C142	C	-0.137993	-0.915976	0.086430
C143	C	0.112007	-0.665976	0.336430
C144	C	0.362007	-0.415976	0.586430
C145	C	-0.388282	-1.165692	-0.081254
C146	C	-0.138282	-0.915692	0.168746
C147	C	0.111718	-0.665692	0.418746
C148	C	0.361718	-0.415692	0.668746
C149	C	-0.387653	-1.166364	0.069450
C150	C	-0.137653	-0.916364	0.319450
C151	C	0.112347	-0.666364	0.569450
C152	C	0.362347	-0.416364	0.819450
C153	C	-0.325206	-1.104174	0.100790
C154	C	-0.075206	-0.854174	0.350790
C155	C	0.174794	-0.604174	0.600790
C156	C	0.424794	-0.354174	0.850790
C157	C	-0.324604	-1.104739	0.186403
C158	C	-0.074604	-0.854739	0.436403
C159	C	0.175396	-0.604739	0.686403
C160	C	0.425396	-0.354739	0.936403
C161	C	-0.387034	-1.167024	0.217828
C162	C	-0.137034	-0.917024	0.467828
C163	C	0.112966	-0.667024	0.717828
C164	C	0.362966	-0.417024	0.967828
C165	C	-0.364386	-1.251918	0.186023
C166	C	-0.114386	-1.001918	0.436023
C167	C	0.135614	-0.751918	0.686023
C168	C	0.385614	-0.501918	0.936023
C169	C	-0.364291	-1.251176	0.100380
C170	C	-0.114291	-1.001176	0.350380
C171	C	0.135709	-0.751176	0.600380
C172	C	0.385709	-0.501176	0.850380
C173	C	-0.472773	-1.144545	0.101730
C174	C	-0.222773	-0.894545	0.351730
C175	C	0.027227	-0.644545	0.601730
C176	C	0.277227	-0.394545	0.851730
C177	C	-0.471959	-1.143051	0.187388
C178	C	-0.221959	-0.893051	0.437388
C179	C	0.028041	-0.643051	0.687388
C180	C	0.278041	-0.393051	0.937388
C181	C	-0.386685	-1.167402	0.301685
C182	C	-0.136685	-0.917402	0.551685
C183	C	0.113315	-0.667402	0.801685
C184	C	0.363315	-0.417402	1.051685
C185	C	-0.388000	-1.165991	-0.014407
C186	C	-0.138000	-0.915991	0.235593
C187	C	0.112000	-0.665991	0.485593
C188	C	0.362000	-0.415991	0.735593
H189	H	-0.338740	-1.041788	0.207936
H190	H	-0.088740	-0.791788	0.457936
H191	H	0.161260	-0.541788	0.707936
H192	H	0.411260	-0.291788	0.957936
C193	C	-0.344328	-1.018605	0.073693
C194	C	-0.094328	-0.768605	0.323693
C195	C	0.155672	-0.518605	0.573693
C196	C	0.405672	-0.268605	0.823693
N197	N	-0.358740	-0.954151	0.053288
N198	N	-0.108740	-0.704151	0.303288
N199	N	0.141260	-0.454151	0.553288
N200	N	0.391260	-0.204151	0.803288
C201	C	-0.535609	-1.205744	0.074353
C202	C	-0.285609	-0.955744	0.324353
C203	C	-0.035609	-0.705744	0.574353
C204	C	0.214391	-0.455744	0.824353
N205	N	-0.582932	-1.251841	0.053727
N206	N	-0.332932	-1.001841	0.303727
N207	N	-0.082932	-0.751841	0.553727
N208	N	0.167068	-0.501841	0.803727
C209	C	-0.239145	-1.124510	0.213385
C210	C	0.010855	-0.874510	0.463385
C211	C	0.260855	-0.624510	0.713385
C212	C	0.510855	-0.374510	0.963385
N213	N	-0.174773	-1.139398	0.233707
N214	N	0.075227	-0.889398	0.483707
N215	N	0.325227	-0.639398	0.733707
N216	N	0.575227	-0.389398	0.983707
C217	C	-0.423702	-1.316496	0.213492
C218	C	-0.173702	-1.066496	0.463492
C219	C	0.076298	-0.816496	0.713492
C220	C	0.326298	-0.566496	0.963492
N221	N	-0.468378	-1.365135	0.234184
N222	N	-0.218378	-1.115135	0.484184
N223	N	0.031622	-0.865135	0.734184
N224	N	0.281622	-0.615135	0.984184
H225	H	-0.262484	-1.118460	0.078758
H226	H	-0.012484	-0.868460	0.328758
H227	H	0.237516	-0.618460	0.578758
H228	H	0.487516	-0.368460	0.828758
H229	H	-0.302065	-1.269668	0.079865
H230	H	-0.052065	-1.019668	0.329865
H231	H	0.197935	-0.769668	0.579865
H232	H	0.447935	-0.519668	0.829865
H233	H	-0.302672	-1.270915	0.206936
H234	H	-0.052672	-1.020915	0.456936
H235	H	0.197328	-0.770915	0.706936
H236	H	0.447328	-0.520915	0.956936
C237	C	-0.495062	-1.058637	0.215562
C238	C	-0.245062	-0.808637	0.465562
C239	C	0.004938	-0.558637	0.715562
C240	C	0.254938	-0.308637	0.965562
N241	N	-0.512463	-0.995057	0.236790
N242	N	-0.262463	-0.745057	0.486790
N243	N	-0.012463	-0.495057	0.736790
N244	N	0.237537	-0.245057	0.986790
H245	H	-0.407823	-1.299106	0.079617
H246	H	-0.157823	-1.049106	0.329617
H247	H	0.092177	-0.799106	0.579617
H248	H	0.342177	-0.549106	0.829617
C249	C	-0.537895	-1.200012	0.216338
C250	C	-0.287895	-0.950012	0.466338
C251	C	-0.037895	-0.700012	0.716338
C252	C	0.212105	-0.450012	0.966338
N253	N	-0.587557	-1.242922	0.238140
N254	N	-0.337557	-0.992922	0.488140
N255	N	-0.087557	-0.742922	0.738140
N256	N	0.162443	-0.492922	0.988140
H257	H	-0.493649	-1.083496	0.080677
H258	H	-0.243649	-0.833496	0.330677
H259	H	0.006351	-0.583496	0.580677
H260	H	0.256351	-0.333496	0.830677
