data_functionalizedCrystal
_audit_creation_method	'MofGen! by Chris Wilmer'
_symmetry_space_group_name_H-M	'P1'
_symmetry_Int_Tables_number	1
_symmetry_cell_setting	triclinic
loop_
_symmetry_equiv_pos_as_xyz
  x,y,z
_cell_length_a	22.863218
_cell_length_b	22.862586
_cell_length_c	22.858745
_cell_angle_alpha	60.006856
_cell_angle_beta	60.013818
_cell_angle_gamma	59.991795
loop_
_atom_site_label
_atom_site_type_symbol
_atom_site_fract_x
_atom_site_fract_y
_atom_site_fract_z
O1	O	0.081006	-0.854581	0.714630
O2	O	0.581006	-0.354581	1.214630
O3	O	0.030492	-0.665350	0.575795
O4	O	0.530492	-0.165350	1.075795
O5	O	0.150314	-0.785089	0.575706
O6	O	0.650314	-0.285089	1.075706
O7	O	-0.038816	-0.734841	0.714718
O8	O	0.461184	-0.234841	1.214718
O9	O	0.190066	-0.745348	0.615369
O10	O	0.690066	-0.245348	1.115369
O11	O	0.070244	-0.625609	0.615458
O12	O	0.570244	-0.125609	1.115458
O13	O	0.120758	-0.814840	0.754293
O14	O	0.620758	-0.314840	1.254293
Zn15	Zn	0.101812	-0.713914	0.691173
Zn16	Zn	0.601812	-0.213914	1.191173
Zn17	Zn	0.049438	-0.766275	0.638915
Zn18	Zn	0.549438	-0.266275	1.138915
O19	O	0.000936	-0.695100	0.754381
O20	O	0.500936	-0.195100	1.254381
N21	N	0.137558	-0.678184	0.726840
N22	N	0.637558	-0.178184	1.226840
N23	N	0.013698	-0.802011	0.603247
N24	N	0.513698	-0.302011	1.103247
C25	C	0.187224	-0.518558	0.776483
C26	C	0.687224	-0.018558	1.276483
C27	C	0.187235	-0.628552	0.776467
C28	C	0.687235	-0.128552	1.276467
C29	C	0.214753	-0.601061	0.803961
C30	C	0.714753	-0.101061	1.303961
C31	C	0.334724	-0.580392	0.740801
C32	C	0.834724	-0.080392	1.240801
C33	C	0.409718	-0.605392	0.715784
C34	C	0.909718	-0.105392	1.215784
C35	C	0.409746	-0.726732	0.762051
C36	C	0.909746	-0.226732	1.262051
C37	C	0.334754	-0.701730	0.787070
C38	C	0.834754	-0.201730	1.287070
C39	C	0.205297	-0.481049	0.702756
C40	C	0.705297	0.018951	1.202756
C41	C	0.180267	-0.406048	0.677779
C42	C	0.680267	0.093952	1.177779
C43	C	0.119099	-0.406071	0.800259
C44	C	0.619099	0.093929	1.300259
C45	C	0.144128	-0.481071	0.825236
C46	C	0.644128	0.018929	1.325236
C47	C	0.113501	-0.610437	0.794610
C48	C	0.613501	-0.110437	1.294610
C49	C	0.088492	-0.635428	0.769607
C50	C	0.588492	-0.135428	1.269607
C51	C	0.210943	-0.696652	0.708337
C52	C	0.710943	-0.196652	1.208337
C53	C	0.235956	-0.671660	0.733331
C54	C	0.735956	-0.171660	1.233331
C55	C	0.113585	-0.610461	0.923980
C56	C	0.613585	-0.110461	1.423980
C57	C	0.088635	-0.635476	0.998978
C58	C	0.588635	-0.135476	1.498978
C59	C	0.211128	-0.696714	0.998930
C60	C	0.711128	-0.196714	1.498930
C61	C	0.236077	-0.671700	0.923930
C62	C	0.736077	-0.171700	1.423930
C63	C	0.187303	-0.628571	0.886457
C64	C	0.687303	-0.128571	1.386457
C65	C	0.297246	-0.628559	0.776441
C66	C	0.797246	-0.128559	1.276441
C67	C	-0.117796	-0.823430	0.581283
C68	C	0.382204	-0.323430	1.081283
C69	C	-0.007671	-0.823587	0.471446
C70	C	0.492329	-0.323587	0.971446
C71	C	-0.007879	-0.933535	0.581483
C72	C	0.492121	-0.433535	1.081483
C73	C	-0.007861	-0.823583	0.581554
C74	C	0.492139	-0.323583	1.081554
C75	C	-0.035301	-0.851035	0.553942
C76	C	0.464699	-0.351035	1.053942
N77	N	0.446162	-0.678198	0.726752
N78	N	0.946162	-0.178198	1.226752
O79	O	0.691234	-0.690164	0.550341
O80	O	1.191234	-0.190164	1.050341
O81	O	0.691462	-0.829422	0.739388
O82	O	1.191462	-0.329422	1.239388
O83	O	0.691373	-0.829102	0.619485
O84	O	1.191373	-0.329102	1.119485
O85	O	0.691323	-0.690484	0.670244
O86	O	1.191323	-0.190484	1.170244
O87	O	0.572233	-0.789455	0.659278
O88	O	1.072233	-0.289455	1.159278
O89	O	0.572322	-0.789775	0.779181
O90	O	1.072322	-0.289775	1.279181
O91	O	0.572094	-0.650517	0.590134
O92	O	1.072094	-0.150517	1.090134
Zn93	Zn	0.553292	-0.713851	0.690976
Zn94	Zn	1.053292	-0.213851	1.190976
Zn95	Zn	0.710264	-0.766088	0.638547
Zn96	Zn	1.210264	-0.266088	1.138547
O97	O	0.572183	-0.650837	0.710037
O98	O	1.072183	-0.150837	1.210037
N99	N	0.817394	-0.801741	0.602763
N100	N	1.317394	-0.301741	1.102763
N101	N	0.137538	-0.369628	0.726874
N102	N	0.637538	0.130372	1.226874
O103	O	-0.038795	-0.124419	0.714761
O104	O	0.461205	0.375581	1.214761
O105	O	0.150256	-0.124417	0.575522
O106	O	0.650256	0.375583	1.075522
O107	O	0.030331	-0.124432	0.575860
O108	O	0.530331	0.375568	1.075860
O109	O	0.081131	-0.124404	0.714423
O110	O	0.581131	0.375596	1.214423
O111	O	0.070086	-0.243584	0.615573
O112	O	0.570086	0.256416	1.115573
O113	O	0.190011	-0.243569	0.615236
O114	O	0.690011	0.256431	1.115236
O115	O	0.000960	-0.243571	0.754474
O116	O	0.500960	0.256429	1.254474
Zn117	Zn	0.101797	-0.262488	0.691160
Zn118	Zn	0.601797	0.237512	1.191160
Zn119	Zn	0.049419	-0.105500	0.638836
Zn120	Zn	0.549419	0.394500	1.138836
O121	O	0.120885	-0.243556	0.754137
O122	O	0.620885	0.256444	1.254137
N123	N	0.013669	0.001640	0.603123
N124	N	0.513669	0.501640	1.103123
N125	N	0.137749	-0.678230	1.035381
N126	N	0.637749	-0.178230	1.535381
O127	O	0.125655	-0.854547	1.280566
O128	O	0.625655	-0.354547	1.780566
O129	O	-0.013567	-0.665426	1.280590
O130	O	0.486433	-0.165426	1.780590
O131	O	-0.013245	-0.785328	1.280537
O132	O	0.486755	-0.285328	1.780537
O133	O	0.125333	-0.734644	1.280618
O134	O	0.625333	-0.234644	1.780618
O135	O	0.026456	-0.745599	1.161392
O136	O	0.526456	-0.245599	1.661392
O137	O	0.026134	-0.625697	1.161444
O138	O	0.526134	-0.125697	1.661444
O139	O	0.165355	-0.814817	1.161420
O140	O	0.665355	-0.314817	1.661420
Zn141	Zn	0.102048	-0.713949	1.142516
Zn142	Zn	0.602048	-0.213949	1.642516
Zn143	Zn	0.049740	-0.766294	1.299495
Zn144	Zn	0.549740	-0.266294	1.799495
O145	O	0.165033	-0.694915	1.161473
O146	O	0.665033	-0.194915	1.661473
N147	N	0.014038	-0.802020	1.406629
N148	N	0.514038	-0.302020	1.906629
C149	C	0.045634	-0.621635	0.576499
C150	C	0.545634	-0.121635	1.076499
C151	C	0.194019	-0.769918	0.576389
C152	C	0.694019	-0.269918	1.076389
C153	C	0.105616	-0.858555	0.753588
C154	C	0.605616	-0.358555	1.253588
C155	C	-0.042769	-0.710272	0.753698
C156	C	0.457231	-0.210272	1.253698
C157	C	0.631920	-0.828776	0.783102
C158	C	1.131920	-0.328776	1.283102
C159	C	0.631811	-0.828380	0.634616
C160	C	1.131811	-0.328380	1.134616
C161	C	0.631633	-0.651162	0.546422
C162	C	1.131633	-0.151162	1.046422
C163	C	0.631745	-0.651559	0.694907
C164	C	1.131745	-0.151559	1.194907
C165	C	0.193900	-0.183846	0.576155
C166	C	0.693900	0.316154	1.076155
C167	C	0.045437	-0.184012	0.576622
C168	C	0.545437	0.315988	1.076622
C169	C	-0.042734	-0.183994	0.753792
C170	C	0.457266	0.316006	1.253792
C171	C	0.105780	-0.183977	0.753375
C172	C	0.605780	0.316023	1.253375
C173	C	-0.012889	-0.621735	1.221020
C174	C	0.487111	-0.121735	1.721020
C175	C	-0.012483	-0.770211	1.220931
C176	C	0.487517	-0.270211	1.720931
C177	C	0.164678	-0.858508	1.220991
C178	C	0.664678	-0.358508	1.720991
C179	C	0.164280	-0.710023	1.221052
C180	C	0.664280	-0.210023	1.721052
H181	H	0.028603	-0.620718	1.029520
H182	H	0.528603	-0.120718	1.529520
H183	H	0.208389	-0.912821	1.220975
H184	H	0.708389	-0.412821	1.720975
C185	C	0.038591	-0.122780	0.457806
C186	C	0.538591	0.377220	0.957806
C187	C	0.030751	-0.184027	0.517863
C188	C	0.530751	0.315973	1.017863
H189	H	0.029518	-0.122791	0.421536
H190	H	0.529518	0.377209	0.921536
H191	H	0.086020	-0.122782	0.440293
H192	H	0.586020	0.377218	0.940293
H193	H	0.005544	-0.081230	0.470859
H194	H	0.505544	0.418770	0.970859
H195	H	0.063803	-0.225577	0.504811
H196	H	0.563803	0.274423	1.004811
H197	H	-0.016684	-0.184031	0.535378
H198	H	0.483316	0.315969	1.035378
C199	C	0.283097	-0.703280	1.159826
C200	C	0.783097	-0.203280	1.659826
C201	C	0.223058	-0.695393	1.221072
C202	C	0.723058	-0.195393	1.721072
H203	H	0.319385	-0.694252	1.159842
H204	H	0.819385	-0.194252	1.659842
H205	H	0.270040	-0.670225	1.118285
H206	H	0.770040	-0.170225	1.618285
H207	H	0.300592	-0.750718	1.159822
H208	H	0.800592	-0.250718	1.659822
H209	H	0.205561	-0.647953	1.221074
H210	H	0.705561	-0.147953	1.721074
H211	H	0.236117	-0.728449	1.262624
H212	H	0.736117	-0.228449	1.762624
C213	C	-0.131900	-0.557663	1.282259
C214	C	0.368100	-0.057663	1.782259
C215	C	-0.071900	-0.548413	1.221025
C216	C	0.428100	-0.048413	1.721025
H217	H	-0.168331	-0.512397	1.282258
H218	H	0.331669	-0.012397	1.782258
H219	H	-0.118880	-0.579097	1.323808
H220	H	0.381120	-0.079097	1.823808
H221	H	-0.149185	-0.587762	1.282233
H222	H	0.350815	-0.087762	1.782233
H223	H	-0.054611	-0.518318	1.221054
H224	H	0.445389	-0.018318	1.721054
H225	H	-0.084921	-0.526968	1.179465
H226	H	0.415079	-0.026968	1.679465
H227	H	0.034845	-0.567275	0.532897
H228	H	0.534845	-0.067275	1.032897
C229	C	-0.147742	-0.744619	0.831854
C230	C	0.352258	-0.244619	1.331854
C231	C	-0.116102	-0.695817	0.812630
C232	C	0.383898	-0.195817	1.312630
H233	H	-0.193016	-0.735689	0.868232
H234	H	0.306984	-0.235689	1.368232
H235	H	-0.117688	-0.792028	0.849229
H236	H	0.382312	-0.292028	1.349229
H237	H	-0.153991	-0.739226	0.791138
H238	H	0.346009	-0.239226	1.291138
H239	H	-0.109848	-0.701213	0.853344
H240	H	0.390152	-0.201213	1.353344
H241	H	-0.146163	-0.648396	0.795257
H242	H	0.353837	-0.148396	1.295257
H243	H	0.248082	-0.183515	0.532333
H244	H	0.748082	0.316485	1.032333
H245	H	0.073862	-0.575336	0.893474
H246	H	0.573862	-0.075336	1.393474
C247	C	-0.131305	-0.776936	1.282056
C248	C	0.368695	-0.276936	1.782056
C249	C	-0.071233	-0.784818	1.220832
C250	C	0.428767	-0.284818	1.720832
H251	H	-0.167572	-0.785959	1.281996
H252	H	0.332428	-0.285959	1.781996
H253	H	-0.148809	-0.729509	1.282076
H254	H	0.351191	-0.229509	1.782076
H255	H	-0.118276	-0.810006	1.323616
H256	H	0.381724	-0.310006	1.823616
H257	H	-0.084261	-0.751745	1.179271
H258	H	0.415739	-0.251745	1.679271
H259	H	-0.053727	-0.832252	1.220805
H260	H	0.446273	-0.332252	1.720805
H261	H	-0.097027	-0.183996	0.797505
H262	H	0.402973	0.316004	1.297505
H263	H	0.296108	-0.686456	0.893383
H264	H	0.796108	-0.186456	1.393383
C265	C	0.334716	-0.754717	0.991336
C266	C	0.834716	-0.254717	1.491336
C267	C	0.264743	-0.744109	1.040114
C268	C	0.764743	-0.244109	1.540114
H269	H	0.367816	-0.783980	1.016764
H270	H	0.867816	-0.283980	1.516764
H271	H	0.341890	-0.709763	0.962092
H272	H	0.841890	-0.209763	1.462092
H273	H	0.341900	-0.777612	0.962081
H274	H	0.841900	-0.277612	1.462081
H275	H	0.257557	-0.721208	1.069366
H276	H	0.757557	-0.221208	1.569366
H277	H	0.257566	-0.789070	1.069370
H278	H	0.757566	-0.289070	1.569370
H279	H	0.631558	-0.607440	0.492131
H280	H	1.131558	-0.107440	0.992131
C281	C	-0.030043	-0.572422	0.832702
C282	C	0.469957	-0.072422	1.332702
C283	C	0.007442	-0.615528	0.789554
C284	C	0.507442	-0.115528	1.289554
H285	H	-0.080079	-0.560143	0.845021
H286	H	0.419921	-0.060143	1.345021
H287	H	-0.017776	-0.530013	0.807264
H288	H	0.482224	-0.030013	1.307264
H289	H	-0.017704	-0.597882	0.875092
H290	H	0.482296	-0.097882	1.375092
H291	H	-0.004893	-0.590066	0.747162
H292	H	0.495107	-0.090066	1.247162
H293	H	-0.004831	-0.657944	0.814992
H294	H	0.495169	-0.157944	1.314992
C295	C	0.693285	-0.947782	0.847092
C296	C	1.193285	-0.447782	1.347092
C297	C	0.632007	-0.887800	0.856395
C298	C	1.132007	-0.387800	1.356395
H299	H	0.693336	-0.984222	0.892340
H300	H	1.193336	-0.484222	1.392340
H301	H	0.734801	-0.934735	0.825648
H302	H	1.234801	-0.434735	1.325648
H303	H	0.693267	-0.965076	0.816986
H304	H	1.193267	-0.465076	1.316986
H305	H	0.632028	-0.870502	0.886497
H306	H	1.132028	-0.370502	1.386497
H307	H	0.590480	-0.900848	0.877849
H308	H	1.090480	-0.400848	1.377849
H309	H	0.116656	-0.183968	0.796904
H310	H	0.616656	0.316032	1.296904
C311	C	0.280175	-0.841943	0.500945
C312	C	0.780175	-0.341943	1.000945
C313	C	0.267349	-0.784374	0.517455
C314	C	0.767349	-0.284374	1.017455
H315	H	0.325448	-0.850869	0.464564
H316	H	0.825448	-0.350869	0.964564
H317	H	0.243740	-0.830600	0.484493
H318	H	0.743740	-0.330600	0.984493
H319	H	0.280047	-0.883406	0.542580
H320	H	0.780047	-0.383406	1.042580
H321	H	0.267472	-0.742909	0.475821
H322	H	0.767472	-0.242909	0.975821
H323	H	0.303794	-0.795713	0.533904
H324	H	0.803794	-0.295713	1.033904
C325	C	0.334499	-0.754657	0.650289
C326	C	0.834499	-0.254657	1.150289
C327	C	0.264502	-0.744037	0.660926
C328	C	0.764502	-0.244037	1.160926
H329	H	0.367564	-0.783907	0.621014
H330	H	0.867564	-0.283907	1.121014
H331	H	0.341729	-0.777564	0.695229
H332	H	0.841729	-0.277564	1.195229
H333	H	0.341679	-0.709700	0.627398
H334	H	0.841679	-0.209700	1.127398
H335	H	0.257320	-0.788995	0.683822
H336	H	0.757320	-0.288995	1.183822
H337	H	0.257269	-0.721131	0.615977
H338	H	0.757269	-0.221131	1.115977
C339	C	0.631762	-0.861351	0.550049
C340	C	1.131762	-0.361351	1.050049
C341	C	0.631833	-0.887169	0.619958
C342	C	1.131833	-0.387169	1.119958
H343	H	0.631770	-0.897644	0.541003
H344	H	1.131770	-0.397644	1.041003
H345	H	0.673277	-0.848284	0.516992
H346	H	1.173277	-0.348284	1.016992
H347	H	0.590183	-0.820622	0.544746
H348	H	1.090183	-0.320622	1.044746
H349	H	0.673415	-0.927895	0.625259
H350	H	1.173415	-0.427895	1.125259
H351	H	0.590314	-0.900246	0.653024
H352	H	1.090314	-0.400246	1.153024
H353	H	0.116407	-0.912913	0.797192
H354	H	0.616407	-0.412913	1.297192
H355	H	0.073825	-0.575337	0.829731
H356	H	0.573825	-0.075337	1.329731
C357	C	0.693000	-0.617155	0.726290
C358	C	1.193000	-0.117155	1.226290
C359	C	0.631724	-0.592773	0.709568
C360	C	1.131724	-0.092773	1.209568
H361	H	0.692983	-0.580864	0.735345
H362	H	1.192983	-0.080864	1.235345
H363	H	0.734517	-0.628271	0.687191
H364	H	1.234517	-0.128271	1.187191
H365	H	0.693049	-0.658861	0.767681
H366	H	1.193049	-0.158861	1.267681
H367	H	0.631677	-0.551070	0.668173
H368	H	1.131677	-0.051070	1.168173
H369	H	0.590196	-0.581647	0.748670
H370	H	1.090196	-0.081647	1.248670
C371	C	0.342318	-0.824182	0.830278
C372	C	0.842318	-0.324182	1.330278
C373	C	0.293555	-0.754680	0.826242
C374	C	0.793555	-0.254680	1.326242
H375	H	0.316882	-0.856869	0.854459
H376	H	0.816882	-0.356869	1.354459
H377	H	0.371587	-0.836731	0.855823
H378	H	0.871587	-0.336731	1.355823
H379	H	0.371546	-0.826083	0.783287
H380	H	0.871546	-0.326083	1.283287
H381	H	0.264329	-0.752777	0.873234
H382	H	0.764329	-0.252777	1.373234
H383	H	0.264273	-0.742127	0.800699
H384	H	0.764273	-0.242127	1.300699
C385	C	0.494136	-0.833087	0.814213
C386	C	0.994136	-0.333087	1.314213
C387	C	0.450981	-0.807164	0.773727
C388	C	0.950981	-0.307164	1.273727
H389	H	0.519594	-0.882740	0.821418
H390	H	1.019594	-0.382740	1.321418
H391	H	0.464901	-0.826133	0.859271
H392	H	0.964901	-0.326133	1.359271
H393	H	0.527188	-0.807973	0.789399
H394	H	1.027188	-0.307973	1.289399
H395	H	0.417925	-0.832275	0.798543
H396	H	0.917925	-0.332275	1.298543
H397	H	0.480219	-0.814124	0.728661
H398	H	0.980219	-0.314124	1.228661
C399	C	0.402158	-0.482940	0.672554
C400	C	0.902158	0.017060	1.172554
C401	C	0.450918	-0.552445	0.676603
C402	C	0.950918	-0.052445	1.176603
H403	H	0.427595	-0.450253	0.648360
H404	H	0.927595	0.049747	1.148360
H405	H	0.372931	-0.481027	0.719535
H406	H	0.872931	0.018973	1.219535
H407	H	0.372885	-0.470398	0.647008
H408	H	0.872885	0.029602	1.147008
H409	H	0.480186	-0.564989	0.702153
H410	H	0.980186	-0.064989	1.202153
H411	H	0.480156	-0.554360	0.629613
H412	H	0.980156	-0.054360	1.129613
C413	C	0.250406	-0.489719	0.795549
C414	C	0.750406	0.010281	1.295549
C415	C	0.293496	-0.499961	0.729119
C416	C	0.793496	0.000039	1.229119
H417	H	0.224950	-0.440064	0.788335
H418	H	0.724950	0.059936	1.288335
H419	H	0.279685	-0.507310	0.823009
H420	H	0.779685	-0.007310	1.323009
H421	H	0.217352	-0.514829	0.820351
H422	H	0.717352	-0.014829	1.320351
H423	H	0.326554	-0.474856	0.704320
H424	H	0.826554	0.025144	1.204320
H425	H	0.264215	-0.482362	0.701649
H426	H	0.764215	0.017638	1.201649
C427	C	0.263226	-0.473491	0.579180
C428	C	0.763226	0.026509	1.079180
C429	C	0.252660	-0.522256	0.649169
C430	C	0.752660	-0.022256	1.149169
H431	H	0.292462	-0.498932	0.546097
H432	H	0.792462	0.001068	1.046097
H433	H	0.286124	-0.444241	0.571970
H434	H	0.786124	0.055759	1.071970
H435	H	0.218256	-0.444236	0.572005
H436	H	0.718256	0.055764	1.072005
H437	H	0.297630	-0.551507	0.656346
H438	H	0.797630	-0.051507	1.156346
H439	H	0.229764	-0.551518	0.656382
H440	H	0.729764	-0.051518	1.156382
C441	C	0.335071	-0.629030	0.675907
C442	C	0.835071	-0.129030	1.175907
C443	C	0.317003	-0.691558	0.713398
C444	C	0.817003	-0.191558	1.213398
H445	H	0.385106	-0.641314	0.663601
H446	H	0.885106	-0.141314	1.163601
H447	H	0.309625	-0.599789	0.705178
H448	H	0.809625	-0.099789	1.205178
H449	H	0.322747	-0.603588	0.633510
H450	H	0.822747	-0.103588	1.133510
H451	H	0.329323	-0.716998	0.755798
H452	H	0.829323	-0.216998	1.255798
H453	H	0.342458	-0.720811	0.684126
H454	H	0.842458	-0.220811	1.184126
H455	H	0.194981	-0.375507	0.617742
H456	H	0.694981	0.124493	1.117742
H457	H	0.084019	-0.375548	0.839959
H458	H	0.584019	0.124452	1.339959
H459	H	0.129402	-0.511613	0.885274
H460	H	0.629402	-0.011613	1.385274
