data_functionalizedCrystal
_audit_creation_method	'MofGen! by Chris Wilmer'
_symmetry_space_group_name_H-M	'P1'
_symmetry_Int_Tables_number	1
_symmetry_cell_setting	triclinic
loop_
_symmetry_equiv_pos_as_xyz
  x,y,z
_cell_length_a	12.837943
_cell_length_b	11.804783
_cell_length_c	12.837942
_cell_angle_alpha	77.962331
_cell_angle_beta	94.828940
_cell_angle_gamma	77.974465
loop_
_atom_site_label
_atom_site_type_symbol
_atom_site_fract_x
_atom_site_fract_y
_atom_site_fract_z
O1	O	1.381619	0.098998	0.251405
O2	O	1.078484	0.099005	0.237961
O3	O	1.223332	0.098994	0.093118
O4	O	1.236772	0.099008	0.396248
O5	O	1.264760	-0.099046	0.134591
O6	O	1.119912	-0.099035	0.279434
O7	O	1.423047	-0.099042	0.292878
Cu8	Cu	1.275262	-0.117121	0.289943
Cu9	Cu	1.226269	0.117084	0.240896
O10	O	1.278200	-0.099032	0.437721
C11	C	1.060129	-0.000014	0.254156
C12	C	0.943713	-0.000012	0.240611
N13	N	1.309729	-0.281849	0.324440
C14	C	0.718841	-0.000021	0.403442
C15	C	0.609458	-0.000020	0.390720
C16	C	0.615565	-0.000016	0.202448
C17	C	0.724948	-0.000017	0.215170
C18	C	0.776581	-0.000018	0.315670
C19	C	0.885964	-0.000011	0.328389
C20	C	0.892071	-0.000016	0.140119
C21	C	0.782688	-0.000015	0.127398
C22	C	1.109004	-0.655875	0.123540
C23	C	1.082909	-0.531224	0.097435
C24	C	1.139612	-0.468874	0.154184
C25	C	1.222414	-0.531188	0.237043
C26	C	1.248517	-0.655851	0.263145
C27	C	1.279125	-0.468850	0.293789
C28	C	1.361927	-0.531164	0.376647
C29	C	1.388026	-0.655816	0.402746
C30	C	1.331323	-0.718165	0.345997
C31	C	1.253022	-0.344186	0.267687
C32	C	1.392535	-0.344163	0.407291
C33	C	1.418630	-0.468814	0.433397
C34	C	1.441402	-0.000021	0.276683
C35	C	1.557816	-0.000015	0.290226
C36	C	1.239504	-0.000025	0.074785
C37	C	1.225959	-0.000023	-0.041631
N38	N	1.191810	0.281811	0.206392
C39	C	1.388784	-0.000002	-0.266509
C40	C	1.376062	0.000000	-0.375892
C41	C	1.187793	-0.000008	-0.369783
C42	C	1.200515	-0.000010	-0.260400
C43	C	1.301014	-0.000009	-0.208767
C44	C	1.313737	-0.000020	-0.099380
C45	C	1.125466	-0.000019	-0.093275
C46	C	1.112744	-0.000017	-0.202658
C47	C	1.262027	-0.000010	0.456054
C48	C	1.275570	-0.000004	0.572467
H49	H	0.928003	-0.000014	0.410221
H50	H	1.455457	-0.706548	0.470206
Cl51	Cl	1.148932	-0.265864	0.163526
Cl52	Cl	1.515128	-0.000030	-0.201588
H53	H	0.760882	-0.000020	0.485272
Cl54	Cl	1.106803	-0.312167	0.121366
Cl55	Cl	1.037735	-0.734262	0.052204
H56	H	1.486050	-0.519568	0.500862
H57	H	1.053999	-0.000034	-0.046247
Cl58	Cl	0.717767	-0.000016	0.001063
H59	H	1.447534	0.000010	-0.422903
H60	H	1.438708	-0.293398	0.453501
Cl61	Cl	0.536874	-0.000027	0.501068
H62	H	1.395569	-0.000023	-0.057341
Cl63	Cl	1.061454	0.000026	-0.434719
H64	H	1.030920	-0.000013	-0.244714
Cl65	Cl	0.978794	-0.452895	-0.006699
H66	H	0.573526	-0.000114	0.120647
H67	H	0.939093	-0.000006	0.068647
Cl68	Cl	1.364117	-0.874877	0.378820
