data_functionalizedCrystal
_audit_creation_method	'MofGen! by Chris Wilmer'
_symmetry_space_group_name_H-M	'P1'
_symmetry_Int_Tables_number	1
_symmetry_cell_setting	triclinic
loop_
_symmetry_equiv_pos_as_xyz
  x,y,z
_cell_length_a	15.995350
_cell_length_b	22.610064
_cell_length_c	15.995350
_cell_angle_alpha	89.997790
_cell_angle_beta	96.507625
_cell_angle_gamma	90.011636
loop_
_atom_site_label
_atom_site_type_symbol
_atom_site_fract_x
_atom_site_fract_y
_atom_site_fract_z
O1	O	1.110999	0.049131	-0.107925
O2	O	0.867224	0.049143	-0.121252
O3	O	0.995775	0.049137	0.007299
O4	O	0.982447	0.049138	-0.236476
O5	O	0.995737	-0.049233	0.007299
O6	O	0.867186	-0.049226	-0.121252
O7	O	1.110961	-0.049238	-0.107924
Zn8	Zn	0.989068	-0.064850	-0.114588
Zn9	Zn	0.989117	0.064756	-0.114588
O10	O	0.982410	-0.049231	-0.236476
C11	C	0.836010	-0.000040	-0.120701
C12	C	0.743060	-0.000035	-0.119049
C13	C	0.405312	-0.000048	-0.113117
C14	C	0.452746	-0.000268	-0.021565
C15	C	0.549436	-0.000042	-0.023217
C16	C	0.572873	-0.000042	-0.116060
C17	C	0.531807	0.056130	-0.161216
C18	C	0.435171	0.056173	-0.158916
C19	C	0.434790	-0.055691	-0.160808
C20	C	0.531735	-0.056430	-0.160786
C21	C	0.667570	-0.000036	-0.117727
C22	C	0.310614	-0.000049	-0.111452
N23	N	0.989040	-0.153302	-0.114588
C24	C	1.039898	-0.561946	-0.165392
C25	C	1.039908	-0.623866	-0.165390
O26	O	1.083116	-0.655887	-0.208580
N27	N	0.989133	-0.654840	-0.114579
C28	C	0.938351	-0.623890	-0.063760
O29	O	0.895164	-0.655921	-0.020540
C30	C	0.938345	-0.561971	-0.063758
C31	C	0.989117	-0.531001	-0.114579
C32	C	1.090666	-0.530976	-0.216208
C33	C	1.090654	-0.469060	-0.216211
C34	C	1.039874	-0.438115	-0.165398
C35	C	0.989105	-0.469085	-0.114582
C36	C	0.887568	-0.531023	-0.012936
C37	C	0.887567	-0.469100	-0.012938
C38	C	0.938339	-0.438129	-0.063758
C39	C	0.938313	-0.376224	-0.063772
N40	N	0.989088	-0.345251	-0.114583
C41	C	1.039869	-0.376196	-0.165396
C42	C	0.938367	-0.753924	-0.063767
C43	C	0.938367	-0.815841	-0.063772
C44	C	1.039926	-0.815813	-0.165402
C45	C	1.039921	-0.753894	-0.165400
C46	C	0.989142	-0.722950	-0.114578
C47	C	1.039839	-0.246169	-0.165399
C48	C	1.039820	-0.184248	-0.165401
C49	C	0.938265	-0.184281	-0.063769
C50	C	0.938280	-0.246197	-0.063770
C51	C	0.989074	-0.277139	-0.114588
O52	O	0.895130	-0.344164	-0.020601
O53	O	1.083056	-0.344157	-0.208601
C54	C	1.142175	-0.000053	-0.108476
C55	C	1.235125	-0.000054	-0.110127
C56	C	0.995205	-0.000047	0.038494
C57	C	0.993553	-0.000044	0.131444
N58	N	0.989152	0.153208	-0.114583
C59	C	0.982980	-0.000046	-0.267671
C60	C	0.984631	-0.000046	-0.360621
C61	C	0.987621	-0.000045	0.469192
C62	C	0.896069	0.000180	0.421758
C63	C	0.897721	-0.000042	0.325068
C64	C	0.990564	-0.000044	0.301631
C65	C	1.035699	-0.056219	0.342709
C66	C	1.033399	-0.056266	0.439345
C67	C	1.035333	0.055598	0.439703
C68	C	1.035312	0.056341	0.342757
C69	C	0.992231	-0.000045	0.206934
C70	C	0.985956	-0.000048	0.563890
H71	H	0.434208	-0.040550	0.015031
H72	H	1.004319	-0.098021	0.314328
C73	C	0.570154	0.112606	-0.118842
N74	N	0.599035	0.155143	-0.086919
C75	C	0.831702	-0.435065	0.042969
N76	N	0.789622	-0.409431	0.085075
C77	C	0.391604	0.059629	-0.249719
N78	N	0.358794	0.062239	-0.318111
C79	C	1.127840	-0.059053	0.323610
N80	N	1.197238	-0.061189	0.309216
H81	H	0.414238	-0.098268	-0.130877
H82	H	0.545933	0.058219	-0.229425
C83	C	1.146519	-0.435001	-0.272108
N84	N	1.188603	-0.409351	-0.314208
H85	H	1.005417	0.098175	0.460242
H86	H	1.002312	0.097897	0.315508
H87	H	1.081165	-0.159034	-0.206789
H88	H	0.896927	-0.271414	-0.022399
H89	H	0.862241	0.040226	0.296646
H90	H	0.896918	-0.159075	-0.022400
C91	C	0.568585	-0.112570	-0.116228
N92	N	0.596339	-0.154854	-0.082659
H93	H	0.859492	0.040464	0.440290
C94	C	0.882504	-0.849902	-0.007875
N95	N	0.840430	-0.875554	0.034232
C96	C	1.126783	0.060919	0.322011
N97	N	1.195684	0.064362	0.306389
C98	C	0.882491	-0.719891	-0.007866
N99	N	0.840405	-0.694260	0.034237
H100	H	0.859624	-0.039876	0.441352
H101	H	1.102834	0.055974	0.471463
H102	H	0.403028	-0.056071	-0.228308
C103	C	0.587825	-0.054437	0.024743
N104	N	0.616735	-0.095407	0.060873
H105	H	0.547099	-0.059823	-0.228489
H106	H	1.081201	-0.271355	-0.206780
H107	H	0.861971	-0.040376	0.297203
C108	C	0.988883	-0.112989	0.464070
N109	N	0.955349	-0.155712	0.482688
H110	H	0.433168	0.039793	0.014862
C111	C	1.124201	-0.059720	0.482912
N112	N	1.192592	-0.062326	0.515724
H113	H	0.577310	0.040294	0.012518
C114	C	1.095793	-0.849865	-0.221291
N115	N	1.137870	-0.875514	-0.263383
C116	C	0.410458	0.112895	-0.114421
N117	N	0.391849	0.155619	-0.080902
C118	C	1.146517	-0.565006	-0.272128
N119	N	1.188578	-0.590633	-0.314261
H120	H	1.081264	-0.728682	-0.206783
C121	C	0.831713	-0.565076	0.042972
N122	N	0.789641	-0.590724	0.085086
