data_functionalizedCrystal
_audit_creation_method	'MofGen! by Chris Wilmer'
_symmetry_space_group_name_H-M	'P1'
_symmetry_Int_Tables_number	1
_symmetry_cell_setting	triclinic
loop_
_symmetry_equiv_pos_as_xyz
  x,y,z
_cell_length_a	18.215407
_cell_length_b	16.625545
_cell_length_c	18.215399
_cell_angle_alpha	89.973113
_cell_angle_beta	89.980167
_cell_angle_gamma	90.026006
loop_
_atom_site_label
_atom_site_type_symbol
_atom_site_fract_x
_atom_site_fract_y
_atom_site_fract_z
Zn1	Zn	1.125069	-0.321000	-0.416121
Zn2	Zn	1.375069	-0.071000	-0.166121
Zn3	Zn	1.625069	0.179000	0.083879
Zn4	Zn	1.875069	0.429000	0.333879
Zn5	Zn	1.124975	-0.455841	-0.293057
Zn6	Zn	1.374975	-0.205841	-0.043057
Zn7	Zn	1.624975	0.044159	0.206943
Zn8	Zn	1.874975	0.294159	0.456943
Zn9	Zn	1.002001	-0.321027	-0.293069
Zn10	Zn	1.252001	-0.071027	-0.043069
Zn11	Zn	1.502001	0.178973	0.206931
Zn12	Zn	1.752001	0.428973	0.456931
Zn13	Zn	1.001966	-0.455796	-0.416082
Zn14	Zn	1.251966	-0.205796	-0.166082
Zn15	Zn	1.501966	0.044204	0.083918
Zn16	Zn	1.751966	0.294204	0.333918
O17	O	1.063503	-0.388416	-0.354582
O18	O	1.313503	-0.138416	-0.104582
O19	O	1.563503	0.111584	0.145418
O20	O	1.813503	0.361584	0.395418
O21	O	1.228040	-0.338895	-0.399808
O22	O	1.478040	-0.088895	-0.149808
O23	O	1.728040	0.161105	0.100192
O24	O	1.978040	0.411105	0.350192
O25	O	1.108639	-0.437987	-0.190074
O26	O	1.358639	-0.187987	0.059926
O27	O	1.608639	0.062013	0.309926
O28	O	1.858639	0.312013	0.559926
O29	O	1.018380	-0.208191	-0.309413
O30	O	1.268380	0.041809	-0.059413
O31	O	1.518380	0.291809	0.190587
O32	O	1.768380	0.541809	0.440587
O33	O	1.227972	-0.437961	-0.309394
O34	O	1.477972	-0.187961	-0.059394
O35	O	1.727972	0.062039	0.190606
O36	O	1.977972	0.312039	0.440606
O37	O	1.108797	-0.208171	-0.399819
O38	O	1.358797	0.041829	-0.149819
O39	O	1.608797	0.291829	0.100181
O40	O	1.858797	0.541829	0.350181
O41	O	1.018290	-0.338940	-0.190083
O42	O	1.268290	-0.088940	0.059917
O43	O	1.518290	0.161060	0.309917
O44	O	1.768290	0.411060	0.559917
O45	O	0.899012	-0.338896	-0.309375
O46	O	1.149012	-0.088896	-0.059375
O47	O	1.399012	0.161104	0.190625
O48	O	1.649012	0.411104	0.440625
O49	O	1.018319	-0.437885	-0.519072
O50	O	1.268319	-0.187885	-0.269072
O51	O	1.518319	0.062115	-0.019072
O52	O	1.768319	0.312115	0.230928
O53	O	0.898986	-0.437910	-0.399753
O54	O	1.148986	-0.187910	-0.149753
O55	O	1.398986	0.062090	0.100247
O56	O	1.648986	0.312090	0.350247
O57	O	1.108763	-0.338851	-0.519100
O58	O	1.358763	-0.088851	-0.269100
O59	O	1.608763	0.161149	-0.019100
O60	O	1.858763	0.411149	0.230900
O61	O	1.108604	-0.568667	-0.309356
O62	O	1.358604	-0.318667	-0.059356
O63	O	1.608604	-0.068667	0.190644
O64	O	1.858604	0.181333	0.440644
O65	O	1.018229	-0.568634	-0.399742
O66	O	1.268229	-0.318634	-0.149742
O67	O	1.518229	-0.068634	0.100258
O68	O	1.768229	0.181366	0.350258
C69	C	0.872296	-0.388402	-0.354561
C70	C	1.122296	-0.138402	-0.104561
C71	C	1.372296	0.111598	0.145439
C72	C	1.622296	0.361598	0.395439
C73	C	0.790497	-0.388415	-0.354570
C74	C	1.040497	-0.138415	-0.104570
C75	C	1.290497	0.111585	0.145430
C76	C	1.540497	0.361585	0.395430
C77	C	0.602309	-0.440053	-0.401570
C78	C	0.852309	-0.190053	-0.151570
C79	C	1.102309	0.059947	0.098430
C80	C	1.352309	0.309947	0.348430
C81	C	0.525450	-0.440056	-0.401579
C82	C	0.775450	-0.190056	-0.151579
C83	C	1.025450	0.059944	0.098421
C84	C	1.275450	0.309944	0.348421
C85	C	0.525448	-0.336793	-0.307611
C86	C	0.775448	-0.086793	-0.057611
C87	C	1.025448	0.163207	0.192389
C88	C	1.275448	0.413207	0.442389
C89	C	0.602305	-0.336787	-0.307606
C90	C	0.852305	-0.086787	-0.057606
C91	C	1.102305	0.163213	0.192394
C92	C	1.352305	0.413213	0.442394
C93	C	0.640734	-0.388422	-0.354584
C94	C	0.890734	-0.138422	-0.104584
C95	C	1.140734	0.111578	0.145416
C96	C	1.390734	0.361578	0.395416
C97	C	0.487018	-0.388430	-0.354598
C98	C	0.737018	-0.138430	-0.104598
C99	C	0.987018	0.111570	0.145402
C100	C	1.237018	0.361570	0.395402
C101	C	0.403684	-0.388433	-0.354608
C102	C	0.653684	-0.138433	-0.104608
C103	C	0.903684	0.111567	0.145392
C104	C	1.153684	0.361567	0.395392
C105	C	0.724073	-0.388418	-0.354576
C106	C	0.974073	-0.138418	-0.104576
C107	C	1.224073	0.111582	0.145424
C108	C	1.474073	0.361582	0.395424
C109	C	1.063423	-0.597907	-0.354559
C110	C	1.313423	-0.347907	-0.104559
C111	C	1.563423	-0.097907	0.145441
C112	C	1.813423	0.152093	0.395441
C113	C	1.063456	-0.687528	-0.354574
C114	C	1.313456	-0.437528	-0.104574
C115	C	1.563456	-0.187528	0.145426
C116	C	1.813456	0.062472	0.395426
C117	C	1.063484	-0.760310	-0.354589
C118	C	1.313484	-0.510310	-0.104589
C119	C	1.563484	-0.260310	0.145411
C120	C	1.813484	-0.010310	0.395411
C121	C	1.063527	-0.851619	-0.354605
C122	C	1.313527	-0.601619	-0.104605
C123	C	1.563527	-0.351619	0.145395
C124	C	1.813527	-0.101619	0.395395
C125	C	1.063565	-0.924395	-0.354614
C126	C	1.313565	-0.674395	-0.104614
C127	C	1.563565	-0.424395	0.145386
C128	C	1.813565	-0.174395	0.395386
C129	C	1.063608	-1.015709	-0.354629
C130	C	1.313608	-0.765709	-0.104629
C131	C	1.563608	-0.515709	0.145371
C132	C	1.813608	-0.265709	0.395371
C133	C	1.255456	-0.388430	-0.354604
C134	C	1.505456	-0.138430	-0.104604
C135	C	1.755456	0.111570	0.145396
C136	C	2.005456	0.361570	0.395396
C137	C	1.337254	-0.388436	-0.354613
C138	C	1.587254	-0.138436	-0.104613
C139	C	1.837254	0.111564	0.145387
C140	C	2.087254	0.361564	0.395387
C141	C	1.063547	-0.388360	-0.546535
C142	C	1.313547	-0.138360	-0.296535
C143	C	1.563547	0.111640	-0.046535
C144	C	1.813547	0.361640	0.203465
C145	C	1.063567	-0.388336	-0.628334
C146	C	1.313567	-0.138336	-0.378334
C147	C	1.563567	0.111664	-0.128334
C148	C	1.813567	0.361664	0.121666
C149	C	1.063603	-0.178107	-0.354622
C150	C	1.313603	0.071893	-0.104622
C151	C	1.563603	0.321893	0.145378
C152	C	1.813603	0.571893	0.395378
C153	C	1.063646	-0.088486	-0.354639
C154	C	1.313646	0.161514	-0.104639
C155	C	1.563646	0.411514	0.145361
C156	C	1.813646	0.661514	0.395361
C157	C	1.110677	-0.336721	-0.816544
C158	C	1.360677	-0.086721	-0.566544
C159	C	1.610677	0.163279	-0.316544
C160	C	1.860677	0.413279	-0.066544
C161	C	1.110686	-0.336698	-0.893403
C162	C	1.360686	-0.086698	-0.643403
C163	C	1.610686	0.163302	-0.393403
C164	C	1.860686	0.413302	-0.143403
C165	C	1.016508	-0.439827	-0.893362
C166	C	1.266508	-0.189827	-0.643362
C167	C	1.516508	0.060173	-0.393362
C168	C	1.766508	0.310173	-0.143362
C169	C	1.016496	-0.439846	-0.816505
C170	C	1.266496	-0.189846	-0.566505
C171	C	1.516496	0.060154	-0.316505
C172	C	1.766496	0.310154	-0.066505
C173	C	1.063585	-0.388294	-0.778098
C174	C	1.313585	-0.138294	-0.528098
C175	C	1.563585	0.111706	-0.278098
C176	C	1.813585	0.361706	-0.028098
C177	C	1.063606	-0.388252	-0.931814
C178	C	1.313606	-0.138252	-0.681814
C179	C	1.563606	0.111748	-0.431814
C180	C	1.813606	0.361748	-0.181814
C181	C	1.063615	-0.388227	-1.015148
C182	C	1.313615	-0.138227	-0.765148
C183	C	1.563615	0.111773	-0.515148
C184	C	1.813615	0.361773	-0.265148
C185	C	1.063575	-0.388318	-0.694759
C186	C	1.313575	-0.138318	-0.444759
C187	C	1.563575	0.111682	-0.194759
C188	C	1.813575	0.361682	0.055241
C189	C	1.063500	-0.388413	-0.163376
C190	C	1.313500	-0.138413	0.086624
C191	C	1.563500	0.111587	0.336624
C192	C	1.813500	0.361587	0.586624
C193	C	1.063624	-0.388210	-0.081578
C194	C	1.313624	-0.138210	0.168422
C195	C	1.563624	0.111790	0.418422
C196	C	1.813624	0.361790	0.668422
H197	H	0.633595	-0.482096	-0.439825
H198	H	0.883595	-0.232096	-0.189825
H199	H	1.133595	0.017904	0.060175
H200	H	1.383595	0.267904	0.310175
H201	H	0.978171	-0.481800	-0.924642
H202	H	1.228171	-0.231800	-0.674642
H203	H	1.478171	0.018200	-0.424642
H204	H	1.728171	0.268200	-0.174642
Br205	Br	0.952573	-0.509835	-0.764322
Br206	Br	1.202573	-0.259835	-0.514322
Br207	Br	1.452573	-0.009835	-0.264322
Br208	Br	1.702573	0.240165	-0.014322
H209	H	0.494168	-0.482098	-0.439841
H210	H	0.744168	-0.232098	-0.189841
H211	H	0.994168	0.017902	0.060159
H212	H	1.244168	0.267902	0.310159
Br213	Br	0.473291	-0.266721	-0.243857
Br214	Br	0.723291	-0.016721	0.006143
Br215	Br	0.973291	0.233279	0.256143
Br216	Br	1.223291	0.483279	0.506143
Br217	Br	0.654458	-0.266702	-0.243842
Br218	Br	0.904458	-0.016702	0.006158
Br219	Br	1.154458	0.233298	0.256158
Br220	Br	1.404458	0.483298	0.506158
H221	H	1.149018	-0.294743	-0.785276
H222	H	1.399018	-0.044743	-0.535276
H223	H	1.649018	0.205257	-0.285276
H224	H	1.899018	0.455257	-0.035276
Br225	Br	1.174606	-0.266709	-0.945578
Br226	Br	1.424606	-0.016709	-0.695578
Br227	Br	1.674606	0.233291	-0.445578
Br228	Br	1.924606	0.483291	-0.195578
