data_functionalizedCrystal
_audit_creation_method	'MofGen! by Chris Wilmer'
_symmetry_space_group_name_H-M	'P1'
_symmetry_Int_Tables_number	1
_symmetry_cell_setting	triclinic
loop_
_symmetry_equiv_pos_as_xyz
  x,y,z
_cell_length_a	26.809956
_cell_length_b	9.065218
_cell_length_c	9.065218
_cell_angle_alpha	85.015885
_cell_angle_beta	90.006267
_cell_angle_gamma	89.990977
loop_
_atom_site_label
_atom_site_type_symbol
_atom_site_fract_x
_atom_site_fract_y
_atom_site_fract_z
O1	O	0.041479	-1.960413	-0.216336
O2	O	0.041479	-1.531128	-0.234083
O3	O	0.041478	-1.754644	-0.010567
O4	O	0.041480	-1.736897	-0.439852
O5	O	-0.041481	-1.754601	-0.010601
O6	O	-0.041480	-1.531086	-0.234117
O7	O	-0.041481	-1.960371	-0.216370
Zn8	Zn	-0.054652	-1.745721	-0.225249
Zn9	Zn	0.054650	-1.745777	-0.225204
O10	O	-0.041479	-1.736855	-0.439886
C11	C	-0.000000	-1.476120	-0.232394
C12	C	-0.000000	-1.312277	-0.227294
C13	C	-0.000001	-1.752917	0.044403
C14	C	0.000001	-1.747817	0.208245
N15	N	-0.129248	-1.745694	-0.225279
C16	C	-0.473874	-1.844737	-0.126256
C17	C	-0.682752	-1.844772	-0.126234
O18	O	-0.709756	-1.928922	-0.042049
N19	N	-0.708875	-1.745785	-0.225172
C20	C	-0.682775	-1.646775	-0.324115
O21	O	-0.709787	-1.562571	-0.408257
C22	C	-0.473898	-1.646735	-0.324129
C23	C	-0.447778	-1.745738	-0.225195
C24	C	-0.447754	-1.943732	-0.027329
C25	C	-0.395538	-1.943728	-0.027341
C26	C	-0.369442	-1.844729	-0.126280
C27	C	-0.395562	-1.745734	-0.225207
C28	C	-0.447800	-1.547719	-0.423064
C29	C	-0.395577	-1.547715	-0.423056
C30	C	-0.369457	-1.646719	-0.324122
C31	C	-0.317250	-1.646731	-0.324158
N32	N	-0.291127	-1.745718	-0.225220
C33	C	-0.317223	-1.844717	-0.126281
C34	C	-0.792438	-1.646805	-0.324103
C35	C	-0.844657	-1.646817	-0.324102
C36	C	-0.844631	-1.844813	-0.126218
C37	C	-0.792411	-1.844807	-0.126228
C38	C	-0.766316	-1.745793	-0.225165
C39	C	-0.207565	-1.844702	-0.126315
C40	C	-0.155344	-1.844693	-0.126340
C41	C	-0.155375	-1.646693	-0.324217
C42	C	-0.207592	-1.646706	-0.324198
C43	C	-0.233685	-1.745716	-0.225235
O44	O	-0.290213	-1.562614	-0.408287
O45	O	-0.290202	-1.928887	-0.042130
C46	C	-0.526091	-1.844742	-0.126244
C47	C	-0.552211	-1.745747	-0.225171
C48	C	-0.526115	-1.646748	-0.324110
C49	C	-0.604430	-1.745758	-0.225170
C50	C	-0.630526	-1.844757	-0.126231
C51	C	-0.604403	-1.943745	-0.027293
C52	C	-0.552187	-1.943741	-0.027305
C53	C	-0.552238	-1.547761	-0.423048
C54	C	-0.604454	-1.547774	-0.423029
C55	C	-0.630550	-1.646773	-0.324090
N56	N	0.129246	-1.745816	-0.225163
C57	C	0.000000	-2.015378	-0.218059
C58	C	0.000003	-2.179221	-0.223158
C59	C	0.000001	-1.738582	-0.494855
C60	C	0.000001	-1.743681	-0.658698
H61	H	-0.134079	-1.925319	-0.045776
H62	H	-0.134120	-1.566093	-0.404777
C63	C	-0.763682	-1.953703	-0.017390
C64	C	-0.770861	-1.948991	0.150673
C65	C	-0.742135	-2.057889	0.259519
C66	C	-0.706229	-2.171499	0.200301
C67	C	-0.699048	-2.176215	0.032229
C68	C	-0.727774	-2.067317	-0.076617
H69	H	-0.797442	-1.864886	0.194517
H70	H	-0.747451	-2.054397	0.383937
H71	H	-0.684964	-2.252112	0.280875
H72	H	-0.672467	-2.260320	-0.011615
H73	H	-0.722458	-2.070809	-0.201035
C74	C	-0.236325	-1.537810	-0.433035
C75	C	-0.229148	-1.369759	-0.428213
C76	C	-0.257876	-1.260849	-0.537041
C77	C	-0.293781	-1.319989	-0.650692
C78	C	-0.300959	-1.488048	-0.655518
C79	C	-0.272231	-1.596959	-0.546690
H80	H	-0.202568	-1.325972	-0.344078
H81	H	-0.252563	-1.136440	-0.533468
H82	H	-0.315047	-1.239367	-0.731253
H83	H	-0.327539	-1.531835	-0.739653
H84	H	-0.277545	-1.721367	-0.550263
H85	H	-0.865887	-1.925424	-0.045660
C86	C	-0.523459	-2.052639	0.081533
C87	C	-0.530636	-2.047921	0.249597
C88	C	-0.501912	-2.156822	0.358443
C89	C	-0.466010	-2.270442	0.299226
C90	C	-0.458830	-2.275164	0.131154
C91	C	-0.487555	-2.166263	0.022308
H92	H	-0.557215	-1.963809	0.293440
H93	H	-0.507227	-2.153326	0.482861
H94	H	-0.444746	-2.351057	0.379801
H95	H	-0.432252	-2.359276	0.087311
H96	H	-0.482240	-2.169759	-0.102110
H97	H	-0.865921	-1.566215	-0.404679
H98	H	-0.228805	-1.925323	-0.045728
H99	H	-0.771195	-1.566174	-0.404674
H100	H	-0.625659	-2.024359	0.053262
H101	H	-0.625717	-1.467156	-0.503606
H102	H	-0.469059	-1.467100	-0.503624
H103	H	-0.374274	-2.024341	0.053224
H104	H	-0.468997	-2.024349	0.053246
H105	H	-0.374333	-1.467081	-0.503622
H106	H	-0.530994	-1.467142	-0.503614
