data_functionalizedCrystal
_audit_creation_method	'MofGen! by Chris Wilmer'
_symmetry_space_group_name_H-M	'P1'
_symmetry_Int_Tables_number	1
_symmetry_cell_setting	triclinic
loop_
_symmetry_equiv_pos_as_xyz
  x,y,z
_cell_length_a	14.519709
_cell_length_b	9.065215
_cell_length_c	12.996460
_cell_angle_alpha	90.005021
_cell_angle_beta	90.000052
_cell_angle_gamma	95.652579
loop_
_atom_site_label
_atom_site_type_symbol
_atom_site_fract_x
_atom_site_fract_y
_atom_site_fract_z
O1	O	-0.135216	1.957872	0.085539
O2	O	0.114784	2.207872	0.335539
O3	O	0.364784	2.457872	0.585539
O4	O	0.614784	2.707872	0.835539
O5	O	-0.146310	1.528379	0.085542
O6	O	0.103690	1.778379	0.335542
O7	O	0.353690	2.028379	0.585542
O8	O	0.603690	2.278379	0.835542
O9	O	-0.006608	1.754513	0.085550
O10	O	0.243392	2.004513	0.335550
O11	O	0.493392	2.254513	0.585550
O12	O	0.743392	2.504513	0.835550
O13	O	-0.274918	1.731738	0.085531
O14	O	-0.024918	1.981738	0.335531
O15	O	0.225082	2.231738	0.585531
O16	O	0.475082	2.481738	0.835531
O17	O	-0.006600	1.754489	-0.085584
O18	O	0.243400	2.004489	0.164416
O19	O	0.493400	2.254489	0.414416
O20	O	0.743400	2.504489	0.664416
O21	O	-0.146302	1.528355	-0.085592
O22	O	0.103698	1.778355	0.164408
O23	O	0.353698	2.028355	0.414408
O24	O	0.603698	2.278355	0.664408
O25	O	-0.135208	1.957848	-0.085595
O26	O	0.114792	2.207848	0.164405
O27	O	0.364792	2.457848	0.414405
O28	O	0.614792	2.707848	0.664405
Cu29	Cu	-0.140754	1.743100	-0.101219
Cu30	Cu	0.109246	1.993100	0.148781
Cu31	Cu	0.359246	2.243100	0.398781
Cu32	Cu	0.609246	2.493100	0.648781
Cu33	Cu	-0.140764	1.743127	0.101166
Cu34	Cu	0.109236	1.993127	0.351166
Cu35	Cu	0.359236	2.243127	0.601166
Cu36	Cu	0.609236	2.493127	0.851166
O37	O	-0.274910	1.731714	-0.085603
O38	O	-0.024910	1.981714	0.164397
O39	O	0.225090	2.231714	0.414397
O40	O	0.475090	2.481714	0.664397
C41	C	-0.145241	1.473400	-0.000024
C42	C	0.104759	1.723400	0.249976
C43	C	0.354759	1.973400	0.499976
C44	C	0.604759	2.223400	0.749976
C45	C	-0.142054	1.309617	-0.000022
C46	C	0.107946	1.559617	0.249978
C47	C	0.357946	1.809617	0.499978
C48	C	0.607946	2.059617	0.749978
C49	C	-0.309282	1.732788	-0.000038
C50	C	-0.059282	1.982788	0.249962
C51	C	0.190718	2.232788	0.499962
C52	C	0.440718	2.482788	0.749962
C53	C	-0.411686	1.735968	-0.000045
C54	C	-0.161686	1.985968	0.249955
C55	C	0.088314	2.235968	0.499955
C56	C	0.338314	2.485968	0.749955
C57	C	-0.786668	1.747677	-0.000004
C58	C	-0.536668	1.997677	0.249996
C59	C	-0.286668	2.247677	0.499996
C60	C	-0.036668	2.497677	0.749996
C61	C	-0.682336	1.744426	-0.000016
C62	C	-0.432336	1.994426	0.249984
C63	C	-0.182336	2.244426	0.499984
C64	C	0.067664	2.494426	0.749984
C65	C	-0.599180	1.741823	-0.000026
C66	C	-0.349180	1.991823	0.249974
C67	C	-0.099180	2.241823	0.499974
C68	C	0.150820	2.491823	0.749974
C69	C	-0.494842	1.738571	-0.000035
C70	C	-0.244842	1.988571	0.249965
C71	C	0.005158	2.238571	0.499965
C72	C	0.255158	2.488571	0.749965
C73	C	0.027764	1.753439	-0.000013
C74	C	0.277764	2.003439	0.249987
C75	C	0.527764	2.253439	0.499987
C76	C	0.777764	2.503439	0.749987
C77	C	0.130168	1.750259	0.000001
C78	C	0.380168	2.000259	0.250001
C79	C	0.630168	2.250259	0.500001
C80	C	0.880168	2.500259	0.750001
C81	C	-0.136277	2.012827	-0.000027
C82	C	0.113723	2.262827	0.249973
C83	C	0.363723	2.512827	0.499973
C84	C	0.613723	2.762827	0.749973
C85	C	-0.139464	2.176610	-0.000022
C86	C	0.110536	2.426610	0.249978
C87	C	0.360536	2.676610	0.499978
C88	C	0.610536	2.926610	0.749978
N89	N	-0.140747	1.743091	-0.243566
N90	N	0.109253	1.993091	0.006434
N91	N	0.359253	2.243091	0.256434
N92	N	0.609253	2.493091	0.506434
C93	C	-0.140765	1.743125	-0.663381
C94	C	0.109235	1.993125	-0.413381
C95	C	0.359235	2.243125	-0.163381
C96	C	0.609235	2.493125	0.086619
C97	C	-0.140763	1.743111	-0.546576
C98	C	0.109237	1.993111	-0.296576
C99	C	0.359237	2.243111	-0.046576
C100	C	0.609237	2.493111	0.203424
C101	C	-0.140757	1.743109	-0.453477
C102	C	0.109243	1.993109	-0.203477
C103	C	0.359243	2.243109	0.046523
C104	C	0.609243	2.493109	0.296523
C105	C	-0.140753	1.743093	-0.336665
C106	C	0.109247	1.993093	-0.086665
C107	C	0.359247	2.243093	0.163335
C108	C	0.609247	2.493093	0.413335
N109	N	-0.140764	1.743148	0.243513
N110	N	0.109236	1.993148	0.493513
N111	N	0.359236	2.243148	0.743513
N112	N	0.609236	2.493148	0.993513
