data_functionalizedCrystal
_audit_creation_method	'MofGen! by Chris Wilmer'
_symmetry_space_group_name_H-M	'P1'
_symmetry_Int_Tables_number	1
_symmetry_cell_setting	triclinic
loop_
_symmetry_equiv_pos_as_xyz
  x,y,z
_cell_length_a	27.732048
_cell_length_b	15.944551
_cell_length_c	14.421503
_cell_angle_alpha	90.003141
_cell_angle_beta	89.999321
_cell_angle_gamma	96.929303
loop_
_atom_site_label
_atom_site_type_symbol
_atom_site_fract_x
_atom_site_fract_y
_atom_site_fract_z
O1	O	0.062334	-1.113714	-0.077025
O2	O	0.562334	-0.613714	0.422975
O3	O	0.070020	-0.869064	-0.077050
O4	O	0.570020	-0.369064	0.422950
O5	O	-0.004187	-0.998987	-0.077019
O6	O	0.495813	-0.498987	0.422981
O7	O	0.136540	-0.983791	-0.077056
O8	O	0.636540	-0.483791	0.422944
O9	O	-0.004176	-0.998966	0.077204
O10	O	0.495824	-0.498966	0.577204
O11	O	0.070031	-0.869042	0.077174
O12	O	0.570031	-0.369042	0.577174
O13	O	0.062345	-1.113693	0.077198
O14	O	0.562345	-0.613693	0.577198
Cu15	Cu	0.066189	-0.991366	0.091268
Cu16	Cu	0.566189	-0.491366	0.591268
Cu17	Cu	0.066176	-0.991391	-0.091119
Cu18	Cu	0.566176	-0.491391	0.408881
O19	O	0.136552	-0.983769	0.077168
O20	O	0.636552	-0.483769	0.577168
C21	C	0.069706	-0.837763	0.000059
C22	C	0.569706	-0.337763	0.500059
C23	C	0.068749	-0.744530	0.000051
C24	C	0.568749	-0.244530	0.500051
C25	C	-0.022190	-0.998658	0.000095
C26	C	0.477810	-0.498658	0.500095
C27	C	-0.075849	-0.997697	0.000103
C28	C	0.424151	-0.497697	0.500103
C29	C	0.062658	-1.144993	0.000087
C30	C	0.562658	-0.644993	0.500087
C31	C	0.063615	-1.238227	0.000090
C32	C	0.563615	-0.738227	0.500090
C33	C	-0.414358	-1.068426	0.000062
C34	C	0.085642	-0.568426	0.500062
C35	C	-0.616033	-1.064862	0.000049
C36	C	-0.116033	-0.564862	0.500049
O37	O	-0.647008	-1.129539	0.000015
O38	O	-0.147008	-0.629539	0.500015
N39	N	-0.635490	-0.987823	0.000042
N40	N	-0.135490	-0.487823	0.500042
C41	C	-0.604525	-0.911669	0.000032
C42	C	-0.104525	-0.411669	0.500032
O43	O	-0.625703	-0.846061	0.000017
O44	O	-0.125703	-0.346061	0.500017
C45	C	-0.402851	-0.915234	0.000039
C46	C	0.097149	-0.415234	0.500039
C47	C	-0.383397	-0.992278	0.000055
C48	C	0.116603	-0.492278	0.500055
C49	C	-0.394903	-1.145464	0.000077
C50	C	0.105097	-0.645464	0.500077
C51	C	-0.344487	-1.146354	0.000086
C52	C	0.155513	-0.646354	0.500086
C53	C	-0.313526	-1.070206	0.000079
C54	C	0.186474	-0.570206	0.500079
C55	C	-0.332981	-0.993168	0.000064
C56	C	0.167019	-0.493168	0.500064
C57	C	-0.371887	-0.839081	0.000023
C58	C	0.128113	-0.339081	0.500023
C59	C	-0.321466	-0.839979	0.000022
C60	C	0.178534	-0.339979	0.500022
C61	C	-0.302012	-0.917024	0.000038
C62	C	0.197988	-0.417024	0.500038
C63	C	-0.251604	-0.917911	0.000065
C64	C	0.248396	-0.417911	0.500065
N65	N	-0.232147	-0.994950	0.000072
N66	N	0.267853	-0.494950	0.500072
C67	C	-0.263108	-1.071098	0.000079
C68	C	0.236892	-0.571098	0.500079
C69	C	-0.710408	-0.909803	0.000031
C70	C	-0.210408	-0.409803	0.500031
C71	C	-0.760826	-0.908912	0.000031
C72	C	-0.260826	-0.408912	0.500031
C73	C	-0.772330	-1.062105	0.000045
C74	C	-0.272330	-0.562105	0.500045
C75	C	-0.721911	-1.062995	0.000052
C76	C	-0.221911	-0.562995	0.500052
C77	C	-0.690950	-0.986842	0.000038
C78	C	-0.190950	-0.486842	0.500038
C79	C	-0.157231	-1.072961	0.000097
C80	C	0.342769	-0.572961	0.500097
C81	C	-0.106810	-1.073845	0.000109
C82	C	0.393190	-0.573845	0.500109
C83	C	-0.095310	-0.920652	0.000090
C84	C	0.404690	-0.420652	0.500090
C85	C	-0.145727	-0.919768	0.000083
C86	C	0.354273	-0.419768	0.500083
C87	C	-0.176686	-0.995930	0.000083
C88	C	0.323314	-0.495930	0.500083
O89	O	-0.220600	-0.853269	0.000089
O90	O	0.279400	-0.353269	0.500089
O91	O	-0.241921	-1.136697	0.000074
O92	O	0.258079	-0.636697	0.500074
C93	C	-0.464774	-1.067536	0.000054
C94	C	0.035226	-0.567536	0.500054
C95	C	-0.484228	-0.990498	0.000039
C96	C	0.015772	-0.490498	0.500039
C97	C	-0.453268	-0.914350	0.000032
C98	C	0.046732	-0.414350	0.500032
C99	C	-0.534647	-0.989607	0.000039
C100	C	-0.034647	-0.489607	0.500039
C101	C	-0.565608	-1.065754	0.000045
C102	C	-0.065608	-0.565754	0.500045
C103	C	-0.546150	-1.142794	0.000052
C104	C	-0.046150	-0.642794	0.500052
C105	C	-0.495734	-1.143684	0.000061
C106	C	0.004266	-0.643684	0.500061
C107	C	-0.472725	-0.837311	0.000025
C108	C	0.027275	-0.337311	0.500025
C109	C	-0.523141	-0.836427	0.000018
C110	C	-0.023141	-0.336427	0.500018
C111	C	-0.554102	-0.912575	0.000024
C112	C	-0.054102	-0.412575	0.500024
C113	C	0.154554	-0.984099	0.000051
C114	C	0.654554	-0.484099	0.500051
C115	C	0.208213	-0.985059	0.000038
C116	C	0.708213	-0.485059	0.500038
N117	N	0.066198	-0.991354	0.219549
N118	N	0.566198	-0.491354	0.719549
C119	C	0.020466	-0.530305	0.000081
C120	C	0.520466	-0.030305	0.500081
C121	C	0.042882	-0.469002	-0.075965
C122	C	0.542882	0.030998	0.424035
C123	C	0.067019	-0.573827	0.000062
C124	C	0.567019	-0.073827	0.500062
C125	C	0.042904	-0.469003	0.076087
C126	C	0.542904	0.030997	0.576087
C127	C	0.065344	-0.408936	0.000077
C128	C	0.565344	0.091064	0.500077
C129	C	0.089447	-0.513752	-0.076047
C130	C	0.589447	-0.013752	0.423953
C131	C	0.089463	-0.513759	0.076074
C132	C	0.589463	-0.013759	0.576074
C133	C	0.111912	-0.452474	0.000009
C134	C	0.611912	0.047526	0.500009
C135	C	0.067983	-0.668816	0.000053
C136	C	0.567983	-0.168816	0.500053
C137	C	0.064384	-0.313947	0.000080
C138	C	0.564384	0.186053	0.500080
N139	N	0.066163	-0.991409	-0.219401
N140	N	0.566163	-0.491409	0.280599
C141	C	0.100495	-0.931267	0.469189
C142	C	0.600495	-0.431267	0.969189
C143	C	0.109880	-1.007044	0.530996
C144	C	0.609880	-0.507044	1.030996
C145	C	0.066186	-0.991374	0.408710
C146	C	0.566186	-0.491374	0.908710
C147	C	0.056813	-0.915616	0.530997
C148	C	0.556813	-0.415616	1.030997
C149	C	0.066176	-0.991387	0.591432
C150	C	0.566176	-0.491387	1.091432
C151	C	0.075592	-1.067190	0.469157
C152	C	0.575592	-0.567190	0.969157
C153	C	0.022507	-0.975712	0.469153
C154	C	0.522507	-0.475712	0.969153
C155	C	0.031872	-1.051545	0.530932
C156	C	0.531872	-0.551545	1.030932
C157	C	0.066193	-0.991366	0.303449
C158	C	0.566193	-0.491366	0.803449
C159	C	0.066169	-0.991405	0.696691
C160	C	0.566169	-0.491405	1.196691
H161	H	-0.090973	-1.136586	0.000125
H162	H	0.409027	-0.636586	0.500125
Br163	Br	0.176372	-0.396360	-0.000073
Br164	Br	0.676372	0.103640	0.499927
H165	H	0.109118	-0.533491	-0.140408
H166	H	0.609118	-0.033491	0.359592
Br167	Br	-0.199239	-1.176324	0.000097
Br168	Br	0.300761	-0.676324	0.500097
Br169	Br	0.122263	-0.546872	0.183220
Br170	Br	0.622263	-0.046872	0.683220
Br171	Br	-0.016497	-1.136363	0.575841
Br172	Br	0.483503	-0.636363	1.075841
Br173	Br	-0.043937	-0.586662	-0.000021
Br174	Br	0.456063	-0.086662	0.499979
Br175	Br	0.010059	-0.435930	-0.183109
Br176	Br	0.510059	0.064070	0.316891
H177	H	-0.685203	-0.847786	0.000019
H178	H	-0.185203	-0.347786	0.500019
H179	H	-0.328652	-1.209091	0.000095
H180	H	0.171348	-0.709091	0.500095
H181	H	-0.014416	-0.962429	0.441967
H182	H	0.485584	-0.462429	0.941967
H183	H	0.129533	-0.880487	0.442079
H184	H	0.629533	-0.380487	0.942079
Br185	Br	0.043607	-0.808827	0.576278
Br186	Br	0.543607	-0.308827	1.076278
H187	H	0.023210	-0.449165	0.140376
H188	H	0.523210	0.050835	0.640376
H189	H	-0.296260	-0.777965	0.000009
H190	H	0.203740	-0.277965	0.500009
H191	H	-0.706075	-1.125732	0.000065
H192	H	-0.206075	-0.625732	0.500065
Br193	Br	-0.814358	-1.165448	0.000052
Br194	Br	-0.314358	-0.665448	0.500052
Br195	Br	-0.436913	-1.248822	0.000086
Br196	Br	0.063087	-0.748822	0.500086
Br197	Br	0.171438	-1.029148	0.576271
Br198	Br	0.671438	-0.529148	1.076271
Br199	Br	0.088869	-1.174007	0.424080
Br200	Br	0.588869	-0.674007	0.924080
H201	H	-0.387718	-0.776344	0.000004
H202	H	0.112282	-0.276344	0.500004
Br203	Br	-0.172130	-0.815208	0.000082
Br204	Br	0.327870	-0.315208	0.500082
Br205	Br	-0.053283	-0.817314	0.000081
Br206	Br	0.446717	-0.317314	0.500081
Br207	Br	-0.588179	-1.246136	0.000069
Br208	Br	-0.088179	-0.746136	0.500069
Br209	Br	-0.549537	-0.731857	0.000003
Br210	Br	-0.049537	-0.231857	0.500003
Br211	Br	-0.787222	-0.804348	0.000031
Br212	Br	-0.287222	-0.304348	0.500031
H213	H	-0.479900	-1.206421	0.000073
H214	H	0.020100	-0.706421	0.500073
H215	H	-0.447521	-0.775301	0.000017
H216	H	0.052479	-0.275301	0.500017
