data_functionalizedCrystal
_audit_creation_method	'MofGen! by Chris Wilmer'
_symmetry_space_group_name_H-M	'P1'
_symmetry_Int_Tables_number	1
_symmetry_cell_setting	triclinic
loop_
_symmetry_equiv_pos_as_xyz
  x,y,z
_cell_length_a	29.839135
_cell_length_b	29.839131
_cell_length_c	29.839125
_cell_angle_alpha	90.025363
_cell_angle_beta	90.015488
_cell_angle_gamma	90.037758
loop_
_atom_site_label
_atom_site_type_symbol
_atom_site_fract_x
_atom_site_fract_y
_atom_site_fract_z
Zn1	Zn	0.686739	-0.178886	0.254023
Zn2	Zn	0.686679	-0.253998	0.178883
Zn3	Zn	0.611622	-0.178886	0.178901
Zn4	Zn	0.611578	-0.253993	0.253980
O5	O	0.649154	-0.216441	0.216447
O6	O	0.749598	-0.188852	0.244066
O7	O	0.676716	-0.244036	0.116019
O8	O	0.621630	-0.116019	0.188892
O9	O	0.749554	-0.244036	0.188861
O10	O	0.676818	-0.116019	0.244084
O11	O	0.621572	-0.188852	0.116032
O12	O	0.548749	-0.188847	0.188850
O13	O	0.621554	-0.244028	0.316853
O14	O	0.548716	-0.244028	0.244010
O15	O	0.676775	-0.188847	0.316885
O16	O	0.676673	-0.316864	0.188819
O17	O	0.621497	-0.316861	0.243993
C18	C	0.532432	-0.216437	0.216428
C19	C	0.482497	-0.216447	0.216430
C20	C	0.172874	-0.187750	0.245235
C21	C	-0.014799	-0.187753	0.245247
O22	O	-0.039047	-0.163344	0.269717
N23	N	-0.038288	-0.216441	0.216464
C24	C	-0.014855	-0.245129	0.187672
O25	O	-0.039140	-0.269527	0.163187
C26	C	0.172817	-0.245123	0.187658
C27	C	0.196303	-0.216436	0.216447
C28	C	0.196360	-0.159065	0.274021
C29	C	0.243275	-0.159066	0.274019
C30	C	0.266705	-0.187752	0.245231
C31	C	0.243219	-0.216437	0.216445
C32	C	0.196249	-0.273808	0.158864
C33	C	0.243170	-0.273803	0.158862
C34	C	0.266656	-0.245116	0.187651
C35	C	0.313563	-0.245125	0.187655
N36	N	0.337052	-0.216437	0.216439
C37	C	0.313623	-0.187750	0.245227
C38	C	-0.113386	-0.245130	0.187683
C39	C	-0.160304	-0.245133	0.187687
C40	C	-0.160244	-0.187756	0.245262
C41	C	-0.113326	-0.187756	0.245259
C42	C	-0.089897	-0.216442	0.216467
C43	C	0.412148	-0.187755	0.245221
C44	C	0.459068	-0.187760	0.245218
C45	C	0.459005	-0.245135	0.187642
C46	C	0.412089	-0.245132	0.187647
C47	C	0.388662	-0.216438	0.216438
O48	O	0.337840	-0.269518	0.163195
O49	O	0.337915	-0.163349	0.269702
C50	C	0.125958	-0.187749	0.245236
C51	C	0.102472	-0.216434	0.216450
C52	C	0.125902	-0.245120	0.187662
C53	C	0.055554	-0.216436	0.216454
C54	C	0.032125	-0.187749	0.245242
C55	C	0.055614	-0.159061	0.274026
C56	C	0.102529	-0.159062	0.274025
C57	C	0.102413	-0.273808	0.158878
C58	C	0.055498	-0.273805	0.158883
C59	C	0.032068	-0.245119	0.187671
C60	C	0.649086	-0.333163	0.216409
C61	C	0.649098	-0.383098	0.216408
C62	C	0.677885	-0.692706	0.245226
C63	C	0.677933	-0.880379	0.245253
O64	O	0.702342	-0.904614	0.269728
N65	N	0.649231	-0.903883	0.216497
C66	C	0.620512	-0.880465	0.187734
O67	O	0.596096	-0.904763	0.163279
C68	C	0.620461	-0.692793	0.187709
C69	C	0.649169	-0.669292	0.216464
C70	C	0.706590	-0.669205	0.273979
C71	C	0.706579	-0.622290	0.273971
C72	C	0.677863	-0.598875	0.245209
C73	C	0.649158	-0.622377	0.216456
C74	C	0.591740	-0.669376	0.158949
C75	C	0.591729	-0.622455	0.158946
C76	C	0.620437	-0.598954	0.187701
C77	C	0.620431	-0.552047	0.187685
N78	N	0.649134	-0.528543	0.216441
C79	C	0.677850	-0.551957	0.245203
C80	C	0.620541	-0.978996	0.187748
C81	C	0.620554	-1.025914	0.187753
C82	C	0.677975	-1.025824	0.245274
C83	C	0.677964	-0.978906	0.245266
C84	C	0.649244	-0.955492	0.216504
C85	C	0.677826	-0.453432	0.245183
C86	C	0.677814	-0.406512	0.245170
C87	C	0.620391	-0.406605	0.187651
C88	C	0.620404	-0.453521	0.187662
C89	C	0.649123	-0.476933	0.216431
O90	O	0.596032	-0.527783	0.163227
O91	O	0.702255	-0.527652	0.269662
C92	C	0.677895	-0.739622	0.245235
C93	C	0.649190	-0.763123	0.216482
C94	C	0.620474	-0.739709	0.187720
C95	C	0.649203	-0.810041	0.216487
C96	C	0.677919	-0.833455	0.245249
C97	C	0.706622	-0.809951	0.274006
C98	C	0.706611	-0.763036	0.273997
C99	C	0.591772	-0.763212	0.158964
C100	C	0.591785	-0.810128	0.158974
C101	C	0.620501	-0.833542	0.187736
C102	C	0.766333	-0.216445	0.216467
C103	C	0.816267	-0.216446	0.216475
C104	C	0.649167	-0.216437	0.333625
C105	C	0.649172	-0.216435	0.383560
C106	C	0.649235	-0.099262	0.216495
C107	C	0.649270	-0.049328	0.216515
C108	C	0.649168	-0.216412	0.099725
C109	C	0.649250	-0.216288	0.049790
C110	C	0.677955	-0.187627	0.693223
C111	C	0.677978	-0.187589	0.880896
O112	O	0.702417	-0.163138	0.905177
N113	N	0.649231	-0.216315	0.904345
C114	C	0.620475	-0.245050	0.880873
O115	O	0.596022	-0.269479	0.905124
C116	C	0.620451	-0.245086	0.693201
C117	C	0.649202	-0.216361	0.669754
C118	C	0.706704	-0.158905	0.669776
C119	C	0.706700	-0.158916	0.622861
C120	C	0.677947	-0.187650	0.599392
C121	C	0.649198	-0.216373	0.622839
C122	C	0.591693	-0.273819	0.669730
C123	C	0.591689	-0.273824	0.622809
C124	C	0.620440	-0.245100	0.599362
C125	C	0.620441	-0.245119	0.552455
N126	N	0.649188	-0.216393	0.529005
C127	C	0.677941	-0.187659	0.552474
C128	C	0.620491	-0.245030	0.979404
C129	C	0.620497	-0.245022	1.026322
C130	C	0.677999	-0.187560	1.026341
C131	C	0.677994	-0.187571	0.979423
C132	C	0.649237	-0.216304	0.955955
C133	C	0.677930	-0.187685	0.453948
C134	C	0.677925	-0.187701	0.407029
C135	C	0.620421	-0.245161	0.407013
C136	C	0.620428	-0.245147	0.453929
C137	C	0.649184	-0.216406	0.477395
O138	O	0.596011	-0.269553	0.528144
O139	O	0.702383	-0.163226	0.528215
C140	C	0.677960	-0.187616	0.740138
C141	C	0.649211	-0.216338	0.763585
C142	C	0.620458	-0.245072	0.740116
C143	C	0.649217	-0.216330	0.810503
C144	C	0.677970	-0.187596	0.833972
C145	C	0.706717	-0.158870	0.810523
C146	C	0.706712	-0.158881	0.763607
C147	C	0.591711	-0.273798	0.763566
C148	C	0.591718	-0.273785	0.810481
C149	C	0.620471	-0.245050	0.833950
H150	H	0.262394	-0.135705	0.297462
H151	H	0.036379	-0.297170	0.135440
H152	H	0.177289	-0.135702	0.297464
O153	O	0.125217	-0.301700	0.130976
C154	C	0.152334	-0.330765	0.156497
H155	H	0.159390	-0.314970	0.190571
H156	H	0.185314	-0.336767	0.138182
H157	H	0.134225	-0.364061	0.161374
H158	H	-0.179329	-0.164398	0.268702
H159	H	0.701358	-1.044896	0.268692
O160	O	0.173391	-0.301611	0.130876
C161	C	0.146269	-0.275989	0.101903
H162	H	0.139262	-0.241970	0.117817
H163	H	0.113265	-0.294282	0.095843
H164	H	0.164346	-0.270997	0.068622
O165	O	0.563853	-0.301741	0.833273
C166	C	0.589408	-0.330748	0.860419
H167	H	0.624789	-0.333527	0.846291
H168	H	0.573135	-0.365321	0.860935
H169	H	0.590963	-0.316854	0.895982
O170	O	0.592705	-0.956205	0.159783
C171	C	0.618295	-0.929068	0.130780
H172	H	0.652326	-0.921993	0.146658
H173	H	0.599988	-0.896098	0.124732
H174	H	0.623264	-0.947167	0.097496
H175	H	0.701406	-0.164180	0.960335
H176	H	0.701340	-0.959774	0.268681
O177	O	0.734509	-0.599443	0.301843
C178	C	0.763534	-0.572281	0.276298
H179	H	0.766341	-0.586434	0.240918
H180	H	0.798094	-0.571712	0.292584
H181	H	0.749637	-0.536736	0.274735
O182	O	0.563765	-0.301754	0.740841
C183	C	0.538387	-0.327093	0.771604
H184	H	0.556794	-0.328637	0.805050
H185	H	0.533568	-0.362494	0.758044
H186	H	0.504280	-0.310639	0.776593
H187	H	0.701192	-0.387379	0.268586
H188	H	-0.094206	-0.164396	0.268701
O189	O	0.265947	-0.301607	0.130846
C190	C	0.293103	-0.275988	0.101885
H191	H	0.278990	-0.240599	0.099181
H192	H	0.293611	-0.292183	0.067279
H193	H	0.328668	-0.274465	0.115775
H194	H	0.597032	-0.472657	0.164244
O195	O	0.481812	-0.159849	0.273199
C196	C	0.451068	-0.134538	0.298615
H197	H	0.417620	-0.132955	0.280216
H198	H	0.464648	-0.099149	0.303476
H199	H	0.446077	-0.151041	0.332702
O200	O	0.734510	-0.691995	0.301858
C201	C	0.763562	-0.719110	0.276312
H202	H	0.747742	-0.726180	0.242254
H203	H	0.769588	-0.752083	0.294624
H204	H	0.796850	-0.700994	0.271401
O205	O	0.705763	-0.476100	0.273144
C206	C	0.731084	-0.445289	0.298527
H207	H	0.732643	-0.411857	0.280116
H208	H	0.766481	-0.458806	0.303361
H209	H	0.714604	-0.440289	0.332628
H210	H	0.597013	-0.268557	0.387896
O211	O	-0.183046	-0.273017	0.159683
C212	C	-0.152300	-0.298341	0.134282
H213	H	-0.118845	-0.279934	0.132763
H214	H	-0.165867	-0.303081	0.098876
H215	H	-0.147324	-0.332486	0.150666
O216	O	0.734579	-0.832679	0.301901
C217	C	0.779362	-0.821177	0.292140
H218	H	0.781660	-0.808299	0.256251
H219	H	0.801556	-0.852013	0.296039
H220	H	0.791081	-0.793920	0.316235
O221	O	-0.090582	-0.273023	0.159777
C222	C	-0.063462	-0.302087	0.185295
H223	H	-0.056404	-0.286292	0.219368
H224	H	-0.030483	-0.308086	0.166977
H225	H	-0.081567	-0.335384	0.190172
O226	O	0.563831	-0.832933	0.131087
C227	C	0.519050	-0.821486	0.140858
H228	H	0.516760	-0.808570	0.176745
H229	H	0.496859	-0.852359	0.136973
H230	H	0.507319	-0.794274	0.116759
O231	O	0.592734	-1.048761	0.159771
C232	C	0.618334	-1.075903	0.130788
H233	H	0.653716	-1.061736	0.128043
H234	H	0.602107	-1.076468	0.096200
H235	H	0.619879	-1.111452	0.144683
H236	H	0.729988	-0.743905	0.297412
O237	O	0.592539	-0.272986	0.956680
C238	C	0.567164	-0.298327	0.987443
H239	H	0.585574	-0.299874	1.020887
H240	H	0.562342	-0.333726	0.973881
H241	H	0.533057	-0.281872	0.992436
H242	H	0.701339	-0.164310	0.387940
O243	O	0.563808	-0.692129	0.131003
C244	C	0.538470	-0.661392	0.105615
H245	H	0.536902	-0.627940	0.124014
H246	H	0.503077	-0.674977	0.100793
H247	H	0.554941	-0.656407	0.071509
H248	H	0.568340	-0.603394	0.135526
O249	O	0.389342	-0.273016	0.159644
C250	C	0.420084	-0.298346	0.134245
H251	H	0.453542	-0.279944	0.132726
H252	H	0.406517	-0.303086	0.098840
H253	H	0.425054	-0.332491	0.150632
O254	O	0.734577	-0.130940	0.600114
C255	C	0.724787	-0.086169	0.611610
H256	H	0.688898	-0.083908	0.624497
H257	H	0.728671	-0.063968	0.580770
H258	H	0.748877	-0.074426	0.638860
H259	H	0.597012	-0.387534	0.164232
H260	H	0.568387	-0.744152	0.135543
H261	H	0.568280	-0.297209	0.688812
O262	O	0.481838	-0.272956	0.159692
C263	C	0.528284	-0.266808	0.165873
H264	H	0.534714	-0.232162	0.180659
H265	H	0.546105	-0.269798	0.132216
H266	H	0.541591	-0.293494	0.189742
O267	O	0.705907	-0.159754	0.476670
C268	C	0.731269	-0.134401	0.445906
H269	H	0.732803	-0.152813	0.412460
H270	H	0.766672	-0.129607	0.459464
H271	H	0.714843	-0.100281	0.440920
O272	O	0.734573	-0.130941	0.692588
C273	C	0.709027	-0.101920	0.719740
H274	H	0.673641	-0.099148	0.705604
H275	H	0.725300	-0.067348	0.720274
H276	H	0.707481	-0.115798	0.755297
H277	H	0.730130	-0.135475	0.829639
O278	O	0.125271	-0.131151	0.302003
C279	C	0.094523	-0.105843	0.327417
H280	H	0.061075	-0.104265	0.309017
H281	H	0.108098	-0.070452	0.332278
H282	H	0.089532	-0.122346	0.361504
H283	H	0.036529	-0.135705	0.297468
H284	H	0.701411	-0.164164	1.045458
H285	H	0.597090	-0.268417	1.045408
O286	O	0.563806	-0.301805	0.600030
C287	C	0.573591	-0.346576	0.611499
H288	H	0.609479	-0.348838	0.624405
H289	H	0.569707	-0.368780	0.580639
H290	H	0.549498	-0.358313	0.638724
O291	O	0.389346	-0.159947	0.273213
C292	C	0.362209	-0.185569	0.302189
H293	H	0.355147	-0.219589	0.286276
H294	H	0.329233	-0.167276	0.308253
H295	H	0.380302	-0.190561	0.335468
O296	O	0.592461	-0.273067	0.476638
C297	C	0.567093	-0.298441	0.445860
H298	H	0.565549	-0.280049	0.412418
H299	H	0.531693	-0.303229	0.459406
H300	H	0.583521	-0.332563	0.440869
O301	O	0.734654	-0.130934	0.740904
C302	C	0.760037	-0.105581	0.771687
H303	H	0.741637	-0.104023	0.805127
H304	H	0.764853	-0.070186	0.758145
H305	H	0.794146	-0.122033	0.776680
