data_functionalizedCrystal
_audit_creation_method	'MofGen! by Chris Wilmer'
_symmetry_space_group_name_H-M	'P1'
_symmetry_Int_Tables_number	1
_symmetry_cell_setting	triclinic
loop_
_symmetry_equiv_pos_as_xyz
  x,y,z
_cell_length_a	15.944551
_cell_length_b	16.176319
_cell_length_c	17.699083
_cell_angle_alpha	89.992304
_cell_angle_beta	83.390876
_cell_angle_gamma	89.997076
loop_
_atom_site_label
_atom_site_type_symbol
_atom_site_fract_x
_atom_site_fract_y
_atom_site_fract_z
O1	O	1.114322	-0.068662	0.097616
O2	O	0.869747	-0.068683	0.109651
O3	O	0.998945	-0.068665	-0.006544
O4	O	0.985125	-0.068680	0.213811
O5	O	0.998927	0.068829	-0.006551
O6	O	0.869729	0.068810	0.109643
O7	O	1.114304	0.068831	0.097609
Cu8	Cu	0.992015	0.081375	0.103625
Cu9	Cu	0.992036	-0.081227	0.103634
O10	O	0.985107	0.068813	0.213803
C11	C	0.838445	0.000061	0.109147
C12	C	0.745203	0.000054	0.107650
N13	N	0.992007	0.195740	0.103619
N14	N	0.992052	-0.195592	0.103635
C15	C	0.530505	0.000075	0.032046
C16	C	0.469420	-0.067719	0.067158
C17	C	0.574482	0.000063	0.104940
C18	C	0.469424	0.067839	0.067168
C19	C	0.409575	0.000077	0.102317
C20	C	0.514625	-0.067786	0.140071
C21	C	0.514636	0.067832	0.140071
C22	C	0.453569	0.000022	0.175235
C23	C	0.669481	0.000055	0.106449
C24	C	0.314577	0.000079	0.100814
C25	C	1.145606	0.000085	0.098112
C26	C	1.238849	0.000088	0.099610
C27	C	0.998440	0.000082	-0.034746
C28	C	0.996955	0.000082	-0.118766
C29	C	1.049232	0.239013	0.052189
C30	C	1.049237	0.325560	0.052188
C31	C	0.992019	0.368833	0.103621
C32	C	0.934787	0.325554	0.155054
C33	C	0.934779	0.239009	0.155050
C34	C	0.934815	0.674583	0.155068
C35	C	0.934829	0.761134	0.155069
C36	C	1.049273	0.761133	0.052205
C37	C	1.049265	0.674588	0.052202
C38	C	0.992031	0.631317	0.103631
C39	C	0.992026	0.537473	0.103631
C40	C	0.992027	0.462675	0.103626
C41	C	1.072791	0.000090	-0.167258
C42	C	1.071390	0.000083	-0.246203
C43	C	0.994152	0.000073	-0.276656
C44	C	0.918310	0.000063	-0.228158
C45	C	0.919712	0.000065	-0.149214
C46	C	0.912656	0.000056	-0.546531
C47	C	0.911260	0.000057	-0.625481
C48	C	1.064334	0.000074	-0.643520
C49	C	1.065735	0.000075	-0.564576
C50	C	0.989894	0.000061	-0.516085
C51	C	0.991414	0.000067	-0.430484
C52	C	0.992632	0.000073	-0.362256
C53	C	0.985611	0.000064	0.242005
C54	C	0.987097	0.000059	0.326026
H55	H	0.563965	-0.000005	-0.028449
O56	O	1.147769	-0.000012	-0.137589
C57	C	1.238222	-0.071262	-0.058961
C58	C	1.153271	-0.071236	-0.092493
H59	H	1.242705	-0.128849	-0.022506
H60	H	1.242713	-0.013760	-0.022410
H61	H	1.292169	-0.071220	-0.107195
H62	H	1.099275	-0.071307	-0.044307
H63	H	1.148853	-0.128733	-0.129064
O64	O	0.538484	-0.136155	0.176897
C65	C	0.605308	-0.189541	0.282133
C66	C	0.578350	-0.112046	0.240496
H67	H	0.637529	-0.170077	0.333570
H68	H	0.651089	-0.227575	0.241863
H69	H	0.547199	-0.228351	0.301819
H70	H	0.636407	-0.073173	0.220806
H71	H	0.532539	-0.074074	0.280793
O72	O	0.445563	-0.136028	0.030262
C73	C	0.458082	-0.213286	-0.086891
C74	C	0.485148	-0.135888	-0.045198
H75	H	0.490087	-0.213207	-0.147903
H76	H	0.386629	-0.212938	-0.087248
H77	H	0.477537	-0.271048	-0.056364
H78	H	0.465750	-0.078084	-0.075692
H79	H	0.556598	-0.136308	-0.044834
O80	O	0.879160	0.197100	0.205085
C81	C	0.765610	0.206229	0.307085
C82	C	0.828571	0.253792	0.250475
H83	H	0.724680	0.252044	0.343787
H84	H	0.801745	0.165719	0.344968
H85	H	0.723755	0.165701	0.274365
H86	H	0.870442	0.294364	0.283133
H87	H	0.792384	0.294250	0.212593
O88	O	1.145135	0.000132	-0.293200
C89	C	1.297117	0.000113	-0.302761
C90	C	1.213660	0.000076	-0.249452
H91	H	1.352541	0.000050	-0.267413
H92	H	1.300333	0.057667	-0.340166
H93	H	1.300256	-0.057415	-0.340180
H94	H	1.210465	0.057565	-0.211985
H95	H	1.210478	-0.057516	-0.212099
H96	H	0.449396	0.125151	0.036320
H97	H	1.128630	0.000087	-0.539786
H98	H	1.095834	0.360791	0.010309
H99	H	0.420283	-0.000021	0.235793
O100	O	0.538555	0.136288	0.176706
C101	C	0.542878	0.285142	0.179722
C102	C	0.515759	0.207677	0.138157
H103	H	0.524443	0.342880	0.148580
H104	H	0.614200	0.284208	0.180964
H105	H	0.510013	0.285683	0.240432
H106	H	0.548564	0.207086	0.077429
H107	H	0.444429	0.208642	0.136976
O108	O	1.104847	0.197109	0.002152
C109	C	1.218395	0.206252	-0.099850
C110	C	1.155445	0.253808	-0.043234
H111	H	1.259332	0.252073	-0.136549
H112	H	1.182252	0.165769	-0.137736
H113	H	1.260246	0.165699	-0.067136
H114	H	1.113579	0.294406	-0.075886
H115	H	1.191640	0.294239	-0.005348
O116	O	0.843354	0.000091	-0.257863
C117	C	0.773350	0.000037	-0.371483
C118	C	0.858298	0.000022	-0.337947
H119	H	0.785403	-0.000036	-0.436234
H120	H	0.735862	0.057588	-0.351572
H121	H	0.735891	-0.057494	-0.351461
H122	H	0.895826	0.057514	-0.357953
H123	H	0.895722	-0.057567	-0.357854
O124	O	1.137986	-0.000068	-0.690657
C125	C	1.225239	-0.071269	-0.790277
C126	C	1.141810	-0.071223	-0.736929
H127	H	1.228350	-0.128782	-0.827712
H128	H	1.280715	-0.071311	-0.754987
H129	H	1.228391	-0.013704	-0.827662
H130	H	1.138575	-0.128778	-0.699533
H131	H	1.086373	-0.071138	-0.772264
O132	O	1.104878	0.632681	0.002166
C133	C	1.218425	0.641817	-0.099838
C134	C	1.155478	0.689377	-0.043222
H135	H	1.259363	0.687634	-0.136539
H136	H	1.182279	0.601335	-0.137723
H137	H	1.260274	0.601262	-0.067124
H138	H	1.113614	0.729976	-0.075874
H139	H	1.191677	0.729806	-0.005338
O140	O	0.879150	0.632515	0.204928
C141	C	0.764439	0.534772	0.220989
C142	C	0.827416	0.582384	0.164433
H143	H	0.722608	0.494217	0.188271
H144	H	0.723489	0.580527	0.257746
H145	H	0.800646	0.494281	0.258827
H146	H	0.791278	0.622877	0.126545
H147	H	0.868367	0.536584	0.127729
O148	O	0.879157	0.803043	0.205058
C149	C	0.765661	0.793916	0.307108
C150	C	0.828645	0.746352	0.250530
H151	H	0.724817	0.748102	0.343897
H152	H	0.723725	0.834426	0.274439
H153	H	0.801861	0.834444	0.344911
H154	H	0.792514	0.705780	0.212713
H155	H	0.870580	0.705894	0.283246
O156	O	0.836153	0.000005	-0.654938
C157	C	0.684466	0.000022	-0.628719
C158	C	0.769458	0.000061	-0.595258
H159	H	0.630520	0.000085	-0.580484
H160	H	0.679943	-0.057533	-0.665196
H161	H	0.680017	0.057549	-0.665260
H162	H	0.773963	-0.057426	-0.558683
H163	H	0.773944	0.057654	-0.558824
O164	O	0.845967	0.000094	-0.102215
C165	C	0.693985	0.000021	-0.092649
C166	C	0.777440	0.000013	-0.145961
H167	H	0.638560	-0.000062	-0.127996
H168	H	0.690745	0.057573	-0.055256
H169	H	0.690873	-0.057509	-0.055219
H170	H	0.780608	0.057504	-0.183438
H171	H	0.780646	-0.057577	-0.183302
H172	H	1.095874	0.796374	0.010326
H173	H	0.888194	0.360793	0.196929
H174	H	0.850901	0.000045	-0.507059
