data_functionalizedCrystal
_audit_creation_method	'MofGen! by Chris Wilmer'
_symmetry_space_group_name_H-M	'P1'
_symmetry_Int_Tables_number	1
_symmetry_cell_setting	triclinic
loop_
_symmetry_equiv_pos_as_xyz
  x,y,z
_cell_length_a	27.731988
_cell_length_b	11.026607
_cell_length_c	10.065918
_cell_angle_alpha	97.653451
_cell_angle_beta	80.084145
_cell_angle_gamma	84.397811
loop_
_atom_site_label
_atom_site_type_symbol
_atom_site_fract_x
_atom_site_fract_y
_atom_site_fract_z
O1	O	-0.661569	0.159438	0.113101
O2	O	-0.522757	0.181443	0.113185
O3	O	-0.580658	-0.005990	0.113145
O4	O	-0.603668	0.346872	0.113141
O5	O	-0.565236	-0.037367	-0.113835
O6	O	-0.507334	0.150066	-0.113795
O7	O	-0.646147	0.128061	-0.113879
Zn8	Zn	-0.574292	0.134082	-0.149875
Zn9	Zn	-0.594611	0.175422	0.149181
O10	O	-0.588246	0.315494	-0.113839
C11	C	-0.496998	0.165306	-0.000294
C12	C	-0.443222	0.163954	-0.000261
C13	C	-0.568702	-0.066807	-0.000340
C14	C	-0.556049	-0.201275	-0.000328
C15	C	-0.067578	0.171215	0.123406
C16	C	-0.269704	0.176391	0.123440
O17	O	-0.302983	0.191557	0.228666
N18	N	-0.286576	0.159935	-0.000285
C19	C	-0.252913	0.142175	-0.124026
O20	O	-0.271901	0.128284	-0.229261
C21	C	-0.050788	0.136991	-0.124059
C22	C	-0.033919	0.153461	-0.000326
C23	C	-0.050709	0.187682	0.247128
C24	C	-0.000181	0.186395	0.247119
C25	C	0.033478	0.168640	0.123387
C26	C	0.016609	0.152173	-0.000336
C27	C	-0.017125	0.119223	-0.247799
C28	C	0.033408	0.117925	-0.247796
C29	C	0.050277	0.134395	-0.124063
C30	C	0.100796	0.133131	-0.124077
N31	N	0.117668	0.149587	-0.000353
C32	C	0.084009	0.167342	0.123379
C33	C	-0.359032	0.144901	-0.124001
C34	C	-0.409563	0.146199	-0.123993
C35	C	-0.426351	0.180413	0.123473
C36	C	-0.375819	0.179123	0.123464
C37	C	-0.342160	0.161357	-0.000276
C38	C	0.190123	0.164638	0.123350
C39	C	0.240656	0.163354	0.123329
C40	C	0.257439	0.129134	-0.124137
C41	C	0.206910	0.130424	-0.124117
C42	C	0.173253	0.148174	-0.000363
O43	O	0.134102	0.117958	-0.229249
O44	O	0.103008	0.181203	0.228598
C45	C	-0.118107	0.172503	0.123416
C46	C	-0.134976	0.156035	-0.000307
C47	C	-0.101317	0.138281	-0.124039
C48	C	-0.185507	0.157334	-0.000299
C49	C	-0.219166	0.175088	0.123433
C50	C	-0.202294	0.191545	0.247157
C51	C	-0.151766	0.190257	0.247148
C52	C	-0.118189	0.121825	-0.247763
C53	C	-0.168718	0.123115	-0.247744
C54	C	-0.202377	0.140869	-0.124011
C55	C	-0.590988	-0.275758	-0.000347
C56	C	-0.577911	-0.414738	-0.000334
C57	C	0.328094	0.144211	-0.000392
C58	C	0.274315	0.145599	-0.000403
C59	C	-0.600202	0.376312	-0.000350
C60	C	-0.612856	0.510781	-0.000353
N61	N	-0.560428	0.105867	-0.353972
C62	C	-0.589785	0.165606	-0.421768
C63	C	-0.579118	0.143880	-0.578929
N64	N	-0.608478	0.203628	0.353279
H65	H	0.254387	0.176770	0.224091
H66	H	-0.630582	-0.236634	-0.000379
H67	H	-0.527399	0.038634	-0.412281
H68	H	0.193175	0.117037	-0.224870
H69	H	-0.229708	0.206008	0.347905
H70	H	-0.516454	-0.240399	-0.000295
H71	H	-0.622816	0.232830	-0.363459
H72	H	0.284853	0.114684	-0.224876
H73	H	-0.641512	0.270859	-0.588419
H74	H	0.162724	0.179093	0.224122
H75	H	-0.538314	-0.453855	-0.000301
H76	H	-0.182447	0.109712	-0.348509
H77	H	0.013548	0.199801	0.347875
H78	H	-0.546086	0.076642	-0.637232
H79	H	-0.078110	0.202137	0.347892
H80	H	-0.090788	0.107360	-0.348523
H81	H	-0.453765	0.194873	0.224221
H82	H	-0.652460	-0.450088	-0.000275
H83	H	-0.362089	0.192534	0.224218
H84	H	-0.331630	0.130429	-0.224771
H85	H	-0.423293	0.132807	-0.224749
H86	H	-0.030850	0.105807	-0.348555
H87	H	0.060812	0.103468	-0.348563
H88	H	-0.138037	0.203668	0.347904
