data_functionalizedCrystal
_audit_creation_method	'MofGen! by Chris Wilmer'
_symmetry_space_group_name_H-M	'P1'
_symmetry_Int_Tables_number	1
_symmetry_cell_setting	triclinic
loop_
_symmetry_equiv_pos_as_xyz
  x,y,z
_cell_length_a	13.262390
_cell_length_b	13.339070
_cell_length_c	17.766277
_cell_angle_alpha	89.997794
_cell_angle_beta	74.073354
_cell_angle_gamma	99.429367
loop_
_atom_site_label
_atom_site_type_symbol
_atom_site_fract_x
_atom_site_fract_y
_atom_site_fract_z
O1	O	1.432477	0.136439	-0.355856
O2	O	1.131200	0.151270	-0.294178
O3	O	1.247262	-0.003555	-0.317936
O4	O	1.316416	0.291264	-0.332098
O5	O	1.247231	-0.003563	-0.192741
O6	O	1.131169	0.151262	-0.168983
O7	O	1.432447	0.136431	-0.230661
Cu8	Cu	1.281805	0.143846	-0.188391
Cu9	Cu	1.281841	0.143855	-0.336448
O10	O	1.316385	0.291256	-0.206903
C11	C	1.091836	0.150435	-0.223525
C12	C	0.974588	0.147944	-0.199522
C13	C	0.644156	0.140929	-0.404847
C14	C	0.754316	0.143264	-0.427400
C15	C	0.809390	0.144434	-0.370432
C16	C	0.754292	0.143269	-0.290908
C17	C	0.644121	0.140926	-0.268352
C18	C	0.809354	0.144432	-0.233938
C19	C	0.754257	0.143267	-0.154413
C20	C	0.644096	0.140925	-0.131861
C21	C	0.589023	0.139754	-0.188829
C22	C	0.919526	0.146775	-0.256493
C23	C	0.919490	0.146772	-0.119999
C24	C	0.809330	0.144437	-0.097446
C25	C	1.235565	-0.041297	-0.252948
C26	C	1.200745	-0.153746	-0.245823
C27	C	1.471484	-0.517397	-0.301249
C28	C	1.504202	-0.411746	-0.307940
C29	C	1.428341	-0.347241	-0.292411
C30	C	1.319756	-0.388397	-0.270190
C31	C	1.287034	-0.494058	-0.263493
C32	C	1.243891	-0.323902	-0.254655
C33	C	1.135306	-0.365058	-0.232434
C34	C	1.102590	-0.470709	-0.225738
C35	C	1.178451	-0.535214	-0.241267
C36	C	1.276612	-0.218241	-0.261353
C37	C	1.092162	-0.194902	-0.223597
C38	C	1.059444	-0.300553	-0.216906
C39	C	1.471810	0.137266	-0.301315
C40	C	1.589058	0.139757	-0.325324
C41	C	1.328082	0.328998	-0.271892
C42	C	1.362901	0.441447	-0.279023
N43	N	1.281787	0.143838	-0.084257
N44	N	1.281865	0.143855	-0.440583
C45	C	1.333212	0.075316	-0.055397
C46	C	1.333217	0.075311	0.023404
C47	C	1.281812	0.143847	0.073339
C48	C	1.230374	0.212374	0.044472
C49	C	1.230362	0.212370	-0.034326
C50	C	1.294907	0.236034	0.195494
C51	C	1.294927	0.236040	0.274289
C52	C	1.281843	0.143859	0.316379
C53	C	1.268761	0.051669	0.279659
C54	C	1.268749	0.051665	0.200861
C55	C	1.281819	0.143858	0.158783
C56	C	1.333276	0.075326	0.430683
C57	C	1.333273	0.075320	0.509487
C58	C	1.230438	0.212392	0.530551
C59	C	1.230433	0.212389	0.451751
C60	C	1.281858	0.143857	0.401820
H61	H	0.899087	0.146336	-0.388800
C62	C	1.254359	-0.049735	0.325948
H63	H	1.256225	-0.036534	0.378139
H64	H	1.310127	-0.085542	0.301612
H65	H	1.187825	-0.089681	0.326665
H66	H	1.151817	-0.621244	-0.235823
C67	C	1.396044	-0.172976	-0.285796
H68	H	1.404672	-0.100814	-0.287556
H69	H	1.428590	-0.195084	-0.336113
H70	H	1.428555	-0.195094	-0.248788
H71	H	0.799168	0.144207	-0.492149
H72	H	0.599304	0.139966	-0.451221
H73	H	1.305586	0.311106	0.304179
H74	H	0.964375	0.147725	-0.321243
H75	H	1.188563	0.268191	0.428250
C76	C	0.748721	0.143186	-0.009975
H77	H	0.675225	0.141628	-0.004705
H78	H	0.775959	0.202574	0.012471
H79	H	0.757575	0.084578	0.016272
C80	C	1.554922	-0.588346	-0.318325
H81	H	1.624277	-0.548707	-0.332516
H82	H	1.546003	-0.630047	-0.360154
H83	H	1.545973	-0.630047	-0.272830
C84	C	0.467846	0.137187	-0.164018
H85	H	0.442917	0.136663	-0.108498
H86	H	0.433748	0.077669	-0.182242
H87	H	0.452117	0.195665	-0.186001
H88	H	0.964330	0.147724	-0.073611
H89	H	1.454987	-0.261216	-0.297860
C90	C	0.583554	0.140072	-0.044403
H91	H	0.510076	0.138633	-0.039134
H92	H	0.610965	0.199584	-0.022185
H93	H	0.592277	0.081583	-0.017940
C94	C	1.623634	-0.366481	-0.332389
H95	H	1.664129	-0.420027	-0.340686
H96	H	1.640224	-0.325754	-0.292130
H97	H	1.640239	-0.325748	-0.379450
C98	C	0.983151	-0.515978	-0.201290
H99	H	0.942655	-0.462433	-0.193007
H100	H	0.966539	-0.556715	-0.154235
H101	H	0.966569	-0.556703	-0.241558
C102	C	0.940006	-0.345827	-0.192463
H103	H	0.899506	-0.292285	-0.184179
H104	H	0.923392	-0.386568	-0.145409
H105	H	0.923432	-0.386549	-0.232735
C106	C	1.008709	-0.123957	-0.206521
H107	H	1.043747	-0.055139	-0.213701
H108	H	0.965437	-0.136476	-0.154009
H109	H	0.965472	-0.136475	-0.241333
H110	H	1.375082	0.019511	-0.096048
C111	C	1.389789	-0.000065	0.055159
H112	H	1.420417	-0.040876	0.014135
H113	H	1.339712	-0.042408	0.096164
H114	H	1.444158	0.036596	0.074754
H115	H	1.258094	-0.023399	0.170968
C116	C	1.389826	-0.000065	0.375760
H117	H	1.420440	-0.040888	0.404240
H118	H	1.444185	0.036576	0.333880
H119	H	1.339726	-0.042411	0.355288
H120	H	1.375145	0.019515	0.532985
H121	H	1.188577	0.268191	0.571209
H122	H	1.305544	0.311103	0.161235
C123	C	1.173834	0.287764	0.099395
H124	H	1.181216	0.277961	0.150456
H125	H	1.100482	0.276430	0.101515
H126	H	1.204938	0.355421	0.080102
H127	H	1.188484	0.268171	-0.057823
