data_functionalizedCrystal
_audit_creation_method	'MofGen! by Chris Wilmer'
_symmetry_space_group_name_H-M	'P1'
_symmetry_Int_Tables_number	1
_symmetry_cell_setting	triclinic
loop_
_symmetry_equiv_pos_as_xyz
  x,y,z
_cell_length_a	12.759399
_cell_length_b	21.395364
_cell_length_c	21.395355
_cell_angle_alpha	89.974702
_cell_angle_beta	90.014263
_cell_angle_gamma	89.968183
loop_
_atom_site_label
_atom_site_type_symbol
_atom_site_fract_x
_atom_site_fract_y
_atom_site_fract_z
Zn1	Zn	-0.417920	-0.957927	0.354292
Zn2	Zn	0.082080	-0.457927	0.854292
Zn3	Zn	-0.593584	-0.957858	0.249523
Zn4	Zn	-0.093584	-0.457858	0.749523
Zn5	Zn	-0.417971	-0.853142	0.249528
Zn6	Zn	0.082029	-0.353142	0.749528
Zn7	Zn	-0.593608	-0.853140	0.354262
Zn8	Zn	-0.093608	-0.353140	0.854262
O9	O	-0.505771	-0.905517	0.301901
O10	O	-0.005771	-0.405517	0.801901
O11	O	-0.441190	-1.045596	0.340405
O12	O	0.058810	-0.545596	0.840405
O13	O	-0.570300	-0.943939	0.161846
O14	O	-0.070300	-0.443939	0.661846
O15	O	-0.270943	-0.867072	0.263440
O16	O	0.229057	-0.367072	0.763440
O17	O	-0.570250	-1.045545	0.263432
O18	O	-0.070250	-0.545545	0.763432
O19	O	-0.270906	-0.944057	0.340410
O20	O	0.229094	-0.444057	0.840410
O21	O	-0.441278	-0.867005	0.161849
O22	O	0.058722	-0.367005	0.661849
O23	O	-0.441301	-0.765464	0.263410
O24	O	0.058699	-0.265464	0.763410
O25	O	-0.570292	-0.867068	0.441944
O26	O	-0.070292	-0.367068	0.941944
O27	O	-0.570341	-0.765462	0.340358
O28	O	-0.070341	-0.265462	0.840358
O29	O	-0.441214	-0.944055	0.441966
O30	O	0.058786	-0.444055	0.941966
O31	O	-0.740609	-0.943937	0.263402
O32	O	-0.240609	-0.443937	0.763402
O33	O	-0.740626	-0.867001	0.340353
O34	O	-0.240626	-0.367001	0.840353
C35	C	-0.505830	-0.742729	0.301881
C36	C	-0.005830	-0.242729	0.801881
C37	C	-0.505881	-0.673088	0.301888
C38	C	-0.005881	-0.173088	0.801888
C39	C	-0.438791	-0.640423	0.342030
C40	C	0.061209	-0.140423	0.842030
C41	C	-0.438767	-0.574988	0.342031
C42	C	0.061233	-0.074988	0.842031
C43	C	-0.505851	-0.542220	0.301898
C44	C	-0.005851	-0.042220	0.801898
C45	C	-0.572945	-0.574892	0.261748
C46	C	-0.072945	-0.074892	0.761748
C47	C	-0.572960	-0.640326	0.261743
C48	C	-0.072960	-0.140326	0.761743
C49	C	-0.600471	-0.438511	0.296863
C50	C	-0.100471	0.061489	0.796863
C51	C	-0.600457	-0.373078	0.296872
C52	C	-0.100457	0.126922	0.796872
C53	C	-0.505803	-0.340399	0.301909
C54	C	-0.005803	0.159601	0.801909
C55	C	-0.411160	-0.373161	0.306950
C56	C	0.088840	0.126839	0.806950
C57	C	-0.411175	-0.438595	0.306945
C58	C	0.088825	0.061405	0.806945
C59	C	-0.505841	-0.471267	0.301898
C60	C	-0.005841	0.028733	0.801898
C61	C	-0.438681	-0.236782	0.342055
C62	C	0.061319	0.263218	0.842055
C63	C	-0.438655	-0.171345	0.342052
C64	C	0.061345	0.328655	0.842052
C65	C	-0.572843	-0.171250	0.261772
C66	C	-0.072843	0.328750	0.761772
C67	C	-0.572860	-0.236686	0.261771
C68	C	-0.072860	0.263314	0.761771
C69	C	-0.505780	-0.269448	0.301916
C70	C	-0.005780	0.230552	0.801916
C71	C	-0.778738	-0.905478	0.301887
C72	C	-0.278738	-0.405478	0.801887
C73	C	-0.895515	-0.905519	0.301902
C74	C	-0.395515	-0.405519	0.801902
C75	C	-0.950333	-0.945626	0.261879
C76	C	-0.450333	-0.445626	0.761879
C77	C	-1.060057	-0.945666	0.261900
C78	C	-0.560057	-0.445666	0.761900
C79	C	-1.060135	-0.865488	0.341968
C80	C	-0.560135	-0.365488	0.841968
C81	C	-0.950413	-0.865451	0.341950
C82	C	-0.450413	-0.365451	0.841950
C83	C	-1.209889	-1.019619	0.239607
C84	C	-0.709889	-0.519619	0.739607
C85	C	-1.264710	-1.059720	0.199574
C86	C	-0.764710	-0.559720	0.699574
C87	C	-1.229135	-1.069357	0.138441
C88	C	-0.729135	-0.569357	0.638441
C89	C	-1.138741	-1.038884	0.117329
C90	C	-0.638741	-0.538884	0.617329
C91	C	-1.083925	-0.998778	0.157358
C92	C	-0.583925	-0.498778	0.657358
C93	C	-1.119498	-0.989153	0.218499
C94	C	-0.619498	-0.489153	0.718499
C95	C	-0.800580	-0.791497	0.364237
C96	C	-0.300580	-0.291497	0.864237
C97	C	-0.745762	-0.751388	0.404264
C98	C	-0.245762	-0.251388	0.904264
C99	C	-0.781334	-0.741745	0.465397
C100	C	-0.281334	-0.241745	0.965397
C101	C	-0.871732	-0.772207	0.486508
C102	C	-0.371732	-0.272207	0.986508
C103	C	-0.926550	-0.812316	0.446481
C104	C	-0.426550	-0.312316	0.946481
C105	C	-0.890970	-0.821960	0.385348
C106	C	-0.390970	-0.321960	0.885348
C107	C	-0.231738	-0.905572	0.301929
C108	C	0.268262	-0.405572	0.801929
C109	C	-0.114961	-0.905596	0.301941
C110	C	0.385039	-0.405596	0.801941
C111	C	-0.505750	-0.905569	0.465325
C112	C	-0.005750	-0.405569	0.965325
C113	C	-0.505741	-0.905591	0.534966
C114	C	-0.005741	-0.405591	1.034966
C115	C	-0.505725	-0.068940	0.301918
C116	C	-0.005725	0.431060	0.801918
C117	C	-0.505738	-0.138581	0.301917
C118	C	-0.005738	0.361419	0.801917
C119	C	-0.505716	-0.905501	0.139114
C120	C	-0.005716	-0.405501	0.639114
C121	C	-0.505429	-0.905600	0.069473
C122	C	-0.005429	-0.405600	0.569473
C123	C	-0.438527	-0.945676	0.567692
C124	C	0.061473	-0.445676	1.067692
C125	C	-0.438482	-0.945675	0.633127
C126	C	0.061518	-0.445675	1.133127
C127	C	-0.505669	-0.905596	0.665834
C128	C	-0.005669	-0.405596	1.165834
C129	C	-0.572887	-0.865503	0.633100
C130	C	-0.072887	-0.365503	1.133100
C131	C	-0.572923	-0.865500	0.567666
C132	C	-0.072923	-0.365500	1.067666
C133	C	-0.600270	-0.900635	0.769504
C134	C	-0.100270	-0.400635	1.269504
C135	C	-0.600236	-0.900642	0.834937
C136	C	-0.100236	-0.400642	1.334937
C137	C	-0.505558	-0.905600	0.867655
C138	C	-0.005558	-0.405600	1.367655
C139	C	-0.410911	-0.910564	0.834932
C140	C	0.089089	-0.410564	1.334932
C141	C	-0.410947	-0.910561	0.769498
C142	C	0.089053	-0.410561	1.269498
C143	C	-0.505637	-0.905594	0.736787
C144	C	-0.005637	-0.405594	1.236787
C145	C	-0.438290	-0.945686	0.971334
C146	C	0.061710	-0.445686	1.471334
C147	C	-0.438243	-0.945681	1.036770
C148	C	0.061757	-0.445681	1.536770
C149	C	-0.572658	-0.865512	1.036742
C150	C	-0.072658	-0.365512	1.536742
C151	C	-0.572695	-0.865513	0.971307
C152	C	-0.072695	-0.365513	1.471307
C153	C	-0.505513	-0.905604	0.938606
C154	C	-0.005513	-0.405604	1.438606
H155	H	-0.677522	-0.346408	0.292771
H156	H	-0.177522	0.153592	0.792771
C157	C	-0.364379	-0.989781	0.935361
C158	C	0.135621	-0.489781	1.435361
N159	N	-0.308707	-1.022992	0.908268
N160	N	0.191293	-0.522992	1.408268
C161	C	-0.910865	-0.761600	0.553759
C162	C	-0.410865	-0.261600	1.053759
N163	N	-0.940337	-0.753608	0.604414
N164	N	-0.440337	-0.253608	1.104414
H165	H	-0.905637	-0.978252	0.229270
H166	H	-0.405637	-0.478252	0.729270
C167	C	-0.646635	-0.135209	0.217623
C168	C	-0.146635	0.364791	0.717623
N169	N	-0.702217	-0.108059	0.184369
N170	N	-0.202217	0.391941	0.684369
H171	H	-0.383820	-0.978320	0.541071
H172	H	0.116180	-0.478320	1.041071
H173	H	-0.333815	-0.914602	0.861570
H174	H	0.166185	-0.414602	1.361570
C175	C	-0.307031	-0.337219	0.312485
C176	C	0.192969	0.162781	0.812485
N177	N	-0.228603	-0.310145	0.316652
N178	N	0.271397	0.189855	0.816652
C179	C	-0.306836	-0.916013	0.733505
C180	C	0.193164	-0.416013	1.233505
N181	N	-0.228417	-0.920115	0.706396
N182	N	0.271583	-0.420115	1.206396
C183	C	-0.646673	-0.272618	0.217617
C184	C	-0.146673	0.227382	0.717617
N185	N	-0.702272	-0.299682	0.184356
N186	N	-0.202272	0.200318	0.684356
H187	H	-1.273778	-1.102009	0.105846
H188	H	-0.773778	-0.602009	0.605846
C189	C	-1.364145	-1.093236	0.222799
C190	C	-0.864145	-0.593236	0.722799
N191	N	-1.439043	-1.118478	0.240288
N192	N	-0.939043	-0.618478	0.740288
H193	H	-0.677304	-0.896604	0.861575
H194	H	-0.177304	-0.396604	1.361575
C195	C	-0.646329	-0.717872	0.381036
C196	C	-0.146329	-0.217872	0.881036
N197	N	-0.571438	-0.692628	0.363542
N198	N	-0.071438	-0.192628	0.863542
H199	H	-0.736692	-0.709082	0.497986
H200	H	-0.236692	-0.209082	0.997986
H201	H	-0.384129	-0.548388	0.374719
H202	H	0.115871	-0.048388	0.874719
C203	C	-0.364545	-0.989778	0.669133
C204	C	0.135455	-0.489778	1.169133
N205	N	-0.308858	-1.022998	0.696251
N206	N	0.191142	-0.522998	1.196251
H207	H	-0.384016	-0.144751	0.374739
H208	H	0.115984	0.355249	0.874739
H209	H	-0.334113	-0.465268	0.311047
H210	H	0.165887	0.034732	0.811047
H211	H	-1.010326	-0.973969	0.140169
H212	H	-0.510326	-0.473969	0.640169
C213	C	-0.646789	-0.821412	0.669079
C214	C	-0.146789	-0.321412	1.169079
N215	N	-0.702450	-0.788200	0.696179
N216	N	-0.202450	-0.288200	1.196179
C217	C	-0.761441	-0.802103	0.296985
C218	C	-0.261441	-0.302103	0.796985
N219	N	-0.731963	-0.810087	0.246331
N220	N	-0.231963	-0.310087	0.746331
C221	C	-0.364884	-0.272822	0.386208
C222	C	0.135116	0.227178	0.886208
N223	N	-0.309297	-0.299966	0.419465
N224	N	0.190703	0.200034	0.919465
C225	C	-1.249026	-1.009025	0.306858
C226	C	-0.749026	-0.509025	0.806858
N227	N	-1.278511	-1.001044	0.357511
N228	N	-0.778511	-0.501044	0.857511
C229	C	-1.099606	-1.049495	0.050079
C230	C	-0.599606	-0.549495	0.550079
N231	N	-1.070121	-1.057493	-0.000571
N232	N	-0.570121	-0.557493	0.499429
C233	C	-0.364296	-0.989779	1.072769
C234	C	0.135704	-0.489779	1.572769
N235	N	-0.308600	-1.022996	1.099883
N236	N	0.191400	-0.522996	1.599883
C237	C	-0.646566	-0.821424	1.072716
C238	C	-0.146566	-0.321424	1.572716
N239	N	-0.702234	-0.788215	1.099815
N240	N	-0.202234	-0.288215	1.599815
C241	C	-1.120534	-0.821409	0.386012
C242	C	-0.620534	-0.321409	0.886012
N243	N	-1.166025	-0.788204	0.419184
N244	N	-0.666025	-0.288204	0.919184
H245	H	-0.627595	-0.666921	0.229054
H246	H	-0.127595	-0.166921	0.729054
H247	H	-0.384169	-0.667094	0.374718
H248	H	0.115831	-0.167094	0.874718
H249	H	-1.000154	-0.837122	0.463675
H250	H	-0.500154	-0.337122	0.963675
H251	H	-0.627434	-0.832875	0.944661
H252	H	-0.127434	-0.332875	1.444661
C253	C	-0.704433	-0.895193	0.733520
C254	C	-0.204433	-0.395193	1.233520
N255	N	-0.782886	-0.891099	0.706419
N256	N	-0.282886	-0.391099	1.206419
C257	C	-0.646869	-0.821403	0.531667
C258	C	-0.146869	-0.321403	1.031667
N259	N	-0.702568	-0.788189	0.504551
N260	N	-0.202568	-0.288189	1.004551
H261	H	-0.677555	-0.465112	0.292761
H262	H	-0.177555	0.034888	0.792761
H263	H	-0.627565	-0.548207	0.229070
H264	H	-0.127565	-0.048207	0.729070
