data_functionalizedCrystal
_audit_creation_method	'MofGen! by Chris Wilmer'
_symmetry_space_group_name_H-M	'P1'
_symmetry_Int_Tables_number	1
_symmetry_cell_setting	triclinic
loop_
_symmetry_equiv_pos_as_xyz
  x,y,z
_cell_length_a	17.699104
_cell_length_b	17.699083
_cell_length_c	12.376457
_cell_angle_alpha	78.736074
_cell_angle_beta	101.253092
_cell_angle_gamma	83.287266
loop_
_atom_site_label
_atom_site_type_symbol
_atom_site_fract_x
_atom_site_fract_y
_atom_site_fract_z
O1	O	0.081201	1.018599	-0.093846
O2	O	0.581201	1.518599	0.406154
O3	O	0.093648	0.798227	-0.093884
O4	O	0.593648	1.298227	0.406116
O5	O	-0.022762	0.914629	-0.093854
O6	O	0.477238	1.414629	0.406146
O7	O	0.197611	0.902197	-0.093876
O8	O	0.697611	1.402197	0.406124
O9	O	0.006301	0.885539	0.094151
O10	O	0.506301	1.385539	0.594151
O11	O	0.122711	0.769137	0.094121
O12	O	0.622711	1.269137	0.594121
O13	O	0.110264	0.989509	0.094159
O14	O	0.610264	1.489509	0.594159
Zn15	Zn	0.121102	0.874704	0.123990
Zn16	Zn	0.621102	1.374704	0.623990
Zn17	Zn	0.082810	0.913032	-0.123715
Zn18	Zn	0.582810	1.413032	0.376285
O19	O	0.226674	0.873107	0.094129
O20	O	0.726674	1.373107	0.594129
C21	C	0.107732	0.755486	0.000114
C22	C	0.607732	1.255486	0.500114
C23	C	0.106392	0.671470	0.000100
C24	C	0.606392	1.171470	0.500100
C25	C	-0.036427	0.899636	0.000149
C26	C	0.463573	1.399636	0.500149
C27	C	-0.120444	0.898291	0.000149
C28	C	0.379556	1.398291	0.500149
C29	C	0.174723	0.622855	0.000094
C30	C	0.674723	1.122855	0.500094
C31	C	0.173463	0.543909	0.000108
C32	C	0.673463	1.043909	0.500108
C33	C	0.103870	0.513581	0.000122
C34	C	0.603870	1.013581	0.500122
C35	C	0.035533	0.562202	0.000132
C36	C	0.535533	1.062202	0.500132
C37	C	0.036795	0.641145	0.000125
C38	C	0.536795	1.141145	0.500125
C39	C	0.030442	0.243834	0.000160
C40	C	0.530442	0.743834	0.500160
C41	C	0.029185	0.164885	0.000163
C42	C	0.529185	0.664885	0.500163
C43	C	0.167110	0.146599	0.000144
C44	C	0.667110	0.646599	0.500144
C45	C	0.168372	0.225541	0.000137
C46	C	0.668372	0.725541	0.500137
C47	C	0.100037	0.274154	0.000153
C48	C	0.600037	0.774154	0.500153
C49	C	0.101405	0.359755	0.000139
C50	C	0.601405	0.859755	0.500139
C51	C	0.102500	0.427983	0.000127
C52	C	0.602500	0.927983	0.500127
C53	C	-0.645319	0.959038	0.000127
C54	C	-0.145319	1.459038	0.500127
C55	C	-0.566373	0.960296	0.000137
C56	C	-0.066373	1.460296	0.500137
C57	C	-0.517757	0.891962	0.000128
C58	C	-0.017757	1.391962	0.500128
C59	C	-0.548088	0.822364	0.000121
C60	C	-0.048088	1.322364	0.500121
C61	C	-0.627031	0.821106	0.000118
C62	C	-0.127031	1.321106	0.500118
C63	C	-0.229721	0.827436	0.000131
C64	C	0.270279	1.327436	0.500131
C65	C	-0.150774	0.828700	0.000130
C66	C	0.349226	1.328700	0.500130
C67	C	-0.169063	0.966625	0.000150
C68	C	0.330937	1.466625	0.500150
C69	C	-0.248006	0.965367	0.000148
C70	C	0.251994	1.465367	0.500148
C71	C	-0.278329	0.895769	0.000146
C72	C	0.221671	1.395769	0.500146
C73	C	-0.363930	0.894406	0.000137
C74	C	0.136070	1.394406	0.500137
C75	C	-0.432159	0.893325	0.000129
C76	C	0.067841	1.393325	0.500129
C77	C	0.240339	0.888100	0.000124
C78	C	0.740339	1.388100	0.500124
C79	C	0.324355	0.889446	0.000116
C80	C	0.824355	1.389446	0.500116
C81	C	0.096179	1.032250	0.000158
C82	C	0.596179	1.532250	0.500158
C83	C	0.097519	1.116268	0.000165
C84	C	0.597519	1.616268	0.500165
N85	N	0.147234	0.848552	0.293041
N86	N	0.647234	1.348552	0.793041
N87	N	0.056672	0.939190	-0.292766
N88	N	0.556672	1.439190	0.207234
C89	C	-0.004005	0.999897	0.648065
C90	C	0.495995	1.499897	1.148065
C91	C	-0.022295	1.018196	0.529730
C92	C	0.477705	1.518196	1.029730
C93	C	0.020085	0.975787	0.470552
C94	C	0.520085	1.475787	0.970552
C95	C	0.080760	0.915075	0.529721
C96	C	0.580760	1.415075	1.029721
C97	C	0.099056	0.896777	0.648067
C98	C	0.599056	1.396777	1.148067
C99	C	0.123146	0.872667	0.470554
C100	C	0.623146	1.372667	0.970554
C101	C	0.183820	0.811955	0.529723
C102	C	0.683820	1.311955	1.029723
C103	C	0.202113	0.793661	0.648058
C104	C	0.702113	1.293661	1.148058
C105	C	0.159733	0.836070	0.707236
C106	C	0.659733	1.336070	1.207236
C107	C	0.104850	0.890965	0.352208
C108	C	0.604850	1.390965	0.852208
C109	C	0.207911	0.787845	0.352210
C110	C	0.707911	1.287845	0.852210
C111	C	0.226201	0.769546	0.470545
C112	C	0.726201	1.269546	0.970545
H113	H	0.231394	0.647541	0.000082
H114	H	0.731394	1.147541	0.500082
O115	O	0.267573	0.728191	0.711854
O116	O	0.767573	1.228191	1.211854
H117	H	0.244115	0.683119	0.765793
H118	H	0.744115	1.183119	1.265793
O119	O	0.039398	0.956432	0.288410
O120	O	0.539398	1.456432	0.788410
H121	H	-0.005677	0.932966	0.234509
H122	H	0.494323	1.432966	0.734509
H123	H	0.005191	0.990689	0.374198
H124	H	0.505191	1.490689	0.874198
H125	H	0.242423	0.753313	0.304028
H126	H	0.742423	1.253313	0.804028
H127	H	0.275604	0.720113	0.518735
H128	H	0.775604	1.220113	1.018735
H129	H	-0.254402	0.770767	0.000116
H130	H	0.245598	1.270767	0.500116
O131	O	-0.045879	0.132170	0.000199
O132	O	0.454121	0.632170	0.500199
H133	H	-0.090563	0.163558	-0.076412
H134	H	0.409437	0.663558	0.423588
H135	H	-0.025200	0.283405	0.000174
H136	H	0.474800	0.783405	0.500174
H137	H	-0.508498	0.766725	0.000120
H138	H	-0.008498	1.266725	0.500120
O139	O	0.240824	0.094164	0.000151
O140	O	0.740824	0.594164	0.500151
H141	H	0.228262	0.034171	0.000175
H142	H	0.728262	0.534171	0.500175
H143	H	0.229106	0.504330	0.000102
H144	H	0.729106	1.004330	0.500102
O145	O	-0.659743	0.746045	0.000116
O146	O	-0.159743	1.246045	0.500116
H147	H	-0.707121	0.754026	-0.076505
H148	H	-0.207121	1.254026	0.423495
H149	H	-0.111191	0.773050	0.000125
H150	H	0.388809	1.273050	0.500125
O151	O	-0.533665	1.035359	0.000124
O152	O	-0.033665	1.535359	0.500124
H153	H	-0.580736	1.082667	0.000107
H154	H	-0.080736	1.582667	0.500107
H155	H	0.174622	0.821169	0.803595
H156	H	0.674622	1.321169	1.303595
H157	H	0.225042	0.250230	0.000121
H158	H	0.725042	0.750230	0.500121
O159	O	-0.039531	0.529496	0.000150
O160	O	0.460469	1.029496	0.500150
H161	H	-0.028932	0.466436	0.000143
H162	H	0.471068	0.966436	0.500143
H163	H	-0.684899	1.014685	0.000125
H164	H	-0.184899	1.514685	0.500125
O165	O	-0.036905	0.693586	0.000129
O166	O	0.463095	1.193586	0.500129
H167	H	-0.085512	0.659238	0.000129
H168	H	0.414488	1.159238	0.500129
H169	H	-0.287587	1.021013	0.000149
H170	H	0.212413	1.521013	0.500149
H171	H	-0.144367	1.023298	0.000137
H172	H	0.355633	1.523298	0.500137
O173	O	-0.087738	1.083667	0.465911
O174	O	0.412262	1.583667	0.965911
H175	H	-0.114141	1.110077	0.526939
H176	H	0.385859	1.610077	1.026939
H177	H	-0.038502	1.034425	0.696255
H178	H	0.461498	1.534425	1.196255
