data_functionalizedCrystal
_audit_creation_method	'MofGen! by Chris Wilmer'
_symmetry_space_group_name_H-M	'P1'
_symmetry_Int_Tables_number	1
_symmetry_cell_setting	triclinic
loop_
_symmetry_equiv_pos_as_xyz
  x,y,z
_cell_length_a	19.188925
_cell_length_b	19.188930
_cell_length_c	18.266242
_cell_angle_alpha	90.011475
_cell_angle_beta	89.990012
_cell_angle_gamma	96.856335
loop_
_atom_site_label
_atom_site_type_symbol
_atom_site_fract_x
_atom_site_fract_y
_atom_site_fract_z
O1	O	0.926152	-0.087151	-0.060905
O2	O	1.426152	0.412849	0.439095
O3	O	0.722840	-0.098889	-0.060904
O4	O	1.222840	0.401111	0.439096
O5	O	0.830363	0.008636	-0.060890
O6	O	1.330363	0.508636	0.439110
O7	O	0.818629	-0.194675	-0.060919
O8	O	1.318629	0.305325	0.439081
O9	O	0.830345	0.008642	0.060872
O10	O	1.330345	0.508642	0.560872
O11	O	0.722822	-0.098883	0.060858
O12	O	1.222822	0.401117	0.560858
O13	O	0.926133	-0.087145	0.060857
O14	O	1.426133	0.412855	0.560857
Zn15	Zn	0.824475	-0.093013	0.080190
Zn16	Zn	1.324475	0.406987	0.580190
Zn17	Zn	0.824499	-0.093021	-0.080237
Zn18	Zn	1.324499	0.406979	0.419763
O19	O	0.818610	-0.194670	0.060843
O20	O	1.318610	0.305330	0.560843
C21	C	0.696820	-0.098507	-0.000023
C22	C	1.196820	0.401493	0.499977
C23	C	0.619315	-0.097367	-0.000022
C24	C	1.119315	0.402633	0.499978
C25	C	0.057545	-0.152831	-0.000031
C26	C	0.557545	0.347169	0.499969
C27	C	0.130368	-0.153908	-0.000035
C28	C	0.630368	0.346092	0.499965
C29	C	0.175302	-0.090816	-0.000025
C30	C	0.675302	0.409184	0.499975
C31	C	0.147408	-0.026642	-0.000030
C32	C	0.647408	0.473358	0.499970
C33	C	0.074586	-0.025568	-0.000033
C34	C	0.574586	0.474432	0.499967
N35	N	0.295973	-0.045138	0.041430
N36	N	0.795973	0.454862	0.541430
N37	N	0.365151	-0.046163	0.041435
N38	N	0.865151	0.453837	0.541435
C39	C	0.394712	-0.094050	-0.000017
C40	C	0.894712	0.405950	0.499983
N41	N	0.352480	-0.140883	-0.041464
N42	N	0.852480	0.359117	0.458536
N43	N	0.283296	-0.139860	-0.041465
N44	N	0.783296	0.360140	0.458535
C45	C	0.254267	-0.091974	-0.000022
C46	C	0.754267	0.408026	0.499978
C47	C	0.501561	-0.159386	-0.000022
C48	C	1.001561	0.340614	0.499978
C49	C	0.574385	-0.160460	-0.000031
C50	C	1.074385	0.339540	0.499969
C51	C	0.591425	-0.033193	-0.000018
C52	C	1.091425	0.466807	0.499982
C53	C	0.518601	-0.032121	-0.000016
C54	C	1.018601	0.467879	0.499984
C55	C	0.473673	-0.095220	-0.000015
C56	C	0.973673	0.404780	0.499985
C57	C	0.829974	0.034650	-0.000007
C58	C	1.329974	0.534650	0.499993
C59	C	0.828833	0.112154	-0.000001
C60	C	1.328833	0.612154	0.499999
C61	C	0.952154	-0.087527	-0.000026
C62	C	1.452154	0.412473	0.499974
C63	C	1.029658	-0.088666	-0.000032
C64	C	1.529658	0.411334	0.499968
C65	C	0.819000	-0.220684	-0.000041
C66	C	1.319000	0.279316	0.499959
C67	C	0.820140	-0.298188	-0.000053
C68	C	1.320140	0.201812	0.499947
N69	N	0.824463	-0.093008	0.189677
N70	N	1.324463	0.406992	0.689677
C71	C	0.891924	0.157079	0.000002
C72	C	1.391924	0.657079	0.500002
C73	C	0.890852	0.229903	-0.000009
C74	C	1.390852	0.729903	0.499991
C75	C	0.826686	0.257799	-0.000010
C76	C	1.326686	0.757799	0.499990
C77	C	0.763587	0.212864	-0.000017
C78	C	1.263587	0.712864	0.499983
C79	C	0.764660	0.140041	-0.000012
C80	C	1.264660	0.640041	0.499988
N81	N	0.777633	0.365805	0.041429
N82	N	1.277633	0.865805	0.541429
N83	N	0.776617	0.434983	0.041426
N84	N	1.276617	0.934983	0.541426
C85	C	0.823448	0.477207	-0.000024
C86	C	1.323448	0.977207	0.499976
N87	N	0.871343	0.447641	-0.041463
N88	N	1.371343	0.947641	0.458537
N89	N	0.872361	0.378456	-0.041457
N90	N	1.372361	0.878456	0.458543
C91	C	0.825515	0.336761	-0.000015
C92	C	1.325515	0.836761	0.499985
C93	C	0.885381	0.601097	-0.000035
C94	C	1.385381	1.101097	0.499965
C95	C	0.884307	0.673922	-0.000051
C96	C	1.384307	1.173922	0.499949
C97	C	0.757040	0.656880	-0.000051
C98	C	1.257040	1.156880	0.499949
C99	C	0.758116	0.584057	-0.000042
C100	C	1.258116	1.084057	0.499958
C101	C	0.822289	0.556170	-0.000031
C102	C	1.322289	1.056170	0.499969
N103	N	0.824515	-0.093020	-0.189724
N104	N	1.324515	0.406980	0.310276
C105	C	0.872090	-0.045419	0.227992
C106	C	1.372090	0.454581	0.727992
C107	C	0.872095	-0.045416	0.304637
C108	C	1.372095	0.454584	0.804637
C109	C	0.824479	-0.093013	0.342964
C110	C	1.324479	0.406987	0.842964
C111	C	0.776843	-0.140606	0.304639
C112	C	1.276843	0.359394	0.804639
C113	C	0.776836	-0.140603	0.227996
C114	C	1.276836	0.359397	0.727996
N115	N	0.815403	-0.154821	0.463287
N116	N	1.315403	0.345179	0.963287
N117	N	0.815415	-0.154821	0.536096
N118	N	1.315415	0.345179	1.036096
C119	C	0.824499	-0.093024	0.573886
C120	C	1.324499	0.406976	1.073886
N121	N	0.833584	-0.031223	0.536118
N122	N	1.333584	0.468777	1.036118
N123	N	0.833576	-0.031223	0.463303
N124	N	1.333576	0.468777	0.963303
C125	C	0.824482	-0.093021	0.426071
C126	C	1.324482	0.406979	0.926071
C127	C	0.872133	-0.045427	0.695308
C128	C	1.372133	0.454573	1.195308
C129	C	0.872132	-0.045423	0.771955
C130	C	1.372132	0.454577	1.271955
C131	C	0.776884	-0.140619	0.771956
C132	C	1.276884	0.359381	1.271956
C133	C	0.776881	-0.140617	0.695311
C134	C	1.276881	0.359383	1.195311
C135	C	0.824509	-0.093022	0.656992
C136	C	1.324509	0.406978	1.156992
H137	H	0.628010	0.018178	-0.000015
H138	H	1.128010	0.518178	0.499985
H139	H	0.183999	0.024728	-0.000023
H140	H	0.683999	0.524728	0.499977
H141	H	0.944179	0.134379	0.000009
H142	H	1.444179	0.634379	0.500009
C143	C	0.160791	-0.223505	-0.000062
C144	C	0.660791	0.276495	0.499938
C145	C	0.234182	-0.210939	-0.000073
C146	C	0.734182	0.289061	0.499927
C147	C	0.262229	-0.275034	-0.000104
C148	C	0.762229	0.224966	0.499896
H149	H	0.145424	-0.249516	0.042389
H150	H	0.645424	0.250484	0.542389
H151	H	0.145407	-0.249493	-0.042539
H152	H	0.645407	0.250507	0.457461
H153	H	0.249559	-0.184962	0.042399
H154	H	0.749559	0.315038	0.542399
H155	H	0.249568	-0.184938	-0.042521
H156	H	0.749568	0.315062	0.457479
H157	H	0.246845	-0.301022	-0.042581
H158	H	0.746845	0.198978	0.457419
H159	H	0.246857	-0.301040	0.042348
H160	H	0.746857	0.198960	0.542348
H161	H	0.312027	-0.266517	-0.000118
H162	H	0.812027	0.233483	0.499882
H163	H	0.942230	0.266488	-0.000010
H164	H	1.442230	0.766488	0.499990
C165	C	0.923651	0.006261	0.186219
C166	C	1.423651	0.506261	0.686219
C167	C	0.966303	-0.030649	0.142050
C168	C	1.466303	0.469351	0.642050
C169	C	1.013713	0.016987	0.103506
C170	C	1.513713	0.516987	0.603506
H171	H	0.898472	0.035154	0.156370
H172	H	1.398472	0.535154	0.656370
H173	H	0.952070	0.034713	0.219889
H174	H	1.452070	0.534713	0.719889
H175	H	0.937888	-0.059089	0.108384
H176	H	1.437888	0.440911	0.608384
H177	H	0.991497	-0.059539	0.171881
H178	H	1.491497	0.440461	0.671881
H179	H	1.042132	0.045439	0.137176
H180	H	1.542132	0.545439	0.637176
H181	H	0.988528	0.045878	0.073660
H182	H	1.488528	0.545878	0.573660
H183	H	1.042662	-0.008049	0.073537
H184	H	1.542662	0.491951	0.573537
H185	H	0.711342	0.235581	-0.000019
H186	H	1.211342	0.735581	0.499981
H187	H	0.704794	0.679592	-0.000055
H188	H	1.204794	1.179592	0.499945
H189	H	0.495896	0.020129	-0.000012
H190	H	0.995896	0.520129	0.499988
C191	C	0.696082	0.091376	0.000026
C192	C	1.196082	0.591376	0.500026
C193	C	0.639656	0.131388	0.000038
C194	C	1.139656	0.631388	0.500038
C195	C	0.576471	0.086581	0.000085
C196	C	1.076471	0.586581	0.500085
H197	H	0.693764	0.062586	-0.042420
H198	H	1.193764	0.562586	0.457580
H199	H	0.693811	0.062637	0.042508
H200	H	1.193811	0.562637	0.542508
H201	H	0.641926	0.160116	-0.042439
H202	H	1.141926	0.660116	0.457561
H203	H	0.641951	0.160177	0.042481
H204	H	1.141951	0.660177	0.542481
H205	H	0.574200	0.057841	0.042567
H206	H	1.074200	0.557841	0.542567
H207	H	0.574160	0.057793	-0.042362
H208	H	1.074160	0.557793	0.457638
H209	H	0.538179	0.113722	0.000100
H210	H	1.038179	0.613722	0.500100
C211	C	0.955123	0.570949	-0.000074
C212	C	1.455123	1.070949	0.499926
C213	C	1.010148	0.625884	-0.000104
C214	C	1.510148	1.125884	0.499896
C215	C	1.074403	0.598141	-0.000154
C216	C	1.574403	1.098141	0.499846
H217	H	0.958286	0.542916	0.042376
H218	H	1.458286	1.042916	0.542376
H219	H	0.958226	0.542905	-0.042551
H220	H	1.458226	1.042905	0.457449
H221	H	1.007047	0.653916	0.042369
H222	H	1.507047	1.153916	0.542369
H223	H	1.007009	0.653921	-0.042552
H224	H	1.507009	1.153921	0.457448
H225	H	1.077506	0.570097	-0.042630
H226	H	1.577506	1.070097	0.457370
H227	H	1.077559	0.570108	0.042298
H228	H	1.577559	1.070108	0.542298
H229	H	1.111746	0.635409	-0.000180
H230	H	1.611746	1.135409	0.499820
C231	C	0.452892	-0.227965	-0.000070
C232	C	0.952892	0.272035	0.499930
C233	C	0.492905	-0.284391	-0.000099
C234	C	0.992905	0.215609	0.499901
C235	C	0.448098	-0.347576	-0.000155
C236	C	0.948098	0.152424	0.499845
H237	H	0.424106	-0.230291	0.042378
H238	H	0.924106	0.269709	0.542378
H239	H	0.424148	-0.230230	-0.042549
H240	H	0.924148	0.269770	0.457451
H241	H	0.521637	-0.282128	0.042376
H242	H	1.021637	0.217872	0.542376
H243	H	0.521689	-0.282088	-0.042544
H244	H	1.021689	0.217912	0.457456
H245	H	0.419354	-0.349840	-0.042634
H246	H	0.919354	0.150160	0.457366
H247	H	0.419314	-0.349895	0.042294
H248	H	0.919314	0.150105	0.542294
H249	H	0.475240	-0.385868	-0.000181
H250	H	0.975240	0.114132	0.499819
H251	H	0.935686	0.710500	-0.000053
H252	H	1.435686	1.210500	0.499947
H253	H	0.706740	0.547478	-0.000041
H254	H	1.206740	1.047478	0.499959
C255	C	0.923881	0.006290	0.346115
C256	C	1.423881	0.506290	0.846115
C257	C	0.965597	0.047963	0.296152
C258	C	1.465597	0.547963	0.796152
C259	C	1.013314	0.095597	0.334333
C260	C	1.513314	0.595597	0.834333
H261	H	0.898939	0.035356	0.376030
H262	H	1.398939	0.535356	0.876030
H263	H	0.952906	-0.018739	0.375985
H264	H	1.452906	0.481261	0.875985
H265	H	0.936576	0.072990	0.266295
H266	H	1.436576	0.572990	0.766295
H267	H	0.990555	0.018916	0.266236
H268	H	1.490555	0.518916	0.766236
H269	H	1.042338	0.070569	0.364202
H270	H	1.542338	0.570569	0.864202
H271	H	0.988365	0.124659	0.364247
H272	H	1.488365	0.624659	0.864247
H273	H	1.041627	0.123874	0.300439
H274	H	1.541627	0.623874	0.800439
C275	C	0.725225	-0.192253	0.346380
C276	C	1.225225	0.307747	0.846380
C277	C	0.735438	-0.182084	0.421703
C278	C	1.235438	0.317916	0.921703
C279	C	0.687902	-0.229655	0.460176
C280	C	1.187902	0.270345	0.960176
H281	H	0.678620	-0.184831	0.333926
H282	H	1.178620	0.315169	0.833926
H283	H	0.732666	-0.238848	0.333846
H284	H	1.232666	0.261152	0.833846
H285	H	0.727991	-0.135501	0.434232
H286	H	1.227991	0.364499	0.934232
H287	H	0.782033	-0.189512	0.434179
H288	H	1.282033	0.310488	0.934179
H289	H	0.695343	-0.276249	0.447642
H290	H	1.195343	0.223751	0.947642
H291	H	0.641301	-0.222229	0.447716
H292	H	1.141301	0.277771	0.947716
H293	H	0.694830	-0.222766	0.511286
H294	H	1.194830	0.277234	1.011286
H295	H	0.051883	0.026685	-0.000033
H296	H	0.551883	0.526685	0.499967
C297	C	0.725096	-0.192356	0.186525
C298	C	1.225096	0.307644	0.686525
C299	C	0.683404	-0.234051	0.236490
C300	C	1.183404	0.265949	0.736490
C301	C	0.635742	-0.281741	0.198312
C302	C	1.135742	0.218259	0.698312
H303	H	0.696043	-0.167393	0.156635
H304	H	1.196043	0.332607	0.656635
H305	H	0.750102	-0.221397	0.156630
H306	H	1.250102	0.278603	0.656630
H307	H	0.658400	-0.205014	0.266372
H308	H	1.158400	0.294986	0.766372
H309	H	0.712438	-0.259029	0.266381
H310	H	1.212438	0.240971	0.766381
H311	H	0.660748	-0.310782	0.168417
H312	H	1.160748	0.189218	0.668417
H313	H	0.606694	-0.256772	0.168424
H314	H	1.106694	0.243228	0.668424
H315	H	0.607453	-0.310041	0.232207
H316	H	1.107453	0.189959	0.732207
C317	C	0.923866	0.006329	0.653831
C318	C	1.423866	0.506329	1.153831
C319	C	0.965561	0.048025	0.703795
C320	C	1.465561	0.548025	1.203795
C321	C	1.013218	0.095718	0.665615
C322	C	1.513218	0.595718	1.165615
H323	H	0.952916	-0.018632	0.623916
H324	H	1.452916	0.481368	1.123916
H325	H	0.898855	0.035370	0.623961
H326	H	1.398855	0.535370	1.123961
H327	H	0.990569	0.018989	0.733652
H328	H	1.490569	0.518989	1.233652
H329	H	0.936529	0.073002	0.733711
H330	H	1.436529	0.573002	1.233711
H331	H	0.988207	0.124758	0.635745
H332	H	1.488207	0.624758	1.135745
H333	H	1.042263	0.070751	0.635702
H334	H	1.542263	0.570751	1.135702
H335	H	1.041509	0.124018	0.699509
H336	H	1.541509	0.624018	1.199509
H337	H	0.910914	-0.006667	0.803151
H338	H	1.410914	0.493333	1.303151
H339	H	0.597088	-0.212713	-0.000036
H340	H	1.097088	0.287287	0.499964
C341	C	0.725150	-0.192185	0.813651
C342	C	1.225150	0.307815	1.313651
C343	C	0.682543	-0.155099	0.857686
C344	C	1.182543	0.344901	1.357686
C345	C	0.634880	-0.202577	0.896117
C346	C	1.134880	0.297423	1.396117
H347	H	0.696717	-0.220550	0.779935
H348	H	1.196717	0.279450	1.279935
H349	H	0.750157	-0.221180	0.843579
H350	H	1.250157	0.278820	1.343579
H351	H	0.657538	-0.126117	0.827761
H352	H	1.157538	0.373883	1.327761
H353	H	0.710956	-0.126737	0.891416
H354	H	1.210956	0.373263	1.391416
H355	H	0.659887	-0.231571	0.926044
H356	H	1.159887	0.268429	1.426044
H357	H	0.606452	-0.230939	0.862395
H358	H	1.106452	0.269061	1.362395
H359	H	0.605970	-0.177421	0.926004
H360	H	1.105970	0.322579	1.426004
C361	C	0.725257	-0.192407	0.653748
C362	C	1.225257	0.307593	1.153748
C363	C	0.736383	-0.260989	0.672358
C364	C	1.236383	0.239011	1.172358
C365	C	0.688842	-0.308717	0.634079
C366	C	1.188842	0.191283	1.134079
H367	H	0.678655	-0.185036	0.666293
H368	H	1.178655	0.314964	1.166293
H369	H	0.732074	-0.185638	0.602606
H370	H	1.232074	0.314362	1.102606
H371	H	0.729561	-0.267755	0.723489
H372	H	1.229561	0.232245	1.223489
H373	H	0.782975	-0.268382	0.659812
H374	H	1.282975	0.231618	1.159812
H375	H	0.695659	-0.301948	0.582937
H376	H	1.195659	0.198052	1.082937
H377	H	0.642244	-0.301340	0.646627
H378	H	1.142244	0.198660	1.146627
H379	H	0.696389	-0.355256	0.646696
H380	H	1.196389	0.144744	1.146696
H381	H	0.020968	-0.204211	-0.000034
H382	H	0.520968	0.295789	0.499966
