data_functionalizedCrystal
_audit_creation_method	'MofGen! by Chris Wilmer'
_symmetry_space_group_name_H-M	'P1'
_symmetry_Int_Tables_number	1
_symmetry_cell_setting	triclinic
loop_
_symmetry_equiv_pos_as_xyz
  x,y,z
_cell_length_a	19.805407
_cell_length_b	19.805405
_cell_length_c	17.077396
_cell_angle_alpha	89.971037
_cell_angle_beta	89.981228
_cell_angle_gamma	90.024042
loop_
_atom_site_label
_atom_site_type_symbol
_atom_site_fract_x
_atom_site_fract_y
_atom_site_fract_z
Zn1	Zn	1.034741	-0.269512	-0.443825
Zn2	Zn	1.034653	-0.382705	-0.312558
Zn3	Zn	0.921553	-0.269530	-0.312574
Zn4	Zn	0.921518	-0.382659	-0.443783
O5	O	0.978116	-0.326101	-0.378185
O6	O	1.129446	-0.284539	-0.426422
O7	O	1.019628	-0.367719	-0.202713
O8	O	0.936619	-0.174811	-0.330010
O9	O	1.129381	-0.367701	-0.329981
O10	O	1.019778	-0.174797	-0.426439
O11	O	0.936534	-0.284569	-0.202725
O12	O	0.826832	-0.284525	-0.329969
O13	O	0.936559	-0.367623	-0.553635
O14	O	0.826806	-0.367640	-0.426367
O15	O	1.019743	-0.284494	-0.553666
O16	O	1.019594	-0.477415	-0.329940
O17	O	0.936474	-0.477381	-0.426351
C18	C	0.802260	-0.326080	-0.378166
C19	C	0.727028	-0.326087	-0.378176
C20	C	0.691718	-0.282861	-0.428470
C21	C	0.621030	-0.282865	-0.428473
C22	C	0.585653	-0.326098	-0.378186
C23	C	0.620968	-0.369326	-0.327887
C24	C	0.691655	-0.369319	-0.327880
C25	C	0.335894	-0.369357	-0.327911
C26	C	0.265202	-0.369362	-0.327923
C27	C	0.265269	-0.282903	-0.428503
C28	C	0.335957	-0.282895	-0.428497
C29	C	0.371265	-0.326120	-0.378195
C30	C	0.447914	-0.326115	-0.378192
C31	C	0.509006	-0.326107	-0.378193
C32	C	0.978039	-0.501957	-0.378157
C33	C	0.978068	-0.577189	-0.378171
C34	C	1.021343	-0.612468	-0.428421
C35	C	1.021367	-0.683157	-0.428435
C36	C	0.978120	-0.718565	-0.378195
C37	C	0.934840	-0.683281	-0.327943
C38	C	0.934813	-0.612594	-0.327933
C39	C	0.934949	-0.968354	-0.327983
C40	C	0.934981	-1.039046	-0.327996
C41	C	1.021503	-1.038917	-0.428486
C42	C	1.021476	-0.968230	-0.428475
C43	C	0.978194	-0.932952	-0.378227
C44	C	0.978167	-0.856304	-0.378212
C45	C	0.978150	-0.795212	-0.378205
C46	C	1.154659	-0.326123	-0.378205
C47	C	1.229891	-0.326132	-0.378213
C48	C	0.978157	-0.326051	-0.582929
C49	C	0.978175	-0.326030	-0.670179
C50	C	0.978212	-0.149558	-0.378231
C51	C	0.978253	-0.074326	-0.378250
C52	C	1.021490	-0.282741	-0.711187
C53	C	1.021498	-0.282719	-0.793167
C54	C	0.978194	-0.325989	-0.834139
C55	C	0.934874	-0.369280	-0.793125
C56	C	0.934863	-0.369298	-0.711146
C57	C	0.934901	-0.369239	-0.963996
C58	C	0.934913	-0.369221	-1.045980
C59	C	1.021537	-0.282660	-1.046016
C60	C	1.021526	-0.282678	-0.964037
C61	C	0.978206	-0.325970	-0.923030
C62	C	0.978114	-0.326102	-0.174237
C63	C	0.978228	-0.325933	-0.086988
H64	H	0.592158	-0.404524	-0.286939
H65	H	0.720517	-0.247657	-0.469421
Cl66	Cl	0.880464	-0.423611	-1.097487
H67	H	1.056611	-0.711878	-0.469348
Cl68	Cl	0.576643	-0.228523	-0.491704
Cl69	Cl	1.075937	-0.228345	-0.659688
H70	H	0.236513	-0.247704	-0.469458
H71	H	1.056695	-0.939403	-0.469383
H72	H	0.899612	-0.404508	-0.826491
H73	H	0.236400	-0.404570	-0.286970
Cl74	Cl	0.380273	-0.423683	-0.264658
H75	H	1.056808	-0.247409	-1.079409
H76	H	1.056563	-0.583644	-0.469328
H77	H	1.056743	-1.067649	-0.469403
Cl78	Cl	0.380427	-0.228545	-0.491721
H79	H	0.899584	-0.404541	-0.677759
Cl80	Cl	1.075970	-0.228285	-0.912531
H81	H	0.720403	-0.404517	-0.286926
H82	H	0.899761	-1.067873	-0.287083
H83	H	0.899709	-0.939636	-0.287067
Cl84	Cl	0.880440	-0.423663	-0.912445
H85	H	1.056772	-0.247470	-0.826552
H86	H	0.899625	-0.712116	-0.287040
H87	H	0.899573	-0.583870	-0.287015
