data_functionalizedCrystal
_audit_creation_method	'MofGen! by Chris Wilmer'
_symmetry_space_group_name_H-M	'P1'
_symmetry_Int_Tables_number	1
_symmetry_cell_setting	triclinic
loop_
_symmetry_equiv_pos_as_xyz
  x,y,z
_cell_length_a	18.101395
_cell_length_b	21.395362
_cell_length_c	21.395355
_cell_angle_alpha	89.956060
_cell_angle_beta	90.015727
_cell_angle_gamma	89.953017
loop_
_atom_site_label
_atom_site_type_symbol
_atom_site_fract_x
_atom_site_fract_y
_atom_site_fract_z
Zn1	Zn	-0.294602	-0.957858	0.354598
Zn2	Zn	0.205398	-0.457858	0.854598
Zn3	Zn	-0.418425	-0.957760	0.249825
Zn4	Zn	0.081575	-0.457760	0.749825
Zn5	Zn	-0.294636	-0.853073	0.249799
Zn6	Zn	0.205364	-0.353073	0.749799
Zn7	Zn	-0.418440	-0.853041	0.354530
Zn8	Zn	0.081560	-0.353041	0.854530
O9	O	-0.356526	-0.905433	0.302188
O10	O	0.143474	-0.405433	0.802188
O11	O	-0.311006	-1.045523	0.340739
O12	O	0.188994	-0.545523	0.840739
O13	O	-0.402012	-0.943845	0.162144
O14	O	0.097988	-0.443845	0.662144
O15	O	-0.190998	-0.867027	0.263718
O16	O	0.309002	-0.367027	0.763718
O17	O	-0.401979	-1.045450	0.263763
O18	O	0.098021	-0.545450	0.763763
O19	O	-0.190973	-0.944012	0.340713
O20	O	0.309027	-0.444012	0.840713
O21	O	-0.311065	-0.866932	0.162125
O22	O	0.188935	-0.366932	0.662125
O23	O	-0.311080	-0.765391	0.263652
O24	O	0.188920	-0.265391	0.763652
O25	O	-0.402005	-0.866973	0.442217
O26	O	0.097995	-0.366973	0.942217
O27	O	-0.402038	-0.765367	0.340598
O28	O	0.097962	-0.265367	0.840598
O29	O	-0.311021	-0.943982	0.442267
O30	O	0.188979	-0.443982	0.942267
O31	O	-0.522060	-0.943814	0.263697
O32	O	-0.022060	-0.443814	0.763697
O33	O	-0.522071	-0.866878	0.340623
O34	O	-0.022071	-0.366878	0.840623
C35	C	-0.356565	-0.742645	0.302115
C36	C	0.143435	-0.242645	0.802115
C37	C	-0.356599	-0.673004	0.302099
C38	C	0.143401	-0.173004	0.802099
C39	C	-0.548936	-0.905349	0.302170
C40	C	-0.048936	-0.405349	0.802170
C41	C	-0.631250	-0.905370	0.302183
C42	C	-0.131250	-0.405370	0.802183
C43	C	-0.356511	-0.905485	0.465611
C44	C	0.143489	-0.405485	0.965611
C45	C	-0.356504	-0.905507	0.535253
C46	C	0.143496	-0.405507	1.035253
C47	C	-0.930341	-0.905508	0.302216
C48	C	-0.430341	-0.405508	0.802216
C49	C	-0.899054	-0.857214	0.350736
C50	C	-0.399054	-0.357214	0.850736
C51	C	-0.813436	-0.856985	0.350585
C52	C	-0.313436	-0.356985	0.850585
C53	C	-0.781959	-0.905440	0.302200
C54	C	-0.281959	-0.405440	0.802200
C55	C	-0.813100	-0.887557	0.236161
C56	C	-0.313100	-0.387557	0.736161
C57	C	-0.898745	-0.887246	0.236451
C58	C	-0.398745	-0.387246	0.736451
C59	C	-0.898667	-0.971790	0.319154
C60	C	-0.398667	-0.471790	0.819154
C61	C	-0.813017	-0.971400	0.320602
C62	C	-0.313017	-0.471400	0.820602
C63	C	-0.698099	-0.905402	0.302187
C64	C	-0.198099	-0.405402	0.802187
C65	C	-1.014201	-0.905544	0.302225
C66	C	-0.514201	-0.405544	0.802225
C67	C	-0.163364	-0.905534	0.302220
C68	C	0.336636	-0.405534	0.802220
C69	C	-0.081050	-0.905577	0.302234
C70	C	0.418950	-0.405577	0.802234
C71	C	-0.356487	-1.068856	0.302261
C72	C	0.143513	-0.568856	0.802261
C73	C	-0.356470	-1.138497	0.302293
C74	C	0.143530	-0.638497	0.802293
C75	C	-0.404024	-0.640295	0.342105
C76	C	0.095976	-0.140295	0.842105
C77	C	-0.404006	-0.574860	0.342133
C78	C	0.095994	-0.074860	0.842133
C79	C	-0.356571	-0.542136	0.302144
C80	C	0.143429	-0.042136	0.802144
C81	C	-0.309137	-0.574852	0.262135
C82	C	0.190863	-0.074852	0.762135
C83	C	-0.309151	-0.640286	0.262113
C84	C	0.190849	-0.140286	0.762113
C85	C	-0.350605	-0.438411	0.245738
C86	C	0.149395	0.061589	0.745738
C87	C	-0.350596	-0.372978	0.245760
C88	C	0.149404	0.127022	0.745760
C89	C	-0.356523	-0.340315	0.302213
C90	C	0.143477	0.159685	0.802213
C91	C	-0.362474	-0.373093	0.358647
C92	C	0.137526	0.126907	0.858647
C93	C	-0.362488	-0.438527	0.358624
C94	C	0.137512	0.061473	0.858624
C95	C	-0.356550	-0.471183	0.302164
C96	C	0.143450	0.028817	0.802164
C97	C	-0.403930	-0.236654	0.342252
C98	C	0.096070	0.263346	0.842252
C99	C	-0.403907	-0.171217	0.342281
C100	C	0.096093	0.328783	0.842281
C101	C	-0.309042	-0.171211	0.262278
C102	C	0.190958	0.328789	0.762278
C103	C	-0.309061	-0.236646	0.262255
C104	C	0.190939	0.263354	0.762255
C105	C	-0.356509	-0.269364	0.302241
C106	C	0.143491	0.230636	0.802241
C107	C	-0.356487	-0.905417	0.139400
C108	C	0.143513	-0.405417	0.639400
C109	C	-0.356285	-0.905516	0.069760
C110	C	0.143715	-0.405516	0.569760
C111	C	-0.309127	-0.945603	0.567993
C112	C	0.190873	-0.445603	1.067993
C113	C	-0.309095	-0.945603	0.633428
C114	C	0.190905	-0.445603	1.133428
C115	C	-0.356454	-0.905512	0.666121
C116	C	0.143546	-0.405512	1.166121
C117	C	-0.403834	-0.865408	0.633373
C118	C	0.096166	-0.365408	1.133373
C119	C	-0.403859	-0.865405	0.567939
C120	C	0.096141	-0.365405	1.067939
C121	C	-0.423137	-0.900536	0.769788
C122	C	0.076863	-0.400536	1.269788
C123	C	-0.423113	-0.900542	0.835221
C124	C	0.076887	-0.400542	1.335221
C125	C	-0.356375	-0.905516	0.867942
C126	C	0.143625	-0.405516	1.367942
C127	C	-0.289660	-0.910495	0.835222
C128	C	0.210340	-0.410495	1.335222
C129	C	-0.289685	-0.910493	0.769788
C130	C	0.210315	-0.410493	1.269788
C131	C	-0.356431	-0.905510	0.737073
C132	C	0.143569	-0.405510	1.237073
C133	C	-0.308960	-0.945613	0.971635
C134	C	0.191040	-0.445613	1.471635
C135	C	-0.308927	-0.945608	1.037071
C136	C	0.191073	-0.445608	1.537071
C137	C	-0.403672	-0.865416	1.037015
C138	C	0.096328	-0.365416	1.537015
C139	C	-0.403699	-0.865418	0.971580
C140	C	0.096301	-0.365418	1.471580
C141	C	-0.356344	-0.905520	0.938893
C142	C	0.143656	-0.405520	1.438893
H143	H	-0.792380	-0.868173	0.399551
H144	H	-0.292380	-0.368173	0.899551
H145	H	-0.920221	-0.988093	0.366491
H146	H	-0.420221	-0.488093	0.866491
H147	H	-0.270342	-0.978259	1.063727
H148	H	0.229658	-0.478259	1.563727
H149	H	-0.270396	-0.978263	0.945020
H150	H	0.229604	-0.478263	1.445020
C151	C	-0.926913	-0.872118	0.417087
C152	C	-0.426913	-0.372118	0.917087
H153	H	-0.957869	-0.907930	0.415797
H154	H	-0.457869	-0.407930	0.915797
H155	H	-0.885965	-0.880097	0.443708
H156	H	-0.385965	-0.380097	0.943708
H157	H	-0.954137	-0.837504	0.432683
H158	H	-0.454137	-0.337504	0.932683
C159	C	-0.784242	-0.822792	0.216436
C160	C	-0.284242	-0.322792	0.716436
H161	H	-0.753224	-0.806564	0.248352
H162	H	-0.253224	-0.306564	0.748352
H163	H	-0.756898	-0.826537	0.178733
H164	H	-0.256898	-0.326537	0.678733
H165	H	-0.824807	-0.795314	0.210067
H166	H	-0.324807	-0.295314	0.710067
H167	H	-0.442283	-0.832771	0.944922
H168	H	0.057717	-0.332771	1.444922
H169	H	-0.792710	-0.921625	0.199023
H170	H	-0.292710	-0.421625	0.699023
C171	C	-0.455987	-0.821306	0.531923
C172	C	0.044013	-0.321306	1.031923
H173	H	-0.484193	-0.797432	0.560763
H174	H	0.015807	-0.297432	1.060763
H175	H	-0.427682	-0.794021	0.506370
H176	H	0.072318	-0.294021	1.006370
H177	H	-0.488261	-0.845267	0.506423
H178	H	0.011739	-0.345267	1.006423
C179	C	-0.456176	-0.538869	0.386137
C180	C	0.043824	-0.038869	0.886137
H181	H	-0.449368	-0.495213	0.380424
H182	H	0.050632	0.004787	0.880424
H183	H	-0.505920	-0.549540	0.376887
H184	H	-0.005920	-0.049540	0.876887
H185	H	-0.445415	-0.549646	0.428251
H186	H	0.054585	-0.049646	0.928251
C187	C	-0.785859	-0.790618	0.335417
C188	C	-0.285859	-0.290618	0.835417
H189	H	-0.826999	-0.763694	0.329318
H190	H	-0.326999	-0.263694	0.829318
H191	H	-0.756723	-0.775570	0.369125
H192	H	-0.256723	-0.275570	0.869125
H193	H	-0.756849	-0.791646	0.298436
H194	H	-0.256849	-0.291646	0.798436
H195	H	-0.270415	-0.144568	0.229722
H196	H	0.229585	0.355432	0.729722
C197	C	-0.496495	-0.895063	0.871206
C198	C	0.003505	-0.395063	1.371206
H199	H	-0.536243	-0.892088	0.842349
H200	H	-0.036243	-0.392088	1.342349
H201	H	-0.502994	-0.930967	0.896759
H202	H	-0.002994	-0.430967	1.396759
H203	H	-0.495524	-0.858741	0.896705
H204	H	0.004476	-0.358741	1.396705
H205	H	-0.345775	-0.465000	0.199764
H206	H	0.154225	0.035000	0.699764
H207	H	-0.920654	-0.808383	0.339656
H208	H	-0.420654	-0.308383	0.839656
H209	H	-0.918801	-0.838794	0.222106
H210	H	-0.418801	-0.338794	0.722106
H211	H	-0.442225	-0.832767	1.063633
H212	H	0.057775	-0.332767	1.563633
H213	H	-0.235316	-0.914546	0.861862
H214	H	0.264684	-0.414546	1.361862
H215	H	-0.477468	-0.896318	0.743152
H216	H	0.022532	-0.396318	1.243152
C217	C	-0.455931	-0.821312	0.669332
C218	C	0.044069	-0.321312	1.169332
H219	H	-0.449137	-0.827061	0.712992
H220	H	0.050863	-0.327061	1.212992
H221	H	-0.445109	-0.779219	0.658580
H222	H	0.054891	-0.279219	1.158580
H223	H	-0.505693	-0.830460	0.658615
H224	H	-0.005693	-0.330460	1.158615
H225	H	-0.919443	-0.920895	0.199066
H226	H	-0.419443	-0.420895	0.699066
H227	H	-0.792661	-0.984886	0.369204
H228	H	-0.292661	-0.484886	0.869204
H229	H	-0.442562	-0.263294	0.374814
H230	H	0.057438	0.236706	0.874814
H231	H	-0.791584	-1.009286	0.287841
H232	H	-0.291584	-0.509286	0.787841
H233	H	-0.918897	-1.007771	0.283816
H234	H	-0.418897	-0.507771	0.783816
C235	C	-0.456207	-0.676281	0.386094
C236	C	0.043793	-0.176281	0.886094
H237	H	-0.484444	-0.647425	0.409929
H238	H	0.015556	-0.147425	0.909929
H239	H	-0.488438	-0.701756	0.362074
H240	H	0.011562	-0.201756	0.862074
H241	H	-0.427924	-0.701857	0.413431
H242	H	0.072076	-0.201857	0.913431
C243	C	-0.369023	-0.474581	0.420696
C244	C	0.130977	0.025419	0.920696
H245	H	-0.372546	-0.445761	0.454324
H246	H	0.127454	0.054239	0.954324
H247	H	-0.411952	-0.500072	0.419812
H248	H	0.088048	-0.000072	0.919812
H249	H	-0.326588	-0.500146	0.426252
H250	H	0.173412	-0.000146	0.926252
H251	H	-0.367299	-0.346500	0.404617
H252	H	0.132701	0.153500	0.904617
H253	H	-0.270446	-0.263278	0.229675
H254	H	0.229554	0.236722	0.729675
C255	C	-0.456087	-0.135237	0.386281
C256	C	0.043913	0.364763	0.886281
H257	H	-0.484353	-0.164096	0.410083
H258	H	0.015647	0.335904	0.910083
H259	H	-0.427814	-0.109762	0.413637
H260	H	0.072186	0.390238	0.913637
H261	H	-0.488302	-0.109661	0.362259
H262	H	0.011698	0.390339	0.862259
C263	C	-0.257032	-0.989706	0.532038
C264	C	0.242968	-0.489706	1.032038
H265	H	-0.263834	-0.983966	0.488378
H266	H	0.236166	-0.483966	0.988378
H267	H	-0.207273	-0.980563	0.542756
H268	H	0.292727	-0.480563	1.042756
H269	H	-0.267861	-1.031801	0.542792
H270	H	0.232139	-0.531801	1.042792
H271	H	-0.345754	-0.346295	0.199808
H272	H	0.154246	0.153705	0.699808
H273	H	-0.270530	-0.666918	0.229536
H274	H	0.229470	-0.166918	0.729536
C275	C	-0.256960	-0.538859	0.218149
C276	C	0.243040	-0.038859	0.718149
H277	H	-0.263748	-0.495203	0.223887
H278	H	0.236252	0.004797	0.723887
H279	H	-0.207220	-0.549634	0.227389
H280	H	0.292780	-0.049634	0.727389
H281	H	-0.267730	-0.549527	0.176029
H282	H	0.232270	-0.049527	0.676029
C283	C	-0.216305	-0.915960	0.733798
C284	C	0.283695	-0.415960	1.233798
H285	H	-0.176551	-0.918918	0.762653
H286	H	0.323449	-0.418918	1.262653
H287	H	-0.217265	-0.952275	0.708296
H288	H	0.282735	-0.452275	1.208296
H289	H	-0.209821	-0.880048	0.708249
H290	H	0.290179	-0.380048	1.208249
H291	H	-0.270511	-0.978253	0.660090
H292	H	0.229489	-0.478253	1.160090
