data_functionalizedCrystal
_audit_creation_method	'MofGen! by Chris Wilmer'
_symmetry_space_group_name_H-M	'P1'
_symmetry_Int_Tables_number	1
_symmetry_cell_setting	triclinic
loop_
_symmetry_equiv_pos_as_xyz
  x,y,z
_cell_length_a	20.016444
_cell_length_b	12.970454
_cell_length_c	12.970454
_cell_angle_alpha	59.999776
_cell_angle_beta	90.001047
_cell_angle_gamma	60.002422
loop_
_atom_site_label
_atom_site_type_symbol
_atom_site_fract_x
_atom_site_fract_y
_atom_site_fract_z
Zr1	Zr	0.643581	1.128568	-0.135306
O2	O	0.536909	1.343650	-0.299931
O3	O	0.676281	0.913480	-0.084839
O4	O	0.676282	1.128569	-0.299930
O5	O	0.536908	1.128561	0.084826
O6	O	0.786222	1.128577	-0.299930
O7	O	0.536908	1.128560	-0.084840
O8	O	0.786221	0.743821	0.084828
O9	O	0.536910	1.513317	-0.299932
O10	O	0.772275	1.001957	-0.063317
O11	O	0.690227	1.001951	0.063304
O12	O	0.690228	1.255192	-0.189938
O13	O	0.608181	1.255186	-0.063318
Zr14	Zr	0.818921	1.128582	0.135292
Zr15	Zr	0.818922	1.128581	-0.135307
Zr16	Zr	0.643580	1.128569	0.135292
Zr17	Zr	0.643581	1.399168	-0.135308
Zr18	Zr	0.818921	0.857982	0.135293
O19	O	0.786221	1.343670	0.084825
O20	O	0.786222	1.343668	-0.299931
O21	O	0.536908	1.343652	0.084825
O22	O	0.925593	0.913500	0.299916
O23	O	0.925594	0.913498	-0.084840
O24	O	0.676280	0.913482	0.299917
O25	O	0.925594	1.128589	-0.084841
O26	O	0.786220	1.128581	0.299916
O27	O	0.676280	1.128572	0.299916
O28	O	0.925594	1.128590	0.084826
O29	O	0.676283	1.513327	-0.299932
O30	O	0.786220	0.743822	0.299918
O31	O	0.925593	0.743833	0.299917
O32	O	0.925594	0.743831	0.084828
O33	O	0.536909	1.513318	-0.084842
O34	O	0.676282	1.513329	-0.084842
O35	O	0.772274	1.001958	0.189924
O36	O	0.854321	1.001963	0.063303
O37	O	0.772275	1.255198	-0.063318
O38	O	0.690227	1.255193	0.063302
C39	C	0.731251	0.790096	-0.000006
C40	C	0.731251	0.675219	-0.000005
C41	C	0.511926	1.128559	-0.000007
C42	C	0.437489	1.128553	-0.000007
C43	C	0.309049	0.996384	0.066091
C44	C	0.239104	0.996390	0.066094
C45	C	0.153455	1.260776	-0.066108
C46	C	0.223399	1.260768	-0.066103
C47	C	0.301196	1.128568	-0.000006
C48	C	0.161306	1.128582	-0.000008
C49	C	0.085468	1.128589	-0.000005
C50	C	0.377039	1.128560	-0.000007
C51	C	0.950576	1.128591	-0.000008
C52	C	1.025013	1.128597	-0.000008
C53	C	0.731253	1.128573	-0.338485
C54	C	0.731253	1.128572	-0.453361
C55	C	0.731251	1.467054	-0.000009
C56	C	0.731251	1.581931	-0.000010
C57	C	0.731250	1.128577	0.338470
C58	C	0.731249	1.128577	0.453346
C59	C	0.950576	0.790112	-0.000006
C60	C	1.025013	0.675241	-0.000006
C61	C	0.731249	0.790097	0.338472
C62	C	0.731249	0.675221	0.453349
C63	C	0.950575	0.790114	0.338472
C64	C	1.025011	0.675243	0.453348
C65	C	0.511927	1.467036	-0.338486
C66	C	0.437491	1.581907	-0.453363
C67	C	0.511926	1.467038	-0.000009
C68	C	0.437489	1.581909	-0.000009
C69	C	0.731253	1.467052	-0.338486
C70	C	0.731253	1.581928	-0.453363
C71	C	1.017142	0.621292	-0.066111
C72	C	1.087077	0.513373	-0.066136
C73	C	1.164882	0.459398	-0.000047
C74	C	1.172751	0.513356	0.066060
C75	C	1.102817	0.621281	0.066077
C76	C	1.102803	0.621301	0.441201
C77	C	1.172750	0.513383	0.549129
C78	C	1.164905	0.459401	0.669204
C79	C	1.087105	0.513354	0.681349
C80	C	1.017159	0.621277	0.573421
C81	C	0.359699	1.635862	-0.441215
C82	C	0.289752	1.743813	-0.549144
C83	C	0.297597	1.797801	-0.669218
C84	C	0.375397	1.743842	-0.681363
C85	C	0.445343	1.635899	-0.573436
C86	C	0.445360	1.635869	0.066085
C87	C	0.375425	1.743817	0.066080
C88	C	0.297620	1.797797	-0.000012
C89	C	0.289751	1.743833	-0.066115
C90	C	0.359685	1.635894	-0.066116
H91	H	0.372392	0.888738	0.119925
O92	O	0.352135	1.583217	-0.130124
C93	C	0.381300	1.372544	-0.117972
C94	C	0.389935	1.431995	-0.045332
H95	H	0.411840	1.250280	-0.049445
H96	H	0.411935	1.393638	-0.193013
H97	H	0.313671	1.429741	-0.165235
H98	H	0.457542	1.374836	0.002009
H99	H	0.359248	1.410923	0.029639
H100	H	0.245505	0.888753	0.119919
H101	H	1.221866	0.371523	0.757075
O102	O	0.214245	1.796001	-0.537105
C103	C	0.136696	1.784591	-0.394546
C104	C	0.222252	1.725342	-0.408003
H105	H	0.143141	1.727511	-0.290175
H106	H	0.101790	1.763327	-0.441701
H107	H	0.101815	1.906891	-0.441817
H108	H	0.257202	1.603034	-0.360725
H109	H	0.257096	1.746719	-0.360882
H110	H	0.381848	1.787737	0.119914
H111	H	1.221820	0.371517	-0.000070
O112	O	1.248395	0.460705	0.130243
C113	C	1.394098	0.294457	0.188747
C114	C	1.308480	0.353945	0.116024
H115	H	1.442700	0.208154	0.177255
H116	H	1.401530	0.243804	0.293135
H117	H	1.401444	0.387467	0.149612
H118	H	1.301076	0.261016	0.155051
H119	H	1.301087	0.404641	0.011644
O120	O	0.077823	1.389058	-0.130300
C121	C	-0.067889	1.506245	-0.188844
C122	C	0.017713	1.360859	-0.116113
H123	H	-0.116511	1.483496	-0.177378
H124	H	-0.075308	1.571445	-0.293226
H125	H	-0.075217	1.571436	-0.149696
H126	H	0.025099	1.295550	-0.155154
H127	H	0.025093	1.295769	-0.011739
H128	H	0.240682	1.885688	-0.000001
H129	H	0.216999	1.368415	-0.119924
O130	O	1.110615	0.673462	0.130419
C131	C	1.202992	0.662066	0.261495
C132	C	1.194270	0.602827	0.188701
H133	H	1.270622	0.605005	0.308613
H134	H	1.172450	0.640771	0.336642
H135	H	1.172350	0.784373	0.193037
H136	H	1.224917	0.480513	0.257061
H137	H	1.224790	0.624235	0.113538
O138	O	0.941533	0.673864	0.585006
C139	C	0.795817	0.840020	0.477368
C140	C	0.881411	0.780625	0.464056
H141	H	0.747186	0.926325	0.379595
H142	H	0.788393	0.890649	0.531123
H143	H	0.788508	0.746966	0.531260
H144	H	0.888779	0.873600	0.410137
H145	H	0.888796	0.729954	0.410352
O146	O	0.941507	0.673832	-0.130210
C147	C	0.795796	0.840169	-0.188875
C148	C	0.881399	0.780775	-0.116194
H149	H	0.747176	0.926665	-0.177590
H150	H	0.788368	0.747247	-0.149714
H151	H	0.788473	0.890637	-0.293214
H152	H	0.888781	0.730323	-0.011844
H153	H	0.888788	0.873749	-0.155458
H154	H	0.381775	1.787812	-0.779141
H155	H	1.080654	0.469453	-0.119968
O156	O	0.229563	1.902604	-0.773923
C157	C	0.082194	2.057523	-0.856225
C158	C	0.159177	1.938818	-0.737551
H159	H	0.025267	2.086860	-0.826861
H160	H	0.082111	2.015114	-0.914840
H161	H	0.082218	2.158558	-0.914842
H162	H	0.159204	1.837743	-0.678836
H163	H	0.159230	1.981345	-0.679031
O164	O	0.520847	1.583595	-0.585470
C165	C	0.598393	1.595087	-0.728033
C166	C	0.512838	1.654417	-0.714573
H167	H	0.591947	1.652343	-0.832405
H168	H	0.633286	1.472809	-0.680901
H169	H	0.633288	1.616254	-0.680742
H170	H	0.477875	1.633355	-0.761871
H171	H	0.478007	1.776677	-0.761671
O172	O	1.248271	0.461242	0.537144
C173	C	1.342863	0.517110	0.457159
C174	C	1.257311	0.576346	0.470628
H175	H	1.350206	0.610136	0.403406
H176	H	1.350239	0.466641	0.403273
H177	H	1.391507	0.430660	0.554921
H178	H	1.208616	0.662846	0.372918
H179	H	1.250005	0.626723	0.524578
H180	H	0.353296	1.591911	-0.343454
H181	H	0.226393	1.787800	-0.119925
O182	O	0.520995	1.583247	0.130266
C183	C	0.666706	1.417050	0.188791
C184	C	0.581103	1.476473	0.116082
H185	H	0.715326	1.330735	0.177326
H186	H	0.674133	1.366428	0.293174
H187	H	0.674029	1.510089	0.149623
H188	H	0.573721	1.383514	0.155143
H189	H	0.573715	1.527137	0.011706
H190	H	1.109206	0.665237	0.343440
H191	H	1.080729	0.469386	0.779128
