data_functionalizedCrystal
_audit_creation_method	'MofGen! by Chris Wilmer'
_symmetry_space_group_name_H-M	'P1'
_symmetry_Int_Tables_number	1
_symmetry_cell_setting	triclinic
loop_
_symmetry_equiv_pos_as_xyz
  x,y,z
_cell_length_a	27.732048
_cell_length_b	19.288859
_cell_length_c	17.766277
_cell_angle_alpha	89.989768
_cell_angle_beta	89.998625
_cell_angle_gamma	97.111810
loop_
_atom_site_label
_atom_site_type_symbol
_atom_site_fract_x
_atom_site_fract_y
_atom_site_fract_z
O1	O	-0.060286	0.920980	-0.062596
O2	O	0.439714	1.420980	0.437404
O3	O	-0.068423	0.718668	-0.062593
O4	O	0.431577	1.218668	0.437407
O5	O	0.006023	0.826107	-0.062605
O6	O	0.506023	1.326107	0.437395
O7	O	-0.134732	0.813540	-0.062584
O8	O	0.365268	1.313540	0.437416
O9	O	0.006027	0.826088	0.062584
O10	O	0.506027	1.326088	0.562584
O11	O	-0.068419	0.718649	0.062596
O12	O	0.431581	1.218649	0.562596
O13	O	-0.060282	0.920961	0.062592
O14	O	0.439718	1.420961	0.562592
Cu15	Cu	-0.064350	0.819803	0.074025
Cu16	Cu	0.435650	1.319803	0.574025
Cu17	Cu	-0.064355	0.819825	-0.074025
Cu18	Cu	0.435645	1.319825	0.425975
O19	O	-0.134728	0.813522	0.062604
O20	O	0.365272	1.313522	0.562604
C21	C	-0.068160	0.692783	0.000002
C22	C	0.431840	1.192783	0.500002
C23	C	-0.067375	0.615685	0.000002
C24	C	0.432625	1.115685	0.500002
C25	C	-0.105750	0.051404	0.000007
C26	C	0.394250	0.551404	0.500007
C27	C	-0.106492	0.123846	0.000003
C28	C	0.393508	0.623846	0.500003
C29	C	-0.062810	0.168826	-0.000002
C30	C	0.437190	0.668826	0.499998
C31	C	-0.018383	0.141358	-0.000022
C32	C	0.481617	0.641358	0.499978
C33	C	-0.017643	0.068917	-0.000026
C34	C	0.482357	0.568917	0.499974
C35	C	-0.030231	0.290293	0.043855
C36	C	0.469769	0.790293	0.543855
C37	C	-0.030973	0.362732	0.043864
C38	C	0.469027	0.862732	0.543864
C39	C	-0.065091	0.392257	0.000006
C40	C	0.434909	0.892257	0.500006
C41	C	-0.098475	0.349333	-0.043850
C42	C	0.401525	0.849333	0.456150
C43	C	-0.097735	0.276893	-0.043854
C44	C	0.402265	0.776893	0.456146
C45	C	-0.063607	0.247376	0.000002
C46	C	0.436393	0.747376	0.500002
C47	C	-0.110318	0.498267	0.000017
C48	C	0.389682	0.998267	0.500017
C49	C	-0.111058	0.570710	0.000008
C50	C	0.388942	1.070710	0.500008
C51	C	-0.022948	0.588220	-0.000009
C52	C	0.477052	1.088220	0.499991
C53	C	-0.022210	0.515778	-0.000008
C54	C	0.477790	1.015778	0.499992
C55	C	-0.065896	0.470805	0.000008
C56	C	0.434104	0.970805	0.500008
C57	C	-0.152738	0.813795	0.000012
C58	C	0.347262	1.313795	0.500012
C59	C	-0.206395	0.814589	0.000020
C60	C	0.293605	1.314589	0.500020
C61	C	-0.545035	0.756100	-0.000016
C62	C	-0.045035	1.256100	0.499984
C63	C	-0.746703	0.759047	-0.000025
C64	C	-0.246703	1.259047	0.499975
O65	O	-0.777798	0.705563	-0.000057
O66	O	-0.277798	1.205563	0.499943
N67	N	-0.766018	0.822754	-0.000025
N68	N	-0.266018	1.322754	0.499975
C69	C	-0.734913	0.885729	-0.000027
C70	C	-0.234913	1.385729	0.499973
O71	O	-0.755969	0.939984	-0.000035
O72	O	-0.255969	1.439984	0.499965
C73	C	-0.533245	0.882781	-0.000024
C74	C	-0.033245	1.382781	0.499976
C75	C	-0.513933	0.819070	-0.000016
C76	C	-0.013933	1.319070	0.499984
C77	C	-0.525722	0.692394	-0.000009
C78	C	-0.025722	1.192394	0.499991
C79	C	-0.475308	0.691658	-0.000002
C80	C	0.024692	1.191658	0.499998
C81	C	-0.444206	0.754628	-0.000003
C82	C	0.055794	1.254628	0.499997
C83	C	-0.463519	0.818334	-0.000010
C84	C	0.036481	1.318334	0.499990
C85	C	-0.502141	0.945755	-0.000032
C86	C	-0.002141	1.445755	0.499968
C87	C	-0.451721	0.945013	-0.000033
C88	C	0.048279	1.445013	0.499967
C89	C	-0.432409	0.881302	-0.000025
C90	C	0.067591	1.381302	0.499975
C91	C	-0.382003	0.880568	-0.000004
C92	C	0.117997	1.380568	0.499996
N93	N	-0.362688	0.816861	-0.000004
N94	N	0.137312	1.316861	0.499996
C95	C	-0.393790	0.753891	-0.000003
C96	C	0.106210	1.253891	0.499997
C97	C	-0.840792	0.887272	-0.000028
C98	C	-0.340792	1.387272	0.499972
C99	C	-0.891208	0.888010	-0.000027
C100	C	-0.391208	1.388010	0.499973
C101	C	-0.902995	0.761327	-0.000026
C102	C	-0.402995	1.261327	0.499974
C103	C	-0.852577	0.760591	-0.000021
C104	C	-0.352577	1.260591	0.499979
C105	C	-0.821476	0.823565	-0.000028
C106	C	-0.321476	1.323565	0.499972
C107	C	-0.287916	0.752350	0.000011
C108	C	0.212084	1.252350	0.500011
C109	C	-0.237497	0.751619	0.000020
C110	C	0.262503	1.251619	0.500020
C111	C	-0.225714	0.878301	0.000015
C112	C	0.274286	1.378301	0.500015
C113	C	-0.276129	0.879032	0.000009
C114	C	0.223871	1.379032	0.500009
C115	C	-0.307229	0.816051	0.000005
C116	C	0.192771	1.316051	0.500005
O117	O	-0.350880	0.934023	0.000020
O118	O	0.149120	1.434023	0.500020
O119	O	-0.372724	0.699644	-0.000012
O120	O	0.127276	1.199644	0.499988
C121	C	-0.595449	0.756836	-0.000022
C122	C	-0.095449	1.256836	0.499978
C123	C	-0.614762	0.820542	-0.000029
C124	C	-0.114762	1.320542	0.499971
C125	C	-0.583660	0.883512	-0.000029
C126	C	-0.083660	1.383512	0.499971
C127	C	-0.665178	0.821279	-0.000028
C128	C	-0.165178	1.321279	0.499972
C129	C	-0.696280	0.758310	-0.000028
C130	C	-0.196280	1.258310	0.499972
C131	C	-0.676964	0.694602	-0.000028
C132	C	-0.176964	1.194602	0.499972
C133	C	-0.626550	0.693866	-0.000022
C134	C	-0.126550	1.193866	0.499978
C135	C	-0.602975	0.947219	-0.000029
C136	C	-0.102975	1.447219	0.499971
C137	C	-0.653390	0.947950	-0.000035
C138	C	-0.153390	1.447950	0.499965
C139	C	-0.684491	0.884980	-0.000034
C140	C	-0.184491	1.384980	0.499966
C141	C	0.024033	0.825834	-0.000014
C142	C	0.524033	1.325834	0.499986
C143	C	0.077690	0.825040	-0.000027
C144	C	0.577690	1.325040	0.499973
C145	C	-0.060545	0.946845	-0.000004
C146	C	0.439455	1.446845	0.499996
C147	C	-0.061330	1.023944	-0.000009
C148	C	0.438670	1.523944	0.499991
N149	N	-0.064347	0.819793	0.178155
N150	N	0.435653	1.319793	0.678155
N151	N	-0.064354	0.819841	-0.178156
N152	N	0.435646	1.319841	0.321844
C153	C	-0.031398	0.867382	0.217537
C154	C	0.468602	1.367382	0.717537
C155	C	-0.031396	0.867386	0.296339
C156	C	0.468604	1.367386	0.796339
C157	C	-0.064351	0.819807	0.335756
C158	C	0.435649	1.319807	0.835756
C159	C	-0.097302	0.772209	0.296364
C160	C	0.402698	1.272209	0.796364
C161	C	-0.097300	0.772202	0.217564
C162	C	0.402700	1.272202	0.717564
C163	C	-0.108393	0.810234	0.460600
C164	C	0.391607	1.310234	0.960600
C165	C	-0.108396	0.810246	0.539399
C166	C	0.391604	1.310246	1.039399
C167	C	-0.064356	0.819826	0.578802
C168	C	0.435644	1.319826	1.078802
C169	C	-0.020312	0.829408	0.539397
C170	C	0.479688	1.329408	1.039397
C171	C	-0.020311	0.829401	0.460596
C172	C	0.479689	1.329401	0.960596
C173	C	-0.064356	0.819810	0.421201
C174	C	0.435644	1.319810	0.921201
C175	C	-0.031402	0.867422	0.703630
C176	C	0.468598	1.367422	1.203630
C177	C	-0.031400	0.867421	0.782433
C178	C	0.468600	1.367421	1.282433
C179	C	-0.097310	0.772248	0.782457
C180	C	0.402690	1.272248	1.282457
C181	C	-0.097309	0.772245	0.703655
C182	C	0.402691	1.272245	1.203655
C183	C	-0.064355	0.819836	0.664246
C184	C	0.435645	1.319836	1.164246
H185	H	-0.142665	0.146209	0.000023
H186	H	0.357335	0.646209	0.500023
Cl187	Cl	-0.526406	1.025855	-0.000059
Cl188	Cl	-0.026406	1.525855	0.499941
Cl189	Cl	0.012689	0.253188	0.098952
Cl190	Cl	0.512689	0.753188	0.598952
H191	H	-0.004568	0.906172	0.671541
H192	H	0.495432	1.406172	1.171541
Cl193	Cl	-0.141374	0.386441	-0.098981
Cl194	Cl	0.358626	0.886441	0.401019
Cl195	Cl	-0.166906	0.605231	0.000020
Cl196	Cl	0.333094	1.105231	0.500020
Cl197	Cl	-0.138736	0.712429	0.832005
Cl198	Cl	0.361264	1.212429	1.332005
H199	H	-0.003792	0.397674	0.079578
H200	H	0.496208	0.897674	0.579578
Cl201	Cl	-0.165237	0.441726	0.000035
Cl202	Cl	0.334763	0.941726	0.500035
Cl203	Cl	0.031967	0.644759	-0.000027
Cl204	Cl	0.531967	1.144759	0.499973
H205	H	-0.221776	0.699736	0.000030
H206	H	0.278224	1.199736	0.500030
H207	H	-0.669109	0.999835	-0.000035
H208	H	-0.169109	1.499835	0.499965
H209	H	-0.313232	0.701064	0.000007
H210	H	0.186768	1.201064	0.500007
Cl211	Cl	-0.451037	0.611559	-0.000002
Cl212	Cl	0.048963	1.111559	0.499998
H213	H	0.017183	0.177984	-0.000028
H214	H	0.517183	0.677984	0.499972
Cl215	Cl	0.010029	0.927219	0.345855
Cl216	Cl	0.510029	1.427219	0.845855
H217	H	-0.124916	0.241947	-0.079564
H218	H	0.375084	0.741947	0.420436
H219	H	0.015549	0.837209	0.571477
H220	H	0.515549	1.337209	1.071477
H221	H	0.013962	0.493420	-0.000017
H222	H	0.513962	0.993420	0.499983
H223	H	-0.004566	0.906172	0.814498
H224	H	0.495434	1.406172	1.314498
H225	H	-0.124141	0.733496	0.671589
H226	H	0.375859	1.233496	1.171589
H227	H	0.018531	0.046560	-0.000039
H228	H	0.518531	0.546560	0.499961
H229	H	-0.124134	0.733469	0.328462
H230	H	0.375866	1.233469	0.828462
H231	H	-0.928327	0.710055	-0.000022
H232	H	-0.428327	1.210055	0.499978
H233	H	-0.551040	0.641113	-0.000011
H234	H	-0.051040	1.141113	0.499989
H235	H	0.015551	0.837202	0.428516
H236	H	0.515551	1.337202	0.928516
H237	H	-0.144258	0.802421	0.428524
H238	H	0.355742	1.302421	0.928524
H239	H	-0.836857	0.708712	-0.000012
H240	H	-0.336857	1.208712	0.499988
H241	H	-0.906927	0.939890	-0.000022
H242	H	-0.406927	1.439890	0.499978
Cl243	Cl	-0.563883	1.026390	-0.000027
Cl244	Cl	-0.063883	1.526390	0.499973
H245	H	-0.815473	0.938557	-0.000032
H246	H	-0.315473	1.438557	0.499968
Cl247	Cl	-0.160670	-0.005129	0.000017
Cl248	Cl	0.339330	0.494871	0.500017
H249	H	-0.426401	0.996295	-0.000042
H250	H	0.073599	1.496295	0.499958
H251	H	-0.144259	0.802448	0.571477
H252	H	0.355741	1.302448	1.071477
H253	H	-0.291854	0.930911	0.000014
H254	H	0.208146	1.430911	0.500014
Cl255	Cl	0.010030	0.927206	0.167994
Cl256	Cl	0.510030	1.427206	0.667994
H257	H	-0.200383	0.929569	0.000018
H258	H	0.299617	1.429569	0.500018
H259	H	-0.610831	0.641986	-0.000015
H260	H	-0.110831	1.141986	0.499985
Cl261	Cl	-0.138725	0.712371	0.168052
Cl262	Cl	0.361275	1.212371	0.668052
H263	H	-0.702296	0.643330	-0.000023
H264	H	-0.202296	1.143330	0.499977
