data_functionalizedCrystal
_audit_creation_method	'MofGen! by Chris Wilmer'
_symmetry_space_group_name_H-M	'P1'
_symmetry_Int_Tables_number	1
_symmetry_cell_setting	triclinic
loop_
_symmetry_equiv_pos_as_xyz
  x,y,z
_cell_length_a	16.109302
_cell_length_b	10.489716
_cell_length_c	14.586319
_cell_angle_alpha	90.000245
_cell_angle_beta	89.994552
_cell_angle_gamma	83.995458
loop_
_atom_site_label
_atom_site_type_symbol
_atom_site_fract_x
_atom_site_fract_y
_atom_site_fract_z
O1	O	1.104132	0.163953	-0.076273
O2	O	0.862194	0.184355	-0.076265
O3	O	0.988679	-0.011526	-0.076273
O4	O	0.977647	0.359834	-0.076266
O5	O	0.988670	-0.011528	0.076208
O6	O	0.862185	0.184353	0.076216
O7	O	1.104123	0.163950	0.076208
Cu8	Cu	0.983153	0.174151	0.090134
Cu9	Cu	0.983164	0.174155	-0.090192
O10	O	0.977638	0.359831	0.076215
C11	C	0.831210	0.183527	-0.000024
C12	C	0.738900	0.181049	-0.000021
C13	C	0.526519	0.175317	0.083087
C14	C	0.439784	0.172975	0.083084
C15	C	0.439805	0.172985	-0.083159
C16	C	0.526538	0.175318	-0.083155
C17	C	0.569892	0.176491	-0.000029
C18	C	0.396425	0.171815	-0.000037
C19	C	0.302383	0.169276	-0.000041
C20	C	0.663940	0.179028	-0.000025
C21	C	0.987845	-0.059047	-0.000035
C22	C	0.985366	-0.200642	-0.000043
C23	C	1.062930	-0.299441	-0.000038
C24	C	1.021948	-0.376206	-0.075215
C25	C	1.021921	-0.376172	0.075119
C26	C	0.944416	-0.275542	-0.075283
C27	C	0.944400	-0.275503	0.075119
C28	C	0.903361	-0.352218	-0.000077
C29	C	1.135107	0.164778	-0.000036
C30	C	1.227417	0.167257	-0.000045
C31	C	0.978472	0.407353	-0.000025
C32	C	0.980951	0.548948	-0.000022
N33	N	0.983152	0.174148	0.216966
N34	N	0.983172	0.174148	-0.217024
C35	C	1.039178	0.087441	0.451969
C36	C	1.039180	0.087438	0.547950
C37	C	0.927139	0.260859	0.547967
C38	C	0.927134	0.260855	0.451987
C39	C	0.983158	0.174147	0.403991
C40	C	0.983166	0.174148	0.595952
C41	C	0.983168	0.174146	0.700019
C42	C	0.983155	0.174148	0.299917
H43	H	1.054694	-0.420174	-0.138775
C44	C	0.574212	0.176600	0.174521
C45	C	0.553490	0.286965	0.243099
C46	C	0.601182	0.288246	0.334536
C47	C	0.669596	0.179162	0.357394
C48	C	0.690323	0.068788	0.288814
C49	C	0.642631	0.067507	0.197377
H50	H	0.502842	0.367723	0.226180
H51	H	0.585839	0.369952	0.385303
H52	H	0.704901	0.180110	0.425080
H53	H	0.740970	-0.011970	0.305733
H54	H	0.657974	-0.014199	0.146610
C55	C	0.392114	0.171706	-0.174595
C56	C	0.395266	0.282721	-0.243164
C57	C	0.347577	0.281445	-0.334603
C58	C	0.296737	0.169154	-0.357473
C59	C	0.293583	0.058130	-0.288902
C60	C	0.341271	0.059406	-0.197463
H61	H	0.432903	0.365854	-0.226235
H62	H	0.349913	0.363633	-0.385363
H63	H	0.261435	0.168210	-0.425161
H64	H	0.255946	-0.025002	-0.305831
H65	H	0.338936	-0.022782	-0.146703
H66	H	0.835843	-0.375669	-0.000115
H67	H	1.084795	0.016837	0.412893
H68	H	0.881511	0.331462	0.412920
H69	H	0.561854	0.176270	-0.150842
C70	C	0.392073	0.171686	0.174513
C71	C	0.439765	0.172972	0.265944
C72	C	0.392055	0.171679	0.357378
C73	C	0.296652	0.169100	0.357381
C74	C	0.248955	0.167815	0.265947
C75	C	0.296665	0.169108	0.174513
H76	H	0.510393	0.174880	0.265945
H77	H	0.427364	0.172630	0.425063
H78	H	0.261334	0.168143	0.425066
H79	H	0.178327	0.165906	0.265946
H80	H	0.261356	0.168156	0.106828
H81	H	0.911682	-0.231512	0.138682
C82	C	1.154070	-0.267412	-0.000139
C83	C	1.226101	-0.376180	-0.001034
C84	C	1.317238	-0.344148	-0.001141
C85	C	1.336345	-0.203348	-0.000353
C86	C	1.264312	-0.094570	0.000543
C87	C	1.173175	-0.126602	0.000649
H88	H	1.211958	-0.480418	-0.001618
H89	H	1.370561	-0.424674	-0.001803
H90	H	1.403810	-0.179636	-0.000431
H91	H	1.278455	0.009668	0.001126
H92	H	1.119852	-0.046077	0.001312
C93	C	0.900221	-0.216413	-0.161248
C94	C	0.894464	-0.070629	-0.177165
C95	C	0.850273	-0.011499	-0.263130
C96	C	0.811839	-0.098153	-0.333178
C97	C	0.817595	-0.243945	-0.317264
C98	C	0.861786	-0.303075	-0.231298
H99	H	0.922916	-0.006475	-0.125309
H100	H	0.846013	0.096427	-0.274911
H101	H	0.779127	-0.054381	-0.396815
H102	H	0.789143	-0.308099	-0.369119
H103	H	0.866046	-0.411001	-0.219518
H104	H	1.054677	-0.420121	0.138674
H105	H	1.084796	0.016832	0.587012
H106	H	0.881527	0.331456	0.587055
