data_functionalizedCrystal
_audit_creation_method	'MofGen! by Chris Wilmer'
_symmetry_space_group_name_H-M	'P1'
_symmetry_Int_Tables_number	1
_symmetry_cell_setting	triclinic
loop_
_symmetry_equiv_pos_as_xyz
  x,y,z
_cell_length_a	15.944551
_cell_length_b	14.421503
_cell_length_c	15.944551
_cell_angle_alpha	89.996660
_cell_angle_beta	96.501262
_cell_angle_gamma	89.996859
loop_
_atom_site_label
_atom_site_type_symbol
_atom_site_fract_x
_atom_site_fract_y
_atom_site_fract_z
O1	O	1.114529	-0.077017	-0.108320
O2	O	0.869980	-0.077040	-0.121677
O3	O	0.998933	-0.077020	0.007276
O4	O	0.985576	-0.077038	-0.237273
O5	O	0.998911	0.077204	0.007257
O6	O	0.869958	0.077183	-0.121696
O7	O	1.114508	0.077206	-0.108340
Cu8	Cu	0.992231	0.091277	-0.115020
Cu9	Cu	0.992256	-0.091110	-0.114997
O10	O	0.985555	0.077186	-0.237293
C11	C	0.838675	0.000069	-0.121132
C12	C	0.745429	0.000060	-0.119470
N13	N	0.992219	0.219558	-0.115035
N14	N	0.992275	-0.219392	-0.114975
C15	C	0.530572	0.000084	-0.035565
C16	C	0.469563	-0.075959	-0.074518
C17	C	0.574703	0.000071	-0.116462
C18	C	0.469564	0.076093	-0.074556
C19	C	0.409790	0.000086	-0.113551
C20	C	0.514922	-0.076035	-0.155437
C21	C	0.514929	0.076086	-0.155464
C22	C	0.453937	0.000024	-0.194476
C23	C	0.669705	0.000062	-0.118137
C24	C	0.314789	0.000089	-0.111883
C25	C	1.145813	0.000096	-0.108885
C26	C	1.239059	0.000098	-0.110547
C27	C	0.998367	0.000092	0.038561
C28	C	0.996705	0.000093	0.131807
C29	C	0.932581	0.469202	-0.174636
C30	C	1.008481	0.531011	-0.190943
C31	C	0.992240	0.408719	-0.115015
C32	C	0.916359	0.531005	-0.098727
C33	C	0.992253	0.591441	-0.114997
C34	C	1.068178	0.469167	-0.131360
C35	C	0.976007	0.469156	-0.039111
C36	C	1.051961	0.530936	-0.055386
C37	C	0.992231	0.303458	-0.115027
C38	C	0.992270	0.696700	-0.114985
C39	C	0.986120	0.000072	-0.268577
C40	C	0.987782	0.000066	-0.361823
C41	C	0.912801	0.000072	0.346663
C42	C	0.951753	0.076117	0.407671
C43	C	0.993698	0.000085	0.302533
C44	C	0.951793	-0.075935	0.407674
C45	C	0.990787	0.000074	0.467445
C46	C	1.032672	0.076193	0.362312
C47	C	1.032701	-0.075927	0.362308
C48	C	1.071711	0.000136	0.423298
C49	C	0.995372	0.000092	0.207530
C50	C	0.989119	0.000073	0.562446
H51	H	0.449461	-0.140243	-0.040294
N52	N	0.865820	0.433301	-0.241475
H53	H	0.893216	0.393798	-0.283038
H54	H	0.823637	0.394800	-0.213958
N55	N	0.541601	0.161238	-0.200754
H56	H	0.569821	0.141862	-0.251588
H57	H	0.490295	0.200207	-0.219667
H58	H	0.852183	0.558170	-0.084959
N59	N	1.026693	0.567002	-0.275956
H60	H	0.981593	0.544552	-0.320963
H61	H	1.027127	0.637025	-0.275073
H62	H	1.132368	0.442119	-0.145205
H63	H	1.066897	-0.140214	0.342186
H64	H	0.534918	-0.140394	-0.189620
N65	N	0.409999	-0.000035	-0.283492
H66	H	0.427224	0.056838	-0.314306
H67	H	0.426493	-0.057537	-0.313852
N68	N	1.118863	0.566625	0.011416
H69	H	1.176128	0.544009	-0.000992
H70	H	1.118101	0.636652	0.011354
H71	H	0.449469	0.140379	-0.040333
H72	H	1.138919	0.000186	0.456457
N73	N	0.957781	0.433137	0.045882
H74	H	0.900413	0.455591	0.058127
H75	H	0.958510	0.363113	0.045349
N76	N	0.906468	-0.161089	0.434301
H77	H	0.846452	-0.161023	0.406136
H78	H	0.936488	-0.218474	0.416995
N79	N	0.823857	0.000152	0.302542
H80	H	0.793400	0.057644	0.318913
H81	H	0.825673	-0.000472	0.239434
H82	H	1.066850	0.140554	0.342314
N83	N	0.574686	0.000007	0.053381
H84	H	0.558311	-0.057484	0.083839
H85	H	0.637795	0.000631	0.051574
N86	N	0.906429	0.161277	0.434291
H87	H	0.846412	0.161219	0.406128
H88	H	0.906186	0.160912	0.497604
