data_functionalizedCrystal
_audit_creation_method	'MofGen! by Chris Wilmer'
_symmetry_space_group_name_H-M	'P1'
_symmetry_Int_Tables_number	1
_symmetry_cell_setting	triclinic
loop_
_symmetry_equiv_pos_as_xyz
  x,y,z
_cell_length_a	8.597340
_cell_length_b	10.540510
_cell_length_c	7.681481
_cell_angle_alpha	84.203102
_cell_angle_beta	103.474906
_cell_angle_gamma	84.924190
loop_
_atom_site_label
_atom_site_type_symbol
_atom_site_fract_x
_atom_site_fract_y
_atom_site_fract_z
O1	O	2.101822	0.175545	0.172465
O2	O	1.637989	0.195770	0.102091
O3	O	1.880512	0.000872	0.138888
O4	O	1.859299	0.370444	0.135668
O5	O	1.910362	-0.023171	0.436275
O6	O	1.667839	0.171727	0.399478
O7	O	2.131672	0.151502	0.469852
Zn8	Zn	1.904495	0.157797	0.481882
Zn9	Zn	1.865166	0.189475	0.090062
O10	O	1.889149	0.346401	0.433055
C11	C	1.593521	0.182916	0.241773
C12	C	1.416548	0.180420	0.214922
C13	C	1.893856	-0.058442	0.287338
C14	C	1.889125	-0.199356	0.286610
C15	C	2.057674	-0.418091	0.312853
C16	C	2.062651	-0.271477	0.312939
C17	C	1.783252	-0.229740	0.103314
C18	C	1.779423	-0.376463	0.102602
C19	C	1.809754	-0.403587	0.440238
C20	C	1.818209	-0.257486	0.443722
C21	C	2.176140	0.164356	0.330166
C22	C	2.353111	0.166854	0.357006
C23	C	1.875804	0.405714	0.284601
C24	C	1.880534	0.546630	0.285318
N25	N	1.931347	0.136177	0.749290
N26	N	1.838326	0.211085	-0.177345
H27	H	2.137502	-0.470383	0.444896
H28	H	2.026321	0.059723	0.838906
C29	C	1.462631	0.153740	0.549100
H30	H	1.571198	0.157201	0.542561
H31	H	1.453461	0.073995	0.613346
H32	H	1.430821	0.221959	0.609897
C33	C	1.710040	0.314373	0.701623
H34	H	1.654376	0.359214	0.774363
H35	H	1.635814	0.274621	0.618450
H36	H	1.760800	0.373027	0.637400
H37	H	1.335462	0.190125	0.072720
H38	H	2.144371	-0.252479	0.445214
C39	C	1.633911	-0.432353	0.415088
H40	H	1.603719	-0.474499	0.310741
H41	H	1.565561	-0.354202	0.401042
H42	H	1.623983	-0.486133	0.517955
C43	C	2.132056	-0.464279	0.163035
H44	H	2.055625	-0.504966	0.083772
H45	H	2.225013	-0.523554	0.215593
H46	H	2.161392	-0.392799	0.097281
C47	C	2.140532	-0.220459	0.162523
H48	H	2.169235	-0.289359	0.101115
H49	H	2.234242	-0.182851	0.214021
H50	H	2.066141	-0.157702	0.079602
H51	H	1.827386	-0.406856	-0.015130
H52	H	1.654872	-0.180913	0.077617
C53	C	1.603058	-0.405426	0.065570
H54	H	1.599526	-0.495210	0.064896
H55	H	1.544982	-0.361545	-0.048316
H56	H	1.555870	-0.377403	0.157310
C57	C	1.849442	-0.174874	-0.054780
H58	H	1.784558	-0.193752	-0.165125
H59	H	1.956994	-0.212529	-0.039962
H60	H	1.847586	-0.084481	-0.056798
C61	C	1.901297	-0.475511	0.625366
H62	H	1.983551	-0.536579	0.609904
H63	H	1.828586	-0.518408	0.679634
H64	H	1.948270	-0.415912	0.700760
H65	H	1.895454	-0.239500	0.579159
C66	C	1.648463	-0.191075	0.431629
H67	H	1.618481	-0.126748	0.330141
H68	H	1.648438	-0.152749	0.538363
H69	H	1.573736	-0.252757	0.418882
