data_functionalizedCrystal
_audit_creation_method	'MofGen! by Chris Wilmer'
_symmetry_space_group_name_H-M	'P1'
_symmetry_Int_Tables_number	1
_symmetry_cell_setting	triclinic
loop_
_symmetry_equiv_pos_as_xyz
  x,y,z
_cell_length_a	14.044220
_cell_length_b	19.188930
_cell_length_c	12.503572
_cell_angle_alpha	93.506241
_cell_angle_beta	86.164750
_cell_angle_gamma	88.166830
loop_
_atom_site_label
_atom_site_type_symbol
_atom_site_fract_x
_atom_site_fract_y
_atom_site_fract_z
O1	O	1.262485	0.164589	-0.089229
O2	O	0.986542	0.158515	-0.089255
O3	O	1.132475	0.060411	-0.089220
O4	O	1.116552	0.262693	-0.089264
O5	O	1.121500	0.067803	0.089419
O6	O	0.975567	0.165907	0.089384
O7	O	1.251510	0.171980	0.089411
Cu8	Cu	1.112536	0.169618	0.105709
Cu9	Cu	1.125516	0.160877	-0.105553
O10	O	1.105577	0.270084	0.089376
C11	C	0.945752	0.159553	0.000061
C12	C	0.840559	0.151624	0.000052
C13	C	0.647956	0.137129	0.000077
C14	C	0.590090	0.193363	0.000069
C15	C	0.482920	0.185298	0.000083
C16	C	0.755137	0.145193	0.000063
C17	C	1.126472	0.038063	0.000102
C18	C	1.124923	-0.039541	0.000112
C19	C	1.210552	-0.078939	0.000125
C20	C	1.209099	-0.151857	0.000108
C21	C	1.122010	-0.185374	0.000098
C22	C	1.036370	-0.145968	0.000079
C23	C	1.037826	-0.073051	0.000086
N24	N	1.051706	-0.295160	0.060886
N25	N	1.050328	-0.364427	0.060882
C26	C	1.117616	-0.405067	0.000076
N27	N	1.186348	-0.373823	-0.060712
N28	N	1.187729	-0.304548	-0.060704
C29	C	1.120421	-0.264440	0.000091
C30	C	1.201676	-0.523532	0.000069
C31	C	1.200219	-0.596451	0.000045
C32	C	1.027487	-0.590560	0.000028
C33	C	1.028947	-0.517642	0.000041
C34	C	1.116043	-0.484132	0.000067
C35	C	1.292301	0.170943	0.000092
C36	C	1.397493	0.178872	0.000094
C37	C	1.111580	0.292433	0.000051
C38	C	1.113129	0.370037	0.000034
N39	N	1.103414	0.175766	0.254299
N40	N	1.134645	0.154724	-0.254143
C41	C	1.089995	0.184816	0.473411
C42	C	1.148061	0.145676	0.526752
C43	C	1.140595	0.150712	0.648673
C44	C	1.097461	0.179782	0.351478
H45	H	1.278831	-0.183941	0.000114
H46	H	1.281473	-0.051660	0.000142
H47	H	1.203381	0.108386	0.480852
O48	O	0.954696	-0.034695	0.000221
C49	C	0.850383	0.054835	0.092801
C50	C	0.944566	0.011455	0.092767
H51	H	0.842153	0.092147	0.167628
H52	H	0.851327	0.086088	0.018097
H53	H	0.787904	0.018342	0.092735
H54	H	1.007095	0.047897	0.092871
H55	H	0.943538	-0.019807	0.167465
O56	O	1.283489	-0.634618	0.000105
C57	C	1.454968	-0.632765	0.000081
C58	C	1.360734	-0.589455	0.000037
H59	H	1.517447	-0.596270	0.000003
H60	H	1.454069	-0.663951	0.074853
H61	H	1.463151	-0.670148	-0.074667
H62	H	1.352491	-0.552034	0.074735
H63	H	1.361675	-0.558317	-0.074785
O64	O	0.627164	0.257972	-0.000026
C65	C	0.769336	0.325023	-0.000055
C66	C	0.727472	0.251817	0.000046
H67	H	0.850439	0.320072	0.000026
H68	H	0.748908	0.351497	-0.074850
H69	H	0.739638	0.357703	0.074671
H70	H	0.757148	0.219081	-0.074628
H71	H	0.747892	0.225397	0.074891
O72	O	0.610891	0.072520	0.000041
C73	C	0.468707	0.005480	0.000121
C74	C	0.510573	0.078688	0.000142
H75	H	0.387594	0.010444	0.000225
H76	H	0.498290	-0.027199	-0.074657
H77	H	0.489251	-0.021002	0.074864
H78	H	0.490046	0.105231	-0.074550
H79	H	0.480992	0.111317	0.074969
H80	H	1.272595	-0.496247	0.000085
O81	O	0.951840	-0.178608	-0.000071
C82	C	0.855618	-0.261304	-0.092669
C83	C	0.951401	-0.224402	-0.092613
H84	H	0.855224	-0.298326	-0.167492
H85	H	0.846012	-0.292257	-0.017961
H86	H	0.794677	-0.220602	-0.092625
H87	H	1.012400	-0.265057	-0.092695
H88	H	0.960924	-0.193435	-0.167314
O89	O	0.942968	-0.623218	0.000061
C90	C	0.864176	-0.732943	-0.000039
C91	C	0.959960	-0.696041	-0.000043
H92	H	0.877882	-0.791826	-0.000145
H93	H	0.817261	-0.714124	0.074734
H94	H	0.826472	-0.720192	-0.074786
H95	H	0.997744	-0.708775	0.074654
H96	H	1.006805	-0.714863	-0.074865
O97	O	0.945674	-0.479470	0.000089
C98	C	0.774201	-0.481326	0.000010
C99	C	0.868439	-0.524639	-0.000016
H100	H	0.711733	-0.517828	-0.000098
H101	H	0.765906	-0.443974	0.074792
H102	H	0.775209	-0.450106	-0.074729
H103	H	0.867498	-0.555901	0.074672
H104	H	0.876697	-0.561947	-0.074847
H105	H	1.034680	0.222105	0.519305
