data_functionalizedCrystal
_audit_creation_method	'MofGen! by Chris Wilmer'
_symmetry_space_group_name_H-M	'P1'
_symmetry_Int_Tables_number	1
_symmetry_cell_setting	triclinic
loop_
_symmetry_equiv_pos_as_xyz
  x,y,z
_cell_length_a	14.853567
_cell_length_b	14.853567
_cell_length_c	13.930277
_cell_angle_alpha	89.999243
_cell_angle_beta	89.995755
_cell_angle_gamma	83.634930
loop_
_atom_site_label
_atom_site_type_symbol
_atom_site_fract_x
_atom_site_fract_y
_atom_site_fract_z
O1	O	1.196368	0.117704	-0.079756
O2	O	0.933909	0.131725	-0.079772
O3	O	1.072149	-0.006516	-0.079767
O4	O	1.058128	0.255944	-0.079762
O5	O	1.072130	-0.006519	0.079895
O6	O	0.933890	0.131722	0.079890
O7	O	1.196349	0.117701	0.079905
Zn8	Zn	1.065116	0.124711	0.105247
Zn9	Zn	1.065142	0.124715	-0.105114
O10	O	1.058109	0.255941	0.079900
C11	C	0.900311	0.131088	0.000057
C12	C	0.800227	0.129184	0.000051
C13	C	1.071504	-0.040106	0.000061
C14	C	1.069601	-0.140189	0.000053
C15	C	0.387693	0.039019	0.000070
C16	C	0.366412	0.203251	0.000073
C17	C	0.460446	0.205042	0.000070
C18	C	0.518108	0.123819	0.000066
C19	C	0.481736	0.040806	0.000065
C20	C	0.496825	0.288053	0.000061
C21	C	0.590864	0.289846	0.000057
C22	C	0.648528	0.208623	0.000060
C23	C	0.612150	0.125607	0.000060
C24	C	0.669812	0.044384	0.000056
C25	C	0.633437	-0.038633	0.000063
C26	C	0.539399	-0.040417	0.000067
C27	C	0.742565	0.210407	0.000055
C28	C	0.763855	0.046172	0.000050
C29	C	0.979435	-0.552723	0.000066
C30	C	1.143668	-0.574004	0.000076
C31	C	1.145458	-0.479971	0.000070
C32	C	1.064235	-0.422309	0.000064
C33	C	0.981223	-0.458680	0.000063
C34	C	1.228469	-0.443591	0.000080
C35	C	1.230262	-0.349552	0.000076
C36	C	1.149039	-0.291889	0.000063
C37	C	1.066023	-0.328266	0.000061
C38	C	0.984800	-0.270604	0.000055
C39	C	0.901783	-0.306979	0.000047
C40	C	0.899999	-0.401017	0.000050
C41	C	1.150823	-0.197851	0.000059
C42	C	0.986588	-0.176561	0.000052
C43	C	1.229947	0.118337	0.000075
C44	C	1.330031	0.120241	0.000075
C45	C	1.058754	0.289531	0.000070
C46	C	1.060657	0.389615	0.000072
N47	N	1.065106	0.124708	0.248814
N48	N	1.065160	0.124711	-0.248680
C49	C	1.003926	0.185904	0.701081
C50	C	1.126382	0.063519	0.701055
C51	C	1.126371	0.063516	0.600559
C52	C	1.065138	0.124709	0.550319
C53	C	1.003916	0.185904	0.600576
C54	C	1.187598	0.002328	0.550295
C55	C	1.187591	0.002323	0.449793
C56	C	1.126353	0.063512	0.399552
C57	C	1.065127	0.124710	0.449814
C58	C	1.003894	0.185902	0.399575
C59	C	0.942664	0.247096	0.449835
C60	C	0.942677	0.247094	0.550334
C61	C	1.126339	0.063515	0.299053
C62	C	1.003883	0.185903	0.299070
H63	H	0.810798	-0.019971	0.000050
N64	N	0.434624	0.375644	0.000034
H65	H	0.446338	0.411836	-0.059167
H66	H	0.369565	0.361822	0.000069
N67	N	0.695632	-0.126236	0.000051
H68	H	0.760722	-0.112500	0.000042
H69	H	0.683850	-0.162408	0.059243
N70	N	1.316062	-0.505790	0.000099
H71	H	1.318988	-0.545281	-0.059087
H72	H	1.368876	-0.468423	0.000145
H73	H	0.509774	-0.108005	0.000096
N74	N	1.240350	-0.158615	0.000078
H75	H	1.291533	-0.209413	0.000089
H76	H	1.244682	-0.120065	-0.059112
N77	N	1.192420	-0.002488	0.755229
H78	H	1.256413	0.008007	0.737724
H79	H	1.183062	0.006826	0.826505
N80	N	0.348456	-0.050512	0.000075
H81	H	0.369473	-0.086101	-0.059113
H82	H	0.369486	-0.086029	0.059300
N83	N	0.937893	0.251901	0.755290
H84	H	0.948349	0.315907	0.737798
H85	H	0.873926	0.241321	0.737788
N86	N	1.319796	-0.310321	0.000085
H87	H	1.370977	-0.361120	0.000091
H88	H	1.324123	-0.271773	-0.059107
N89	N	0.781797	0.299936	0.000052
H90	H	0.850119	0.288745	0.000051
H91	H	0.760716	0.335479	-0.059138
H92	H	0.954016	0.235731	0.258171
N93	N	0.304223	0.290850	0.000067
H94	H	0.315929	0.327065	0.059252
H95	H	0.315972	0.326985	-0.059161
H96	H	1.209795	-0.620958	0.000088
H97	H	0.892811	0.296924	0.408919
N98	N	0.810465	-0.440247	0.000057
H99	H	0.774879	-0.419237	-0.059132
H100	H	0.821734	-0.508562	0.000102
N101	N	0.876641	0.313090	0.604542
H102	H	0.885944	0.303805	0.675830
H103	H	0.887128	0.377066	0.586971
N104	N	1.253646	-0.063662	0.604478
H105	H	1.244358	-0.054378	0.675770
H106	H	1.243160	-0.127640	0.586915
N107	N	1.253627	-0.063675	0.395587
H108	H	1.292418	-0.102439	0.442665
H109	H	1.219059	-0.103597	0.353901
N110	N	0.630084	0.379385	0.000047
H111	H	0.609061	0.414973	0.059234
H112	H	0.698400	0.368127	0.000008
N113	N	0.898982	-0.114371	0.000038
H114	H	0.846125	-0.151686	0.000032
H115	H	0.896136	-0.074891	0.059227
N116	N	0.814188	-0.244773	0.000058
H117	H	0.811278	-0.205275	-0.059123
H118	H	0.761370	-0.282135	0.000093
H119	H	0.911844	-0.582344	0.000055
H120	H	1.176196	0.013696	0.258136
