data_functionalizedCrystal
_audit_creation_method	'MofGen! by Chris Wilmer'
_symmetry_space_group_name_H-M	'P1'
_symmetry_Int_Tables_number	1
_symmetry_cell_setting	triclinic
loop_
_symmetry_equiv_pos_as_xyz
  x,y,z
_cell_length_a	18.215407
_cell_length_b	12.594516
_cell_length_c	18.215399
_cell_angle_alpha	89.977475
_cell_angle_beta	89.980650
_cell_angle_gamma	90.016501
loop_
_atom_site_label
_atom_site_type_symbol
_atom_site_fract_x
_atom_site_fract_y
_atom_site_fract_z
Zn1	Zn	1.125114	-0.423736	-0.416146
Zn2	Zn	1.625114	0.076264	0.083854
Zn3	Zn	1.125042	-0.601735	-0.293092
Zn4	Zn	1.625042	-0.101735	0.206908
Zn5	Zn	1.002047	-0.423772	-0.293093
Zn6	Zn	1.502047	0.076228	0.206907
Zn7	Zn	1.002031	-0.601674	-0.416117
Zn8	Zn	1.502031	-0.101674	0.083883
O9	O	1.063558	-0.512729	-0.354612
O10	O	1.563558	-0.012729	0.145388
O11	O	1.228088	-0.447358	-0.399834
O12	O	1.728088	0.052642	0.100166
O13	O	1.108703	-0.578168	-0.190108
O14	O	1.608703	-0.078168	0.309892
O15	O	1.018409	-0.274821	-0.309429
O16	O	1.518409	0.225179	0.190571
O17	O	1.228036	-0.578133	-0.309427
O18	O	1.728036	-0.078133	0.190573
O19	O	1.108825	-0.274795	-0.399835
O20	O	1.608825	0.225205	0.100165
O21	O	1.018340	-0.447420	-0.190109
O22	O	1.518340	0.052580	0.309891
O23	O	0.899061	-0.447361	-0.309401
O24	O	1.399061	0.052639	0.190599
O25	O	1.018381	-0.578030	-0.519105
O26	O	1.518381	-0.078030	-0.019105
O27	O	0.899049	-0.578065	-0.399786
O28	O	1.399049	-0.078065	0.100214
O29	O	1.108810	-0.447299	-0.519126
O30	O	1.608810	0.052701	-0.019126
O31	O	1.108688	-0.750672	-0.309399
O32	O	1.608688	-0.250672	0.190601
O33	O	1.018312	-0.750628	-0.399785
O34	O	1.518312	-0.250628	0.100215
C35	C	0.872352	-0.512711	-0.354591
C36	C	1.372352	-0.012711	0.145409
C37	C	0.790553	-0.512729	-0.354599
C38	C	1.290553	-0.012729	0.145401
C39	C	0.602372	-0.580893	-0.401604
C40	C	1.102372	-0.080893	0.098396
C41	C	0.525514	-0.580897	-0.401613
C42	C	1.025514	-0.080897	0.098387
C43	C	0.525496	-0.444584	-0.307636
C44	C	1.025496	0.055416	0.192364
C45	C	0.602354	-0.444576	-0.307631
C46	C	1.102354	0.055424	0.192369
C47	C	0.640790	-0.512737	-0.354614
C48	C	1.140790	-0.012737	0.145386
C49	C	0.487074	-0.512748	-0.354628
C50	C	0.987074	-0.012748	0.145372
C51	C	0.403740	-0.512751	-0.354638
C52	C	0.903740	-0.012751	0.145362
C53	C	0.724129	-0.512733	-0.354606
C54	C	1.224129	-0.012733	0.145394
C55	C	1.063510	-0.789270	-0.354605
C56	C	1.563510	-0.289270	0.145395
C57	C	1.063557	-0.907576	-0.354626
C58	C	1.563557	-0.407576	0.145374
C59	C	1.014397	-0.976843	-0.403753
C60	C	1.514397	-0.476843	0.096247
C61	C	0.996468	-1.047703	-0.336600
C62	C	1.496468	-0.547703	0.163400
C63	C	1.081553	-1.047515	-0.421791
C64	C	1.581553	-0.547515	0.078209
C65	C	1.045593	-0.976877	-0.287438
C66	C	1.545593	-0.476877	0.212562
C67	C	1.130709	-0.976683	-0.372674
C68	C	1.630709	-0.476683	0.127326
C69	C	1.112805	-1.047511	-0.305475
C70	C	1.612805	-0.547511	0.194525
C71	C	1.255511	-0.512748	-0.354634
C72	C	1.755511	-0.012748	0.145366
C73	C	1.337310	-0.512756	-0.354643
C74	C	1.837310	-0.012756	0.145357
C75	C	1.063602	-0.512654	-0.546565
C76	C	1.563602	-0.012654	-0.046565
C77	C	1.063620	-0.512622	-0.628364
C78	C	1.563620	-0.012622	-0.128364
C79	C	1.063627	-0.235108	-0.354635
C80	C	1.563627	0.264892	0.145365
C81	C	1.063656	-0.116803	-0.354645
C82	C	1.563656	0.383197	0.145355
C83	C	1.110733	-0.444458	-0.893434
C84	C	1.610733	0.055542	-0.393434
C85	C	1.110725	-0.444487	-0.816575
C86	C	1.610725	0.055513	-0.316575
C87	C	1.016567	-0.580631	-0.816543
C88	C	1.516567	-0.080631	-0.316543
C89	C	1.016580	-0.580606	-0.893400
C90	C	1.516580	-0.080606	-0.393400
C91	C	1.063662	-0.512514	-0.931844
C92	C	1.563662	-0.012514	-0.431844
C93	C	1.063640	-0.512567	-0.778127
C94	C	1.563640	-0.012567	-0.278127
C95	C	1.063630	-0.512599	-0.694794
C96	C	1.563630	-0.012599	-0.194794
C97	C	1.063673	-0.512484	-1.015183
C98	C	1.563673	-0.012484	-0.515183
C99	C	1.063558	-0.512728	-0.163406
C100	C	1.563558	-0.012728	0.336594
C101	C	1.063682	-0.512460	-0.081607
C102	C	1.563682	-0.012460	0.418393
H103	H	0.494238	-0.636395	-0.439878
H104	H	0.994238	-0.136395	0.060122
H105	H	0.978233	-0.636067	-0.785233
H106	H	1.478233	-0.136067	-0.285233
N107	N	0.484041	-0.371099	-0.256945
N108	N	0.984041	0.128901	0.243055
H109	H	0.429522	-0.381456	-0.264070
H110	H	0.929522	0.118544	0.235930
H111	H	0.497463	-0.387597	-0.204373
H112	H	0.997463	0.112403	0.295627
H113	H	0.633634	-0.389069	-0.269367
H114	H	1.133634	0.110931	0.230633
N115	N	0.965798	-0.654002	-0.934832
N116	N	1.465798	-0.154002	-0.434832
H117	H	0.972952	-0.643654	-0.989354
H118	H	1.472952	-0.143654	-0.489354
H119	H	0.977231	-0.730026	-0.921393
H120	H	1.477231	-0.230026	-0.421393
H121	H	1.187438	-0.945468	-0.387956
H122	H	1.687438	-0.445468	0.112044
H123	H	1.096734	-1.078544	-0.478583
H124	H	1.596734	-0.578544	0.021417
H125	H	1.149070	-0.389013	-0.924732
H126	H	1.649070	0.110987	-0.424732
N127	N	1.161497	-0.371089	-0.775146
N128	N	1.661497	0.128911	-0.275146
H129	H	1.191324	-0.327953	-0.811165
H130	H	1.691324	0.172047	-0.311165
H131	H	1.131547	-0.321843	-0.743256
H132	H	1.631547	0.178157	-0.243256
H133	H	0.633665	-0.636391	-0.439862
H134	H	1.133665	-0.136391	0.060138
H135	H	0.939725	-1.078921	-0.321350
H136	H	1.439725	-0.578921	0.178650
N137	N	0.959238	-0.935735	-0.458707
N138	N	1.459238	-0.435735	0.041293
H139	H	0.908562	-0.961574	-0.444981
H140	H	1.408562	-0.461574	0.055019
H141	H	0.959983	-0.855552	-0.458620
H142	H	1.459983	-0.355552	0.041380
H143	H	1.154421	-1.078344	-0.263891
H144	H	1.654421	-0.578344	0.236109
N145	N	1.025400	-0.935959	-0.212186
N146	N	1.525400	-0.435959	0.287814
H147	H	1.025465	-0.855768	-0.212648
H148	H	1.525465	-0.355768	0.287352
H149	H	0.974891	-0.962498	-0.198494
H150	H	1.474891	-0.462498	0.301506
