data_functionalizedCrystal
_audit_creation_method	'MofGen! by Chris Wilmer'
_symmetry_space_group_name_H-M	'P1'
_symmetry_Int_Tables_number	1
_symmetry_cell_setting	triclinic
loop_
_symmetry_equiv_pos_as_xyz
  x,y,z
_cell_length_a	10.654550
_cell_length_b	17.038272
_cell_length_c	9.130313
_cell_angle_alpha	90.003264
_cell_angle_beta	90.000488
_cell_angle_gamma	87.798243
loop_
_atom_site_label
_atom_site_type_symbol
_atom_site_fract_x
_atom_site_fract_y
_atom_site_fract_z
O1	O	1.678043	0.109876	0.121691
O2	O	1.313536	0.120345	0.121718
O3	O	1.493623	0.001283	0.121693
O4	O	1.497956	0.228938	0.121716
O5	O	1.493609	0.001283	-0.121906
O6	O	1.313522	0.120345	-0.121881
O7	O	1.678028	0.109876	-0.121908
Cu8	Cu	1.495774	0.115111	-0.144137
Cu9	Cu	1.495791	0.115110	0.143947
O10	O	1.497941	0.228938	-0.121883
C11	C	1.266660	0.119576	-0.000078
C12	C	1.127003	0.117276	-0.000068
C13	C	1.489675	-0.027867	-0.000106
C14	C	1.477918	-0.114726	-0.000104
C15	C	1.054026	0.187378	-0.000065
C16	C	0.922805	0.185213	-0.000091
C17	C	0.937548	0.042838	-0.000116
C18	C	1.068767	0.045004	-0.000101
C19	C	1.585862	-0.164237	-0.000114
C20	C	1.574808	-0.245849	-0.000099
C21	C	1.455808	-0.277949	-0.000085
C22	C	1.347855	-0.228431	-0.000072
C23	C	1.358911	-0.146820	-0.000076
C24	C	1.416750	-0.523925	-0.000063
C25	C	1.405702	-0.605542	-0.000063
C26	C	1.632655	-0.622955	-0.000088
C27	C	1.643701	-0.541341	-0.000101
C28	C	1.535748	-0.491831	-0.000079
C29	C	1.444505	-0.361369	-0.000075
C30	C	1.547052	-0.408412	-0.000079
C31	C	1.724905	0.110645	-0.000108
C32	C	1.864561	0.112945	-0.000109
C33	C	1.501889	0.258088	-0.000081
C34	C	1.513646	0.344947	-0.000072
N35	N	1.495771	0.115110	-0.346759
C36	C	1.577049	0.163000	-0.423407
C37	C	1.577068	0.162995	-0.576744
C38	C	1.414521	0.067210	-0.576772
C39	C	1.414509	0.067211	-0.423438
N40	N	1.495803	0.115105	0.346570
H41	H	0.863392	0.242297	-0.000091
H42	H	0.890116	-0.016004	-0.000152
H43	H	1.128187	-0.012085	-0.000107
H44	H	1.643941	-0.382273	-0.000058
H45	H	1.682764	-0.138109	-0.000134
O46	O	1.110397	0.257647	-0.000111
C47	C	1.017840	0.319055	-0.000079
H48	H	0.926468	0.296641	-0.046211
H49	H	1.050602	0.369469	-0.070793
H50	H	1.001608	0.340713	0.116788
H51	H	1.348360	0.028213	-0.639222
H52	H	1.662708	-0.286159	-0.000110
O53	O	1.759394	-0.510292	-0.000054
C54	C	1.852301	-0.571493	-0.000103
H55	H	1.811165	-0.627113	0.046034
H56	H	1.934870	-0.553998	0.070599
H57	H	1.885996	-0.582858	-0.116975
H58	H	1.643217	0.202002	-0.360979
O59	O	1.737385	-0.671161	-0.000031
C60	C	1.702117	-0.750077	-0.000060
H61	H	1.603088	-0.753739	0.046062
H62	H	1.770390	-0.786650	0.070663
H63	H	1.704356	-0.773655	-0.116926
O64	O	1.335430	0.020667	-0.349200
C65	C	1.263724	-0.021620	-0.449755
H66	H	1.259848	0.010721	-0.559056
H67	H	1.164398	-0.027047	-0.405456
H68	H	1.308939	-0.082727	-0.466062
O69	O	1.655846	0.209559	-0.651361
C70	C	1.584934	0.262506	-0.740040
H71	H	1.489107	0.237618	-0.763029
H72	H	1.636389	0.271511	-0.847856
H73	H	1.571965	0.321203	-0.680947
H74	H	1.328847	-0.483623	-0.000045
O75	O	1.290003	-0.636595	0.000032
C76	C	1.197091	-0.575397	0.000020
H77	H	1.238239	-0.519771	0.046127
H78	H	1.114550	-0.592888	0.070765
H79	H	1.163351	-0.564044	-0.116838
H80	H	1.250963	-0.254573	-0.000051
O81	O	1.253926	-0.098835	-0.000132
C82	C	1.146522	-0.144664	-0.000081
H83	H	1.171901	-0.205393	-0.046207
H84	H	1.070344	-0.114994	-0.070790
H85	H	1.110469	-0.150665	0.116791
H86	H	1.347615	-0.387514	-0.000067
