data_functionalizedCrystal
_audit_creation_method	'MofGen! by Chris Wilmer'
_symmetry_space_group_name_H-M	'P1'
_symmetry_Int_Tables_number	1
_symmetry_cell_setting	triclinic
loop_
_symmetry_equiv_pos_as_xyz
  x,y,z
_cell_length_a	17.699077
_cell_length_b	12.811415
_cell_length_c	16.776229
_cell_angle_alpha	84.562504
_cell_angle_beta	89.993415
_cell_angle_gamma	83.663755
loop_
_atom_site_label
_atom_site_type_symbol
_atom_site_fract_x
_atom_site_fract_y
_atom_site_fract_z
O1	O	1.004676	0.132702	-0.075869
O2	O	1.504676	0.632702	0.424131
O3	O	0.784374	0.149977	-0.077121
O4	O	1.284374	0.649977	0.422879
O5	O	0.900067	-0.011468	-0.065445
O6	O	1.400067	0.488532	0.434555
O7	O	0.888984	0.294147	-0.087545
O8	O	1.388984	0.794147	0.412455
O9	O	0.900051	-0.011477	0.067132
O10	O	1.400051	0.488523	0.567132
O11	O	0.784359	0.149968	0.055456
O12	O	1.284359	0.649968	0.555456
O13	O	1.004661	0.132692	0.056708
O14	O	1.504661	0.632692	0.556708
Zn15	Zn	0.894507	0.141328	0.077132
Zn16	Zn	1.394507	0.641328	0.577132
Zn17	Zn	0.894528	0.141341	-0.097545
Zn18	Zn	1.394528	0.641341	0.402455
O19	O	0.888968	0.294137	0.045032
O20	O	1.388968	0.794137	0.545032
C21	C	0.756167	0.149355	-0.010789
C22	C	1.256167	0.649355	0.489211
C23	C	0.672140	0.147501	-0.010656
C24	C	1.172140	0.647501	0.489344
C25	C	0.632660	0.146622	0.061676
C26	C	1.132660	0.646622	0.561676
C27	C	0.553710	0.144863	0.061804
C28	C	1.053710	0.644863	0.561804
C29	C	0.514240	0.143991	-0.010401
C30	C	1.014240	0.643991	0.489599
C31	C	0.553726	0.144867	-0.082739
C32	C	1.053726	0.644867	0.417261
C33	C	0.632675	0.146618	-0.082865
C34	C	1.132675	0.646618	0.417135
C35	C	0.235331	0.137804	-0.082229
C36	C	0.735331	0.637804	0.417771
C37	C	0.156375	0.136055	-0.082097
C38	C	0.656375	0.636055	0.417903
C39	C	0.156365	0.136049	0.062440
C40	C	0.656365	0.636049	0.562440
C41	C	0.235315	0.137800	0.062313
C42	C	0.735315	0.637800	0.562313
C43	C	0.274794	0.138670	-0.010023
C44	C	0.774794	0.638670	0.489977
C45	C	0.360401	0.140575	-0.010161
C46	C	0.860401	0.640575	0.489839
C47	C	0.428634	0.142094	-0.010265
C48	C	0.928634	0.642094	0.489735
C49	C	0.899438	-0.050575	0.003669
C50	C	1.399438	0.449425	0.503669
C51	C	0.897577	-0.167089	0.012089
C52	C	1.397577	0.332911	0.512089
C53	C	0.894084	-0.386009	-0.116641
C54	C	1.394084	0.113991	0.383359
C55	C	0.892335	-0.495484	-0.108733
C56	C	1.392335	0.004516	0.391267
C57	C	0.892327	-0.495515	0.035812
C58	C	1.392327	0.004485	0.535812
C59	C	0.894075	-0.386040	0.027904
C60	C	1.394075	0.113960	0.527904
C61	C	0.894955	-0.331291	-0.048325
C62	C	1.394955	0.168709	0.451675
C63	C	0.896708	-0.221815	-0.056232
C64	C	1.396708	0.278185	0.443768
C65	C	0.896694	-0.221848	0.088312
C66	C	1.396694	0.278152	0.588312
C67	C	0.894946	-0.331323	0.096220
C68	C	1.394946	0.168677	0.596220
C69	C	1.032868	0.133315	-0.009626
C70	C	1.532868	0.633315	0.490374
C71	C	1.116895	0.135169	-0.009764
C72	C	1.616895	0.635169	0.490236
C73	C	0.889597	0.333245	-0.024084
C74	C	1.389597	0.833245	0.475916
C75	C	0.891458	0.449759	-0.032509
C76	C	1.391458	0.949759	0.467491
N77	N	0.894499	0.141319	0.196343
N78	N	1.394499	0.641319	0.696343
N79	N	0.894542	0.141343	-0.216756
N80	N	1.394542	0.641343	0.283244
C81	C	0.945743	0.069860	0.243229
C82	C	1.445743	0.569860	0.743229
C83	C	0.945747	0.069859	0.326681
C84	C	1.445747	0.569859	0.826681
C85	C	0.894510	0.141323	0.363246
C86	C	1.394510	0.641323	0.863246
C87	C	0.843260	0.212785	0.316355
C88	C	1.343260	0.712785	0.816355
C89	C	0.843253	0.212780	0.232905
C90	C	1.343253	0.712780	0.732905
C91	C	0.843288	0.212805	0.652901
C92	C	1.343288	0.712805	1.152901
C93	C	0.843301	0.212807	0.736357
C94	C	1.343301	0.712807	1.236357
C95	C	0.945782	0.069885	0.746677
C96	C	1.445782	0.569885	1.246677
C97	C	0.945775	0.069880	0.663227
C98	C	1.445775	0.569880	1.163227
C99	C	0.894523	0.141338	0.616343
C100	C	1.394523	0.641338	1.116343
C101	C	0.894518	0.141336	0.525855
C102	C	1.394518	0.641336	1.025855
C103	C	0.894518	0.141330	0.453732
C104	C	1.394518	0.641330	0.953732
H105	H	0.521584	0.144149	-0.141529
H106	H	1.021584	0.644149	0.358471
F107	F	0.897627	-0.163607	0.161024
F108	F	1.397627	0.336393	0.661024
H109	H	0.267447	0.138515	0.121110
H110	H	0.767447	0.638515	0.621110
F111	F	0.891372	-0.553798	0.116932
F112	F	1.391372	-0.053798	0.616932
H113	H	0.801524	0.270967	0.194731
H114	H	1.301524	0.770967	0.694731
F115	F	0.894003	-0.389601	0.177343
F116	F	1.394003	0.110399	0.677343
H117	H	0.891623	-0.540030	-0.164363
H118	H	1.391623	-0.040030	0.335637
H119	H	0.897427	-0.177240	-0.118301
H120	H	1.397427	0.322760	0.381699
H121	H	0.987469	0.011671	0.213463
H122	H	1.487469	0.511671	0.713463
F123	F	1.000310	-0.006177	0.624314
F124	F	1.500310	0.493823	1.124314
F125	F	0.788764	0.288871	0.775270
F126	F	1.288764	0.788871	1.275270
H127	H	0.894807	-0.341432	-0.178709
H128	H	1.394807	0.158568	0.321291
F129	F	1.000286	-0.006196	0.376580
F130	F	1.500286	0.493804	0.876580
H131	H	0.664818	0.147336	-0.141765
H132	H	1.164818	0.647336	0.358235
H133	H	0.987512	0.011697	0.784859
H134	H	1.487512	0.511697	1.284859
F135	F	0.788744	0.288858	0.603010
F136	F	1.288744	0.788858	1.103010
F137	F	0.788726	0.288838	0.355271
F138	F	1.288726	0.788838	0.855271
H139	H	0.664790	0.147341	0.120473
H140	H	1.164790	0.647341	0.620473
F141	F	0.277337	0.138731	-0.159216
F142	F	0.777337	0.638731	0.340784
F143	F	0.114343	0.135118	0.139428
F144	F	0.614343	0.635118	0.639428
F145	F	0.511695	0.143942	0.138788
F146	F	1.011695	0.643942	0.638788
H147	H	0.124241	0.135344	-0.140899
H148	H	0.624241	0.635344	0.359101
