data_functionalizedCrystal
_audit_creation_method	'MofGen! by Chris Wilmer'
_symmetry_space_group_name_H-M	'P1'
_symmetry_Int_Tables_number	1
_symmetry_cell_setting	triclinic
loop_
_symmetry_equiv_pos_as_xyz
  x,y,z
_cell_length_a	12.759401
_cell_length_b	29.839131
_cell_length_c	12.759393
_cell_angle_alpha	90.044428
_cell_angle_beta	90.019480
_cell_angle_gamma	90.034343
loop_
_atom_site_label
_atom_site_type_symbol
_atom_site_fract_x
_atom_site_fract_y
_atom_site_fract_z
Zn1	Zn	1.606103	-0.178842	0.593913
Zn2	Zn	1.605935	-0.253979	0.418190
Zn3	Zn	1.430406	-0.178863	0.418248
Zn4	Zn	1.430331	-0.253945	0.593828
O5	O	1.518194	-0.216407	0.506045
O6	O	1.753102	-0.188815	0.570614
O7	O	1.582612	-0.244038	0.271176
O8	O	1.453814	-0.115993	0.441611
O9	O	1.752979	-0.244018	0.441511
O10	O	1.582898	-0.115978	0.570670
O11	O	1.453651	-0.188851	0.271219
O12	O	1.283375	-0.188817	0.441528
O13	O	1.453687	-0.243959	0.740860
O14	O	1.283320	-0.243979	0.570526
O15	O	1.582826	-0.188782	0.740922
O16	O	1.582539	-0.316842	0.441428
O17	O	1.453524	-0.316817	0.570469
C18	C	1.245227	-0.216397	0.506025
C19	C	1.128450	-0.216403	0.506041
C20	C	1.518034	-0.333130	0.505956
C21	C	1.518061	-0.383065	0.505953
C22	C	1.073586	-0.187643	0.438996
C23	C	0.963862	-0.187653	0.439009
C24	C	0.963876	-0.245187	0.573122
C25	C	1.073598	-0.245178	0.573103
C26	C	1.073577	-0.154425	0.361570
C27	C	0.963853	-0.154435	0.361583
C28	C	1.585393	-0.692665	0.573342
C29	C	1.585507	-0.880338	0.573405
O30	O	1.642599	-0.904566	0.630635
N31	N	1.518372	-0.903850	0.506161
C32	C	1.451199	-0.880440	0.438902
O33	O	1.394092	-0.904744	0.381716
C34	C	1.451081	-0.692768	0.438845
C35	C	1.518228	-0.669259	0.506085
C36	C	1.652534	-0.669156	0.640578
C37	C	1.652509	-0.622241	0.640557
C38	C	1.585343	-0.598834	0.573301
C39	C	1.518202	-0.622343	0.506065
C40	C	1.383903	-0.669359	0.371591
C41	C	1.383877	-0.622438	0.371585
C42	C	1.451024	-0.598929	0.438826
C43	C	1.451011	-0.552021	0.438788
N44	N	1.518147	-0.528510	0.506032
C45	C	1.585312	-0.551916	0.573288
C46	C	1.451268	-0.978970	0.438935
C47	C	1.451298	-1.025888	0.438948
C48	C	1.585606	-1.025783	0.573452
C49	C	1.585579	-0.978865	0.573434
C50	C	1.518403	-0.955459	0.506179
C51	C	1.585255	-0.453390	0.573239
C52	C	1.585227	-0.406471	0.573210
C53	C	1.450917	-0.406580	0.438709
C54	C	1.450948	-0.453495	0.438734
C55	C	1.518121	-0.476900	0.506008
O56	O	1.393942	-0.527764	0.381596
O57	O	1.642395	-0.527604	0.630482
C58	C	1.585419	-0.739580	0.573362
C59	C	1.518278	-0.763090	0.506126
C60	C	1.451112	-0.739683	0.438870
C61	C	1.518309	-0.810007	0.506139
C62	C	1.585474	-0.833414	0.573395
C63	C	1.652610	-0.809902	0.640639
C64	C	1.652584	-0.762987	0.640619
C65	C	1.383977	-0.763195	0.371626
C66	C	1.384008	-0.810110	0.371651
C67	C	1.451174	-0.833516	0.438908
C68	C	1.792227	-0.216418	0.506065
C69	C	1.909004	-0.216423	0.506074
C70	C	1.518267	-0.216364	0.780078
C71	C	1.518298	-0.216346	0.896855
C72	C	1.518383	-0.099229	0.506156
C73	C	1.518464	-0.049295	0.506204
C74	C	1.518182	-0.216418	0.233077
C75	C	1.518355	-0.216310	0.116301
C76	C	1.585451	-0.245071	0.951692
C77	C	1.585482	-0.245052	1.061416
C78	C	1.451199	-0.187581	1.061456
C79	C	1.451173	-0.187599	0.951734
C80	C	1.662975	-0.278253	0.951669
C81	C	1.663007	-0.278234	1.061394
H82	H	1.118264	-0.268602	0.627687
F83	F	1.724096	-0.834821	0.712215
H84	H	1.396280	-0.472638	0.383973
H85	H	1.707183	-0.603102	0.695313
F86	F	1.764089	-0.261957	1.105904
H87	H	0.919202	-0.268614	0.627721
H88	H	1.329331	-0.829247	0.316886
H89	H	1.641160	-0.313023	1.091138
H90	H	1.107656	-0.121386	0.390866
F91	F	1.112435	-0.166545	0.255152
F92	F	0.919300	-0.170672	0.260480
F93	F	1.724024	-0.694060	0.712172
H94	H	1.396632	-1.045025	0.384182
F95	F	0.924982	-0.108975	0.390285
H96	H	1.329281	-0.744141	0.316859
H97	H	1.639910	-0.387331	0.627965
F98	F	1.656749	-0.478292	0.644838
H99	H	1.640255	-0.959726	0.628187
H100	H	1.640296	-1.044849	0.628214
H101	H	1.396563	-0.959917	0.384165
H102	H	1.329225	-0.688492	0.316836
H103	H	1.633776	-0.311310	0.917602
H104	H	1.329171	-0.603383	0.316819
F105	F	1.379439	-0.381661	0.367133
H106	H	1.707261	-0.743849	0.695372
F107	F	1.379765	-0.156988	1.119872
F108	F	1.379713	-0.157020	0.893376
H109	H	1.744354	-0.268944	0.921911
