data_functionalizedCrystal
_audit_creation_method	'MofGen! by Chris Wilmer'
_symmetry_space_group_name_H-M	'P1'
_symmetry_Int_Tables_number	1
_symmetry_cell_setting	triclinic
loop_
_symmetry_equiv_pos_as_xyz
  x,y,z
_cell_length_a	6.817900
_cell_length_b	11.102289
_cell_length_c	10.773894
_cell_angle_alpha	95.422719
_cell_angle_beta	96.645922
_cell_angle_gamma	108.605707
loop_
_atom_site_label
_atom_site_type_symbol
_atom_site_fract_x
_atom_site_fract_y
_atom_site_fract_z
V1	V	-3.974360	-0.171169	-0.388944
O2	O	-3.936004	0.013031	-0.381540
O3	O	-3.952076	-0.344021	-0.386284
O4	O	-3.891317	-0.166427	-0.558576
O5	O	-3.997183	-0.165792	-0.208055
V6	V	-4.459093	-0.149386	-0.367308
O7	O	-4.232965	-0.218952	-0.436404
O8	O	-4.650687	-0.101602	-0.319849
O9	O	-4.258172	0.023467	-0.369969
O10	O	-4.614847	-0.333586	-0.374712
O11	O	-4.553667	-0.154762	-0.548197
O12	O	-4.318930	-0.154127	-0.197676
C13	C	-3.804550	-0.386225	-0.380148
C14	C	-3.867386	-0.527520	-0.379103
C15	C	-4.078719	-0.600299	-0.384836
C16	C	-4.137749	-0.733062	-0.383865
C17	C	-3.774092	-0.720254	-0.371425
C18	C	-3.715066	-0.587494	-0.372404
C19	C	-4.288673	-0.607695	-0.392013
C20	C	-4.347704	-0.740458	-0.391042
C21	C	-3.727046	-0.159684	-0.599922
C22	C	-3.740605	-0.156951	-0.738597
C23	C	-3.919395	-0.161688	-0.806459
C24	C	-3.933414	-0.158863	-0.949787
C25	C	-4.069041	0.065663	-0.376101
C26	C	-3.985442	0.206958	-0.377153
C27	C	-4.146546	-0.160874	-0.156323
C28	C	-4.112224	-0.163601	-0.017647
H29	H	-4.429063	-0.766450	-0.305829
O30	O	-4.089682	-0.169246	-0.749171
C31	C	-4.144195	-0.281460	-0.691066
H32	H	-4.080758	-0.354279	-0.738645
H33	H	-4.073920	-0.256757	-0.586815
C34	C	-4.462281	-0.249600	-0.645712
C35	C	-4.384382	-0.339042	-0.704157
H36	H	-4.610439	-0.285118	-0.653781
H37	H	-4.425553	-0.173997	-0.684854
H38	H	-4.403699	-0.229022	-0.558841
H39	H	-4.442944	-0.359607	-0.791028
H40	H	-4.421126	-0.414651	-0.665029
O41	O	-4.325541	-0.545238	-0.287143
C42	C	-4.262746	-0.412500	-0.294370
H43	H	-4.141343	-0.387536	-0.360644
H44	H	-4.404610	-0.385958	-0.331899
C45	C	-4.315619	-0.367742	-0.080647
C46	C	-4.166497	-0.337079	-0.162037
H47	H	-4.256257	-0.321217	0.000982
H48	H	-4.357934	-0.457170	-0.075779
H49	H	-4.433828	-0.345623	-0.111937
H50	H	-4.048304	-0.359213	-0.130755
H51	H	-4.124160	-0.247653	-0.166897
H52	H	-3.790705	-0.152708	-0.997791
H53	H	-4.446919	-0.797215	-0.483459
H54	H	-3.650087	-0.769102	-0.365972
H55	H	-3.597910	-0.150796	-0.786606
O56	O	-4.384266	-0.583609	-0.500217
C57	C	-4.603389	-0.635246	-0.506491
H58	H	-4.642798	-0.715474	-0.445294
H59	H	-4.665676	-0.556673	-0.470838
C60	C	-4.656970	-0.590882	-0.719338
C61	C	-4.705373	-0.689426	-0.644183
H62	H	-4.719882	-0.624298	-0.804273
H63	H	-4.509343	-0.556088	-0.715110
H64	H	-4.708878	-0.525412	-0.689613
H65	H	-4.653442	-0.754886	-0.673899
H66	H	-4.852995	-0.724232	-0.648419
H67	H	-3.542986	-0.528244	-0.367751
H68	H	-4.254932	-0.169752	-0.969644
