data_functionalizedCrystal
_audit_creation_method	'MofGen! by Chris Wilmer'
_symmetry_space_group_name_H-M	'P1'
_symmetry_Int_Tables_number	1
_symmetry_cell_setting	triclinic
loop_
_symmetry_equiv_pos_as_xyz
  x,y,z
_cell_length_a	6.817900
_cell_length_b	10.773890
_cell_length_c	11.102193
_cell_angle_alpha	95.424971
_cell_angle_beta	108.604059
_cell_angle_gamma	96.645716
loop_
_atom_site_label
_atom_site_type_symbol
_atom_site_fract_x
_atom_site_fract_y
_atom_site_fract_z
V1	V	-4.050643	-0.172603	-0.394187
O2	O	-4.073469	0.008285	-0.388814
O3	O	-3.967597	-0.342235	-0.389442
O4	O	-4.028352	-0.169952	-0.567040
O5	O	-4.012294	-0.165190	-0.209986
V6	V	-4.535377	-0.150967	-0.372404
O7	O	-4.309245	-0.220066	-0.441970
O8	O	-4.726973	-0.103504	-0.324621
O9	O	-4.395217	0.018665	-0.377149
O10	O	-4.629948	-0.331855	-0.377777
O11	O	-4.691124	-0.158380	-0.556605
O12	O	-4.334462	-0.153618	-0.199551
C13	C	-3.803325	-0.383587	-0.382695
C14	C	-3.816886	-0.522263	-0.379968
C15	C	-3.880823	-0.163822	-0.609238
C16	C	-3.943652	-0.162777	-0.750533
C17	C	-3.995677	-0.590126	-0.384707
C18	C	-4.009697	-0.733455	-0.381888
C19	C	-3.983403	-0.391260	-0.784119
C20	C	-4.032788	-0.505006	-0.867291
C21	C	-4.091823	-0.504017	-1.000048
C22	C	-4.101478	-0.389270	-1.049636
C23	C	-4.052092	-0.275525	-0.966464
C24	C	-3.993052	-0.276526	-0.833705
C25	C	-4.012357	-0.047045	-0.932879
C26	C	-3.953307	-0.048031	-0.800120
C27	C	-4.022011	0.067701	-0.982467
C28	C	-3.972611	0.181450	-0.899294
C29	C	-3.913571	0.180456	-0.766529
C30	C	-3.903921	0.065715	-0.716949
C31	C	-4.222829	0.060010	-0.383893
C32	C	-4.188508	0.198685	-0.386628
C33	C	-4.145331	-0.159752	-0.157347
C34	C	-4.061742	-0.160790	-0.016051
H35	H	-3.866997	-0.781461	-0.375751
O36	O	-3.846449	0.064976	-0.587953
C37	C	-3.804989	0.189970	-0.525173
H38	H	-3.764606	0.257407	-0.589942
H39	H	-3.667455	0.199565	-0.431927
H40	H	-3.949374	0.214011	-0.502884
O41	O	-4.023510	-0.616559	-0.819298
C42	C	-4.222590	-0.691948	-0.868040
H43	H	-4.348186	-0.629105	-0.898783
H44	H	-4.250442	-0.746613	-0.790440
H45	H	-4.230125	-0.761087	-0.954310
O46	O	-4.139581	-0.614416	-1.080965
C47	C	-4.002135	-0.614762	-1.152660
H48	H	-3.936128	-0.513449	-1.155936
H49	H	-4.090910	-0.663740	-1.254492
H50	H	-3.868228	-0.667378	-1.105531
O51	O	-3.981658	0.292992	-0.947299
C52	C	-3.782388	0.368168	-0.898607
H53	H	-3.687559	0.336942	-0.804968
H54	H	-3.801050	0.471310	-0.880069
H55	H	-3.697424	0.357041	-0.971408
H56	H	-4.149575	-0.388476	-1.157737
O57	O	-3.646598	-0.579549	-0.372410
C58	C	-3.592091	-0.637654	-0.260198
H59	H	-3.655535	-0.590076	-0.187379
H60	H	-3.414295	-0.627962	-0.217573
H61	H	-3.662362	-0.741906	-0.284905
O62	O	-4.166079	-0.532958	-0.392255
C63	C	-4.331060	-0.585524	-0.505801
H64	H	-4.264082	-0.629541	-0.578588
H65	H	-4.422145	-0.508327	-0.547364
H66	H	-4.440361	-0.661209	-0.483267
O67	O	-3.926194	-0.392451	-0.655196
C68	C	-3.928214	-0.518111	-0.629261
H69	H	-4.036616	-0.584399	-0.717501
H70	H	-3.986783	-0.529042	-0.544880
H71	H	-3.762881	-0.542505	-0.604431
O72	O	-4.079655	0.068493	-1.111460
C73	C	-4.283043	0.000257	-1.171100
H74	H	-4.318217	-0.068999	-1.106426
H75	H	-4.293448	-0.053908	-1.266804
H76	H	-4.401926	0.068498	-1.188299
H77	H	-4.331215	-0.753312	-0.392778
H78	H	-3.873372	0.273082	-0.698817
