data_functionalizedCrystal
_audit_creation_method	'MofGen! by Chris Wilmer'
_symmetry_space_group_name_H-M	'P1'
_symmetry_Int_Tables_number	1
_symmetry_cell_setting	triclinic
loop_
_symmetry_equiv_pos_as_xyz
  x,y,z
_cell_length_a	27.732048
_cell_length_b	10.540539
_cell_length_c	9.616153
_cell_angle_alpha	89.995080
_cell_angle_beta	90.012369
_cell_angle_gamma	83.584073
loop_
_atom_site_label
_atom_site_type_symbol
_atom_site_fract_x
_atom_site_fract_y
_atom_site_fract_z
O1	O	0.068116	1.682915	0.115597
O2	O	0.074534	1.313223	0.115616
O3	O	0.001001	1.509551	0.115579
O4	O	0.141650	1.486587	0.115634
O5	O	0.000993	1.509563	-0.115712
O6	O	0.074527	1.313235	-0.115676
O7	O	0.068109	1.682927	-0.115694
Zn8	Zn	0.071317	1.498083	-0.152407
Zn9	Zn	0.071326	1.498067	0.152329
O10	O	0.141642	1.486599	-0.115658
C11	C	0.074049	1.265947	-0.000028
C12	C	0.072609	1.125062	-0.000022
C13	C	0.017434	0.944031	-0.000583
C14	C	0.018894	1.090586	-0.000047
C15	C	0.098463	1.062260	0.132062
C16	C	0.096630	0.915795	0.132157
C17	C	0.097715	0.915272	-0.130864
C18	C	0.098209	1.062233	-0.132595
C19	C	-0.017013	1.509075	-0.000070
C20	C	-0.070677	1.507623	-0.000081
C21	C	-0.408819	1.614502	-0.000015
C22	C	-0.610513	1.609117	0.000004
O23	O	-0.641153	1.706850	0.000060
N24	N	-0.630369	1.492703	0.000009
C25	C	-0.599799	1.377627	0.000018
O26	O	-0.621317	1.278486	0.000036
C27	C	-0.398107	1.383013	0.000008
C28	C	-0.378253	1.499435	-0.000011
C29	C	-0.388965	1.730915	-0.000033
C30	C	-0.338544	1.732260	-0.000045
C31	C	-0.307978	1.617193	-0.000040
C32	C	-0.327832	1.500780	-0.000023
C33	C	-0.367538	1.267939	0.000027
C34	C	-0.317112	1.269296	0.000028
C35	C	-0.297258	1.385718	0.000009
C36	C	-0.246846	1.387058	-0.000031
N37	N	-0.226989	1.503472	-0.000036
C38	C	-0.257555	1.618540	-0.000040
C39	C	-0.705691	1.374807	0.000020
C40	C	-0.756114	1.373460	0.000020
C41	C	-0.766824	1.604950	0.000009
C42	C	-0.716400	1.606296	-0.000001
C43	C	-0.685834	1.491221	0.000015
C44	C	-0.151668	1.621356	-0.000068
C45	C	-0.101243	1.622691	-0.000086
C46	C	-0.090538	1.391201	-0.000068
C47	C	-0.140959	1.389865	-0.000057
C48	C	-0.171523	1.504953	-0.000052
O49	O	-0.216177	1.289378	-0.000071
O50	O	-0.236029	1.717666	-0.000028
C51	C	-0.459239	1.613157	-0.000003
C52	C	-0.479094	1.496745	0.000014
C53	C	-0.448528	1.381678	0.000019
C54	C	-0.529517	1.495398	0.000014
C55	C	-0.560083	1.610465	0.000009
C56	C	-0.540226	1.726879	0.000005
C57	C	-0.489806	1.728224	-0.000008
C58	C	-0.468384	1.265264	0.000023
C59	C	-0.518805	1.263928	0.000034
C60	C	-0.549371	1.378995	0.000030
C61	C	0.159656	1.487075	-0.000005
C62	C	0.213320	1.488527	0.000015
C63	C	0.068594	1.730203	-0.000048
C64	C	0.070034	1.871089	-0.000044
N65	N	0.071329	1.498058	0.360303
N66	N	0.071310	1.498103	-0.360382
C67	C	0.110702	1.393161	0.580693
C68	C	0.110610	1.392767	0.419525
C69	C	0.020757	1.470469	0.418760
C70	C	0.020977	1.469742	0.579978
C71	C	0.082041	1.630946	0.580189
C72	C	0.083196	1.630010	0.418962
H73	H	0.135262	0.866148	0.138167
F74	F	-0.388656	1.144025	0.000052
F75	F	0.044505	1.733001	0.629996
H76	H	0.137371	1.084759	-0.140555
F77	F	-0.284584	1.146813	0.000048
F78	F	0.074988	0.875039	-0.261726
F79	F	0.129245	1.666043	0.633384
F80	F	-0.162089	1.265957	-0.000062
F81	F	-0.673166	1.252319	0.000038
F82	F	-0.057998	1.268744	-0.000064
F83	F	-0.421489	1.853396	-0.000037
H84	H	0.077528	0.888409	0.230876
F85	F	-0.468682	1.852137	-0.000019
H86	H	-0.700239	1.701097	-0.000015
F87	F	0.159969	1.414017	0.631424
H88	H	0.079322	1.104020	-0.230310
F89	F	0.150020	1.089266	0.138531
H90	H	0.136513	0.866361	-0.131741
F91	F	-0.010185	0.905735	0.122511
F92	F	-0.007697	1.147450	-0.123804
F93	F	0.131826	1.657417	0.369037
H94	H	-0.565122	1.820571	-0.000005
F95	F	-0.010307	0.907873	-0.124397
F96	F	0.074997	1.118934	0.260531
F97	F	-0.007767	1.146272	0.124101
F98	F	-0.080117	1.746608	-0.000105
F99	F	-0.184191	1.743845	-0.000062
F100	F	-0.317421	1.856173	-0.000035
F101	F	-0.777238	1.249548	0.000015
H102	H	0.011610	1.372900	0.617585
F103	F	-0.539929	1.140007	0.000045
H104	H	-0.791720	1.698643	0.000005
H105	H	-0.009279	1.544916	0.380394
H106	H	0.011179	1.374736	0.378377
H107	H	-0.443502	1.171560	0.000030
H108	H	0.056415	1.711651	0.378646
F109	F	0.159721	1.413982	0.367867
H110	H	0.103881	1.295107	0.621212
F111	F	0.101576	1.263865	0.369118
H112	H	-0.009246	1.543338	0.618953
