data_functionalizedCrystal
_audit_creation_method	'MofGen! by Chris Wilmer'
_symmetry_space_group_name_H-M	'P1'
_symmetry_Int_Tables_number	1
_symmetry_cell_setting	triclinic
loop_
_symmetry_equiv_pos_as_xyz
  x,y,z
_cell_length_a	9.065218
_cell_length_b	10.654549
_cell_length_c	9.130313
_cell_angle_alpha	89.997498
_cell_angle_beta	90.003019
_cell_angle_gamma	95.249669
loop_
_atom_site_label
_atom_site_type_symbol
_atom_site_fract_x
_atom_site_fract_y
_atom_site_fract_z
O1	O	-0.207232	1.668660	-0.121760
O2	O	-0.226977	1.303260	-0.121770
O3	O	-0.002421	1.493513	-0.121761
O4	O	-0.431788	1.478408	-0.121770
O5	O	-0.002414	1.493500	0.121838
O6	O	-0.226970	1.303247	0.121829
O7	O	-0.207226	1.668647	0.121838
Cu8	Cu	-0.217097	1.485946	0.144076
Cu9	Cu	-0.217105	1.485962	-0.144008
O10	O	-0.431782	1.478394	0.121829
C11	C	-0.225524	1.256450	0.000028
C12	C	-0.221187	1.116989	0.000024
C13	C	-0.349315	0.906982	0.000027
C14	C	-0.353402	1.038019	0.000018
C15	C	-0.084876	1.064917	0.000024
C16	C	-0.080792	0.933883	0.000022
C17	C	-0.486764	1.479853	0.000029
C18	C	-0.650583	1.484193	0.000025
C19	C	0.052561	1.492055	0.000036
C20	C	0.216380	1.487714	0.000030
C21	C	-0.208679	1.715458	0.000037
C22	C	-0.213016	1.854918	0.000031
N23	N	-0.217091	1.485944	0.346699
N24	N	-0.217100	1.485973	-0.346630
C25	C	-0.117700	1.570217	0.423355
C26	C	-0.117700	1.570229	0.576691
C27	C	-0.316496	1.401691	0.576703
C28	C	-0.316487	1.401674	0.423369
H29	H	-0.036763	1.638833	0.360933
O30	O	-0.412848	1.319790	0.651348
C31	C	-0.332985	1.241408	0.740045
H32	H	-0.218075	1.290125	0.763016
H33	H	-0.321943	1.148465	0.680977
C34	C	-0.557022	1.155693	0.857481
C35	C	-0.415892	1.215534	0.885705
H36	H	-0.608164	1.139727	0.947328
H37	H	-0.610829	1.208497	0.797721
H38	H	-0.547800	1.078247	0.808254
H39	H	-0.425115	1.292985	0.934914
H40	H	-0.362088	1.162742	0.945477
H41	H	-0.456981	0.842692	0.000034
O42	O	0.051583	0.883242	-0.000234
C43	C	0.061953	0.808234	-0.126382
H44	H	-0.015470	0.840100	-0.214559
H45	H	0.028975	0.705311	-0.097863
C46	C	0.317509	0.783149	-0.075288
C47	C	0.222425	0.822294	-0.183594
H48	H	0.416496	0.791816	-0.110577
H49	H	0.310522	0.833679	0.009703
H50	H	0.290009	0.697382	-0.051533
H51	H	0.249914	0.908063	-0.207335
H52	H	0.229421	0.771779	-0.268591
H53	H	-0.464390	1.080402	0.000014
O54	O	-0.413250	1.319934	0.348963
C55	C	-0.559538	1.341983	0.386433
H56	H	-0.561366	1.442547	0.428564
H57	H	-0.602121	1.272870	0.475444
C58	C	-0.657101	1.200070	0.198464
C59	C	-0.659347	1.323588	0.250199
H60	H	-0.718670	1.188718	0.114432
H61	H	-0.558544	1.185211	0.173223
H62	H	-0.692583	1.142490	0.272653
H63	H	-0.623848	1.381165	0.176018
H64	H	-0.757900	1.338457	0.275425
O65	O	0.043597	1.141575	-0.000235
C66	C	0.126287	1.117725	-0.126378
H67	H	0.048852	1.073837	-0.214561
H68	H	0.212377	1.050051	-0.097855
C69	C	0.300031	1.296275	-0.075271
C70	C	0.204921	1.242382	-0.183584
H71	H	0.348542	1.373168	-0.110556
H72	H	0.244325	1.312342	0.009717
H73	H	0.371759	1.239869	-0.051512
H74	H	0.133184	1.298782	-0.207328
H75	H	0.260617	1.226328	-0.268577
H76	H	-0.036765	1.638850	0.639101
