data_functionalizedCrystal
_audit_creation_method	'MofGen! by Chris Wilmer'
_symmetry_space_group_name_H-M	'P1'
_symmetry_Int_Tables_number	1
_symmetry_cell_setting	triclinic
loop_
_symmetry_equiv_pos_as_xyz
  x,y,z
_cell_length_a	16.959455
_cell_length_b	16.959453
_cell_length_c	16.959447
_cell_angle_alpha	90.031571
_cell_angle_beta	90.014322
_cell_angle_gamma	90.019673
loop_
_atom_site_label
_atom_site_type_symbol
_atom_site_fract_x
_atom_site_fract_y
_atom_site_fract_z
Zn1	Zn	1.208369	-0.314730	0.446902
Zn2	Zn	1.708369	0.185270	0.946902
Zn3	Zn	1.208286	-0.446923	0.314720
Zn4	Zn	1.708286	0.053077	0.814720
Zn5	Zn	1.076198	-0.314755	0.314739
Zn6	Zn	1.576198	0.185245	0.814739
Zn7	Zn	1.076156	-0.446864	0.446859
Zn8	Zn	1.576156	0.053136	0.946859
O9	O	1.142252	-0.380818	0.380805
O10	O	1.642252	0.119182	0.880805
O11	O	1.318969	-0.332280	0.429378
O12	O	1.818969	0.167720	0.929378
O13	O	1.190746	-0.429426	0.204112
O14	O	1.690746	0.070574	0.704112
O15	O	1.093783	-0.204141	0.332297
O16	O	1.593783	0.295859	0.832297
O17	O	1.318908	-0.429402	0.332265
O18	O	1.818908	0.070598	0.832265
O19	O	1.190889	-0.204123	0.429396
O20	O	1.690889	0.295877	0.929396
O21	O	1.093702	-0.332323	0.204126
O22	O	1.593702	0.167677	0.704126
O23	O	0.965581	-0.332265	0.332255
O24	O	1.465581	0.167735	0.832255
O25	O	1.093712	-0.429301	0.557476
O26	O	1.593712	0.070699	1.057476
O27	O	0.965551	-0.429325	0.429323
O28	O	1.465551	0.070675	0.929323
O29	O	1.190849	-0.332223	0.557507
O30	O	1.690849	0.167777	1.057507
O31	O	1.190706	-0.557526	0.332223
O32	O	1.690706	-0.057526	0.832223
O33	O	1.093631	-0.557482	0.429305
O34	O	1.593631	-0.057482	0.929305
C35	C	0.936886	-0.380792	0.380787
C36	C	1.436886	0.119208	0.880787
C37	C	0.849029	-0.380800	0.380798
C38	C	1.349029	0.119200	0.880798
C39	C	1.142176	-0.586184	0.380774
C40	C	1.642176	-0.086184	0.880774
C41	C	1.142216	-0.674041	0.380788
C42	C	1.642216	-0.174041	0.880788
C43	C	0.477545	-0.330238	0.330367
C44	C	0.977545	0.169762	0.830367
C45	C	0.477562	-0.431463	0.431288
C46	C	0.977562	0.068537	0.931288
C47	C	0.560108	-0.431452	0.431283
C48	C	1.060108	0.068548	0.931283
C49	C	0.601376	-0.380834	0.380819
C50	C	1.101376	0.119166	0.880819
C51	C	0.560099	-0.330226	0.330359
C52	C	1.060099	0.169774	0.830359
C53	C	0.601392	-0.482064	0.481736
C54	C	1.101392	0.017936	0.981736
C55	C	0.683943	-0.482055	0.481733
C56	C	1.183943	0.017945	0.981733
C57	C	0.725213	-0.431432	0.431272
C58	C	1.225213	0.068568	0.931272
C59	C	0.683930	-0.380822	0.380811
C60	C	1.183930	0.119178	0.880811
C61	C	0.725198	-0.330204	0.330347
C62	C	1.225198	0.169796	0.830347
C63	C	0.683917	-0.279589	0.279889
C64	C	1.183917	0.220411	0.779889
C65	C	0.601368	-0.279603	0.279899
C66	C	1.101368	0.220397	0.779899
C67	C	0.807761	-0.431418	0.431262
C68	C	1.307761	0.068582	0.931262
C69	C	0.807752	-0.330193	0.330339
C70	C	1.307752	0.169807	0.830339
C71	C	1.091719	-0.715393	0.330197
C72	C	1.591719	-0.215393	0.830197
C73	C	1.192747	-0.715243	0.431396
C74	C	1.692747	-0.215243	0.931396
C75	C	1.192784	-0.797789	0.431413
C76	C	1.692784	-0.297789	0.931413
C77	C	1.142287	-0.839140	0.380822
C78	C	1.642287	-0.339140	0.880822
C79	C	1.091753	-0.797946	0.330214
C80	C	1.591753	-0.297946	0.830214
C81	C	1.243312	-0.838989	0.482026
C82	C	1.743312	-0.338989	0.982026
C83	C	1.243350	-0.921540	0.482046
C84	C	1.743350	-0.421540	0.982046
C85	C	1.192856	-0.962893	0.431450
C86	C	1.692856	-0.462893	0.931450
C87	C	1.142321	-0.921694	0.380839
C88	C	1.642321	-0.421694	0.880839
C89	C	1.091823	-0.963045	0.330248
C90	C	1.591823	-0.463045	0.830248
C91	C	1.041291	-0.921848	0.279633
C92	C	1.541291	-0.421848	0.779633
C93	C	1.041259	-0.839299	0.279618
C94	C	1.541259	-0.339299	0.779618
C95	C	1.192888	-1.045441	0.431465
C96	C	1.692888	-0.545441	0.931465
C97	C	1.091857	-1.045599	0.330266
C98	C	1.591857	-0.545599	0.830266
C99	C	1.348420	-0.380845	0.380824
C100	C	1.848420	0.119155	0.880824
C101	C	1.436277	-0.380856	0.380832
C102	C	1.936277	0.119144	0.880832
C103	C	1.142285	-0.380753	0.586973
C104	C	1.642285	0.119247	1.086973
C105	C	1.142299	-0.380725	0.674830
C106	C	1.642299	0.119275	1.174830
C107	C	1.142350	-0.174650	0.380853
C108	C	1.642350	0.325350	0.880853
C109	C	1.142391	-0.086793	0.380874
C110	C	1.642391	0.413207	0.880874
C111	C	1.142265	-0.380826	0.175439
C112	C	1.642265	0.119174	0.675439
C113	C	1.142404	-0.380631	0.087583
C114	C	1.642404	0.119369	0.587583
C115	C	1.091819	-0.431185	1.046292
C116	C	1.591819	0.068815	1.546292
C117	C	1.192968	-0.330097	1.046320
C118	C	1.692968	0.169903	1.546320
C119	C	1.192947	-0.330114	0.963774
C120	C	1.692947	0.169886	1.463774
C121	C	1.142362	-0.380668	0.922483
C122	C	1.642362	0.119332	1.422483
C123	C	1.091798	-0.431205	0.963738
C124	C	1.591798	0.068795	1.463738
C125	C	1.243516	-0.279584	0.922513
C126	C	1.743516	0.220416	1.422513
C127	C	1.243497	-0.279599	0.839962
C128	C	1.743497	0.220401	1.339962
C129	C	1.192908	-0.330149	0.798669
C130	C	1.692908	0.169851	1.298669
C131	C	1.142341	-0.380688	0.839930
C132	C	1.642341	0.119312	1.339930
C133	C	1.091756	-0.431242	0.798639
C134	C	1.591756	0.068758	1.298639
C135	C	1.041185	-0.481777	0.839898
C136	C	1.541185	0.018223	1.339898
C137	C	1.041209	-0.481756	0.922446
C138	C	1.541209	0.018244	1.422446
C139	C	1.192884	-0.330171	0.716121
C140	C	1.692884	0.169829	1.216121
C141	C	1.091735	-0.431262	0.716085
C142	C	1.591735	0.068738	1.216085
H143	H	0.841346	-0.288968	0.289249
H144	H	1.341346	0.211032	0.789249
H145	H	1.050643	-0.472328	1.079889
H146	H	1.550643	0.027672	1.579889
H147	H	1.050738	-1.079262	0.289065
H148	H	1.550738	-0.579262	0.789065
H149	H	1.000039	-0.522901	0.956046
H150	H	1.500039	-0.022901	1.456046
N151	N	0.728458	-0.536644	0.536155
N152	N	1.228458	-0.036644	1.036155
H153	H	0.714110	-0.524439	0.592653
H154	H	1.214110	-0.024439	1.092653
H155	H	0.787001	-0.528934	0.528431
H156	H	1.287001	-0.028934	1.028431
H157	H	0.567750	-0.238397	0.238818
H158	H	1.067750	0.261603	0.738818
N159	N	1.298034	-0.225086	0.795472
N160	N	1.798034	0.274914	1.295472
H161	H	1.265917	-0.188459	0.761238
H162	H	1.765917	0.311541	1.261238
H163	H	1.334632	-0.257271	0.761254
H164	H	1.834632	0.242729	1.261254
H165	H	1.234156	-0.288943	1.079944
H166	H	1.734156	0.211057	1.579944
H167	H	1.050579	-0.681847	0.288984
H168	H	1.550579	-0.181847	0.788984
H169	H	0.717528	-0.238379	0.238798
H170	H	1.217528	0.261621	0.738798
H171	H	1.284704	-0.238430	0.956137
H172	H	1.784704	0.261570	1.456137
H173	H	1.284498	-0.955076	0.523258
H174	H	1.784498	-0.455076	1.023258
N175	N	0.433028	-0.275662	0.275934
N176	N	0.933028	0.224338	0.775934
H177	H	0.374471	-0.283350	0.283589
H178	H	0.874471	0.216650	0.783589
H179	H	0.447444	-0.287911	0.219465
H180	H	0.947444	0.212089	0.719465
N181	N	0.986826	-0.966451	0.225069
N182	N	1.486826	-0.466451	0.725069
H183	H	0.994518	-1.024996	0.232766
H184	H	1.494518	-0.524996	0.732766
H185	H	0.999168	-0.952062	0.168626
H186	H	1.499168	-0.452062	0.668626
H187	H	1.284421	-0.805318	0.523220
H188	H	1.784421	-0.305318	1.023220
N189	N	0.986757	-0.794857	0.225041
N190	N	1.486757	-0.294857	0.725041
H191	H	0.930279	-0.809257	0.237266
H192	H	1.430279	-0.309257	0.737266
H193	H	0.999144	-0.809265	0.168599
H194	H	1.499144	-0.309265	0.668599
H195	H	0.443957	-0.472679	0.472369
H196	H	0.943957	0.027321	0.972369
H197	H	1.234060	-0.289028	0.682532
H198	H	1.734060	0.210972	1.182532
H199	H	0.841369	-0.472630	0.472341
H200	H	1.341369	0.027370	0.972341
N201	N	0.556884	-0.536664	0.536154
N202	N	1.056884	-0.036664	1.036154
H203	H	0.498327	-0.528988	0.528504
H204	H	0.998327	-0.028988	1.028504
H205	H	0.571335	-0.524436	0.592628
H206	H	1.071335	-0.024436	1.092628
H207	H	1.000002	-0.522942	0.806268
H208	H	1.500002	-0.022942	1.306268
H209	H	1.050535	-0.472422	0.682472
H210	H	1.550535	0.027578	1.182472
H211	H	1.233857	-0.681572	0.472590
H212	H	1.733857	-0.181572	0.972590
N213	N	1.247376	-1.089877	0.486057
N214	N	1.747376	-0.589877	0.986057
H215	H	1.279356	-1.051155	0.518107
H216	H	1.779356	-0.551155	1.018107
H217	H	1.283997	-1.124124	0.453929
H218	H	1.783997	-0.624124	0.953929
