data_functionalizedCrystal
_audit_creation_method	'MofGen! by Chris Wilmer'
_symmetry_space_group_name_H-M	'P1'
_symmetry_Int_Tables_number	1
_symmetry_cell_setting	triclinic
loop_
_symmetry_equiv_pos_as_xyz
  x,y,z
_cell_length_a	11.169417
_cell_length_b	10.685194
_cell_length_c	11.169409
_cell_angle_alpha	94.405531
_cell_angle_beta	90.019824
_cell_angle_gamma	94.378129
loop_
_atom_site_label
_atom_site_type_symbol
_atom_site_fract_x
_atom_site_fract_y
_atom_site_fract_z
Zn1	Zn	1.798362	-0.502284	0.641889
Zn2	Zn	2.131695	-0.168951	0.975223
Zn3	Zn	2.465029	0.164383	1.308556
Zn4	Zn	1.782870	-0.713363	0.425803
Zn5	Zn	2.116204	-0.380030	0.759136
Zn6	Zn	2.449537	-0.046697	1.092470
Zn7	Zn	1.597642	-0.502361	0.441218
Zn8	Zn	1.930975	-0.169028	0.774551
Zn9	Zn	2.264309	0.164306	1.107885
Zn10	Zn	1.582282	-0.713261	0.626455
Zn11	Zn	1.915615	-0.379927	0.959789
Zn12	Zn	2.248948	-0.046594	1.293122
O13	O	1.690289	-0.607817	0.533841
O14	O	2.023622	-0.274484	0.867175
O15	O	2.356956	0.058849	1.200508
O16	O	1.964256	-0.530295	0.613233
O17	O	2.297589	-0.196962	0.946566
O18	O	2.630922	0.136372	1.279900
O19	O	1.758245	-0.685449	0.259892
O20	O	2.091578	-0.352115	0.593226
O21	O	2.424911	-0.018782	0.926559
O22	O	1.637180	-0.325751	0.480748
O23	O	1.970513	0.007582	0.814081
O24	O	2.303846	0.340916	1.147415
O25	O	1.952874	-0.685374	0.454475
O26	O	2.286208	-0.352041	0.787808
O27	O	2.619541	-0.018707	1.121142
O28	O	1.784648	-0.325695	0.628180
O29	O	2.117981	0.007639	0.961514
O30	O	2.451314	0.340972	1.294847
O31	O	1.622158	-0.530426	0.271218
O32	O	1.955491	-0.197093	0.604551
O33	O	2.288825	0.136241	0.937885
O34	O	1.427656	-0.530326	0.465782
O35	O	1.760989	-0.196993	0.799116
O36	O	2.094322	0.136340	1.132449
O37	O	1.611000	-0.685199	0.796458
O38	O	1.944334	-0.351866	1.129791
O39	O	2.277667	-0.018532	1.463125
O40	O	1.416371	-0.685274	0.601875
O41	O	1.749704	-0.351940	0.935209
O42	O	2.083037	-0.018607	1.268542
O43	O	1.769753	-0.530195	0.807797
O44	O	2.103087	-0.196862	1.141131
O45	O	2.436420	0.136471	1.474464
O46	O	1.743350	-0.889949	0.439509
O47	O	2.076684	-0.556616	0.772843
O48	O	2.410017	-0.223283	1.106176
O49	O	1.595979	-0.889874	0.586928
O50	O	1.929312	-0.556541	0.920261
O51	O	2.262645	-0.223207	1.253595
C52	C	1.378466	-0.607798	0.533827
C53	C	1.711799	-0.274465	0.867161
C54	C	2.045132	0.058869	1.200494
C55	C	1.245064	-0.607820	0.533848
C56	C	1.578397	-0.274487	0.867181
C57	C	1.911731	0.058846	1.200514
C58	C	1.666349	-0.935702	0.509897
C59	C	1.999683	-0.602369	0.843231
C60	C	2.333016	-0.269035	1.176564
C61	C	1.656217	-1.075972	0.499694
C62	C	1.989551	-0.742639	0.833027
C63	C	2.322884	-0.409306	1.166361
C64	C	2.003330	-0.607837	0.533856
C65	C	2.336663	-0.274504	0.867189
C66	C	2.669997	0.058829	1.200523
C67	C	2.136729	-0.607846	0.533862
C68	C	2.470063	-0.274513	0.867196
C69	C	2.803396	0.058821	1.200529
C70	C	1.690391	-0.607677	0.846894
C71	C	2.023725	-0.274344	1.180228
C72	C	2.357058	0.058990	1.513561
C73	C	1.690435	-0.607617	0.980299
C74	C	2.023768	-0.274284	1.313632
C75	C	2.357102	0.059049	1.646965
C76	C	1.714355	-0.278652	0.557905
C77	C	2.047688	0.054681	0.891239
C78	C	2.381022	0.388015	1.224572
C79	C	1.724611	-0.138382	0.568160
C80	C	2.057944	0.194952	0.901493
C81	C	2.391277	0.528285	1.234826
C82	C	1.690263	-0.607866	0.222013
C83	C	2.023596	-0.274532	0.555346
C84	C	2.356929	0.058801	0.888680
C85	C	1.690478	-0.607570	0.088635
C86	C	2.023811	-0.274237	0.421969
C87	C	2.357144	0.059097	0.755302
H88	H	1.790918	-1.084503	0.634588
H89	H	2.124251	-0.751170	0.967921
H90	H	2.457585	-0.417836	1.301255
H91	H	1.589896	-1.129859	0.433272
H92	H	1.923229	-0.796525	0.766606
H93	H	2.256562	-0.463192	1.099939
