data_functionalizedCrystal
_audit_creation_method	'MofGen! by Chris Wilmer'
_symmetry_space_group_name_H-M	'P1'
_symmetry_Int_Tables_number	1
_symmetry_cell_setting	triclinic
loop_
_symmetry_equiv_pos_as_xyz
  x,y,z
_cell_length_a	14.971486
_cell_length_b	19.288865
_cell_length_c	14.048226
_cell_angle_alpha	89.988335
_cell_angle_beta	90.001501
_cell_angle_gamma	96.624811
loop_
_atom_site_label
_atom_site_type_symbol
_atom_site_fract_x
_atom_site_fract_y
_atom_site_fract_z
O1	O	-1.186458	0.090517	-0.079062
O2	O	-0.925999	0.101357	-0.079090
O3	O	-1.063754	-0.005169	-0.079056
O4	O	-1.048702	0.197043	-0.079096
O5	O	-1.063738	-0.005175	0.079265
O6	O	-0.925982	0.101351	0.079232
O7	O	-1.186441	0.090511	0.079259
Zn8	Zn	-1.056209	0.095930	0.104382
Zn9	Zn	-1.056231	0.095938	-0.104213
O10	O	-1.048686	0.197037	0.079226
C11	C	-1.063262	-0.031050	0.000107
C12	C	-1.061808	-0.108158	0.000115
C13	C	-0.892669	0.100869	0.000068
C14	C	-0.793379	0.099416	0.000058
C15	C	-1.142636	-0.152591	0.000128
C16	C	-1.141271	-0.225043	0.000113
C17	C	-1.059071	-0.253058	0.000104
C18	C	-0.978232	-0.208615	0.000085
C19	C	-0.979600	-0.136166	0.000091
C20	C	-0.994448	-0.361558	0.055554
C21	C	-0.993083	-0.434007	0.055554
C22	C	-1.054848	-0.476517	0.000082
C23	C	-1.117994	-0.446571	-0.055378
C24	C	-1.119362	-0.374121	-0.055372
C25	C	-1.057579	-0.331617	0.000097
C26	C	-1.134201	-0.599511	0.000077
C27	C	-1.132832	-0.671963	0.000056
C28	C	-0.969791	-0.655535	0.000038
C29	C	-0.971163	-0.583084	0.000050
C30	C	-1.053370	-0.555077	0.000074
C31	C	-1.219771	0.090999	0.000099
C32	C	-1.319061	0.092452	0.000103
C33	C	-0.735816	0.161997	0.000047
C34	C	-0.642524	0.160628	0.000062
C35	C	-0.606797	0.096677	0.000080
C36	C	-0.664368	0.034092	0.000094
C37	C	-0.757658	0.035461	0.000086
C38	C	-0.469921	0.031241	0.000108
C39	C	-0.376624	0.029871	0.000113
C40	C	-0.354786	0.156407	0.000083
C41	C	-0.448077	0.157777	0.000075
C42	C	-0.505641	0.095191	0.000087
C43	C	-1.049178	0.222918	0.000060
C44	C	-1.050632	0.300026	0.000046
N45	N	-1.056201	0.095924	0.246743
N46	N	-1.056246	0.095939	-0.246574
C47	C	-1.117218	0.048774	0.296576
C48	C	-1.117224	0.048773	0.396233
C49	C	-1.056217	0.095927	0.446056
C50	C	-0.995193	0.143079	0.396217
C51	C	-0.995183	0.143076	0.296561
C52	C	-0.995219	0.143084	0.603931
C53	C	-0.995229	0.143089	0.703593
C54	C	-1.117259	0.048782	0.703603
C55	C	-1.117250	0.048778	0.603947
C56	C	-1.056227	0.095932	0.554115
H57	H	-1.207093	-0.261227	0.000120
H58	H	-0.764896	0.214073	0.000032
H59	H	-0.307912	0.207367	0.000078
H60	H	-0.945515	0.181470	0.436788
H61	H	-1.198655	-0.708141	0.000062
C62	C	-0.818306	-0.127206	0.000073
C63	C	-0.890747	-0.087320	0.000086
H64	H	-0.763453	-0.097048	0.000078
H65	H	-0.821168	-0.155791	-0.055138
H66	H	-0.821163	-0.155820	0.055282
H67	H	-0.887893	-0.058709	-0.055127
H68	H	-0.887884	-0.058723	0.055303
H69	H	-1.166931	0.010386	0.563382
C70	C	-0.630309	0.285839	0.000018
C71	C	-0.579249	0.229419	0.000045
H72	H	-0.591244	0.328309	0.000003
H73	H	-0.667152	0.283742	0.055221
H74	H	-0.667148	0.283735	-0.055200
H75	H	-0.542415	0.231520	0.055267
H76	H	-0.542391	0.231518	-0.055163
H77	H	-0.945496	0.181469	0.255988
H78	H	-1.209576	-0.129793	0.000145
H79	H	-1.166908	0.010380	0.436807
H80	H	-1.170775	-0.349742	-0.100531
C81	C	-0.910365	-0.018623	0.000093
C82	C	-0.820937	-0.033329	0.000098
H83	H	-0.949429	-0.061093	0.000110
H84	H	-0.921161	0.007592	-0.055121
H85	H	-0.921157	0.007597	0.055300
H86	H	-0.810144	-0.059545	-0.055113
H87	H	-0.810137	-0.059555	0.055318
H88	H	-1.168289	-0.481182	-0.100548
H89	H	-0.635272	-0.017978	0.000123
H90	H	-0.941662	-0.458383	0.100707
C91	C	-0.366507	-0.078408	-0.081232
C92	C	-0.337348	-0.040423	0.000140
H93	H	-0.342262	-0.121805	-0.081211
H94	H	-0.346730	-0.052638	-0.136440
H95	H	-0.430306	-0.086550	-0.081221
H96	H	-0.273549	-0.032276	0.000125
H97	H	-0.357120	-0.066198	0.055363
H98	H	-0.477162	0.209852	0.000051
H99	H	-1.166901	0.010379	0.256016
H100	H	-1.166946	0.010388	0.744183
C101	C	-0.587505	-0.040619	-0.081272
C102	C	-0.533202	-0.037552	0.000118
H103	H	-0.626576	-0.083086	-0.081265
H104	H	-0.550653	-0.038524	-0.136468
H105	H	-0.622125	-0.002331	-0.081271
H106	H	-0.498577	-0.075838	0.000113
H107	H	-0.570058	-0.039654	0.055328
C108	C	-1.295221	-0.623024	0.000071
C109	C	-1.224561	-0.568719	0.000081
H110	H	-1.351004	-0.604014	0.000065
H111	H	-1.291299	-0.650949	0.055276
H112	H	-1.291288	-0.650931	-0.055144
H113	H	-1.228490	-0.540815	0.055301
H114	H	-1.228485	-0.540783	-0.055130
H115	H	-0.945550	0.181485	0.744154
C116	C	-0.874605	0.236313	0.613926
C117	C	-0.928146	0.194919	0.549152
H118	H	-0.833206	0.268317	0.580106
H119	H	-0.842551	0.207362	0.652806
H120	H	-0.911748	0.261342	0.652786
H121	H	-0.891003	0.169886	0.510297
H122	H	-0.960202	0.223874	0.510256
H123	H	-0.905343	-0.546906	0.000044
C124	C	-0.873682	-0.727461	-0.081367
C125	C	-0.879435	-0.686321	0.000024
H126	H	-0.817900	-0.746472	-0.081374
H127	H	-0.877608	-0.699526	-0.136562
H128	H	-0.921630	-0.764294	-0.081354
H129	H	-0.831490	-0.649485	0.000007
H130	H	-0.875500	-0.714257	0.055234
C131	C	-0.870839	-0.356417	0.165211
C132	C	-0.926544	-0.314834	0.116529
H133	H	-0.828923	-0.327570	0.202853
H134	H	-0.839394	-0.381552	0.120606
H135	H	-0.906425	-0.388321	0.205202
H136	H	-0.890959	-0.282933	0.076532
H137	H	-0.957992	-0.289687	0.161139
H138	H	-0.911305	-0.231430	0.000076
