data_functionalizedCrystal
_audit_creation_method	'MofGen! by Chris Wilmer'
_symmetry_space_group_name_H-M	'P1'
_symmetry_Int_Tables_number	1
_symmetry_cell_setting	triclinic
loop_
_symmetry_equiv_pos_as_xyz
  x,y,z
_cell_length_a	15.995350
_cell_length_b	15.995292
_cell_length_c	14.185569
_cell_angle_alpha	76.851103
_cell_angle_beta	103.158160
_cell_angle_gamma	83.480495
loop_
_atom_site_label
_atom_site_type_symbol
_atom_site_fract_x
_atom_site_fract_y
_atom_site_fract_z
O1	O	1.091987	0.126893	-0.083326
O2	O	1.591987	0.626893	0.416674
O3	O	0.848204	0.140225	-0.083346
O4	O	1.348204	0.640225	0.416654
O5	O	0.976784	0.011668	-0.083337
O6	O	1.476784	0.511668	0.416663
O7	O	0.963406	0.255450	-0.083335
O8	O	1.463406	0.755450	0.416665
O9	O	1.014768	-0.026304	0.083500
O10	O	1.514768	0.473696	0.583500
O11	O	0.886188	0.102253	0.083491
O12	O	1.386188	0.602253	0.583491
O13	O	1.129970	0.088920	0.083511
O14	O	1.629970	0.588920	0.583511
Cu15	Cu	1.011547	0.092119	0.098735
Cu16	Cu	1.511547	0.592119	0.598735
Cu17	Cu	0.966627	0.137026	-0.098570
Cu18	Cu	1.466627	0.637026	0.401430
O19	O	1.001390	0.217477	0.083502
O20	O	1.501390	0.717477	0.583502
C21	C	0.836001	0.120689	0.000070
C22	C	1.336001	0.620689	0.500070
C23	C	0.743049	0.119038	0.000062
C24	C	1.243049	0.619038	0.500062
C25	C	0.405307	0.113101	0.000083
C26	C	0.905307	0.613101	0.500083
C27	C	0.452845	0.021462	0.000454
C28	C	0.952845	0.521462	0.500454
C29	C	0.549448	0.023202	0.000071
C30	C	1.049448	0.523202	0.500071
C31	C	0.572865	0.116046	0.000073
C32	C	1.072865	0.616046	0.500073
C33	C	0.510079	0.182887	-0.095195
C34	C	1.010079	0.682887	0.404805
C35	C	0.413427	0.180604	-0.095268
C36	C	0.913427	0.680604	0.404732
C37	C	0.456282	0.139313	0.094458
C38	C	0.956282	0.639313	0.594458
C39	C	0.553513	0.139007	0.095710
C40	C	1.053513	0.639007	0.595710
C41	C	0.667560	0.117716	0.000064
C42	C	1.167560	0.617716	0.500064
C43	C	0.310610	0.111436	0.000085
C44	C	0.810610	0.611436	0.500085
C45	C	0.995231	-0.038513	0.000079
C46	C	1.495231	0.461487	0.500079
C47	C	0.993597	-0.131464	0.000071
C48	C	1.493597	0.368536	0.500071
C49	C	0.987598	-0.469205	0.000080
C50	C	1.487598	0.030795	0.500080
C51	C	1.080489	-0.445979	0.000460
C52	C	1.580489	0.054021	0.500460
C53	C	1.082166	-0.349217	0.000081
C54	C	1.582166	0.150783	0.500081
C55	C	0.990575	-0.301648	0.000076
C56	C	1.490575	0.198352	0.500076
C57	C	0.922486	-0.309064	-0.095197
C58	C	1.422486	0.190936	0.404803
C59	C	0.921352	-0.405838	-0.095273
C60	C	1.421352	0.094162	0.404727
C61	C	0.962651	-0.448877	0.094452
C62	C	1.462651	0.051123	0.594452
C63	C	0.966376	-0.352670	0.095708
C64	C	1.466376	0.147330	0.595708
C65	C	0.992251	-0.206950	0.000071
C66	C	1.492251	0.293050	0.500071
C67	C	0.985917	-0.563900	0.000079
C68	C	1.485917	-0.063900	0.500079
C69	C	1.142173	0.108457	0.000093
C70	C	1.642173	0.608457	0.500093
C71	C	1.235124	0.110109	0.000094
C72	C	1.735124	0.610109	0.500094
C73	C	0.982943	0.267659	0.000084
C74	C	1.482943	0.767659	0.500084
C75	C	0.984575	0.360612	0.000085
C76	C	1.484575	0.860612	0.500085
N77	N	1.043148	0.060533	0.237508
N78	N	1.543148	0.560533	0.737508
N79	N	0.935033	0.168605	-0.237343
N80	N	1.435033	0.668605	0.262657
C81	C	0.842191	0.261368	0.605144
C82	C	1.342191	0.761368	1.105144
C83	C	0.866134	0.237448	0.710167
C84	C	1.366134	0.737448	1.210167
C85	C	0.980014	0.123653	0.710136
C86	C	1.480014	0.623653	1.210136
C87	C	0.956078	0.147561	0.605111
C88	C	1.456078	0.647561	1.105111
C89	C	0.887167	0.216420	0.552623
C90	C	1.387167	0.716420	1.052623
C91	C	1.001054	0.102613	0.552589
C92	C	1.501054	0.602613	1.052589
C93	C	0.977123	0.126522	0.447573
C94	C	1.477123	0.626522	0.947573
C95	C	0.908216	0.195380	0.395078
C96	C	1.408216	0.695380	0.895078
C97	C	0.863235	0.240329	0.447607
C98	C	1.363235	0.740329	0.947607
C99	C	1.069970	0.033758	0.605079
C100	C	1.569970	0.533758	1.105079
C101	C	1.114946	-0.011190	0.552558
C102	C	1.614946	0.488810	1.052558
C103	C	1.091011	0.012715	0.447540
C104	C	1.591011	0.512715	0.947540
C105	C	1.022103	0.081572	0.395045
C106	C	1.522103	0.581572	0.895045
C107	C	1.135991	-0.032235	0.395012
C108	C	1.635991	0.467765	0.895012
C109	C	1.112059	-0.008325	0.289996
C110	C	1.612059	0.491675	0.789996
C111	C	0.998172	0.105482	0.290029
C112	C	1.498172	0.605482	0.790029
H113	H	0.380181	0.248805	-0.099590
H114	H	0.880181	0.748805	0.400410
H115	H	0.449885	-0.030684	0.068775
H116	H	0.949885	0.469316	0.568775
H117	H	0.417790	0.000499	-0.067490
H118	H	0.917790	0.500499	0.432510
Cl119	Cl	0.817181	-0.258612	-0.100681
Cl120	Cl	1.317181	0.241388	0.399319
Cl121	Cl	0.809583	0.293967	0.776186
Cl122	Cl	1.309583	0.793967	1.276186
Cl123	Cl	0.878133	0.225441	0.263056
Cl124	Cl	1.378133	0.725441	0.763056
Cl125	Cl	0.945938	-0.422221	-0.205218
Cl126	Cl	1.445938	0.077779	0.294782
H127	H	0.424654	0.206669	0.095103
H128	H	0.924654	0.706669	0.595103
H129	H	0.522318	0.167660	-0.166096
H130	H	1.022318	0.667660	0.333904
Cl131	Cl	0.857411	-0.470704	0.095441
Cl132	Cl	1.357411	0.029296	0.595441
H133	H	0.807115	0.296395	0.404869
H134	H	1.307115	0.796395	0.904869
H135	H	0.942051	0.161548	0.247291
H136	H	1.442051	0.661548	0.747291
H137	H	0.786070	0.317434	0.562406
H138	H	1.286070	0.817434	1.062406
Cl139	Cl	0.814777	-0.426784	-0.101962
Cl140	Cl	1.314777	0.073216	0.398038
H141	H	0.561738	0.003036	-0.068340
H142	H	1.061738	0.503036	0.431660
Cl143	Cl	0.617360	-0.055602	0.105507
Cl144	Cl	1.117360	0.444398	0.605507
Cl145	Cl	1.066646	0.037092	0.776127
Cl146	Cl	1.566646	0.537092	1.276127
Cl147	Cl	1.100056	0.003708	0.737102
Cl148	Cl	1.600056	0.503708	1.237102
Cl149	Cl	0.579228	0.241521	0.104595
Cl150	Cl	1.079228	0.741521	0.604595
H151	H	1.131815	-0.489527	0.068785
H152	H	1.631815	0.010473	0.568785
H153	H	1.134052	-0.345736	0.068375
H154	H	1.634052	0.154264	0.568375
H155	H	1.100594	-0.459534	-0.067475
H156	H	1.600594	0.040466	0.432525
H157	H	1.171057	-0.067254	0.595306
H158	H	1.671057	0.432746	1.095306
Cl159	Cl	1.168605	-0.064832	0.223967
Cl160	Cl	1.668605	0.435168	0.723967
H161	H	1.192105	-0.088295	0.437761
H162	H	1.692105	0.411705	0.937761
H163	H	0.596882	0.090000	0.166189
H164	H	1.096882	0.590000	0.666189
Cl165	Cl	0.530638	0.289442	-0.100688
Cl166	Cl	1.030638	0.789442	0.399312
Cl167	Cl	0.360135	0.154785	-0.205218
Cl168	Cl	0.860135	0.654785	0.294782
H169	H	0.452193	0.092947	0.166669
H170	H	0.952193	0.592947	0.666669
H171	H	1.103143	-0.315242	-0.068328
H172	H	1.603143	0.184758	0.431672
H173	H	1.008318	-0.493402	0.166668
H174	H	1.508318	0.006598	0.666668
Cl175	Cl	0.947310	-0.253185	-0.204661
Cl176	Cl	1.447310	0.246815	0.295339
H177	H	0.900833	-0.321009	0.101458
H178	H	1.400833	0.178991	0.601458
Cl179	Cl	1.043304	-0.348767	0.204531
Cl180	Cl	1.543304	0.151233	0.704531
