data_functionalizedCrystal
_audit_creation_method	'MofGen! by Chris Wilmer'
_symmetry_space_group_name_H-M	'P1'
_symmetry_Int_Tables_number	1
_symmetry_cell_setting	triclinic
loop_
_symmetry_equiv_pos_as_xyz
  x,y,z
_cell_length_a	12.594517
_cell_length_b	21.295417
_cell_length_c	12.594509
_cell_angle_alpha	89.963755
_cell_angle_beta	89.978673
_cell_angle_gamma	90.030306
loop_
_atom_site_label
_atom_site_type_symbol
_atom_site_fract_x
_atom_site_fract_y
_atom_site_fract_z
Zn1	Zn	1.627160	-0.250594	-0.601801
Zn2	Zn	1.627006	-0.355872	-0.423797
Zn3	Zn	1.449164	-0.250621	-0.423830
Zn4	Zn	1.449101	-0.355829	-0.601727
O5	O	1.538108	-0.303229	-0.512789
O6	O	1.776085	-0.264566	-0.578205
O7	O	1.603377	-0.341940	-0.274856
O8	O	1.472866	-0.162528	-0.447482
O9	O	1.775972	-0.341914	-0.447427
O10	O	1.603639	-0.162508	-0.578237
O11	O	1.472717	-0.264612	-0.274879
O12	O	1.300210	-0.264570	-0.447411
O13	O	1.472759	-0.341839	-0.750683
O14	O	1.300164	-0.341865	-0.578112
O15	O	1.603578	-0.264524	-0.750737
O16	O	1.603316	-0.443956	-0.447356
O17	O	1.472610	-0.443924	-0.578080
C18	C	1.261567	-0.303216	-0.512757
C19	C	1.143261	-0.303226	-0.512769
C20	C	1.074002	-0.261127	-0.441817
C21	C	1.003167	-0.318547	-0.415623
C22	C	1.003298	-0.245834	-0.538981
C23	C	1.073984	-0.360676	-0.486525
C24	C	1.074121	-0.287924	-0.609928
C25	C	1.003318	-0.345384	-0.583771
C26	C	1.537968	-0.466780	-0.512730
C27	C	1.538006	-0.536748	-0.512740
C28	C	1.606125	-0.569611	-0.444742
C29	C	1.606175	-0.635353	-0.444766
C30	C	1.538087	-0.668231	-0.512777
C31	C	1.469963	-0.635361	-0.580789
C32	C	1.469923	-0.569619	-0.580770
N33	N	1.444976	-0.771496	-0.520881
N34	N	1.445018	-0.833948	-0.520892
C35	C	1.538206	-0.866306	-0.512838
N36	N	1.631353	-0.833853	-0.504752
N37	N	1.631311	-0.771396	-0.504735
C38	C	1.538123	-0.739516	-0.512805
C39	C	1.606385	-0.970454	-0.444862
C40	C	1.606436	-1.036197	-0.444893
C41	C	1.470215	-1.036203	-0.580910
C42	C	1.470173	-0.970461	-0.580885
C43	C	1.538256	-0.937590	-0.512855
C44	C	1.815729	-0.303242	-0.512821
C45	C	1.934034	-0.303247	-0.512835
C46	C	1.538179	-0.303174	-0.790410
C47	C	1.538209	-0.303150	-0.908715
C48	C	1.538277	-0.139038	-0.512871
C49	C	1.538349	-0.069070	-0.512906
C50	C	1.467079	-0.345178	-0.977939
C51	C	1.564193	-0.360559	-1.048726
C52	C	1.441171	-0.287731	-1.048728
C53	C	1.635374	-0.318561	-0.977944
C54	C	1.512287	-0.245707	-0.977939
C55	C	1.609468	-0.261066	-1.048694
C56	C	1.538098	-0.303238	-0.236248
C57	C	1.538274	-0.303084	-0.117943
H58	H	0.972003	-0.331503	-0.333486
H59	H	1.586154	-0.409109	-1.079819
H60	H	1.717489	-0.331630	-0.946982
H61	H	1.414451	-0.542862	-0.636144
O62	O	1.111216	-0.218704	-0.370232
C63	C	1.265160	-0.170816	-0.290564
C64	C	1.223159	-0.218865	-0.371691
H65	H	1.355670	-0.170940	-0.291701
H66	H	1.234950	-0.121982	-0.312061
H67	H	1.235942	-0.183988	-0.207809
H68	H	1.252359	-0.205753	-0.454475
H69	H	1.253361	-0.267687	-0.350103
H70	H	1.104905	-0.409235	-0.464291
H71	H	1.490297	-0.197170	-0.946822
H72	H	1.669717	-0.225496	-1.079565
O73	O	1.672184	-0.667347	-0.378630
C74	C	1.686555	-0.741581	-0.234880
C75	C	1.611691	-0.705406	-0.309742
H76	H	1.637675	-0.772351	-0.179150
H77	H	1.742203	-0.772359	-0.283711
H78	H	1.735217	-0.706775	-0.186306
H79	H	1.562960	-0.740168	-0.358332
H80	H	1.556114	-0.674619	-0.260850
O81	O	1.343160	-0.272275	-1.085697
C82	C	1.157401	-0.299190	-1.091724
C83	C	1.268334	-0.316750	-1.049769
H84	H	1.096877	-0.335145	-1.062711
H85	H	1.134602	-0.250608	-1.061364
H86	H	1.158614	-0.298836	-1.182232
H87	H	1.267205	-0.317139	-0.959264
H88	H	1.291089	-0.365319	-1.080210
H89	H	0.972477	-0.381035	-0.643801
H90	H	0.972192	-0.197296	-0.561087
O91	O	1.111467	-0.272375	-0.707804
C92	C	1.216794	-0.200299	-0.811234
C93	C	1.174591	-0.217856	-0.700328
H94	H	1.267820	-0.156212	-0.805231
H95	H	1.266659	-0.240589	-0.843807
H96	H	1.147074	-0.191076	-0.866788
H97	H	1.244247	-0.227068	-0.644694
H98	H	1.124695	-0.177556	-0.667842
O99	O	1.672370	-0.537779	-0.378637
C100	C	1.807444	-0.544714	-0.243690
C101	C	1.732490	-0.580844	-0.318512
H102	H	1.856054	-0.579516	-0.195044
H103	H	1.863125	-0.513904	-0.292553
H104	H	1.758578	-0.513968	-0.188027
H105	H	1.781270	-0.611624	-0.374191
H106	H	1.676805	-0.611614	-0.269584
H107	H	1.661826	-0.943689	-0.389471
O108	O	1.395387	-0.387594	-0.940689
C109	C	1.314443	-0.434814	-0.786705
C110	C	1.395644	-0.386745	-0.828748
H111	H	1.314640	-0.434153	-0.696196
H112	H	1.231863	-0.422183	-0.816956
H113	H	1.336767	-0.483731	-0.815850
H114	H	1.373419	-0.337811	-0.799619
H115	H	1.478202	-0.399430	-0.798505
O116	O	1.403935	-0.667267	-0.647006
C117	C	1.352142	-0.687297	-0.828014
C118	C	1.426998	-0.651137	-0.753137
H119	H	1.370747	-0.674260	-0.913834
H120	H	1.363873	-0.739937	-0.816437
H121	H	1.266326	-0.674432	-0.809187
H122	H	1.512843	-0.663950	-0.771916
H123	H	1.415175	-0.598506	-0.764727
O124	O	1.672646	-1.068025	-0.378736
C125	C	1.807783	-1.061078	-0.243857
C126	C	1.732838	-1.024955	-0.318709
H127	H	1.856483	-1.026272	-0.195322
H128	H	1.759015	-1.091894	-0.188101
H129	H	1.863391	-1.091819	-0.292799
H130	H	1.677215	-0.994180	-0.269853
H131	H	1.781672	-0.994179	-0.374468
H132	H	1.414699	-0.943702	-0.636251
O133	O	1.404111	-1.068230	-0.646882
C134	C	1.343860	-1.169510	-0.707250
C135	C	1.418754	-1.133315	-0.632459
H136	H	1.355688	-1.222138	-0.695631
H137	H	1.258011	-1.156688	-0.688478
H138	H	1.362488	-1.156493	-0.793075
H139	H	1.400221	-1.146313	-0.546609
H140	H	1.504580	-1.146140	-0.651322
