data_functionalizedCrystal
_audit_creation_method	'MofGen! by Chris Wilmer'
_symmetry_space_group_name_H-M	'P1'
_symmetry_Int_Tables_number	1
_symmetry_cell_setting	triclinic
loop_
_symmetry_equiv_pos_as_xyz
  x,y,z
_cell_length_a	12.759401
_cell_length_b	13.897441
_cell_length_c	12.759400
_cell_angle_alpha	89.971183
_cell_angle_beta	90.013728
_cell_angle_gamma	89.981230
loop_
_atom_site_label
_atom_site_type_symbol
_atom_site_fract_x
_atom_site_fract_y
_atom_site_fract_z
Zn1	Zn	1.606258	-0.545343	-0.418260
Zn2	Zn	1.606151	-0.384049	-0.593970
Zn3	Zn	1.430559	-0.384066	-0.418303
Zn4	Zn	1.430548	-0.545307	-0.593894
O5	O	1.518379	-0.464691	-0.506107
O6	O	1.753265	-0.523954	-0.441582
O7	O	1.582819	-0.249070	-0.570717
O8	O	1.453915	-0.405482	-0.271276
O9	O	1.753186	-0.405452	-0.570675
O10	O	1.583000	-0.523971	-0.271244
O11	O	1.453812	-0.249082	-0.441655
O12	O	1.283537	-0.405448	-0.441582
O13	O	1.453896	-0.680294	-0.570546
O14	O	1.283529	-0.523911	-0.570588
O15	O	1.582989	-0.680320	-0.441508
O16	O	1.582808	-0.405418	-0.740981
O17	O	1.453793	-0.523894	-0.740925
C18	C	1.245412	-0.464678	-0.506082
C19	C	1.128635	-0.464695	-0.506097
C20	C	1.073807	-0.526494	-0.439004
C21	C	0.964083	-0.526501	-0.439025
C22	C	0.964025	-0.402905	-0.573238
C23	C	1.073747	-0.402895	-0.573212
C24	C	1.128695	-0.588295	-0.371889
C25	C	1.073866	-0.650100	-0.304792
C26	C	0.964142	-0.650106	-0.304812
C27	C	0.909247	-0.588307	-0.371929
C28	C	1.518454	-0.716284	-0.506014
C29	C	1.518485	-0.823498	-0.505974
C30	C	1.518514	-1.019794	-0.505903
C31	C	1.518495	-0.910561	-0.505946
C32	C	1.792412	-0.464705	-0.506132
C33	C	1.909189	-0.464711	-0.506143
C34	C	1.518317	-0.464671	-0.779074
C35	C	1.518386	-0.464695	-0.895851
C36	C	1.518365	-0.214077	-0.506123
C37	C	1.518537	-0.106864	-0.505867
C38	C	1.585639	-0.403073	-0.950707
C39	C	1.585703	-0.403102	-1.060431
C40	C	1.451254	-0.526379	-1.060433
C41	C	1.451195	-0.526353	-0.950711
C42	C	1.652830	-0.341414	-0.895847
C43	C	1.720087	-0.279786	-0.950703
C44	C	1.720151	-0.279816	-1.060427
C45	C	1.652959	-0.341474	-1.115295
C46	C	1.518470	-0.464733	-0.232073
C47	C	1.518509	-0.464750	-0.115297
H48	H	1.652782	-0.341380	-0.806504
H49	H	1.396433	-0.576533	-0.906047
C50	C	1.318353	-0.648233	-1.049419
C51	C	1.377395	-0.594146	-1.120740
H52	H	1.272759	-0.690073	-1.086651
H53	H	1.278167	-0.606167	-1.006691
H54	H	1.364096	-0.685154	-1.006555
H55	H	1.331652	-0.557220	-1.163599
H56	H	1.417583	-0.636218	-1.163486
C57	C	0.840632	-0.389298	-0.714574
C58	C	0.903688	-0.334988	-0.647021
H59	H	0.803389	-0.347368	-0.760130
H60	H	0.792279	-0.426095	-0.674618
H61	H	0.883469	-0.431253	-0.754801
H62	H	0.860849	-0.293037	-0.606788
H63	H	0.952046	-0.298174	-0.686981
H64	H	1.774799	-0.229592	-0.906024
C65	C	1.285906	-0.655577	-0.298785
C66	C	1.249304	-0.588286	-0.371862
H67	H	1.360364	-0.655565	-0.298768
H68	H	1.261114	-0.717785	-0.317052
H69	H	1.261074	-0.639003	-0.230972
H70	H	1.274130	-0.604864	-0.439677
H71	H	1.274106	-0.526064	-0.353601
H72	H	1.653025	-0.341500	-1.204639
C73	C	1.107715	-0.813516	-0.253830
C74	C	1.134201	-0.718027	-0.231018
H75	H	1.144958	-0.855450	-0.208278
H76	H	1.125704	-0.827511	-0.324427
H77	H	1.034519	-0.822350	-0.244237
H78	H	1.207396	-0.709191	-0.240619
H79	H	1.116220	-0.704027	-0.160404
C80	C	0.840806	-0.779882	-0.290421
C81	C	0.903871	-0.718037	-0.231061
H82	H	0.803595	-0.821820	-0.244889
H83	H	0.883626	-0.816697	-0.336229
H84	H	0.792415	-0.743071	-0.330388
H85	H	0.952267	-0.754849	-0.191099
H86	H	0.861047	-0.681219	-0.185235
C87	C	0.752074	-0.612733	-0.471938
C88	C	0.788635	-0.588306	-0.371953
H89	H	0.677616	-0.612728	-0.471954
H90	H	0.776916	-0.674946	-0.490171
H91	H	0.776884	-0.567081	-0.521496
H92	H	0.763831	-0.633963	-0.322397
H93	H	0.763783	-0.526085	-0.353708
C94	C	1.062677	-0.280743	-0.705897
C95	C	1.134023	-0.334973	-0.646970
H96	H	1.099892	-0.238815	-0.751436
H97	H	1.019870	-0.243919	-0.660087
H98	H	1.019896	-0.322720	-0.746146
H99	H	1.176799	-0.292997	-0.606715
H100	H	1.176848	-0.371800	-0.692786
C101	C	1.853036	-0.157956	-1.049398
C102	C	1.794079	-0.212078	-1.120727
H103	H	1.898669	-0.116130	-1.086626
H104	H	1.893176	-0.200000	-1.006538
H105	H	1.807243	-0.121019	-1.006668
H106	H	1.839872	-0.249021	-1.163452
H107	H	1.753935	-0.170028	-1.163605
