data_functionalizedCrystal
_audit_creation_method	'MofGen! by Chris Wilmer'
_symmetry_space_group_name_H-M	'P1'
_symmetry_Int_Tables_number	1
_symmetry_cell_setting	triclinic
loop_
_symmetry_equiv_pos_as_xyz
  x,y,z
_cell_length_a	16.109318
_cell_length_b	7.088929
_cell_length_c	16.109304
_cell_angle_alpha	96.219185
_cell_angle_beta	83.465600
_cell_angle_gamma	83.794120
loop_
_atom_site_label
_atom_site_type_symbol
_atom_site_fract_x
_atom_site_fract_y
_atom_site_fract_z
O1	O	1.094596	0.158818	0.115475
O2	O	0.852534	0.158855	0.128761
O3	O	0.980214	0.158836	0.001088
O4	O	0.966917	0.158836	0.243148
O5	O	0.997277	-0.159141	-0.016013
O6	O	0.869597	-0.159123	0.111660
O7	O	1.111659	-0.159160	0.098374
Cu8	Cu	0.992186	-0.188175	0.103456
Cu9	Cu	0.972007	0.187870	0.123679
O10	O	0.983980	-0.159142	0.226048
C11	C	0.830091	-0.000129	0.119670
C12	C	0.737796	-0.000114	0.118050
N13	N	1.006385	-0.452665	0.089231
C14	C	0.429422	0.173182	0.122135
C15	C	0.516143	0.173193	0.123653
C16	C	0.534765	-0.173483	0.104998
C17	C	0.448047	-0.173493	0.103474
C18	C	0.395377	-0.000155	0.112047
C19	C	0.568816	-0.000134	0.115089
C20	C	0.662842	-0.000122	0.116735
C21	C	0.301344	-0.000166	0.110400
C22	C	1.134102	-0.000172	0.107465
C23	C	1.226397	-0.000174	0.109086
C24	C	0.988206	-0.000148	-0.038437
C25	C	0.986589	-0.000135	-0.130732
N26	N	0.957815	0.452360	0.137898
C27	C	0.973555	0.173188	-0.333748
C28	C	0.972029	0.173187	-0.420469
C29	C	0.990636	-0.173490	-0.439110
C30	C	0.992156	-0.173487	-0.352390
C31	C	0.983619	-0.000142	-0.299712
C32	C	0.980573	-0.000147	-0.473152
C33	C	0.978919	-0.000150	-0.567178
C34	C	0.985272	-0.000138	-0.205680
C35	C	0.975987	-0.000153	0.265573
C36	C	0.977603	-0.000154	0.357868
H37	H	0.386541	0.314325	0.129115
H38	H	0.907477	-0.465986	0.188330
H39	H	0.420327	-0.314653	0.095257
H40	H	0.997588	-0.314621	-0.482011
C41	C	0.960968	0.361517	-0.457292
C42	C	0.884252	0.466123	-0.421185
C43	C	0.874037	0.639640	-0.455077
H44	H	0.961224	0.336966	-0.516476
H45	H	1.005820	0.432835	-0.445577
H46	H	0.839411	0.394821	-0.432907
H47	H	0.883977	0.490725	-0.362004
H48	H	0.918889	0.710957	-0.443362
H49	H	0.874296	0.615070	-0.514260
H50	H	0.821988	0.710644	-0.430578
C51	C	1.073458	-0.561297	0.021861
C52	C	1.057304	-0.512712	-0.057219
C53	C	1.119077	-0.612726	-0.119298
H54	H	1.072550	-0.694832	0.022720
H55	H	1.127232	-0.528530	0.032527
H56	H	1.003544	-0.545491	-0.067882
H57	H	1.058219	-0.379193	-0.058106
H58	H	1.172851	-0.579960	-0.108632
H59	H	1.118164	-0.746257	-0.118431
H60	H	1.108129	-0.579762	-0.172960
H61	H	1.000347	-0.314641	-0.324678
C62	C	0.591833	-0.361815	0.095817
C63	C	0.566969	-0.466424	0.161291
C64	C	0.619511	-0.639939	0.152856
H65	H	0.648378	-0.337262	0.098200
H66	H	0.587783	-0.433132	0.043300
H67	H	0.571027	-0.395122	0.213794
H68	H	0.510432	-0.491027	0.158921
H69	H	0.615460	-0.711256	0.100339
H70	H	0.676052	-0.615367	0.155238
H71	H	0.602643	-0.710945	0.197273
H72	H	0.966601	0.314337	-0.290859
H73	H	0.543859	0.314341	0.131867
