data_functionalizedCrystal
_audit_creation_method	'MofGen! by Chris Wilmer'
_symmetry_space_group_name_H-M	'P1'
_symmetry_Int_Tables_number	1
_symmetry_cell_setting	triclinic
loop_
_symmetry_equiv_pos_as_xyz
  x,y,z
_cell_length_a	17.038278
_cell_length_b	17.019294
_cell_length_c	10.268362
_cell_angle_alpha	86.115747
_cell_angle_beta	89.995401
_cell_angle_gamma	87.243447
loop_
_atom_site_label
_atom_site_type_symbol
_atom_site_fract_x
_atom_site_fract_y
_atom_site_fract_z
O1	O	1.037220	0.171278	-0.127515
O2	O	0.809592	0.168560	-0.127211
O3	O	0.929756	0.055512	-0.114526
O4	O	0.917056	0.284326	-0.140199
O5	O	0.929746	0.055507	0.102075
O6	O	0.809582	0.168554	0.089391
O7	O	1.037210	0.171272	0.089086
Cu8	Cu	0.923395	0.169913	0.109016
Cu9	Cu	0.923407	0.169919	-0.147140
O10	O	0.917046	0.284320	0.076402
C11	C	0.780461	0.166084	-0.018633
C12	C	0.693674	0.158704	-0.017805
C13	C	0.203301	0.113368	-0.012723
C14	C	0.284846	0.120308	-0.013494
C15	C	0.316215	0.195009	-0.021881
C16	C	0.266036	0.262774	-0.029485
C17	C	0.184493	0.255833	-0.028705
C18	C	0.561952	0.219529	-0.024629
C19	C	0.643501	0.226464	-0.025412
C20	C	0.662305	0.083998	-0.009419
C21	C	0.580760	0.077064	-0.008647
C22	C	0.530588	0.144829	-0.016244
C23	C	0.399567	0.202104	-0.022674
C24	C	0.447238	0.137732	-0.015442
C25	C	0.929269	0.026088	-0.002927
C26	C	0.927825	-0.061580	0.006901
C27	C	0.927153	-0.102758	-0.106551
C28	C	0.925791	-0.185131	-0.097312
C29	C	0.925105	-0.226324	0.025379
C30	C	0.925774	-0.185139	0.138839
C31	C	0.927131	-0.102768	0.129599
C32	C	0.921003	-0.475032	0.059184
C33	C	0.919649	-0.557409	0.068415
C34	C	0.919664	-0.557395	-0.167737
C35	C	0.921025	-0.475023	-0.176966
C36	C	0.921690	-0.433845	-0.063506
C37	C	0.923715	-0.310522	0.034825
C38	C	0.923075	-0.349648	-0.072953
C39	C	1.066341	0.173748	-0.019494
C40	C	1.153128	0.181128	-0.020330
C41	C	0.917533	0.313744	-0.035200
C42	C	0.918977	0.401412	-0.045036
N43	N	0.923392	0.169908	0.289182
N44	N	0.923416	0.169918	-0.327306
C45	C	0.923403	0.169918	0.554852
C46	C	0.923394	0.169914	0.407014
H47	H	0.669038	0.287297	-0.032224
O48	O	0.169474	0.032794	-0.003674
H49	H	0.104343	0.039349	-0.004420
H50	H	0.921560	-0.441516	0.151571
O51	O	0.918926	-0.601807	-0.290105
H52	H	0.972448	-0.589459	-0.348117
H53	H	0.703164	0.028828	-0.003232
O54	O	0.507841	0.292614	-0.032828
H55	H	0.543357	0.345722	-0.038805
O56	O	0.925050	-0.229563	0.271175
H57	H	0.924007	-0.293761	0.258543
O58	O	0.413403	0.057166	-0.006396
H59	H	0.433552	0.024340	0.085576
H60	H	0.291583	0.323597	-0.036306
O61	O	0.927866	-0.058351	0.251966
H62	H	0.874347	-0.070712	0.309978
O63	O	0.338961	0.047223	-0.005280
H64	H	0.327832	0.011736	-0.089584
O65	O	0.433407	0.282672	-0.031725
H66	H	0.384822	0.328629	-0.036880
O67	O	0.130371	0.328916	-0.036915
H68	H	0.165882	0.382026	-0.042891
O69	O	0.918910	-0.601851	0.200745
H70	H	0.865902	-0.582605	0.255203
H71	H	0.923160	-0.344070	0.134721
H72	H	0.927716	-0.069225	-0.206459
H73	H	0.925248	-0.218655	-0.189696
O74	O	0.923810	-0.305226	-0.205285
H75	H	0.977690	-0.271156	-0.214751
O76	O	0.921750	-0.430600	-0.309304
H77	H	0.974746	-0.449869	-0.363771
O78	O	0.546925	-0.003506	0.000425
H79	H	0.595514	-0.049460	0.005602
