data_functionalizedCrystal
_audit_creation_method	'MofGen! by Chris Wilmer'
_symmetry_space_group_name_H-M	'P1'
_symmetry_Int_Tables_number	1
_symmetry_cell_setting	triclinic
loop_
_symmetry_equiv_pos_as_xyz
  x,y,z
_cell_length_a	16.109301
_cell_length_b	14.750779
_cell_length_c	16.109301
_cell_angle_alpha	77.359896
_cell_angle_beta	96.538519
_cell_angle_gamma	77.359167
loop_
_atom_site_label
_atom_site_type_symbol
_atom_site_fract_x
_atom_site_fract_y
_atom_site_fract_z
O1	O	1.085092	0.079770	-0.124898
O2	O	1.585092	0.579770	0.375102
O3	O	0.843026	0.079786	-0.138200
O4	O	1.343026	0.579786	0.361800
O5	O	0.970711	0.079768	-0.010516
O6	O	1.470711	0.579768	0.489484
O7	O	0.957407	0.079788	-0.252582
O8	O	1.457407	0.579788	0.247418
O9	O	1.006806	-0.079888	0.025575
O10	O	1.506806	0.420112	0.525575
O11	O	0.879121	-0.079870	-0.102109
O12	O	1.379121	0.420130	0.397891
O13	O	1.121187	-0.079885	-0.088807
O14	O	1.621187	0.420115	0.411193
Zn15	Zn	1.005885	-0.105226	-0.089728
Zn16	Zn	1.505885	0.394774	0.410272
Zn17	Zn	0.958328	0.105127	-0.137279
Zn18	Zn	1.458328	0.605127	0.362721
O19	O	0.993502	-0.079867	-0.216491
O20	O	1.493502	0.420133	0.283509
C21	C	0.830099	-0.000040	-0.119617
C22	C	1.330099	0.499960	0.380383
C23	C	0.737802	-0.000035	-0.118003
C24	C	1.237802	0.499965	0.381997
N25	N	1.038347	-0.248787	-0.057275
N26	N	1.538347	0.251213	0.442725
C27	C	0.515531	-0.000040	-0.190009
C28	C	1.015531	0.499960	0.309991
C29	C	0.428812	-0.000046	-0.188484
C30	C	0.928812	0.499954	0.311516
C31	C	0.448688	-0.000055	-0.036993
C32	C	0.948688	0.499945	0.463007
C33	C	0.535407	-0.000055	-0.038518
C34	C	1.035407	0.499945	0.461482
C35	C	0.568825	-0.000043	-0.115030
C36	C	1.068825	0.499957	0.384970
C37	C	0.395387	-0.000049	-0.111979
C38	C	0.895387	0.499951	0.388021
C39	C	0.301362	-0.000055	-0.110325
C40	C	0.801362	0.499945	0.389675
C41	C	0.662855	-0.000038	-0.116684
C42	C	1.162855	0.499962	0.383316
C43	C	0.835210	-0.600576	-0.260326
C44	C	1.335210	-0.100576	0.239674
C45	C	0.857964	-0.701078	-0.237590
C46	C	1.357964	-0.201078	0.262410
C47	C	0.971052	-0.701057	-0.124567
C48	C	1.471052	-0.201057	0.375433
C49	C	0.948305	-0.600553	-0.147290
C50	C	1.448305	-0.100553	0.352710
C51	C	0.880384	-0.550320	-0.215171
C52	C	1.380384	-0.050320	0.284829
C53	C	0.993479	-0.550297	-0.102136
C54	C	1.493479	-0.050297	0.397864
C55	C	0.970737	-0.449801	-0.124861
C56	C	1.470737	0.050199	0.375139
C57	C	0.902821	-0.399562	-0.192740
C58	C	1.402821	0.100438	0.307260
C59	C	0.857642	-0.449825	-0.237896
C60	C	1.357642	0.050175	0.262104
C61	C	1.061404	-0.600531	-0.034259
C62	C	1.561404	-0.100531	0.465741
C63	C	1.106578	-0.550275	0.010895
C64	C	1.606578	-0.050275	0.510895
C65	C	1.083832	-0.449778	-0.011825
C66	C	1.583832	0.050222	0.488175
C67	C	1.015915	-0.399538	-0.079705
C68	C	1.515915	0.100462	0.420295
C69	C	1.129010	-0.399515	0.033331
C70	C	1.629010	0.100485	0.533331
C71	C	1.106268	-0.299019	0.010606
C72	C	1.606268	0.200981	0.510606
C73	C	0.993173	-0.299043	-0.102429
C74	C	1.493173	0.200957	0.397571
C75	C	1.134114	-0.000057	-0.107391
C76	C	1.634114	0.499943	0.392609
C77	C	1.226409	-0.000057	-0.109006
C78	C	1.726409	0.499943	0.390994
C79	C	0.988220	-0.000061	0.038505
C80	C	1.488220	0.499939	0.538505
C81	C	0.986605	-0.000062	0.130800
C82	C	1.486605	0.499938	0.630800
N83	N	0.925873	0.248687	-0.169726
N84	N	1.425873	0.748687	0.330274
C85	C	0.975993	-0.000037	-0.265512
C86	C	1.475993	0.499963	0.234488
C87	C	0.977606	-0.000030	-0.357809
C88	C	1.477606	0.499970	0.142191
C89	C	1.058610	-0.000051	0.353070
C90	C	1.558610	0.499949	0.853070
C91	C	1.057085	-0.000043	0.439789
C92	C	1.557085	0.499957	0.939789
C93	C	0.905595	-0.000037	0.419913
C94	C	1.405595	0.499963	0.919913
C95	C	0.907120	-0.000038	0.333195
C96	C	1.407120	0.499962	0.833195
C97	C	0.983631	-0.000050	0.299777
C98	C	1.483631	0.499950	0.799777
C99	C	0.980580	-0.000041	0.473214
C100	C	1.480580	0.499959	0.973214
C101	C	0.978925	-0.000032	0.567238
C102	C	1.478925	0.499968	1.067238
C103	C	0.985286	-0.000057	0.205747
C104	C	1.485286	0.499943	0.705747
H105	H	0.542738	-0.000037	-0.252308
H106	H	1.042738	0.499963	0.247692
H107	H	0.578802	-0.000061	0.022544
H108	H	1.078802	0.499939	0.522544
C109	C	0.821442	-0.000038	0.456679
C110	C	1.321442	0.499962	0.956679
H111	H	0.831273	-0.000048	0.515961
H112	H	1.331273	0.499952	1.015961
H113	H	0.777978	0.055636	0.425797
H114	H	1.277978	0.555636	0.925797
H115	H	0.803166	-0.055721	0.450974
H116	H	1.303166	0.444279	0.950974
H117	H	1.143054	-0.258100	0.047375
H118	H	1.643054	0.241900	0.547375
C119	C	0.877800	-0.289018	-0.217743
C120	C	1.377800	0.210982	0.282257
H121	H	0.830884	-0.266302	-0.264641
H122	H	1.330884	0.233698	0.235359
H123	H	0.861294	-0.266283	-0.169743
H124	H	1.361294	0.233717	0.330257
H125	H	0.925787	-0.266273	-0.234289
H126	H	1.425787	0.233727	0.265711
H127	H	0.821172	-0.741992	-0.274368
H128	H	1.321172	-0.241992	0.225632
C129	C	0.760497	-0.545314	-0.334992
C130	C	1.260497	-0.045314	0.165008
H131	H	0.736848	-0.589636	-0.358635
H132	H	1.236848	-0.089636	0.141365
H133	H	0.717032	-0.506115	-0.313936
H134	H	1.217032	-0.006115	0.186064
H135	H	0.781527	-0.506107	-0.378480
H136	H	1.281527	-0.006107	0.121520
C137	C	1.203720	-0.454773	0.107993
C138	C	1.703720	0.045227	0.607993
H139	H	1.227370	-0.410448	0.131629
H140	H	1.727370	0.089552	0.631629
H141	H	1.182700	-0.493989	0.151476
H142	H	1.682700	0.006011	0.651476
H143	H	1.247191	-0.493962	0.086929
H144	H	1.747191	0.006038	0.586929
C145	C	1.045757	-0.756318	-0.049900
C146	C	1.545757	-0.256318	0.450100
H147	H	1.052829	-0.823368	-0.042829
H148	H	1.552829	-0.323368	0.457171
H149	H	1.097510	-0.739835	-0.062666
H150	H	1.597510	-0.239835	0.437334
H151	H	1.033007	-0.739851	0.001869
H152	H	1.533007	-0.239851	0.501869
C153	C	1.142765	-0.000057	0.316307
C154	C	1.642765	0.499943	0.816307
H155	H	1.132940	-0.000067	0.257030
H156	H	1.632940	0.499933	0.757030
H157	H	1.161049	0.055618	0.322012
H158	H	1.661049	0.555618	0.822012
H159	H	1.186225	-0.055740	0.347195
H160	H	1.686225	0.444260	0.847195
C161	C	1.181283	-0.605536	0.085562
C162	C	1.681283	-0.105536	0.585562
H163	H	1.188355	-0.672586	0.092634
H164	H	1.688355	-0.172586	0.592634
H165	H	1.233036	-0.589053	0.072796
H166	H	1.733036	-0.089053	0.572796
H167	H	1.168533	-0.589069	0.137331
H168	H	1.668533	-0.089069	0.637331
H169	H	1.079920	-0.682361	-0.015762
H170	H	1.579920	-0.182361	0.484238
C171	C	0.824640	-0.000032	0.274564
C172	C	1.324640	0.499968	0.774564
H173	H	0.836505	-0.000023	0.218129
H174	H	1.336505	0.499977	0.718129
H175	H	0.805850	-0.055704	0.297276
H176	H	1.305850	0.444296	0.797276
H177	H	0.780682	0.055654	0.272102
H178	H	1.280682	0.555654	0.772102
C179	C	0.370190	-0.000035	-0.270963
C180	C	0.870190	0.499965	0.229037
H181	H	0.402514	-0.000021	-0.316747
H182	H	0.902514	0.499979	0.183253
H183	H	0.348537	-0.055710	-0.260935
H184	H	0.848537	0.444290	0.239065
H185	H	0.323358	0.055648	-0.286103
H186	H	0.823358	0.555648	0.213897
H187	H	1.118140	-0.000042	0.483177
H188	H	1.618140	0.499958	0.983177
C189	C	0.782928	-0.394562	-0.312562
C190	C	1.282928	0.105438	0.187438
H191	H	0.759280	-0.438884	-0.336205
H192	H	1.259280	0.061116	0.163795
H193	H	0.739464	-0.355364	-0.291506
H194	H	1.239464	0.144636	0.208494
H195	H	0.803958	-0.355355	-0.356050
H196	H	1.303958	0.144645	0.143950
H197	H	0.421470	-0.000071	0.025301
H198	H	0.921470	0.499929	0.525301
H199	H	0.937859	-0.258141	-0.157699
H200	H	1.437859	0.241859	0.342301
