data_functionalizedCrystal
_audit_creation_method	'MofGen! by Chris Wilmer'
_symmetry_space_group_name_H-M	'P1'
_symmetry_Int_Tables_number	1
_symmetry_cell_setting	triclinic
loop_
_symmetry_equiv_pos_as_xyz
  x,y,z
_cell_length_a	14.853567
_cell_length_b	13.448316
_cell_length_c	14.971494
_cell_angle_alpha	89.995115
_cell_angle_beta	83.626244
_cell_angle_gamma	89.996214
loop_
_atom_site_label
_atom_site_type_symbol
_atom_site_fract_x
_atom_site_fract_y
_atom_site_fract_z
O1	O	1.196350	-0.082619	0.116781
O2	O	0.933888	-0.082636	0.130692
O3	O	1.072149	-0.082625	-0.006462
O4	O	1.058088	-0.082630	0.253935
O5	O	1.072132	0.082759	-0.006470
O6	O	0.933870	0.082748	0.130684
O7	O	1.196332	0.082764	0.116773
Cu8	Cu	1.065100	0.097857	0.123727
Cu9	Cu	1.065120	-0.097729	0.123737
O10	O	1.058071	0.082753	0.253927
C11	C	0.900291	0.000054	0.130058
C12	C	0.800207	0.000047	0.128169
C13	C	1.071511	0.000065	-0.039790
C14	C	1.069622	0.000061	-0.139088
N15	N	1.065092	0.235421	0.123720
C16	C	0.387687	0.000071	0.038712
C17	C	0.366381	0.000067	0.201654
C18	C	0.460415	0.000064	0.203430
C19	C	0.518089	0.000063	0.122846
C20	C	0.481730	0.000065	0.040486
C21	C	0.496781	0.000052	0.285789
C22	C	0.590820	0.000047	0.287568
C23	C	0.648496	0.000053	0.206983
C24	C	0.612131	0.000057	0.124619
C25	C	0.669805	0.000056	0.044035
C26	C	0.633443	0.000066	-0.038329
C27	C	0.539406	0.000071	-0.040100
C28	C	0.742533	0.000048	0.208753
C29	C	0.763848	0.000050	0.045809
C30	C	1.229929	0.000072	0.117407
C31	C	1.330013	0.000072	0.119296
N32	N	1.065135	-0.235293	0.123738
C33	C	1.126333	0.287466	0.063013
C34	C	1.126339	0.391570	0.063012
C35	C	1.065107	0.443626	0.123723
C36	C	1.003859	0.391573	0.184433
C37	C	1.003850	0.287472	0.184429
C38	C	1.003884	0.608553	0.184439
C39	C	1.003894	0.712662	0.184445
C40	C	1.126373	0.712651	0.063023
C41	C	1.126364	0.608550	0.063018
C42	C	1.065117	0.556504	0.123729
C43	C	1.068746	-0.090091	-0.185728
C44	C	1.066966	-0.090093	-0.279027
C45	C	1.066068	0.000059	-0.325685
C46	C	1.066941	0.090218	-0.279038
C47	C	1.068715	0.090218	-0.185740
C48	C	1.063246	0.090211	-0.473502
C49	C	1.061474	0.090211	-0.566807
C50	C	1.061497	-0.090100	-0.566789
C51	C	1.063271	-0.090100	-0.473491
C52	C	1.064146	0.000060	-0.426850
C53	C	1.058709	0.000061	0.287255
C54	C	1.060598	0.000059	0.386553
H55	H	0.810801	0.000053	-0.019814
H56	H	1.060783	-0.163511	-0.604768
C57	C	0.936476	0.448828	0.251189
H58	H	0.899988	0.402919	0.287330
H59	H	0.968920	0.489441	0.288496
H60	H	0.898928	0.489433	0.218913
H61	H	0.772135	0.000041	0.275813
H62	H	1.176199	0.245089	0.013579
H63	H	1.176205	0.433944	0.013580
H64	H	1.066204	0.163621	-0.317034
H65	H	1.063938	0.163628	-0.435528
C66	C	0.347693	0.000079	-0.051882
H67	H	0.283428	0.000077	-0.041402
H68	H	0.367486	0.057749	-0.085071
H69	H	0.367482	-0.057604	-0.085059
H70	H	0.509790	0.000104	-0.107157
H71	H	1.066257	-0.163503	-0.316998
C72	C	1.069737	-0.189257	-0.134408
H73	H	1.070928	-0.176348	-0.072163
H74	H	1.016919	-0.226305	-0.142941
H75	H	1.121991	-0.226292	-0.156454
C76	C	1.060487	0.189372	-0.618134
H77	H	1.059318	0.176456	-0.680381
H78	H	1.008240	0.226414	-0.596100
H79	H	1.113312	0.226418	-0.609600
C80	C	0.302943	0.000070	0.290289
H81	H	0.241730	0.000080	0.277436
H82	H	0.313976	-0.057601	0.324063
H83	H	0.313975	0.057752	0.324046
C84	C	1.193716	0.551289	-0.003762
H85	H	1.230188	0.597193	-0.039925
H86	H	1.231271	0.510665	0.028481
H87	H	1.161235	0.510694	-0.041059
H88	H	0.954007	0.566182	0.233874
H89	H	1.176242	0.755032	0.013590
C90	C	0.433345	0.000039	0.374425
H91	H	0.468468	0.000019	0.423730
H92	H	0.396215	0.057712	0.377124
H93	H	0.396222	-0.057641	0.377110
C94	C	1.069680	0.189385	-0.134436
H95	H	1.068899	0.243077	-0.175585
H96	H	1.017839	0.193128	-0.091286
H97	H	1.122910	0.193137	-0.104796
H98	H	0.680413	0.000059	-0.103941
H99	H	0.620418	0.000039	0.354634
H100	H	0.954032	0.755041	0.233881
H101	H	0.953980	0.245098	0.233861
C102	C	1.064257	-0.189264	-0.422168
H103	H	1.063473	-0.242959	-0.463305
H104	H	1.117480	-0.193007	-0.392524
H105	H	1.012409	-0.193008	-0.379019
