data_functionalizedCrystal
_audit_creation_method	'MofGen! by Chris Wilmer'
_symmetry_space_group_name_H-M	'P1'
_symmetry_Int_Tables_number	1
_symmetry_cell_setting	triclinic
loop_
_symmetry_equiv_pos_as_xyz
  x,y,z
_cell_length_a	18.050591
_cell_length_b	21.295417
_cell_length_c	21.295412
_cell_angle_alpha	89.969332
_cell_angle_beta	89.970494
_cell_angle_gamma	90.026512
loop_
_atom_site_label
_atom_site_type_symbol
_atom_site_fract_x
_atom_site_fract_y
_atom_site_fract_z
Zn1	Zn	1.135344	-0.250692	-0.356012
Zn2	Zn	1.468677	0.082641	-0.022679
Zn3	Zn	1.802010	0.415975	0.310655
Zn4	Zn	1.135231	-0.355960	-0.250737
Zn5	Zn	1.468564	-0.022627	0.082596
Zn6	Zn	1.801897	0.310706	0.415929
Zn7	Zn	1.011144	-0.250702	-0.250746
Zn8	Zn	1.344478	0.082632	0.082587
Zn9	Zn	1.677811	0.415965	0.415921
Zn10	Zn	1.011106	-0.355920	-0.355958
Zn11	Zn	1.344439	-0.022587	-0.022625
Zn12	Zn	1.677773	0.310747	0.310709
O13	O	1.073206	-0.303318	-0.303363
O14	O	1.406539	0.030015	0.029970
O15	O	1.739873	0.363348	0.363303
O16	O	1.239253	-0.264669	-0.342066
O17	O	1.572587	0.068664	-0.008733
O18	O	1.905920	0.401998	0.324601
O19	O	1.118739	-0.342019	-0.162649
O20	O	1.452073	-0.008685	0.170684
O21	O	1.785406	0.324648	0.504018
O22	O	1.027683	-0.162611	-0.264736
O23	O	1.361016	0.170722	0.068597
O24	O	1.694350	0.504056	0.401931
O25	O	1.239170	-0.342009	-0.264721
O26	O	1.572504	-0.008676	0.068612
O27	O	1.905837	0.324658	0.401945
O28	O	1.118932	-0.162604	-0.342074
O29	O	1.452265	0.170730	-0.008741
O30	O	1.785598	0.504063	0.324592
O31	O	1.027573	-0.264685	-0.162655
O32	O	1.360907	0.068648	0.170678
O33	O	1.694240	0.401981	0.504011
O34	O	0.907215	-0.264646	-0.264684
O35	O	1.240548	0.068687	0.068650
O36	O	1.573881	0.402020	0.401983
O37	O	1.027617	-0.341940	-0.444055
O38	O	1.360951	-0.008607	-0.110721
O39	O	1.694284	0.324727	0.222612
O40	O	0.907186	-0.341950	-0.341983
O41	O	1.240520	-0.008616	-0.008649
O42	O	1.573853	0.324717	0.324684
O43	O	1.118894	-0.264630	-0.444094
O44	O	1.452228	0.068704	-0.110761
O45	O	1.785561	0.402037	0.222572
O46	O	1.118702	-0.444044	-0.264669
O47	O	1.452035	-0.110711	0.068664
O48	O	1.785369	0.222622	0.401998
O49	O	1.027508	-0.444015	-0.341974
O50	O	1.360841	-0.110681	-0.008641
O51	O	1.694175	0.222652	0.324692
C52	C	0.880254	-0.303295	-0.303329
C53	C	1.213587	0.030038	0.030005
C54	C	1.546921	0.363372	0.363338
C55	C	0.797708	-0.303300	-0.303329
C56	C	1.131042	0.030033	0.030005
C57	C	1.464375	0.363367	0.363338
C58	C	0.598251	-0.261214	-0.261390
C59	C	0.931585	0.072120	0.071943
C60	C	1.264918	0.405453	0.405276
C61	C	0.548826	-0.318630	-0.245895
C62	C	0.882160	0.014704	0.087439
C63	C	1.215493	0.348037	0.420772
C64	C	0.646578	-0.303319	-0.303357
C65	C	0.979911	0.030014	0.029976
C66	C	1.313245	0.363347	0.363310
C67	C	0.548921	-0.245923	-0.318851
C68	C	0.882255	0.087410	0.014482
C69	C	1.215588	0.420743	0.347816
C70	C	0.500593	-0.303333	-0.303383
C71	C	0.833926	0.030001	0.029950
C72	C	1.167259	0.363334	0.363283
C73	C	0.598240	-0.360765	-0.287832
C74	C	0.931573	-0.027432	0.045502
C75	C	1.264907	0.305901	0.378835
C76	C	0.598339	-0.288020	-0.360814
C77	C	0.931673	0.045313	-0.027481
C78	C	1.265006	0.378647	0.305852
C79	C	0.548937	-0.345476	-0.345341
C80	C	0.882270	-0.012142	-0.012007
C81	C	1.215603	0.321191	0.321326
C82	C	0.730676	-0.303311	-0.303340
C83	C	1.064009	0.030023	0.029993
C84	C	1.397343	0.363356	0.363326
C85	C	0.416496	-0.303348	-0.303400
C86	C	0.749830	0.029986	0.029933
C87	C	1.083163	0.363319	0.363266
C88	C	1.073109	-0.466870	-0.303329
C89	C	1.406442	-0.133537	0.030005
C90	C	1.739775	0.199797	0.363338
C91	C	1.073135	-0.536838	-0.303335
C92	C	1.406468	-0.203505	0.029999
C93	C	1.739802	0.129829	0.363332
C94	C	1.120662	-0.569699	-0.263123
C95	C	1.453995	-0.236366	0.070210
C96	C	1.787329	0.096967	0.403544
C97	C	1.120697	-0.635442	-0.263137
C98	C	1.454030	-0.302109	0.070196
C99	C	1.787363	0.031225	0.403529
C100	C	1.073191	-0.668321	-0.303356
C101	C	1.406525	-0.334987	0.029977
C102	C	1.739858	-0.001654	0.363310
C103	C	1.025661	-0.635451	-0.343576
C104	C	1.358995	-0.302118	-0.010242
C105	C	1.692328	0.031215	0.323091
C106	C	1.025633	-0.569710	-0.343565
C107	C	1.358966	-0.236377	-0.010232
C108	C	1.692300	0.096956	0.323102
N109	N	1.008225	-0.771583	-0.308144
N110	N	1.341559	-0.438249	0.025190
N111	N	1.674892	-0.104916	0.358523
N112	N	1.008254	-0.834034	-0.308150
N113	N	1.341588	-0.500701	0.025183
N114	N	1.674921	-0.167367	0.358516
C115	C	1.073275	-0.866395	-0.303392
C116	C	1.406608	-0.533062	0.029941
C117	C	1.739941	-0.199729	0.363274
N118	N	1.138267	-0.833946	-0.298616
N119	N	1.471600	-0.500613	0.034718
N120	N	1.804933	-0.167279	0.368051
N121	N	1.138237	-0.771489	-0.298606
N122	N	1.471570	-0.438155	0.034728
N123	N	1.804903	-0.104822	0.368061
C124	C	1.073217	-0.739606	-0.303373
C125	C	1.406550	-0.406273	0.029960
C126	C	1.739884	-0.072939	0.363294
C127	C	1.120843	-0.970542	-0.263194
C128	C	1.454177	-0.637209	0.070139
C129	C	1.787510	-0.303875	0.403473
C130	C	1.120879	-1.036286	-0.263213
C131	C	1.454213	-0.702952	0.070121
C132	C	1.787546	-0.369619	0.403454
C133	C	1.025837	-1.036294	-0.343648
C134	C	1.359170	-0.702961	-0.010315
C135	C	1.692504	-0.369627	0.323019
C136	C	1.025808	-0.970552	-0.343633
C137	C	1.359141	-0.637218	-0.010299
C138	C	1.692474	-0.303885	0.323034
C139	C	1.073310	-0.937680	-0.303402
C140	C	1.406643	-0.604346	0.029931
C141	C	1.739976	-0.271013	0.363264
C142	C	1.266912	-0.303342	-0.303399
C143	C	1.600245	0.029991	0.029935
C144	C	1.933578	0.363324	0.363268
C145	C	1.349457	-0.303353	-0.303414
C146	C	1.682791	0.029981	0.029920
C147	C	2.016124	0.363314	0.363253
C148	C	1.073264	-0.303279	-0.467554
C149	C	1.406598	0.030054	-0.134220
C150	C	1.739931	0.363387	0.199113
C151	C	1.073289	-0.303263	-0.537522
C152	C	1.406622	0.030071	-0.204189
C153	C	1.739956	0.363404	0.129145
C154	C	1.073324	-0.139128	-0.303412
C155	C	1.406657	0.194205	0.029921
C156	C	1.739991	0.527539	0.363254
C157	C	1.073374	-0.069160	-0.303433
C158	C	1.406708	0.264173	0.029900
C159	C	1.740041	0.597507	0.363234
C160	C	1.025832	-0.262991	-0.570382
C161	C	1.359165	0.070343	-0.237049
C162	C	1.692498	0.403676	0.096285
C163	C	1.025829	-0.262979	-0.636124
C164	C	1.359162	0.070354	-0.302791
C165	C	1.692496	0.403688	0.030542
C166	C	1.073297	-0.303233	-0.669004
C167	C	1.406630	0.030101	-0.335671
C168	C	1.739964	0.363434	-0.002338
C169	C	1.120758	-0.343512	-0.636136
C170	C	1.454091	-0.010179	-0.302803
C171	C	1.787424	0.323154	0.030530
C172	C	1.120754	-0.343527	-0.570395
C173	C	1.454087	-0.010194	-0.237062
C174	C	1.787420	0.323139	0.096272
N175	N	1.138307	-0.308044	-0.772248
N176	N	1.471641	0.025289	-0.438915
N177	N	1.804974	0.358623	-0.105582
N178	N	1.138309	-0.308026	-0.834700
N179	N	1.471642	0.025307	-0.501367
N180	N	1.804976	0.358641	-0.168033
C181	C	1.073311	-0.303191	-0.867079
C182	C	1.406644	0.030143	-0.533746
C183	C	1.739977	0.363476	-0.200413
N184	N	1.008309	-0.298362	-0.834648
N185	N	1.341643	0.034972	-0.501315
N186	N	1.674976	0.368305	-0.167981
N187	N	1.008309	-0.298376	-0.772191
N188	N	1.341642	0.034957	-0.438857
N189	N	1.674975	0.368290	-0.105524
C190	C	1.073306	-0.303221	-0.740290
C191	C	1.406640	0.030112	-0.406957
C192	C	1.739973	0.363446	-0.073623
C193	C	1.025846	-0.262904	-0.971225
C194	C	1.359180	0.070429	-0.637892
C195	C	1.692513	0.403763	-0.304558
C196	C	1.025843	-0.262897	-1.036969
C197	C	1.359176	0.070437	-0.703635
C198	C	1.692509	0.403770	-0.370302
C199	C	1.120778	-0.343427	-1.036979
C200	C	1.454111	-0.010093	-0.703646
C201	C	1.787445	0.323240	-0.370313
C202	C	1.120775	-0.343437	-0.971237
C203	C	1.454109	-0.010104	-0.637904
C204	C	1.787442	0.323229	-0.304570
C205	C	1.073310	-0.303173	-0.938364
C206	C	1.406644	0.030161	-0.605030
C207	C	1.739977	0.363494	-0.271697
C208	C	1.073191	-0.303312	-0.139812
C209	C	1.406524	0.030021	0.193522
C210	C	1.739858	0.363355	0.526855
C211	C	1.073310	-0.303151	-0.069844
C212	C	1.406643	0.030182	0.263489
C213	C	1.739977	0.363515	0.596823
H214	H	0.527420	-0.381130	-0.380842
H215	H	0.860753	-0.047796	-0.047508
H216	H	1.194086	0.285537	0.285825
N217	N	0.627169	-0.270850	-0.425146
N218	N	0.960502	0.062483	-0.091813
N219	N	1.293836	0.395817	0.241521
H220	H	0.609262	-0.227458	-0.436804
H221	H	0.942595	0.105875	-0.103470
H222	H	1.275928	0.439208	0.229863
H223	H	0.683114	-0.271416	-0.424711
H224	H	1.016447	0.061918	-0.091378
H225	H	1.349780	0.395251	0.241956
H226	H	0.527079	-0.331580	-0.197315
H227	H	0.860413	0.001754	0.136018
H228	H	1.193746	0.335087	0.469351
H229	H	1.159422	-0.376230	-0.944482
H230	H	1.492755	-0.042896	-0.611149
H231	H	1.826089	0.290437	-0.277815
N232	N	0.520220	-0.181623	-0.336196
N233	N	0.853554	0.151711	-0.002863
N234	N	1.186887	0.485044	0.330471
H235	H	0.563351	-0.152320	-0.343662
H236	H	0.896684	0.181013	-0.010329
H237	H	1.230017	0.514347	0.323005
H238	H	0.489452	-0.184731	-0.375671
H239	H	0.822786	0.148603	-0.042338
H240	H	1.156119	0.481936	0.290995
N241	N	1.171905	-0.534245	-0.219743
N242	N	1.505238	-0.200911	0.113590
N243	N	1.838571	0.132422	0.446924
H244	H	1.202022	-0.565042	-0.194274
H245	H	1.535355	-0.231709	0.139059
H246	H	1.868689	0.101625	0.472393
H247	H	1.206244	-0.506931	-0.245399
H248	H	1.539578	-0.173598	0.087934
H249	H	1.872911	0.159735	0.421267
N250	N	1.171961	-0.670896	-0.219766
N251	N	1.505294	-0.337563	0.113568
N252	N	1.838627	-0.004229	0.446901
H253	H	1.202049	-0.640096	-0.194280
H254	H	1.535382	-0.306762	0.139054
H255	H	1.868716	0.026571	0.472387
H256	H	1.141754	-0.698213	-0.190616
H257	H	1.475087	-0.364880	0.142717
H258	H	1.808420	-0.031546	0.476051
H259	H	0.986983	-0.662226	-0.376324
H260	H	1.320317	-0.328892	-0.042990
H261	H	1.653650	0.004441	0.290343
N262	N	0.626804	-0.425087	-0.270403
N263	N	0.960137	-0.091753	0.062931
N264	N	1.293471	0.241580	0.396264
H265	H	0.608445	-0.456934	-0.301896
H266	H	0.941779	-0.123601	0.031437
H267	H	1.275112	0.209732	0.364770
H268	H	0.682753	-0.424625	-0.270471
H269	H	1.016087	-0.091291	0.062863
H270	H	1.349420	0.242042	0.396196
H271	H	0.986930	-0.542954	-0.376311
H272	H	1.320264	-0.209621	-0.042977
H273	H	1.653597	0.123713	0.290356
N274	N	1.171961	-0.386928	-0.671592
N275	N	1.505295	-0.053594	-0.338258
N276	N	1.838628	0.279739	-0.004925
H277	H	1.160391	-0.431906	-0.660133
H278	H	1.493725	-0.098572	-0.326800
H279	H	1.827058	0.234761	0.006534
H280	H	1.164744	-0.380755	-0.718214
H281	H	1.498078	-0.047422	-0.384881
H282	H	1.831411	0.285912	-0.051548
N283	N	1.172076	-0.935081	-0.219807
N284	N	1.505409	-0.601748	0.113526
N285	N	1.838742	-0.268415	0.446859
H286	H	1.202194	-0.965877	-0.194338
H287	H	1.535528	-0.632544	0.138995
H288	H	1.868861	-0.299211	0.472329
H289	H	1.206415	-0.907759	-0.245455
H290	H	1.539748	-0.574426	0.087878
H291	H	1.873081	-0.241093	0.421212
N292	N	0.974633	-0.219551	-0.671580
N293	N	1.307966	0.113783	-0.338247
N294	N	1.641300	0.447116	-0.004913
H295	H	1.004834	-0.190380	-0.698883
H296	H	1.338167	0.142953	-0.365550
H297	H	1.671500	0.476286	-0.032216
H298	H	0.940217	-0.245178	-0.698794
H299	H	1.273551	0.088155	-0.365460
H300	H	1.606884	0.421488	-0.032127
N301	N	0.974629	-0.219565	-0.534937
N302	N	1.307962	0.113768	-0.201603
N303	N	1.641296	0.447102	0.131730
H304	H	0.940188	-0.245145	-0.507640
H305	H	1.273522	0.088189	-0.174307
H306	H	1.606855	0.421522	0.159027
H307	H	1.004878	-0.190408	-0.507718
H308	H	1.338211	0.142925	-0.174384
H309	H	1.671544	0.476258	0.158949
N310	N	1.172147	-1.071733	-0.219843
N311	N	1.505480	-0.738399	0.113490
N312	N	1.838814	-0.405066	0.446824
H313	H	1.202232	-1.040930	-0.194357
H314	H	1.535565	-0.707597	0.138977
H315	H	1.868898	-0.374263	0.472310
H316	H	1.141944	-1.099053	-0.190693
H317	H	1.475278	-0.765720	0.142640
H318	H	1.808611	-0.432386	0.475973
N319	N	0.974644	-0.219487	-0.935765
N320	N	1.307977	0.113846	-0.602432
N321	N	1.641311	0.447180	-0.269098
H322	H	0.981846	-0.225604	-0.889131
H323	H	1.315179	0.107729	-0.555798
H324	H	1.648512	0.441063	-0.222465
H325	H	0.986233	-0.174528	-0.947277
H326	H	1.319566	0.158805	-0.613943
H327	H	1.652899	0.492139	-0.280610
N328	N	1.171942	-0.386966	-0.534949
N329	N	1.505275	-0.053633	-0.201616
N330	N	1.838608	0.279701	0.131717
H331	H	1.202011	-0.412467	-0.565752
H332	H	1.535344	-0.079134	-0.232419
H333	H	1.868678	0.254199	0.100914
H334	H	1.206328	-0.361353	-0.507696
H335	H	1.539662	-0.028019	-0.174363
H336	H	1.872995	0.305314	0.158971
N337	N	0.974648	-0.219463	-1.072414
N338	N	1.307981	0.113870	-0.739081
N339	N	1.641315	0.447203	-0.405747
H340	H	0.944582	-0.193960	-1.041611
H341	H	1.277915	0.139374	-0.708277
H342	H	1.611249	0.472707	-0.374944
H343	H	1.004901	-0.190333	-1.099715
H344	H	1.338235	0.143001	-0.766381
H345	H	1.671568	0.476334	-0.433048
N346	N	1.171971	-0.386849	-1.072433
N347	N	1.505304	-0.053516	-0.739100
N348	N	1.838638	0.279817	-0.405766
H349	H	1.164772	-0.380731	-1.119067
H350	H	1.498105	-0.047398	-0.785733
H351	H	1.831438	0.285935	-0.452400
H352	H	1.225018	-0.377062	-1.060967
H353	H	1.558351	-0.043729	-0.727634
H354	H	1.891684	0.289604	-0.394301
H355	H	0.987161	-1.063063	-0.376398
H356	H	1.320494	-0.729730	-0.043065
H357	H	1.653827	-0.396397	0.290269
H358	H	0.619905	-0.225645	-0.225862
H359	H	0.953238	0.107688	0.107471
H360	H	1.286571	0.441022	0.440805
N361	N	0.974541	-0.935103	-0.386999
N362	N	1.307874	-0.601770	-0.053666
N363	N	1.641207	-0.268437	0.279667
H364	H	0.944449	-0.965906	-0.412480
H365	H	1.277783	-0.632572	-0.079147
H366	H	1.611116	-0.299239	0.254187
H367	H	0.940177	-0.907870	-0.361338
H368	H	1.273511	-0.574537	-0.028005
H369	H	1.606844	-0.241204	0.305328
