data_functionalizedCrystal
_audit_creation_method	'MofGen! by Chris Wilmer'
_symmetry_space_group_name_H-M	'P1'
_symmetry_Int_Tables_number	1
_symmetry_cell_setting	triclinic
loop_
_symmetry_equiv_pos_as_xyz
  x,y,z
_cell_length_a	17.699077
_cell_length_b	16.176319
_cell_length_c	10.654550
_cell_angle_alpha	89.999586
_cell_angle_beta	96.117247
_cell_angle_gamma	90.006844
loop_
_atom_site_label
_atom_site_type_symbol
_atom_site_fract_x
_atom_site_fract_y
_atom_site_fract_z
O1	O	1.005092	0.068735	-0.158762
O2	O	1.505092	0.568735	0.341238
O3	O	0.784844	0.068739	-0.179431
O4	O	1.284844	0.568739	0.320569
O5	O	0.900032	0.068732	0.013732
O6	O	1.400032	0.568732	0.513732
O7	O	0.889904	0.068743	-0.351924
O8	O	1.389904	0.568743	0.148076
O9	O	0.900014	-0.068761	0.013721
O10	O	1.400014	0.431239	0.513721
O11	O	0.784827	-0.068754	-0.179442
O12	O	1.284827	0.431246	0.320558
O13	O	1.005074	-0.068758	-0.158772
O14	O	1.505074	0.431242	0.341228
Cu15	Cu	0.894949	-0.081310	-0.169108
Cu16	Cu	1.394949	0.418690	0.330892
Cu17	Cu	0.894970	0.081292	-0.169095
Cu18	Cu	1.394970	0.581292	0.330905
O19	O	0.889887	-0.068751	-0.351935
O20	O	1.389887	0.431249	0.148065
C21	C	0.756634	-0.000007	-0.178697
C22	C	1.256634	0.499993	0.321303
C23	C	0.672601	-0.000005	-0.176479
C24	C	1.172601	0.499995	0.323521
C25	C	0.633118	-0.074954	-0.175439
C26	C	1.133118	0.425046	0.324561
C27	C	0.554162	-0.074955	-0.173335
C28	C	1.054162	0.425045	0.326665
C29	C	0.514690	-0.000006	-0.172280
C30	C	1.014690	0.499994	0.327720
C31	C	0.554180	0.074948	-0.173315
C32	C	1.054180	0.574948	0.326685
C33	C	0.633135	0.074948	-0.175410
C34	C	1.133135	0.574948	0.324590
C35	C	0.235763	0.074949	-0.164864
C36	C	0.735763	0.574949	0.335136
C37	C	0.156802	0.074943	-0.162773
C38	C	0.656802	0.574943	0.337227
C39	C	0.156790	-0.074953	-0.162789
C40	C	0.656790	0.425047	0.337211
C41	C	0.235745	-0.074953	-0.164884
C42	C	0.735745	0.425047	0.335116
C43	C	0.275228	0.000000	-0.165913
C44	C	0.775228	0.500000	0.334087
C45	C	0.360841	0.000000	-0.168192
C46	C	0.860841	0.500000	0.331808
C47	C	0.429078	-0.000006	-0.170009
C48	C	0.929078	0.499994	0.329991
N49	N	0.894940	-0.195675	-0.169116
N50	N	1.394940	0.304325	0.330884
C51	C	0.945996	-0.761061	-0.083576
C52	C	1.445996	-0.261061	0.416424
C53	C	0.945993	-0.674514	-0.083584
C54	C	1.445993	-0.174514	0.416416
C55	C	0.894974	-0.631251	-0.169090
C56	C	1.394974	-0.131251	0.330910
C57	C	0.843960	-0.674539	-0.254600
C58	C	1.343960	-0.174539	0.245400
C59	C	0.843967	-0.761084	-0.254597
C60	C	1.343967	-0.261084	0.245403
C61	C	0.843929	-0.325511	-0.254618
C62	C	1.343929	0.174489	0.245382
C63	C	0.843924	-0.238959	-0.254613
C64	C	1.343924	0.261041	0.245387
C65	C	0.945955	-0.238940	-0.083606
C66	C	1.445955	0.261060	0.416394
C67	C	0.945962	-0.325486	-0.083602
C68	C	1.445962	0.174514	0.416398
C69	C	0.894951	-0.368766	-0.169117
C70	C	1.394951	0.131234	0.330883
C71	C	0.894956	-0.462611	-0.169108
C72	C	1.394956	0.037389	0.330892
C73	C	0.894964	-0.537408	-0.169093
C74	C	1.394964	-0.037408	0.330907
C75	C	1.033285	-0.000010	-0.159506
C76	C	1.533285	0.499990	0.340494
C77	C	1.117317	-0.000006	-0.161724
C78	C	1.617317	0.499994	0.338276
C79	C	0.899279	-0.000014	0.060511
C80	C	1.399279	0.499986	0.560511
C81	C	0.897055	-0.000013	0.199916
C82	C	1.397055	0.499987	0.699916
N83	N	0.894985	0.195657	-0.169077
N84	N	1.394985	0.695657	0.330923
C85	C	0.890639	-0.000003	-0.398715
C86	C	1.390639	0.499997	0.101285
C87	C	0.892864	0.000002	-0.538119
C88	C	1.392864	0.500002	-0.038119
C89	C	0.964875	-0.000014	0.280591
C90	C	1.464875	0.499986	0.780591
C91	C	0.962780	-0.000004	0.411575
C92	C	1.462780	0.499996	0.911575
C93	C	0.825038	0.000005	0.381196
C94	C	1.325038	0.500005	0.881196
C95	C	0.827134	0.000001	0.250214
C96	C	1.327134	0.500001	0.750214
H97	H	0.522036	0.135972	-0.172447
H98	H	1.022036	0.635972	0.327553
H99	H	0.987531	-0.639274	-0.013963
H100	H	1.487531	-0.139274	0.486037
Cl101	Cl	1.010100	-0.379871	0.023897
Cl102	Cl	1.510100	0.120129	0.523897
H103	H	0.665281	0.135979	-0.176259
H104	H	1.165281	0.635979	0.323741
Cl105	Cl	0.107149	-0.169183	-0.161489
Cl106	Cl	0.607149	0.330817	0.338511
Cl107	Cl	0.504527	-0.169180	-0.172052
Cl108	Cl	1.004527	0.330820	0.327948
H109	H	0.771902	0.000004	0.184524
H110	H	1.271902	0.500004	0.684524
Cl111	Cl	1.010087	-0.184526	0.023896
Cl112	Cl	1.510087	0.315474	0.523896
H113	H	0.802376	-0.203735	-0.324246
H114	H	1.302376	0.296265	0.175754
Cl115	Cl	0.285361	-0.169178	-0.166219
Cl116	Cl	0.785361	0.330822	0.333781
H117	H	0.987539	-0.796280	-0.013942
H118	H	1.487539	-0.296280	0.486058
Cl119	Cl	0.779823	-0.620152	-0.362101
Cl120	Cl	1.279823	-0.120152	0.137899
H121	H	0.665249	-0.135986	-0.176310
H122	H	1.165249	0.364014	0.323690
Cl123	Cl	0.107181	0.169172	-0.161443
Cl124	Cl	0.607181	0.669172	0.338557
Cl125	Cl	1.048045	-0.000003	0.512991
Cl126	Cl	1.548045	0.499997	1.012991
H127	H	0.267900	0.135981	-0.165698
H128	H	0.767900	0.635981	0.334302
H129	H	0.802393	-0.360743	-0.324245
H130	H	1.302393	0.139257	0.175755
H131	H	0.802429	-0.796324	-0.324222
H132	H	1.302429	-0.296324	0.175778
H133	H	0.768111	0.000014	0.422165
H134	H	1.268111	0.500014	0.922165
Cl135	Cl	1.052775	-0.000029	0.217363
Cl136	Cl	1.552775	0.499971	0.717363
