data_functionalizedCrystal
_audit_creation_method	'MofGen! by Chris Wilmer'
_symmetry_space_group_name_H-M	'P1'
_symmetry_Int_Tables_number	1
_symmetry_cell_setting	triclinic
loop_
_symmetry_equiv_pos_as_xyz
  x,y,z
_cell_length_a	18.050589
_cell_length_b	17.077404
_cell_length_c	18.050565
_cell_angle_alpha	89.936225
_cell_angle_beta	89.901801
_cell_angle_gamma	90.028446
loop_
_atom_site_label
_atom_site_type_symbol
_atom_site_fract_x
_atom_site_fract_y
_atom_site_fract_z
Zn1	Zn	-0.295116	1.200369	-0.419934
Zn2	Zn	-0.419472	1.200162	-0.295753
Zn3	Zn	-0.295301	1.068999	-0.295758
Zn4	Zn	-0.419269	1.069056	-0.419902
O5	O	-0.357290	1.134647	-0.357837
O6	O	-0.311619	1.310188	-0.403473
O7	O	-0.403164	1.182653	-0.191829
O8	O	-0.191352	1.086488	-0.312246
O9	O	-0.402984	1.310036	-0.312237
O10	O	-0.191216	1.183005	-0.403477
O11	O	-0.311936	1.086288	-0.191833
O12	O	-0.311738	0.959160	-0.312215
O13	O	-0.402637	1.086586	-0.523832
O14	O	-0.402817	0.959202	-0.403423
O15	O	-0.311422	1.183060	-0.523855
O16	O	-0.523370	1.182708	-0.312207
O17	O	-0.523221	1.086385	-0.403418
C18	C	-0.357276	0.930699	-0.357817
C19	C	-0.357288	0.843449	-0.357825
C20	C	-0.404785	0.802501	-0.405241
C21	C	-0.404786	0.720521	-0.405253
C22	C	-0.357295	0.679490	-0.357845
C23	C	-0.309793	0.720443	-0.310427
C24	C	-0.309788	0.802422	-0.310419
C25	C	-0.309808	0.549573	-0.310445
C26	C	-0.309813	0.467588	-0.310451
C27	C	-0.404806	0.467672	-0.405279
C28	C	-0.404801	0.549651	-0.405271
C29	C	-0.357300	0.590599	-0.357852
C30	C	-0.550242	1.134552	-0.357825
C31	C	-0.632788	1.134583	-0.357844
C32	C	-0.832184	1.082254	-0.407428
C33	C	-0.881712	1.063064	-0.339660
C34	C	-0.783918	1.134660	-0.357854
C35	C	-0.881471	1.153889	-0.425629
C36	C	-0.929903	1.134733	-0.357869
C37	C	-0.832359	1.115432	-0.290051
C38	C	-0.832113	1.206291	-0.376065
C39	C	-0.881620	1.187128	-0.308251
C40	C	-0.699820	1.134616	-0.357846
C41	C	-1.013999	1.134777	-0.357869
C42	C	-0.163584	1.134763	-0.357866
C43	C	-0.081038	1.134813	-0.357878
C44	C	-0.356986	1.134852	-0.551543
C45	C	-0.356857	1.134940	-0.634089
C46	C	-0.357304	1.339391	-0.357858
C47	C	-0.357310	1.426641	-0.357867
C48	C	-0.357538	1.134487	-0.164884
C49	C	-0.357458	1.134551	-0.082339
C50	C	-0.406446	1.187516	0.117151
C51	C	-0.425034	1.116073	0.166728
C52	C	-0.357256	1.134681	0.068791
C53	C	-0.338506	1.206247	0.166295
C54	C	-0.357062	1.134812	0.214776
C55	C	-0.375880	1.063200	0.117281
C56	C	-0.289320	1.153422	0.116844
C57	C	-0.307882	1.081930	0.166399
C58	C	-0.357370	1.134606	-0.015307
C59	C	-0.356948	1.134878	0.298872
H60	H	-0.271121	0.582910	-0.271837
H61	H	-0.903047	1.170124	-0.482940
O62	O	-0.258072	1.028744	0.192077
C63	C	-0.147591	1.006949	0.263936
C64	C	-0.203933	1.067267	0.234888
H65	H	-0.103814	1.038069	0.298568
H66	H	-0.119809	0.976362	0.215146
H67	H	-0.177475	0.961744	0.299642
H68	H	-0.174104	1.112520	0.199194
H69	H	-0.231713	1.097794	0.283712
H70	H	-0.448161	1.232085	0.095525
O71	O	-0.451019	0.428021	-0.451366
C72	C	-0.545217	0.436755	-0.545441
C73	C	-0.492928	0.481761	-0.493282
H74	H	-0.579103	0.480184	-0.579355
H75	H	-0.584098	0.398334	-0.511314
H76	H	-0.511117	0.398418	-0.584308
H77	H	-0.526968	0.520140	-0.454404
H78	H	-0.454045	0.520132	-0.527456
H79	H	-0.482402	1.100273	0.188633
O80	O	-0.394813	0.991098	0.091580
C81	C	-0.416119	0.910128	-0.015538
C82	C	-0.394678	0.991819	0.013469
H83	H	-0.416003	0.910679	-0.078693
H84	H	-0.473790	0.894094	0.005405
H85	H	-0.374383	0.865113	0.005208
H86	H	-0.436364	1.036888	-0.007265
H87	H	-0.336990	1.007786	-0.007468
H88	H	-0.231968	1.169243	0.094924
H89	H	-0.322728	1.266716	0.187831
H90	H	-0.810479	1.037871	-0.449292
O91	O	-0.806698	1.095846	-0.221706
C92	C	-0.734200	1.005399	-0.149371
C93	C	-0.763226	1.027484	-0.226805
H94	H	-0.699034	0.950136	-0.153469
H95	H	-0.783004	0.994363	-0.110564
H96	H	-0.699029	1.055392	-0.126758
H97	H	-0.798386	0.977520	-0.249484
H98	H	-0.714389	1.038548	-0.265562
O99	O	-0.450942	0.842234	-0.451365
C100	C	-0.545187	0.833655	-0.545396
C101	C	-0.492941	0.788563	-0.493207
H102	H	-0.579168	0.790281	-0.579227
H103	H	-0.511123	0.872078	-0.584332
H104	H	-0.583988	0.871995	-0.511220
H105	H	-0.454131	0.750180	-0.527322
H106	H	-0.527051	0.750189	-0.454268
H107	H	-0.271133	0.434183	-0.271856
H108	H	-0.271108	0.835761	-0.271812
H109	H	-0.443463	0.687185	-0.443863
H110	H	-0.903188	1.231477	-0.266286
H111	H	-0.271121	0.687029	-0.271829
H112	H	-0.443477	0.583056	-0.443871
O113	O	-0.907795	0.990844	-0.321388
C114	C	-0.981201	0.879922	-0.358928
C115	C	-0.951732	0.961713	-0.379701
H116	H	-1.016717	0.856338	-0.406069
H117	H	-1.016085	0.884159	-0.306377
H118	H	-0.932564	0.838691	-0.348976
H119	H	-1.000323	1.002988	-0.389691
H120	H	-0.916826	0.957414	-0.432232
O121	O	-0.806133	1.278475	-0.394590
C122	C	-0.801669	1.380342	-0.486974
C123	C	-0.831128	1.298579	-0.466085
H124	H	-0.821878	1.396628	-0.544772
H125	H	-0.738518	1.379769	-0.486304
H126	H	-0.822846	1.425186	-0.445278
H127	H	-0.810006	1.253689	-0.507761
H128	H	-0.894277	1.299217	-0.466732
