data_functionalizedCrystal
_audit_creation_method	'MofGen! by Chris Wilmer'
_symmetry_space_group_name_H-M	'P1'
_symmetry_Int_Tables_number	1
_symmetry_cell_setting	triclinic
loop_
_symmetry_equiv_pos_as_xyz
  x,y,z
_cell_length_a	11.169417
_cell_length_b	16.625539
_cell_length_c	11.169416
_cell_angle_alpha	89.979018
_cell_angle_beta	90.011589
_cell_angle_gamma	89.986584
loop_
_atom_site_label
_atom_site_type_symbol
_atom_site_fract_x
_atom_site_fract_y
_atom_site_fract_z
Zn1	Zn	1.834890	-0.455862	-0.477787
Zn2	Zn	2.334890	0.044138	0.022213
Zn3	Zn	1.834801	-0.321042	-0.678493
Zn4	Zn	2.334801	0.178958	-0.178493
Zn5	Zn	1.634197	-0.321051	-0.477827
Zn6	Zn	2.134197	0.178949	0.022173
Zn7	Zn	1.634183	-0.455840	-0.678431
Zn8	Zn	2.134183	0.044160	-0.178431
O9	O	1.734518	-0.388449	-0.578135
O10	O	2.234518	0.111551	-0.078135
O11	O	2.002828	-0.437983	-0.504420
O12	O	2.502828	0.062017	-0.004420
O13	O	1.808159	-0.208210	-0.651917
O14	O	2.308159	0.291790	-0.151917
O15	O	1.660863	-0.338946	-0.309872
O16	O	2.160863	0.161054	0.190128
O17	O	2.002762	-0.338931	-0.651878
O18	O	2.502762	0.161069	-0.151878
O19	O	1.808311	-0.437991	-0.309843
O20	O	2.308311	0.062009	0.190157
O21	O	1.660776	-0.208217	-0.504488
O22	O	2.160776	0.291783	-0.004488
O23	O	1.466246	-0.338926	-0.504428
O24	O	1.966246	0.161074	-0.004428
O25	O	1.660839	-0.568675	-0.651773
O26	O	2.160839	-0.068675	-0.151773
O27	O	1.466236	-0.437955	-0.651811
O28	O	1.966236	0.062045	-0.151811
O29	O	1.808297	-0.568691	-0.504360
O30	O	2.308297	-0.068691	-0.004360
O31	O	1.808145	-0.338910	-0.846434
O32	O	2.308145	0.161090	-0.346434
O33	O	1.660753	-0.437946	-0.846389
O34	O	2.160753	0.062054	-0.346389
C35	C	1.422693	-0.388439	-0.578118
C36	C	1.922693	0.111561	-0.078118
C37	C	1.289293	-0.388455	-0.578140
C38	C	1.789293	0.111545	-0.078140
C39	C	1.734577	-0.598758	-0.578055
C40	C	2.234577	-0.098758	-0.078055
C41	C	1.734602	-0.688379	-0.578022
C42	C	2.234602	-0.188379	-0.078022
C43	C	1.734621	-0.761161	-0.577995
C44	C	2.234621	-0.261161	-0.077995
C45	C	1.734649	-0.852470	-0.577950
C46	C	2.234649	-0.352470	-0.077950
C47	C	1.734678	-0.925246	-0.577908
C48	C	2.234678	-0.425246	-0.077908
C49	C	1.734708	-1.016561	-0.577865
C50	C	2.234708	-0.516561	-0.077865
C51	C	2.047560	-0.388458	-0.578152
C52	C	2.547560	0.111542	-0.078152
C53	C	2.180960	-0.388462	-0.578159
C54	C	2.680960	0.111538	-0.078159
C55	C	1.734470	-0.388442	-0.889959
C56	C	2.234470	0.111558	-0.389959
C57	C	1.734560	-0.388467	-1.023359
C58	C	2.234560	0.111533	-0.523359
C59	C	1.734528	-0.178958	-0.578127
C60	C	2.234528	0.321042	-0.078127
C61	C	1.734736	-0.089337	-0.577823
C62	C	2.234736	0.410663	-0.077823
C63	C	1.734598	-0.388472	-0.265092
C64	C	2.234598	0.111528	0.234908
C65	C	1.734633	-0.388483	-0.131692
C66	C	2.234633	0.111517	0.368308
