data_functionalizedCrystal
_audit_creation_method	'MofGen! by Chris Wilmer'
_symmetry_space_group_name_H-M	'P1'
_symmetry_Int_Tables_number	1
_symmetry_cell_setting	triclinic
loop_
_symmetry_equiv_pos_as_xyz
  x,y,z
_cell_length_a	18.215407
_cell_length_b	16.625545
_cell_length_c	18.215399
_cell_angle_alpha	89.970704
_cell_angle_beta	89.983176
_cell_angle_gamma	90.026006
loop_
_atom_site_label
_atom_site_type_symbol
_atom_site_fract_x
_atom_site_fract_y
_atom_site_fract_z
Zn1	Zn	1.125047	-0.320981	-0.416121
Zn2	Zn	1.458380	0.012352	-0.082788
Zn3	Zn	1.791713	0.345686	0.250545
Zn4	Zn	1.124960	-0.455827	-0.293057
Zn5	Zn	1.458293	-0.122494	0.040276
Zn6	Zn	1.791627	0.210840	0.373609
Zn7	Zn	1.001986	-0.321013	-0.293069
Zn8	Zn	1.335319	0.012320	0.040265
Zn9	Zn	1.668652	0.345654	0.373598
Zn10	Zn	1.001944	-0.455776	-0.416082
Zn11	Zn	1.335277	-0.122443	-0.082749
Zn12	Zn	1.668610	0.210890	0.250584
O13	O	1.063484	-0.388399	-0.354582
O14	O	1.396817	-0.055066	-0.021249
O15	O	1.730151	0.278267	0.312084
O16	O	1.228019	-0.338876	-0.399808
O17	O	1.561353	-0.005543	-0.066475
O18	O	1.894686	0.327790	0.266858
O19	O	1.108629	-0.437978	-0.190074
O20	O	1.441962	-0.104645	0.143259
O21	O	1.775295	0.228688	0.476592
O22	O	1.018364	-0.208176	-0.309413
O23	O	1.351697	0.125157	0.023920
O24	O	1.685030	0.458490	0.357254
O25	O	1.227956	-0.437947	-0.309394
O26	O	1.561289	-0.104614	0.023940
O27	O	1.894622	0.228720	0.357273
O28	O	1.108776	-0.208153	-0.399819
O29	O	1.442110	0.125180	-0.066486
O30	O	1.775443	0.458514	0.266847
O31	O	1.018280	-0.338931	-0.190083
O32	O	1.351613	-0.005598	0.143250
O33	O	1.684947	0.327736	0.476584
O34	O	0.898996	-0.338882	-0.309375
O35	O	1.232329	-0.005549	0.023958
O36	O	1.565663	0.327785	0.357292
O37	O	1.018292	-0.437861	-0.519072
O38	O	1.351626	-0.104528	-0.185738
O39	O	1.684959	0.228806	0.147595
O40	O	0.898965	-0.437892	-0.399753
O41	O	1.232298	-0.104559	-0.066419
O42	O	1.565632	0.228775	0.266914
O43	O	1.108735	-0.338827	-0.519100
O44	O	1.442069	-0.005494	-0.185767
O45	O	1.775402	0.327839	0.147566
O46	O	1.108588	-0.568653	-0.309356
O47	O	1.441921	-0.235319	0.023978
O48	O	1.775255	0.098014	0.357311
O49	O	1.018208	-0.568616	-0.399742
O50	O	1.351542	-0.235282	-0.066408
O51	O	1.684875	0.098051	0.266925
C52	C	0.872278	-0.388386	-0.354561
C53	C	1.205611	-0.055052	-0.021228
C54	C	1.538944	0.278281	0.312105
C55	C	0.790479	-0.388399	-0.354570
C56	C	1.123812	-0.055066	-0.021236
C57	C	1.457146	0.278268	0.312097
C58	C	0.602288	-0.440035	-0.401570
C59	C	0.935621	-0.106701	-0.068237
C60	C	1.268955	0.226632	0.265096
C61	C	0.525429	-0.440037	-0.401579
C62	C	0.858763	-0.106704	-0.068246
C63	C	1.192096	0.226629	0.265087
C64	C	0.525432	-0.336779	-0.307611
C65	C	0.858765	-0.003445	0.025723
C66	C	1.192099	0.329888	0.359056
C67	C	0.602289	-0.336773	-0.307606
C68	C	0.935623	-0.003439	0.025728
C69	C	1.268956	0.329894	0.359061
C70	C	0.640715	-0.388405	-0.354584
C71	C	0.974049	-0.055072	-0.021251
C72	C	1.307382	0.278261	0.312082
C73	C	0.486999	-0.388414	-0.354598
C74	C	0.820333	-0.055081	-0.021265
C75	C	1.153666	0.278253	0.312068
C76	C	0.403666	-0.388416	-0.354608
C77	C	0.736999	-0.055083	-0.021275
C78	C	1.070332	0.278250	0.312059
C79	C	0.724054	-0.388402	-0.354576
C80	C	1.057388	-0.055069	-0.021243
C81	C	1.390721	0.278265	0.312091
C82	C	1.063404	-0.597890	-0.354559
C83	C	1.396737	-0.264557	-0.021226
C84	C	1.730071	0.068776	0.312107
C85	C	1.063437	-0.687511	-0.354574
C86	C	1.396771	-0.354178	-0.021241
C87	C	1.730104	-0.020845	0.312093
C88	C	1.063466	-0.760294	-0.354589
C89	C	1.396799	-0.426960	-0.021255
C90	C	1.730132	-0.093627	0.312078
C91	C	1.063509	-0.851602	-0.354605
C92	C	1.396842	-0.518269	-0.021271
C93	C	1.730175	-0.184936	0.312062
C94	C	1.063547	-0.924379	-0.354614
C95	C	1.396880	-0.591045	-0.021281
C96	C	1.730213	-0.257712	0.312053
C97	C	1.063589	-1.015693	-0.354629
C98	C	1.396922	-0.682360	-0.021296
C99	C	1.730256	-0.349026	0.312037
C100	C	1.255437	-0.388414	-0.354604
C101	C	1.588770	-0.055081	-0.021271
C102	C	1.922104	0.278253	0.312063
C103	C	1.337236	-0.388420	-0.354613
C104	C	1.670569	-0.055087	-0.021280
C105	C	2.003902	0.278247	0.312053
C106	C	1.063519	-0.388335	-0.546535
C107	C	1.396852	-0.055002	-0.213202
C108	C	1.730185	0.278332	0.120131
C109	C	1.063534	-0.388308	-0.628334
C110	C	1.396867	-0.054974	-0.295001
C111	C	1.730200	0.278359	0.038332
C112	C	1.063584	-0.178091	-0.354622
C113	C	1.396918	0.155243	-0.021288
C114	C	1.730251	0.488576	0.312045
C115	C	1.063627	-0.088469	-0.354639
C116	C	1.396960	0.244864	-0.021305
C117	C	1.730294	0.578197	0.312028
C118	C	1.016529	-0.336699	-0.816534
C119	C	1.349862	-0.003366	-0.483200
C120	C	1.683195	0.329968	-0.149867
C121	C	1.016542	-0.336683	-0.893392
C122	C	1.349875	-0.003349	-0.560059
C123	C	1.683208	0.329984	-0.226726
C124	C	1.110626	-0.439820	-0.893373
C125	C	1.443960	-0.106487	-0.560040
C126	C	1.777293	0.226847	-0.226706
C127	C	1.110609	-0.439840	-0.816516
C128	C	1.443943	-0.106506	-0.483182
C129	C	1.777276	0.226827	-0.149849
C130	C	1.063562	-0.388275	-0.778098
C131	C	1.396895	-0.054941	-0.444765
C132	C	1.730228	0.278392	-0.111431
C133	C	1.063591	-0.388239	-0.931814
C134	C	1.396925	-0.054905	-0.598481
C135	C	1.730258	0.278428	-0.265147
C136	C	1.063606	-0.388221	-1.015148
C137	C	1.396939	-0.054888	-0.681814
C138	C	1.730272	0.278445	-0.348481
C139	C	1.063546	-0.388293	-0.694759
C140	C	1.396880	-0.054959	-0.361426
C141	C	1.730213	0.278374	-0.028092
C142	C	1.063492	-0.388405	-0.163376
C143	C	1.396825	-0.055072	0.169957
C144	C	1.730158	0.278261	0.503291
C145	C	1.063620	-0.388206	-0.081578
C146	C	1.396953	-0.054872	0.251756
C147	C	1.730286	0.278461	0.585089
H148	H	0.633572	-0.482075	-0.439825
H149	H	0.966906	-0.148742	-0.106492
H150	H	1.300239	0.184591	0.226842
N151	N	0.965810	-0.281056	-0.934845
N152	N	1.299143	0.052278	-0.601512
N153	N	1.632476	0.385611	-0.268178
H154	H	0.977263	-0.223449	-0.921488
H155	H	1.310597	0.109885	-0.588155
H156	H	1.643930	0.443218	-0.254822
H157	H	0.972977	-0.288936	-0.989351
H158	H	1.306311	0.044397	-0.656017
H159	H	1.639644	0.377730	-0.322684
H160	H	1.148932	-0.481802	-0.924662
H161	H	1.482265	-0.148469	-0.591329
H162	H	1.815598	0.184865	-0.257995
H163	H	0.978219	-0.294711	-0.785256
H164	H	1.311553	0.038622	-0.451923
H165	H	1.644886	0.371955	-0.118589
N166	N	0.483982	-0.495727	-0.452253
N167	N	0.817315	-0.162393	-0.118920
N168	N	1.150649	0.170940	0.214413
H169	H	0.519990	-0.528434	-0.482010
H170	H	0.853323	-0.195100	-0.148676
H171	H	1.186656	0.138233	0.184657
H172	H	0.452070	-0.533000	-0.422236
H173	H	0.785403	-0.199666	-0.088902
H174	H	1.118737	0.133667	0.244431
N175	N	1.161341	-0.495465	-0.775049
N176	N	1.494674	-0.162132	-0.441715
N177	N	1.828008	0.171202	-0.108382
H178	H	1.131406	-0.532835	-0.743150
H179	H	1.464739	-0.199502	-0.409817
H180	H	1.798072	0.133832	-0.076484
H181	H	1.191144	-0.528072	-0.811090
H182	H	1.524478	-0.194739	-0.477756
H183	H	1.857811	0.138594	-0.144423
N184	N	0.483987	-0.281113	-0.256923
N185	N	0.817320	0.052221	0.076410
N186	N	1.150653	0.385554	0.409743
H187	H	0.429466	-0.288958	-0.264048
H188	H	0.762800	0.044375	0.069286
H189	H	1.096133	0.377709	0.402619
H190	H	0.497410	-0.293612	-0.204351
H191	H	0.830743	0.039721	0.128983
H192	H	1.164076	0.373054	0.462316
N193	N	0.643740	-0.281089	-0.256919
N194	N	0.977073	0.052245	0.076414
N195	N	1.310407	0.385578	0.409747
H196	H	0.698259	-0.288919	-0.264048
H197	H	1.031592	0.044414	0.069286
H198	H	1.364926	0.377748	0.402619
H199	H	0.630331	-0.223519	-0.268464
H200	H	0.963664	0.109815	0.064870
H201	H	1.296998	0.443148	0.398203
