data_functionalizedCrystal
_audit_creation_method	'MofGen! by Chris Wilmer'
_symmetry_space_group_name_H-M	'P1'
_symmetry_Int_Tables_number	1
_symmetry_cell_setting	triclinic
loop_
_symmetry_equiv_pos_as_xyz
  x,y,z
_cell_length_a	18.101395
_cell_length_b	12.759401
_cell_length_c	12.759393
_cell_angle_alpha	90.021921
_cell_angle_beta	89.966505
_cell_angle_gamma	89.973003
loop_
_atom_site_label
_atom_site_type_symbol
_atom_site_fract_x
_atom_site_fract_y
_atom_site_fract_z
Zn1	Zn	-0.294867	-1.606135	-0.594065
Zn2	Zn	-0.418728	-1.605979	-0.418379
Zn3	Zn	-0.294896	-1.430437	-0.418393
Zn4	Zn	-0.418662	-1.430376	-0.594010
O5	O	-0.356788	-1.518232	-0.506212
O6	O	-0.311313	-1.753136	-0.570777
O7	O	-0.402342	-1.582654	-0.271360
O8	O	-0.191260	-1.453835	-0.441726
O9	O	-0.402313	-1.753021	-0.441701
O10	O	-0.191238	-1.582920	-0.570791
O11	O	-0.311363	-1.453684	-0.271370
O12	O	-0.311299	-1.283408	-0.441672
O13	O	-0.402200	-1.453730	-0.741038
O14	O	-0.402229	-1.283363	-0.570697
O15	O	-0.311248	-1.582860	-0.741079
O16	O	-0.522353	-1.582594	-0.441648
O17	O	-0.522304	-1.453579	-0.570683
C18	C	-0.356760	-1.245264	-0.506181
C19	C	-0.356766	-1.128488	-0.506193
C20	C	-0.309355	-1.073619	-0.439130
C21	C	-0.309368	-0.963895	-0.439140
C22	C	-0.404206	-0.963919	-0.573283
C23	C	-0.404196	-1.073641	-0.573267
C24	C	-0.282818	-0.813893	-0.315322
C25	C	-0.235395	-0.759020	-0.248269
C26	C	-0.163117	-0.794658	-0.232314
C27	C	-0.138248	-0.885167	-0.283429
C28	C	-0.185668	-0.940034	-0.350489
C29	C	-0.257955	-0.904398	-0.366424
C30	C	-0.430738	-1.223644	-0.697087
C31	C	-0.478154	-1.278514	-0.764154
C32	C	-0.550433	-1.242878	-0.780119
C33	C	-0.575299	-1.152366	-0.729023
C34	C	-0.527883	-1.097496	-0.661956
C35	C	-0.455605	-1.133140	-0.645990
C36	C	-0.549199	-1.518091	-0.506181
C37	C	-0.631513	-1.518127	-0.506203
C38	C	-0.930604	-1.518358	-0.506259
C39	C	-0.899279	-1.437373	-0.587646
C40	C	-0.813661	-1.436988	-0.587392
C41	C	-0.782221	-1.518243	-0.506232
C42	C	-0.813380	-1.488263	-0.395505
C43	C	-0.899025	-1.487741	-0.395992
C44	C	-0.898951	-1.629500	-0.534625
C45	C	-0.813300	-1.628847	-0.537053
C46	C	-0.698362	-1.518181	-0.506210
C47	C	-1.014463	-1.518418	-0.506274
C48	C	-0.163626	-1.518402	-0.506266
C49	C	-0.081312	-1.518474	-0.506289
C50	C	-0.356713	-1.518305	-0.780245
C51	C	-0.356682	-1.518336	-0.897022
C52	C	-0.356807	-0.792265	-0.506233
C53	C	-0.356789	-0.909042	-0.506218
C54	C	-0.309300	-1.451206	-0.951889
C55	C	-0.309277	-1.451230	-1.061613
C56	C	-0.404019	-1.585525	-1.061594
C57	C	-0.404045	-1.585494	-0.951871
C58	C	-0.282767	-1.327391	-1.211560
C59	C	-0.235374	-1.260269	-1.266431
C60	C	-0.163120	-1.244195	-1.230844
C61	C	-0.138244	-1.295256	-1.140388
C62	C	-0.185633	-1.362385	-1.085523
C63	C	-0.257898	-1.378440	-1.121108
C64	C	-0.430548	-1.709336	-0.801923
C65	C	-0.477934	-1.776471	-0.747056
C66	C	-0.550189	-1.792556	-0.782640
C67	C	-0.575063	-1.741513	-0.873100
C68	C	-0.527677	-1.674378	-0.927967
C69	C	-0.455422	-1.658291	-0.892375
C70	C	-0.356810	-1.518219	-0.233244
C71	C	-0.356633	-1.518392	-0.116468
H72	H	-0.079390	-0.914171	-0.270440
H73	H	-0.270733	-1.118272	-0.384516
N74	N	-0.451106	-1.831538	-0.649494
H75	H	-0.435957	-1.777792	-0.595502
H76	H	-0.492117	-1.876513	-0.620234
H77	H	-0.341605	-1.340461	-1.240536
H78	H	-0.165378	-1.403963	-1.011878
N79	N	-0.060337	-1.277825	-1.101936
H80	H	-0.034102	-1.227515	-1.150391
H81	H	-0.061817	-1.247467	-1.028852
N82	N	-0.112002	-1.171800	-1.290020
H83	H	-0.138724	-1.141894	-1.352721
H84	H	-0.095853	-1.112845	-1.242434
H85	H	-0.792932	-1.651455	-0.618542
N86	N	-0.926494	-1.461956	-0.696755
H87	H	-0.882912	-1.476191	-0.744137
H88	H	-0.959405	-1.525808	-0.694396
H89	H	-0.919209	-1.689837	-0.475347
N90	N	-0.926482	-1.562444	-0.312900
H91	H	-0.982278	-1.562679	-0.312561
H92	H	-0.907727	-1.635364	-0.328495
N93	N	-0.262221	-0.661413	-0.193130
H94	H	-0.258975	-0.671784	-0.114797
H95	H	-0.230430	-0.599938	-0.214335
N96	N	-0.785052	-1.381785	-0.363107
H97	H	-0.801463	-1.327575	-0.415858
H98	H	-0.805414	-1.363283	-0.291746
H99	H	-0.920494	-1.656833	-0.613990
H100	H	-0.371884	-1.252673	-0.684086
H101	H	-0.634152	-1.123345	-0.742029
N102	N	-0.786400	-1.563922	-0.312983
H103	H	-0.807105	-1.543146	-0.242445
H104	H	-0.803370	-1.637102	-0.331128
N105	N	-0.925579	-1.380129	-0.364162
H106	H	-0.881649	-1.333476	-0.349948
H107	H	-0.956200	-1.349085	-0.422569
H108	H	-0.255635	-1.218695	-1.340080
H109	H	-0.589034	-1.287554	-0.834744
N110	N	-0.158854	-1.037642	-0.405626
H111	H	-0.105867	-1.051892	-0.385351
H112	H	-0.190684	-1.099097	-0.384481
H113	H	-0.341674	-0.784875	-0.328295
H114	H	-0.442820	-0.919249	-0.627894
N115	N	-0.111967	-0.735479	-0.159993
H116	H	-0.138687	-0.672737	-0.130037
H117	H	-0.095761	-0.783042	-0.101072
N118	N	-0.554699	-0.999870	-0.606844
H119	H	-0.607683	-0.985616	-0.627132
H120	H	-0.551420	-1.010296	-0.528524
H121	H	-0.457895	-1.352198	-0.805780
N122	N	-0.785743	-1.461822	-0.696144
H123	H	-0.804154	-1.533227	-0.718139
H124	H	-0.804436	-1.407199	-0.746900
H125	H	-0.920863	-1.355493	-0.569094
N126	N	-0.455105	-1.657953	-1.120753
H127	H	-0.447900	-1.647787	-1.198587
H128	H	-0.443597	-1.732994	-1.101587
N129	N	-0.786595	-1.327870	-0.562496
H130	H	-0.830301	-1.279834	-0.551639
H131	H	-0.755746	-1.329755	-0.496595
N132	N	-0.554500	-1.619304	-1.025527
H133	H	-0.522680	-1.640377	-1.087082
H134	H	-0.607472	-1.639695	-1.039657
H135	H	-0.791895	-1.692377	-0.482095
N136	N	-0.258216	-1.378777	-0.892728
H137	H	-0.228197	-1.336255	-0.944140
H138	H	-0.288363	-1.330116	-0.847184
H139	H	-0.633898	-1.754615	-0.902078
N140	N	-0.601297	-1.864978	-0.723472
H141	H	-0.574578	-1.894884	-0.660771
H142	H	-0.646092	-1.824515	-0.699087
N143	N	-0.352614	-1.691976	-0.763536
H144	H	-0.344045	-1.734506	-0.697910
H145	H	-0.316513	-1.714590	-0.819540
