data_functionalizedCrystal
_audit_creation_method	'MofGen! by Chris Wilmer'
_symmetry_space_group_name_H-M	'P1'
_symmetry_Int_Tables_number	1
_symmetry_cell_setting	triclinic
loop_
_symmetry_equiv_pos_as_xyz
  x,y,z
_cell_length_a	21.883469
_cell_length_b	21.882911
_cell_length_c	21.879399
_cell_angle_alpha	60.006540
_cell_angle_beta	60.013207
_cell_angle_gamma	59.992231
loop_
_atom_site_label
_atom_site_type_symbol
_atom_site_fract_x
_atom_site_fract_y
_atom_site_fract_z
O1	O	0.084645	-0.892842	0.746620
O2	O	0.031867	-0.695139	0.601571
O3	O	0.157054	-0.820237	0.601476
O4	O	-0.040542	-0.767744	0.746716
O5	O	0.198586	-0.778715	0.642912
O6	O	0.073399	-0.653617	0.643007
O7	O	0.126177	-0.851320	0.788056
Cu8	Cu	0.103580	-0.748677	0.719315
Cu9	Cu	0.054464	-0.797782	0.670313
O10	O	0.000990	-0.726222	0.788151
N11	N	0.138128	-0.714145	0.753785
N12	N	0.019923	-0.832320	0.635843
C13	C	0.190018	-0.547369	0.805644
C14	C	0.190029	-0.662289	0.805630
C15	C	0.218780	-0.633565	0.834353
C16	C	0.344122	-0.611968	0.768360
C17	C	0.422474	-0.638085	0.742222
C18	C	0.422504	-0.764859	0.790561
C19	C	0.344154	-0.738739	0.816702
C20	C	0.208899	-0.508180	0.728617
C21	C	0.182748	-0.429822	0.702522
C22	C	0.118843	-0.429847	0.830485
C23	C	0.144993	-0.508205	0.856580
C24	C	0.112994	-0.643364	0.824587
C25	C	0.086865	-0.669476	0.798467
C26	C	0.214799	-0.733437	0.734451
C27	C	0.240932	-0.707325	0.760562
C28	C	0.113084	-0.643389	0.959747
C29	C	0.087018	-0.669524	1.038102
C30	C	0.214996	-0.733501	1.038048
C31	C	0.241061	-0.707367	0.959690
C32	C	0.190103	-0.662308	0.920542
C33	C	0.304966	-0.662293	0.805598
C34	C	-0.117460	-0.854702	0.612901
C35	C	-0.002405	-0.854864	0.498145
C36	C	-0.002621	-0.969735	0.613108
C37	C	-0.002603	-0.854858	0.613180
C38	C	-0.031272	-0.883541	0.584334
N39	N	0.460550	-0.714150	0.753681
O40	O	0.699805	-0.721060	0.574973
O41	O	0.700047	-0.866553	0.772482
O42	O	0.699952	-0.866219	0.647213
O43	O	0.699900	-0.721394	0.700242
O44	O	0.575478	-0.824800	0.688791
O45	O	0.575573	-0.825134	0.814060
O46	O	0.575331	-0.679641	0.616551
Cu47	Cu	0.564087	-0.748606	0.719102
Cu48	Cu	0.711292	-0.797588	0.669931
O49	O	0.575426	-0.679975	0.741820
N50	N	0.814828	-0.832044	0.635345
N51	N	0.138106	-0.391772	0.753815
O52	O	-0.040520	-0.152377	0.746758
O53	O	0.156993	-0.152371	0.601281
O54	O	0.031698	-0.152390	0.601639
O55	O	0.084775	-0.152358	0.746401
O56	O	0.073234	-0.276876	0.643130
O57	O	0.198529	-0.276856	0.642772
O58	O	0.001015	-0.276863	0.788249
Cu59	Cu	0.103564	-0.288226	0.719299
Cu60	Cu	0.054444	-0.141007	0.670231
O61	O	0.126310	-0.276844	0.787892
N62	N	0.019892	-0.037461	0.635717
N63	N	0.138332	-0.714192	1.076133
O64	O	0.131293	-0.892804	1.315506
O65	O	-0.014162	-0.695219	1.315533
O66	O	-0.013826	-0.820490	1.315480
O67	O	0.130957	-0.767533	1.315559
O68	O	0.027651	-0.778981	1.191001
O69	O	0.027314	-0.653710	1.191054
O70	O	0.172770	-0.851295	1.191026
Cu71	Cu	0.103829	-0.748713	1.179674
Cu72	Cu	0.054778	-0.797802	1.326885
O73	O	0.172434	-0.726024	1.191079
N74	N	0.020275	-0.832331	1.430426
C75	C	0.047687	-0.649466	0.602306
C76	C	0.202716	-0.804385	0.602188
C77	C	0.110357	-0.896993	0.787321
C78	C	-0.044672	-0.742074	0.787439
C79	C	0.637839	-0.865879	0.818154
C80	C	0.637724	-0.865466	0.663023
C81	C	0.637536	-0.680313	0.570880
C82	C	0.637655	-0.680728	0.726010
C83	C	0.202592	-0.214459	0.601942
C84	C	0.047481	-0.214636	0.602435
C85	C	-0.044635	-0.214620	0.787537
C86	C	0.110528	-0.214598	0.787096
C87	C	-0.013455	-0.649572	1.253296
C88	C	-0.013030	-0.804697	1.253206
C89	C	0.172063	-0.896942	1.253263
C90	C	0.171648	-0.741808	1.253325
H91	H	0.024299	-0.654107	1.070013
C92	C	0.637971	-0.991595	0.894811
C93	C	0.637932	-0.927546	0.894728
H94	H	0.638025	-1.029664	0.942086
H95	H	0.681360	-1.008726	0.856713
H96	H	0.594546	-0.979834	0.885703
H97	H	0.681360	-0.939306	0.903831
H98	H	0.594538	-0.910413	0.932838
C99	C	0.701785	-0.989602	0.655887
C100	C	0.637750	-0.926888	0.647708
H101	H	0.701802	-1.027518	0.646427
H102	H	0.701828	-1.007889	0.705432
H103	H	0.745155	-0.975932	0.621338
H104	H	0.594380	-0.940557	0.682260
H105	H	0.637700	-0.908599	0.598155
H106	H	0.036413	-0.592673	0.556752
H107	H	0.259468	-0.815577	0.556577
C108	C	0.573419	-0.601333	0.480905
C109	C	0.637432	-0.618643	0.494310
H110	H	0.573359	-0.563264	0.433632
H111	H	0.530039	-0.584201	0.519008
H112	H	0.573456	-0.644795	0.480971
H113	H	0.637393	-0.575183	0.494249
H114	H	0.680824	-0.635773	0.456196
C115	C	0.364945	-0.773228	0.967510
C116	C	0.325727	-0.728167	0.916598
H117	H	0.417213	-0.786064	0.940906
H118	H	0.352120	-0.817529	0.998066
H119	H	0.352107	-0.746642	0.998077
H120	H	0.338560	-0.754754	0.886034
H121	H	0.338558	-0.683857	0.886029
H122	H	0.121892	-0.214588	0.832572
C123	C	0.268947	-0.149876	0.477631
C124	C	0.279007	-0.214000	0.540125
H125	H	0.316124	-0.149601	0.439467
H126	H	0.246396	-0.106564	0.491423
H127	H	0.237508	-0.149984	0.459615
H128	H	0.310442	-0.213889	0.558145
H129	H	0.301570	-0.257323	0.526332
H130	H	0.637644	-0.635235	0.737357
H131	H	0.036114	-0.214639	0.556956
H132	H	-0.101359	-0.214623	0.833209
H133	H	0.071542	-0.606694	0.861281
C134	C	-0.048463	-0.526631	1.253339
C135	C	-0.075108	-0.572969	1.253308
H136	H	-0.086527	-0.479341	1.253351
H137	H	-0.005941	-0.520083	1.209939
H138	H	-0.034861	-0.549040	1.296757
H139	H	-0.088704	-0.550562	1.209886
H140	H	-0.117642	-0.579515	1.296712
C141	C	-0.047436	-0.893001	1.253056
C142	C	-0.074410	-0.819956	1.253100
H143	H	-0.085329	-0.902418	1.252986
H144	H	-0.033840	-0.927541	1.296480
H145	H	-0.004851	-0.898578	1.209663
H146	H	-0.116991	-0.814381	1.296497
H147	H	-0.088016	-0.785407	1.209671
H148	H	0.217732	-0.953686	1.253245
C149	C	0.253151	-0.777430	1.317335
C150	C	0.233056	-0.726520	1.253345
H151	H	0.291059	-0.767986	1.317347
H152	H	0.271436	-0.826981	1.317316
H153	H	0.210587	-0.771837	1.360739
H154	H	0.275619	-0.732116	1.209940
H155	H	0.214773	-0.676957	1.253356
C156	C	-0.036977	-0.603651	0.864389
C157	C	0.002186	-0.648687	0.819308
H158	H	-0.089253	-0.590823	0.877260
H159	H	-0.024161	-0.559343	0.837811
H160	H	-0.024084	-0.630250	0.908675
H161	H	-0.010702	-0.622085	0.775019
H162	H	-0.010635	-0.693002	0.845886
H163	H	0.071582	-0.606692	0.927876
H164	H	0.256252	-0.770113	0.697763
C165	C	0.364773	-0.773135	0.694625
C166	C	0.325610	-0.728101	0.739707
H167	H	0.417049	-0.785958	0.681748
H168	H	0.351875	-0.746544	0.650349
H169	H	0.351963	-0.817454	0.721211
H170	H	0.338416	-0.683779	0.713118
H171	H	0.338514	-0.754692	0.783990
H172	H	0.256495	-0.770176	1.069914
C173	C	-0.134684	-0.666835	0.866270
C174	C	-0.121283	-0.726979	0.849018
H175	H	-0.181978	-0.657520	0.904290
H176	H	-0.134559	-0.623517	0.822781
H177	H	-0.096607	-0.678686	0.883452
H178	H	-0.159358	-0.715125	0.831830
H179	H	-0.121414	-0.770306	0.892515
H180	H	0.121632	-0.953785	0.832877
H181	H	0.454413	-0.827107	0.799589
C182	C	0.320021	-0.830555	0.810090
C183	C	0.301110	-0.794060	0.857630
H184	H	0.293443	-0.864704	0.835358
H185	H	0.372286	-0.857048	0.796116
H186	H	0.307146	-0.794662	0.766559
H187	H	0.313991	-0.829952	0.901159
H188	H	0.248833	-0.767566	0.871615
C189	C	0.414574	-0.510151	0.697055
C190	C	0.465518	-0.582767	0.701285
H191	H	0.441151	-0.476000	0.671777
H192	H	0.384040	-0.508153	0.746140
H193	H	0.383991	-0.497048	0.670367
H194	H	0.496097	-0.595872	0.727978
H195	H	0.496065	-0.584767	0.652191
H196	H	0.245557	-0.540066	0.687141
C197	C	0.256030	-0.517237	0.825561
C198	C	0.301048	-0.527937	0.756157
H199	H	0.229434	-0.465360	0.818024
H200	H	0.286620	-0.535615	0.854248
H201	H	0.221496	-0.543473	0.851474
H202	H	0.335586	-0.501706	0.730246
H203	H	0.270456	-0.509550	0.727458
H204	H	0.198119	-0.397913	0.639797
H205	H	0.082193	-0.397958	0.871963
H206	H	0.129609	-0.540114	0.919306
