data_functionalizedCrystal
_audit_creation_method	'MofGen! by Chris Wilmer'
_symmetry_space_group_name_H-M	'P1'
_symmetry_Int_Tables_number	1
_symmetry_cell_setting	triclinic
loop_
_symmetry_equiv_pos_as_xyz
  x,y,z
_cell_length_a	23.196402
_cell_length_b	14.560438
_cell_length_c	23.196401
_cell_angle_alpha	60.008046
_cell_angle_beta	90.011712
_cell_angle_gamma	59.999402
loop_
_atom_site_label
_atom_site_type_symbol
_atom_site_fract_x
_atom_site_fract_y
_atom_site_fract_z
Zr1	Zr	0.555345	1.005290	-0.075662
O2	O	0.463273	1.196891	-0.167708
O3	O	0.583570	0.813690	-0.047446
O4	O	0.583541	1.005293	-0.167715
O5	O	0.463324	1.005285	0.047431
O6	O	0.678411	1.005296	-0.167718
O7	O	0.463301	1.005287	-0.047440
O8	O	0.678462	0.662552	0.047420
O9	O	0.463273	1.348029	-0.167706
O10	O	0.666408	0.892500	-0.035413
O11	O	0.595624	0.892496	0.035391
O12	O	0.595591	1.118085	-0.106210
O13	O	0.524807	1.118081	-0.035406
Zr14	Zr	0.706688	1.005290	0.075642
Zr15	Zr	0.706652	1.005294	-0.075667
Zr16	Zr	0.555381	1.005287	0.075647
Zr17	Zr	0.555345	1.246338	-0.075659
Zr18	Zr	0.706687	0.764243	0.075639
O19	O	0.678463	1.196891	0.047426
O20	O	0.678411	1.196896	-0.167716
O21	O	0.463324	1.196886	0.047434
O22	O	0.798760	0.813690	0.167688
O23	O	0.798708	0.813695	-0.047454
O24	O	0.583621	0.813684	0.167695
O25	O	0.798708	1.005296	-0.047452
O26	O	0.678491	1.005287	0.167694
O27	O	0.583621	1.005285	0.167698
O28	O	0.798731	1.005293	0.047420
O29	O	0.583542	1.348032	-0.167711
O30	O	0.678491	0.662549	0.167690
O31	O	0.798760	0.662552	0.167686
O32	O	0.798731	0.662555	0.047416
O33	O	0.463302	1.348026	-0.047436
O34	O	0.583570	1.348029	-0.047440
O35	O	0.666442	0.892496	0.106190
O36	O	0.737225	0.892500	0.035386
O37	O	0.666408	1.118085	-0.035411
O38	O	0.595625	1.118081	0.035393
C39	C	0.631016	0.703777	-0.000014
C40	C	0.631016	0.601446	-0.000015
C41	C	0.667963	0.553371	-0.036974
C42	C	0.667965	0.457212	-0.036967
C43	C	0.594069	0.457213	0.036958
C44	C	0.594071	0.553364	0.036955
C45	C	0.441755	1.005286	-0.000004
C46	C	0.377521	1.005284	-0.000001
C47	C	0.384312	0.887535	0.036947
C48	C	0.323958	0.887533	0.036950
C49	C	0.256813	1.005287	-0.000009
C50	C	0.250025	1.123052	-0.036959
C51	C	0.310379	1.123051	-0.036955
C52	C	0.132869	1.095504	-0.061919
C53	C	0.072518	1.095501	-0.061925
C54	C	0.070659	1.005297	-0.000020
C55	C	0.129166	0.915075	0.061890
C56	C	0.189520	0.915073	0.061894
C57	C	0.191365	1.005302	-0.000017
C58	C	0.012009	0.887538	0.036934
C59	C	-0.048348	0.887541	0.036939
C60	C	-0.122280	1.123064	-0.036976
C61	C	-0.061924	1.123057	-0.036974
C62	C	0.005219	1.005291	-0.000021
C63	C	0.820278	1.005295	-0.000017
C64	C	0.884511	1.005297	-0.000019
C65	C	0.630971	1.005295	-0.189275
C66	C	0.630956	1.005297	-0.253509
C67	C	0.631017	1.306804	-0.000007
C68	C	0.631017	1.409135	-0.000005
C69	C	0.593993	1.123046	-0.320637
C70	C	0.594011	1.123048	-0.380992
C71	C	0.630982	1.005293	-0.374215
C72	C	0.667952	0.887528	-0.307075
C73	C	0.667939	0.887530	-0.246722
C74	C	0.625732	0.915076	-0.441533
C75	C	0.625740	0.915080	-0.501887
C76	C	0.631027	1.005283	-0.560363
C77	C	0.636291	1.095506	-0.558485
C78	C	0.636278	1.095508	-0.498132
C79	C	0.631001	1.005278	-0.439654
C80	C	0.594082	1.123043	-0.692938
C81	C	0.594105	1.123040	-0.753293
C82	C	0.668041	0.887517	-0.679373
C83	C	0.668023	0.887523	-0.619021
C84	C	0.631040	1.005290	-0.625808
C85	C	0.631062	1.005286	0.189254
C86	C	0.631077	1.005284	0.253489
C87	C	0.820277	0.703781	-0.000020
C88	C	0.884511	0.601452	-0.000024
C89	C	0.631061	0.703772	0.189251
C90	C	0.631076	0.601439	0.253484
C91	C	0.820323	0.703777	0.189244
C92	C	0.884572	0.601446	0.253475
C93	C	0.441710	1.306804	-0.189264
C94	C	0.377461	1.409135	-0.253496
C95	C	0.441755	1.306799	0.000000
C96	C	0.377522	1.409129	0.000003
C97	C	0.630971	1.306809	-0.189271
C98	C	0.630956	1.409141	-0.253504
C99	C	0.877710	0.553397	-0.036988
C100	C	0.938058	0.457261	-0.037005
C101	C	1.005207	0.409175	-0.000054
C102	C	1.012007	0.457239	0.036912
C103	C	0.951659	0.553380	0.036924
C104	C	0.668050	0.553383	0.320611
C105	C	0.668061	0.457244	0.380971
C106	C	0.631103	0.409157	0.374202
C107	C	0.594126	0.457223	0.307068
C108	C	0.594111	0.553366	0.246710
C109	C	0.951698	0.553392	0.246680
C110	C	1.012072	0.457254	0.307026
C111	C	1.005319	0.409166	0.374167
C112	C	0.938185	0.457229	0.380961
C113	C	0.877812	0.553371	0.320615
C114	C	0.310335	1.457201	-0.246700
C115	C	0.249960	1.553368	-0.307046
C116	C	0.256714	1.601462	-0.374187
C117	C	0.323847	1.553392	-0.380981
C118	C	0.384220	1.457233	-0.320636
C119	C	0.384323	1.457194	0.036961
C120	C	0.323975	1.553357	0.036962
C121	C	0.256826	1.601446	0.000009
C122	C	0.250026	1.553377	-0.036954
C123	C	0.310374	1.457223	-0.036958
C124	C	0.667921	1.457198	-0.246713
C125	C	0.667921	1.553338	-0.307061
C126	C	0.630951	1.601425	-0.374200
C127	C	0.593985	1.553359	-0.380991
C128	C	0.593990	1.457215	-0.320643
H129	H	0.438978	0.791640	0.067033
O130	O	0.456626	1.405402	-0.327958
H131	H	0.485908	1.299337	-0.302232
O132	O	0.554197	1.250054	-0.700249
H133	H	0.591498	1.255685	-0.674496
H134	H	0.640566	1.168967	-0.496606
O135	O	0.930910	0.405333	0.453381
H136	H	0.956655	0.423767	0.482651
H137	H	0.207692	1.679741	0.000018
O138	O	0.252622	0.817780	0.128663
H139	H	0.241195	0.755055	0.171713
O140	O	-0.041018	0.760525	0.076793
H141	H	-0.066728	0.754871	0.117650
H142	H	0.698047	0.592515	-0.067076
H143	H	1.066687	0.418074	0.066996
H144	H	0.957210	0.592531	0.192016
H145	H	0.698026	1.418060	-0.192050
O146	O	0.331271	0.760528	0.076794
H147	H	0.388099	0.678639	0.102486
O148	O	0.930714	0.405432	-0.076877
H149	H	0.956459	0.299364	-0.039573
H150	H	0.957207	0.592494	0.067029
O151	O	0.554210	0.405370	0.076817
H152	H	0.528521	0.454952	0.102519
H153	H	0.563984	0.592505	0.067055
O154	O	0.805414	0.605181	0.327955
H155	H	0.764560	0.680120	0.274718
H156	H	0.698145	0.592525	0.326137
O157	O	0.707820	0.760533	-0.174309
H158	H	0.670514	0.754889	-0.145046
O159	O	0.303035	1.405376	-0.076818
H160	H	0.273733	1.361576	-0.055450
H161	H	0.207549	1.679760	-0.423319
H162	H	1.054340	0.330890	-0.000069
O163	O	0.331128	1.605259	-0.453399
H164	H	0.277866	1.680186	-0.494213
O165	O	0.707790	1.605175	-0.299730
H166	H	0.733486	1.555594	-0.242904
O167	O	1.084483	0.405409	0.299707
H168	H	1.090624	0.361579	0.270413
O169	O	0.707958	0.405390	0.453376
H170	H	0.733666	0.454964	0.447936
O171	O	0.707808	0.405367	-0.076837
H172	H	0.733491	0.454967	-0.102548
H173	H	0.195303	1.592490	-0.301501
O174	O	0.631136	0.305436	0.439306
H175	H	0.663066	0.280091	0.487119
O176	O	1.070438	0.305455	0.439253
H177	H	1.118247	0.280114	0.423241
O178	O	0.456744	1.405355	0.076809
H179	H	0.451323	1.454962	0.102495
O180	O	0.554288	0.405316	0.299770
H181	H	0.560530	0.330368	0.353023
O182	O	0.805288	0.605264	-0.076853
H183	H	0.810709	0.555698	-0.102564
O184	O	0.331321	1.605167	0.076844
H185	H	0.305603	1.711227	0.039544
O186	O	0.127174	0.817779	0.128669
H187	H	0.075375	0.832945	0.118271
H188	H	0.564005	0.592481	0.192054
O189	O	0.303042	1.405346	-0.174288
H190	H	0.246217	1.454950	-0.179712
H191	H	0.630952	1.679713	-0.423333
O192	O	0.177608	1.250064	-0.076831
H193	H	0.136780	1.230284	-0.070635
O194	O	0.177599	1.605249	-0.076810
H195	H	0.136785	1.680176	-0.070588
H196	H	0.563885	1.592527	-0.435663
H197	H	0.621450	0.841620	-0.503411
H198	H	-0.176950	1.218942	-0.067070
O199	O	0.642000	1.192801	-0.621546
H200	H	0.641135	1.177635	-0.663826
O201	O	0.554114	1.405388	-0.327968
H202	H	0.497308	1.486114	-0.357271
O203	O	0.084431	0.760528	0.076798
H204	H	0.079011	0.678645	0.102503
O205	O	-0.069241	1.250059	-0.076837
H206	H	-0.126070	1.331944	-0.102543
O207	O	0.707930	0.760522	-0.672072
H208	H	0.764733	0.704087	-0.642761
O209	O	0.009415	1.192808	-0.128694
H210	H	0.020840	1.255551	-0.171736
H211	H	0.134368	1.168979	-0.112330
H212	H	0.563882	1.218941	-0.326170
O213	O	0.303060	1.250056	-0.076815
H214	H	0.246232	1.331942	-0.102519
H215	H	0.564008	1.218930	-0.807953
O216	O	0.554137	1.250053	-0.453407
H217	H	0.528414	1.331941	-0.447987
H218	H	0.698119	0.791639	-0.564361
H219	H	0.698055	0.791652	-0.301561
O220	O	0.620025	0.817786	-0.378464
H221	H	0.616353	0.755067	-0.389913
