data_functionalizedCrystal
_audit_creation_method	'MofGen! by Chris Wilmer'
_symmetry_space_group_name_H-M	'P1'
_symmetry_Int_Tables_number	1
_symmetry_cell_setting	triclinic
loop_
_symmetry_equiv_pos_as_xyz
  x,y,z
_cell_length_a	25.639242
_cell_length_b	25.639239
_cell_length_c	25.639233
_cell_angle_alpha	89.975333
_cell_angle_beta	90.022166
_cell_angle_gamma	89.964592
loop_
_atom_site_label
_atom_site_type_symbol
_atom_site_fract_x
_atom_site_fract_y
_atom_site_fract_z
Zn1	Zn	0.799221	0.208277	0.295721
Zn2	Zn	1.132554	0.541610	0.629054
Zn3	Zn	1.465887	0.874943	0.962387
Zn4	Zn	0.799142	0.295696	0.208276
Zn5	Zn	1.132476	0.629029	0.541609
Zn6	Zn	1.465809	0.962362	0.874943
Zn7	Zn	0.711797	0.208269	0.208285
Zn8	Zn	1.045130	0.541602	0.541618
Zn9	Zn	1.378464	0.874936	0.874951
Zn10	Zn	0.711740	0.295676	0.295666
Zn11	Zn	1.045074	0.629010	0.628999
Zn12	Zn	1.378407	0.962343	0.962333
O13	O	0.755475	0.251979	0.251987
O14	O	1.088808	0.585313	0.585320
O15	O	1.422142	0.918646	0.918654
O16	O	0.872375	0.219884	0.284140
O17	O	1.205709	0.553218	0.617474
O18	O	1.539042	0.886551	0.950807
O19	O	0.787547	0.284103	0.135112
O20	O	1.120880	0.617437	0.468445
O21	O	1.454213	0.950770	0.801779
O22	O	0.723450	0.135105	0.219910
O23	O	1.056784	0.468438	0.553243
O24	O	1.390117	0.801772	0.886577
O25	O	0.872318	0.284111	0.219895
O26	O	1.205651	0.617444	0.553228
O27	O	1.538985	0.950777	0.886562
O28	O	0.787680	0.135111	0.284149
O29	O	1.121014	0.468444	0.617482
O30	O	1.454347	0.801777	0.950815
O31	O	0.723375	0.219871	0.135118
O32	O	1.056708	0.553205	0.468452
O33	O	1.390041	0.886538	0.801785
O34	O	0.638624	0.219853	0.219857
O35	O	0.971958	0.553186	0.553190
O36	O	1.305291	0.886519	0.886524
O37	O	0.723354	0.284078	0.368838
O38	O	1.056687	0.617411	0.702172
O39	O	1.390020	0.950744	1.035505
O40	O	0.638583	0.284070	0.284055
O41	O	0.971916	0.617403	0.617389
O42	O	1.305249	0.950737	0.950722
O43	O	0.787625	0.219866	0.368879
O44	O	1.120959	0.553199	0.702212
O45	O	1.454292	0.886532	1.035545
O46	O	0.787492	0.368858	0.219842
O47	O	1.120825	0.702192	0.553175
O48	O	1.454158	1.035525	0.886509
O49	O	0.723278	0.368844	0.284047
O50	O	1.056611	0.702177	0.617380
O51	O	1.389944	1.035511	0.950714
C52	C	0.619633	0.251959	0.251951
C53	C	0.952966	0.585292	0.585285
C54	C	1.286299	0.918625	0.918618
C55	C	0.561518	0.251963	0.251949
C56	C	0.894852	0.585296	0.585282
C57	C	1.228185	0.918629	0.918615
C58	C	0.201143	0.285473	0.285383
C59	C	0.534476	0.618807	0.618717
C60	C	0.867809	0.952140	0.952050
C61	C	0.146538	0.285477	0.285392
C62	C	0.479872	0.618810	0.618725
C63	C	0.813205	0.952143	0.952058
O64	O	0.118291	0.313943	0.313789
O65	O	0.451624	0.647276	0.647122
O66	O	0.784957	0.980610	0.980456
N67	N	0.119236	0.251994	0.252021
N68	N	0.452569	0.585327	0.585354
N69	N	0.785903	0.918661	0.918688
C70	C	0.146541	0.218502	0.218644
C71	C	0.479874	0.551835	0.551977
C72	C	0.813208	0.885169	0.885310
O73	O	0.118304	0.190022	0.190260
O74	O	0.451638	0.523356	0.523594
O75	O	0.784971	0.856689	0.856927
C76	C	0.201144	0.218496	0.218638
C77	C	0.534478	0.551830	0.551972
C78	C	0.867811	0.885163	0.885305
C79	C	0.228444	0.251985	0.252008
C80	C	0.561777	0.585319	0.585341
C81	C	0.895110	0.918652	0.918674
C82	C	0.228442	0.318959	0.318750
C83	C	0.561775	0.652292	0.652083
C84	C	0.895109	0.985626	0.985417
C85	C	0.283043	0.318956	0.318741
C86	C	0.616376	0.652290	0.652074
C87	C	0.949709	0.985623	0.985408
C88	C	0.310344	0.285468	0.285365
C89	C	0.643677	0.618801	0.618699
C90	C	0.977010	0.952135	0.952032
C91	C	0.283044	0.251983	0.251998
C92	C	0.616378	0.585316	0.585332
C93	C	0.949711	0.918649	0.918665
C94	C	0.228448	0.185002	0.185264
C95	C	0.561781	0.518336	0.518598
C96	C	0.895115	0.851669	0.851931
C97	C	0.283055	0.185000	0.185262
C98	C	0.616388	0.518333	0.518595
C99	C	0.949722	0.851666	0.851929
C100	C	0.310355	0.218488	0.218631
C101	C	0.643688	0.551822	0.551965
C102	C	0.977021	0.885155	0.885298
C103	C	0.364946	0.218492	0.218614
C104	C	0.698279	0.551825	0.551947
C105	C	1.031612	0.885158	0.885280
N106	N	0.392248	0.251974	0.251984
N107	N	0.725581	0.585308	0.585317
N108	N	1.058915	0.918641	0.918651
C109	C	0.364947	0.285463	0.285360
C110	C	0.698280	0.618796	0.618693
C111	C	1.031614	0.952129	0.952027
C112	C	0.031870	0.218515	0.218658
C113	C	0.365204	0.551849	0.551991
C114	C	0.698537	0.885182	0.885324
C115	C	-0.022732	0.218523	0.218660
C116	C	0.310601	0.551856	0.551993
C117	C	0.643935	0.885190	0.885327
C118	C	-0.022731	0.285497	0.285409
C119	C	0.310602	0.618830	0.618742
C120	C	0.643936	0.952164	0.952075
C121	C	0.031872	0.285492	0.285404
C122	C	0.365206	0.618825	0.618737
C123	C	0.698539	0.952158	0.952070
C124	C	0.059173	0.251998	0.252028
C125	C	0.392506	0.585331	0.585362
C126	C	0.725839	0.918665	0.918695
C127	C	0.479612	0.285455	0.285338
C128	C	0.812945	0.618788	0.618671
C129	C	1.146279	0.952122	0.952005
C130	C	0.534217	0.285451	0.285324
C131	C	0.867551	0.618784	0.618658
C132	C	1.200884	0.952117	0.951991
C133	C	0.534212	0.218475	0.218578
C134	C	0.867545	0.551808	0.551911
C135	C	1.200878	0.885142	0.885245
C136	C	0.479611	0.218481	0.218589
C137	C	0.812944	0.551814	0.551923
C138	C	1.146278	0.885147	0.885256
C139	C	0.452313	0.251972	0.251974
C140	C	0.785646	0.585306	0.585307
C141	C	1.118979	0.918639	0.918640
O142	O	0.393228	0.190038	0.190232
O143	O	0.726561	0.523372	0.523565
O144	O	1.059895	0.856705	0.856899
O145	O	0.393190	0.313933	0.313743
O146	O	0.726524	0.647266	0.647077
O147	O	1.059857	0.980599	0.980410
C148	C	0.755384	0.387822	0.251949
C149	C	1.088718	0.721155	0.585282
C150	C	1.422051	1.054489	0.918616
C151	C	0.755393	0.445936	0.251950
C152	C	1.088727	0.779269	0.585283
C153	C	1.422060	1.112603	0.918617
C154	C	0.788867	0.806264	0.285509
C155	C	1.122201	1.139597	0.618842
C156	C	1.455534	1.472930	0.952175
C157	C	0.788876	0.860868	0.285520
C158	C	1.122209	1.194201	0.618854
C159	C	1.455543	1.527535	0.952187
O160	O	0.817283	0.889074	0.314005
O161	O	1.150617	1.222408	0.647338
O162	O	1.483950	1.555741	0.980671
N163	N	0.755469	0.888219	0.252051
N164	N	1.088802	1.221552	0.585385
N165	N	1.422135	1.554885	0.918718
C166	C	0.722047	0.860962	0.218572
C167	C	1.055380	1.194295	0.551905
C168	C	1.388713	1.527629	0.885239
O169	O	0.693632	0.889240	0.190106
O170	O	1.026965	1.222573	0.523439
O171	O	1.360298	1.555907	0.856772
C172	C	0.722036	0.806359	0.218563
C173	C	1.055369	1.139692	0.551897
C174	C	1.388702	1.473025	0.885230
C175	C	0.755449	0.779011	0.252031
C176	C	1.088782	1.112344	0.585364
C177	C	1.422116	1.445678	0.918697
C178	C	0.822277	0.778916	0.318974
C179	C	1.155611	1.112249	0.652307
C180	C	1.488944	1.445582	0.985640
C181	C	0.822269	0.724315	0.318961
C182	C	1.155603	1.057649	0.652294
C183	C	1.488936	1.390982	0.985628
C184	C	0.788851	0.697062	0.285483
C185	C	1.122184	1.030396	0.618817
C186	C	1.455518	1.363729	0.952150
C187	C	0.755441	0.724410	0.252018
C188	C	1.088774	1.057744	0.585351
C189	C	1.422108	1.391077	0.918685
C190	C	0.688612	0.779103	0.185087
C191	C	1.021945	1.112437	0.518420
C192	C	1.355278	1.445770	0.851754
C193	C	0.688603	0.724496	0.185082
C194	C	1.021937	1.057830	0.518415
C195	C	1.355270	1.391163	0.851748
C196	C	0.722017	0.697148	0.218549
C197	C	1.055350	1.030482	0.551882
C198	C	1.388683	1.363815	0.885216
C199	C	0.722015	0.642557	0.218528
C200	C	1.055348	0.975890	0.551861
C201	C	1.388681	1.309224	0.885194
N202	N	0.755422	0.615207	0.251997
N203	N	1.088755	0.948540	0.585330
N204	N	1.422089	1.281873	0.918663
C205	C	0.788840	0.642459	0.285474
C206	C	1.122174	0.975793	0.618808
C207	C	1.455507	1.309126	0.952141
C208	C	0.722071	0.975633	0.218594
C209	C	1.055405	1.308966	0.551927
C210	C	1.388738	1.642299	0.885261
C211	C	0.722084	1.030235	0.218600
C212	C	1.055418	1.363568	0.551933
C213	C	1.388751	1.696902	0.885266
C214	C	0.788913	1.030137	0.285549
C215	C	1.122247	1.363470	0.618882
C216	C	1.455580	1.696804	0.952215
C217	C	0.788902	0.975534	0.285540
C218	C	1.122236	1.308867	0.618873
C219	C	1.455569	1.642200	0.952206
C220	C	0.755479	0.948282	0.252063
C221	C	1.088812	1.281615	0.585396
C222	C	1.422145	1.614949	0.918729
C223	C	0.788821	0.527794	0.285445
C224	C	1.122154	0.861127	0.618778
C225	C	1.455488	1.194461	0.952112
C226	C	0.788812	0.473189	0.285428
C227	C	1.122145	0.806522	0.618761
C228	C	1.455478	1.139855	0.952095
C229	C	0.721981	0.473291	0.218481
C230	C	1.055314	0.806625	0.551814
C231	C	1.388648	1.139958	0.885148
C232	C	0.721992	0.527892	0.218496
C233	C	1.055326	0.861225	0.551829
C234	C	1.388659	1.194559	0.885163
C235	C	0.755414	0.555142	0.251982
C236	C	1.088747	0.888475	0.585316
C237	C	1.422081	1.221809	0.918649
O238	O	0.693620	0.614316	0.190059
O239	O	1.026954	0.947649	0.523393
O240	O	1.360287	1.280983	0.856726
O241	O	0.817246	0.614175	0.313941
O242	O	1.150579	0.947508	0.647274
O243	O	1.483912	1.280841	0.980608
C244	C	0.891848	0.252000	0.252023
C245	C	1.225181	0.585334	0.585356
C246	C	1.558515	0.918667	0.918689
C247	C	0.949962	0.252009	0.252038
C248	C	1.283295	0.585343	0.585371
C249	C	1.616629	0.918676	0.918705
C250	C	0.755492	0.251970	0.388360
C251	C	1.088825	0.585304	0.721693
C252	C	1.422159	0.918637	1.055027
C253	C	0.755499	0.251966	0.446474
C254	C	1.088832	0.585300	0.779807
C255	C	1.422166	0.918633	1.113141
C256	C	0.755549	1.115606	0.252042
C257	C	1.088883	1.448940	0.585375
C258	C	1.422216	1.782273	0.918709
C259	C	0.755501	1.057492	0.252080
C260	C	1.088834	1.390826	0.585413
C261	C	1.422168	1.724159	0.918746
C262	C	0.755488	0.251951	0.116144
C263	C	1.088822	0.585284	0.449478
C264	C	1.422155	0.918618	0.782811
C265	C	0.755583	0.251807	0.058031
C266	C	1.088916	0.585141	0.391364
C267	C	1.422249	0.918474	0.724697
C268	C	0.789008	0.218432	0.806864
C269	C	1.122341	0.551765	1.140197
C270	C	1.455674	0.885099	1.473530
C271	C	0.789014	0.218417	0.861468
C272	C	1.122348	0.551751	1.194801
C273	C	1.455681	0.885084	1.528135
O274	O	0.817462	0.189967	0.889728
O275	O	1.150795	0.523300	1.223061
O276	O	1.484129	0.856633	1.556394
N277	N	0.755557	0.251844	0.888757
N278	N	1.088890	0.585177	1.222090
N279	N	1.422223	0.918510	1.555423
C280	C	0.722087	0.285283	0.861438
C281	C	1.055420	0.618616	1.194771
C282	C	1.388754	0.951950	1.528105
O283	O	0.693629	0.313713	0.889663
O284	O	1.026962	0.647046	1.222996
O285	O	1.360296	0.980380	1.556330
C286	C	0.722078	0.285294	0.806835
C287	C	1.055412	0.618628	1.140168
C288	C	1.388745	0.951961	1.473501
C289	C	0.755542	0.251870	0.779549
C290	C	1.088875	0.585203	1.112882
C291	C	1.422208	0.918536	1.446216
C292	C	0.822468	0.185009	0.779578
C293	C	1.155801	0.518343	1.112911
C294	C	1.489135	0.851676	1.446245
C295	C	0.822462	0.185025	0.724977
C296	C	1.155795	0.518358	1.058311
C297	C	1.489129	0.851691	1.391644
C298	C	0.788996	0.218462	0.697663
C299	C	1.122329	0.551796	1.030996
C300	C	1.455663	0.885129	1.364329
C301	C	0.755536	0.251885	0.724948
C302	C	1.088869	0.585218	1.058282
C303	C	1.422202	0.918552	1.391615
C304	C	0.688606	0.318731	0.779517
C305	C	1.021940	0.652064	1.112850
C306	C	1.355273	0.985397	1.446184
C307	C	0.688600	0.318739	0.724910
C308	C	1.021933	0.652072	1.058243
C309	C	1.355267	0.985406	1.391577
C310	C	0.722063	0.285314	0.697624
C311	C	1.055397	0.618648	1.030958
C312	C	1.388730	0.951981	1.364291
C313	C	0.722064	0.285338	0.643033
C314	C	1.055397	0.618671	0.976366
C315	C	1.388730	0.952005	1.309700
N316	N	0.755521	0.251912	0.615745
N317	N	1.088854	0.585245	0.949078
N318	N	1.422188	0.918578	1.282411
C319	C	0.788987	0.218474	0.643059
C320	C	1.122321	0.551807	0.976393
C321	C	1.455654	0.885140	1.309726
C322	C	0.722107	0.285256	0.976109
C323	C	1.055441	0.618589	1.309442
C324	C	1.388774	0.951923	1.642775
C325	C	0.722118	0.285247	1.030711
C326	C	1.055451	0.618581	1.364044
C327	C	1.388785	0.951914	1.697378
C328	C	0.789045	0.218381	1.030737
C329	C	1.122378	0.551714	1.364071
C330	C	1.455711	0.885048	1.697404
C331	C	0.789036	0.218392	0.976134
C332	C	1.122369	0.551726	1.309467
C333	C	1.455703	0.885059	1.642801
C334	C	0.755565	0.251829	0.948820
C335	C	1.088898	0.585163	1.282154
C336	C	1.422231	0.918496	1.615487
C337	C	0.788973	0.218509	0.528394
C338	C	1.122306	0.551842	0.861728
C339	C	1.455639	0.885175	1.195061
C340	C	0.788965	0.218529	0.473789
C341	C	1.122299	0.551862	0.807122
C342	C	1.455632	0.885195	1.140455
C343	C	0.722037	0.285393	0.473767
C344	C	1.055370	0.618726	0.807101
C345	C	1.388704	0.952060	1.140434
C346	C	0.722046	0.285375	0.528368
C347	C	1.055379	0.618709	0.861701
C348	C	1.388713	0.952042	1.195035
C349	C	0.755516	0.251929	0.555680
C350	C	1.088849	0.585262	0.889013
C351	C	1.422182	0.918596	1.222347
O352	O	0.693629	0.313773	0.614739
O353	O	1.026962	0.647106	0.948072
O354	O	1.360295	0.980439	1.281406
O355	O	0.817435	0.190044	0.614828
O356	O	1.150769	0.523377	0.948161
O357	O	1.484102	0.856710	1.281494
H358	H	0.305265	0.346225	0.345915
H359	H	0.638598	0.679559	0.679248
H360	H	0.971932	1.012892	1.012581
C361	C	0.685240	0.557976	0.181682
C362	C	1.018573	0.891309	0.515015
C363	C	1.351907	1.224642	0.848349
H364	H	0.665335	0.533922	0.161744
H365	H	0.998668	0.867256	0.495078
H366	H	1.332001	1.200589	0.828411
H367	H	0.705254	0.579281	0.158928
H368	H	1.038588	0.912614	0.492261
H369	H	1.371921	1.245947	0.825594
H370	H	0.662445	0.579276	0.201669
H371	H	0.995779	0.912609	0.535003
H372	H	1.329112	1.245942	0.868336
C373	C	0.685334	1.060314	0.181784
C374	C	1.018667	1.393647	0.515117
C375	C	1.352001	1.726981	0.848450
H376	H	0.690124	1.096738	0.186580
H377	H	1.023457	1.430071	0.519913
H378	H	1.356790	1.763405	0.853246
H379	H	0.650199	1.051384	0.189396
H380	H	0.983532	1.384718	0.522730
H381	H	1.316866	1.718051	0.856063
H382	H	0.693012	1.051381	0.146659
H383	H	1.026346	1.384714	0.479992
H384	H	1.359679	1.718048	0.813326
C385	C	0.651852	0.809174	0.148276
C386	C	0.985186	1.142507	0.481610
C387	C	1.318519	1.475841	0.814943
H388	H	0.631946	0.785116	0.128345
H389	H	0.965280	1.118449	0.461679
H390	H	1.298613	1.451782	0.795012
H391	H	0.671863	0.830475	0.125516
H392	H	1.005197	1.163809	0.458849
H393	H	1.338530	1.497142	0.792182
H394	H	0.629059	0.830477	0.168261
H395	H	0.962392	1.163810	0.501595
H396	H	1.295725	1.497144	0.834928
H397	H	0.694875	0.312471	1.052923
H398	H	1.028208	0.645804	1.386256
H399	H	1.361541	0.979138	1.719589
C400	C	0.825566	0.443107	0.322243
C401	C	1.158899	0.776440	0.655577
C402	C	1.492232	1.109773	0.988910
H403	H	0.820780	0.406683	0.317440
H404	H	1.154114	0.740016	0.650774
H405	H	1.487447	1.073350	0.984107
H406	H	0.817891	0.452039	0.357366
H407	H	1.151225	0.785372	0.690700
H408	H	1.484558	1.118706	1.024033
H409	H	0.860703	0.452035	0.314627
H410	H	1.194036	0.785368	0.647961
H411	H	1.527370	1.118702	0.981294
H412	H	0.661384	0.702310	0.157821
H413	H	0.994717	1.035644	0.491154
H414	H	1.328051	1.368977	0.824488
C415	C	-0.052756	0.181689	0.181951
C416	C	0.280578	0.515022	0.515284
C417	C	0.613911	0.848356	0.848617
H418	H	-0.028671	0.161743	0.162077
H419	H	0.304662	0.495077	0.495410
H420	H	0.637996	0.828410	0.828743
H421	H	-0.074081	0.201653	0.159133
H422	H	0.259252	0.534986	0.492467
H423	H	0.592585	0.868320	0.825800
H424	H	-0.074031	0.158935	0.202001
H425	H	0.259303	0.492268	0.535334
H426	H	0.592636	0.825601	0.868667
C427	C	0.825670	1.060122	0.322377
C428	C	1.159003	1.393455	0.655710
C429	C	1.492337	1.726789	0.989044
H430	H	0.820885	1.096558	0.317590
H431	H	1.154218	1.429891	0.650923
H432	H	1.487551	1.763224	0.984257
H433	H	0.860805	1.051154	0.314765
H434	H	1.194138	1.384487	0.648098
H435	H	1.527471	1.717820	0.981431
H436	H	0.817988	1.051160	0.357499
H437	H	1.151321	1.384493	0.690832
H438	H	1.484655	1.717826	1.024165
H439	H	0.206219	0.346229	0.345932
H440	H	0.539553	0.679563	0.679265
H441	H	0.872886	1.012896	1.012598
C442	C	0.651791	0.355494	0.809520
C443	C	0.985124	0.688827	1.142853
C444	C	1.318458	1.022161	1.476186
H445	H	0.631857	0.375401	0.785424
H446	H	0.965190	0.708734	1.118757
H447	H	1.298523	1.042068	1.452091
H448	H	0.671767	0.378279	0.830824
H449	H	1.005100	0.711612	1.164157
H450	H	1.338434	1.044945	1.497490
H451	H	0.629026	0.335479	0.830814
H452	H	0.962359	0.668812	1.164148
H453	H	1.295693	1.002145	1.497481
C454	C	0.859043	0.808888	0.355799
C455	C	1.192376	1.142221	0.689132
C456	C	1.525709	1.475554	1.022465
H457	H	0.854269	0.845326	0.351019
H458	H	1.187602	1.178659	0.684352
H459	H	1.520935	1.511993	1.017685
H460	H	0.894173	0.799909	0.348179
H461	H	1.227506	1.133242	0.681512
H462	H	1.560839	1.466575	1.014846
H463	H	0.851363	0.799922	0.390920
H464	H	1.184697	1.133255	0.724253
H465	H	1.518030	1.466589	1.057587
H466	H	0.816110	0.953270	0.312792
H467	H	1.149443	1.286604	0.646125
H468	H	1.482777	1.619937	0.979459
C469	C	0.564250	0.181638	0.181870
C470	C	0.897583	0.514972	0.515203
C471	C	1.230916	0.848305	0.848537
H472	H	0.600678	0.186431	0.186651
H473	H	0.934012	0.519765	0.519985
H474	H	1.267345	0.853098	0.853318
H475	H	0.555283	0.189232	0.146725
H476	H	0.888616	0.522565	0.480058
H477	H	1.221949	0.855899	0.813391
H478	H	0.555325	0.146520	0.189598
H479	H	0.888659	0.479853	0.522931
H480	H	1.221992	0.813186	0.856265
H481	H	0.694850	0.312487	0.953873
H482	H	1.028183	0.645820	1.287206
H483	H	1.361517	0.979154	1.620540
H484	H	0.816217	0.191310	0.451575
H485	H	1.149550	0.524643	0.784909
H486	H	1.482884	0.857976	1.118242
C487	C	0.859018	0.694237	0.355779
C488	C	1.192352	1.027570	0.689113
C489	C	1.525685	1.360904	1.022446
H490	H	0.854234	0.657813	0.350981
H491	H	1.187567	0.991146	0.684315
H492	H	1.520900	1.324479	1.017648
H493	H	0.851341	0.703175	0.390900
H494	H	1.184674	1.036508	0.724234
H495	H	1.518007	1.369841	1.057567
H496	H	0.894156	0.703165	0.348165
H497	H	1.227490	1.036498	0.681498
H498	H	1.560823	1.369831	1.014832
H499	H	0.816284	0.191174	0.953922
H500	H	1.149617	0.524507	1.287255
H501	H	1.482951	0.857841	1.620588
C502	C	0.859290	0.148232	0.809619
C503	C	1.192623	0.481565	1.142952
C504	C	1.525956	0.814899	1.476285
H505	H	0.854509	0.153006	0.846048
H506	H	1.187842	0.486339	1.179381
H507	H	1.521175	0.819672	1.512715
H508	H	0.894408	0.155899	0.800668
H509	H	1.227741	0.489233	1.134001
H510	H	1.561074	0.822566	1.467334
H511	H	0.851666	0.113100	0.800675
H512	H	1.184999	0.446434	1.134009
H513	H	1.518333	0.779767	1.467342
H514	H	0.206230	0.157734	0.158090
H515	H	0.539564	0.491067	0.491423
H516	H	0.872897	0.824400	0.824757
H517	H	0.694855	0.953447	0.191328
H518	H	1.028189	1.286780	0.524662
H519	H	1.361522	1.620114	0.857995
H520	H	0.556442	0.312723	0.312498
H521	H	0.889776	0.646057	0.645831
H522	H	1.223109	0.979390	0.979165
H523	H	0.816294	0.191153	1.052987
H524	H	1.149627	0.524486	1.386320
H525	H	1.482960	0.857819	1.719654
C526	C	0.061896	0.181676	0.181937
C527	C	0.395229	0.515010	0.515270
C528	C	0.728562	0.848343	0.848603
H529	H	0.037812	0.161742	0.162062
H530	H	0.371145	0.495075	0.495396
H531	H	0.704478	0.828408	0.828729
H532	H	0.083219	0.158920	0.201974
H533	H	0.416553	0.492253	0.535307
H534	H	0.749886	0.825587	0.868640
H535	H	0.083173	0.201644	0.159112
H536	H	0.416506	0.534977	0.492445
H537	H	0.749839	0.868310	0.825778
C538	C	0.825589	0.557762	0.322274
C539	C	1.158922	0.891095	0.655608
C540	C	1.492255	1.224428	0.988941
H541	H	0.845486	0.533648	0.342196
H542	H	1.178820	0.866981	0.675530
H543	H	1.512153	1.200314	1.008863
H544	H	0.805583	0.579065	0.345042
H545	H	1.138917	0.912398	0.678376
H546	H	1.472250	1.245732	1.011709
H547	H	0.848390	0.579054	0.302298
H548	H	1.181723	0.912388	0.635631
H549	H	1.515056	1.245721	0.968965
C550	C	0.651794	0.355534	0.694868
C551	C	0.985127	0.688867	1.028201
C552	C	1.318460	1.022201	1.361534
H553	H	0.631874	0.375442	0.718942
H554	H	0.965207	0.708776	1.052275
H555	H	1.298541	1.042109	1.385609
H556	H	0.629022	0.335547	0.673557
H557	H	0.962355	0.668881	1.006891
H558	H	1.295689	1.002214	1.340224
H559	H	0.671786	0.378324	0.673576
H560	H	1.005120	0.711657	1.006910
H561	H	1.338453	1.044991	1.340243
H562	H	0.694774	0.451094	0.191222
H563	H	1.028107	0.784427	0.524556
H564	H	1.361441	1.117760	0.857889
H565	H	0.816225	0.191272	0.550625
H566	H	1.149558	0.524605	0.883959
H567	H	1.482892	0.857939	1.217292
H568	H	0.054096	0.312760	0.312576
H569	H	0.387429	0.646094	0.645910
H570	H	0.720763	0.979427	0.979243
C571	C	0.859267	0.148252	0.694970
C572	C	1.192600	0.481585	1.028303
C573	C	1.525934	0.814919	1.361637
H574	H	0.879192	0.128335	0.719064
H575	H	1.212526	0.461668	1.052398
H576	H	1.545859	0.795001	1.385731
H577	H	0.882033	0.168255	0.673669
H578	H	1.215366	0.501588	1.007003
H579	H	1.548700	0.834921	1.340336
H580	H	0.839278	0.125469	0.673671
H581	H	1.172611	0.458802	1.007005
H582	H	1.505944	0.792136	1.340338
C583	C	0.685241	0.322145	0.558383
C584	C	1.018574	0.655478	0.891717
C585	C	1.351908	0.988811	1.225050
H586	H	0.665308	0.342060	0.534293
H587	H	0.998641	0.675393	0.867626
H588	H	1.331975	1.008726	1.200960
H589	H	0.705223	0.344922	0.579689
H590	H	1.038557	0.678255	0.913023
H591	H	1.371890	1.011589	1.246356
H592	H	0.662474	0.302130	0.579677
H593	H	0.995807	0.635464	0.913010
H594	H	1.329141	0.968797	1.246344
H595	H	0.694791	0.312619	0.451518
H596	H	1.028125	0.645952	0.784851
H597	H	1.361458	0.979285	1.118184
H598	H	0.305280	0.157721	0.158087
H599	H	0.638613	0.491055	0.491420
H600	H	0.971947	0.824388	0.824753
H601	H	0.457383	0.191213	0.191416
H602	H	0.790716	0.524546	0.524750
H603	H	1.124049	0.857879	0.858083
C604	C	-0.052769	0.322329	0.322127
C605	C	0.280564	0.655663	0.655460
C606	C	0.613898	0.988996	0.988793
H607	H	-0.089198	0.317529	0.317352
H608	H	0.244135	0.650863	0.650685
H609	H	0.577469	0.984196	0.984019
H610	H	-0.043848	0.357449	0.314411
H611	H	0.289486	0.690782	0.647745
H612	H	0.622819	1.024115	0.981078
H613	H	-0.043799	0.314723	0.357271
H614	H	0.289534	0.648056	0.690604
H615	H	0.622867	0.981390	1.023938
C616	C	0.449592	0.322279	0.322076
C617	C	0.782925	0.655612	0.655409
C618	C	1.116258	0.988945	0.988742
H619	H	0.473677	0.342216	0.341946
H620	H	0.807010	0.675549	0.675280
H621	H	1.140343	1.008883	1.008613
H622	H	0.428323	0.302301	0.344895
H623	H	0.761656	0.635635	0.678229
H624	H	1.094990	0.968968	1.011562
H625	H	0.428260	0.345041	0.302050
H626	H	0.761593	0.678375	0.635383
H627	H	1.094926	1.011708	0.968716
