data_functionalizedCrystal
_audit_creation_method	'MofGen! by Chris Wilmer'
_symmetry_space_group_name_H-M	'P1'
_symmetry_Int_Tables_number	1
_symmetry_cell_setting	triclinic
loop_
_symmetry_equiv_pos_as_xyz
  x,y,z
_cell_length_a	16.992694
_cell_length_b	15.944493
_cell_length_c	15.455301
_cell_angle_alpha	92.994487
_cell_angle_beta	92.821270
_cell_angle_gamma	87.071633
loop_
_atom_site_label
_atom_site_type_symbol
_atom_site_fract_x
_atom_site_fract_y
_atom_site_fract_z
O1	O	1.043424	0.181591	0.072003
O2	O	0.815140	0.179638	0.072029
O3	O	0.935540	0.058757	0.072023
O4	O	0.923024	0.302473	0.072010
O5	O	0.929403	0.051778	-0.072239
O6	O	0.809003	0.172660	-0.072232
O7	O	1.037287	0.174612	-0.072258
Cu8	Cu	0.922585	0.172999	-0.085417
Cu9	Cu	0.929842	0.181252	0.085188
O10	O	0.916887	0.295494	-0.072252
C11	C	0.782859	0.173635	-0.000098
C12	C	0.695817	0.166136	-0.000088
C13	C	0.931960	0.023938	-0.000104
C14	C	0.930427	-0.069413	-0.000093
C15	C	0.645566	0.238502	-0.000092
C16	C	0.563780	0.231449	-0.000104
C17	C	0.532246	0.152030	-0.000105
C18	C	0.582504	0.079659	-0.000103
C19	C	0.664288	0.086712	-0.000097
C20	C	0.288652	0.122797	-0.000126
C21	C	0.206861	0.115750	-0.000129
C22	C	0.188143	0.267540	-0.000132
C23	C	0.269930	0.274587	-0.000121
C24	C	0.320180	0.202215	-0.000124
N25	N	0.448648	0.144819	-0.000114
N26	N	0.403776	0.209427	-0.000121
C27	C	1.001296	-0.300421	-0.000117
C28	C	0.966105	-0.350111	0.071015
C29	C	0.927585	-0.240325	-0.000103
C30	C	0.960037	-0.356968	-0.071216
C31	C	0.924845	-0.405419	-0.000117
C32	C	0.892416	-0.288782	0.071088
C33	C	0.886356	-0.295639	-0.071207
C34	C	0.851111	-0.345299	-0.000057
C35	C	0.929165	-0.145218	-0.000095
C36	C	0.923259	-0.500522	-0.000120
C37	C	1.069568	0.180615	-0.000129
C38	C	1.156610	0.188115	-0.000134
C39	C	0.920467	0.330313	-0.000123
C40	C	0.922000	0.423664	-0.000128
N41	N	0.917486	0.167194	-0.205412
C42	C	0.963102	0.219167	-0.250811
C43	C	0.959256	0.214772	-0.341619
C44	C	0.909790	0.158408	-0.387026
C45	C	0.864172	0.106429	-0.341621
C46	C	0.868022	0.110820	-0.250815
C47	C	0.893180	0.139463	-0.658606
C48	C	0.889331	0.135077	-0.749418
C49	C	0.984417	0.243420	-0.749409
C50	C	0.988260	0.247810	-0.658602
C51	C	0.942645	0.195828	-0.613205
N52	N	0.905856	0.153916	-0.479846
N53	N	0.946584	0.200316	-0.520387
N54	N	0.934948	0.187051	0.205183
H55	H	0.671233	0.303173	-0.000091
F56	F	0.510302	0.308471	-0.000105
H57	H	0.295598	0.339259	-0.000111
H58	H	0.988624	-0.386720	-0.131349
F59	F	1.015750	0.279160	-0.202494
H60	H	1.021555	0.285741	-0.786382
F61	F	1.007807	0.270091	-0.389931
H62	H	0.823899	0.060532	-0.378598
H63	H	1.028543	0.293706	-0.621638
H64	H	0.849045	0.089179	-0.786386
F65	F	1.084289	-0.274421	-0.000036
F66	F	0.844608	0.084162	-0.610302
F67	F	0.717769	0.009690	-0.000096
H68	H	0.830876	0.068498	-0.213852
H69	H	0.181191	0.051074	-0.000129
H70	H	0.999792	-0.374060	0.131146
H71	H	0.147221	0.326461	-0.000131
H72	H	0.329556	0.063867	-0.000129
F73	F	0.768059	-0.371085	0.000001
F74	F	0.548941	-0.004866	-0.000109
F75	F	0.855100	-0.250037	0.149777
H76	H	0.852695	-0.271673	-0.131340
