data_functionalizedCrystal
_audit_creation_method	'MofGen! by Chris Wilmer'
_symmetry_space_group_name_H-M	'P1'
_symmetry_Int_Tables_number	1
_symmetry_cell_setting	triclinic
loop_
_symmetry_equiv_pos_as_xyz
  x,y,z
_cell_length_a	34.408637
_cell_length_b	34.407814
_cell_length_c	34.404193
_cell_angle_alpha	60.004510
_cell_angle_beta	60.009006
_cell_angle_gamma	59.994604
loop_
_atom_site_label
_atom_site_type_symbol
_atom_site_fract_x
_atom_site_fract_y
_atom_site_fract_z
O1	O	0.053973	-0.567860	0.474801
O2	O	0.553973	-0.067860	0.974801
O3	O	0.020377	-0.442124	0.382567
O4	O	0.520377	0.057876	0.882567
O5	O	0.100004	-0.521670	0.382483
O6	O	0.600004	-0.021670	0.882483
O7	O	-0.025653	-0.488314	0.474886
O8	O	0.474347	0.011686	0.974886
O9	O	0.126426	-0.495253	0.408816
O10	O	0.626426	0.004747	0.908816
O11	O	0.046800	-0.415707	0.408900
O12	O	0.546800	0.084293	0.908900
O13	O	0.080396	-0.541443	0.501134
O14	O	0.580396	-0.041443	1.001134
Zn15	Zn	0.067793	-0.474381	0.459198
Zn16	Zn	0.567793	0.025619	0.959198
Zn17	Zn	0.032980	-0.509186	0.424503
Zn18	Zn	0.532980	-0.009186	0.924503
O19	O	0.000769	-0.461897	0.501219
O20	O	0.500769	0.038103	1.001219
N21	N	0.091552	-0.450631	0.482879
N22	N	0.591552	0.049369	0.982879
N23	N	0.009225	-0.532940	0.400823
N24	N	0.509225	-0.032940	0.900823
C25	C	0.142848	-0.268847	0.534081
C26	C	0.642848	0.231153	1.034081
C27	C	0.142979	-0.399386	0.664559
C28	C	0.642979	0.100614	1.164559
C29	C	0.142862	-0.399365	0.534081
C30	C	0.642862	0.100635	1.034081
C31	C	0.273409	-0.399338	0.533986
C32	C	0.773409	0.100662	1.033986
C33	C	0.157225	-0.311914	0.548422
C34	C	0.657225	0.188086	1.048422
C35	C	0.157300	-0.385019	0.621491
C36	C	0.657300	0.114981	1.121491
C37	C	0.230339	-0.384991	0.548370
C38	C	0.730339	0.115009	1.048370
C39	C	0.157235	-0.385007	0.548422
C40	C	0.657235	0.114993	1.048422
C41	C	0.124548	-0.214028	0.515827
C42	C	0.624548	0.285972	1.015827
C43	C	0.124571	-0.417639	0.515827
C44	C	0.624571	0.082361	1.015827
C45	C	0.175526	-0.366733	0.566676
C46	C	0.675526	0.133267	1.066676
C47	C	0.353121	-0.385580	0.491988
C48	C	0.853121	0.114420	0.991988
C49	C	0.402952	-0.402180	0.475348
C50	C	0.902952	0.097820	0.975348
C51	C	0.402981	-0.482812	0.506096
C52	C	0.902981	0.017188	1.006096
C53	C	0.353151	-0.466211	0.522737
C54	C	0.853151	0.033789	1.022737
C55	C	0.136544	-0.189099	0.466839
C56	C	0.636544	0.310901	0.966839
C57	C	0.119905	-0.139265	0.450247
C58	C	0.619905	0.360735	0.950247
C59	C	0.079280	-0.139291	0.531632
C60	C	0.579280	0.360709	1.031632
C61	C	0.095918	-0.189125	0.548224
C62	C	0.595918	0.310875	1.048224
C63	C	0.075577	-0.405615	0.527900
C64	C	0.575577	0.094385	1.027900
C65	C	0.058953	-0.422228	0.511301
C66	C	0.558953	0.077772	1.011301
C67	C	0.140315	-0.462889	0.470566
C68	C	0.640315	0.037111	0.970566
C69	C	0.156941	-0.446276	0.487159
C70	C	0.656941	0.053724	0.987159
C71	C	0.075772	-0.405653	0.744326
C72	C	0.575772	0.094347	1.244326
C73	C	0.059206	-0.422280	0.794159
C74	C	0.559206	0.077720	1.294159
C75	C	0.140607	-0.462951	0.794094
C76	C	0.640607	0.037049	1.294094
C77	C	0.157172	-0.446325	0.744260
C78	C	0.657172	0.053675	1.244260
C79	C	0.124753	-0.417674	0.719377
C80	C	0.624753	0.082326	1.219377
C81	C	0.328223	-0.417595	0.515681
C82	C	0.828223	0.082405	1.015681
C83	C	-0.172390	-0.583988	0.349141
C84	C	0.327610	-0.083988	0.849141
C85	C	-0.041751	-0.584138	0.218783
C86	C	0.458249	-0.084138	0.718783
C87	C	-0.041941	-0.584130	0.349402
C88	C	0.458059	-0.084130	0.849402
C89	C	-0.041957	-0.714607	0.349338
C90	C	0.458043	-0.214607	0.849338
C91	C	-0.129326	-0.598388	0.334853
C92	C	0.370674	-0.098388	0.834853
C93	C	-0.056165	-0.598473	0.261852
C94	C	0.443835	-0.098473	0.761852
C95	C	-0.056282	-0.671535	0.334962
C96	C	0.443718	-0.171535	0.834962
C97	C	-0.056272	-0.598469	0.334999
C98	C	0.443728	-0.098469	0.834999
C99	C	-0.227205	-0.565659	0.367327
C100	C	0.272795	-0.065659	0.867327
C101	C	-0.023703	-0.565882	0.367734
C102	C	0.476297	-0.065882	0.867734
C103	C	-0.074511	-0.616717	0.316667
C104	C	0.425489	-0.116717	0.816667
C105	C	-0.055754	-0.794298	0.391257
C106	C	0.444246	-0.294298	0.891257
C107	C	-0.039181	-0.844132	0.407888
C108	C	0.460819	-0.344132	0.907888
C109	C	0.041447	-0.844215	0.377269
C110	C	0.541447	-0.344215	0.877269
C111	C	0.024873	-0.794381	0.360637
C112	C	0.524873	-0.294381	0.860637
C113	C	-0.252183	-0.577666	0.416302
C114	C	0.247817	-0.077666	0.916302
C115	C	-0.302014	-0.561001	0.432833
C116	C	0.197986	-0.061001	0.932833
C117	C	-0.301886	-0.520329	0.351410
C118	C	0.198114	-0.020329	0.851410
C119	C	-0.252055	-0.536994	0.334880
C120	C	0.247945	-0.036994	0.834880
C121	C	-0.035709	-0.516892	0.355682
C122	C	0.464291	-0.016892	0.855682
C123	C	-0.019129	-0.500308	0.372353
C124	C	0.480871	-0.000308	0.872353
C125	C	0.021465	-0.581700	0.413115
C126	C	0.521465	-0.081700	0.913115
C127	C	0.004884	-0.598286	0.396450
C128	C	0.504884	-0.098286	0.896450
C129	C	-0.035389	-0.516907	0.139026
C130	C	0.464611	-0.016907	0.639026
C131	C	-0.018707	-0.500324	0.089193
C132	C	0.481293	-0.000324	0.589193
C133	C	0.021949	-0.581721	0.089240
C134	C	0.521949	-0.081721	0.589240
C135	C	0.005268	-0.598303	0.139074
C136	C	0.505268	-0.098303	0.639074
C137	C	-0.023402	-0.565894	0.163965
C138	C	0.476598	-0.065894	0.663965
C139	C	-0.023728	-0.769425	0.367633
C140	C	0.476272	-0.269425	0.867633
N141	N	0.427173	-0.450553	0.482630
N142	N	0.927173	0.049447	0.982630
O143	O	0.589997	-0.458460	0.365361
O144	O	1.089997	0.041540	0.865361
O145	O	0.590185	-0.550997	0.490963
O146	O	1.090185	-0.050997	0.990963
O147	O	0.590104	-0.550786	0.411309
O148	O	1.090104	-0.050786	0.911309
O149	O	0.590077	-0.458671	0.445016
O150	O	1.090077	0.041329	0.945016
O151	O	0.510940	-0.524462	0.437777
O152	O	1.010940	-0.024462	0.937777
O153	O	0.511020	-0.524674	0.517432
O154	O	1.011020	-0.024674	1.017432
O155	O	0.510832	-0.432136	0.391830
O156	O	1.010832	0.067864	0.891830
Zn157	Zn	0.498357	-0.474225	0.458833
Zn158	Zn	0.998357	0.025775	0.958833
Zn159	Zn	0.602660	-0.508908	0.423960
Zn160	Zn	1.102660	-0.008908	0.923960
O161	O	0.510913	-0.432348	0.471484
O162	O	1.010913	0.067652	0.971484
N163	N	0.673844	-0.532580	0.400158
N164	N	1.173844	-0.032580	0.900158
N165	N	0.091520	-0.115070	0.482873
N166	N	0.591520	0.384930	0.982873
O167	O	-0.025663	0.047841	0.474857
O168	O	0.474337	0.547841	0.974857
O169	O	0.099940	0.047877	0.382299
O170	O	0.599940	0.547877	0.882299
O171	O	0.020247	0.047844	0.382560
O172	O	0.520247	0.547844	0.882560
O173	O	0.054030	0.047874	0.474596
O174	O	0.554030	0.547874	0.974596
O175	O	0.046674	-0.031326	0.408942
O176	O	0.546674	0.468674	0.908942
O177	O	0.126367	-0.031293	0.408680
O178	O	0.626367	0.468707	0.908680
O179	O	0.000764	-0.031329	0.501238
O180	O	0.500764	0.468671	1.001238
Zn181	Zn	0.067761	-0.043881	0.459148
Zn182	Zn	0.567761	0.456119	0.959148
Zn183	Zn	0.032943	0.060429	0.424389
Zn184	Zn	0.532943	0.560429	0.924389
O185	O	0.080457	-0.031296	0.500977
O186	O	0.580457	0.468704	1.000977
N187	N	0.009178	0.131618	0.400665
N188	N	0.509178	0.631618	0.900665
N189	N	0.091852	-0.450680	0.818332
N190	N	0.591852	0.049320	1.318332
O191	O	0.083862	-0.567845	0.981235
O192	O	0.583862	-0.067845	1.481235
O193	O	-0.008657	-0.442198	0.981276
O194	O	0.491343	0.057802	1.481276
O195	O	-0.008441	-0.521875	0.981252
O196	O	0.491559	-0.021875	1.481252
O197	O	0.083646	-0.488168	0.981258
O198	O	0.583646	0.011832	1.481258
O199	O	0.017919	-0.495468	0.902085
O200	O	0.517919	0.004532	1.402085
O201	O	0.017703	-0.415791	0.902109
O202	O	0.517703	0.084209	1.402109
O203	O	0.110222	-0.541438	0.902067
O204	O	0.610222	-0.041438	1.402067
Zn205	Zn	0.068148	-0.474422	0.889518
Zn206	Zn	0.568148	0.025578	1.389518
Zn207	Zn	0.033417	-0.509214	0.993825
Zn208	Zn	0.533417	-0.009214	1.493825
O209	O	0.110006	-0.461761	0.902091
O210	O	0.610006	0.038239	1.402091
N211	N	0.009712	-0.532961	1.065011
N212	N	0.509712	-0.032961	1.565011
C213	C	0.030439	-0.413071	0.383027
C214	C	0.530439	0.086929	0.883027
C215	C	0.129046	-0.511580	0.382922
C216	C	0.629046	-0.011580	0.882922
C217	C	0.070334	-0.570496	0.500675
C218	C	0.570334	-0.070496	1.000675
C219	C	-0.028274	-0.471987	0.500780
C220	C	0.471726	0.028013	1.000780
C221	C	0.550625	-0.550579	0.520021
C222	C	1.050625	-0.050579	1.020021
C223	C	0.550527	-0.550317	0.421379
C224	C	1.050527	-0.050317	0.921379
C225	C	0.550389	-0.432554	0.362773
C226	C	1.050389	0.067446	0.862773
C227	C	0.550491	-0.432816	0.461414
C228	C	1.050491	0.067184	0.961414
C229	C	0.128944	0.008394	0.382712
C230	C	0.628944	0.508394	0.882712
C231	C	0.030287	0.008256	0.383068
C232	C	0.530287	0.508256	0.883068
C233	C	-0.028273	0.008252	0.500793
C234	C	0.471727	0.508252	1.000793
C235	C	0.070417	0.008292	0.500470
C236	C	0.570417	0.508292	1.000470
C237	C	-0.008218	-0.413165	0.941698
C238	C	0.491782	0.086835	1.441698
C239	C	-0.007945	-0.511830	0.941653
C240	C	0.492055	-0.011830	1.441653
C241	C	0.109783	-0.570471	0.941646
C242	C	0.609783	-0.070471	1.441646
C243	C	0.109516	-0.471800	0.941673
C244	C	0.609516	0.028200	1.441673
H245	H	0.049370	-0.382321	0.724071
H246	H	0.549370	0.117679	1.224071
H247	H	0.550540	-0.579254	0.414165
H248	H	1.050540	-0.079254	0.914165
N249	N	0.148261	-0.618269	0.941635
N250	N	0.648261	-0.118269	1.441635
H251	H	0.157476	-0.633425	0.970981
H252	H	0.657476	-0.133425	1.470981
H253	H	0.176998	-0.613816	0.912267
H254	H	0.676998	-0.113816	1.412267
H255	H	-0.231721	-0.527215	0.295000
H256	H	0.268279	-0.027215	0.795000
N257	N	0.550311	-0.394066	0.314994
N258	N	1.050311	0.105934	0.814994
H259	H	0.550297	-0.406272	0.293719
H260	H	1.050297	0.093728	0.793719
H261	H	0.579640	-0.384842	0.299854
H262	H	1.079640	0.115158	0.799854
N263	N	0.550482	-0.394485	0.470961
N264	N	1.050482	0.105515	0.970961
H265	H	0.550525	-0.406837	0.504458
H266	H	1.050525	0.093163	1.004458
H267	H	0.521109	-0.365721	0.467197
H268	H	1.021109	0.134279	0.967197
N269	N	-0.076050	0.008236	0.539286
N270	N	0.423950	0.508236	1.039286
H271	H	-0.097344	0.008225	0.527101
H272	H	0.402656	0.508225	1.027101
H273	H	-0.091165	0.037587	0.548479
H274	H	0.408835	0.537587	1.048479
N275	N	0.176850	-0.520986	0.344483
N276	N	0.676850	-0.020986	0.844483
H277	H	0.172442	-0.517184	0.315721
H278	H	0.672442	-0.017184	0.815721
H279	H	0.198082	-0.554477	0.356771
H280	H	0.698082	-0.054477	0.856771
N281	N	-0.046254	-0.521363	0.941609
N282	N	0.453746	-0.021363	1.441609
H283	H	-0.033901	-0.554868	0.941588
H284	H	0.466099	-0.054868	1.441588
H285	H	-0.055460	-0.497984	0.912255
H286	H	0.444540	0.002016	1.412255
N287	N	0.176611	0.008785	0.344127
N288	N	0.676611	0.508785	0.844127
H289	H	0.171964	0.038225	0.315487
H290	H	0.671964	0.538225	0.815487
H291	H	0.191939	-0.020490	0.334758
H292	H	0.691939	0.479510	0.834758
H293	H	0.077653	0.008301	0.529384
H294	H	0.577653	0.508301	1.029384
H295	H	0.023260	-0.376951	0.354059
H296	H	0.523260	0.123049	0.854059
N297	N	0.147840	-0.462252	0.941673
N298	N	0.647840	0.037748	1.441673
H299	H	0.135490	-0.428744	0.941682
H300	H	0.635490	0.071256	1.441682
H301	H	0.176610	-0.466045	0.912318
H302	H	0.676610	0.033955	1.412318
H303	H	0.019320	-0.412483	0.814467
H304	H	0.519320	0.087517	1.314467
N305	N	0.079839	-0.618337	0.539052
N306	N	0.579839	-0.118337	1.039052
H307	H	0.113338	-0.639543	0.526745
H308	H	0.613338	-0.139543	1.026745
H309	H	0.056452	-0.633513	0.548285
H310	H	0.556452	-0.133513	1.048285
H311	H	0.167007	-0.486271	0.814352
H312	H	0.667007	0.013729	1.314352
N313	N	-0.076080	-0.462580	0.539215
N314	N	0.423920	0.037420	1.039215
H315	H	-0.097335	-0.429088	0.526966
H316	H	0.402665	0.070912	1.026966
H317	H	-0.071633	-0.466407	0.567965
H318	H	0.428367	0.033593	1.067965
H319	H	0.023050	0.008252	0.354152
H320	H	0.523050	0.508252	0.854152
N321	N	0.550690	-0.589062	0.567804
N322	N	1.050690	-0.089062	1.067804
H323	H	0.550702	-0.576855	0.589080
H324	H	1.050702	-0.076855	1.089080
H325	H	0.580054	-0.617804	0.563323
H326	H	1.080054	-0.117804	1.063323
H327	H	-0.037264	-0.377079	0.941710
H328	H	0.462736	0.122921	1.441710
H329	H	0.197059	-0.456117	0.723950
H330	H	0.697059	0.043883	1.223950
H331	H	0.049217	-0.382297	0.551240
H332	H	0.549217	0.117703	1.051240
H333	H	0.166679	-0.486211	0.447227
H334	H	0.666679	0.013789	0.947227
N335	N	0.006109	-0.409264	0.524321
N336	N	0.506109	0.090736	1.024321
H337	H	-0.011875	-0.388606	0.545004
H338	H	0.488125	0.111394	1.045004
H339	H	-0.002530	-0.439243	0.542275
H340	H	0.497470	0.060757	1.042275
H341	H	0.332881	-0.492283	0.542031
H342	H	0.832881	0.007717	1.042031
N343	N	0.209785	-0.459240	0.474137
N344	N	0.709785	0.040760	0.974137
H345	H	0.227768	-0.479902	0.453458
H346	H	0.727768	0.020098	0.953458
H347	H	0.218480	-0.477202	0.504092
H348	H	0.718480	0.022798	1.004092
H349	H	0.423225	-0.376108	0.456057
H350	H	0.923225	0.123892	0.956057
N351	N	0.429870	-0.535246	0.513705
N352	N	0.929870	-0.035246	1.013705
H353	H	0.421184	-0.546229	0.497713
H354	H	0.921184	-0.046229	0.997713
H355	H	0.421216	-0.553701	0.548941
H356	H	0.921216	-0.053701	1.048941
N357	N	0.326222	-0.333146	0.484389
N358	N	0.826222	0.166854	0.984389
H359	H	0.334862	-0.314647	0.449162
H360	H	0.834862	0.185353	0.949162
H361	H	0.334917	-0.322209	0.500413
H362	H	0.834917	0.177791	1.000413
N363	N	0.167426	-0.215958	0.431897
N364	N	0.667426	0.284042	0.931897
H365	H	0.172497	-0.192603	0.398344
H366	H	0.672497	0.307397	0.898344
H367	H	0.151247	-0.236643	0.437027
H368	H	0.651247	0.263357	0.937027
H369	H	0.015032	-0.638195	0.159378
H370	H	0.515032	-0.138195	0.659378
H371	H	0.129672	-0.118967	0.410356
H372	H	0.629672	0.381033	0.910356
H373	H	0.086148	-0.209418	0.588113
H374	H	0.586148	0.290582	1.088113
N375	N	0.048409	-0.112433	0.566577
N376	N	0.548409	0.387567	1.066577
H377	H	0.018458	-0.121120	0.587278
H378	H	0.518458	0.378880	1.087278
H379	H	0.039724	-0.077089	0.548601
H380	H	0.539724	0.422911	1.048601
N381	N	-0.031641	-0.447486	0.062297
N382	N	0.468359	0.052514	0.562297
H383	H	-0.052335	-0.429475	0.085629
H384	H	0.447665	0.070525	0.585629
H385	H	-0.049555	-0.438807	0.041571
H386	H	0.450445	0.061193	0.541571
H387	H	0.045284	-0.608113	0.068976
H388	H	0.545284	-0.108113	0.568976
N389	N	-0.066315	-0.481951	0.165871
N390	N	0.433685	0.018049	0.665871
H391	H	-0.071377	-0.448401	0.142508
H392	H	0.428623	0.051599	0.642508
H393	H	-0.050171	-0.487082	0.186593
H394	H	0.449829	0.012918	0.686593
H395	H	-0.058984	-0.490504	0.332300
H396	H	0.441016	0.009496	0.832300
H397	H	0.044746	-0.608091	0.436494
H398	H	0.544746	-0.108091	0.936494
N399	N	-0.032077	-0.447470	0.359368
N400	N	0.467923	0.052530	0.859368
H401	H	-0.067822	-0.432537	0.371489
H402	H	0.432178	0.067463	0.871489
H403	H	-0.019817	-0.432624	0.323623
H404	H	0.480183	0.067376	0.823623
N405	N	0.017830	-0.651125	0.409441
N406	N	0.517830	-0.151125	0.909441
H407	H	0.005603	-0.666005	0.445185
H408	H	0.505603	-0.166005	0.945185
H409	H	0.053577	-0.666019	0.397288
H410	H	0.553577	-0.166019	0.897288
N411	N	0.059416	-0.767553	0.335156
N412	N	0.559416	-0.267553	0.835156
H413	H	0.083715	-0.776250	0.305728
H414	H	0.583715	-0.276250	0.805728
H415	H	0.076101	-0.776251	0.357024
H416	H	0.576101	-0.276251	0.857024
N417	N	0.093866	-0.871130	0.369727
N418	N	0.593866	-0.371130	0.869727
H419	H	0.112397	-0.862482	0.334510
H420	H	0.612397	-0.362482	0.834510
H421	H	0.099465	-0.906466	0.383876
H422	H	0.599465	-0.406466	0.883876
N423	N	-0.073722	-0.870965	0.433364
N424	N	0.426278	-0.370965	0.933364
H425	H	-0.107026	-0.847594	0.435273
H426	H	0.392974	-0.347594	0.935273
H427	H	-0.072389	-0.891636	0.466563
H428	H	0.427611	-0.391636	0.966563
N429	N	-0.108175	-0.767376	0.398799
N430	N	0.391825	-0.267376	0.898799
H431	H	-0.126704	-0.776027	0.434017
H432	H	0.373296	-0.276027	0.934017
H433	H	-0.119085	-0.776044	0.382727
H434	H	0.380915	-0.276044	0.882727
N435	N	-0.225379	-0.608582	0.451296
N436	N	0.274621	-0.108582	0.951296
H437	H	-0.234084	-0.638526	0.471964
H438	H	0.265916	-0.138526	0.971964
H439	H	-0.234083	-0.590578	0.471948
H440	H	0.265917	-0.090578	0.971948
N441	N	-0.328959	-0.573944	0.485658
N442	N	0.171041	-0.073944	0.985658
H443	H	-0.305655	-0.594634	0.503704
H444	H	0.194345	-0.094634	1.003704
H445	H	-0.349643	-0.591870	0.494280
H446	H	0.150357	-0.091870	0.994280
H447	H	-0.322118	-0.496994	0.324987
H448	H	0.177882	0.003006	0.824987
