data_functionalizedCrystal
_audit_creation_method	'MofGen! by Chris Wilmer'
_symmetry_space_group_name_H-M	'P1'
_symmetry_Int_Tables_number	1
_symmetry_cell_setting	triclinic
loop_
_symmetry_equiv_pos_as_xyz
  x,y,z
_cell_length_a	19.188930
_cell_length_b	8.597213
_cell_length_c	7.088929
_cell_angle_alpha	88.663806
_cell_angle_beta	83.792352
_cell_angle_gamma	84.244860
loop_
_atom_site_label
_atom_site_type_symbol
_atom_site_fract_x
_atom_site_fract_y
_atom_site_fract_z
O1	O	0.126150	2.031579	-0.493662
O2	O	0.130853	1.582108	-0.419630
O3	O	0.027047	1.819818	-0.458746
O4	O	0.229956	1.793869	-0.454547
O5	O	0.013142	1.851586	-0.145998
O6	O	0.116948	1.613876	-0.106882
O7	O	0.112245	2.063347	-0.180915
Cu8	Cu	0.113327	1.841512	-0.115342
Cu9	Cu	0.129771	1.803943	-0.485203
O10	O	0.216051	1.825637	-0.141799
C11	C	0.122621	1.540488	-0.253784
C12	C	0.118800	1.369145	-0.225561
C13	C	-0.005930	1.834863	-0.302228
C14	C	-0.083474	1.832342	-0.301797
C15	C	-0.126217	1.971822	-0.324761
C16	C	-0.199076	1.969450	-0.324401
C17	C	-0.229192	1.827594	-0.301037
C18	C	-0.186439	1.688095	-0.278081
C19	C	-0.113581	1.690469	-0.278460
N20	N	-0.343625	1.729973	-0.176744
N21	N	-0.412839	1.727728	-0.176381
C22	C	-0.448711	1.820431	-0.299896
N23	N	-0.412757	1.915491	-0.423769
N24	N	-0.343538	1.917742	-0.424125
C25	C	-0.308194	1.825004	-0.300624
C26	C	-0.570456	1.957348	-0.322475
C27	C	-0.643316	1.954968	-0.322125
C28	C	-0.630679	1.673612	-0.275785
C29	C	-0.557819	1.675993	-0.276154
C30	C	-0.527713	1.817866	-0.299491
C31	C	0.249028	1.810592	-0.298321
C32	C	0.326573	1.813111	-0.298765
C33	C	0.120477	2.104967	-0.346765
C34	C	0.124299	2.276309	-0.375000
N35	N	0.101761	1.867948	0.144796
N36	N	0.141332	1.777520	-0.745343
H37	H	-0.101709	2.087345	-0.343770
H38	H	0.111170	1.317535	-0.076024
O39	O	0.047444	1.992107	0.232526
H40	H	0.059681	2.108607	0.175003
O41	O	0.134401	1.344645	-0.573079
H42	H	0.135910	1.473017	-0.564903
O43	O	-0.245192	2.119894	-0.349145
H44	H	-0.212017	2.218945	-0.365421
H45	H	-0.210964	1.572595	-0.259062
H46	H	-0.078779	1.576885	-0.259759
O47	O	-0.537974	2.110353	-0.347681
H48	H	-0.579938	2.206943	-0.363626
H49	H	-0.655198	1.558109	-0.256771
O50	O	-0.689424	2.105415	-0.346879
H51	H	-0.656246	2.204461	-0.363145
O52	O	-0.511713	1.525560	-0.251339
H53	H	-0.544893	1.426519	-0.235009
H54	H	0.182340	1.683802	0.188433
