data_functionalizedCrystal
_audit_creation_method	'MofGen! by Chris Wilmer'
_symmetry_space_group_name_H-M	'P1'
_symmetry_Int_Tables_number	1
_symmetry_cell_setting	triclinic
loop_
_symmetry_equiv_pos_as_xyz
  x,y,z
_cell_length_a	8.597304
_cell_length_b	15.944551
_cell_length_c	7.088929
_cell_angle_alpha	96.208625
_cell_angle_beta	76.027438
_cell_angle_gamma	84.421754
loop_
_atom_site_label
_atom_site_type_symbol
_atom_site_fract_x
_atom_site_fract_y
_atom_site_fract_z
O1	O	0.222242	1.105747	-0.195390
O2	O	0.247626	0.861176	-0.199619
O3	O	0.002583	0.990313	-0.159226
O4	O	0.467285	0.976609	-0.235783
O5	O	-0.030239	1.007571	0.164160
O6	O	0.214805	0.878434	0.123767
O7	O	0.189420	1.123005	0.127995
Cu8	Cu	0.199115	1.002295	0.155409
Cu9	Cu	0.237931	0.981885	-0.227032
O10	O	0.434463	0.993867	0.087602
C11	C	0.230162	0.838511	-0.037758
C12	C	0.227006	0.745266	-0.037256
C13	C	-0.073293	0.998432	0.012259
C14	C	-0.250481	0.996902	0.041436
C15	C	0.067564	0.530531	-0.010952
C16	C	0.157784	0.460947	-0.182595
C17	C	0.221289	0.574546	-0.036292
C18	C	0.125461	0.477984	0.136231
C19	C	0.215754	0.409639	-0.035350
C20	C	0.311565	0.506183	-0.208074
C21	C	0.279206	0.523234	0.110900
C22	C	0.369542	0.453665	-0.060801
C23	C	0.224473	0.669545	-0.036836
C24	C	0.212584	0.314641	-0.034822
C25	C	0.510340	0.985748	-0.083887
C26	C	0.687529	0.987277	-0.113077
C27	C	0.206884	1.145669	-0.033869
C28	C	0.210042	1.238913	-0.034384
N29	N	0.171814	1.016656	0.424397
N30	N	0.265220	0.967531	-0.496018
H31	H	-0.229986	0.980205	-0.267696
H32	H	0.075023	1.067578	0.522008
Cl33	Cl	0.078530	0.418867	-0.374185
H34	H	-0.332972	1.003963	0.196065
Cl35	Cl	0.566724	0.402310	-0.093415
Cl36	Cl	-0.129410	0.582092	0.021267
H37	H	0.330489	0.550511	0.235004
Cl38	Cl	0.433019	0.525842	-0.432950
Cl39	Cl	0.003917	0.458156	0.360891
H40	H	0.362015	0.916618	0.406380
