data_functionalizedCrystal
_audit_creation_method	'MofGen! by Chris Wilmer'
_symmetry_space_group_name_H-M	'P1'
_symmetry_Int_Tables_number	1
_symmetry_cell_setting	triclinic
loop_
_symmetry_equiv_pos_as_xyz
  x,y,z
_cell_length_a	14.628931
_cell_length_b	31.640172
_cell_length_c	14.628931
_cell_angle_alpha	59.998384
_cell_angle_beta	89.999882
_cell_angle_gamma	60.006558
loop_
_atom_site_label
_atom_site_type_symbol
_atom_site_fract_x
_atom_site_fract_y
_atom_site_fract_z
Zr1	Zr	0.880755	0.462586	-0.119951
O2	O	0.734821	0.550753	-0.265909
O3	O	0.925474	0.374419	-0.075209
O4	O	0.925500	0.462586	-0.265912
O5	O	0.734794	0.462586	0.075226
O6	O	1.075932	0.462586	-0.265912
O7	O	0.734794	0.462586	-0.075206
O8	O	1.075885	0.304872	0.075221
O9	O	0.734842	0.620300	-0.265908
O10	O	1.056833	0.410684	-0.056125
O11	O	0.944568	0.410684	0.056141
O12	O	0.944599	0.514488	-0.168388
O13	O	0.832333	0.514489	-0.056122
Zr14	Zr	1.120676	0.462586	0.119970
Zr15	Zr	1.120677	0.462586	-0.119952
Zr16	Zr	0.880755	0.462586	0.119970
Zr17	Zr	0.880788	0.573506	-0.119948
Zr18	Zr	1.120643	0.351666	0.119967
O19	O	1.075958	0.550753	0.075227
O20	O	1.075958	0.550753	-0.265910
O21	O	0.734820	0.550753	0.075228
O22	O	1.266611	0.374420	0.265928
O23	O	1.266611	0.374419	-0.075209
O24	O	0.925473	0.374420	0.265928
O25	O	1.266637	0.462586	-0.075207
O26	O	1.075931	0.462587	0.265930
O27	O	0.925500	0.462587	0.265931
O28	O	1.266637	0.462586	0.075224
O29	O	0.925547	0.620300	-0.265908
O30	O	1.075885	0.304872	0.265926
O31	O	1.266590	0.304872	0.265926
O32	O	1.266590	0.304872	0.075221
O33	O	0.734841	0.620300	-0.075202
O34	O	0.925547	0.620300	-0.075203
O35	O	1.056833	0.410684	0.168406
O36	O	1.169099	0.410684	0.056140
O37	O	1.056864	0.514489	-0.056122
O38	O	0.944598	0.514489	0.056143
C39	C	1.000675	0.323842	0.000006
C40	C	1.000661	0.276753	0.000005
C41	C	0.700611	0.462586	0.000010
C42	C	0.598758	0.462586	0.000010
C43	C	0.448083	0.462586	0.078768
C44	C	0.553354	0.462586	0.078769
C45	C	1.059340	-0.015289	-0.058582
C46	C	1.059363	-0.192284	-0.058581
O47	O	1.109242	-0.215189	-0.108380
N48	N	1.000760	-0.214413	0.000018
C49	C	0.942153	-0.192294	0.058627
O50	O	0.892318	-0.215181	0.108479
C51	C	0.942137	-0.015302	0.058632
C52	C	1.000735	0.006829	0.000020
C53	C	1.117934	0.006842	-0.117189
C54	C	1.117922	0.051090	-0.117193
C55	C	1.059317	0.073209	-0.058591
C56	C	1.000723	0.051078	0.000016
C57	C	0.883538	0.006814	0.117248
C58	C	0.883541	0.051064	0.117246
C59	C	0.942139	0.073195	0.058634
C60	C	0.942107	0.117445	0.058613
N61	N	1.000710	0.139574	0.000014
C62	C	1.059315	0.117456	-0.058588
C63	C	0.942164	-0.285216	0.058619
C64	C	0.942166	-0.329463	0.058616
C65	C	1.059378	-0.329452	-0.058591
C66	C	1.059368	-0.285201	-0.058594
C67	C	1.000767	-0.263087	0.000019
C68	C	1.059286	0.210381	-0.058594
C69	C	1.059266	0.254635	-0.058597
C70	C	0.942059	0.254618	0.058614
C71	C	0.942074	0.210370	0.058613
C72	C	1.000696	0.188251	0.000007
O73	O	0.892264	0.140372	0.108395
O74	O	1.109163	0.140341	-0.108412
C75	C	1.059351	-0.059537	-0.058577
C76	C	1.000758	-0.081668	0.000029
C77	C	0.942152	-0.059550	0.058631
C78	C	1.000760	-0.125915	0.000026
C79	C	1.059365	-0.148033	-0.058576
C80	C	1.117968	-0.125904	-0.117175
C81	C	1.117956	-0.081655	-0.117180
C82	C	0.883549	-0.081679	0.117230
C83	C	0.883565	-0.125927	0.117229
C84	C	0.942170	-0.148045	0.058627
C85	C	1.300821	0.462586	0.000009
C86	C	1.402674	0.462586	0.000008
C87	C	1.000716	0.462586	-0.300096
C88	C	1.000716	0.462586	-0.401948
C89	C	1.000757	0.601330	0.000013
C90	C	1.000771	0.648419	0.000014
C91	C	0.945040	0.514080	-0.503048
C92	C	0.945039	0.514081	-0.608319
C93	C	1.000715	0.462587	0.300114
C94	C	1.000715	0.462587	0.401967
C95	C	1.300780	0.323842	0.000005
C96	C	1.402619	0.276753	0.000004
C97	C	1.000674	0.323842	0.300111
C98	C	1.000660	0.276754	0.401962
C99	C	1.300779	0.323842	0.300110
C100	C	1.402618	0.276754	0.401961
C101	C	0.700652	0.601330	-0.300092
C102	C	0.598813	0.648418	-0.401943
C103	C	0.700652	0.601330	0.000013
C104	C	0.598813	0.648419	0.000015
C105	C	1.000757	0.601330	-0.300092
C106	C	1.000772	0.648418	-0.401944
C107	C	1.391842	0.254640	-0.058608
C108	C	1.487521	0.210401	-0.058632
C109	C	1.593977	0.188274	-0.000036
C110	C	1.604751	0.210392	0.058577
C111	C	1.509073	0.254633	0.058594
C112	C	1.059255	0.254641	0.508404
C113	C	1.059237	0.210402	0.604114
C114	C	1.000631	0.188275	0.593379
C115	C	0.942029	0.210392	0.486926
C116	C	0.942041	0.254633	0.391219
C117	C	1.509055	0.254641	0.391190
C118	C	1.604752	0.210402	0.486882
C119	C	1.594011	0.188275	0.593343
C120	C	1.487564	0.210393	0.604111
C121	C	1.391868	0.254633	0.508421
C122	C	0.492377	0.670537	-0.391172
C123	C	0.396680	0.714789	-0.486863
C124	C	0.407421	0.736919	-0.593324
C125	C	0.513868	0.714798	-0.604093
C126	C	0.609563	0.670550	-0.508403
C127	C	0.609590	0.670537	0.058617
C128	C	0.513910	0.714788	0.058614
C129	C	0.407455	0.736917	0.000015
C130	C	0.396681	0.714797	-0.058594
C131	C	0.492359	0.670550	-0.058597
C132	C	1.059389	0.670532	-0.391173
C133	C	1.059425	0.714771	-0.486865
C134	C	1.000835	0.736898	-0.593325
C135	C	0.942215	0.714780	-0.604094
C136	C	0.942187	0.670539	-0.508404
H137	H	0.409031	0.462583	0.146200
Cl138	Cl	0.871452	0.582148	-0.516367
Cl139	Cl	1.074308	0.394515	-0.464135
Cl140	Cl	0.743365	0.642745	-0.521964
H141	H	1.165641	0.069105	-0.164916
Cl142	Cl	0.809869	-0.053881	0.190912
H143	H	1.107100	0.652523	-0.304496
Cl144	Cl	0.613635	0.462591	0.182875
Cl145	Cl	0.287106	0.792545	-0.713611
H146	H	0.483610	0.652522	-0.304495
Cl147	Cl	0.538472	0.462591	-0.104109
H148	H	0.309992	0.732821	-0.106304
Cl149	Cl	1.000630	0.132656	0.713710
Cl150	Cl	0.868378	0.282423	0.257410
H151	H	0.441735	0.462583	-0.067416
Cl152	Cl	0.743407	0.642730	0.132287
H153	H	0.897367	0.558167	-0.695048
H154	H	1.000866	0.772922	-0.671233
H155	H	1.671941	0.152251	0.671250
Cl156	Cl	0.868360	0.182567	0.473450
Cl157	Cl	0.868552	0.742610	-0.737939
Cl158	Cl	0.809872	-0.020999	0.190941
Cl159	Cl	0.527481	0.742584	0.132305
Cl160	Cl	1.474079	0.182568	0.737957
H161	H	1.691440	0.192369	0.106283
Cl162	Cl	1.522587	0.282453	0.257365
Cl163	Cl	1.074319	0.394518	-0.388629
H164	H	0.835836	-0.143939	0.164955
H165	H	1.106982	0.272654	-0.106331
Cl166	Cl	1.258024	0.282451	-0.132286
H167	H	1.107158	0.732774	-0.478075
Cl168	Cl	0.868476	0.642751	-0.521964
Cl169	Cl	1.473951	0.182603	-0.132318
H170	H	0.483569	0.652543	-0.106315
Cl171	Cl	1.132985	0.182581	-0.132270
Cl172	Cl	0.262874	0.742586	-0.473299
H173	H	1.165662	-0.011164	-0.164908
H174	H	1.107084	-0.267185	-0.106321
Cl175	Cl	0.287183	0.792541	0.000033
Cl176	Cl	1.738558	0.182604	0.473318
H177	H	1.107095	-0.347467	-0.106310
Cl178	Cl	0.868479	-0.357271	0.132285
Cl179	Cl	1.714248	0.132655	-0.000066
H180	H	1.517863	0.272632	0.106329
H181	H	0.522601	0.732822	-0.690785
Cl182	Cl	1.132943	0.282447	0.521929
H183	H	0.894441	-0.267215	0.106353
H184	H	0.894341	0.272636	0.106323
Cl185	Cl	0.809866	0.078861	0.190937
Cl186	Cl	1.258066	0.282424	0.521982
Cl187	Cl	0.868393	0.182554	0.132282
Cl188	Cl	1.132919	0.182605	0.737927
Cl189	Cl	1.191638	-0.153716	-0.190849
Cl190	Cl	1.191627	-0.053841	-0.190867
