data_functionalizedCrystal
_audit_creation_method	'MofGen! by Chris Wilmer'
_symmetry_space_group_name_H-M	'P1'
_symmetry_Int_Tables_number	1
_symmetry_cell_setting	triclinic
loop_
_symmetry_equiv_pos_as_xyz
  x,y,z
_cell_length_a	14.519731
_cell_length_b	17.038272
_cell_length_c	16.098538
_cell_angle_alpha	87.079695
_cell_angle_beta	92.744038
_cell_angle_gamma	87.400204
loop_
_atom_site_label
_atom_site_type_symbol
_atom_site_fract_x
_atom_site_fract_y
_atom_site_fract_z
O1	O	1.235560	0.099092	0.069259
O2	O	1.735560	0.599092	0.569259
O3	O	0.968008	0.111146	0.069260
O4	O	1.468008	0.611146	0.569260
O5	O	1.100193	-0.008699	0.069253
O6	O	1.600193	0.491301	0.569253
O7	O	1.103374	0.218937	0.069266
O8	O	1.603374	0.718937	0.569266
O9	O	1.092469	-0.001725	-0.069259
O10	O	1.592469	0.498275	0.430741
O11	O	0.960284	0.118119	-0.069252
O12	O	1.460284	0.618119	0.430748
O13	O	1.227836	0.106066	-0.069254
O14	O	1.727836	0.606066	0.430746
Zn15	Zn	1.092834	0.113199	-0.091245
Zn16	Zn	1.592834	0.613199	0.408755
Zn17	Zn	1.103010	0.104012	0.091251
Zn18	Zn	1.603010	0.604012	0.591251
O19	O	1.095650	0.225910	-0.069246
O20	O	1.595650	0.725910	0.430754
C21	C	0.929743	0.114068	0.000004
C22	C	1.429743	0.614068	0.500004
C23	C	0.827234	0.112375	0.000005
C24	C	1.327234	0.612375	0.500005
C25	C	0.743984	0.111000	0.000008
C26	C	1.243984	0.611000	0.500008
C27	C	0.639544	0.109282	0.000008
C28	C	1.139544	0.609282	0.500008
C29	C	0.556301	0.107918	0.000008
C30	C	1.056301	0.607918	0.500008
C31	C	0.451854	0.106200	0.000010
C32	C	0.951854	0.606200	0.500010
C33	C	1.093439	-0.034345	-0.000003
C34	C	1.593439	0.465655	0.499997
C35	C	1.084809	-0.121153	-0.000003
C36	C	1.584809	0.378847	0.499997
C37	C	1.164041	-0.171133	-0.000004
C38	C	1.664041	0.328867	0.499996
C39	C	1.155928	-0.252698	0.000004
C40	C	1.655928	0.247302	0.500004
C41	C	1.068580	-0.284280	0.000007
C42	C	1.568580	0.215720	0.500007
C43	C	0.989342	-0.234293	0.000011
C44	C	1.489342	0.265707	0.500011
C45	C	0.997457	-0.152730	0.000009
C46	C	1.497457	0.347270	0.500009
C47	C	1.039912	-0.530087	0.000019
C48	C	1.539912	-0.030087	0.500019
C49	C	1.031803	-0.611656	0.000018
C50	C	1.531803	-0.111656	0.500018
C51	C	1.198389	-0.630055	0.000013
C52	C	1.698389	-0.130055	0.500013
C53	C	1.206496	-0.548490	0.000006
C54	C	1.706496	-0.048490	0.500006
C55	C	1.127258	-0.498510	0.000014
C56	C	1.627258	0.001490	0.500014
C57	C	1.060285	-0.367652	0.000013
C58	C	1.560285	0.132348	0.500013
C59	C	1.135555	-0.415140	0.000014
C60	C	1.635555	0.084860	0.500014
C61	C	1.266101	0.103144	0.000004
C62	C	1.766101	0.603144	0.500004
C63	C	1.368611	0.104836	0.000010
C64	C	1.868611	0.604836	0.500010
C65	C	1.102405	0.251556	0.000012
C66	C	1.602405	0.751556	0.500012
C67	C	1.111035	0.338364	0.000017
C68	C	1.611035	0.838364	0.500017
N69	N	1.085895	0.119469	-0.215793
N70	N	1.585895	0.619469	0.284207
C71	C	1.142023	0.068621	-0.259382
C72	C	1.642023	0.568621	0.240618
C73	C	1.137179	0.073014	-0.346570
C74	C	1.637179	0.573014	0.153430
C75	C	1.076210	0.128260	-0.390169
C76	C	1.576210	0.628260	0.109831
C77	C	1.020076	0.179111	-0.346575
C78	C	1.520076	0.679111	0.153425
C79	C	1.024916	0.174714	-0.259388
C80	C	1.524916	0.674714	0.240612
C81	C	1.058662	0.144189	-0.653418
C82	C	1.558662	0.644189	-0.153418
C83	C	1.053827	0.148585	-0.740612
C84	C	1.553827	0.648585	-0.240612
C85	C	1.170930	0.042486	-0.740601
C86	C	1.670930	0.542486	-0.240601
C87	C	1.175769	0.038096	-0.653412
C88	C	1.675769	0.538096	-0.153412
C89	C	1.119631	0.088944	-0.609825
C90	C	1.619631	0.588944	-0.109825
C91	C	1.071259	0.132754	-0.479290
C92	C	1.571259	0.632754	0.020710
C93	C	1.124578	0.084446	-0.520706
C94	C	1.624578	0.584446	-0.020706
N95	N	1.109955	0.097736	0.215800
N96	N	1.609955	0.597736	0.715800
H97	H	1.235168	-0.145426	-0.000012
H98	H	1.735168	0.354574	0.499988
H99	H	1.191675	0.023636	-0.223889
H100	H	1.691675	0.523636	0.276111
Br101	Br	1.213350	0.004001	-0.405729
Br102	Br	1.713350	0.504001	0.094271
H103	H	0.989166	-0.393375	0.000013
H104	H	1.489166	0.106625	0.500013
Br105	Br	0.937323	0.254085	-0.405742
Br106	Br	1.437323	0.754085	0.094258
Br107	Br	0.988516	0.207731	-0.538463
Br108	Br	1.488516	0.707731	-0.038463
Br109	Br	1.254095	-0.372278	0.000017
Br110	Br	1.754095	0.127722	0.500017
Br111	Br	1.258516	-0.036878	-0.594241
Br112	Br	1.758516	0.463122	-0.094241
H113	H	1.216633	0.001087	-0.776097
H114	H	1.716633	0.501087	-0.276097
Br115	Br	0.971081	0.223572	-0.799776
Br116	Br	1.471081	0.723572	-0.299776
Br117	Br	1.305920	-0.697887	0.000002
Br118	Br	1.805920	-0.197887	0.500002
H119	H	1.012954	0.185593	-0.617937
H120	H	1.512954	0.685593	-0.117937
H121	H	0.979209	0.216119	-0.223899
H122	H	1.479209	0.716119	0.276101
H123	H	1.174216	0.039462	-0.485205
H124	H	1.674216	0.539462	0.014795
Br125	Br	0.913252	-0.654516	0.000014
Br126	Br	1.413252	-0.154516	0.500014
Br127	Br	0.870799	-0.277154	0.000029
Br128	Br	1.370799	0.222846	0.500029
Br129	Br	0.889924	-0.084898	0.000017
Br130	Br	1.389924	0.415102	0.500017
Br131	Br	1.325044	-0.505635	0.000028
Br132	Br	1.825044	-0.005635	0.500028
H133	H	1.220447	-0.293389	0.000001
H134	H	1.720447	0.206611	0.500001
Br135	Br	0.932374	-0.462268	0.000035
Br136	Br	1.432374	0.037732	0.500035
