data_functionalizedCrystal
_audit_creation_method	'MofGen! by Chris Wilmer'
_symmetry_space_group_name_H-M	'P1'
_symmetry_Int_Tables_number	1
_symmetry_cell_setting	triclinic
loop_
_symmetry_equiv_pos_as_xyz
  x,y,z
_cell_length_a	15.944551
_cell_length_b	19.288865
_cell_length_c	18.366186
_cell_angle_alpha	89.989632
_cell_angle_beta	89.995406
_cell_angle_gamma	83.317493
loop_
_atom_site_label
_atom_site_type_symbol
_atom_site_fract_x
_atom_site_fract_y
_atom_site_fract_z
O1	O	-1.114185	-0.089582	0.060482
O2	O	-0.869593	-0.100627	0.060501
O3	O	-0.998956	0.006007	0.060477
O4	O	-0.984821	-0.196216	0.060507
O5	O	-0.998934	0.006010	-0.060622
O6	O	-0.869570	-0.100624	-0.060598
O7	O	-1.114162	-0.089579	-0.060617
Zn8	Zn	-0.991863	-0.095101	-0.079835
Zn9	Zn	-0.991892	-0.095105	0.079719
O10	O	-0.984799	-0.196213	-0.060593
C11	C	-0.838289	-0.100167	-0.000046
C12	C	-0.745048	-0.098792	-0.000039
C13	C	-0.998490	0.031887	-0.000075
C14	C	-0.997125	0.108994	-0.000081
C15	C	-1.145466	-0.090039	-0.000068
C16	C	-1.238706	-0.091414	-0.000070
C17	C	-0.530459	-0.029410	-0.000064
C18	C	-0.469326	-0.061630	0.059649
C19	C	-0.574332	-0.096305	-0.000048
C20	C	-0.469326	-0.061643	-0.059745
C21	C	-0.409429	-0.093898	-0.000060
C22	C	-0.514427	-0.128544	0.059714
C23	C	-0.514434	-0.128547	-0.059734
C24	C	-0.453318	-0.160816	-0.000006
C25	C	-0.669329	-0.097690	-0.000041
C26	C	-0.314433	-0.092519	-0.000062
C27	C	-0.985265	-0.222092	-0.000039
C28	C	-0.986630	-0.299199	-0.000028
N29	N	-0.991849	-0.095098	-0.188726
C30	C	-1.073030	0.153490	-0.000091
C31	C	-1.071747	0.225941	-0.000079
C32	C	-0.994555	0.253891	-0.000073
C33	C	-0.918641	0.209385	-0.000059
C34	C	-0.919925	0.136936	-0.000063
C35	C	-0.933866	0.362340	-0.042486
C36	C	-0.932584	0.434788	-0.042486
C37	C	-0.990589	0.477347	-0.000056
C38	C	-1.049890	0.447452	0.042365
C39	C	-1.051175	0.375003	0.042361
C40	C	-0.993153	0.332449	-0.000067
C41	C	-1.065108	0.600404	-0.000052
C42	C	-1.063822	0.672855	-0.000036
C43	C	-0.910714	0.656298	-0.000023
C44	C	-0.912002	0.583848	-0.000032
C45	C	-0.989201	0.555906	-0.000050
C46	C	-1.042624	-0.137255	-0.226818
C47	C	-1.042638	-0.137253	-0.303046
C48	C	-0.991861	-0.095102	-0.341178
C49	C	-0.941082	-0.052936	-0.303077
C50	C	-0.941076	-0.052934	-0.226851
C51	C	-0.916145	-0.093146	-0.461954
C52	C	-0.916149	-0.093153	-0.538179
C53	C	-0.991879	-0.095104	-0.576286
C54	C	-1.067607	-0.097063	-0.538159
C55	C	-1.067601	-0.097061	-0.461932
C56	C	-0.991862	-0.095099	-0.423833
C57	C	-1.042674	-0.137262	-0.697033
C58	C	-1.042689	-0.137255	-0.773262
C59	C	-0.941126	-0.052942	-0.773292
C60	C	-0.941118	-0.052944	-0.697065
C61	C	-0.991891	-0.095108	-0.658939
N62	N	-0.991913	-0.095102	0.188610
H63	H	-0.564006	0.026108	0.000002
C64	C	-1.098525	-0.183632	-0.655089
H65	H	-1.091241	-0.177601	-0.604235
H66	H	-1.156045	-0.170758	-0.667573
H67	H	-1.082732	-0.231152	-0.667575
C68	C	-0.541478	-0.166739	-0.127920
H69	H	-0.567859	-0.206278	-0.113574
H70	H	-0.580080	-0.136028	-0.155551
H71	H	-0.493173	-0.181481	-0.156700
H72	H	-1.125636	0.709084	-0.000039
C73	C	-0.541284	-0.166736	0.127991
H74	H	-0.492839	-0.181824	0.156467
H75	H	-0.579443	-0.135906	0.155897
H76	H	-0.568128	-0.206049	0.113726
H77	H	-1.084043	-0.171583	-0.804275
C78	C	-0.442309	-0.023411	0.127833
H79	H	-0.468989	0.023270	0.127754
H80	H	-0.458507	-0.046725	0.170238
H81	H	-0.382761	-0.023185	0.127560
C82	C	-0.832859	-0.090969	-0.580112
H83	H	-0.787759	-0.089784	-0.546502
H84	H	-0.822486	-0.131344	-0.609851
H85	H	-0.836943	-0.050409	-0.609846
C86	C	-0.832840	-0.090987	-0.420040
H87	H	-0.843683	-0.091256	-0.369183
H88	H	-0.794519	-0.130647	-0.432524
H89	H	-0.808935	-0.049711	-0.432550
C90	C	-0.442328	-0.023407	-0.127942
H91	H	-0.469024	0.023269	-0.127870
H92	H	-0.382784	-0.023178	-0.127691
H93	H	-0.458539	-0.046715	-0.170340
H94	H	-0.899740	-0.018615	-0.334130
H95	H	-1.097123	0.482103	0.076917
H96	H	-0.855790	0.232147	-0.000052
C97	C	-0.408226	-0.235889	0.000049
H98	H	-0.423653	-0.259538	0.042505
H99	H	-0.424352	-0.259826	-0.041960
H100	H	-0.348845	-0.234614	-0.000349
H101	H	-1.135891	0.130744	-0.000103
H102	H	-1.099458	0.350666	0.076903
H103	H	-1.129262	-0.098655	-0.430892
C104	C	-1.155245	0.274895	-0.000095
H105	H	-1.201405	0.247877	-0.000110
H106	H	-1.157939	0.303497	0.042134
H107	H	-1.157908	0.303506	-0.042331
C108	C	-0.885202	-0.006577	-0.184945
H109	H	-0.892468	-0.012616	-0.134086
H110	H	-0.827689	-0.019461	-0.197450
H111	H	-0.900985	0.040947	-0.197436
H112	H	-1.127969	0.577652	-0.000063
H113	H	-0.899783	-0.018620	-0.804340
C114	C	-0.825804	0.687035	-0.000013
H115	H	-0.835909	0.736557	-0.000015
H116	H	-0.794569	0.671750	0.042218
H117	H	-0.794554	0.671771	-0.042247
C118	C	-0.828506	0.534900	-0.000034
H119	H	-0.782348	0.561921	-0.000034
H120	H	-0.825829	0.506282	0.042193
H121	H	-0.825821	0.506306	-0.042272
C122	C	-0.867356	0.467669	-0.089143
H123	H	-0.874904	0.516913	-0.083071
H124	H	-0.811999	0.449785	-0.074216
H125	H	-0.874936	0.456604	-0.138934
H126	H	-0.886629	0.327692	-0.077042
C127	C	-0.836427	0.087988	-0.000060
H128	H	-0.790268	0.115008	-0.000058
H129	H	-0.833753	0.059369	0.042166
H130	H	-0.833740	0.059395	-0.042299
C131	C	-1.098479	-0.183628	-0.184884
H132	H	-1.128726	-0.208731	-0.218492
H133	H	-1.063936	-0.215575	-0.155143
H134	H	-1.137247	-0.155179	-0.155152
H135	H	-1.083985	-0.171585	-0.334066
C136	C	-0.885232	-0.006600	-0.655158
H137	H	-0.892496	-0.012639	-0.604300
H138	H	-0.827722	-0.019494	-0.667666
H139	H	-0.901004	0.040925	-0.667647
H140	H	-1.129274	-0.098656	-0.569183
