data_functionalizedCrystal
_audit_creation_method	'MofGen! by Chris Wilmer'
_symmetry_space_group_name_H-M	'P1'
_symmetry_Int_Tables_number	1
_symmetry_cell_setting	triclinic
loop_
_symmetry_equiv_pos_as_xyz
  x,y,z
_cell_length_a	14.628931
_cell_length_b	14.628931
_cell_length_c	14.628931
_cell_angle_alpha	59.999972
_cell_angle_beta	90.000118
_cell_angle_gamma	60.000000
loop_
_atom_site_label
_atom_site_type_symbol
_atom_site_fract_x
_atom_site_fract_y
_atom_site_fract_z
Zr1	Zr	0.880620	1.000576	-0.119961
O2	O	0.734659	1.191282	-0.265922
O3	O	0.925365	0.809870	-0.075216
O4	O	0.925365	1.000576	-0.265922
O5	O	0.734660	1.000576	0.075216
O6	O	1.075797	1.000575	-0.265921
O7	O	0.734659	1.000576	-0.075216
O8	O	1.075797	0.659438	0.075217
O9	O	0.734659	1.341714	-0.265922
O10	O	1.056714	0.888310	-0.056133
O11	O	0.944448	0.888310	0.056133
O12	O	0.944448	1.112841	-0.168399
O13	O	0.832183	1.112842	-0.056133
Zr14	Zr	1.120543	1.000575	0.119961
Zr15	Zr	1.120542	1.000575	-0.119961
Zr16	Zr	0.880621	1.000576	0.119961
Zr17	Zr	0.880621	1.240497	-0.119961
Zr18	Zr	1.120542	0.760654	0.119961
O19	O	1.075798	1.191281	0.075216
O20	O	1.075797	1.191281	-0.265922
O21	O	0.734660	1.191282	0.075215
O22	O	1.266504	0.809869	0.265922
O23	O	1.266503	0.809869	-0.075215
O24	O	0.925366	0.809870	0.265922
O25	O	1.266503	1.000575	-0.075216
O26	O	1.075798	1.000575	0.265922
O27	O	0.925366	1.000576	0.265921
O28	O	1.266503	1.000575	0.075216
O29	O	0.925365	1.341713	-0.265922
O30	O	1.075797	0.659438	0.265922
O31	O	1.266503	0.659437	0.265922
O32	O	1.266503	0.659437	0.075217
O33	O	0.734660	1.341714	-0.075217
O34	O	0.925366	1.341713	-0.075217
O35	O	1.056714	0.888310	0.168399
O36	O	1.168980	0.888309	0.056133
O37	O	1.056714	1.112841	-0.056133
O38	O	0.944449	1.112841	0.056133
C39	C	1.000581	0.700470	0.000000
C40	C	1.000581	0.598617	0.000001
C41	C	0.700476	1.000576	-0.000000
C42	C	0.598623	1.000577	-0.000001
C43	C	1.056272	0.553208	-0.055691
C44	C	1.056273	0.447938	-0.055692
C45	C	0.608905	0.889194	0.055691
C46	C	0.503635	0.889192	0.055692
C47	C	1.300687	1.000575	0.000000
C48	C	1.402540	1.000574	0.000001
C49	C	1.000581	1.000576	-0.300105
C50	C	1.000581	1.000576	-0.401958
C51	C	1.000582	1.300681	-0.000000
C52	C	1.000582	1.402534	-0.000001
C53	C	1.079340	1.000575	-0.447367
C54	C	1.079342	1.000575	-0.552638
C55	C	1.000582	1.000576	0.300105
C56	C	1.000582	1.000576	0.401958
C57	C	1.300687	0.700469	0.000001
C58	C	1.402540	0.598616	0.000001
C59	C	1.000582	0.700470	0.300106
C60	C	1.000582	0.598617	0.401959
C61	C	1.300687	0.700469	0.300106
C62	C	1.402540	0.598616	0.401959
C63	C	0.700476	1.300682	-0.300106
C64	C	0.598622	1.402535	-0.401959
C65	C	0.700476	1.300682	-0.000001
C66	C	0.598623	1.402535	-0.000001
C67	C	1.000581	1.300681	-0.300106
C68	C	1.000581	1.402534	-0.401959
C69	C	1.392257	0.553207	-0.055690
C70	C	1.497526	0.447936	-0.055691
C71	C	1.056273	0.553208	0.503060
C72	C	1.056275	0.447938	0.608331
C73	C	1.503641	0.553207	0.391677
C74	C	1.608913	0.447936	0.496947
H75	H	1.103956	0.592259	-0.103365
H76	H	1.103948	0.408893	-0.103376
O77	O	0.392084	1.114431	-0.056805
C78	C	0.333116	1.185760	-0.013716
H79	H	0.280205	1.152556	0.029139
H80	H	0.395137	1.169415	0.049594
C81	C	0.321385	1.371391	-0.162692
C82	C	0.256391	1.330617	-0.110065
H83	H	0.274060	1.460746	-0.222122
H84	H	0.361116	1.323335	-0.191720
H85	H	0.373065	1.357759	-0.109923
H86	H	0.204722	1.344234	-0.162830
H87	H	0.216649	1.378679	-0.081048
O88	O	1.159773	1.000460	-0.400602
C89	C	1.220369	0.889117	-0.289556
H90	H	1.166994	0.851936	-0.256743
H91	H	1.300343	0.811158	-0.287372
C92	C	1.316185	0.968692	-0.255836
C93	C	1.250625	0.923032	-0.215530
H94	H	1.334854	0.989609	-0.210172
H95	H	1.275365	1.043704	-0.330650
H96	H	1.382823	0.903719	-0.254014
H97	H	1.183984	0.988010	-0.217366
H98	H	1.291436	0.848031	-0.140714
O99	O	1.159879	1.000345	-0.599144
C100	C	1.220425	0.889005	-0.598855
H101	H	1.212346	0.811174	-0.531040
H102	H	1.185477	0.914183	-0.683945
C103	C	1.354610	0.934102	-0.658498
C104	C	1.344694	0.838504	-0.575199
H105	H	1.431264	0.902953	-0.643911
H106	H	1.313817	1.009116	-0.658697
H107	H	1.325479	0.955075	-0.729398
H108	H	1.373812	0.817544	-0.504303
H109	H	1.385495	0.763485	-0.574987
H110	H	1.103947	0.592271	0.511680
O111	O	0.943876	0.551868	0.057085
C112	C	0.986957	0.496467	0.171491
H113	H	1.076242	0.467855	0.192226
H114	H	0.932553	0.569727	0.190303
C115	C	0.877235	0.410779	0.217576
C116	C	0.986901	0.375627	0.243044
H117	H	0.877197	0.336243	0.261714
H118	H	0.848207	0.448107	0.140498
H119	H	0.831911	0.471831	0.233252
H120	H	1.032220	0.314590	0.227354
H121	H	1.015937	0.338286	0.320122
O122	O	0.943513	0.552244	0.391596
C123	C	0.829106	0.654322	0.332572
H124	H	0.808344	0.735722	0.340474
H125	H	0.810321	0.692008	0.240496
C126	C	0.783058	0.504986	0.372099
C127	C	0.757555	0.604959	0.381812
H128	H	0.738920	0.474537	0.402468
H129	H	0.860136	0.436214	0.411861
H130	H	0.767403	0.536405	0.295367
H131	H	0.773222	0.573535	0.458544
H132	H	0.680477	0.673725	0.342064
H133	H	1.511899	0.441570	0.606679
O134	O	1.505927	0.552207	0.056906
C135	C	1.495049	0.614840	0.108715
H136	H	1.409683	0.711876	0.062813
H137	H	1.502928	0.552044	0.199682
C138	C	1.692685	0.517824	0.160812
C139	C	1.587840	0.637011	0.104428
H140	H	1.749925	0.531496	0.158173
H141	H	1.700015	0.475623	0.125911
H142	H	1.699235	0.465506	0.236612
H143	H	1.581286	0.689320	0.028626
H144	H	1.580511	0.679222	0.139316
O145	O	1.288870	0.599689	-0.112667
C146	C	1.299748	0.537001	-0.164422
H147	H	1.385114	0.497538	-0.176093
H148	H	1.291870	0.453913	-0.109505
C149	C	1.102112	0.682539	-0.265041
C150	C	1.206956	0.634079	-0.279384
H151	H	1.044871	0.742418	-0.335952
H152	H	1.094781	0.724770	-0.230170
H153	H	1.095562	0.613288	-0.219272
H154	H	1.213509	0.703327	-0.325139
H155	H	1.214285	0.591861	-0.314265
H156	H	1.103956	0.408885	0.695062
O157	O	0.920102	1.000751	-0.551456
C158	C	0.859515	1.112127	-0.551801
H159	H	0.912928	1.149251	-0.556118
H160	H	0.779582	1.190102	-0.627622
C161	C	0.763552	1.032708	-0.438624
C162	C	0.829159	1.078299	-0.443916
H163	H	0.744822	1.011846	-0.372079
H164	H	0.804367	0.957674	-0.438395
H165	H	0.696949	1.097696	-0.501814
H166	H	0.895765	1.013307	-0.380734
H167	H	0.788354	1.153322	-0.444132
H168	H	0.952907	0.441573	0.511317
O169	O	0.920227	1.000345	-0.448390
C170	C	0.925438	0.889005	-0.369381
H171	H	1.012812	0.811174	-0.304092
H172	H	0.861099	0.914183	-0.326489
C173	C	0.792700	0.934100	-0.509399
C174	C	0.900018	0.838503	-0.429216
H175	H	0.777015	0.902950	-0.546307
H176	H	0.789186	1.009115	-0.562629
H177	H	0.739097	0.955073	-0.473644
H178	H	0.953619	0.817543	-0.464973
H179	H	0.903541	0.763483	-0.375993
H180	H	0.511886	1.095934	-0.047677
H181	H	1.512264	0.592268	0.304942
O182	O	1.487420	0.401253	-0.112555
C183	C	1.594775	0.306521	-0.099879
H184	H	1.658133	0.322324	-0.078288
H185	H	1.619183	0.206420	-0.029690
C186	C	1.515670	0.297504	-0.236530
C187	C	1.593486	0.316920	-0.210021
H188	H	1.514875	0.303913	-0.304469
H189	H	1.443342	0.361323	-0.245068
H190	H	1.536019	0.214087	-0.178031
H191	H	1.573128	0.400341	-0.268514
H192	H	1.665810	0.253115	-0.201496
O193	O	1.392045	0.552214	0.505346
C194	C	1.277602	0.614852	0.494468
H195	H	1.226469	0.711883	0.409098
H196	H	1.249431	0.552054	0.502357
C197	C	1.322522	0.517856	0.692101
C198	C	1.259720	0.637036	0.587251
H199	H	1.311490	0.531535	0.749336
H200	H	1.399625	0.475651	0.699431
H201	H	1.299039	0.465536	0.698659
H202	H	1.283213	0.689347	0.580689
H203	H	1.182621	0.679250	0.579922
H204	H	0.952895	0.441584	0.047676
H205	H	0.695641	0.793837	0.103374
H206	H	0.512264	0.793833	0.103364
H207	H	1.607259	0.441568	0.047691
H208	H	1.695643	0.408881	0.488317
