data_functionalizedCrystal
_audit_creation_method	'MofGen! by Chris Wilmer'
_symmetry_space_group_name_H-M	'P1'
_symmetry_Int_Tables_number	1
_symmetry_cell_setting	triclinic
loop_
_symmetry_equiv_pos_as_xyz
  x,y,z
_cell_length_a	16.625539
_cell_length_b	10.686220
_cell_length_c	10.686285
_cell_angle_alpha	90.345431
_cell_angle_beta	94.392139
_cell_angle_gamma	85.649691
loop_
_atom_site_label
_atom_site_type_symbol
_atom_site_fract_x
_atom_site_fract_y
_atom_site_fract_z
Zn1	Zn	-0.342920	-1.956165	0.352082
Zn2	Zn	-0.009586	-1.622831	0.685415
Zn3	Zn	0.323747	-1.289498	1.018749
Zn4	Zn	-0.197047	-1.972163	0.561874
Zn5	Zn	0.136287	-1.638830	0.895207
Zn6	Zn	0.469620	-1.305497	1.228541
Zn7	Zn	-0.217581	-1.746396	0.368240
Zn8	Zn	0.115753	-1.413063	0.701573
Zn9	Zn	0.449086	-1.079729	1.034906
Zn10	Zn	-0.341319	-1.762490	0.577904
Zn11	Zn	-0.007985	-1.429157	0.911237
Zn12	Zn	0.325348	-1.095823	1.244570
O13	O	-0.274716	-1.859304	0.465025
O14	O	0.058617	-1.525970	0.798358
O15	O	0.391950	-1.192637	1.131692
O16	O	-0.315646	-2.133825	0.366441
O17	O	0.017688	-1.800492	0.699774
O18	O	0.351021	-1.467158	1.033108
O19	O	-0.086937	-1.942175	0.536241
O20	O	0.246396	-1.608842	0.869575
O21	O	0.579729	-1.275508	1.202908
O22	O	-0.243471	-1.760791	0.190553
O23	O	0.089863	-1.427458	0.523886
O24	O	0.423196	-1.094125	0.857219
O25	O	-0.208473	-2.145579	0.520574
O26	O	0.124860	-1.812246	0.853908
O27	O	0.458193	-1.478912	1.187241
O28	O	-0.335557	-1.914907	0.178682
O29	O	-0.002223	-1.581574	0.512015
O30	O	0.331110	-1.248241	0.845348
O31	O	-0.102024	-1.776305	0.393979
O32	O	0.231310	-1.442971	0.727312
O33	O	0.564643	-1.109638	1.060646
O34	O	-0.241918	-1.572993	0.409522
O35	O	0.091415	-1.239660	0.742856
O36	O	0.424748	-0.906326	1.076189
O37	O	-0.454364	-1.788221	0.547894
O38	O	-0.121031	-1.454888	0.881228
O39	O	0.212303	-1.121555	1.214561
O40	O	-0.332828	-1.584817	0.563562
O41	O	0.000505	-1.251484	0.896895
O42	O	0.333839	-0.918150	1.230228
O43	O	-0.455540	-1.930513	0.381984
O44	O	-0.122207	-1.597180	0.715318
O45	O	0.211126	-1.263847	1.048651
O46	O	-0.206921	-1.957781	0.739544
O47	O	0.126412	-1.624447	1.072877
O48	O	0.459746	-1.291114	1.406211
O49	O	-0.312917	-1.803735	0.751321
O50	O	0.020416	-1.470401	1.084654
O51	O	0.353750	-1.137068	1.417988
C52	C	-0.257533	-1.884274	0.790946
C53	C	0.075800	-1.550941	1.124280
C54	C	0.409134	-1.217608	1.457613
C55	C	-0.250204	-1.895072	0.930368
C56	C	0.083130	-1.561738	1.263702
C57	C	0.416463	-1.228405	1.597035
C58	C	-0.289428	-1.533390	0.490036
C59	C	0.043905	-1.200057	0.823369
C60	C	0.377239	-0.866723	1.156702
C61	C	-0.295739	-1.393965	0.500766
C62	C	0.037594	-1.060632	0.834099
C63	C	0.370927	-0.727298	1.167432
C64	C	-0.485027	-1.859378	0.464925
C65	C	-0.151693	-1.526045	0.798258
C66	C	0.181640	-1.192711	1.131592
C67	C	-0.574648	-1.859410	0.464883
C68	C	-0.241315	-1.526076	0.798216
C69	C	0.092018	-1.192743	1.131549
C70	C	-0.902829	-1.859457	0.464738
C71	C	-0.569496	-1.526123	0.798071
C72	C	-0.236162	-1.192790	1.131404
C73	C	-0.811519	-1.859440	0.464782
C74	C	-0.478186	-1.526107	0.798116
C75	C	-0.144852	-1.192774	1.131449
C76	C	-0.738741	-1.859434	0.464811
C77	C	-0.405408	-1.526100	0.798144
C78	C	-0.072075	-1.192767	1.131478
C79	C	-0.647426	-1.859416	0.464854
C80	C	-0.314093	-1.526083	0.798187
C81	C	0.019241	-1.192749	1.131521
C82	C	-0.065226	-1.859295	0.465028
C83	C	0.268108	-1.525961	0.798361
C84	C	0.601441	-1.192628	1.131695
C85	C	0.024388	-1.859479	0.464699
C86	C	0.357721	-1.526145	0.798032
C87	C	0.691054	-1.192812	1.131365
C88	C	-0.259948	-2.186490	0.439917
C89	C	0.073386	-1.853156	0.773251
C90	C	0.406719	-1.519823	1.106584
C91	C	-0.253654	-2.325917	0.429218
C92	C	0.079679	-1.992584	0.762551
C93	C	0.413013	-1.659250	1.095885
C94	C	-0.291983	-1.834270	0.137828
C95	C	0.041350	-1.500936	0.471161
C96	C	0.374684	-1.167603	0.804495
C97	C	-0.299341	-1.823601	-0.001604
C98	C	0.033993	-1.490268	0.331729
C99	C	0.367326	-1.156935	0.665063
H100	H	-0.212794	-1.374322	0.359755
H101	H	0.120540	-1.040989	0.693088
H102	H	0.453873	-0.707656	1.026422
H103	H	-0.336597	-1.345554	0.570241
H104	H	-0.003263	-1.012221	0.903574
H105	H	0.330070	-0.678888	1.236908
H106	H	-0.347018	-1.754154	0.949977
H107	H	-0.013684	-1.420820	1.283310
H108	H	0.319649	-1.087487	1.616644
Cl109	Cl	-0.176580	-2.002288	1.005127
Cl110	Cl	0.156753	-1.668955	1.338460
Cl111	Cl	0.490087	-1.335621	1.671794
