data_functionalizedCrystal
_audit_creation_method	'MofGen! by Chris Wilmer'
_symmetry_space_group_name_H-M	'P1'
_symmetry_Int_Tables_number	1
_symmetry_cell_setting	triclinic
loop_
_symmetry_equiv_pos_as_xyz
  x,y,z
_cell_length_a	17.638785
_cell_length_b	12.759394
_cell_length_c	12.759387
_cell_angle_alpha	89.968595
_cell_angle_beta	78.785967
_cell_angle_gamma	78.780964
loop_
_atom_site_label
_atom_site_type_symbol
_atom_site_fract_x
_atom_site_fract_y
_atom_site_fract_z
Zn1	Zn	-1.208503	0.743495	0.918237
Zn2	Zn	-1.208428	0.919191	0.742535
Zn3	Zn	-1.076316	0.707967	0.707109
Zn4	Zn	-1.076302	0.883549	0.882725
O5	O	-1.142387	0.813550	0.812652
O6	O	-1.319109	0.796586	0.924618
O7	O	-1.190877	0.891219	0.590808
O8	O	-1.093888	0.565669	0.735151
O9	O	-1.319054	0.925669	0.795530
O10	O	-1.191005	0.591771	0.890267
O11	O	-1.093815	0.736034	0.564780
O12	O	-0.965698	0.701474	0.700716
O13	O	-1.093864	0.864923	1.034464
O14	O	-0.965688	0.830473	0.829741
O15	O	-1.190992	0.762026	1.060555
O16	O	-1.190864	1.061474	0.761096
O17	O	-1.093792	1.035288	0.864093
C18	C	-0.937011	0.758251	0.757532
C19	C	-0.849150	0.734619	0.733976
C20	C	-0.560271	0.993268	0.991857
C21	C	-0.477712	0.971053	0.969697
C22	C	-0.477689	0.836517	0.835551
C23	C	-0.560249	0.858724	0.857697
C24	C	-0.601534	0.937100	0.935852
C25	C	-0.601512	0.802557	0.801692
C26	C	-0.684066	0.824759	0.823840
C27	C	-0.725356	0.903128	0.901993
C28	C	-0.684087	0.959302	0.958000
C29	C	-0.560227	0.724176	0.723543
C30	C	-0.601490	0.668008	0.667537
C31	C	-0.684044	0.690215	0.689680
C32	C	-0.725334	0.768585	0.767833
C33	C	-0.725313	0.634042	0.633673
C34	C	-0.807866	0.656244	0.655821
C35	C	-0.807887	0.790787	0.789981
C36	C	-1.142340	1.086505	0.812613
C37	C	-1.142392	1.203296	0.812652
C38	C	-1.142435	0.813462	1.086698
C39	C	-1.142456	0.813424	1.203480
C40	C	-0.348565	0.869058	0.867986
C41	C	-0.436426	0.892691	0.891561
C42	C	-1.142456	0.539536	0.812719
C43	C	-1.142486	0.422767	0.812747
C44	C	-1.243549	1.230530	0.705522
C45	C	-1.294149	1.299014	0.651975
C46	C	-1.294195	1.408748	0.652016
C47	C	-1.243638	1.450000	0.705612
C48	C	-1.193039	1.381516	0.759159
C49	C	-1.192996	1.271781	0.759110
C50	C	-1.091887	1.354283	0.866294
C51	C	-1.091835	1.244548	0.866248
C52	C	-1.041330	1.395535	0.919890
C53	C	-0.990725	1.327050	0.973432
C54	C	-0.990680	1.217310	0.973388
C55	C	-1.041236	1.176064	0.919795
C56	C	-1.142385	0.813575	0.539683
C57	C	-1.142518	0.813358	0.422943
C58	C	-1.243582	0.974960	1.450023
C59	C	-1.294103	1.055775	1.408699
C60	C	-1.294077	1.055808	1.298970
C61	C	-1.243523	0.975019	1.230561
C62	C	-1.193002	0.894205	1.271885
C63	C	-1.193036	0.894179	1.381618
C64	C	-1.091935	0.732609	1.244804
C65	C	-1.091964	0.732570	1.354534
C66	C	-1.041381	0.651821	1.176395
C67	C	-0.990863	0.571000	1.217720
C68	C	-0.990892	0.570970	1.327456
C69	C	-1.041443	0.651756	1.395858
H70	H	-0.717703	1.023129	1.021636
H71	H	-1.243499	0.975061	1.141214
H72	H	-1.041199	1.086713	0.919746
H73	H	-1.243506	1.141178	0.705467
F74	F	-1.041482	0.651727	1.512644
F75	F	-1.347841	1.141823	1.254988
H76	H	-1.041360	0.651857	1.087048
F77	F	-1.347900	1.141755	1.481510
H78	H	-0.949570	1.360649	1.017072
H79	H	-0.949703	0.505233	1.162013
H80	H	-0.949480	1.161556	1.016997
F81	F	-0.851830	0.874213	0.873153
H82	H	-0.841463	0.610498	0.610224
F83	F	-1.243624	0.974922	1.566810
F84	F	-0.681365	0.550621	0.550509
H85	H	-0.949750	0.505163	1.361093
F86	F	-0.604213	1.076694	1.075029
H87	H	-0.444119	1.016794	1.015313
F88	F	-0.813217	0.926756	0.925567
H89	H	-0.444064	0.772701	0.771921
F90	F	-1.041119	1.512253	0.919514
H91	H	-0.493007	0.706096	0.705518
H92	H	-0.567865	0.604192	0.603907
H93	H	-1.335313	1.265417	0.608340
H94	H	-1.243687	1.539354	0.705652
F95	F	-1.348052	1.481636	0.595032
