data_functionalizedCrystal
_audit_creation_method	'MofGen! by Chris Wilmer'
_symmetry_space_group_name_H-M	'P1'
_symmetry_Int_Tables_number	1
_symmetry_cell_setting	triclinic
loop_
_symmetry_equiv_pos_as_xyz
  x,y,z
_cell_length_a	8.559649
_cell_length_b	14.519731
_cell_length_c	12.996460
_cell_angle_alpha	89.998729
_cell_angle_beta	89.994340
_cell_angle_gamma	76.733759
loop_
_atom_site_label
_atom_site_type_symbol
_atom_site_fract_x
_atom_site_fract_y
_atom_site_fract_z
O1	O	2.120040	-0.031286	-0.085555
O2	O	2.453373	0.302048	0.247778
O3	O	2.786706	0.635381	0.581112
O4	O	1.654978	0.016331	-0.085560
O5	O	1.988311	0.349665	0.247773
O6	O	2.321645	0.682998	0.581106
O7	O	1.899822	-0.142598	-0.085548
O8	O	2.233155	0.190735	0.247785
O9	O	2.566488	0.524068	0.581118
O10	O	1.875196	0.127644	-0.085567
O11	O	2.208530	0.460977	0.247766
O12	O	2.541863	0.794310	0.581099
O13	O	1.899790	-0.142588	0.085586
O14	O	2.233123	0.190746	0.418919
O15	O	2.566457	0.524079	0.752252
O16	O	1.654947	0.016342	0.085573
O17	O	1.988280	0.349675	0.418907
O18	O	2.321613	0.683008	0.752240
O19	O	2.120008	-0.031275	0.085579
O20	O	2.453341	0.302058	0.418912
O21	O	2.786675	0.635391	0.752245
Cu22	Cu	1.887474	-0.007466	0.101202
Cu23	Cu	2.220808	0.325867	0.434535
Cu24	Cu	2.554141	0.659201	0.767869
Cu25	Cu	1.887512	-0.007478	-0.101184
Cu26	Cu	2.220845	0.325855	0.232150
Cu27	Cu	2.554178	0.659188	0.565483
O28	O	1.875165	0.127654	0.085567
O29	O	2.208498	0.460987	0.418900
O30	O	2.541831	0.794321	0.752233
C31	C	1.595443	0.019945	0.000006
C32	C	1.928777	0.353278	0.333339
C33	C	2.262110	0.686612	0.666673
C34	C	1.418095	0.030686	0.000004
C35	C	1.751429	0.364020	0.333337
C36	C	2.084762	0.697353	0.666671
C37	C	1.898652	-0.176870	0.000019
C38	C	2.231985	0.156464	0.333352
C39	C	2.565319	0.489797	0.666686
C40	C	1.895194	-0.279002	0.000019
C41	C	2.228528	0.054332	0.333353
C42	C	2.561861	0.387665	0.666686
C43	C	1.892385	-0.361944	0.000017
C44	C	2.225718	-0.028611	0.333350
C45	C	2.559052	0.304723	0.666684
C46	C	1.888874	-0.466001	0.000009
C47	C	2.222208	-0.132668	0.333343
C48	C	2.555541	0.200666	0.666676
C49	C	1.886088	-0.548940	0.000002
C50	C	2.219422	-0.215607	0.333336
C51	C	2.552755	0.117727	0.666669
C52	C	1.882578	-0.653003	-0.000003
C53	C	2.215911	-0.319670	0.333330
C54	C	2.549245	0.013663	0.666663
C55	C	2.179543	-0.034889	0.000010
C56	C	2.512876	0.298444	0.333344
C57	C	2.846210	0.631778	0.666677
C58	C	2.356891	-0.045630	0.000005
C59	C	2.690224	0.287703	0.333339
C60	C	3.023558	0.621036	0.666672
C61	C	1.876334	0.161925	-0.000003
C62	C	2.209668	0.495259	0.333331
C63	C	2.543001	0.828592	0.666664
C64	C	1.879792	0.264057	-0.000010
C65	C	2.213125	0.597391	0.333323
C66	C	2.546459	0.930724	0.666657
N67	N	1.887460	-0.007459	0.243549
N68	N	2.220793	0.325875	0.576882
N69	N	2.554127	0.659208	0.910216
N70	N	1.887539	-0.007494	-0.243531
N71	N	2.220872	0.325840	0.089803
N72	N	2.554206	0.659173	0.423136
C73	C	1.887467	-0.007457	0.336655
C74	C	2.220801	0.325876	0.669988
C75	C	2.554134	0.659210	1.003322
C76	C	1.887482	-0.007464	0.453460
C77	C	2.220815	0.325869	0.786793
C78	C	2.554148	0.659203	1.120127
C79	C	1.887502	-0.007476	0.546558
C80	C	2.220835	0.325858	0.879892
C81	C	2.554169	0.659191	1.213225
C82	C	1.887519	-0.007482	0.663371
C83	C	2.220852	0.325851	0.996704
C84	C	2.554186	0.659185	1.330038
H85	H	2.440177	-0.119191	0.000008
H86	H	2.773510	0.214142	0.333341
H87	H	3.106844	0.547476	0.666674
H88	H	2.334818	0.104242	-0.000009
H89	H	2.668152	0.437575	0.333324
H90	H	3.001485	0.770909	0.666658
