data_functionalizedCrystal
_audit_creation_method	'MofGen! by Chris Wilmer'
_symmetry_space_group_name_H-M	'P1'
_symmetry_Int_Tables_number	1
_symmetry_cell_setting	triclinic
loop_
_symmetry_equiv_pos_as_xyz
  x,y,z
_cell_length_a	13.897449
_cell_length_b	13.897447
_cell_length_c	17.640968
_cell_angle_alpha	101.230028
_cell_angle_beta	101.223365
_cell_angle_gamma	90.020810
loop_
_atom_site_label
_atom_site_type_symbol
_atom_site_fract_x
_atom_site_fract_y
_atom_site_fract_z
Zn1	Zn	1.584954	-0.273705	0.446936
Zn2	Zn	1.552233	-0.467631	0.314758
Zn3	Zn	1.391036	-0.306352	0.314769
Zn4	Zn	1.423611	-0.434971	0.446901
O5	O	1.487959	-0.370665	0.380841
O6	O	1.715598	-0.299434	0.429412
O7	O	1.503523	-0.473568	0.204144
O8	O	1.416821	-0.167035	0.332320
O9	O	1.691558	-0.441911	0.332301
O10	O	1.559291	-0.143049	0.429423
O11	O	1.385093	-0.355078	0.204152
O12	O	1.260373	-0.323409	0.332286
O13	O	1.472340	-0.386248	0.557520
O14	O	1.284306	-0.417905	0.429363
O15	O	1.590878	-0.267766	0.557546
O16	O	1.535110	-0.598285	0.332268
O17	O	1.440612	-0.574290	0.429353
C18	C	1.487876	-0.621284	0.380822
C19	C	1.487935	-0.728493	0.380841
C20	C	1.237340	-0.370656	0.380823
C21	C	1.130129	-0.370671	0.380834
C22	C	1.487986	-0.815558	0.380859
C23	C	1.488059	-0.924786	0.380879
C24	C	0.933839	-0.370670	0.380854
C25	C	1.043068	-0.370668	0.380841
C26	C	1.739556	-0.370674	0.380859
C27	C	1.846772	-0.370678	0.380867
C28	C	1.538893	-0.319722	0.587016
C29	C	1.560598	-0.298013	0.674876
C30	C	1.488072	-0.119063	0.380876
C31	C	1.488121	-0.011845	0.380892
C32	C	1.437278	-0.421340	0.175467
C33	C	1.415760	-0.442777	0.087608
C34	C	1.323438	-0.535060	0.963769
C35	C	1.343853	-0.514649	1.046326
C36	C	1.467276	-0.391284	1.046342
C37	C	1.446868	-0.411681	0.963783
C38	C	1.374948	-0.483571	0.922503
C39	C	1.498378	-0.360193	0.922517
C40	C	1.477975	-0.380592	0.839965
C41	C	1.406061	-0.452481	0.798679
C42	C	1.354545	-0.503971	0.839951
C43	C	1.570303	-0.288308	0.963799
C44	C	1.621813	-0.236819	0.922533
C45	C	1.601405	-0.257214	0.839980
C46	C	1.529491	-0.329102	0.798694
C47	C	1.652921	-0.205724	0.798708
C48	C	1.632517	-0.226123	0.716156
C49	C	1.509087	-0.349502	0.716142
H50	H	1.450500	-0.408018	0.682529
C51	C	1.636913	-0.338014	1.071766
C52	C	1.546327	-0.312263	1.091722
H53	H	1.685715	-0.289229	1.099784
H54	H	1.632127	-0.342788	1.016701
H55	H	1.654340	-0.399484	1.085291
H56	H	1.528897	-0.250797	1.078192
H57	H	1.551113	-0.307478	1.146799
C58	C	1.689334	-0.053034	0.891567
C59	C	1.731976	-0.126708	0.844089
H60	H	1.738141	-0.004252	0.919578
H61	H	1.661585	-0.080783	0.927955
H62	H	1.639365	-0.024093	0.859363
H63	H	1.781940	-0.155654	0.876294
H64	H	1.759740	-0.098956	0.807697
H65	H	1.389453	-0.469092	0.731460
C66	C	1.234611	-0.623916	0.848218
C67	C	1.275511	-0.583017	0.794567
H68	H	1.185834	-0.672724	0.820198
H69	H	1.205664	-0.573942	0.880408
H70	H	1.284597	-0.652833	0.880426
H71	H	1.225526	-0.554093	0.762363
H72	H	1.304458	-0.632999	0.762364
H73	H	1.264851	-0.593577	0.930156
H74	H	1.301902	-0.556583	1.079922
H75	H	1.586915	-0.271704	1.031018
C76	C	1.658211	-0.084126	1.015385
C77	C	1.700862	-0.157797	0.967912
H78	H	1.707012	-0.035337	1.043395
H79	H	1.630465	-0.111874	1.051775
H80	H	1.608239	-0.055192	0.983178
H81	H	1.750830	-0.186736	1.000121
H82	H	1.728624	-0.130045	0.931519
C83	C	1.756561	-0.102111	0.724456
C84	C	1.689132	-0.169523	0.670790
H85	H	1.791509	-0.067166	0.696447
H86	H	1.801399	-0.136180	0.756647
H87	H	1.722498	-0.057257	0.756661
H88	H	1.723195	-0.214382	0.638589
H89	H	1.644288	-0.135451	0.638586
