data_functionalizedCrystal
_audit_creation_method	'MofGen! by Chris Wilmer'
_symmetry_space_group_name_H-M	'P1'
_symmetry_Int_Tables_number	1
_symmetry_cell_setting	triclinic
loop_
_symmetry_equiv_pos_as_xyz
  x,y,z
_cell_length_a	18.101395
_cell_length_b	11.169417
_cell_length_c	18.101389
_cell_angle_alpha	90.017514
_cell_angle_beta	89.983159
_cell_angle_gamma	89.969958
loop_
_atom_site_label
_atom_site_type_symbol
_atom_site_fract_x
_atom_site_fract_y
_atom_site_fract_z
Zn1	Zn	-0.294928	-1.834740	-0.418712
Zn2	Zn	-0.418754	-1.834571	-0.294874
Zn3	Zn	-0.294929	-1.634040	-0.294888
Zn4	Zn	-0.418730	-1.633960	-0.418677
O5	O	-0.356835	-1.734328	-0.356788
O6	O	-0.311364	-2.002667	-0.402294
O7	O	-0.402338	-1.807933	-0.191243
O8	O	-0.191296	-1.660767	-0.311334
O9	O	-0.402338	-2.002543	-0.311310
O10	O	-0.191295	-1.808220	-0.402307
O11	O	-0.311364	-1.660604	-0.191253
O12	O	-0.311341	-1.466080	-0.311300
O13	O	-0.402298	-1.660631	-0.522315
O14	O	-0.402298	-1.466021	-0.402248
O15	O	-0.311341	-1.808143	-0.522341
O16	O	-0.522384	-1.807855	-0.311276
O17	O	-0.522366	-1.660468	-0.402234
C18	C	-0.356817	-1.422503	-0.356772
C19	C	-0.356828	-1.289103	-0.356783
C20	C	-0.549246	-1.734167	-0.356766
C21	C	-0.631560	-1.734208	-0.356782
C22	C	-0.930651	-1.734472	-0.356822
C23	C	-0.899345	-1.641954	-0.414192
C24	C	-0.813728	-1.641515	-0.414012
C25	C	-0.782268	-1.734341	-0.356802
C26	C	-0.813405	-1.700099	-0.278753
C27	C	-0.899050	-1.699502	-0.279097
C28	C	-0.899000	-1.861434	-0.376813
C29	C	-0.813349	-1.860687	-0.378525
C30	C	-0.698409	-1.734269	-0.356787
C31	C	-1.014510	-1.734541	-0.356832
C32	C	-0.163673	-1.734522	-0.356826
C33	C	-0.081359	-1.734604	-0.356842
C34	C	-0.356816	-1.734397	-0.549950
C35	C	-0.356809	-1.734427	-0.632264
C36	C	-0.356847	-1.047370	-0.356798
C37	C	-0.356837	-1.180770	-0.356788
C38	C	-0.356670	-1.734497	-0.931355
C39	C	-0.413715	-1.641367	-0.900014
C40	C	-0.413980	-1.641618	-0.814396
C41	C	-0.356739	-1.734461	-0.782973
C42	C	-0.377924	-1.860910	-0.814070
C43	C	-0.378299	-1.860392	-0.899715
C44	C	-0.278312	-1.702276	-0.899780
C45	C	-0.278764	-1.699463	-0.814129
C46	C	-0.356776	-1.734448	-0.699113
C47	C	-0.356634	-1.734518	-1.015215
C48	C	-0.356800	-1.734328	-0.164377
C49	C	-0.356600	-1.734531	-0.082064
H50	H	-0.792674	-1.662938	-0.471885
H51	H	-0.793301	-1.547407	-0.400770
H52	H	-0.337680	-1.932163	-0.793717
C53	C	-0.927040	-1.786557	-0.219372
C54	C	-0.906248	-1.766354	-0.137831
C55	C	-0.934237	-1.853393	-0.078102
C56	C	-0.983017	-1.960635	-0.099914
C57	C	-1.003812	-1.980843	-0.181459
C58	C	-0.975823	-1.893803	-0.241188
H59	H	-0.870135	-1.686963	-0.121681
H60	H	-0.918843	-1.838434	-0.017736
H61	H	-1.003736	-2.025067	-0.055698
H62	H	-1.039925	-2.060234	-0.197609
H63	H	-0.991217	-1.908763	-0.301553
H64	H	-0.792016	-1.608273	-0.261515
H65	H	-0.259010	-1.611672	-0.921372
H66	H	-0.234006	-1.762345	-0.792739
H67	H	-0.792997	-1.886510	-0.435965
C68	C	-0.257168	-1.573757	-0.786669
C69	C	-0.242202	-1.472822	-0.842631
C70	C	-0.220606	-1.347118	-0.815165
C71	C	-0.213976	-1.322348	-0.731738
C72	C	-0.228943	-1.423286	-0.675771
C73	C	-0.250539	-1.548990	-0.703236
H74	H	-0.247109	-1.491156	-0.904394
H75	H	-0.209526	-1.272397	-0.856597
H76	H	-0.197989	-1.229294	-0.711407
H77	H	-0.224035	-1.404952	-0.614008
H78	H	-0.261618	-1.623710	-0.661805
H79	H	-0.793027	-1.765364	-0.234843
C80	C	-0.454486	-1.898454	-0.785111
C81	C	-0.497848	-1.814605	-0.733289
C82	C	-0.574412	-1.852141	-0.704332
C83	C	-0.607615	-1.973525	-0.727198
C84	C	-0.564254	-2.057382	-0.779024
C85	C	-0.487689	-2.019846	-0.807980
H86	H	-0.473269	-1.724742	-0.716359
H87	H	-0.606511	-1.790064	-0.665968
H88	H	-0.664293	-2.001311	-0.705763
H89	H	-0.588832	-2.147245	-0.795953
H90	H	-0.455591	-2.081923	-0.846345
C91	C	-0.928118	-1.903614	-0.452390
C92	C	-0.981019	-1.823301	-0.496921
C93	C	-1.010138	-1.865465	-0.572500
C94	C	-0.986357	-1.987943	-0.603549
C95	C	-0.933454	-2.068264	-0.559018
C96	C	-0.904334	-2.026099	-0.483438
H97	H	-0.998625	-1.732629	-0.473937
H98	H	-1.049301	-1.806006	-0.605464
H99	H	-1.007913	-2.019156	-0.659497
H100	H	-0.915847	-2.158936	-0.582001
H101	H	-0.865171	-2.085559	-0.450474
C102	C	-0.784474	-1.958725	-0.326149
C103	C	-0.731930	-1.925624	-0.262454
C104	C	-0.703083	-2.023651	-0.210050
C105	C	-0.726781	-2.154778	-0.221341
C106	C	-0.779328	-2.187885	-0.285038
C107	C	-0.808175	-2.089858	-0.337442
H108	H	-0.714385	-1.828551	-0.254094
H109	H	-0.664184	-1.999142	-0.162898
H110	H	-0.705427	-2.227343	-0.182548
H111	H	-0.796873	-2.284958	-0.293398
H112	H	-0.847074	-2.114367	-0.384594
C113	C	-0.926346	-1.954561	-0.320371
C114	C	-0.907427	-1.939962	-0.237923
C115	C	-0.934777	-2.033078	-0.181478
C116	C	-0.981045	-2.140791	-0.207482
C117	C	-0.999967	-2.155394	-0.289933
C118	C	-0.972617	-2.062279	-0.346378
H119	H	-0.873174	-1.860222	-0.218670
H120	H	-0.920770	-2.022267	-0.120442
H121	H	-1.001291	-2.209721	-0.165698
H122	H	-1.034220	-2.235134	-0.309186
H123	H	-0.986624	-2.073089	-0.407414
H124	H	-0.400722	-1.547851	-0.793370
C125	C	-0.395992	-1.514304	-0.927826
C126	C	-0.329504	-1.493548	-0.979338
C127	C	-0.311780	-1.366482	-1.007157
C128	C	-0.360544	-1.260172	-0.983464
C129	C	-0.427035	-1.280925	-0.931949
C130	C	-0.444759	-1.407991	-0.904130
H131	H	-0.293403	-1.572248	-0.996879
H132	H	-0.262559	-1.351120	-1.045291
H133	H	-0.347423	-1.166110	-1.004057
H134	H	-0.463136	-1.202226	-0.914407
H135	H	-0.493981	-1.423353	-0.865995
H136	H	-0.471442	-1.662427	-0.921539
C137	C	-0.492449	-1.670496	-0.786793
C138	C	-0.529180	-1.790000	-0.807967
C139	C	-0.607660	-1.818923	-0.780402
C140	C	-0.649409	-1.728342	-0.731662
C141	C	-0.612680	-1.608830	-0.710485
C142	C	-0.534200	-1.579907	-0.738051
H143	H	-0.498274	-1.857061	-0.844050
H144	H	-0.634849	-1.907394	-0.796078
H145	H	-0.707505	-1.749752	-0.711256
H146	H	-0.643585	-1.541769	-0.674403
H147	H	-0.507010	-1.491436	-0.722374
H148	H	-0.435579	-1.887706	-0.919698
H149	H	-0.338553	-1.932132	-0.920449
H150	H	-0.235810	-1.770108	-0.920049
H151	H	-0.920929	-1.548419	-0.401116
C152	C	-0.927122	-1.670603	-0.492628
C153	C	-0.973019	-1.577520	-0.535429
C154	C	-1.000802	-1.606175	-0.613867
C155	C	-0.982688	-1.727912	-0.649504
C156	C	-0.936788	-1.821003	-0.606703
C157	C	-0.909005	-1.792349	-0.528265
H158	H	-0.986430	-1.487396	-0.509049
H159	H	-1.034780	-1.537262	-0.645551
H160	H	-1.003254	-1.749124	-0.707569
H161	H	-0.923377	-1.911127	-0.633083
H162	H	-0.875027	-1.861261	-0.496581
H163	H	-0.919089	-1.606693	-0.262162
