data_functionalizedCrystal
_audit_creation_method	'MofGen! by Chris Wilmer'
_symmetry_space_group_name_H-M	'P1'
_symmetry_Int_Tables_number	1
_symmetry_cell_setting	triclinic
loop_
_symmetry_equiv_pos_as_xyz
  x,y,z
_cell_length_a	6.817900
_cell_length_b	16.417823
_cell_length_c	12.000055
_cell_angle_alpha	91.596198
_cell_angle_beta	119.142236
_cell_angle_gamma	103.385419
loop_
_atom_site_label
_atom_site_type_symbol
_atom_site_fract_x
_atom_site_fract_y
_atom_site_fract_z
V1	V	-4.222686	-0.119068	-0.399023
O2	O	-4.206742	0.002450	-0.390972
O3	O	-4.172601	-0.232945	-0.396732
O4	O	-4.259854	-0.118672	-0.572851
O5	O	-4.118885	-0.112614	-0.213634
V6	V	-4.695444	-0.104363	-0.376796
O7	O	-4.507557	-0.151324	-0.447780
O8	O	-4.860771	-0.072108	-0.328039
O9	O	-4.522323	0.009514	-0.379087
O10	O	-4.828785	-0.225881	-0.384847
O11	O	-4.916642	-0.110817	-0.562186
O12	O	-4.435070	-0.104759	-0.202968
C13	C	-4.014423	-0.260661	-0.390550
C14	C	-4.055330	-0.353766	-0.389835
C15	C	-4.125721	-0.114893	-0.615206
C16	C	-4.237383	-0.115323	-0.757315
C17	C	-4.090164	-0.642579	-0.270471
C18	C	-4.051690	-0.555094	-0.271122
C19	C	-4.247346	-0.580864	-0.505362
C20	C	-4.285804	-0.668347	-0.504709
C21	C	-4.207219	-0.699202	-0.387260
C22	C	-4.130287	-0.524235	-0.388564
C23	C	-4.088573	-0.429380	-0.389271
C24	C	-4.248931	-0.794063	-0.386553
C25	C	-4.111060	-0.111493	-0.814470
C26	C	-4.226464	-0.111937	-0.961346
C27	C	-4.343841	0.037225	-0.385266
C28	C	-4.282176	0.130329	-0.385989
C29	C	-4.232541	-0.108541	-0.160606
C30	C	-4.100118	-0.108106	-0.018497
H31	H	-4.026165	-0.667698	-0.174837
F32	F	-4.490420	-0.120046	-0.835478
H33	H	-3.956371	-0.508995	-0.176021
F34	F	-4.479510	-0.116660	-1.039505
H35	H	-4.311326	-0.555731	-0.600984
H36	H	-4.381120	-0.714452	-0.599818
F37	F	-3.858031	-0.106784	-0.736309
F38	F	-3.847078	-0.103395	-0.940343
