data_functionalizedCrystal
_audit_creation_method	'MofGen! by Chris Wilmer'
_symmetry_space_group_name_H-M	'P1'
_symmetry_Int_Tables_number	1
_symmetry_cell_setting	triclinic
loop_
_symmetry_equiv_pos_as_xyz
  x,y,z
_cell_length_a	14.044220
_cell_length_b	13.101039
_cell_length_c	16.109304
_cell_angle_alpha	86.635836
_cell_angle_beta	88.325758
_cell_angle_gamma	93.659868
loop_
_atom_site_label
_atom_site_type_symbol
_atom_site_fract_x
_atom_site_fract_y
_atom_site_fract_z
O1	O	1.262855	0.085094	0.196241
O2	O	1.762855	0.585094	0.696241
O3	O	0.986890	0.085120	0.189007
O4	O	1.486890	0.585120	0.689007
O5	O	1.132452	0.085107	0.072157
O6	O	1.632452	0.585107	0.572157
O7	O	1.117293	0.085107	0.313091
O8	O	1.617293	0.585107	0.813091
O9	O	1.122008	-0.085322	0.080556
O10	O	1.622008	0.414678	0.580556
O11	O	0.976446	-0.085309	0.197406
O12	O	1.476446	0.414691	0.697406
O13	O	1.252411	-0.085335	0.204640
O14	O	1.752411	0.414665	0.704640
Zn15	Zn	1.112770	-0.112381	0.202356
Zn16	Zn	1.612770	0.387619	0.702356
Zn17	Zn	1.126531	0.112166	0.191290
Zn18	Zn	1.626531	0.612166	0.691290
O19	O	1.106849	-0.085322	0.321490
O20	O	1.606849	0.414678	0.821490
C21	C	0.946355	-0.000091	0.190040
C22	C	1.446355	0.499909	0.690040
C23	C	0.841132	-0.000081	0.180596
C24	C	1.341132	0.499919	0.680596
N25	N	1.103386	-0.265629	0.209908
N26	N	1.603386	0.234371	0.709908
C27	C	0.648475	-0.000101	0.163331
C28	C	1.148475	0.499899	0.663331
C29	C	0.590821	-0.000105	0.230311
C30	C	1.090821	0.499895	0.730311
C31	C	0.483620	-0.000117	0.220705
C32	C	0.983620	0.499883	0.720705
C33	C	0.755686	-0.000090	0.172936
C34	C	1.255686	0.499910	0.672936
C35	C	1.090619	-0.474671	0.220191
C36	C	1.590619	0.025329	0.720191
C37	C	1.148687	-0.525552	0.173452
C38	C	1.648687	-0.025552	0.673452
C39	C	1.141583	-0.641869	0.179173
C40	C	1.641583	-0.141869	0.679173
C41	C	1.097722	-0.358342	0.214471
C42	C	1.597722	0.141658	0.714471
C43	C	1.292947	-0.000122	0.203606
C44	C	1.792947	0.499878	0.703606
C45	C	1.398170	-0.000126	0.213050
C46	C	1.898170	0.499874	0.713050
C47	C	1.126616	-0.000106	0.045336
C48	C	1.626616	0.499894	0.545336
C49	C	1.124774	-0.000098	-0.047097
C50	C	1.624774	0.499902	0.452903
N51	N	1.135922	0.265414	0.183732
N52	N	1.635922	0.765414	0.683732
C53	C	1.126210	0.092799	-0.264329
C54	C	1.626210	0.592799	0.235671
C55	C	1.124470	0.092798	-0.351179
C56	C	1.624470	0.592798	0.148821
C57	C	1.113088	-0.093013	-0.342018
C58	C	1.613088	0.406987	0.157982
C59	C	1.114822	-0.093011	-0.255170
C60	C	1.614822	0.406989	0.244830
C61	C	1.121387	-0.000102	-0.216328
C62	C	1.621387	0.499898	0.283672
C63	C	1.117914	-0.000105	-0.390026
C64	C	1.617914	0.499895	0.109974
C65	C	1.116028	-0.000106	-0.484192
C66	C	1.616028	0.499894	0.015808
C67	C	1.123272	-0.000100	-0.122156
C68	C	1.623272	0.499900	0.377844
C69	C	1.112685	-0.000108	0.348311
C70	C	1.612685	0.499892	0.848311
C71	C	1.114528	-0.000108	0.440743
C72	C	1.614528	0.499892	0.940743
H73	H	0.621974	-0.000100	0.294868
H74	H	1.121974	0.499900	0.794868
H75	H	1.128395	0.168448	-0.390258
H76	H	1.628395	0.668448	0.109742
H77	H	0.617324	-0.000107	0.098779
H78	H	1.117324	0.499893	0.598779
H79	H	1.035574	-0.518463	0.264501
H80	H	1.535574	-0.018463	0.764501
F81	F	1.133194	0.191681	-0.222993
F82	F	1.633194	0.691681	0.277007
F83	F	1.106101	-0.191887	-0.383364
F84	F	1.606101	0.308113	0.116636
H85	H	1.110889	-0.168667	-0.216086
H86	H	1.610889	0.331333	0.283914
H87	H	1.203736	-0.481754	0.129140
H88	H	1.703736	0.018246	0.629140
