data_functionalizedCrystal
_audit_creation_method	'MofGen! by Chris Wilmer'
_symmetry_space_group_name_H-M	'P1'
_symmetry_Int_Tables_number	1
_symmetry_cell_setting	triclinic
loop_
_symmetry_equiv_pos_as_xyz
  x,y,z
_cell_length_a	11.169417
_cell_length_b	16.120484
_cell_length_c	16.120297
_cell_angle_alpha	84.385569
_cell_angle_beta	87.118439
_cell_angle_gamma	92.926269
loop_
_atom_site_label
_atom_site_type_symbol
_atom_site_fract_x
_atom_site_fract_y
_atom_site_fract_z
Zn1	Zn	1.773031	-0.356726	0.489383
Zn2	Zn	2.023031	-0.106726	0.739383
Zn3	Zn	2.273031	0.143274	0.989383
Zn4	Zn	2.523031	0.393274	1.239383
Zn5	Zn	1.772879	-0.489415	0.356693
Zn6	Zn	2.022879	-0.239415	0.606693
Zn7	Zn	2.272879	0.010585	0.856693
Zn8	Zn	2.522879	0.260585	1.106693
Zn9	Zn	1.583045	-0.349664	0.349636
Zn10	Zn	1.833045	-0.099664	0.599636
Zn11	Zn	2.083045	0.150336	0.849636
Zn12	Zn	2.333045	0.400336	1.099636
Zn13	Zn	1.561557	-0.496459	0.496424
Zn14	Zn	1.811557	-0.246459	0.746424
Zn15	Zn	2.061557	0.003541	0.996424
Zn16	Zn	2.311557	0.253541	1.246424
O17	O	1.672628	-0.423066	0.423034
O18	O	1.922628	-0.173066	0.673034
O19	O	2.172628	0.076934	0.923034
O20	O	2.422628	0.326934	1.173034
O21	O	1.940959	-0.374335	0.471788
O22	O	2.190959	-0.124335	0.721788
O23	O	2.440959	0.125665	0.971788
O24	O	2.690959	0.375665	1.221788
O25	O	1.756627	-0.464974	0.238795
O26	O	2.006627	-0.214974	0.488795
O27	O	2.256627	0.035026	0.738795
O28	O	2.506627	0.285026	0.988795
O29	O	1.617304	-0.233635	0.362274
O30	O	1.867304	0.016365	0.612274
O31	O	2.117304	0.266365	0.862274
O32	O	2.367304	0.516365	1.112274
O33	O	1.940848	-0.471821	0.374301
O34	O	2.190848	-0.221821	0.624301
O35	O	2.440848	0.028179	0.874301
O36	O	2.690848	0.278179	1.124301
O37	O	1.756885	-0.238823	0.464945
O38	O	2.006885	0.011177	0.714945
O39	O	2.256885	0.261177	0.964945
O40	O	2.506885	0.511177	1.214945
O41	O	1.617157	-0.362299	0.233610
O42	O	1.867157	-0.112299	0.483610
O43	O	2.117157	0.137701	0.733610
O44	O	2.367157	0.387701	0.983610
O45	O	1.412246	-0.369129	0.369102
O46	O	1.662246	-0.119129	0.619102
O47	O	1.912246	0.130871	0.869102
O48	O	2.162246	0.380871	1.119102
O49	O	1.580679	-0.483826	0.612452
O50	O	1.830679	-0.233826	0.862452
O51	O	2.080679	0.016174	1.112452
O52	O	2.330679	0.266174	1.362452
O53	O	1.396459	-0.476979	0.476946
O54	O	1.646459	-0.226979	0.726946
O55	O	1.896459	0.023021	0.976946
O56	O	2.146459	0.273021	1.226946
O57	O	1.736048	-0.381165	0.607279
O58	O	1.986048	-0.131165	0.857279
O59	O	2.236048	0.118835	1.107279
O60	O	2.486048	0.368835	1.357279
O61	O	1.735791	-0.607315	0.381129
O62	O	1.985791	-0.357315	0.631129
O63	O	2.235791	-0.107315	0.881129
O64	O	2.485791	0.142685	1.131129
O65	O	1.580533	-0.612490	0.483789
O66	O	1.830533	-0.362490	0.733789
O67	O	2.080533	-0.112490	0.983789
O68	O	2.330533	0.137510	1.233789
C69	C	1.360805	-0.423053	0.423023
C70	C	1.610805	-0.173053	0.673023
C71	C	1.860805	0.076947	0.923023
C72	C	2.110805	0.326947	1.173023
C73	C	1.227403	-0.423068	0.423039
C74	C	1.477403	-0.173068	0.673039
C75	C	1.727403	0.076932	0.923039
C76	C	1.977403	0.326932	1.173039
C77	C	1.655845	-0.640231	0.434007
C78	C	1.905845	-0.390231	0.684007
C79	C	2.155845	-0.140231	0.934007
C80	C	2.405845	0.109769	1.184007
C81	C	1.648772	-0.733137	0.438729
C82	C	1.898772	-0.483137	0.688729
C83	C	2.148772	-0.233137	0.938729
C84	C	2.398772	0.016863	1.188729
C85	C	1.635866	-0.903237	0.447368
C86	C	1.885866	-0.653237	0.697368
C87	C	2.135866	-0.403237	0.947368
C88	C	2.385866	-0.153237	1.197368
C89	C	1.709604	-0.942055	0.398714
C90	C	1.959604	-0.692055	0.648714
C91	C	2.209604	-0.442055	0.898714
C92	C	2.459604	-0.192055	1.148714
C93	C	1.702423	-1.036705	0.403521
C94	C	1.952423	-0.786705	0.653521
C95	C	2.202423	-0.536705	0.903521
C96	C	2.452423	-0.286705	1.153521
C97	C	1.643045	-0.808579	0.442562
C98	C	1.893045	-0.558579	0.692562
C99	C	2.143045	-0.308579	0.942562
C100	C	2.393045	-0.058579	1.192562
C101	C	1.985668	-0.423080	0.423046
C102	C	2.235668	-0.173080	0.673046
C103	C	2.485668	0.076920	0.923046
C104	C	2.735668	0.326920	1.173046
C105	C	2.119068	-0.423086	0.423051
C106	C	2.369068	-0.173086	0.673051
C107	C	2.619068	0.076914	0.923051
C108	C	2.869068	0.326914	1.173051
C109	C	1.655984	-0.434069	0.641041
C110	C	1.905984	-0.184069	0.891041
C111	C	2.155984	0.065931	1.141041
C112	C	2.405984	0.315931	1.391041
C113	C	1.648891	-0.438758	0.733942
C114	C	1.898891	-0.188758	0.983942
C115	C	2.148891	0.061242	1.233942
C116	C	2.398891	0.311242	1.483942
C117	C	1.689508	-0.205054	0.412037
C118	C	1.939508	0.044946	0.662037
C119	C	2.189508	0.294946	0.912037
C120	C	2.439508	0.544946	1.162037
C121	C	1.696702	-0.112150	0.407350
C122	C	1.946702	0.137850	0.657350
C123	C	2.196702	0.387850	0.907350
C124	C	2.446702	0.637850	1.157350
C125	C	1.689281	-0.412046	0.205873
C126	C	1.939281	-0.162046	0.455873
C127	C	2.189281	0.087954	0.705873
C128	C	2.439281	0.337954	0.955873
C129	C	1.696625	-0.407121	0.112960
C130	C	1.946625	-0.157121	0.362960
C131	C	2.196625	0.092879	0.612960
C132	C	2.446625	0.342879	0.862960
C133	C	1.635899	-0.447300	0.904033
C134	C	1.885899	-0.197300	1.154033
C135	C	2.135899	0.052700	1.404033
C136	C	2.385899	0.302700	1.654033
C137	C	1.709613	-0.398582	0.942875
C138	C	1.959613	-0.148582	1.192875
C139	C	2.209613	0.101418	1.442875
C140	C	2.459613	0.351418	1.692875
C141	C	1.702384	-0.403335	1.037519
C142	C	1.952384	-0.153335	1.287519
C143	C	2.202384	0.096665	1.537519
C144	C	2.452384	0.346665	1.787519
C145	C	1.643126	-0.442548	0.809380
C146	C	1.893126	-0.192548	1.059380
C147	C	2.143126	0.057452	1.309380
C148	C	2.393126	0.307452	1.559380
H149	H	1.778126	-0.904204	0.353450
H150	H	2.028126	-0.654204	0.603450
H151	H	2.278126	-0.404204	0.853450
H152	H	2.528126	-0.154204	1.103450
Cl153	Cl	1.530074	-0.961673	0.517245
Cl154	Cl	1.780074	-0.711673	0.767245
Cl155	Cl	2.030074	-0.461673	1.017245
Cl156	Cl	2.280074	-0.211673	1.267245
H157	H	1.778150	-0.353303	0.905048
H158	H	2.028150	-0.103303	1.155048
H159	H	2.278150	0.146697	1.405048
H160	H	2.528150	0.396697	1.655048
Cl161	Cl	1.530092	-0.517206	0.962431
Cl162	Cl	1.780092	-0.267206	1.212431
Cl163	Cl	2.030092	-0.017206	1.462431
Cl164	Cl	2.280092	0.232794	1.712431
