data_functionalizedCrystal
_audit_creation_method	'MofGen! by Chris Wilmer'
_symmetry_space_group_name_H-M	'P1'
_symmetry_Int_Tables_number	1
_symmetry_cell_setting	triclinic
loop_
_symmetry_equiv_pos_as_xyz
  x,y,z
_cell_length_a	21.295417
_cell_length_b	21.295419
_cell_length_c	18.101389
_cell_angle_alpha	90.019749
_cell_angle_beta	89.977434
_cell_angle_gamma	89.952934
loop_
_atom_site_label
_atom_site_type_symbol
_atom_site_fract_x
_atom_site_fract_y
_atom_site_fract_z
Zn1	Zn	-0.250397	-0.962321	-0.418727
Zn2	Zn	0.249603	-0.462321	0.081273
Zn3	Zn	-0.355651	-0.962234	-0.294877
Zn4	Zn	0.144349	-0.462234	0.205123
Zn5	Zn	-0.250430	-0.857055	-0.294898
Zn6	Zn	0.249570	-0.357055	0.205102
Zn7	Zn	-0.355663	-0.857014	-0.418675
Zn8	Zn	0.144337	-0.357014	0.081325
O9	O	-0.303035	-0.909656	-0.356794
O10	O	0.196965	-0.409656	0.143206
O11	O	-0.264340	-1.050399	-0.402311
O12	O	0.235660	-0.550399	0.097689
O13	O	-0.341701	-0.948262	-0.191246
O14	O	0.158299	-0.448262	0.308754
O15	O	-0.162336	-0.871072	-0.311355
O16	O	0.337664	-0.371072	0.188645
O17	O	-0.341670	-1.050335	-0.311318
O18	O	0.158330	-0.550335	0.188682
O19	O	-0.162312	-0.948411	-0.402332
O20	O	0.337688	-0.448411	0.097668
O21	O	-0.264396	-0.870987	-0.191262
O22	O	0.235604	-0.370987	0.308738
O23	O	-0.264408	-0.768960	-0.311305
O24	O	0.235592	-0.268960	0.188695
O25	O	-0.341691	-0.871003	-0.522315
O26	O	0.158309	-0.371003	-0.022315
O27	O	-0.341722	-0.768930	-0.402243
O28	O	0.158278	-0.268930	0.097757
O29	O	-0.264352	-0.948371	-0.522353
O30	O	0.235648	-0.448371	-0.022353
O31	O	-0.443742	-0.948222	-0.311268
O32	O	0.056258	-0.448222	0.188732
O33	O	-0.443751	-0.870918	-0.402222
O34	O	0.056249	-0.370918	0.097778
C35	C	-0.303070	-0.746104	-0.356771
C36	C	0.196930	-0.246104	0.143229
C37	C	-0.303101	-0.676136	-0.356779
C38	C	0.196899	-0.176136	0.143221
C39	C	-0.262902	-0.643325	-0.404231
C40	C	0.237098	-0.143325	0.095769
C41	C	-0.262887	-0.577583	-0.404233
C42	C	0.237113	-0.077583	0.095767
C43	C	-0.303082	-0.544654	-0.356790
C44	C	0.196918	-0.044654	0.143210
C45	C	-0.343283	-0.577472	-0.309328
C46	C	0.156717	-0.077472	0.190672
C47	C	-0.343293	-0.643213	-0.309323
C48	C	0.156707	-0.143213	0.190677
N49	N	-0.358162	-0.441379	-0.351001
N50	N	0.141838	0.058621	0.148999
N51	N	-0.358152	-0.378927	-0.351010
N52	N	0.141848	0.121073	0.148990
C53	C	-0.303055	-0.346579	-0.356803
C54	C	0.196945	0.153421	0.143197
N55	N	-0.247969	-0.379041	-0.362601
N56	N	0.252031	0.120959	0.137399
N57	N	-0.247980	-0.441498	-0.362595
N58	N	0.252020	0.058502	0.137405
C59	C	-0.303076	-0.473368	-0.356791
C60	C	0.196924	0.026632	0.143209
C61	C	-0.262837	-0.242483	-0.404260
C62	C	0.237163	0.257517	0.095740
C63	C	-0.262821	-0.176739	-0.404257
C64	C	0.237179	0.323261	0.095743
C65	C	-0.343223	-0.176630	-0.309356
C66	C	0.156777	0.323370	0.190644
C67	C	-0.343234	-0.242372	-0.309356
C68	C	0.156766	0.257628	0.190644
C69	C	-0.303042	-0.275295	-0.356812
C70	C	0.196958	0.224705	0.143188
C71	C	-0.466587	-0.909573	-0.356753
C72	C	0.033413	-0.409573	0.143247
C73	C	-0.536555	-0.909596	-0.356760
C74	C	-0.036555	-0.409596	0.143240
C75	C	-0.569396	-0.949884	-0.309449
C76	C	-0.069396	-0.449884	0.190551
C77	C	-0.635138	-0.949913	-0.309466
C78	C	-0.135138	-0.449913	0.190534
C79	C	-0.668037	-0.909643	-0.356786
C80	C	-0.168037	-0.409643	0.143214
C81	C	-0.635188	-0.869352	-0.404106
C82	C	-0.135188	-0.369352	0.095894
C83	C	-0.569447	-0.869328	-0.404094
C84	C	-0.069447	-0.369328	0.095906
N85	N	-0.771320	-0.854576	-0.362424
N86	N	-0.271320	-0.354576	0.137576
N87	N	-0.833771	-0.854600	-0.362432
N88	N	-0.333771	-0.354600	0.137568
C89	C	-0.866112	-0.909714	-0.356828
C90	C	-0.366112	-0.409714	0.143172
N91	N	-0.833642	-0.964803	-0.351203
N92	N	-0.333642	-0.464803	0.148797
N93	N	-0.771185	-0.964778	-0.351191
N94	N	-0.271185	-0.464778	0.148809
C95	C	-0.739323	-0.909665	-0.356805
C96	C	-0.239323	-0.409665	0.143195
C97	C	-0.970239	-0.950038	-0.309533
C98	C	-0.470239	-0.450038	0.190467
C99	C	-1.035982	-0.950068	-0.309554
C100	C	-0.535982	-0.450068	0.190446
C101	C	-1.036031	-0.869501	-0.404191
C102	C	-0.536031	-0.369501	0.095809
C103	C	-0.970288	-0.869476	-0.404173
C104	C	-0.470288	-0.369476	0.095827
C105	C	-0.937396	-0.909744	-0.356840
C106	C	-0.437396	-0.409744	0.143160
C107	C	-0.138845	-0.909756	-0.356852
C108	C	0.361155	-0.409756	0.143148
C109	C	-0.068877	-0.909798	-0.356876
C110	C	0.431123	-0.409798	0.143124
C111	C	-0.303019	-0.909692	-0.549956
C112	C	0.196981	-0.409692	-0.049956
C113	C	-0.303012	-0.909708	-0.632270
C114	C	0.196988	-0.409708	-0.132270
C115	C	-0.303008	-0.073846	-0.356814
C116	C	0.196992	0.426154	0.143186
C117	C	-0.303016	-0.143814	-0.356813
C118	C	0.196984	0.356186	0.143187
C119	C	-0.302894	-0.909744	-0.931361
C120	C	0.197106	-0.409744	-0.431361
C121	C	-0.351399	-0.860898	-0.900012
C122	C	0.148601	-0.360898	-0.400012
C123	C	-0.351624	-0.861030	-0.814394
C124	C	0.148376	-0.361030	-0.314394
C125	C	-0.302953	-0.909726	-0.782979
C126	C	0.197047	-0.409726	-0.282979
C127	C	-0.320940	-0.976048	-0.814077
C128	C	0.179060	-0.476048	-0.314077
C129	C	-0.321259	-0.975776	-0.899722
C130	C	0.178741	-0.475776	-0.399722
C131	C	-0.236294	-0.892844	-0.899793
C132	C	0.263706	-0.392844	-0.399793
C133	C	-0.236679	-0.891368	-0.814142
C134	C	0.263321	-0.391368	-0.314142
C135	C	-0.302985	-0.909719	-0.699119
C136	C	0.197015	-0.409719	-0.199119
C137	C	-0.302864	-0.909755	-1.015221
C138	C	0.197136	-0.409755	-0.515221
C139	C	-0.303005	-0.909656	-0.164384
C140	C	0.196995	-0.409656	0.335616
C141	C	-0.302835	-0.909762	-0.082070
C142	C	0.197165	-0.409762	0.417930
H143	H	-0.375970	-0.269087	-0.270718
H144	H	0.124030	0.230913	0.229282
C145	C	-0.336463	-0.795171	-0.927566
C146	C	0.163537	-0.295171	-0.427566
C147	C	-0.283409	-0.797355	-0.973208
C148	C	0.216591	-0.297355	-0.473208
C149	C	-0.269635	-0.736819	-0.998616
C150	C	0.230365	-0.236819	-0.498616
H151	H	-0.328390	-0.768438	-0.886645
H152	H	0.171610	-0.268438	-0.386645
H153	H	-0.371183	-0.779361	-0.954777
H154	H	0.128817	-0.279361	-0.454777
H155	H	-0.248697	-0.813156	-0.945998
H156	H	0.251303	-0.313156	-0.445998
H157	H	-0.291468	-0.824076	-1.014139
H158	H	0.208532	-0.324076	-0.514139
H159	H	-0.304355	-0.721009	-1.025827
H160	H	0.195645	-0.221009	-0.525827
H161	H	-0.261565	-0.710091	-0.957691
H162	H	0.238435	-0.210091	-0.457691
H163	H	-0.233641	-0.738294	-1.029592
H164	H	0.266359	-0.238294	-0.529592
H165	H	-0.943547	-0.836667	-0.442696
H166	H	-0.443547	-0.336667	0.057304
C167	C	-0.670846	-0.993717	-0.258206
C168	C	-0.170846	-0.493717	0.241794
C169	C	-0.708521	-1.034070	-0.300171
C170	C	-0.208521	-0.534070	0.199829
C171	C	-0.741419	-1.074428	-0.252972
C172	C	-0.241419	-0.574428	0.247028
H173	H	-0.696580	-0.969715	-0.225916
H174	H	-0.196580	-0.469715	0.274084
H175	H	-0.641867	-1.017732	-0.230019
H176	H	-0.141867	-0.517732	0.269981
H177	H	-0.737496	-1.010057	-0.328345
H178	H	-0.237496	-0.510057	0.171655
H179	H	-0.682803	-1.058086	-0.332459
H180	H	-0.182803	-0.558086	0.167541
H181	H	-0.712440	-1.098443	-0.224785
H182	H	-0.212440	-0.598443	0.275215
H183	H	-0.767149	-1.050420	-0.220684
H184	H	-0.267149	-0.550420	0.279316
H185	H	-0.766980	-1.101816	-0.281438
H186	H	-0.266980	-0.601816	0.218562
H187	H	-0.230083	-0.150025	-0.442897
H188	H	0.269917	0.349975	0.057103
H189	H	-0.400464	-0.871945	-0.921533
H190	H	0.099536	-0.371945	-0.421533
H191	H	-0.375951	-0.149819	-0.270727
H192	H	0.124049	0.350181	0.229273
C193	C	-0.336738	-0.795412	-0.786397
C194	C	0.163262	-0.295412	-0.286397
C195	C	-0.382148	-0.753286	-0.812380
C196	C	0.117852	-0.253286	-0.312380
C197	C	-0.368462	-0.692832	-0.786603
C198	C	0.131538	-0.192832	-0.286603
H199	H	-0.296517	-0.783024	-0.803765
H200	H	0.203483	-0.283024	-0.303765
H201	H	-0.336884	-0.795366	-0.733912
H202	H	0.163116	-0.295366	-0.233912
H203	H	-0.381997	-0.753330	-0.864855
H204	H	0.118003	-0.253330	-0.364855
H205	H	-0.422374	-0.765654	-0.795015
H206	H	0.077626	-0.265654	-0.295015
H207	H	-0.368608	-0.692786	-0.734118
H208	H	0.131392	-0.192786	-0.234118
H209	H	-0.328240	-0.680449	-0.803972
H210	H	0.171760	-0.180449	-0.303972
H211	H	-0.399274	-0.664243	-0.804223
H212	H	0.100726	-0.164243	-0.304223
H213	H	-0.287463	-1.013404	-0.920461
H214	H	0.212537	-0.513404	-0.420461
H215	H	-1.062816	-0.836715	-0.442724
H216	H	-0.562816	-0.336715	0.057276
C217	C	-1.071527	-0.993944	-0.258230
C218	C	-0.571527	-0.493944	0.241770
C219	C	-1.055398	-1.056196	-0.274437
C220	C	-0.555398	-0.556196	0.225563
C221	C	-1.088109	-1.096645	-0.227166
C222	C	-0.588109	-0.596645	0.272834
H223	H	-1.115407	-0.988311	-0.264947
H224	H	-0.615407	-0.488311	0.235053
H225	H	-1.060765	-0.984795	-0.208449
H226	H	-0.560765	-0.484795	0.291551
H227	H	-1.066164	-1.065343	-0.324207
H228	H	-0.566164	-0.565343	0.175793
H229	H	-1.011524	-1.061850	-0.267716
H230	H	-0.511524	-0.561850	0.232284
H231	H	-1.077347	-1.087495	-0.177385
H232	H	-0.577347	-0.587495	0.322615
H233	H	-1.131988	-1.091005	-0.233887
H234	H	-0.631988	-0.591005	0.266113
H235	H	-1.077166	-1.138887	-0.238152
H236	H	-0.577166	-0.638887	0.261848
H237	H	-0.400990	-0.872188	-0.793906
H238	H	0.099010	-0.372188	-0.293906
C239	C	-0.219189	-0.678955	-0.455773
C240	C	0.280811	-0.178955	0.044227
C241	C	-0.183969	-0.636144	-0.497315
C242	C	0.316031	-0.136144	0.002685
C243	C	-0.143686	-0.668945	-0.544793
C244	C	0.356314	-0.168945	-0.044793
H245	H	-0.243239	-0.704595	-0.488052
H246	H	0.256761	-0.204595	0.011948
H247	H	-0.191696	-0.704601	-0.427514
H248	H	0.308304	-0.204601	0.072486
H249	H	-0.211459	-0.610510	-0.525571
H250	H	0.288541	-0.110510	-0.025571
H251	H	-0.159906	-0.610504	-0.465055
H252	H	0.340094	-0.110504	0.034945
H253	H	-0.116193	-0.694591	-0.516534
H254	H	0.383807	-0.194591	-0.016534
H255	H	-0.167741	-0.694583	-0.577067
H256	H	0.332259	-0.194583	-0.077067
H257	H	-0.119780	-0.639903	-0.572980
H258	H	0.380220	-0.139903	-0.072980
H259	H	-0.369944	-0.990103	-0.919700
H260	H	0.130056	-0.490103	-0.419700
H261	H	-0.542707	-0.836520	-0.442621
H262	H	-0.042707	-0.336520	0.057379
H263	H	-0.286721	-1.013420	-0.793730
H264	H	0.213279	-0.513420	-0.293730
C265	C	-0.219131	-0.278119	-0.455807
C266	C	0.280869	0.221881	0.044193
C267	C	-0.183907	-0.235309	-0.497348
C268	C	0.316093	0.264691	0.002652
C269	C	-0.143634	-0.268112	-0.544835
C270	C	0.356366	0.231888	-0.044835
H271	H	-0.243188	-0.303752	-0.488086
H272	H	0.256812	0.196248	0.011914
H273	H	-0.191639	-0.303771	-0.427555
H274	H	0.308361	0.196229	0.072445
H275	H	-0.211396	-0.209668	-0.525598
H276	H	0.288604	0.290332	-0.025598
H277	H	-0.159838	-0.209675	-0.465088
H278	H	0.340162	0.290325	0.034912
H279	H	-0.116142	-0.293765	-0.516583
H280	H	0.383858	0.206235	-0.016583
H281	H	-0.167696	-0.293744	-0.577109
H282	H	0.332304	0.206256	-0.077109
H283	H	-0.119726	-0.239071	-0.573021
H284	H	0.380274	0.260929	-0.073021
H285	H	-0.230149	-0.550863	-0.442873
H286	H	0.269851	-0.050863	0.057127
C287	C	-0.385204	-0.995522	-0.785635
C288	C	0.114796	-0.495522	-0.285635
C289	C	-0.425766	-1.004870	-0.845486
C290	C	0.074234	-0.504870	-0.345486
C291	C	-0.484970	-1.022813	-0.819317
C292	C	0.015030	-0.522813	-0.319317
H293	H	-0.401580	-0.963459	-0.754614
H294	H	0.098420	-0.463459	-0.254614
H295	H	-0.381475	-1.033424	-0.758313
H296	H	0.118525	-0.533424	-0.258313
H297	H	-0.429497	-0.966972	-0.872796
H298	H	0.070503	-0.466972	-0.372796
H299	H	-0.409411	-1.036936	-0.876512
H300	H	0.090589	-0.536936	-0.376512
H301	H	-0.481241	-1.060716	-0.791995
H302	H	0.018759	-0.560716	-0.291995
H303	H	-0.501339	-0.990748	-0.788296
H304	H	-0.001339	-0.490748	-0.288296
H305	H	-0.512497	-1.029164	-0.859921
H306	H	-0.012497	-0.529164	-0.359921
H307	H	-0.219902	-0.845322	-0.921385
H308	H	0.280098	-0.345322	-0.421385
C309	C	-0.218611	-0.826240	-0.787182
C310	C	0.281389	-0.326240	-0.287182
C311	C	-0.209609	-0.786614	-0.847970
C312	C	0.290391	-0.286614	-0.347970
C313	C	-0.192975	-0.726612	-0.823158
C314	C	0.307025	-0.226612	-0.323158
H315	H	-0.180845	-0.828724	-0.759426
H316	H	0.319155	-0.328724	-0.259426
H317	H	-0.251209	-0.809929	-0.756880
H318	H	0.248791	-0.309929	-0.256880
H319	H	-0.177013	-0.802922	-0.878260
H320	H	0.322987	-0.302922	-0.378260
H321	H	-0.247367	-0.784112	-0.875733
H322	H	0.252633	-0.284112	-0.375733
H323	H	-0.225573	-0.710300	-0.792856
H324	H	0.274427	-0.210300	-0.292856
H325	H	-0.155210	-0.729102	-0.795402
H326	H	0.344790	-0.229102	-0.295402
H327	H	-0.186870	-0.699717	-0.864398
H328	H	0.313130	-0.199717	-0.364398
C329	C	-0.386902	-0.541610	-0.257901
C330	C	0.113098	-0.041610	0.242099
C331	C	-0.378303	-0.477013	-0.268077
C332	C	0.121697	0.022987	0.231923
C333	C	-0.418479	-0.443959	-0.220718
C334	C	0.081521	0.056041	0.279282
H335	H	-0.377669	-0.552298	-0.208131
H336	H	0.122331	-0.052298	0.291869
H337	H	-0.429225	-0.552313	-0.268653
H338	H	0.070775	-0.052313	0.231347
H339	H	-0.335989	-0.466315	-0.257319
H340	H	0.164011	0.033685	0.242681
H341	H	-0.387541	-0.466307	-0.317837
H342	H	0.112459	0.033693	0.182163
H343	H	-0.460803	-0.454661	-0.231470
H344	H	0.039197	0.045339	0.268530
H345	H	-0.409243	-0.454651	-0.170951
H346	H	0.090757	0.045349	0.329049
H347	H	-0.412655	-0.400127	-0.227621
H348	H	0.087345	0.099873	0.272379
C349	C	-0.533799	-0.993678	-0.258041
C350	C	-0.033799	-0.493678	0.241959
C351	C	-0.576636	-1.028980	-0.216626
C352	C	-0.076636	-0.528980	0.283374
C353	C	-0.543866	-1.069338	-0.169271
C354	C	-0.043866	-0.569338	0.330729
H355	H	-0.508192	-0.969678	-0.225676
H356	H	-0.008192	-0.469678	0.274324
H357	H	-0.508123	-1.021117	-0.286382
H358	H	-0.008123	-0.521117	0.213618
H359	H	-0.602301	-1.001545	-0.188287
H360	H	-0.102301	-0.501545	0.311713
H361	H	-0.602245	-1.052993	-0.248971
H362	H	-0.102245	-0.552993	0.251029
H363	H	-0.518191	-1.096776	-0.197612
H364	H	-0.018191	-0.596776	0.302388
H365	H	-0.518260	-1.045333	-0.136911
H366	H	-0.018260	-0.545333	0.363089
H367	H	-0.572926	-1.093299	-0.141170
H368	H	-0.072926	-0.593299	0.358830
H369	H	-0.198624	-0.924350	-0.792758
H370	H	0.301376	-0.424350	-0.292758
C371	C	-0.934443	-0.993797	-0.258270
C372	C	-0.434443	-0.493797	0.241730
C373	C	-0.896618	-1.034097	-0.300236
C374	C	-0.396618	-0.534097	0.199764
C375	C	-0.863631	-1.074410	-0.253038
C376	C	-0.363631	-0.574410	0.246962
H377	H	-0.963350	-1.017859	-0.230083
H378	H	-0.463350	-0.517859	0.269917
H379	H	-0.908807	-0.969741	-0.225980
H380	H	-0.408807	-0.469741	0.274020
H381	H	-0.922251	-1.058150	-0.332513
H382	H	-0.422251	-0.558150	0.167487
H383	H	-0.867700	-1.010052	-0.328422
H384	H	-0.367700	-0.510052	0.171578
H385	H	-0.837995	-1.050354	-0.220748
H386	H	-0.337995	-0.550354	0.279252
H387	H	-0.892542	-1.098468	-0.224853
H388	H	-0.392542	-0.598468	0.275147
H389	H	-0.837958	-1.101755	-0.281505
H390	H	-0.337958	-0.601755	0.218495
C391	C	-0.188108	-0.940221	-0.926974
C392	C	0.311892	-0.440221	-0.426974
C393	C	-0.186034	-0.939057	-1.004273
C394	C	0.313966	-0.439057	-0.504273
C395	C	-0.141652	-0.982687	-1.029341
C396	C	0.358348	-0.482687	-0.529341
H397	H	-0.199567	-0.981055	-0.910763
H398	H	0.300433	-0.481055	-0.410763
H399	H	-0.147943	-0.929764	-0.907763
H400	H	0.352057	-0.429764	-0.407763
H401	H	-0.226191	-0.949518	-1.023477
H402	H	0.273809	-0.449518	-0.523477
H403	H	-0.174568	-0.898233	-1.020503
H404	H	0.325432	-0.398233	-0.520503
H405	H	-0.101487	-0.972230	-1.010130
H406	H	0.398513	-0.472230	-0.510130
H407	H	-0.153116	-1.023518	-1.013126
H408	H	0.346884	-0.523518	-0.513126
H409	H	-0.140235	-0.981899	-1.081790
H410	H	0.359765	-0.481899	-0.581790
H411	H	-0.661979	-0.836565	-0.442636
H412	H	-0.161979	-0.336565	0.057364
C413	C	-0.387012	-0.678727	-0.257776
C414	C	0.112988	-0.178727	0.242224
C415	C	-0.422221	-0.635822	-0.216237
C416	C	0.077779	-0.135822	0.283763
C417	C	-0.462509	-0.668515	-0.168753
C418	C	0.037491	-0.168515	0.331247
H419	H	-0.362967	-0.704390	-0.225495
H420	H	0.137033	-0.204390	0.274505
H421	H	-0.414513	-0.704340	-0.286029
H422	H	0.085487	-0.204340	0.213971
H423	H	-0.394723	-0.610220	-0.187985
H424	H	0.105277	-0.110220	0.312015
H425	H	-0.446279	-0.610158	-0.248498
H426	H	0.053721	-0.110158	0.251502
H427	H	-0.490010	-0.694128	-0.197006
H428	H	0.009990	-0.194128	0.302994
H429	H	-0.438459	-0.694176	-0.136477
H430	H	0.061541	-0.194176	0.363523
H431	H	-0.486407	-0.639409	-0.140568
H432	H	0.013593	-0.139409	0.359432
