data_functionalizedCrystal
_audit_creation_method	'MofGen! by Chris Wilmer'
_symmetry_space_group_name_H-M	'P1'
_symmetry_Int_Tables_number	1
_symmetry_cell_setting	triclinic
loop_
_symmetry_equiv_pos_as_xyz
  x,y,z
_cell_length_a	15.995350
_cell_length_b	16.992695
_cell_length_c	16.053802
_cell_angle_alpha	87.258926
_cell_angle_beta	92.577622
_cell_angle_gamma	87.080299
loop_
_atom_site_label
_atom_site_type_symbol
_atom_site_fract_x
_atom_site_fract_y
_atom_site_fract_z
O1	O	-1.121056	-0.097771	-0.069359
O2	O	-0.787723	0.235563	0.263975
O3	O	-0.454390	0.568896	0.597308
O4	O	-0.878117	-0.110251	-0.069376
O5	O	-0.544784	0.223083	0.263957
O6	O	-0.211450	0.556416	0.597291
O7	O	-0.998613	0.010132	-0.069361
O8	O	-0.665279	0.343465	0.263972
O9	O	-0.331946	0.676798	0.597306
O10	O	-1.000561	-0.218153	-0.069374
O11	O	-0.667228	0.115180	0.263959
O12	O	-0.333894	0.448514	0.597293
O13	O	-0.991978	0.003533	0.069497
O14	O	-0.658645	0.336866	0.402831
O15	O	-0.325312	0.670199	0.736164
O16	O	-0.871483	-0.116849	0.069482
O17	O	-0.538150	0.216484	0.402815
O18	O	-0.204816	0.549817	0.736149
O19	O	-1.114422	-0.104370	0.069499
O20	O	-0.781089	0.228964	0.402833
O21	O	-0.447756	0.562297	0.736166
Zn22	Zn	-0.991899	-0.111657	0.091537
Zn23	Zn	-0.658566	0.221676	0.424871
Zn24	Zn	-0.325233	0.555009	0.758204
Zn25	Zn	-1.000640	-0.102963	-0.091414
Zn26	Zn	-0.667307	0.230370	0.241919
Zn27	Zn	-0.333973	0.563704	0.575253
O28	O	-0.993927	-0.224752	0.069484
O29	O	-0.660593	0.108581	0.402817
O30	O	-0.327260	0.441915	0.736151
C31	C	-0.843571	-0.113034	0.000051
C32	C	-0.510238	0.220299	0.333384
C33	C	-0.176904	0.553633	0.666718
C34	C	-0.750517	-0.111487	0.000044
C35	C	-0.417184	0.221847	0.333378
C36	C	-0.083851	0.555180	0.666711
C37	C	-0.992790	0.036045	0.000068
C38	C	-0.659456	0.369378	0.333401
C39	C	-0.326123	0.702711	0.666735
C40	C	-0.985314	0.123089	0.000067
C41	C	-0.651980	0.456422	0.333400
C42	C	-0.318647	0.789756	0.666734
C43	C	-1.148969	-0.101586	0.000071
C44	C	-0.815635	0.231747	0.333404
C45	C	-0.482302	0.565080	0.666737
C46	C	-1.242022	-0.103133	0.000072
C47	C	-0.908689	0.230200	0.333405
C48	C	-0.575356	0.563534	0.666738
C49	C	-0.412397	-0.105932	0.000062
C50	C	-0.079064	0.227401	0.333395
C51	C	0.254269	0.560734	0.666729
C52	C	-0.454079	-0.020213	0.000377
C53	C	-0.120746	0.313121	0.333710
C54	C	0.212587	0.646454	0.667043
C55	C	-0.550888	-0.021745	0.000058
C56	C	-0.217555	0.311589	0.333391
C57	C	0.115778	0.644922	0.666725
C58	C	-0.580143	-0.108688	0.000054
C59	C	-0.246809	0.224646	0.333387
C60	C	0.086524	0.557979	0.666720
C61	C	-0.545673	-0.147206	-0.079240
C62	C	-0.212340	0.186127	0.254093
C63	C	0.120993	0.519460	0.587427
C64	C	-0.448896	-0.145050	-0.079301
C65	C	-0.115563	0.188284	0.254033
C66	C	0.217770	0.521617	0.587366
C67	C	-0.441132	-0.154325	0.078607
C68	C	-0.107798	0.179008	0.411940
C69	C	0.225535	0.512341	0.745274
C70	C	-0.538026	-0.154355	0.079649
C71	C	-0.204693	0.178979	0.412983
C72	C	0.128641	0.512312	0.746316
C73	C	-0.674945	-0.110249	0.000046
C74	C	-0.341612	0.223084	0.333380
C75	C	-0.008278	0.556418	0.666713
C76	C	-0.317595	-0.104373	0.000064
C77	C	0.015738	0.228960	0.333397
C78	C	0.349072	0.562294	0.666731
C79	C	-0.999750	-0.250665	0.000054
C80	C	-0.666416	0.082668	0.333387
C81	C	-0.333083	0.416002	0.666720
C82	C	-1.007226	-0.337709	0.000049
C83	C	-0.673893	-0.004376	0.333382
C84	C	-0.340559	0.328958	0.666715
N85	N	-0.985940	-0.117590	0.216397
N86	N	-0.652607	0.215743	0.549730
N87	N	-0.319273	0.549076	0.883064
C88	C	-1.057449	0.173329	0.000073
C89	C	-0.724115	0.506662	0.333406
C90	C	-0.390782	0.839996	0.666740
C91	C	-1.050419	0.255116	0.000065
C92	C	-0.717086	0.588449	0.333398
C93	C	-0.383753	0.921783	0.666731
C94	C	-0.971254	0.286661	0.000056
C95	C	-0.637921	0.619994	0.333390
C96	C	-0.304587	0.953328	0.666723
C97	C	-0.899114	0.236415	0.000048
C98	C	-0.565780	0.569748	0.333381
C99	C	-0.232447	0.903081	0.666714
C100	C	-0.906144	0.154630	0.000050
C101	C	-0.572811	0.487963	0.333384
C102	C	-0.239477	0.821296	0.666717
C103	C	-0.942116	0.530260	0.000043
C104	C	-0.608783	0.863593	0.333376
C105	C	-0.275450	1.196926	0.666709
C106	C	-0.935091	0.612051	0.000043
C107	C	-0.601758	0.945384	0.333376
C108	C	-0.268424	1.278718	0.666709
C109	C	-1.086398	0.630747	0.000058
C110	C	-0.753064	0.964080	0.333392
C111	C	-0.419731	1.297414	0.666725
C112	C	-1.093421	0.548959	0.000066
C113	C	-0.760087	0.882292	0.333399
C114	C	-0.426754	1.215626	0.666732
C115	C	-1.021281	0.498720	0.000053
C116	C	-0.687947	0.832053	0.333386
C117	C	-0.354614	1.165387	0.666719
N118	N	-0.964067	0.370260	0.000050
N119	N	-0.630734	0.703594	0.333384
N120	N	-0.297400	1.036927	0.666717
N121	N	-1.028469	0.415123	0.000053
N122	N	-0.695135	0.748456	0.333386
N123	N	-0.361802	1.081790	0.666719
N124	N	-1.006606	-0.097024	-0.216274
N125	N	-0.673272	0.236310	0.117060
N126	N	-0.339939	0.569643	0.450393
C127	C	-1.037232	-0.066386	0.260097
C128	C	-0.703899	0.266948	0.593431
C129	C	-0.370565	0.600281	0.926764
C130	C	-1.033072	-0.070544	0.347504
C131	C	-0.699738	0.262790	0.680837
C132	C	-0.366405	0.596123	1.014170
C133	C	-0.977623	-0.125910	0.391208
C134	C	-0.644290	0.207423	0.724541
C135	C	-0.310956	0.540756	1.057874
C136	C	-0.926325	-0.177117	0.347501
C137	C	-0.592992	0.156216	0.680835
C138	C	-0.259658	0.489550	1.014168
C139	C	-0.930482	-0.172955	0.260097
C140	C	-0.597148	0.160378	0.593430
C141	C	-0.263815	0.493712	0.926763
C142	C	-0.959465	-0.144068	0.652615
C143	C	-0.626131	0.189265	0.985949
C144	C	-0.292798	0.522598	1.319282
C145	C	-0.955314	-0.148228	0.740026
C146	C	-0.621980	0.185105	1.073359
C147	C	-0.288647	0.518438	1.406693
C148	C	-1.062060	-0.041653	0.740022
C149	C	-0.728726	0.291680	1.073355
C150	C	-0.395393	0.625013	1.406689
C151	C	-1.066215	-0.037499	0.652616
C152	C	-0.732882	0.295834	0.985949
C153	C	-0.399548	0.629167	1.319282
C154	C	-1.014914	-0.088703	0.608917
C155	C	-0.681581	0.244630	0.942250
C156	C	-0.348247	0.577963	1.275584
N157	N	-0.973371	-0.130163	0.480551
N158	N	-0.640038	0.203170	0.813884
N159	N	-0.306704	0.536504	1.147218
N160	N	-1.019162	-0.084446	0.519575
N161	N	-0.685829	0.248887	0.852909
N162	N	-0.352496	0.582221	1.186242
H163	H	-0.574377	0.008794	0.056899
H164	H	-0.241044	0.342127	0.390233
H165	H	0.092289	0.675461	0.723566
Cl166	Cl	-0.856613	-0.246719	0.402442
Cl167	Cl	-0.523279	0.086615	0.735775
Cl168	Cl	-0.189946	0.419948	1.069109
Cl169	Cl	-0.885601	-0.217840	0.794963
Cl170	Cl	-0.552268	0.115493	1.128296
Cl171	Cl	-0.218934	0.448826	1.461629
H172	H	-0.888713	-0.214650	0.224517
H173	H	-0.555380	0.118683	0.557850
H174	H	-0.222047	0.452016	0.891183
H175	H	-1.111366	0.007585	0.617034
H176	H	-0.778032	0.340918	0.950367
H177	H	-0.444699	0.674251	1.283700
H178	H	-0.431356	-0.111395	-0.138572
H179	H	-0.098023	0.221938	0.194762
H180	H	0.235310	0.555271	0.528095
H181	H	-1.103825	0.000036	0.775610
H182	H	-0.770492	0.333369	1.108943
H183	H	-0.437159	0.666702	1.442276
Cl184	Cl	-1.156976	0.133681	0.000092
Cl185	Cl	-0.823642	0.467014	0.333426
Cl186	Cl	-0.490309	0.800348	0.666759
Cl187	Cl	-0.851425	0.467113	0.000024
Cl188	Cl	-0.518091	0.800446	0.333358
Cl189	Cl	-0.184758	1.133779	0.666691
H190	H	-1.074837	-0.028848	0.383084
H191	H	-0.741504	0.304485	0.716417
H192	H	-0.408171	0.637818	1.049751
H193	H	-0.574902	-0.115031	-0.138249
H194	H	-0.241568	0.218302	0.195084
H195	H	0.091765	0.551635	0.528417
H196	H	-0.430547	0.011355	0.057242
H197	H	-0.097214	0.344688	0.390575
H198	H	0.236119	0.678022	0.723908
H199	H	-0.917695	-0.185762	0.617042
H200	H	-0.584361	0.147571	0.950376
H201	H	-0.251028	0.480904	1.283709
Cl202	Cl	-0.815456	0.091470	0.000040
Cl203	Cl	-0.482123	0.424803	0.333373
Cl204	Cl	-0.148789	0.758136	0.666706
Cl205	Cl	-1.141108	0.318272	0.000075
Cl206	Cl	-0.807775	0.651606	0.333408
Cl207	Cl	-0.474441	0.984939	0.666741
H208	H	-0.413574	-0.217562	0.079140
H209	H	-0.080241	0.115771	0.412474
H210	H	0.253092	0.449105	0.745807
H211	H	-0.579227	0.014426	-0.056879
H212	H	-0.245894	0.347759	0.276455
H213	H	0.087439	0.681092	0.609788
H214	H	-1.157885	0.523282	0.000073
H215	H	-0.824552	0.856615	0.333406
H216	H	-0.491219	1.189948	0.666739
H217	H	-0.434905	0.016587	-0.056171
H218	H	-0.101571	0.349920	0.277163
H219	H	0.231762	0.683254	0.610496
H220	H	-0.421032	-0.207824	-0.082902
H221	H	-0.087699	0.125510	0.250431
H222	H	0.245635	0.458843	0.583765
H223	H	-0.564213	-0.210941	-0.082191
H224	H	-0.230880	0.122392	0.251142
H225	H	0.102453	0.455726	0.584475
H226	H	-1.145130	0.671660	0.000067
H227	H	-0.811796	1.004993	0.333400
H228	H	-0.478463	1.338327	0.666734
H229	H	-0.415849	-0.129153	0.138710
H230	H	-0.082516	0.204180	0.472043
H231	H	0.250817	0.537514	0.805376
H232	H	-0.560474	-0.126273	0.138311
H233	H	-0.227141	0.207060	0.471644
H234	H	0.106192	0.540394	0.804977
H235	H	-0.834656	0.262105	0.000036
H236	H	-0.501322	0.595438	0.333369
H237	H	-0.167989	0.928772	0.666702
H238	H	-0.557405	-0.217983	0.084436
H239	H	-0.224072	0.115350	0.417769
H240	H	0.109262	0.448683	0.751102
H241	H	-1.082388	-0.021304	0.224519
H242	H	-0.749055	0.312030	0.557852
H243	H	-0.415721	0.645363	0.891186
Cl244	Cl	-0.835561	0.651705	0.000037
Cl245	Cl	-0.502228	0.985039	0.333370
Cl246	Cl	-0.168895	1.318372	0.666704
