data_functionalizedCrystal
_audit_creation_method	'MofGen! by Chris Wilmer'
_symmetry_space_group_name_H-M	'P1'
_symmetry_Int_Tables_number	1
_symmetry_cell_setting	triclinic
loop_
_symmetry_equiv_pos_as_xyz
  x,y,z
_cell_length_a	12.837943
_cell_length_b	10.489741
_cell_length_c	11.892095
_cell_angle_alpha	93.929268
_cell_angle_beta	85.689438
_cell_angle_gamma	89.684057
loop_
_atom_site_label
_atom_site_type_symbol
_atom_site_fract_x
_atom_site_fract_y
_atom_site_fract_z
O1	O	1.384503	0.324530	-0.093982
O2	O	1.082575	0.308135	-0.093989
O3	O	1.240409	0.131493	-0.093979
O4	O	1.226669	0.501172	-0.093992
O5	O	1.227249	0.146196	0.094028
O6	O	1.069415	0.322838	0.094018
O7	O	1.371343	0.339233	0.094024
Zn8	Zn	1.218290	0.333370	0.123871
Zn9	Zn	1.235629	0.313998	-0.123836
O10	O	1.213509	0.515875	0.094014
C11	C	1.037334	0.309948	0.000014
C12	C	0.922133	0.293430	0.000011
C13	C	0.682657	0.492006	0.000020
C14	C	0.574415	0.476492	0.000019
C15	C	0.597406	0.246889	0.000015
C16	C	0.705648	0.262403	0.000016
C17	C	0.748269	0.384966	0.000017
C18	C	0.856513	0.400478	0.000011
C19	C	0.879501	0.170877	0.000015
C20	C	0.771260	0.155363	0.000014
C21	C	1.232791	0.091198	0.000024
C22	C	1.229687	-0.050774	0.000022
C23	C	1.129262	-0.129987	0.000011
C24	C	1.170213	-0.209630	0.092709
C25	C	1.183212	-0.224098	-0.092650
C26	C	1.270674	-0.128541	0.092796
C27	C	1.283664	-0.143007	-0.092647
C28	C	1.324687	-0.222613	0.000074
C29	C	1.416585	0.337420	0.000019
C30	C	1.531786	0.353937	0.000014
C31	C	1.221127	0.556170	0.000009
C32	C	1.224233	0.698141	0.000004
N33	N	1.206464	0.346591	0.292925
N34	N	1.247463	0.300768	-0.292889
C35	C	1.329751	0.208698	0.529580
C36	C	1.321493	0.217950	0.647922
C37	C	1.181684	0.374338	0.647951
C38	C	1.189943	0.365086	0.529609
C39	C	1.263980	0.282265	0.470428
C40	C	1.272243	0.273021	0.352085
C41	C	1.132429	0.429402	0.352116
C42	C	1.124171	0.438653	0.470457
H43	H	0.891213	0.500275	0.000013
H44	H	1.390042	0.141271	0.481394
C45	C	1.422493	0.252065	0.218908
C46	C	1.353573	0.181945	0.287000
H47	H	1.472691	0.195821	0.178728
H48	H	1.384502	0.294576	0.166768
H49	H	1.457038	0.313340	0.265057
H50	H	1.319022	0.120676	0.240850
H51	H	1.391569	0.139413	0.339147
C52	C	0.441679	0.121175	0.000032
C53	C	0.550543	0.112178	0.000025
H54	H	0.412750	0.038007	0.000034
H55	H	0.414646	0.170925	0.065589
H56	H	0.423814	0.160676	-0.065536
H57	H	0.568408	0.072685	0.065597
H58	H	0.577586	0.062408	-0.065539
C59	C	1.460517	0.062441	0.636001
C60	C	1.393792	0.137084	0.712943
H61	H	1.505155	0.012521	0.676145
H62	H	1.420205	0.007638	0.589857
H63	H	1.501455	0.116547	0.589833
H64	H	1.352848	0.082978	0.759106
H65	H	1.434108	0.191892	0.759107
C66	C	1.168493	-0.320648	0.262817
C67	C	1.105451	-0.249558	0.198501
H68	H	1.128507	-0.345287	0.328127
H69	H	1.194167	-0.394781	0.218861
H70	H	1.225552	-0.270076	0.285096
H71	H	1.048396	-0.300134	0.176215
H72	H	1.079762	-0.175414	0.242466
C73	C	0.649064	0.717401	0.000013
C74	C	0.729514	0.626721	0.000016
H75	H	0.677993	0.800568	0.000017
H76	H	0.611916	0.701448	-0.065546
H77	H	0.602733	0.711695	0.065579
H78	H	0.775841	0.632420	-0.065555
H79	H	0.766680	0.642678	0.065581
H80	H	1.407327	-0.262921	0.000127
C81	C	1.000082	0.430171	0.684444
C82	C	1.100297	0.465347	0.713025
H83	H	0.949836	0.486350	0.724627
H84	H	0.995589	0.435217	0.605511
H85	H	0.986852	0.345096	0.703830
H86	H	1.113530	0.550420	0.693631
H87	H	1.104793	0.460314	0.791976
C88	C	0.942573	0.494521	0.506940
C89	C	1.042791	0.529681	0.535520
H90	H	0.892333	0.550716	0.547113
H91	H	0.938084	0.499553	0.428005
H92	H	0.929329	0.409452	0.526339
H93	H	1.056038	0.614747	0.516114
H94	H	1.047282	0.524662	0.614473
C95	C	1.302437	-0.151377	-0.295426
C96	C	1.348383	-0.103035	-0.198442
H97	H	1.342383	-0.126690	-0.360744
H98	H	1.300412	-0.241954	-0.296564
H99	H	1.233358	-0.118254	-0.294748
H100	H	1.417459	-0.136167	-0.199115
H101	H	1.350419	-0.012440	-0.197304
C102	C	0.446116	0.584686	-0.096631
C103	C	0.502291	0.594151	0.000015
H104	H	0.401585	0.657325	-0.096627
H105	H	0.493409	0.580849	-0.162180
H106	H	0.405242	0.509472	-0.096621
H107	H	0.543171	0.669361	0.000000
H108	H	0.454992	0.598001	0.065580
C109	C	0.764294	-0.052660	-0.096644
C110	C	0.724406	0.020646	0.000007
H111	H	0.735374	-0.135832	-0.096645
H112	H	0.746413	-0.013151	-0.162189
H113	H	0.838150	-0.058729	-0.096632
H114	H	0.650551	0.026723	-0.000008
H115	H	0.742280	-0.018873	0.065569
H116	H	1.078877	0.489309	0.303941
H117	H	0.932936	0.083716	0.000005
H118	H	1.046687	-0.089432	0.000103
C119	C	1.409852	-0.003874	0.166047
C120	C	1.320570	-0.072326	0.198715
H121	H	1.440647	0.030838	0.231438
H122	H	1.458505	-0.059479	0.122730
H123	H	1.390949	0.063459	0.121834
H124	H	1.339474	-0.139664	0.242922
H125	H	1.271907	-0.016716	0.242051
C126	C	1.030904	-0.233585	-0.198261
C127	C	1.133241	-0.280514	-0.198451
H128	H	1.000053	-0.268405	-0.263578
H129	H	0.991300	-0.257449	-0.132447
H130	H	1.031958	-0.143073	-0.198647
H131	H	1.132186	-0.371027	-0.198055
H132	H	1.172854	-0.256659	-0.264282
