data_functionalizedCrystal
_audit_creation_method	'MofGen! by Chris Wilmer'
_symmetry_space_group_name_H-M	'P1'
_symmetry_Int_Tables_number	1
_symmetry_cell_setting	triclinic
loop_
_symmetry_equiv_pos_as_xyz
  x,y,z
_cell_length_a	14.853569
_cell_length_b	9.065218
_cell_length_c	7.540329
_cell_angle_alpha	90.001757
_cell_angle_beta	90.000987
_cell_angle_gamma	84.325725
loop_
_atom_site_label
_atom_site_type_symbol
_atom_site_fract_x
_atom_site_fract_y
_atom_site_fract_z
O1	O	-1.197788	-0.192625	-0.147394
O2	O	-0.935498	-0.215568	-0.147414
O3	O	-1.072064	0.010654	-0.147400
O4	O	-1.061221	-0.418846	-0.147408
O5	O	-1.072056	0.010656	0.147565
O6	O	-0.935490	-0.215565	0.147551
O7	O	-1.197779	-0.192622	0.147571
Cu8	Cu	-1.066634	-0.204093	0.174494
Cu9	Cu	-1.066643	-0.204096	-0.174337
O10	O	-1.061213	-0.418843	0.147557
C11	C	-1.071018	0.065621	0.000080
C12	C	-1.067902	0.229402	0.000071
C13	C	-0.901897	-0.214526	0.000065
C14	C	-0.801791	-0.211410	0.000057
C15	C	-1.231380	-0.193663	0.000087
C16	C	-1.331486	-0.196780	0.000084
C17	C	-0.764409	-0.075567	0.000054
C18	C	-0.745108	-0.344325	0.000069
C19	C	-0.651053	-0.341401	0.000071
C20	C	-0.613671	-0.205559	0.000067
C21	C	-0.670345	-0.072640	0.000061
C22	C	-0.594372	-0.474318	0.000094
C23	C	-0.500310	-0.471399	0.000099
C24	C	-0.462926	-0.335555	0.000082
C25	C	-0.519606	-0.202631	0.000074
C26	C	-0.482225	-0.066789	0.000071
C27	C	-0.538903	0.066137	0.000050
C28	C	-0.632961	0.063205	0.000045
C29	C	-0.368868	-0.332622	0.000088
C30	C	-0.388160	-0.063861	0.000078
C31	C	-1.062259	-0.473811	0.000073
C32	C	-1.065375	-0.637592	0.000070
N33	N	-1.066633	-0.204090	0.419842
N34	N	-1.066651	-0.204088	-0.419685
H35	H	-0.357732	0.046760	0.000065
F36	F	-0.499108	0.210706	0.000061
H37	H	-0.624815	-0.584913	0.000109
F38	F	-0.308552	-0.474081	0.000128
F39	F	-0.693287	0.204660	0.000038
H40	H	-0.454169	-0.579636	0.000112
H41	H	-0.775551	-0.454921	0.000084
H42	H	-0.810561	0.032657	0.000030
