data_functionalizedCrystal
_audit_creation_method	'MofGen! by Chris Wilmer'
_symmetry_space_group_name_H-M	'P1'
_symmetry_Int_Tables_number	1
_symmetry_cell_setting	triclinic
loop_
_symmetry_equiv_pos_as_xyz
  x,y,z
_cell_length_a	25.639242
_cell_length_b	29.839131
_cell_length_c	25.639233
_cell_angle_alpha	89.980415
_cell_angle_beta	89.977834
_cell_angle_gamma	90.036947
loop_
_atom_site_label
_atom_site_type_symbol
_atom_site_fract_x
_atom_site_fract_y
_atom_site_fract_z
Zn1	Zn	0.799215	-0.178962	-0.295739
Zn2	Zn	0.799134	-0.254076	-0.208302
Zn3	Zn	0.711791	-0.178955	-0.208303
Zn4	Zn	0.711732	-0.254059	-0.295692
O5	O	0.755468	-0.216513	-0.252009
O6	O	0.872370	-0.188935	-0.284160
O7	O	0.787539	-0.244115	-0.135137
O8	O	0.723447	-0.116089	-0.219922
O9	O	0.872310	-0.244122	-0.219920
O10	O	0.787677	-0.116094	-0.284161
O11	O	0.723369	-0.188924	-0.135138
O12	O	0.638618	-0.188908	-0.219876
O13	O	0.723346	-0.244093	-0.368864
O14	O	0.638575	-0.244087	-0.284081
O15	O	0.787619	-0.188919	-0.368898
O16	O	0.787482	-0.316941	-0.219875
O17	O	0.723268	-0.316929	-0.284080
C18	C	0.619626	-0.216495	-0.251974
C19	C	0.561512	-0.216499	-0.251971
C20	C	0.201135	-0.245293	-0.285409
C21	C	0.146531	-0.245295	-0.285417
O22	O	0.118282	-0.269755	-0.313817
N23	N	0.119229	-0.216525	-0.252043
C24	C	0.146535	-0.187748	-0.218663
O25	O	0.118299	-0.163276	-0.190277
C26	C	0.201138	-0.187743	-0.218658
C27	C	0.228437	-0.216518	-0.252030
C28	C	0.228434	-0.274065	-0.318778
C29	C	0.283034	-0.274063	-0.318769
C30	C	0.310336	-0.245288	-0.285390
C31	C	0.283037	-0.216516	-0.252021
C32	C	0.228443	-0.158963	-0.185281
C33	C	0.283050	-0.158961	-0.185279
C34	C	0.310349	-0.187736	-0.218651
C35	C	0.364940	-0.187739	-0.218633
N36	N	0.392241	-0.216509	-0.252006
C37	C	0.364939	-0.245283	-0.285385
C38	C	0.031864	-0.187759	-0.218677
C39	C	-0.022738	-0.187766	-0.218679
C40	C	-0.022739	-0.245313	-0.285434
C41	C	0.031865	-0.245308	-0.285429
C42	C	0.059166	-0.216529	-0.252051
C43	C	0.479604	-0.245277	-0.285363
C44	C	0.534210	-0.245273	-0.285350
C45	C	0.534206	-0.187724	-0.218597
C46	C	0.479605	-0.187729	-0.218609
C47	C	0.452306	-0.216507	-0.251996
O48	O	0.393223	-0.163290	-0.190249
O49	O	0.393182	-0.269746	-0.313771
C50	C	0.755374	-0.333236	-0.251983
C51	C	0.755381	-0.383170	-0.251990
C52	C	0.788965	-0.692807	-0.218627
C53	C	0.789030	-0.880480	-0.218647
O54	O	0.817509	-0.904740	-0.190260
N55	N	0.755577	-0.903955	-0.252049
C56	C	0.722108	-0.880509	-0.285450
O57	O	0.693659	-0.904782	-0.313865
C58	C	0.722046	-0.692837	-0.285432
C59	C	0.755498	-0.669364	-0.252024
C60	C	0.822415	-0.669335	-0.185222
C61	C	0.822396	-0.622419	-0.185215
C62	C	0.788928	-0.598976	-0.218613
C63	C	0.755479	-0.622449	-0.252018
C64	C	0.688580	-0.669391	-0.318836
C65	C	0.688568	-0.622470	-0.318829
C66	C	0.722020	-0.598998	-0.285422
C67	C	0.721993	-0.552090	-0.285409
N68	N	0.755446	-0.528615	-0.252007
C69	C	0.788914	-0.552058	-0.218609
C70	C	0.722141	-0.979039	-0.285457
C71	C	0.722156	-1.025957	-0.285461
C72	C	0.789079	-1.025925	-0.218658
C73	C	0.789062	-0.979007	-0.218652
C74	C	0.755595	-0.955565	-0.252055
C75	C	0.788872	-0.453533	-0.218597
C76	C	0.788849	-0.406613	-0.218592
C77	C	0.721928	-0.406649	-0.285396
C78	C	0.721949	-0.453564	-0.285400
C79	C	0.755425	-0.477005	-0.251999
O80	O	0.693533	-0.527802	-0.313784
O81	O	0.817366	-0.527777	-0.190207
C82	C	0.788984	-0.739723	-0.218633
C83	C	0.755535	-0.763195	-0.252038
C84	C	0.722067	-0.739752	-0.285436
C85	C	0.755549	-0.810113	-0.252042
C86	C	0.789017	-0.833556	-0.218644
C87	C	0.822470	-0.810081	-0.185242
C88	C	0.822451	-0.763166	-0.185235
C89	C	0.688614	-0.763227	-0.318838
C90	C	0.688635	-0.810143	-0.318841
C91	C	0.722102	-0.833585	-0.285443
C92	C	0.891841	-0.216531	-0.252045
C93	C	0.949955	-0.216539	-0.252060
C94	C	0.755485	-0.216505	-0.388382
C95	C	0.755492	-0.216502	-0.446496
C96	C	0.755577	-0.099335	-0.252047
C97	C	0.755624	-0.049400	-0.252063
C98	C	0.789002	-0.187687	-0.806883
C99	C	0.789008	-0.187675	-0.861488
O100	O	0.817457	-0.163229	-0.889744
N101	N	0.755550	-0.216396	-0.888779
C102	C	0.722079	-0.245129	-0.861463
O103	O	0.693621	-0.269558	-0.889691
C104	C	0.722071	-0.245139	-0.806860
C105	C	0.755535	-0.216419	-0.779571
C106	C	0.822463	-0.158969	-0.779594
C107	C	0.822457	-0.158982	-0.724994
C108	C	0.788990	-0.187714	-0.697682
C109	C	0.755529	-0.216432	-0.724971
C110	C	0.688598	-0.273869	-0.779545
C111	C	0.688592	-0.273876	-0.724938
C112	C	0.722056	-0.245156	-0.697650
C113	C	0.722056	-0.245176	-0.643058
N114	N	0.755514	-0.216455	-0.615767
C115	C	0.788981	-0.187723	-0.643079
C116	C	0.722100	-0.245106	-0.976134
C117	C	0.722110	-0.245099	-1.030736
C118	C	0.789039	-0.187644	-1.030757
C119	C	0.789030	-0.187653	-0.976153
C120	C	0.755558	-0.216384	-0.948843
C121	C	0.788967	-0.187753	-0.528414
C122	C	0.788959	-0.187770	-0.473808
C123	C	0.722029	-0.245223	-0.473793
C124	C	0.722038	-0.245208	-0.528393
C125	C	0.755509	-0.216470	-0.555702
O126	O	0.693620	-0.269609	-0.614767
O127	O	0.817430	-0.163295	-0.614845
C128	C	0.755482	-0.216488	-0.116167
C129	C	0.755576	-0.216365	-0.058053
H130	H	0.816089	-0.387503	-0.191385
O131	O	0.854999	-0.832789	-0.152750
C132	C	0.884535	-0.802015	-0.123272
H133	H	0.863112	-0.768587	-0.121428
H134	H	0.924228	-0.796986	-0.142463
C135	C	0.918429	-0.861406	-0.069906
C136	C	0.892116	-0.820350	-0.067637
H137	H	0.923108	-0.872716	-0.035588
H138	H	0.898532	-0.882139	-0.089767
H139	H	0.951504	-0.857209	-0.085901
H140	H	0.859039	-0.824548	-0.051648
H141	H	0.912008	-0.799618	-0.047771
H142	H	0.661390	-0.829250	-0.346045
O143	O	0.656049	-0.740528	-0.351296
C144	C	0.626540	-0.771313	-0.380784
H145	H	0.624766	-0.804767	-0.359368
H146	H	0.645657	-0.776271	-0.420516
C147	C	0.573056	-0.711966	-0.414554
C148	C	0.570873	-0.753053	-0.388249
H149	H	0.538719	-0.700702	-0.419162
H150	H	0.592938	-0.691224	-0.394689
H151	H	0.588989	-0.716103	-0.447662
H152	H	0.554946	-0.748915	-0.355140
H153	H	0.550987	-0.773793	-0.408109
H154	H	0.661337	-0.688495	-0.346038
H155	H	0.849691	-0.744058	-0.158032
H156	H	0.694912	-1.045065	-0.312660
H157	H	0.556445	-0.164298	-0.191419
O158	O	0.821495	-0.159742	-1.057374
C159	C	0.814329	-0.165900	-1.111419
H160	H	0.773968	-0.180613	-1.118857
H161	H	0.845324	-0.189821	-1.126923
C162	C	0.868723	-0.102369	-1.130325
C163	C	0.819150	-0.120436	-1.139462
H164	H	0.871699	-0.074325	-1.147625
H165	H	0.873552	-0.098220	-1.093914
H166	H	0.894546	-0.122307	-1.143246
H167	H	0.793328	-0.100501	-1.126536
H168	H	0.814316	-0.124580	-1.175871
H169	H	0.305256	-0.297494	-0.345945
O170	O	0.689487	-0.273124	-0.554824
C171	C	0.659959	-0.298496	-0.519006
H172	H	0.658165	-0.280105	-0.480082
H173	H	0.679074	-0.332620	-0.513204
C174	C	0.606512	-0.327547	-0.588102
C175	C	0.604304	-0.304957	-0.540297
H176	H	0.572182	-0.331534	-0.601236
H177	H	0.626406	-0.310455	-0.612234
H178	H	0.622443	-0.355981	-0.583260
H179	H	0.588379	-0.276521	-0.545140
H180	H	0.584406	-0.322044	-0.516166
H181	H	0.694842	-0.268504	-0.953901
O182	O	0.821517	-0.159931	-0.447274
C183	C	0.855253	-0.185513	-0.415683
H184	H	0.858460	-0.220893	-0.432134
H185	H	0.839078	-0.187069	-0.374297
C186	C	0.905682	-0.120110	-0.394652
C187	C	0.909625	-0.163563	-0.414860
H188	H	0.939221	-0.106569	-0.394142
H189	H	0.882953	-0.102874	-0.415934
H190	H	0.892201	-0.121412	-0.360165
H191	H	0.923100	-0.162259	-0.449348
H192	H	0.932358	-0.180798	-0.393583
O193	O	0.821530	-0.159824	-0.554856
C194	C	0.851050	-0.134475	-0.519052
H195	H	0.852832	-0.152889	-0.480130
H196	H	0.831937	-0.100354	-0.513241
C197	C	0.904520	-0.105388	-0.588175
C198	C	0.906712	-0.128006	-0.540371
H199	H	0.938854	-0.101395	-0.601325
H200	H	0.884631	-0.122464	-0.612297
H201	H	0.888590	-0.076955	-0.583326
H202	H	0.922636	-0.156440	-0.545222
H203	H	0.926605	-0.110934	-0.516250
H204	H	0.694783	-0.268617	-0.451545
H205	H	0.849671	-0.688417	-0.158025
H206	H	0.816301	-0.959898	-0.191448
O207	O	0.560646	-0.273240	-0.317820
C208	C	0.524835	-0.298643	-0.347273
H209	H	0.485927	-0.280245	-0.349127
H210	H	0.518993	-0.332739	-0.328056
C211	C	0.593956	-0.327786	-0.400627
C212	C	0.546170	-0.305187	-0.402907
H213	H	0.607117	-0.331825	-0.434944
H214	H	0.618083	-0.310673	-0.380783
H215	H	0.589081	-0.356197	-0.384610
H216	H	0.551046	-0.276775	-0.418918
H217	H	0.522044	-0.322295	-0.422756
H218	H	0.849637	-0.603311	-0.158013
H219	H	0.054088	-0.268739	-0.312604
H220	H	0.206210	-0.297497	-0.345962
O221	O	0.453035	-0.273255	-0.317722
C222	C	0.421425	-0.302245	-0.287900
H223	H	0.413225	-0.286349	-0.248314
H224	H	0.442449	-0.335526	-0.282076
C225	C	0.379644	-0.329951	-0.365284
C226	C	0.369570	-0.310426	-0.316666
H227	H	0.347658	-0.334999	-0.383029
H228	H	0.400941	-0.310421	-0.385376
H229	H	0.397165	-0.357683	-0.360424
H230	H	0.352055	-0.282692	-0.321527
H231	H	0.348268	-0.329951	-0.296576
O232	O	0.309592	-0.130957	-0.152926
C233	C	0.341223	-0.101983	-0.182747
H234	H	0.324796	-0.099263	-0.223936
H235	H	0.382598	-0.115871	-0.184508
C236	C	0.362250	-0.058589	-0.106715
C237	C	0.342072	-0.055244	-0.157303
H238	H	0.362776	-0.029758	-0.091019
H239	H	0.340942	-0.078109	-0.086623
H240	H	0.396728	-0.070164	-0.108189
H241	H	0.307592	-0.043675	-0.155827
H242	H	0.363375	-0.035720	-0.177394
H243	H	0.206226	-0.135532	-0.158104
O244	O	0.854977	-0.131037	-0.698570
C245	C	0.884521	-0.105686	-0.734395
H246	H	0.863109	-0.104126	-0.773311
H247	H	0.924217	-0.122139	-0.740210
C248	C	0.918394	-0.059789	-0.665304
C249	C	0.892093	-0.057871	-0.713100
H250	H	0.923068	-0.030295	-0.652168
H251	H	0.898492	-0.076869	-0.641168
H252	H	0.951471	-0.073502	-0.670157
H253	H	0.859015	-0.044163	-0.708246
H254	H	0.911991	-0.040787	-0.737235
H255	H	0.661347	-0.297256	-0.801754
O256	O	0.821405	-0.476229	-0.186100
C257	C	0.850929	-0.445443	-0.156628
H258	H	0.829498	-0.412019	-0.154797
H259	H	0.890624	-0.440411	-0.175814
C260	C	0.884830	-0.504814	-0.103237
C261	C	0.858506	-0.463763	-0.100985
H262	H	0.889506	-0.516115	-0.068914
H263	H	0.864941	-0.525556	-0.123094
H264	H	0.917906	-0.500616	-0.119228
H265	H	0.825428	-0.467963	-0.085000
H266	H	0.878390	-0.443022	-0.081124
H267	H	0.816330	-1.045021	-0.191464
O268	O	0.689558	-0.273015	-1.057161
C269	C	0.660031	-0.298384	-1.021339
H270	H	0.658237	-0.279988	-0.982418
H271	H	0.679146	-0.332507	-1.015532
C272	C	0.606583	-0.327442	-1.090430
C273	C	0.604376	-0.304847	-1.042629
H274	H	0.572253	-0.331431	-1.103563
H275	H	0.626477	-0.310353	-1.114565
H276	H	0.622515	-0.355876	-1.085585
H277	H	0.588451	-0.276412	-1.047476
H278	H	0.584478	-0.321932	-1.018495
H279	H	-0.044978	-0.268742	-0.312615
O280	O	0.656084	-0.599748	-0.351351
C281	C	0.667493	-0.611176	-0.403474
H282	H	0.687604	-0.645224	-0.404580
H283	H	0.694353	-0.584741	-0.421108
C284	C	0.591803	-0.571556	-0.433736
C285	C	0.616500	-0.613377	-0.435095
H286	H	0.560350	-0.572912	-0.453243
H287	H	0.584118	-0.563855	-0.398621
H288	H	0.614192	-0.549532	-0.448430
H289	H	0.594114	-0.635399	-0.420396
H290	H	0.624181	-0.621082	-0.470210
H291	H	0.694712	-0.472677	-0.312605
H292	H	0.849716	-0.135570	-0.801826
H293	H	-0.044960	-0.164338	-0.191499
O294	O	0.821551	-0.159710	-0.949728
C295	C	0.851100	-0.134361	-0.985550
H296	H	0.829690	-0.132799	-1.024468
H297	H	0.890794	-0.150817	-0.991364
C298	C	0.884974	-0.088467	-0.916456
C299	C	0.858676	-0.086546	-0.964254
H300	H	0.889649	-0.058974	-0.903320
H301	H	0.865068	-0.105547	-0.892322
H302	H	0.918049	-0.102183	-0.921307
H303	H	0.825598	-0.072836	-0.959402
H304	H	0.878576	-0.069463	-0.988388
H305	H	0.694887	-0.959956	-0.312658
O306	O	0.058302	-0.159792	-0.186196
C307	C	0.022491	-0.134395	-0.156752
H308	H	-0.016444	-0.152800	-0.154914
H309	H	0.016714	-0.100299	-0.175969
C310	C	0.091590	-0.105246	-0.103372
C311	C	0.043771	-0.127852	-0.101111
H312	H	0.104717	-0.101207	-0.069050
H313	H	0.115717	-0.122354	-0.123209
H314	H	0.086770	-0.076835	-0.119388
H315	H	0.048593	-0.156265	-0.085101
H316	H	0.019645	-0.110749	-0.081269
O317	O	0.656065	-0.301834	-0.698490
C318	C	0.626528	-0.327172	-0.734290
H319	H	0.647945	-0.328714	-0.773219
H320	H	0.586832	-0.310719	-0.740083
C321	C	0.592649	-0.373100	-0.665166
C322	C	0.618956	-0.374997	-0.712979
H323	H	0.587976	-0.402599	-0.652020
H324	H	0.612547	-0.356028	-0.641047
H325	H	0.559571	-0.359386	-0.670001
H326	H	0.652035	-0.388705	-0.708143
H327	H	0.599063	-0.392072	-0.737097
H328	H	0.457377	-0.164299	-0.191433
H329	H	0.694677	-0.387554	-0.312587
