data_functionalizedCrystal
_audit_creation_method	'MofGen! by Chris Wilmer'
_symmetry_space_group_name_H-M	'P1'
_symmetry_Int_Tables_number	1
_symmetry_cell_setting	triclinic
loop_
_symmetry_equiv_pos_as_xyz
  x,y,z
_cell_length_a	10.654550
_cell_length_b	10.723024
_cell_length_c	9.130313
_cell_angle_alpha	89.999893
_cell_angle_beta	89.996220
_cell_angle_gamma	84.476386
loop_
_atom_site_label
_atom_site_type_symbol
_atom_site_fract_x
_atom_site_fract_y
_atom_site_fract_z
O1	O	1.667808	0.175269	-0.121916
O2	O	1.302327	0.191968	-0.121892
O3	O	1.493498	0.002044	-0.121899
O4	O	1.476637	0.365194	-0.121909
O5	O	1.493495	0.002049	0.121700
O6	O	1.302324	0.191973	0.121707
O7	O	1.667805	0.175274	0.121683
Cu8	Cu	1.485065	0.183624	0.143937
Cu9	Cu	1.485067	0.183618	-0.144146
O10	O	1.476634	0.365199	0.121690
C11	C	1.255528	0.190745	-0.000089
C12	C	1.116085	0.187076	-0.000080
C13	C	1.492269	-0.044454	-0.000101
C14	C	1.488598	-0.183008	-0.000106
C15	C	1.036583	0.298901	-0.000105
C16	C	0.905562	0.295446	-0.000130
C17	C	0.933560	0.068333	-0.000113
C18	C	1.064578	0.071789	-0.000077
C19	C	1.020417	0.430023	-0.000121
C20	C	0.889397	0.426568	-0.000146
C21	C	1.595568	-0.257975	-0.000115
C22	C	1.591776	-0.401179	-0.000120
C23	C	1.714604	0.176498	-0.000123
C24	C	1.854047	0.180166	-0.000141
C25	C	1.477863	0.411696	-0.000111
C26	C	1.481534	0.550251	-0.000116
N27	N	1.485072	0.183628	0.346560
N28	N	1.485070	0.183605	-0.346769
C29	C	1.569744	0.099558	0.423209
C30	C	1.569741	0.099543	0.576546
C31	C	1.400389	0.267679	0.576571
C32	C	1.400387	0.267687	0.423237
C33	C	1.667522	0.002490	0.423195
C34	C	1.667519	0.002475	0.576532
H35	H	0.891606	-0.025530	-0.000132
O36	O	0.839715	0.485674	-0.121727
C37	C	0.868434	0.611310	-0.121474
H38	H	0.955249	0.620198	-0.050674
H39	H	0.888163	0.641573	-0.238262
H40	H	0.785117	0.673750	-0.075284
O41	O	1.782590	0.027916	0.626433
C42	C	1.782360	0.027880	0.780857
H43	H	1.705645	-0.030369	0.822288
H44	H	1.878040	-0.014157	0.822649
H45	H	1.763211	0.128135	0.822504
H46	H	1.394211	-0.224844	-0.000110
O47	O	1.318081	0.349160	0.651222
C48	C	1.240013	0.281599	0.739884
H49	H	1.289200	0.184409	0.762839
H50	H	1.220588	0.333492	0.847717
H51	H	1.147126	0.272265	0.680793
H52	H	1.129305	-0.019270	-0.000036
H53	H	1.683350	-0.465598	-0.000121
H54	H	1.331429	0.336132	0.360831
H55	H	1.646094	-0.093428	0.381580
H56	H	1.389955	-0.385338	-0.000098
H57	H	1.056067	0.471772	-0.105294
H58	H	0.843719	0.466197	0.105021
O59	O	1.055373	0.491016	0.121652
C60	C	1.018921	0.427480	0.247584
H61	H	1.008129	0.325605	0.218856
H62	H	1.093983	0.431309	0.336016
H63	H	0.925177	0.474147	0.289714
O64	O	1.708256	-0.208228	0.000069
C65	C	1.776973	-0.248378	0.126241
H66	H	1.742093	-0.339006	0.168310
H67	H	1.881413	-0.265405	0.097854
H68	H	1.762980	-0.173190	0.214584
O69	O	1.776288	0.038935	0.366635
C70	C	1.792356	0.161404	0.414466
H71	H	1.736730	0.181884	0.519817
H72	H	1.896628	0.169838	0.435762
H73	H	1.756706	0.231521	0.326501
H74	H	1.637019	-0.088166	0.624084
