data_functionalizedCrystal
_audit_creation_method	'MofGen! by Chris Wilmer'
_symmetry_space_group_name_H-M	'P1'
_symmetry_Int_Tables_number	1
_symmetry_cell_setting	triclinic
loop_
_symmetry_equiv_pos_as_xyz
  x,y,z
_cell_length_a	9.565339
_cell_length_b	14.044220
_cell_length_c	14.044220
_cell_angle_alpha	93.188878
_cell_angle_beta	89.999264
_cell_angle_gamma	90.001002
loop_
_atom_site_label
_atom_site_type_symbol
_atom_site_fract_x
_atom_site_fract_y
_atom_site_fract_z
O1	O	0.116117	-1.277167	-0.230161
O2	O	0.616117	-0.777167	0.269839
O3	O	0.116152	-1.000495	-0.221855
O4	O	0.616152	-0.500495	0.278145
O5	O	0.116121	-1.134678	-0.087672
O6	O	0.616121	-0.634678	0.412328
O7	O	0.116148	-1.142984	-0.364344
O8	O	0.616148	-0.642984	0.135656
O9	O	-0.116399	-1.134667	-0.087680
O10	O	0.383601	-0.634667	0.412320
O11	O	-0.116368	-1.000485	-0.221863
O12	O	0.383632	-0.500485	0.278137
O13	O	-0.116403	-1.277156	-0.230169
O14	O	0.383597	-0.777156	0.269831
Zn15	Zn	-0.153303	-1.138819	-0.226017
Zn16	Zn	0.346697	-0.638819	0.273983
Zn17	Zn	0.153052	-1.138833	-0.226007
Zn18	Zn	0.653052	-0.638833	0.273993
O19	O	-0.116372	-1.142973	-0.364352
O20	O	0.383628	-0.642973	0.135648
C21	C	-0.000104	-0.964868	-0.218223
C22	C	0.499896	-0.464868	0.281777
C23	C	-0.000091	-0.858725	-0.207379
C24	C	0.499909	-0.358725	0.292621
N25	N	-0.362383	-1.138816	-0.226025
N26	N	0.137617	-0.638816	0.273975
C27	C	-0.000139	-1.131037	-0.052054
C28	C	0.499861	-0.631037	0.447946
C29	C	-0.000139	-1.120193	0.054088
C30	C	0.499861	-0.620193	0.554088
C31	C	-0.453571	-1.076738	-0.288056
C32	C	0.046429	-0.576738	0.211944
C33	C	-0.546759	-1.164577	-0.313875
C34	C	-0.046759	-0.664577	0.186125
C35	C	-0.546750	-1.051015	-0.200215
C36	C	-0.046750	-0.551015	0.299785
C37	C	-0.453519	-1.226701	-0.251891
C38	C	0.046481	-0.726701	0.248109
C39	C	-0.453501	-1.113080	-0.138189
C40	C	0.046499	-0.613080	0.361811
C41	C	-0.546647	-1.200978	-0.163977
C42	C	-0.046647	-0.700978	0.336023
N43	N	0.362131	-1.138843	-0.225992
N44	N	0.862131	-0.638843	0.274008
C45	C	-0.000145	-1.312783	-0.233800
C46	C	0.499855	-0.812783	0.266200
C47	C	-0.000148	-1.418926	-0.244645
C48	C	0.499852	-0.918926	0.255355
C49	C	-0.000120	-0.664388	-0.187553
C50	C	0.499880	-0.164388	0.312447
C51	C	-0.000119	-0.613258	-0.264467
C52	C	0.499881	-0.113258	0.235533
C53	C	-0.000135	-0.505122	-0.253435
C54	C	0.499865	-0.005122	0.246565
C55	C	-0.000104	-0.772534	-0.198583
C56	C	0.499896	-0.272534	0.301417
C57	C	-0.000109	-1.146614	-0.399969
C58	C	0.499891	-0.646614	0.100031
C59	C	-0.000100	-1.157459	-0.506112
C60	C	0.499900	-0.657459	-0.006112
C61	C	-0.000117	-1.100366	0.248426
C62	C	0.499883	-0.600366	0.748426
C63	C	-0.000122	-1.177281	0.299556
C64	C	0.499878	-0.677281	0.799556
C65	C	-0.000110	-1.166249	0.407692
C66	C	0.499890	-0.666249	0.907692
C67	C	-0.000129	-1.111397	0.140280
C68	C	0.499871	-0.611397	0.640280
H69	H	-0.587722	-1.186363	-0.388143
H70	H	-0.087722	-0.686363	0.111857
C71	C	-0.000115	-1.000225	0.298997
C72	C	0.499885	-0.500225	0.798997
H73	H	-0.000124	-1.005856	0.366095
H74	H	0.499876	-0.505856	0.866095
H75	H	0.080965	-0.966516	0.281054
H76	H	0.580965	-0.466516	0.781054
H77	H	-0.081215	-0.966528	0.281057
H78	H	0.418785	-0.466528	0.781057
H79	H	-0.412705	-1.024298	-0.340570
H80	H	0.087295	-0.524298	0.159430
H81	H	-0.587258	-1.253548	-0.111507
H82	H	-0.087258	-0.753548	0.388493
H83	H	-0.412506	-1.091269	-0.063942
H84	H	0.087494	-0.591269	0.436058
C85	C	-0.000123	-0.613822	-0.087409
C86	C	0.499877	-0.113822	0.412591
H87	H	-0.000127	-0.660120	-0.040597
H88	H	0.499873	-0.160120	0.459403
H89	H	0.080957	-0.575070	-0.079925
H90	H	0.580957	-0.075070	0.420075
H91	H	-0.081222	-0.575081	-0.079920
H92	H	0.418778	-0.075081	0.420080
H93	H	-0.587706	-0.976753	-0.178401
H94	H	-0.087706	-0.476753	0.321599
H95	H	-0.412738	-1.300987	-0.273794
H96	H	0.087262	-0.800987	0.226206
H97	H	-0.000105	-0.650697	-0.338600
H98	H	0.499895	-0.150697	0.161400
C99	C	-0.000166	-1.277429	0.248986
C100	C	0.499834	-0.777429	0.748986
H101	H	-0.000189	-1.271804	0.181886
H102	H	0.499811	-0.771804	0.681886
H103	H	0.080906	-1.311149	0.266920
H104	H	0.580906	-0.811149	0.766920
H105	H	-0.081274	-1.311112	0.266939
H106	H	0.418726	-0.811112	0.766939
