data_functionalizedCrystal
_audit_creation_method	'MofGen! by Chris Wilmer'
_symmetry_space_group_name_H-M	'P1'
_symmetry_Int_Tables_number	1
_symmetry_cell_setting	triclinic
loop_
_symmetry_equiv_pos_as_xyz
  x,y,z
_cell_length_a	21.295417
_cell_length_b	21.295419
_cell_length_c	21.295120
_cell_angle_alpha	89.933046
_cell_angle_beta	89.638316
_cell_angle_gamma	90.045308
loop_
_atom_site_label
_atom_site_type_symbol
_atom_site_fract_x
_atom_site_fract_y
_atom_site_fract_z
Zn1	Zn	-0.248320	0.962621	-0.355923
Zn2	Zn	0.251680	1.462621	0.144077
Zn3	Zn	-0.354197	0.962445	-0.250645
Zn4	Zn	0.145803	1.462445	0.249355
Zn5	Zn	-0.248972	0.857265	-0.250665
Zn6	Zn	0.251028	1.357265	0.249335
Zn7	Zn	-0.353583	0.857313	-0.355880
Zn8	Zn	0.146417	1.357313	0.144120
O9	O	-0.301268	0.909911	-0.303278
O10	O	0.198732	1.409911	0.196722
O11	O	-0.262349	1.050687	-0.341968
O12	O	0.237651	1.550687	0.158032
O13	O	-0.340768	0.948399	-0.162555
O14	O	0.159232	1.448399	0.337445
O15	O	-0.160796	0.871295	-0.264654
O16	O	0.339204	1.371295	0.235346
O17	O	-0.340136	1.050557	-0.264620
O18	O	0.159864	1.550557	0.235380
O19	O	-0.160317	0.948699	-0.341987
O20	O	0.339683	1.448699	0.158013
O21	O	-0.263460	0.871124	-0.162570
O22	O	0.236540	1.371124	0.337430
O23	O	-0.262865	0.769182	-0.264612
O24	O	0.237135	1.269182	0.235388
O25	O	-0.339089	0.871376	-0.443979
O26	O	0.160911	1.371376	0.056021
O27	O	-0.339722	0.769218	-0.341914
O28	O	0.160278	1.269218	0.158086
O29	O	-0.261753	0.948745	-0.444010
O30	O	0.238247	1.448745	0.055990
O31	O	-0.442205	0.948445	-0.264579
O32	O	0.057795	1.448445	0.235421
O33	O	-0.441754	0.871205	-0.341895
O34	O	0.058246	1.371205	0.158105
C35	C	-0.301298	0.746359	-0.303261
C36	C	0.198702	1.246359	0.196739
C37	C	-0.301326	0.676391	-0.303268
C38	C	0.198674	1.176391	0.196732
C39	C	-0.464820	0.909828	-0.303244
C40	C	0.035180	1.409828	0.196756
C41	C	-0.534788	0.909851	-0.303250
C42	C	-0.034788	1.409851	0.196750
C43	C	-0.260888	0.643614	-0.343605
C44	C	0.239112	1.143614	0.156395
C45	C	-0.260871	0.577872	-0.343608
C46	C	0.239129	1.077872	0.156392
C47	C	-0.301303	0.544909	-0.303280
C48	C	0.198697	1.044909	0.196720
C49	C	-0.341745	0.577693	-0.262935
C50	C	0.158255	1.077693	0.237065
C51	C	-0.341756	0.643435	-0.262929
C52	C	0.158244	1.143435	0.237071
N53	N	-0.356410	0.441630	-0.298360
N54	N	0.143590	0.941630	0.201640
N55	N	-0.356397	0.379178	-0.298369
N56	N	0.143603	0.879178	0.201631
C57	C	-0.301271	0.346834	-0.303293
C58	C	0.198729	0.846834	0.196707
N59	N	-0.246156	0.379301	-0.308221
N60	N	0.253844	0.879301	0.191779
N61	N	-0.246169	0.441758	-0.308215
N62	N	0.253831	0.941758	0.191785
C63	C	-0.301295	0.473623	-0.303281
C64	C	0.198705	0.973623	0.196719
C65	C	-0.260811	0.242772	-0.343635
C66	C	0.239189	0.742772	0.156365
C67	C	-0.260793	0.177028	-0.343633
C68	C	0.239207	0.677028	0.156367
C69	C	-0.341672	0.176851	-0.262964
C70	C	0.158328	0.676851	0.237036
C71	C	-0.341685	0.242593	-0.262962
C72	C	0.158315	0.742593	0.237038
C73	C	-0.301255	0.275550	-0.303302
C74	C	0.198745	0.775550	0.196698
C75	C	-0.567868	0.950105	-0.263032
C76	C	-0.067868	1.450105	0.236968
C77	C	-0.633610	0.950135	-0.263047
C78	C	-0.133610	1.450135	0.236953
C79	C	-0.666270	0.909899	-0.303271
C80	C	-0.166270	1.409899	0.196729
C81	C	-0.633182	0.869641	-0.343496
C82	C	-0.133182	1.369641	0.156504
C83	C	-0.567441	0.869617	-0.343485
C84	C	-0.067441	1.369617	0.156515
N85	N	-0.769522	0.854835	-0.308064
N86	N	-0.269522	1.354835	0.191936
N87	N	-0.831974	0.854860	-0.308071
N88	N	-0.331974	1.354860	0.191929
C89	C	-0.864344	0.909969	-0.303307
C90	C	-0.364344	1.409969	0.196693
N91	N	-0.831905	0.965054	-0.298525
N92	N	-0.331905	1.465054	0.201475
N93	N	-0.769447	0.965029	-0.298515
N94	N	-0.269447	1.465029	0.201485
C95	C	-0.737555	0.909920	-0.303288
C96	C	-0.237555	1.409920	0.196712
C97	C	-0.968710	0.950259	-0.263103
C98	C	-0.468710	1.450259	0.236897
C99	C	-1.034454	0.950290	-0.263122
C100	C	-0.534454	1.450290	0.236878
C101	C	-1.034024	0.869790	-0.343568
C102	C	-0.534024	1.369790	0.156432
C103	C	-0.968282	0.869765	-0.343553
C104	C	-0.468282	1.369765	0.156447
C105	C	-0.935629	0.909999	-0.303317
C106	C	-0.435629	1.409999	0.196683
C107	C	-0.137077	0.910011	-0.303327
C108	C	0.362923	1.410011	0.196673
C109	C	-0.067109	0.910054	-0.303348
C110	C	0.432891	1.410054	0.196652
C111	C	-0.300280	0.910086	-0.467474
C112	C	0.199720	1.410086	0.032526
C113	C	-0.299859	0.910160	-0.537445
C114	C	0.200141	1.410160	-0.037445
C115	C	-0.301238	1.074101	-0.303296
C116	C	0.198762	1.574101	0.196704
C117	C	-0.301225	1.144069	-0.303304
C118	C	0.198775	1.644069	0.196696
C119	C	-0.302206	0.909773	-0.139721
C120	C	0.197794	1.409773	0.360279
C121	C	-0.302450	0.909821	-0.069751
C122	C	0.197550	1.409821	0.430249
C123	C	-0.261731	0.949824	-0.037411
C124	C	0.238269	1.449824	0.462589
C125	C	-0.261413	0.949871	0.028329
C126	C	0.238587	1.449871	0.528329
C127	C	-0.301807	0.909902	0.061728
C128	C	0.198193	1.409902	0.561728
C129	C	-0.342534	0.869896	0.029380
C130	C	0.157466	1.369896	0.529380
C131	C	-0.342856	0.869856	-0.036359
C132	C	0.157144	1.369856	0.463641
N133	N	-0.306541	0.854897	0.165101
N134	N	0.193459	1.354897	0.665101
N135	N	-0.306233	0.854938	0.227551
N136	N	0.193767	1.354938	0.727551
C137	C	-0.300843	0.910024	0.259796
C138	C	0.199157	1.410024	0.759796
N139	N	-0.295761	0.965068	0.227233
N140	N	0.204239	1.465068	0.727233
N141	N	-0.296067	0.965027	0.164778
N142	N	0.203933	1.465027	0.664778
C143	C	-0.301464	0.909942	0.133011
C144	C	0.198536	1.409942	0.633011
C145	C	-0.259777	0.950080	0.363420
C146	C	0.240223	1.450080	0.863420
C147	C	-0.259463	0.950128	0.429162
C148	C	0.240537	1.450128	0.929162
C149	C	-0.340581	0.870148	0.430211
C150	C	0.159419	1.370148	0.930211
C151	C	-0.340898	0.870106	0.364470
C152	C	0.159102	1.370106	0.864470
C153	C	-0.300493	0.910071	0.331079
C154	C	0.199507	1.410071	0.831079
H155	H	-0.227966	0.670444	-0.376452
H156	H	0.272034	1.170444	0.123548
H157	H	-0.374665	0.550851	-0.230099
H158	H	0.125335	1.050851	0.269901
F159	F	-0.384700	0.141773	-0.220039
F160	F	0.115300	0.641773	0.279961
F161	F	-0.218073	0.992449	0.062755
F162	F	0.281927	1.492449	0.562755
F163	F	-0.383578	0.827616	0.465751
F164	F	0.116422	1.327616	0.965751
H165	H	-0.228832	0.982370	-0.064595
H166	H	0.271168	1.482370	0.435405
H167	H	-0.374054	0.837529	0.338139
H168	H	0.125946	1.337529	0.838139
F169	F	-0.533120	0.992932	-0.220217
F170	F	-0.033120	1.492932	0.279783
F171	F	-0.216126	0.992711	0.463580
F172	F	0.283874	1.492711	0.963580
F173	F	-0.668824	0.992980	-0.220240
F174	F	-0.168824	1.492980	0.279760
H175	H	-0.659777	0.836882	-0.376249
H176	H	-0.159777	1.336882	0.123751
F177	F	-0.217828	0.542981	-0.386541
F178	F	0.282172	1.042981	0.113459
H179	H	-0.540506	0.836837	-0.376236
H180	H	-0.040506	1.336837	0.123764
F181	F	-0.384796	0.678319	-0.219993
F182	F	0.115204	1.178319	0.280007
F183	F	-0.386197	0.827277	-0.070779
F184	F	0.113803	1.327277	0.429221
F185	F	-0.217779	0.277849	-0.386563
F186	F	0.282221	0.777849	0.113437
F187	F	-0.933957	0.993078	-0.220281
F188	F	-0.433957	1.493078	0.279719
H189	H	-0.375425	0.837355	0.056577
H190	H	0.124575	1.337355	0.556577
H191	H	-1.061387	0.983073	-0.230374
H192	H	-0.561387	1.483073	0.269626
F193	F	-0.216766	0.992605	0.327880
F194	F	0.283234	1.492605	0.827880
F195	F	-1.068778	0.826971	-0.386383
F196	F	-0.568778	1.326971	0.113617
F197	F	-0.384723	0.277478	-0.220028
F198	F	0.115277	0.777478	0.279972
F199	F	-0.933074	0.826918	-0.386356
F200	F	-0.433074	1.326918	0.113644
H201	H	-0.227859	0.150342	-0.376480
H202	H	0.272141	0.650342	0.123520
