data_functionalizedCrystal
_audit_creation_method	'MofGen! by Chris Wilmer'
_symmetry_space_group_name_H-M	'P1'
_symmetry_Int_Tables_number	1
_symmetry_cell_setting	triclinic
loop_
_symmetry_equiv_pos_as_xyz
  x,y,z
_cell_length_a	14.395555
_cell_length_b	14.395555
_cell_length_c	14.395555
_cell_angle_alpha	59.999631
_cell_angle_beta	90.003714
_cell_angle_gamma	60.000146
loop_
_atom_site_label
_atom_site_type_symbol
_atom_site_fract_x
_atom_site_fract_y
_atom_site_fract_z
Zr1	Zr	0.894901	1.016797	-0.121933
O2	O	0.746567	1.210601	-0.270278
O3	O	0.940374	0.822992	-0.076447
O4	O	0.940371	1.016786	-0.270253
O5	O	0.746571	1.016817	0.076394
O6	O	1.093246	1.016779	-0.270245
O7	O	0.746570	1.016807	-0.076472
O8	O	1.093251	0.670118	0.076439
O9	O	0.746565	1.363478	-0.270290
O10	O	1.073855	0.902703	-0.057054
O11	O	0.959767	0.902715	0.057022
O12	O	0.959763	1.130882	-0.171160
O13	O	0.845675	1.130895	-0.057084
Zr14	Zr	1.138718	1.016802	0.121883
Zr15	Zr	1.138717	1.016786	-0.121920
Zr16	Zr	0.894901	1.016813	0.121870
Zr17	Zr	0.894897	1.260619	-0.121952
Zr18	Zr	1.138721	0.772980	0.121902
O19	O	1.093244	1.210607	0.076397
O20	O	1.093243	1.210585	-0.270260
O21	O	0.746568	1.210623	0.076379
O22	O	1.287051	0.822999	0.270229
O23	O	1.287050	0.822977	-0.076428
O24	O	0.940375	0.823015	0.270210
O25	O	1.287048	1.016783	-0.076443
O26	O	1.093247	1.016814	0.270203
O27	O	0.940373	1.016821	0.270195
O28	O	1.287048	1.016792	0.076423
O29	O	0.940367	1.363469	-0.270280
O30	O	1.093251	0.670130	0.270230
O31	O	1.287053	0.670121	0.270240
O32	O	1.287052	0.670109	0.076449
O33	O	0.746566	1.363491	-0.076499
O34	O	0.940367	1.363482	-0.076489
O35	O	1.073855	0.902717	0.171110
O36	O	1.187943	0.902705	0.057034
O37	O	1.073852	1.130884	-0.057072
O38	O	0.959764	1.130897	0.057004
C39	C	1.016813	0.711815	-0.000001
C40	C	1.016814	0.608307	0.000007
C41	C	0.954593	0.485842	0.062167
C42	C	1.061872	0.471561	0.107292
C43	C	0.909556	0.623926	-0.045065
C44	C	1.124146	0.409586	0.045130
C45	C	0.971752	0.562015	-0.107286
C46	C	1.079095	0.547687	-0.062189
C47	C	0.711832	1.016813	-0.000041
C48	C	0.608325	1.016818	-0.000046
C49	C	0.485529	1.141232	-0.062252
C50	C	0.454694	1.079032	-0.107321
C51	C	0.454737	1.079013	0.045015
C52	C	0.578854	0.954618	-0.045179
C53	C	0.578893	0.954616	0.107217
C54	C	0.548132	0.892326	0.062174
C55	C	1.321786	1.016786	-0.000008
C56	C	1.425293	1.016781	-0.000003
C57	C	1.016808	1.016780	-0.304985
C58	C	1.016808	1.016773	-0.408486
C59	C	1.016805	1.321784	-0.000048
C60	C	1.016804	1.425293	-0.000056
C61	C	1.079021	0.892383	-0.468781
C62	C	1.124113	0.954543	-0.437911
C63	C	0.971768	0.954581	-0.437966
C64	C	1.061965	1.078987	-0.562057
C65	C	0.909560	1.079008	-0.562108
C66	C	0.954626	1.141258	-0.531311
C67	C	1.016810	1.016819	0.304936
C68	C	1.016810	1.016826	0.408437
C69	C	1.321790	0.711802	0.000015
C70	C	1.425298	0.608288	0.000029
C71	C	1.016814	0.711835	0.304960
C72	C	1.016815	0.608333	0.408468
C73	C	1.321791	0.711821	0.304976
C74	C	1.425299	0.608314	0.408490
C75	C	0.711827	1.321778	-0.305025
C76	C	0.608319	1.425285	-0.408540
C77	C	0.711828	1.321798	-0.000065
C78	C	0.608320	1.425311	-0.000078
C79	C	1.016804	1.321764	-0.305009
C80	C	1.016803	1.425267	-0.408518
C81	C	1.548094	0.547727	0.062209
C82	C	1.578957	0.409614	0.107273
C83	C	1.578861	0.562016	-0.045075
C84	C	1.454798	0.471474	0.045156
C85	C	1.454705	0.623951	-0.107252
C86	C	1.485495	0.485847	-0.062214
C87	C	0.954608	0.547747	0.406856
C88	C	1.061890	0.409640	0.499889
C89	C	0.909573	0.561988	0.499876
C90	C	1.124161	0.471526	0.500139
C91	C	0.971766	0.623947	0.500112
C92	C	1.079112	0.485849	0.593162
C93	C	1.423686	0.547710	0.531283
C94	C	1.516679	0.409605	0.562091
C95	C	1.516745	0.561885	0.562119
C96	C	1.516929	0.471510	0.437935
C97	C	1.516981	0.623864	0.437966
C98	C	1.609992	0.485768	0.468701
H99	H	0.902067	0.458590	0.114823
C100	C	0.883571	1.283477	-0.565922
N101	N	0.830059	1.390595	-0.591987
C102	C	1.246643	0.883484	-0.365606
N103	N	1.338933	0.829954	-0.311143
H104	H	1.100161	1.131542	-0.615405
C105	C	1.582456	0.584310	0.133382
N106	N	1.608333	0.611862	0.186993
C107	C	1.382751	0.420919	0.096789
N108	N	1.328487	0.382842	0.135683
H109	H	0.818879	1.131561	-0.615623
C110	C	1.651109	0.612314	-0.096561
N111	N	1.705527	0.650197	-0.135332
H112	H	1.131693	0.787194	-0.443369
H113	H	1.632498	0.317973	0.197960
C114	C	0.920231	0.747778	0.498768
N115	N	0.881401	0.841060	0.497745
C116	C	1.315939	0.584323	0.565653
N117	N	1.234788	0.611895	0.591544
H118	H	0.933673	0.901966	-0.384473
C119	C	0.920221	0.612270	-0.229804
N120	N	0.881394	0.650126	-0.322085
C121	C	1.450844	0.449333	-0.133285
N122	N	1.424749	0.421823	-0.186809
H123	H	1.689624	0.458721	0.443051
C124	C	1.517904	0.285845	0.634353
N125	N	1.518820	0.192634	0.688781
C126	C	1.150272	0.584118	-0.133222
N127	N	1.203887	0.611555	-0.186718
C128	C	0.883649	0.584341	0.299097
N129	N	0.830210	0.611901	0.217932
C130	C	1.113380	0.285851	0.501163
N131	N	1.152153	0.192618	0.502116
C132	C	1.246752	0.421017	0.499033
N133	N	1.339086	0.382975	0.498195
H134	H	1.517737	0.598919	0.615745
C135	C	0.787018	0.747685	-0.096532
N136	N	0.694721	0.840892	-0.135290
C137	C	1.150291	0.449324	0.700749
N138	N	1.203907	0.421805	0.781785
C139	C	0.787037	0.612243	0.501091
N140	N	0.694742	0.650096	0.501998
C141	C	1.515779	0.421052	0.365819
N142	N	1.514907	0.383048	0.311503
C143	C	1.515723	0.747641	0.365716
N144	N	1.514779	0.840873	0.311304
H145	H	0.632409	0.902084	0.197891
H146	H	1.100009	0.434294	0.198013
H147	H	0.401175	1.131610	-0.198015
H148	H	0.401231	1.131623	0.083106
H149	H	1.401167	0.715615	-0.197920
H150	H	1.214891	0.318016	0.083331
H151	H	0.632213	0.902069	-0.083374
H152	H	0.460084	1.246435	-0.114938
H153	H	0.573791	0.787037	0.114786
