data_functionalizedCrystal
_audit_creation_method	'MofGen! by Chris Wilmer'
_symmetry_space_group_name_H-M	'P1'
_symmetry_Int_Tables_number	1
_symmetry_cell_setting	triclinic
loop_
_symmetry_equiv_pos_as_xyz
  x,y,z
_cell_length_a	18.215407
_cell_length_b	18.101395
_cell_length_c	18.215399
_cell_angle_alpha	89.971163
_cell_angle_beta	89.983176
_cell_angle_gamma	90.031552
loop_
_atom_site_label
_atom_site_type_symbol
_atom_site_fract_x
_atom_site_fract_y
_atom_site_fract_z
Zn1	Zn	1.125018	-0.294811	-0.416124
Zn2	Zn	1.124920	-0.418662	-0.293061
Zn3	Zn	1.001957	-0.294840	-0.293071
Zn4	Zn	1.001903	-0.418616	-0.416086
O5	O	1.063450	-0.356732	-0.354585
O6	O	1.227989	-0.311247	-0.399811
O7	O	1.108590	-0.402269	-0.190078
O8	O	1.018345	-0.191203	-0.309415
O9	O	1.227917	-0.402240	-0.309397
O10	O	1.108758	-0.191182	-0.399821
O11	O	1.018250	-0.311297	-0.190085
O12	O	0.898966	-0.311252	-0.309378
O13	O	1.018254	-0.402161	-0.519075
O14	O	0.898926	-0.402190	-0.399756
O15	O	1.108706	-0.311202	-0.519103
O16	O	1.108538	-0.522289	-0.309360
O17	O	1.018158	-0.522255	-0.399746
C18	C	0.872243	-0.356720	-0.354564
C19	C	0.790445	-0.356732	-0.354573
C20	C	0.602249	-0.404158	-0.401573
C21	C	0.525391	-0.404160	-0.401583
C22	C	0.525402	-0.309320	-0.307613
C23	C	0.602260	-0.309315	-0.307608
C24	C	0.640681	-0.356738	-0.354587
C25	C	0.486965	-0.356746	-0.354601
C26	C	0.403631	-0.356748	-0.354611
C27	C	0.724020	-0.356735	-0.354579
C28	C	1.063351	-0.549143	-0.354564
C29	C	1.063376	-0.631457	-0.354579
C30	C	1.063538	-0.930548	-0.354619
C31	C	1.006805	-0.899232	-0.411628
C32	C	1.006536	-0.813614	-0.411450
C33	C	1.063458	-0.782165	-0.354600
C34	C	1.042464	-0.813319	-0.277038
C35	C	1.042098	-0.898964	-0.277380
C36	C	1.141388	-0.898890	-0.374487
C37	C	1.140931	-0.813239	-0.376188
C38	C	1.063414	-0.698306	-0.354584
C39	C	1.063580	-1.014407	-0.354629
C40	C	1.255403	-0.356746	-0.354607
C41	C	1.337201	-0.356751	-0.354616
C42	C	1.063484	-0.356673	-0.546538
C43	C	1.063499	-0.356648	-0.628337
C44	C	1.063569	-0.163570	-0.354623
C45	C	1.063619	-0.081256	-0.354639
C46	C	1.016499	-0.309247	-0.816536
C47	C	1.016512	-0.309232	-0.893395
C48	C	1.110588	-0.403961	-0.893376
C49	C	1.110571	-0.403979	-0.816519
C50	C	1.063527	-0.356618	-0.778101
C51	C	1.063557	-0.356585	-0.931817
C52	C	1.063571	-0.356569	-1.015151
C53	C	1.063512	-0.356634	-0.694762
C54	C	1.063457	-0.356738	-0.163379
C55	C	1.063585	-0.356554	-0.081580
H56	H	1.019670	-0.792548	-0.468960
H57	H	1.148889	-0.442520	-0.924666
H58	H	0.978216	-0.270659	-0.924685
N59	N	0.483956	-0.258194	-0.256929
H60	H	0.452085	-0.223913	-0.286885
H61	H	0.452093	-0.288322	-0.222793
H62	H	0.633552	-0.270695	-0.269346
N63	N	1.024019	-0.926449	-0.488057
H64	H	1.068759	-0.959345	-0.486472
H65	H	0.980804	-0.955342	-0.507615
H66	H	0.633530	-0.442771	-0.439829
N67	N	0.483938	-0.455309	-0.452257
H68	H	0.519943	-0.485349	-0.482014
H69	H	0.452023	-0.489543	-0.422240
N70	N	0.966718	-0.925516	-0.255084
H71	H	0.929065	-0.906269	-0.291000
H72	H	0.965791	-0.981303	-0.255074
N73	N	1.199891	-0.784894	-0.325196
H74	H	1.237634	-0.756394	-0.354358
H75	H	1.177060	-0.751387	-0.287215
H76	H	1.148868	-0.442556	-0.785224
N77	N	0.930831	-0.927821	-0.394420
H78	H	0.933002	-0.960969	-0.349857
H79	H	0.897046	-0.884815	-0.384198
H80	H	0.948831	-0.793192	-0.398289
N81	N	1.197377	-0.925717	-0.319490
H82	H	1.236650	-0.954968	-0.345675
H83	H	1.220457	-0.881907	-0.294077
N84	N	1.094444	-0.926428	-0.219194
H85	H	1.145547	-0.907720	-0.230094
H86	H	1.078181	-0.907732	-0.169557
N87	N	1.095472	-0.786343	-0.219233
H88	H	1.133696	-0.753588	-0.242824
H89	H	1.067816	-0.757360	-0.180784
N90	N	0.967883	-0.784997	-0.254336
H91	H	0.947588	-0.751995	-0.294174
H92	H	0.933597	-0.828130	-0.246366
N93	N	1.166760	-0.927429	-0.448121
H94	H	1.130753	-0.911855	-0.487333
H95	H	1.216817	-0.906418	-0.459708
N96	N	1.161909	-0.786267	-0.451796
H97	H	1.121405	-0.754051	-0.471986
H98	H	1.208851	-0.756721	-0.448636
N99	N	0.965764	-0.258166	-0.775098
H100	H	0.935974	-0.228155	-0.811112
H101	H	0.931682	-0.288315	-0.743196
