data_functionalizedCrystal
_audit_creation_method	'MofGen! by Chris Wilmer'
_symmetry_space_group_name_H-M	'P1'
_symmetry_Int_Tables_number	1
_symmetry_cell_setting	triclinic
loop_
_symmetry_equiv_pos_as_xyz
  x,y,z
_cell_length_a	12.759400
_cell_length_b	12.759401
_cell_length_c	12.759393
_cell_angle_alpha	89.982498
_cell_angle_beta	89.968231
_cell_angle_gamma	90.015111
loop_
_atom_site_label
_atom_site_type_symbol
_atom_site_fract_x
_atom_site_fract_y
_atom_site_fract_z
Zn1	Zn	-0.418190	1.606244	-0.593985
Zn2	Zn	-0.593910	1.606142	-0.418305
Zn3	Zn	-0.418247	1.430549	-0.418324
Zn4	Zn	-0.593829	1.430535	-0.593946
O5	O	-0.506044	1.518367	-0.506140
O6	O	-0.441510	1.753251	-0.570689
O7	O	-0.570665	1.582812	-0.271286
O8	O	-0.271218	1.453905	-0.441650
O9	O	-0.570610	1.753176	-0.441618
O10	O	-0.271177	1.582987	-0.570707
O11	O	-0.441606	1.453805	-0.271300
O12	O	-0.441528	1.283526	-0.441612
O13	O	-0.570473	1.453879	-0.740972
O14	O	-0.570528	1.283516	-0.570641
O15	O	-0.441432	1.582972	-0.741001
O16	O	-0.740920	1.582798	-0.441580
O17	O	-0.740861	1.453780	-0.570623
C18	C	-0.506026	1.245400	-0.506125
C19	C	-0.506043	1.128623	-0.506144
C20	C	-0.438942	1.073801	-0.573455
C21	C	-0.438953	0.964077	-0.573462
C22	C	-0.573175	0.964007	-0.438844
C23	C	-0.573158	1.073729	-0.438832
C24	C	-0.315115	0.814156	-0.611230
C25	C	-0.248023	0.759330	-0.678557
C26	C	-0.232008	0.794985	-0.781096
C27	C	-0.283100	0.885464	-0.816328
C28	C	-0.350200	0.940284	-0.749006
C29	C	-0.366195	0.904631	-0.646453
C30	C	-0.696998	1.223652	-0.401075
C31	C	-0.764104	1.278475	-0.333757
C32	C	-0.780129	1.242822	-0.231217
C33	C	-0.729056	1.152340	-0.195989
C34	C	-0.661950	1.097517	-0.263306
C35	C	-0.645922	1.133177	-0.365845
C36	C	-0.779011	1.518305	-0.506118
C37	C	-0.895788	1.518374	-0.506144
C38	C	-0.950646	1.585629	-0.439025
C39	C	-1.060370	1.585693	-0.439058
C40	C	-1.060368	1.451240	-0.573330
C41	C	-0.950646	1.451182	-0.573302
C42	C	-0.895788	1.652821	-0.371867
C43	C	-0.950646	1.720080	-0.304743
C44	C	-1.060370	1.720144	-0.304775
C45	C	-1.115236	1.652950	-0.371932
C46	C	-0.232011	1.518459	-0.506185
C47	C	-0.115234	1.518497	-0.506204
C48	C	-0.505937	1.518436	-0.780173
C49	C	-0.505891	1.518465	-0.896950
C50	C	-0.506063	1.792401	-0.506155
C51	C	-0.506071	1.909177	-0.506162
C52	C	-0.438678	1.451319	-0.951825
C53	C	-0.438647	1.451351	-1.061550
C54	C	-0.573045	1.585683	-1.061513
C55	C	-0.573081	1.585645	-0.951791
C56	C	-0.371488	1.384139	-0.896984
C57	C	-0.304269	1.316989	-0.951860
C58	C	-0.304238	1.317021	-1.061584
C59	C	-0.371426	1.384203	-1.116432
C60	C	-0.506075	1.518360	-0.233172
C61	C	-0.505824	1.518534	-0.116396
H62	H	-0.391793	1.013954	-0.777689
H63	H	-0.805676	1.352160	-0.362443
H64	H	-0.371398	1.384220	-1.205777
H65	H	-0.249511	1.262337	-1.106260
O66	O	-0.897306	1.785200	-0.239401
C67	C	-0.773488	1.799339	-0.097572
C68	C	-0.833844	1.725469	-0.171490
H69	H	-0.722148	1.751077	-0.042662
H70	H	-0.831499	1.847403	-0.049530
H71	H	-0.722077	1.854239	-0.145860
H72	H	-0.885257	1.670505	-0.123282
H73	H	-0.775777	1.677478	-0.219534
H74	H	-0.384290	1.118493	-0.628261
O75	O	-1.221822	1.653208	-0.371974
C76	C	-1.379170	1.753990	-0.399165
C77	C	-1.258466	1.753854	-0.399136
H78	H	-1.408833	1.835347	-0.421144
H79	H	-1.409107	1.732321	-0.317792
H80	H	-1.408930	1.694368	-0.458657
H81	H	-1.228616	1.813477	-0.339695
H82	H	-1.228600	1.775476	-0.480547
O83	O	-1.113498	1.785512	-0.239479
C84	C	-1.101913	1.918905	-0.106338
C85	C	-1.041618	1.844915	-0.180221
H86	H	-1.043825	1.966967	-0.058424
H87	H	-1.153339	1.870777	-0.051307
H88	H	-1.153224	1.973801	-0.154648
H89	H	-0.990250	1.790003	-0.131996
H90	H	-0.990258	1.893107	-0.235255
O91	O	-1.113824	1.386001	-0.638457
C92	C	-1.282859	1.326545	-0.698044
C93	C	-1.222453	1.400469	-0.624220
H94	H	-1.370695	1.338233	-0.686575
H95	H	-1.261446	1.241805	-0.679514
H96	H	-1.261142	1.344924	-0.782760
H97	H	-1.244137	1.382185	-0.539479
H98	H	-1.243871	1.485188	-0.642840
O99	O	-0.371612	1.383935	-0.790400
C100	C	-0.398566	1.283135	-0.632935
C101	C	-0.398489	1.283224	-0.753639
H102	H	-0.420272	1.201714	-0.603178
H103	H	-0.458182	1.342603	-0.603073
H104	H	-0.317217	1.305015	-0.603195
H105	H	-0.479793	1.261318	-0.783469
H106	H	-0.338817	1.223778	-0.783431
O107	O	-0.744535	1.117531	-0.096426
C108	C	-0.702641	0.986668	0.033140
C109	C	-0.685028	1.025958	-0.079647
H110	H	-0.654523	0.912638	0.046748
H111	H	-0.789290	0.968506	0.045283
H112	H	-0.677094	1.049829	0.090915
H113	H	-0.710515	0.962842	-0.137493
H114	H	-0.598374	1.044150	-0.091703
H115	H	-0.806445	1.652773	-0.371830
H116	H	-0.905981	1.396418	-0.627957
H117	H	-0.249572	1.262286	-0.907195
H118	H	-0.328137	0.785125	-0.527731
H119	H	-0.627744	1.640381	-1.106180
H120	H	-0.270064	0.914480	-0.899829
O121	O	-0.166764	0.741633	-0.846348
C122	C	-0.051282	0.593715	-0.867381
C123	C	-0.125128	0.654052	-0.793376
H124	H	-0.017616	0.522882	-0.824590
H125	H	0.015351	0.647328	-0.893335
H126	H	-0.096978	0.566231	-0.939042
H127	H	-0.079522	0.681544	-0.721665
H128	H	-0.191761	0.600400	-0.767506
H129	H	-0.834802	1.287448	-0.176420
O130	O	-0.638409	1.650964	-0.898641
C131	C	-0.771770	1.784147	-0.910175
C132	C	-0.697813	1.710253	-0.970498
H133	H	-0.819833	1.832085	-0.968244
H134	H	-0.723616	1.839154	-0.858836
H135	H	-0.826666	1.735844	-0.858772
H136	H	-0.642902	1.758471	-1.021957
H137	H	-0.746033	1.655243	-1.021770
H138	H	-0.627818	0.919299	-0.384042
O139	O	-0.612164	1.009689	-0.229160
C140	C	-0.446576	0.924883	-0.196866
C141	C	-0.502823	1.024400	-0.235584
H142	H	-0.358164	0.936751	-0.202025
H143	H	-0.470324	0.855440	-0.247800
H144	H	-0.469610	0.908808	-0.112030
H145	H	-0.479818	1.040573	-0.320405
H146	H	-0.479073	1.093787	-0.184576
H147	H	-0.206424	0.685662	-0.649862
H148	H	-0.683946	1.252696	-0.484569
