data_functionalizedCrystal
_audit_creation_method	'MofGen! by Chris Wilmer'
_symmetry_space_group_name_H-M	'P1'
_symmetry_Int_Tables_number	1
_symmetry_cell_setting	triclinic
loop_
_symmetry_equiv_pos_as_xyz
  x,y,z
_cell_length_a	18.050589
_cell_length_b	16.959455
_cell_length_c	18.050582
_cell_angle_alpha	90.020733
_cell_angle_beta	90.018912
_cell_angle_gamma	90.025241
loop_
_atom_site_label
_atom_site_type_symbol
_atom_site_fract_x
_atom_site_fract_y
_atom_site_fract_z
Zn1	Zn	-0.295760	1.208342	0.420032
Zn2	Zn	0.204240	1.708342	0.920032
Zn3	Zn	-0.419945	1.208245	0.295852
Zn4	Zn	0.080055	1.708245	0.795852
Zn5	Zn	-0.295767	1.076169	0.295846
Zn6	Zn	0.204233	1.576169	0.795846
Zn7	Zn	-0.419907	1.076116	0.419990
Zn8	Zn	0.080093	1.576116	0.919990
O9	O	-0.357845	1.142218	0.357930
O10	O	0.142155	1.642218	0.857930
O11	O	-0.312247	1.318940	0.403580
O12	O	0.187753	1.818940	0.903580
O13	O	-0.403492	1.190706	0.191926
O14	O	0.096508	1.690706	0.691926
O15	O	-0.191842	1.093765	0.312335
O16	O	0.308158	1.593765	0.812335
O17	O	-0.403485	1.318868	0.312345
O18	O	0.096515	1.818868	0.812345
O19	O	-0.191837	1.190872	0.403574
O20	O	0.308163	1.690872	0.903574
O21	O	-0.312259	1.093671	0.191922
O22	O	0.187741	1.593671	0.691922
O23	O	-0.312221	0.965552	0.312293
O24	O	0.187779	1.465552	0.812293
O25	O	-0.403419	1.093675	0.523920
O26	O	0.096581	1.593675	1.023920
O27	O	-0.403426	0.965512	0.403501
O28	O	0.096574	1.465512	0.903501
O29	O	-0.312210	1.190820	0.523951
O30	O	0.187790	1.690820	1.023951
O31	O	-0.523865	1.190655	0.312304
O32	O	-0.023865	1.690655	0.812304
O33	O	-0.523836	1.093580	0.403507
O34	O	-0.023836	1.593580	0.903507
C35	C	-0.357821	0.936852	0.357893
C36	C	0.142179	1.436852	0.857893
C37	C	-0.357828	0.848995	0.357894
C38	C	0.142172	1.348995	0.857894
C39	C	-0.405306	0.477472	0.310400
C40	C	0.094694	0.977472	0.810400
C41	C	-0.310446	0.477567	0.405551
C42	C	0.189554	0.977567	0.905551
C43	C	-0.310434	0.560113	0.405533
C44	C	0.189566	1.060113	0.905533
C45	C	-0.357859	0.601342	0.357948
C46	C	0.142141	1.101342	0.857948
C47	C	-0.405296	0.560025	0.310382
C48	C	0.094704	1.060025	0.810382
C49	C	-0.263003	0.601436	0.453103
C50	C	0.236997	1.101436	0.953103
C51	C	-0.262989	0.683987	0.453088
C52	C	0.237011	1.183987	0.953088
C53	C	-0.310411	0.725218	0.405499
C54	C	0.189589	1.225218	0.905499
C55	C	-0.357850	0.683896	0.357930
C56	C	0.142150	1.183896	0.857930
C57	C	-0.405275	0.725125	0.310346
C58	C	0.094725	1.225125	0.810346
C59	C	-0.452710	0.683804	0.262773
C60	C	0.047290	1.183804	0.762773
C61	C	-0.452718	0.601256	0.262793
C62	C	0.047282	1.101256	0.762793
C63	C	-0.310403	0.807766	0.405479
C64	C	0.189597	1.307766	0.905479
C65	C	-0.405266	0.807678	0.310328
C66	C	0.094734	1.307678	0.810328
C67	C	-0.550797	1.142123	0.357918
C68	C	-0.050797	1.642123	0.857918
C69	C	-0.633343	1.142154	0.357937
C70	C	-0.133343	1.642154	0.857937
C71	C	-0.832805	1.089417	0.407516
C72	C	-0.332805	1.589417	0.907516
C73	C	-0.882239	1.070154	0.339748
C74	C	-0.382239	1.570154	0.839748
C75	C	-0.784473	1.142232	0.357947
C76	C	-0.284473	1.642232	0.857947
C77	C	-0.882121	1.161534	0.425724
C78	C	-0.382121	1.661534	0.925724
C79	C	-0.930458	1.142305	0.357962
C80	C	-0.430458	1.642305	0.857962
C81	C	-0.832820	1.122931	0.290142
C82	C	-0.332820	1.622931	0.790142
C83	C	-0.832698	1.214344	0.376164
C84	C	-0.332698	1.714344	0.876164
C85	C	-0.882109	1.195108	0.308348
C86	C	-0.382109	1.695108	0.808348
C87	C	-0.700375	1.142187	0.357939
C88	C	-0.200375	1.642187	0.857939
C89	C	-1.014555	1.142350	0.357962
C90	C	-0.514555	1.642350	0.857962
C91	C	-0.164139	1.142335	0.357959
C92	C	0.335861	1.642335	0.857959
C93	C	-0.081593	1.142385	0.357971
C94	C	0.418407	1.642385	0.857971
C95	C	-0.357810	1.142252	0.551636
C96	C	0.142190	1.642252	1.051636
C97	C	-0.357795	1.142267	0.634182
C98	C	0.142205	1.642267	1.134182
C99	C	-0.357870	1.348386	0.357968
C100	C	0.142130	1.848386	0.857968
C101	C	-0.357880	1.436243	0.357984
C102	C	0.142120	1.936243	0.857984
C103	C	-0.357827	1.142230	0.164978
C104	C	0.142173	1.642230	0.664978
C105	C	-0.357632	1.142368	0.082433
C106	C	0.142368	1.642368	0.582433
C107	C	-0.407314	1.089488	0.882990
C108	C	0.092686	1.589488	1.382990
C109	C	-0.339575	1.070181	0.833596
C110	C	0.160425	1.570181	1.333596
C111	C	-0.357685	1.142334	0.931302
C112	C	0.142315	1.642334	1.431302
C113	C	-0.425474	1.161571	0.833615
C114	C	0.074526	1.661571	1.333615
C115	C	-0.357743	1.142299	0.785317
C116	C	0.142257	1.642299	1.285317
C117	C	-0.289911	1.122989	0.882995
C118	C	0.210089	1.622989	1.382995
C119	C	-0.375855	1.214412	0.883018
C120	C	0.124145	1.714412	1.383018
C121	C	-0.308070	1.195132	0.833646
C122	C	0.191930	1.695132	1.333646
C123	C	-0.357653	1.142352	1.015400
C124	C	0.142347	1.642352	1.515400
C125	C	-0.357767	1.142281	0.701220
C126	C	0.142233	1.642281	1.201220
H127	H	-0.224396	0.567862	0.491849
H128	H	0.275604	1.067862	0.991849
H129	H	-0.903777	1.177831	0.483035
H130	H	-0.403777	1.677831	0.983035
H131	H	-0.903621	1.239804	0.266387
H132	H	-0.403621	1.739804	0.766387
H133	H	-0.443924	0.443825	0.271665
H134	H	0.056076	0.943825	0.771665
H135	H	-0.449205	1.044780	0.904657
H136	H	0.050795	1.544780	1.404657
H137	H	-0.443883	0.841241	0.271576
H138	H	0.056117	1.341241	0.771576
C139	C	-0.258233	0.853215	0.457803
C140	C	0.241767	1.353215	0.957803
H141	H	-0.229989	0.816838	0.486144
H142	H	0.270011	1.316838	0.986144
H143	H	-0.286683	0.885431	0.490102
H144	H	0.213317	1.385431	0.990102
H145	H	-0.225825	0.885408	0.429440
H146	H	0.274175	1.385408	0.929440
C147	C	-0.258282	0.432218	0.457888
C148	C	0.241718	0.932218	0.957888
H149	H	-0.265079	0.377137	0.451083
H150	H	0.234921	0.877137	0.951083
H151	H	-0.269212	0.445775	0.507766
H152	H	0.230788	0.945775	1.007766
H153	H	-0.208365	0.445755	0.447092
H154	H	0.291635	0.945755	0.947092
H155	H	-0.491337	0.567605	0.224061
H156	H	0.008663	1.067605	0.724061
H157	H	-0.224364	0.717624	0.491824
H158	H	0.275636	1.217624	0.991824
H159	H	-0.324227	1.009211	0.811887
H160	H	0.175773	1.509211	1.311887
H161	H	-0.811253	1.106563	0.232815
H162	H	-0.311253	1.606563	0.732815
C163	C	-0.803551	1.028997	0.464063
C164	C	-0.303551	1.528997	0.964063
H165	H	-0.820516	0.977809	0.451000
H166	H	-0.320516	1.477809	0.951000
H167	H	-0.821155	1.042179	0.512082
H168	H	-0.321155	1.542179	1.012082
H169	H	-0.750925	1.029717	0.463977
H170	H	-0.250925	1.529717	0.963977
H171	H	-0.904016	1.009205	0.324353
H172	H	-0.404016	1.509205	0.824353
C173	C	-0.803303	1.296675	0.396989
C174	C	-0.303303	1.796675	0.896989
H175	H	-0.820161	1.310292	0.445176
H176	H	-0.320161	1.810292	0.945176
H177	H	-0.820937	1.334330	0.362263
H178	H	-0.320937	1.834330	0.862263
H179	H	-0.750679	1.296195	0.396390
H180	H	-0.250679	1.796195	0.896390
H181	H	-0.232590	1.106635	0.904595
H182	H	0.267410	1.606635	1.404595
H183	H	-0.266077	1.239808	0.812117
H184	H	0.233923	1.739808	1.312117
C185	C	-0.502882	1.183579	0.804311
C186	C	-0.002882	1.683579	1.304311
H187	H	-0.499538	1.230213	0.775358
H188	H	0.000462	1.730213	1.275358
H189	H	-0.535367	1.192325	0.844880
H190	H	-0.035367	1.692325	1.344880
H191	H	-0.521491	1.141770	0.774605
H192	H	-0.021491	1.641770	1.274605
H193	H	-0.391224	1.275365	0.904743
H194	H	0.108776	1.775365	1.404743
H195	H	-0.491328	0.717384	0.224033
H196	H	0.008672	1.217384	0.724033
