data_functionalizedCrystal
_audit_creation_method	'MofGen! by Chris Wilmer'
_symmetry_space_group_name_H-M	'P1'
_symmetry_Int_Tables_number	1
_symmetry_cell_setting	triclinic
loop_
_symmetry_equiv_pos_as_xyz
  x,y,z
_cell_length_a	14.853567
_cell_length_b	14.519709
_cell_length_c	13.930277
_cell_angle_alpha	89.994503
_cell_angle_beta	89.995755
_cell_angle_gamma	83.657538
loop_
_atom_site_label
_atom_site_type_symbol
_atom_site_fract_x
_atom_site_fract_y
_atom_site_fract_z
O1	O	1.196415	0.120405	-0.079767
O2	O	0.933961	0.134748	-0.079783
O3	O	1.072147	-0.006665	-0.079766
O4	O	1.058230	0.261817	-0.079784
O5	O	1.072128	-0.006668	0.079896
O6	O	0.933942	0.134745	0.079878
O7	O	1.196396	0.120402	0.079895
Zn8	Zn	1.065166	0.127573	0.105236
Zn9	Zn	1.065191	0.127577	-0.105125
O10	O	1.058210	0.261814	0.079878
C11	C	0.900363	0.134096	0.000045
C12	C	0.800278	0.132149	0.000039
C13	C	0.387709	0.039914	0.000067
C14	C	0.366493	0.207916	0.000055
C15	C	0.460527	0.209747	0.000052
C16	C	0.518157	0.126660	0.000055
C17	C	0.481752	0.041743	0.000061
C18	C	0.496939	0.294663	0.000035
C19	C	0.590979	0.296498	0.000031
C20	C	0.648610	0.213410	0.000041
C21	C	0.612200	0.128489	0.000049
C22	C	0.669830	0.045403	0.000052
C23	C	0.633422	-0.039520	0.000066
C24	C	0.539383	-0.041345	0.000071
C25	C	0.742649	0.215235	0.000036
C26	C	0.763873	0.047231	0.000046
C27	C	1.071488	-0.041026	0.000065
C28	C	1.069545	-0.143407	0.000065
C29	C	1.062390	-0.518299	0.000040
C30	C	1.064377	-0.413992	0.000047
C31	C	1.065967	-0.330856	0.000054
C32	C	1.067955	-0.226543	0.000059
C33	C	1.229994	0.121053	0.000064
C34	C	1.330079	0.123001	0.000064
C35	C	1.058869	0.296175	0.000044
C36	C	1.060812	0.398556	0.000038
N37	N	1.065155	0.127569	0.248803
N38	N	1.065209	0.127573	-0.248691
C39	C	1.004000	0.190170	0.701064
C40	C	1.126407	0.064977	0.701049
C41	C	1.126396	0.064974	0.600553
C42	C	1.065188	0.127571	0.550308
C43	C	1.003989	0.190171	0.600559
C44	C	1.187599	0.002381	0.550295
C45	C	1.187592	0.002376	0.449793
C46	C	1.126378	0.064970	0.399546
C47	C	1.065177	0.127571	0.449803
C48	C	1.003968	0.190168	0.399558
C49	C	0.942762	0.252767	0.449814
C50	C	0.942776	0.252764	0.550312
C51	C	1.126364	0.064972	0.299047
C52	C	1.003957	0.190169	0.299053
H53	H	0.620614	0.365646	0.000019
H54	H	1.176246	0.014016	0.741962
C55	C	0.434222	0.384766	0.000084
C56	C	0.344076	0.364986	0.000125
C57	C	0.286271	0.447969	0.000187
H58	H	0.445150	0.419651	-0.055583
H59	H	0.445223	0.419585	0.055780
H60	H	0.333079	0.330182	-0.055565
H61	H	0.333119	0.330115	0.055787
H62	H	0.297272	0.482788	0.055883
H63	H	0.297207	0.482847	-0.055481
H64	H	0.225101	0.434560	0.000223
H65	H	0.892944	0.303730	0.591236
H66	H	0.772288	0.284378	0.000026
C67	C	1.192935	-0.002822	0.244448
C68	C	1.248198	0.046430	0.186766
C69	C	1.309555	-0.015990	0.136473
H70	H	1.160575	-0.041315	0.205167
H71	H	1.229444	-0.040074	0.288746
H72	H	1.211694	0.083666	0.142473
H73	H	1.280579	0.084920	0.226023
H74	H	1.346064	-0.053241	0.180771
H75	H	1.277187	-0.054480	0.097198
H76	H	1.347063	0.017419	0.097337
C77	C	0.937460	0.258238	0.244679
C78	C	0.883881	0.313068	0.310203
C79	C	0.822623	0.375791	0.260149
H80	H	0.899794	0.225101	0.205477
H81	H	0.969922	0.296744	0.205488
H82	H	0.851421	0.274567	0.349377
H83	H	0.921522	0.346225	0.349406
H84	H	0.855085	0.414297	0.220958
H85	H	0.784963	0.342646	0.220949
H86	H	0.786268	0.413006	0.304599
C87	C	0.937404	0.258022	0.755572
C88	C	0.848795	0.242878	0.731156
C89	C	0.787422	0.305356	0.781360
H90	H	0.947164	0.319633	0.739139
H91	H	0.946112	0.249051	0.822631
H92	H	0.840091	0.251857	0.664112
H93	H	0.839006	0.181280	0.747592
H94	H	0.796129	0.296386	0.848419
H95	H	0.797190	0.366963	0.764923
H96	H	0.727294	0.295084	0.764808
C97	C	1.253952	-0.065535	0.605019
C98	C	1.240840	-0.052155	0.703787
C99	C	1.301941	-0.114713	0.754233
H100	H	1.314172	-0.055464	0.588657
H101	H	1.244060	-0.127124	0.588612
H102	H	1.250740	0.009420	0.720188
H103	H	1.180633	-0.062233	0.720178
H104	H	1.292049	-0.176303	0.737826
H105	H	1.362157	-0.104637	0.737863
H106	H	1.293048	-0.105649	0.821252
H107	H	1.237428	-0.048595	0.408882
H108	H	0.892929	0.303738	0.408893
H109	H	0.680356	-0.107168	0.000062
C110	C	0.826290	-0.043081	-0.000001
C111	C	0.774274	-0.117835	-0.000012
C112	C	0.831740	-0.201043	-0.000069
H113	H	0.863439	-0.045992	0.055656
H114	H	0.863399	-0.045910	-0.055706
H115	H	0.737181	-0.115007	0.055688
H116	H	0.737127	-0.114955	-0.055665
H117	H	0.868849	-0.203873	-0.055774
H118	H	0.868886	-0.203945	0.055590
H119	H	0.796456	-0.251774	-0.000085
H120	H	0.509731	-0.110484	0.000105
H121	H	0.358060	-0.029228	0.000082
H122	H	0.319566	0.275561	0.000044
