data_functionalizedCrystal
_audit_creation_method	'MofGen! by Chris Wilmer'
_symmetry_space_group_name_H-M	'P1'
_symmetry_Int_Tables_number	1
_symmetry_cell_setting	triclinic
loop_
_symmetry_equiv_pos_as_xyz
  x,y,z
_cell_length_a	21.295418
_cell_length_b	25.639239
_cell_length_c	21.295411
_cell_angle_alpha	89.980474
_cell_angle_beta	89.956262
_cell_angle_gamma	90.054499
loop_
_atom_site_label
_atom_site_type_symbol
_atom_site_fract_x
_atom_site_fract_y
_atom_site_fract_z
Zn1	Zn	0.962320	-0.207990	-0.356243
Zn2	Zn	1.462320	0.292010	0.143757
Zn3	Zn	0.962207	-0.295410	-0.250972
Zn4	Zn	1.462207	0.204590	0.249028
Zn5	Zn	0.857043	-0.208014	-0.250953
Zn6	Zn	1.357043	0.291986	0.249047
Zn7	Zn	0.856998	-0.295420	-0.356169
Zn8	Zn	1.356998	0.204580	0.143831
O9	O	0.909642	-0.251708	-0.303584
O10	O	1.409642	0.248292	0.196416
O11	O	1.050395	-0.219572	-0.342318
O12	O	1.550395	0.280428	0.157682
O13	O	0.948229	-0.283822	-0.162880
O14	O	1.448229	0.216178	0.337120
O15	O	0.871075	-0.134846	-0.264943
O16	O	1.371075	0.365154	0.235057
O17	O	1.050312	-0.283799	-0.264976
O18	O	1.550312	0.216201	0.235024
O19	O	0.948421	-0.134828	-0.342299
O20	O	1.448421	0.365172	0.157701
O21	O	0.870965	-0.219613	-0.162866
O22	O	1.370965	0.280387	0.337134
O23	O	0.768948	-0.219623	-0.264871
O24	O	1.268948	0.280377	0.235129
O25	O	0.870997	-0.283816	-0.444268
O26	O	1.370997	0.216184	0.055732
O27	O	0.768914	-0.283840	-0.342172
O28	O	1.268914	0.216160	0.157828
O29	O	0.948377	-0.219582	-0.444322
O30	O	1.448377	0.280418	0.055678
O31	O	0.948185	-0.368576	-0.264904
O32	O	1.448185	0.131424	0.235096
O33	O	0.870888	-0.368584	-0.342191
O34	O	1.370888	0.131416	0.157809
C35	C	0.746090	-0.251736	-0.303512
C36	C	1.246090	0.248264	0.196488
C37	C	0.676122	-0.251760	-0.303496
C38	C	1.176122	0.248240	0.196504
C39	C	0.643255	-0.285242	-0.343686
C40	C	1.143255	0.214758	0.156314
C41	C	0.577512	-0.285229	-0.343715
C42	C	1.077512	0.214771	0.156285
C43	C	0.544640	-0.251740	-0.303541
C44	C	1.044640	0.248260	0.196459
C45	C	0.577515	-0.218252	-0.263347
C46	C	1.077515	0.281748	0.236653
C47	C	0.643257	-0.218262	-0.263325
C48	C	1.143257	0.281738	0.236675
N49	N	0.441365	-0.247648	-0.248483
N50	N	0.941365	0.252352	0.251517
N51	N	0.378913	-0.247641	-0.248506
N52	N	0.878913	0.252359	0.251494
C53	C	0.346565	-0.251707	-0.303608
C54	C	0.846565	0.248293	0.196392
N55	N	0.379028	-0.255789	-0.358686
N56	N	0.879028	0.244211	0.141314
N57	N	0.441485	-0.255799	-0.358662
N58	N	0.941485	0.244201	0.141338
C59	C	0.473354	-0.251725	-0.303561
C60	C	0.973354	0.248275	0.196439
C61	C	0.242412	-0.285176	-0.343832
C62	C	0.742412	0.214824	0.156168
C63	C	0.176668	-0.285160	-0.343862
C64	C	0.676668	0.214840	0.156138
C65	C	0.176673	-0.218185	-0.263489
C66	C	0.676673	0.281815	0.236511
C67	C	0.242415	-0.218199	-0.263465
C68	C	0.742415	0.281801	0.236535
C69	C	0.275281	-0.251697	-0.303636
C70	C	0.775281	0.248303	0.196364
C71	C	0.909536	-0.387551	-0.303555
C72	C	1.409536	0.112449	0.196445
C73	C	0.909548	-0.445665	-0.303564
C74	C	1.409548	0.054335	0.196436
C75	C	0.949996	-0.806011	-0.263409
C76	C	1.449996	-0.306011	0.236591
C77	C	0.950020	-0.860616	-0.263418
C78	C	1.450020	-0.360616	0.236582
O79	O	0.984300	-0.888838	-0.229245
O80	O	1.484300	-0.388838	0.270755
N81	N	0.909753	-0.887947	-0.303626
N82	N	1.409753	-0.387947	0.196374
C83	C	0.869463	-0.860672	-0.343833
C84	C	1.369463	-0.360672	0.156167
O85	O	0.835215	-0.888934	-0.378034
O86	O	1.335215	-0.388934	0.121966
C87	C	0.869442	-0.806069	-0.343827
C88	C	1.369442	-0.306069	0.156173
C89	C	0.909708	-0.778740	-0.303612
C90	C	1.409708	-0.278740	0.196388
C91	C	0.990259	-0.778683	-0.223198
C92	C	1.490259	-0.278683	0.276802
C93	C	0.990233	-0.724082	-0.223188
C94	C	1.490233	-0.224082	0.276812
C95	C	0.949945	-0.696810	-0.263391
C96	C	1.449945	-0.196810	0.236609
C97	C	0.909682	-0.724139	-0.303603
C98	C	1.409682	-0.224139	0.196397
C99	C	0.829156	-0.778794	-0.384037
C100	C	1.329156	-0.278794	0.115963
C101	C	0.829139	-0.724187	-0.384028
C102	C	1.329139	-0.224187	0.115972
C103	C	0.869404	-0.696858	-0.343812
C104	C	1.369404	-0.196858	0.156188
C105	C	0.869369	-0.642267	-0.343796
C106	C	1.369369	-0.142267	0.156204
N107	N	0.909636	-0.614935	-0.303588
N108	N	1.409636	-0.114935	0.196412
C109	C	0.949924	-0.642207	-0.263385
C110	C	1.449924	-0.142207	0.236615
C111	C	0.869510	-0.975343	-0.343842
C112	C	1.369510	-0.475343	0.156158
C113	C	0.869527	-1.029945	-0.343845
C114	C	1.369527	-0.529945	0.156155
C115	C	0.950086	-1.029885	-0.263431
C116	C	1.450086	-0.529885	0.236569
C117	C	0.950065	-0.975282	-0.263425
C118	C	1.450065	-0.475282	0.236575
C119	C	0.909778	-0.948011	-0.303634
C120	C	1.409778	-0.448011	0.196366
C121	C	0.949868	-0.527542	-0.263369
C122	C	1.449868	-0.027542	0.236631
C123	C	0.949837	-0.472937	-0.263361
C124	C	1.449837	0.027063	0.236639
C125	C	0.869281	-0.473001	-0.343778
C126	C	1.369281	0.026999	0.156222
C127	C	0.869309	-0.527602	-0.343783
C128	C	1.369309	-0.027602	0.156217
C129	C	0.909607	-0.554871	-0.303577
C130	C	1.409607	-0.054871	0.196423
O131	O	0.835108	-0.614010	-0.377953
O132	O	1.335108	-0.114010	0.122047
O133	O	0.984172	-0.613939	-0.229195
O134	O	1.484172	-0.113939	0.270805
C135	C	1.073832	-0.251681	-0.303657
C136	C	1.573832	0.248319	0.196343
C137	C	1.143801	-0.251670	-0.303688
C138	C	1.643801	0.248330	0.196312
C139	C	0.909694	-0.251697	-0.467774
C140	C	1.409694	0.248303	0.032226
C141	C	0.909717	-0.251693	-0.537743
C142	C	1.409717	0.248307	-0.037743
C143	C	0.909766	-0.115335	-0.303627
C144	C	1.409766	0.384665	0.196373
C145	C	0.909818	-0.057221	-0.303645
C146	C	1.409818	0.442779	0.196355
C147	C	0.950007	-0.218244	-0.570639
C148	C	1.450007	0.281756	-0.070639
C149	C	0.950006	-0.218221	-0.636381
C150	C	1.450006	0.281779	-0.136381
C151	C	0.909721	-0.251657	-0.669225
C152	C	1.409721	0.248343	-0.169225
C153	C	0.869424	-0.285108	-0.636321
C154	C	1.369424	0.214892	-0.136321
C155	C	0.869421	-0.285126	-0.570580
C156	C	1.369421	0.214874	-0.070580
N157	N	0.904857	-0.297396	-0.772441
N158	N	1.404857	0.202604	-0.272441
N159	N	0.904863	-0.297377	-0.834892
N160	N	1.404863	0.202623	-0.334892
C161	C	0.909725	-0.251604	-0.867300
C162	C	1.409725	0.248396	-0.367300
N163	N	0.914594	-0.205848	-0.834897
N164	N	1.414594	0.294152	-0.334897
N165	N	0.914591	-0.205867	-0.772440
N166	N	1.414591	0.294133	-0.272440
C167	C	0.909719	-0.251641	-0.740511
C168	C	1.409719	0.248359	-0.240511
C169	C	0.950017	-0.218128	-0.971482
C170	C	1.450017	0.281872	-0.471482
C171	C	0.950011	-0.218104	-1.037225
C172	C	1.450011	0.281896	-0.537225
C173	C	0.869433	-0.284995	-1.037164
C174	C	1.369433	0.215005	-0.537164
C175	C	0.869435	-0.285014	-0.971422
C176	C	1.369435	0.214986	-0.471422
C177	C	0.909730	-0.251581	-0.938584
C178	C	1.409730	0.248419	-0.438584
C179	C	0.909626	-0.251682	-0.140032
C180	C	1.409626	0.248318	0.359968
C181	C	0.909726	-0.251539	-0.070065
C182	C	1.409726	0.248461	0.429935
H183	H	0.550747	-0.190983	-0.230639
H184	H	1.050747	0.309017	0.269361
Br185	Br	0.687866	-0.172817	-0.208777
Br186	Br	1.187866	0.327183	0.291223
H187	H	1.023070	-0.800881	-0.190460
H188	H	1.523070	-0.300881	0.309540
Br189	Br	1.004761	-1.066907	-0.208867
Br190	Br	1.504761	-0.566907	0.291133
Br191	Br	0.814737	-0.330523	-0.525932
Br192	Br	1.314737	0.169477	-0.025932
H193	H	0.269173	-0.312450	-0.376545
H194	H	0.769173	0.187550	0.123455
Br195	Br	0.132061	-0.330599	-0.398417
Br196	Br	0.632061	0.169401	0.101583
Br197	Br	0.774513	-0.815869	-0.438625
Br198	Br	1.274513	-0.315869	0.061375
Br199	Br	1.004673	-0.172811	-0.681036
Br200	Br	1.504673	0.327189	-0.181036
H201	H	0.550746	-0.312494	-0.376445
H202	H	1.050746	0.187506	0.123555
H203	H	0.982853	-0.953034	-0.230679
H204	H	1.482853	-0.453034	0.269321
H205	H	0.149909	-0.190915	-0.230781
H206	H	0.649909	0.309085	0.269219
Br207	Br	0.287025	-0.172756	-0.208917
Br208	Br	0.787025	0.327244	0.291083
H209	H	0.982824	-0.190902	-0.944744
H210	H	1.482824	0.309098	-0.444744
Br211	Br	1.004705	-0.172713	-1.081872
Br212	Br	1.504705	0.327287	-0.581872
H213	H	0.982684	-0.549738	-0.230630
H214	H	1.482684	-0.049738	0.269370
Br215	Br	0.814752	-0.330366	-1.081731
Br216	Br	1.314752	0.169634	-0.581731
Br217	Br	1.004690	-0.172869	-0.526076
Br218	Br	1.504690	0.327131	-0.026076
H219	H	0.836630	-0.312254	-0.944637
H220	H	1.336630	0.187746	-0.444637
H221	H	0.836733	-1.052191	-0.376587
H222	H	1.336733	-0.552191	0.123413
Br223	Br	0.814647	-0.564692	-0.398346
Br224	Br	1.314647	-0.064692	0.101654
H225	H	0.982626	-0.450687	-0.230611
H226	H	1.482626	0.049313	0.269389
Br227	Br	0.687855	-0.330703	-0.398205
Br228	Br	1.187855	0.169297	0.101795
Br229	Br	1.044892	-0.687001	-0.168617
Br230	Br	1.544892	-0.187001	0.331383
H231	H	0.836698	-0.953141	-0.376584
H232	H	1.336698	-0.453141	0.123416
Br233	Br	0.774462	-0.687180	-0.438603
Br234	Br	1.274462	-0.187180	0.061397
H235	H	0.836477	-0.450788	-0.376509
H236	H	1.336477	0.049212	0.123491
H237	H	0.836622	-0.312329	-0.663067
H238	H	1.336622	0.187671	-0.163067
