data_functionalizedCrystal
_audit_creation_method	'MofGen! by Chris Wilmer'
_symmetry_space_group_name_H-M	'P1'
_symmetry_Int_Tables_number	1
_symmetry_cell_setting	triclinic
loop_
_symmetry_equiv_pos_as_xyz
  x,y,z
_cell_length_a	15.995350
_cell_length_b	16.053811
_cell_length_c	16.992695
_cell_angle_alpha	87.258675
_cell_angle_beta	92.919701
_cell_angle_gamma	87.422018
loop_
_atom_site_label
_atom_site_type_symbol
_atom_site_fract_x
_atom_site_fract_y
_atom_site_fract_z
O1	O	1.121057	-0.069359	-0.097770
O2	O	0.878118	-0.069376	-0.110250
O3	O	0.998613	-0.069361	0.010132
O4	O	1.000561	-0.069374	-0.218153
O5	O	0.991978	0.069497	0.003532
O6	O	0.871482	0.069482	-0.116850
O7	O	1.114422	0.069499	-0.104370
Zn8	Zn	0.991899	0.091537	-0.111658
Zn9	Zn	1.000641	-0.091414	-0.102963
O10	O	0.993926	0.069484	-0.224752
C11	C	0.843571	0.000051	-0.113034
C12	C	0.750517	0.000044	-0.111487
N13	N	0.985939	0.216397	-0.117591
C14	C	0.992790	0.000068	0.036045
C15	C	0.985314	0.000067	0.123089
C16	C	0.412397	0.000062	-0.105932
C17	C	0.454079	0.000377	-0.020213
C18	C	0.550888	0.000058	-0.021745
C19	C	0.580143	0.000054	-0.108688
C20	C	0.545674	-0.079240	-0.147206
C21	C	0.448897	-0.079301	-0.145049
C22	C	0.441131	0.078607	-0.154326
C23	C	0.538025	0.079649	-0.154355
C24	C	0.674945	0.000046	-0.110249
C25	C	0.317595	0.000064	-0.104373
C26	C	1.148969	0.000071	-0.101586
C27	C	1.242022	0.000072	-0.103133
C28	C	1.037230	0.260097	-0.066387
C29	C	1.033069	0.347504	-0.070545
C30	C	0.977620	0.391208	-0.125912
C31	C	0.926323	0.347501	-0.177119
C32	C	0.930480	0.260097	-0.172956
C33	C	0.959460	0.652615	-0.144071
C34	C	0.955309	0.740026	-0.148232
C35	C	1.062055	0.740022	-0.041656
C36	C	1.066211	0.652616	-0.037502
C37	C	1.014910	0.608917	-0.088706
N38	N	0.973368	0.480551	-0.130165
N39	N	1.019159	0.519575	-0.084448
N40	N	1.006601	0.783726	-0.097027
C41	C	0.999750	0.000054	-0.250665
C42	C	1.007226	0.000049	-0.337709
C43	C	1.057449	0.000073	0.173329
C44	C	1.050419	0.000065	0.255116
C45	C	0.971254	0.000056	0.286661
C46	C	0.899114	0.000048	0.236415
C47	C	0.906144	0.000050	0.154630
C48	C	0.942116	0.000043	0.530260
C49	C	0.935091	0.000043	0.612051
C50	C	1.086398	0.000058	0.630747
C51	C	1.093421	0.000066	0.548959
C52	C	1.021281	0.000053	0.498720
N53	N	0.964067	0.000050	0.370260
N54	N	1.028469	0.000053	0.415123
H55	H	0.574377	0.056899	0.008794
C56	C	1.144531	0.000082	0.138637
H57	H	1.186485	0.000077	0.180275
H58	H	1.148107	0.048506	0.104823
H59	H	1.152732	-0.048346	0.109421
C60	C	1.180503	0.000064	0.514266
H61	H	1.222459	0.000058	0.555902
H62	H	1.184081	0.048486	0.480450
H63	H	1.188699	-0.048366	0.485051
C64	C	1.129768	0.000080	0.310377
H65	H	1.177921	0.000097	0.279876
H66	H	1.132493	-0.048343	0.344969
H67	H	1.127849	0.048509	0.340369
C68	C	0.422285	0.077193	0.022435
H69	H	0.383300	0.109760	-0.011650
H70	H	0.468253	0.109842	0.036648
H71	H	0.395666	0.059366	0.068615
H72	H	0.834656	0.000036	0.262105
C73	C	0.425193	-0.159365	-0.099584
H74	H	0.365956	-0.160110	-0.097871
H75	H	0.449560	-0.160599	-0.047355
H76	H	0.445432	-0.206785	-0.125488
H77	H	1.111362	0.617034	0.007582
C78	C	0.406987	0.159804	-0.120322
H79	H	0.425047	0.206438	-0.150370
H80	H	0.427360	0.162241	-0.067027
H81	H	0.347481	0.160827	-0.122601
H82	H	0.917691	0.617042	-0.185765
C83	C	0.403906	0.079336	-0.239752
H84	H	0.421495	0.126935	-0.268703
H85	H	0.344473	0.081376	-0.239552
H86	H	0.422798	0.030143	-0.263706
H87	H	1.074835	0.383084	-0.028850
H88	H	0.847404	0.000045	0.113724
H89	H	0.421032	-0.082902	-0.207823
H90	H	1.145130	0.000067	0.671660
H91	H	0.910153	0.775606	-0.193321
C92	C	0.568342	0.158898	-0.116420
H93	H	0.606511	0.143550	-0.072934
H94	H	0.521672	0.190040	-0.098640
H95	H	0.595569	0.191988	-0.154284
H96	H	0.579228	-0.056879	0.014426
H97	H	0.888712	0.224517	-0.214651
H98	H	0.870621	0.000049	0.637730
H99	H	0.883374	0.000032	0.489364
C100	C	1.118473	0.788088	0.014671
H101	H	1.152094	0.749541	0.048239
H102	H	1.084548	0.822195	0.045703
H103	H	1.153598	0.822174	-0.015179
H104	H	0.564214	-0.082191	-0.210941
C105	C	0.585149	-0.158958	-0.103739
H106	H	0.622633	-0.144088	-0.062115
H107	H	0.614922	-0.191042	-0.139663
H108	H	0.542238	-0.190918	-0.082605
H109	H	0.557404	0.084436	-0.217984
C110	C	0.428175	-0.076007	0.029506
H111	H	0.392071	-0.108091	-0.001749
H112	H	0.399741	-0.057770	0.073774
H113	H	0.476738	-0.109296	0.047155
C114	C	1.098230	0.212026	-0.005490
H115	H	1.093369	0.153712	-0.010349
H116	H	1.084963	0.226359	0.046166
H117	H	1.154000	0.226345	-0.014729
C118	C	0.865332	0.395574	-0.238022
H119	H	0.870207	0.453888	-0.233174
H120	H	0.809562	0.381262	-0.228797
H121	H	0.878612	0.381235	-0.289678
