data_functionalizedCrystal
_audit_creation_method	'MofGen! by Chris Wilmer'
_symmetry_space_group_name_H-M	'P1'
_symmetry_Int_Tables_number	1
_symmetry_cell_setting	triclinic
loop_
_symmetry_equiv_pos_as_xyz
  x,y,z
_cell_length_a	21.395364
_cell_length_b	18.101390
_cell_length_c	21.395361
_cell_angle_alpha	89.962880
_cell_angle_beta	90.045659
_cell_angle_gamma	89.980642
loop_
_atom_site_label
_atom_site_type_symbol
_atom_site_fract_x
_atom_site_fract_y
_atom_site_fract_z
Zn1	Zn	0.957827	-0.418712	-0.249165
Zn2	Zn	0.957739	-0.294862	-0.353953
Zn3	Zn	0.853052	-0.294885	-0.249221
Zn4	Zn	0.853011	-0.418662	-0.353936
O5	O	0.905407	-0.356780	-0.301569
O6	O	1.045493	-0.402295	-0.263049
O7	O	0.943832	-0.191232	-0.340091
O8	O	0.867004	-0.311342	-0.161535
O9	O	1.045429	-0.311302	-0.340036
O10	O	0.943982	-0.402317	-0.161494
O11	O	0.866919	-0.191249	-0.263144
O12	O	0.765368	-0.311293	-0.263128
O13	O	0.866935	-0.522301	-0.340007
O14	O	0.765339	-0.402231	-0.340061
O15	O	0.943943	-0.522338	-0.263032
O16	O	0.943793	-0.311253	-0.441629
O17	O	0.866850	-0.402208	-0.441616
C18	C	0.742620	-0.356759	-0.301599
C19	C	0.672978	-0.356768	-0.301627
C20	C	0.640321	-0.404221	-0.261605
C21	C	0.574886	-0.404224	-0.261589
C22	C	0.542110	-0.356781	-0.301605
C23	C	0.574775	-0.309319	-0.341630
C24	C	0.640209	-0.309312	-0.341641
C25	C	0.438386	-0.350824	-0.358031
C26	C	0.372953	-0.350836	-0.358021
C27	C	0.340289	-0.356798	-0.301571
C28	C	0.373067	-0.362764	-0.245128
C29	C	0.438501	-0.362757	-0.245139
C30	C	0.471158	-0.356783	-0.301597
C31	C	0.236680	-0.404256	-0.261527
C32	C	0.171243	-0.404254	-0.261509
C33	C	0.171134	-0.309353	-0.341556
C34	C	0.236569	-0.309352	-0.341568
C35	C	0.269338	-0.356807	-0.301555
C36	C	0.905445	-0.549942	-0.301511
C37	C	0.905460	-0.632256	-0.301487
C38	C	0.905494	-0.931347	-0.301448
C39	C	0.954105	-0.900045	-0.253188
C40	C	0.953953	-0.814427	-0.253009
C41	C	0.905478	-0.782965	-0.301467
C42	C	0.839472	-0.814040	-0.283546
C43	C	0.839763	-0.899685	-0.283184
C44	C	0.922308	-0.899754	-0.367754
C45	C	0.923756	-0.814104	-0.367415
C46	C	0.905465	-0.699105	-0.301479
C47	C	0.905503	-1.015207	-0.301434
C48	C	1.068831	-0.356801	-0.301538
C49	C	1.138472	-0.356810	-0.301526
C50	C	0.905325	-0.356739	-0.464356
C51	C	0.905347	-0.356746	-0.533997
C52	C	0.905406	-0.164369	-0.301580
C53	C	0.905512	-0.082056	-0.301428
C54	C	0.945446	-0.309434	-0.566696
C55	C	0.945475	-0.309451	-0.632132
C56	C	0.905394	-0.356771	-0.664866
C57	C	0.865291	-0.404092	-0.632159
C58	C	0.865268	-0.404080	-0.566725
C59	C	0.848979	-0.362575	-0.768594
C60	C	0.849001	-0.362582	-0.834027
C61	C	0.905467	-0.356815	-0.866686
C62	C	0.961911	-0.351024	-0.833905
C63	C	0.961888	-0.351012	-0.768470
C64	C	0.905415	-0.356791	-0.735818
C65	C	0.945601	-0.309518	-0.970338
C66	C	0.945632	-0.309540	-1.035774
C67	C	0.865442	-0.404178	-1.035800
C68	C	0.865417	-0.404160	-0.970365
C69	C	0.905496	-0.356826	-0.937638
C70	C	0.905507	-0.356838	-0.138145
C71	C	0.905550	-0.356862	-0.068504
H72	H	0.666998	-0.442862	-0.229023
N73	N	0.791292	-0.368441	-0.735242
N74	N	0.774892	-0.318113	-0.698790
H75	H	0.734151	-0.322253	-0.675236
H76	H	0.263159	-0.270713	-0.374161
H77	H	0.263362	-0.442893	-0.228942
N78	N	0.824459	-0.452496	-0.936962
N79	N	0.828587	-0.520836	-0.944221
H80	H	0.799661	-0.554979	-0.920631
N81	N	0.339488	-0.344734	-0.415679
N82	N	0.346747	-0.289148	-0.449595
H83	H	0.323115	-0.284838	-0.490319
N84	N	0.471992	-0.368849	-0.187496
N85	N	0.508536	-0.421761	-0.178783
H86	H	0.532190	-0.426061	-0.138071
H87	H	0.144448	-0.270725	-0.374138
H88	H	0.144655	-0.442895	-0.228915
N89	N	0.824312	-0.452410	-0.533312
N90	N	0.846323	-0.499614	-0.496739
H91	H	0.817398	-0.533749	-0.473139
N92	N	0.792806	-0.788457	-0.326281
N93	N	0.783030	-0.720747	-0.332355
H94	H	0.750073	-0.702676	-0.362538
N95	N	0.471738	-0.344722	-0.415703
N96	N	0.442469	-0.339400	-0.466091
H97	H	0.466022	-0.335088	-0.506821
H98	H	0.548085	-0.270691	-0.374211
N99	N	0.821259	-0.787179	-0.223411
N100	N	0.769827	-0.805736	-0.200620
H101	H	0.756966	-0.786769	-0.158148
H102	H	0.978238	-0.270978	-0.943690
H103	H	1.007847	-0.346299	-0.741781
N104	N	0.339701	-0.368863	-0.187466
N105	N	0.281278	-0.368867	-0.187462
H106	H	0.257710	-0.373178	-0.146740
N107	N	0.673561	-0.260831	-0.382526
N108	N	0.644294	-0.218468	-0.418249
H109	H	0.667849	-0.184227	-0.447125
H110	H	0.978132	-0.270924	-0.658760
N111	N	0.541528	-0.452716	-0.220713
N112	N	0.570793	-0.495090	-0.184998
H113	H	0.547237	-0.529345	-0.156135
N114	N	1.015361	-0.788071	-0.267055
N115	N	1.043816	-0.748513	-0.228548
H116	H	1.087190	-0.729904	-0.238462
H117	H	1.003210	-0.920646	-0.264270
H118	H	0.969595	-0.921396	-0.384076
N119	N	0.940315	-0.927070	-0.191911
N120	N	0.894841	-0.969282	-0.183629
H121	H	0.885098	-0.988369	-0.140352
H122	H	0.942824	-0.793959	-0.203888
N123	N	0.791345	-0.368484	-0.867508
N124	N	0.749744	-0.320755	-0.860279
H125	H	0.709022	-0.324923	-0.883923
H126	H	0.832657	-0.442623	-0.658815
N127	N	0.821878	-0.924763	-0.222380
N128	N	0.809269	-0.879012	-0.180507
H129	H	0.796637	-0.896719	-0.137562
H130	H	0.802313	-0.920390	-0.316806
H131	H	0.972331	-0.793792	-0.380930
H132	H	0.886905	-0.920001	-0.403713
H133	H	0.890925	-0.792683	-0.405303
N134	N	0.986389	-0.261081	-0.533277
N135	N	1.022191	-0.218841	-0.562486
H136	H	1.051108	-0.184692	-0.538883
H137	H	1.007891	-0.346328	-0.860494
N138	N	0.986606	-0.261213	-1.069168
N139	N	1.022388	-0.218961	-1.039936
H140	H	1.051329	-0.184831	-1.063521
H141	H	0.832809	-0.442711	-1.062452
