data_functionalizedCrystal
_audit_creation_method	'MofGen! by Chris Wilmer'
_symmetry_space_group_name_H-M	'P1'
_symmetry_Int_Tables_number	1
_symmetry_cell_setting	triclinic
loop_
_symmetry_equiv_pos_as_xyz
  x,y,z
_cell_length_a	14.044202
_cell_length_b	13.101039
_cell_length_c	14.044220
_cell_angle_alpha	86.332523
_cell_angle_beta	93.190789
_cell_angle_gamma	93.662388
loop_
_atom_site_label
_atom_site_type_symbol
_atom_site_fract_x
_atom_site_fract_y
_atom_site_fract_z
O1	O	-1.281976	-0.085167	-0.225388
O2	O	-1.031976	0.164833	0.024612
O3	O	-0.781976	0.414833	0.274612
O4	O	-0.531976	0.664833	0.524612
O5	O	-1.005304	-0.085180	-0.217072
O6	O	-0.755304	0.164820	0.032928
O7	O	-0.505304	0.414820	0.282928
O8	O	-0.255304	0.664820	0.532928
O9	O	-1.139487	-0.085164	-0.082895
O10	O	-0.889487	0.164836	0.167105
O11	O	-0.639487	0.414836	0.417105
O12	O	-0.389487	0.664836	0.667105
O13	O	-1.147793	-0.085184	-0.359565
O14	O	-0.897793	0.164816	-0.109565
O15	O	-0.647793	0.414816	0.140435
O16	O	-0.397793	0.664816	0.390435
O17	O	-1.129861	0.085265	-0.092539
O18	O	-0.879861	0.335265	0.157461
O19	O	-0.629861	0.585265	0.407461
O20	O	-0.379861	0.835265	0.657461
O21	O	-0.995678	0.085248	-0.226717
O22	O	-0.745678	0.335248	0.023283
O23	O	-0.495678	0.585248	0.273283
O24	O	-0.245678	0.835248	0.523283
O25	O	-1.272350	0.085262	-0.235032
O26	O	-1.022350	0.335262	0.014968
O27	O	-0.772350	0.585262	0.264968
O28	O	-0.522350	0.835262	0.514968
Zn29	Zn	-1.132486	0.112314	-0.232406
Zn30	Zn	-0.882486	0.362314	0.017594
Zn31	Zn	-0.632486	0.612314	0.267594
Zn32	Zn	-0.382486	0.862314	0.517594
Zn33	Zn	-1.145168	-0.112233	-0.219699
Zn34	Zn	-0.895168	0.137767	0.030301
Zn35	Zn	-0.645168	0.387767	0.280301
Zn36	Zn	-0.395168	0.637767	0.530301
O37	O	-1.138167	0.085245	-0.369210
O38	O	-0.888167	0.335245	-0.119210
O39	O	-0.638167	0.585245	0.130790
O40	O	-0.388167	0.835245	0.380790
C41	C	-0.964869	0.000032	-0.218257
C42	C	-0.714869	0.250032	0.031743
C43	C	-0.464869	0.500032	0.281743
C44	C	-0.214869	0.750032	0.531743
C45	C	-0.858727	0.000028	-0.207409
C46	C	-0.608727	0.250028	0.042591
C47	C	-0.358727	0.500028	0.292591
C48	C	-0.108727	0.750028	0.542591
N49	N	-1.123837	0.265562	-0.241078
N50	N	-0.873837	0.515562	0.008922
N51	N	-0.623837	0.765562	0.258922
N52	N	-0.373837	1.015562	0.508922
N53	N	-1.153824	-0.265480	-0.211020
N54	N	-0.903824	-0.015480	0.038980
N55	N	-0.653824	0.234520	0.288980
N56	N	-0.403824	0.484520	0.538980
C57	C	-0.613268	0.000033	-0.264508
C58	C	-0.363268	0.250033	-0.014508
C59	C	-0.113268	0.500033	0.235492
C60	C	0.136732	0.750033	0.485492
C61	C	-0.664393	0.000037	-0.187592
C62	C	-0.414393	0.250037	0.062408
C63	C	-0.164393	0.500037	0.312408
C64	C	0.085607	0.750037	0.562408
C65	C	-0.772530	0.000032	-0.198621
C66	C	-0.522530	0.250032	0.051379
C67	C	-0.272530	0.500032	0.301379
C68	C	-0.022530	0.750032	0.551379
C69	C	-0.505121	0.000039	-0.253481
C70	C	-0.255121	0.250039	-0.003481
C71	C	-0.005121	0.500039	0.246519
C72	C	0.244879	0.750039	0.496519
C73	C	-0.312785	0.000046	-0.233845
C74	C	-0.062785	0.250046	0.016155
C75	C	0.187215	0.500046	0.266155
C76	C	0.437215	0.750046	0.516155
C77	C	-0.418928	0.000043	-0.244687
C78	C	-0.168928	0.250043	0.005313
C79	C	0.081072	0.500043	0.255313
C80	C	0.331072	0.750043	0.505313
C81	C	-1.131038	0.000051	-0.052095
C82	C	-0.881038	0.250051	0.197905
C83	C	-0.631038	0.500051	0.447905
C84	C	-0.381038	0.750051	0.697905
C85	C	-1.120193	0.000051	0.054048
C86	C	-0.870193	0.250051	0.304048
C87	C	-0.620193	0.500051	0.554048
C88	C	-0.370193	0.750051	0.804048
C89	C	-1.112071	0.474603	-0.252886
C90	C	-0.862071	0.724603	-0.002886
C91	C	-0.612071	0.974603	0.247114
C92	C	-0.362071	1.224603	0.497114
C93	C	-1.165587	0.525485	-0.199215
C94	C	-0.915587	0.775485	0.050785
C95	C	-0.665587	1.025485	0.300785
C96	C	-0.415587	1.275485	0.550785
C97	C	-1.159040	0.641803	-0.205785
C98	C	-0.909040	0.891803	0.044215
C99	C	-0.659040	1.141803	0.294215
C100	C	-0.409040	1.391803	0.544215
C101	C	-1.118617	0.358275	-0.246317
C102	C	-0.868617	0.608275	0.003683
C103	C	-0.618617	0.858275	0.253683
C104	C	-0.368617	1.108275	0.503683
C105	C	-1.146616	0.000028	-0.400009
C106	C	-0.896616	0.250028	-0.150009
C107	C	-0.646616	0.500028	0.099991
C108	C	-0.396616	0.750028	0.349991
C109	C	-1.157461	0.000021	-0.506152
C110	C	-0.907461	0.250021	-0.256152
C111	C	-0.657461	0.500021	-0.006152
C112	C	-0.407461	0.750021	0.243848
C113	C	-1.100368	0.000036	0.248387
C114	C	-0.850368	0.250036	0.498387
C115	C	-0.600368	0.500036	0.748387
C116	C	-0.350368	0.750036	0.998387
C117	C	-1.177282	0.000036	0.299515
C118	C	-0.927282	0.250036	0.549515
C119	C	-0.677282	0.500036	0.799515
C120	C	-0.427282	0.750036	1.049515
C121	C	-1.166251	0.000028	0.407652
C122	C	-0.916251	0.250028	0.657652
C123	C	-0.666251	0.500028	0.907652
C124	C	-0.416251	0.750028	1.157652
C125	C	-1.111398	0.000045	0.140240
C126	C	-0.861398	0.250045	0.390240
C127	C	-0.611398	0.500045	0.640240
C128	C	-0.361398	0.750045	0.890240
H129	H	-0.626953	-0.000030	-0.113456
H130	H	-0.376953	0.249970	0.136544
H131	H	-0.126953	0.499970	0.386544
H132	H	0.123047	0.749970	0.636544
N133	N	-1.232803	0.467480	-0.131826
N134	N	-0.982803	0.717480	0.118174
N135	N	-0.732803	0.967480	0.368174
N136	N	-0.482803	1.217480	0.618174
H137	H	-1.267610	0.517646	-0.096925
H138	H	-1.017610	0.767646	0.153075
H139	H	-0.767610	1.017646	0.403075
H140	H	-0.517610	1.267646	0.653075
H141	H	-1.195086	0.422965	-0.084093
H142	H	-0.945086	0.672965	0.165907
H143	H	-0.695086	0.922965	0.415907
H144	H	-0.445086	1.172965	0.665907
H145	H	-1.251420	-0.000029	0.262077
H146	H	-1.001420	0.249971	0.512077
H147	H	-0.751420	0.499971	0.762077
H148	H	-0.501420	0.749971	1.012077
H149	H	-0.650710	0.000025	-0.338634
H150	H	-0.400710	0.250025	-0.088634
H151	H	-0.150710	0.500025	0.161366
H152	H	0.099290	0.750025	0.411366
N153	N	-1.044871	0.532604	-0.320283
N154	N	-0.794871	0.782604	-0.070283
N155	N	-0.544871	1.032604	0.179717
N156	N	-0.294871	1.282604	0.429717
H157	H	-1.049664	0.608679	-0.315481
H158	H	-0.799664	0.858679	-0.065481
H159	H	-0.549664	1.108679	0.184519
H160	H	-0.299664	1.358679	0.434519
H161	H	-1.062779	0.513913	-0.387890
H162	H	-0.812779	0.763913	-0.137890
H163	H	-0.562779	1.013913	0.112110
H164	H	-0.312779	1.263913	0.362110
H165	H	-1.026240	0.000030	0.285827
H166	H	-0.776240	0.250030	0.535827
H167	H	-0.526240	0.500030	0.785827
H168	H	-0.276240	0.750030	1.035827
