data_functionalizedCrystal
_audit_creation_method	'MofGen! by Chris Wilmer'
_symmetry_space_group_name_H-M	'P1'
_symmetry_Int_Tables_number	1
_symmetry_cell_setting	triclinic
loop_
_symmetry_equiv_pos_as_xyz
  x,y,z
_cell_length_a	19.805407
_cell_length_b	15.297327
_cell_length_c	19.805399
_cell_angle_alpha	99.649417
_cell_angle_beta	89.975799
_cell_angle_gamma	99.707138
loop_
_atom_site_label
_atom_site_type_symbol
_atom_site_fract_x
_atom_site_fract_y
_atom_site_fract_z
Zn1	Zn	0.988096	-0.359207	-0.429418
Zn2	Zn	1.488096	0.140793	0.070582
Zn3	Zn	0.968421	-0.510075	-0.335809
Zn4	Zn	1.468421	-0.010075	0.164191
Zn5	Zn	0.874907	-0.359229	-0.316237
Zn6	Zn	1.374907	0.140771	0.183763
Zn7	Zn	0.855291	-0.510025	-0.448940
Zn8	Zn	1.355291	-0.010025	0.051060
O9	O	0.921679	-0.434634	-0.382601
O10	O	1.421679	0.065366	0.117399
O11	O	1.080201	-0.379231	-0.417022
O12	O	1.580201	0.120769	0.082978
O13	O	0.955992	-0.490096	-0.238500
O14	O	1.455992	0.009904	0.261500
O15	O	0.906365	-0.232979	-0.314890
O16	O	1.406365	0.267021	0.185110
O17	O	1.065746	-0.490074	-0.348247
O18	O	1.565746	0.009926	0.151753
O19	O	0.989524	-0.232962	-0.398044
O20	O	1.489524	0.267038	0.101956
O21	O	0.887288	-0.379270	-0.224120
O22	O	1.387288	0.120730	0.275880
O23	O	0.777590	-0.379222	-0.333819
O24	O	1.277590	0.120778	0.166181
O25	O	0.872932	-0.489988	-0.541063
O26	O	1.372932	0.010012	-0.041063
O27	O	0.763178	-0.490011	-0.431315
O28	O	1.263178	0.009989	0.068685
O29	O	0.970503	-0.379182	-0.526720
O30	O	1.470503	0.120818	-0.026720
O31	O	0.936971	-0.636316	-0.367176
O32	O	1.436971	-0.136316	0.132824
O33	O	0.853855	-0.636280	-0.450293
O34	O	1.353855	-0.136280	0.049707
C35	C	0.745825	-0.434614	-0.382562
C36	C	1.245825	0.065386	0.117438
C37	C	0.670592	-0.434627	-0.382564
C38	C	1.170592	0.065373	0.117436
C39	C	0.201299	-0.492431	-0.433357
C40	C	0.701299	0.007569	0.066643
C41	C	0.271988	-0.492429	-0.433342
C42	C	0.771988	0.007571	0.066658
C43	C	0.314826	-0.434656	-0.382630
C44	C	0.814826	0.065344	0.117370
C45	C	0.286972	-0.376887	-0.331925
C46	C	0.786972	0.123113	0.168075
C47	C	0.216284	-0.376894	-0.331938
C48	C	0.716284	0.123106	0.168062
C49	C	0.572049	-0.376860	-0.331874
C50	C	1.072049	0.123140	0.168126
C51	C	0.642742	-0.376855	-0.331867
C52	C	1.142742	0.123145	0.168133
C53	C	0.627753	-0.492395	-0.433279
C54	C	1.127753	0.007605	0.066721
C55	C	0.557065	-0.492401	-0.433291
C56	C	1.057065	0.007599	0.066709
C57	C	0.529216	-0.434636	-0.382584
C58	C	1.029216	0.065364	0.117416
C59	C	0.452567	-0.434640	-0.382600
C60	C	0.952567	0.065360	0.117400
C61	C	0.391474	-0.434647	-0.382617
C62	C	0.891474	0.065353	0.117383
C63	C	0.891168	-0.669033	-0.412992
C64	C	1.391168	-0.169033	0.087008
C65	C	0.878177	-0.769309	-0.426016
C66	C	1.378177	-0.269309	0.073984
C67	C	1.014805	-1.051924	-0.289747
C68	C	1.514805	-0.551924	0.210253
C69	C	1.027010	-0.957709	-0.277507
C70	C	1.527010	-0.457709	0.222493
C71	C	0.989803	-0.910604	-0.314633
C72	C	1.489803	-0.410604	0.185367
C73	C	0.940388	-0.957724	-0.364001
C74	C	1.440388	-0.457724	0.135999
C75	C	0.928178	-1.051948	-0.376239
C76	C	1.428178	-0.551948	0.123761
C77	C	0.903176	-0.910629	-0.401125
C78	C	1.403176	-0.410629	0.098875
C79	C	0.853762	-0.957749	-0.450494
C80	C	1.353762	-0.457749	0.049506
C81	C	0.841554	-1.051963	-0.462729
C82	C	1.341554	-0.551963	0.037271
C83	C	0.878761	-1.099068	-0.425603
C84	C	1.378761	-0.599068	0.074397
C85	C	0.915387	-0.816405	-0.388888
C86	C	1.415387	-0.316405	0.111112
C87	C	0.828760	-0.816429	-0.475380
C88	C	1.328760	-0.316429	0.024620
C89	C	0.816555	-0.910644	-0.487620
C90	C	1.316555	-0.410644	0.012380
C91	C	1.098219	-0.434655	-0.382640
C92	C	1.598219	0.065345	0.117360
C93	C	1.173450	-0.434664	-0.382657
C94	C	1.673450	0.065336	0.117343
C95	C	0.921724	-0.434577	-0.559136
C96	C	1.421724	0.065423	-0.059136
C97	C	0.921743	-0.434553	-0.634365
C98	C	1.421743	0.065447	-0.134365
C99	C	0.952327	-0.199320	-0.352106
C100	C	1.452327	0.300680	0.147894
C101	C	0.965388	-0.099044	-0.339111
C102	C	1.465388	0.400956	0.160889
C103	C	0.972550	-0.376854	-0.662242
C104	C	1.472550	0.123146	-0.162242
C105	C	0.972560	-0.376827	-0.732927
C106	C	1.472560	0.123173	-0.232927
C107	C	0.921766	-0.434506	-0.775735
C108	C	1.421766	0.065494	-0.275735
C109	C	0.870955	-0.492208	-0.747853
C110	C	1.370955	0.007792	-0.247853
C111	C	0.870942	-0.492229	-0.677169
C112	C	1.370942	0.007771	-0.177169
C113	C	0.871004	-0.492124	-1.032916
C114	C	1.371004	0.007876	-0.532916
C115	C	0.871022	-0.492101	-1.103605
C116	C	1.371022	0.007899	-0.603605
C117	C	0.972622	-0.376722	-1.088674
C118	C	1.472622	0.123278	-0.588674
C119	C	0.972609	-0.376743	-1.017990
C120	C	1.472609	0.123257	-0.517990
C121	C	0.921796	-0.434442	-0.990114
C122	C	1.421796	0.065558	-0.490114
C123	C	0.921785	-0.434468	-0.913469
C124	C	1.421785	0.065532	-0.413469
C125	C	0.921780	-0.434485	-0.852379
C126	C	1.421780	0.065515	-0.352379
C127	C	0.921681	-0.434626	-0.206744
C128	C	1.421681	0.065374	0.293256
C129	C	0.921826	-0.434396	-0.131482
C130	C	1.421826	0.065604	0.368518
H131	H	0.549383	-0.329827	-0.290584
H132	H	1.049383	0.170173	0.209416
Br133	Br	0.801984	-0.570533	-0.639335
Br134	Br	1.301984	-0.070533	-0.139335
Br135	Br	0.178487	-0.298501	-0.263124
Br136	Br	0.678487	0.201499	0.236876
Br137	Br	0.802083	-0.570385	-1.161702
Br138	Br	1.302083	-0.070385	-0.661702
Br139	Br	0.802042	-0.570427	-0.995093
Br140	Br	1.302042	-0.070427	-0.495093
H141	H	0.798461	-0.778077	-0.505610
H142	H	1.298461	-0.278077	-0.005610
H143	H	1.013973	-0.329779	-0.983139
H144	H	1.513973	0.170221	-0.483139
H145	H	0.868828	-1.175786	-0.435568
H146	H	1.368828	-0.675786	0.064432
Br147	Br	1.041493	-0.298578	-0.604153
Br148	Br	1.541493	0.201422	-0.104153
H149	H	0.677620	-0.329806	-0.290569
H150	H	1.177620	0.170194	0.209431
H151	H	0.955620	-0.778048	-0.348691
H152	H	1.455620	-0.278048	0.151309
H153	H	0.650435	-0.539432	-0.474565
H154	H	1.150435	-0.039432	0.025435
H155	H	1.067242	-0.919347	-0.237311
H156	H	1.567242	-0.419347	0.262689
H157	H	0.166425	-0.539471	-0.474655
H158	H	0.666425	-0.039471	0.025345
Br159	Br	0.309780	-0.570834	-0.502149
Br160	Br	0.809780	-0.070834	-0.002149
Br161	Br	0.345109	-0.298485	-0.263098
Br162	Br	0.845109	0.201515	0.236902
H163	H	0.829595	-0.539168	-0.782713
H164	H	1.329595	-0.039168	-0.282713
H165	H	1.045089	-1.090285	-0.259520
H166	H	1.545089	-0.590285	0.240480
Br167	Br	1.006572	-0.782739	-0.298226
Br168	Br	1.506572	-0.282739	0.201774
Br169	Br	0.498930	-0.570806	-0.502120
Br170	Br	0.998930	-0.070806	-0.002120
Br171	Br	1.041541	-0.298559	-0.770763
Br172	Br	1.541541	0.201441	-0.270763
H173	H	0.801310	-1.090326	-0.502920
H174	H	1.301310	-0.590326	-0.002920
Br175	Br	0.749495	-0.974603	-0.554619
Br176	Br	1.249495	-0.474603	-0.054619
H177	H	1.013995	-0.329738	-1.111378
H178	H	1.513995	0.170262	-0.611378
