data_functionalizedCrystal
_audit_creation_method	'MofGen! by Chris Wilmer'
_symmetry_space_group_name_H-M	'P1'
_symmetry_Int_Tables_number	1
_symmetry_cell_setting	triclinic
loop_
_symmetry_equiv_pos_as_xyz
  x,y,z
_cell_length_a	17.699077
_cell_length_b	14.853567
_cell_length_c	16.176319
_cell_angle_alpha	89.996997
_cell_angle_beta	89.993140
_cell_angle_gamma	83.457753
loop_
_atom_site_label
_atom_site_type_symbol
_atom_site_fract_x
_atom_site_fract_y
_atom_site_fract_z
O1	O	1.004377	0.113983	-0.068729
O2	O	0.784037	0.128821	-0.068732
O3	O	0.900093	-0.009850	-0.068733
O4	O	0.888322	0.252653	-0.068728
O5	O	0.900077	-0.009859	0.068761
O6	O	0.784021	0.128812	0.068761
O7	O	1.004361	0.113974	0.068765
Cu8	Cu	0.894190	0.121392	0.081317
Cu9	Cu	0.894209	0.121403	-0.081284
O10	O	0.888306	0.252645	0.068765
C11	C	0.755830	0.128286	0.000014
C12	C	0.671808	0.126694	0.000013
C13	C	0.632330	0.125938	0.074961
C14	C	0.553384	0.124428	0.074962
C15	C	0.513916	0.123679	0.000014
C16	C	0.553400	0.124431	-0.074941
C17	C	0.632345	0.125935	-0.074941
C18	C	0.235021	0.118364	-0.074942
C19	C	0.156069	0.116863	-0.074937
C20	C	0.156059	0.116857	0.074960
C21	C	0.235004	0.118361	0.074960
C22	C	0.274482	0.119108	0.000007
C23	C	0.360085	0.120745	0.000007
C24	C	0.428314	0.122049	0.000013
C25	C	0.899551	-0.043441	0.000012
C26	C	0.897953	-0.143519	0.000004
C27	C	0.822257	-0.555772	0.000019
C28	C	0.960134	-0.577564	0.000021
C29	C	0.961637	-0.483536	0.000016
C30	C	0.893449	-0.425621	0.000014
C31	C	0.823758	-0.461735	0.000017
C32	C	1.031327	-0.447415	0.000022
C33	C	1.032832	-0.353382	0.000018
C34	C	0.964643	-0.295465	0.000010
C35	C	0.894950	-0.331584	0.000012
C36	C	0.826761	-0.273669	0.000009
C37	C	0.757067	-0.309786	0.000005
C38	C	0.755569	-0.403818	0.000009
C39	C	0.966141	-0.201433	0.000006
C40	C	0.828262	-0.179632	0.000007
C41	C	1.032568	0.114509	0.000017
C42	C	1.116590	0.116101	0.000013
C43	C	0.888847	0.286236	0.000019
C44	C	0.890445	0.386313	0.000021
N45	N	0.894182	0.121384	0.195682
N46	N	0.894222	0.121403	-0.195650
C47	C	0.945587	0.060006	0.238946
C48	C	0.945591	0.060005	0.325493
C49	C	0.894193	0.121387	0.368775
C50	C	0.842782	0.182769	0.325505
C51	C	0.842775	0.182765	0.238960
C52	C	0.842808	0.182786	0.674533
C53	C	0.842820	0.182787	0.761085
C54	C	0.945624	0.060026	0.761067
C55	C	0.945617	0.060022	0.674522
C56	C	0.894204	0.121400	0.631259
C57	C	0.894199	0.121399	0.537415
C58	C	0.894200	0.121393	0.462618
H59	H	0.267154	0.118970	-0.135974
C60	C	0.164007	0.117000	-0.223117
C61	C	0.112685	0.116031	-0.157326
H62	H	0.137222	0.116482	-0.273976
H63	H	0.189079	0.170134	-0.220006
H64	H	0.200519	0.065029	-0.219991
H65	H	0.076177	0.168006	-0.160448
H66	H	0.087601	0.062891	-0.160438
H67	H	0.664487	0.126552	-0.135971
H68	H	0.664458	0.126556	0.135993
C69	C	0.561301	0.124593	0.223132
C70	C	0.509988	0.123607	0.157348
H71	H	0.534508	0.124092	0.273995
H72	H	0.597810	0.072631	0.220018
H73	H	0.586373	0.177736	0.220002
H74	H	0.484919	0.070460	0.160474
H75	H	0.473465	0.175574	0.160463
H76	H	0.765513	-0.585183	0.000012
C77	C	0.227064	0.118192	0.223133
C78	C	0.278387	0.119180	0.157346
H79	H	0.253848	0.118689	0.273994
H80	H	0.190556	0.170157	0.220020
H81	H	0.201989	0.065051	0.220006
H82	H	0.303457	0.172325	0.160469
H83	H	0.314908	0.067210	0.160460
H84	H	0.800915	0.232744	0.203735
C85	C	1.084129	-0.191055	-0.070671
C86	C	1.042739	-0.161728	0.000006
H87	H	1.131417	-0.166537	-0.070674
H88	H	1.092995	-0.255337	-0.070659
H89	H	1.056046	-0.171166	-0.118615
H90	H	1.070819	-0.181623	0.047950
H91	H	1.033876	-0.097432	0.000001
C92	C	1.048469	0.040092	0.576993
C93	C	1.001982	-0.007533	0.626866
H94	H	1.083228	-0.001642	0.547553
H95	H	1.017846	0.076721	0.538909
H96	H	1.075870	0.077484	0.610697
H97	H	0.974576	-0.044920	0.593161
H98	H	1.032609	-0.044178	0.664954
C99	C	0.691822	-0.167537	0.000004
C100	C	0.753306	-0.115975	0.000006
H101	H	0.645548	-0.128236	0.000008
H102	H	0.694112	-0.204660	-0.047941
H103	H	0.694104	-0.204672	0.047953
H104	H	0.751027	-0.078844	-0.047947
H105	H	0.751015	-0.078836	0.047956
H106	H	0.800947	0.232763	0.639316
H107	H	0.987444	0.010025	0.203712
H108	H	1.015650	-0.624723	0.000029
H109	H	0.701548	-0.262620	0.000009
H110	H	0.987448	0.010026	0.360718
H111	H	0.800963	0.232773	0.796323
C112	C	0.989916	-0.096120	0.787708
C113	C	1.002131	-0.007455	0.808624
H114	H	1.024803	-0.137776	0.817063
H115	H	0.939403	-0.105828	0.801906
H116	H	0.997270	-0.104892	0.729969
H117	H	0.994771	0.001319	0.866362
H118	H	1.052656	0.002257	0.794431
C119	C	0.456199	0.200220	-0.161901
C120	C	0.510018	0.123612	-0.157326
H121	H	0.429422	0.199718	-0.212766
H122	H	0.421393	0.199548	-0.117269
H123	H	0.481288	0.253351	-0.158783
H124	H	0.484928	0.070481	-0.160438
H125	H	0.544829	0.124275	-0.201970
C126	C	0.692051	-0.538285	0.000028
C127	C	0.678966	-0.443520	0.000016
H128	H	0.644759	-0.562795	0.000041
H129	H	0.720128	-0.558168	-0.047916
H130	H	0.720131	-0.558158	0.047978
H131	H	0.650891	-0.423647	-0.047937
H132	H	0.650877	-0.423628	0.047966
C133	C	1.090238	-0.601235	0.000024
C134	C	1.106275	-0.511074	0.000029
H135	H	1.136511	-0.640537	0.000024
H136	H	1.061662	-0.612162	0.047965
H137	H	1.061675	-0.612154	-0.047929
H138	H	1.134834	-0.500153	0.047985
H139	H	1.134863	-0.500143	-0.047917
H140	H	0.800929	0.232745	0.360750
C141	C	0.035037	0.114532	0.141533
C142	C	0.112664	0.116019	0.157353
H143	H	0.008251	0.114011	0.192398
H144	H	0.016383	0.166836	0.110745
H145	H	0.027832	0.061731	0.110736
H146	H	0.119870	0.168825	0.188145
H147	H	0.131324	0.063711	0.188155
C148	C	1.150821	-0.343016	-0.070668
C149	C	1.109438	-0.313685	0.000012
H150	H	1.198112	-0.318503	-0.070674
H151	H	1.159683	-0.407298	-0.070656
H152	H	1.122737	-0.323124	-0.118609
H153	H	1.137519	-0.333583	0.047954
H154	H	1.100578	-0.249389	0.000008
