data_functionalizedCrystal
_audit_creation_method	'MofGen! by Chris Wilmer'
_symmetry_space_group_name_H-M	'P1'
_symmetry_Int_Tables_number	1
_symmetry_cell_setting	triclinic
loop_
_symmetry_equiv_pos_as_xyz
  x,y,z
_cell_length_a	13.635800
_cell_length_b	19.453030
_cell_length_c	9.582860
_cell_angle_alpha	86.193618
_cell_angle_beta	111.206767
_cell_angle_gamma	78.292263
loop_
_atom_site_label
_atom_site_type_symbol
_atom_site_fract_x
_atom_site_fract_y
_atom_site_fract_z
V1	V	2.023542	-0.218869	0.208613
O2	O	1.996549	-0.214835	-0.008422
O3	O	2.019000	-0.217245	0.412102
O4	O	1.994753	-0.314383	0.206107
O5	O	2.020964	-0.117024	0.198999
V6	V	2.263403	-0.206703	0.182570
O7	O	2.158339	-0.245556	0.265740
O8	O	2.353704	-0.180016	0.125442
O9	O	2.156341	-0.208327	-0.020920
O10	O	2.349094	-0.210737	0.399604
O11	O	2.324679	-0.308548	0.192183
O12	O	2.180588	-0.111189	0.185075
V13	V	2.523542	-0.218869	0.208613
O14	O	2.496549	-0.214835	-0.008422
O15	O	2.519000	-0.217245	0.412102
O16	O	2.494753	-0.314383	0.206107
O17	O	2.520964	-0.117024	0.198999
V18	V	2.763403	-0.206703	0.182570
O19	O	2.658339	-0.245556	0.265740
O20	O	2.853704	-0.180016	0.125442
O21	O	2.656341	-0.208327	-0.020920
O22	O	2.849094	-0.210737	0.399604
O23	O	2.824679	-0.308548	0.192183
O24	O	2.680588	-0.111189	0.185075
C25	C	1.915501	-0.337668	0.198917
C26	C	1.932736	-0.415751	0.198215
C27	C	1.973697	-0.462371	0.335006
C28	C	1.989904	-0.535740	0.334362
C29	C	1.965127	-0.562484	0.196918
C30	C	1.924165	-0.515854	0.060110
C31	C	1.907969	-0.442487	0.060759
N32	N	1.908878	-0.668045	0.089158
N33	N	1.924263	-0.737741	0.088551
C34	C	2.013923	-0.783532	0.194956
N35	N	2.087609	-0.756997	0.302014
N36	N	2.072219	-0.687295	0.302625
C37	C	1.982685	-0.642036	0.196200
C38	C	2.072461	-0.909708	0.331058
C39	C	2.088673	-0.983078	0.330409
C40	C	2.022922	-0.963189	0.056153
C41	C	2.006722	-0.889822	0.056806
C42	C	2.031488	-0.863086	0.194263
C43	C	1.946431	-0.213759	0.461686
C44	C	1.983331	-0.213068	0.628046
C45	C	2.060582	-0.211811	-0.070496
C46	C	2.013301	-0.212507	-0.236854
C47	C	2.091511	-0.087900	0.192270
C48	C	2.063896	-0.009817	0.192964
C49	C	2.446431	-0.213759	0.461686
C50	C	2.483331	-0.213068	0.628046
C51	C	2.415501	-0.337668	0.198917
C52	C	2.432736	-0.415751	0.198215
C53	C	2.560582	-0.211811	-0.070496
C54	C	2.513301	-0.212507	-0.236854
C55	C	2.591511	-0.087900	0.192270
C56	C	2.563896	-0.009817	0.192964
C57	C	2.532452	-0.455995	0.205372
C58	C	2.548655	-0.529361	0.204693
C59	C	2.465142	-0.562482	0.196867
C60	C	2.365416	-0.522233	0.189705
C61	C	2.349212	-0.448867	0.190374
C62	C	2.465176	0.023287	0.200773
C63	C	2.439208	0.096655	0.201408
C64	C	2.511966	0.136918	0.194244
C65	C	2.610693	0.103810	0.186430
C66	C	2.636656	0.030444	0.185785
H67	H	2.023256	-0.573705	0.445756
H68	H	2.358816	0.123601	0.207770
H69	H	2.478351	-0.622222	0.196325
H70	H	2.629865	-0.562123	0.210532
C71	C	1.995666	-0.992599	-0.095033
H72	H	2.011173	-1.042971	-0.075831
H73	H	2.038113	-0.978774	-0.146477
H74	H	1.920887	-0.974206	-0.156058
C75	C	2.624325	-0.419574	0.213973
H76	H	2.686023	-0.454057	0.218121
H77	H	2.642857	-0.397467	0.302263
H78	H	2.600778	-0.384739	0.126811
C79	C	2.690726	0.148101	0.178571
H80	H	2.753243	0.117884	0.173822
H81	H	2.711399	0.170507	0.266240
H82	H	2.656911	0.183234	0.090786
C83	C	2.273567	-0.558675	0.181116
H84	H	2.297515	-0.608133	0.181764
H85	H	2.212226	-0.538830	0.090434
H86	H	2.254313	-0.551555	0.265887
H87	H	2.490818	0.196656	0.194790
H88	H	2.717047	0.003497	0.179435
C89	C	1.896906	-0.545269	-0.091074
H90	H	1.912407	-0.595641	-0.071870
H91	H	1.939355	-0.531448	-0.142517
H92	H	1.822127	-0.526873	-0.152099
H93	H	2.268012	-0.416106	0.184549
C94	C	1.862917	-0.391200	-0.089712
H95	H	1.856828	-0.343677	-0.069639
H96	H	1.793455	-0.396850	-0.150971
H97	H	1.910693	-0.401426	-0.141347
C98	C	2.000950	-0.432965	0.486202
H99	H	2.027676	-0.471243	0.567578
H100	H	1.937390	-0.402471	0.487363
H101	H	2.054620	-0.407047	0.496953
C102	C	2.385126	-0.020989	0.208639
H103	H	2.322612	0.009244	0.213361
H104	H	2.418922	-0.056120	0.296414
H105	H	2.364436	-0.043392	0.120961
H106	H	2.122035	-1.021036	0.441805
C107	C	2.099710	-0.880291	0.482247
H108	H	2.084183	-0.829919	0.463042
H109	H	2.174482	-0.898682	0.543278
H110	H	2.057253	-0.894117	0.533684
C111	C	1.961647	-0.838537	-0.093666
H112	H	1.949202	-0.864970	-0.175618
H113	H	2.012569	-0.811786	-0.094325
H114	H	1.895344	-0.807221	-0.103902
