data_functionalizedCrystal
_audit_creation_method	'MofGen! by Chris Wilmer'
_symmetry_space_group_name_H-M	'P1'
_symmetry_Int_Tables_number	1
_symmetry_cell_setting	triclinic
loop_
_symmetry_equiv_pos_as_xyz
  x,y,z
_cell_length_a	29.839131
_cell_length_b	12.759401
_cell_length_c	12.759386
_cell_angle_alpha	90.041090
_cell_angle_beta	89.931288
_cell_angle_gamma	89.958419
loop_
_atom_site_label
_atom_site_type_symbol
_atom_site_fract_x
_atom_site_fract_y
_atom_site_fract_z
Zn1	Zn	-0.178688	-1.606295	-0.593936
Zn2	Zn	-0.253867	-1.606038	-0.418236
Zn3	Zn	-0.178752	-1.430527	-0.418275
Zn4	Zn	-0.253792	-1.430503	-0.593878
O5	O	-0.216275	-1.518341	-0.506081
O6	O	-0.188666	-1.753282	-0.570637
O7	O	-0.243961	-1.582658	-0.271220
O8	O	-0.115877	-1.453961	-0.441617
O9	O	-0.243899	-1.753093	-0.441551
O10	O	-0.115830	-1.583096	-0.570674
O11	O	-0.188774	-1.453712	-0.271249
O12	O	-0.188702	-1.283503	-0.441561
O13	O	-0.243771	-1.453920	-0.740907
O14	O	-0.243833	-1.283486	-0.570576
O15	O	-0.188593	-1.583073	-0.740949
O16	O	-0.316724	-1.582635	-0.441495
O17	O	-0.316669	-1.453671	-0.570538
C18	C	-0.216267	-1.245374	-0.506067
C19	C	-0.216274	-1.128597	-0.506086
C20	C	-0.332998	-1.518151	-0.506029
C21	C	-0.382932	-1.518166	-0.506042
C22	C	-0.216167	-1.518523	-0.780115
C23	C	-0.216120	-1.518600	-0.896892
C24	C	-0.692591	-1.585615	-0.438987
C25	C	-0.880264	-1.585744	-0.439027
O26	O	-0.904543	-1.642941	-0.381975
N27	N	-0.903717	-1.518559	-0.506161
C28	C	-0.880248	-1.451341	-0.573293
O29	O	-0.904503	-1.394206	-0.630402
C30	C	-0.692576	-1.451217	-0.573257
C31	C	-0.669126	-1.518400	-0.506112
C32	C	-0.669141	-1.652793	-0.371848
C33	C	-0.622226	-1.652756	-0.371834
C34	C	-0.598760	-1.585540	-0.438960
C35	C	-0.622211	-1.518363	-0.506098
C36	C	-0.669109	-1.384005	-0.640394
C37	C	-0.622188	-1.383982	-0.640381
C38	C	-0.598737	-1.451165	-0.573236
C39	C	-0.551830	-1.451110	-0.573210
N40	N	-0.528377	-1.518296	-0.506077
C41	C	-0.551843	-1.585511	-0.438952
C42	C	-0.978779	-1.451409	-0.573306
C43	C	-1.025697	-1.451438	-0.573314
C44	C	-1.025710	-1.585844	-0.439049
C45	C	-0.978791	-1.585808	-0.439037
C46	C	-0.955326	-1.518595	-0.506173
C47	C	-0.453317	-1.585427	-0.438928
C48	C	-0.406397	-1.585381	-0.438917
C49	C	-0.406389	-1.450980	-0.573185
C50	C	-0.453304	-1.451022	-0.573192
C51	C	-0.476767	-1.518254	-0.506060
O52	O	-0.527523	-1.393952	-0.630241
O53	O	-0.527580	-1.642654	-0.381867
C54	C	-0.739507	-1.585652	-0.439000
C55	C	-0.762957	-1.518474	-0.506139
C56	C	-0.739492	-1.451259	-0.573264
C57	C	-0.809875	-1.518503	-0.506147
C58	C	-0.833340	-1.585718	-0.439022
C59	C	-0.809887	-1.652904	-0.371889
C60	C	-0.762972	-1.652867	-0.371875
C61	C	-0.762944	-1.384073	-0.640397
C62	C	-0.809860	-1.384115	-0.640404
C63	C	-0.833325	-1.451330	-0.573279
C64	C	-0.099097	-1.518560	-0.506157
C65	C	-0.049162	-1.518653	-0.506189
C66	C	-0.216284	-1.792374	-0.506096
C67	C	-0.216287	-1.909151	-0.506103
C68	C	-0.245027	-1.073753	-0.573153
C69	C	-0.245033	-0.964029	-0.573164
C70	C	-0.187531	-0.964002	-0.439033
C71	C	-0.187523	-1.073724	-0.439027
C72	C	-0.273777	-1.128626	-0.640211
C73	C	-0.302533	-1.073782	-0.707283
C74	C	-0.302539	-0.964058	-0.707294
C75	C	-0.273789	-0.909178	-0.640234
C76	C	-0.216350	-1.518220	-0.233114
C77	C	-0.216270	-1.518346	-0.116337
C78	C	-0.187711	-1.450785	-0.061540
C79	C	-0.187635	-1.450914	0.048184
C80	C	-0.244681	-1.586169	0.048303
C81	C	-0.244754	-1.586044	-0.061419
C82	C	-0.159227	-1.383087	-0.116458
C83	C	-0.130666	-1.315520	-0.061660
C84	C	-0.130590	-1.315649	0.048064
C85	C	-0.159075	-1.383346	0.102989
H86	H	-0.387306	-1.640089	-0.384236
H87	H	-0.472398	-1.396320	-0.627870
H88	H	-0.743843	-1.329340	-0.695060
H89	H	-0.472415	-1.640176	-0.384265
H90	H	-0.164125	-0.919310	-0.384435
F91	F	-0.100190	-1.243748	0.106381
F92	F	-0.333139	-0.905692	-0.778684
F93	F	-0.381407	-1.379451	-0.644623
F94	F	-0.275147	-1.657957	-0.119742
H95	H	-0.107472	-1.260410	-0.106388
H96	H	-0.159286	-1.382973	-0.205800
H97	H	-0.743882	-1.707574	-0.317200
F98	F	-0.273793	-0.792398	-0.640258
H99	H	-0.164107	-1.118379	-0.384424
H100	H	-0.159007	-1.383452	0.192334
F101	F	-0.274994	-1.658210	0.106762
H102	H	-0.603135	-1.707464	-0.317162
H103	H	-0.273777	-1.217968	-0.640207
F104	F	-0.694108	-1.724340	-0.300400
H105	H	-0.325937	-1.118472	-0.761887
H106	H	-1.044823	-1.640573	-0.384394
F107	F	-0.953838	-1.657313	-0.367573
H108	H	-1.044786	-1.396722	-0.627980
F109	F	-0.597218	-1.312444	-0.711840
H110	H	-0.959677	-1.396673	-0.627977
H111	H	-0.829001	-1.707630	-0.317230
F112	F	-0.694056	-1.312508	-0.711869
H113	H	-0.828949	-1.329397	-0.695081
