data_functionalizedCrystal
_audit_creation_method	'MofGen! by Chris Wilmer'
_symmetry_space_group_name_H-M	'P1'
_symmetry_Int_Tables_number	1
_symmetry_cell_setting	triclinic
loop_
_symmetry_equiv_pos_as_xyz
  x,y,z
_cell_length_a	19.188930
_cell_length_b	19.188924
_cell_length_c	9.730223
_cell_angle_alpha	89.996615
_cell_angle_beta	89.985926
_cell_angle_gamma	83.143372
loop_
_atom_site_label
_atom_site_type_symbol
_atom_site_fract_x
_atom_site_fract_y
_atom_site_fract_z
O1	O	0.926139	0.087165	-0.114738
O2	O	0.722827	0.098899	-0.114644
O3	O	0.830353	-0.008624	-0.114678
O4	O	0.818613	0.194688	-0.114705
O5	O	0.830351	-0.008621	0.113902
O6	O	0.722826	0.098902	0.113935
O7	O	0.926137	0.087168	0.113842
Zn8	Zn	0.824481	0.093035	0.150181
Zn9	Zn	0.824483	0.093032	-0.150983
O10	O	0.818612	0.194691	0.113875
C11	C	0.696815	0.098521	-0.000342
C12	C	0.619311	0.097380	-0.000306
C13	C	0.574385	0.160471	-0.000336
C14	C	0.501562	0.159399	-0.000351
C15	C	0.473667	0.095233	-0.000364
C16	C	0.518602	0.032134	-0.000326
C17	C	0.591424	0.033207	-0.000297
N18	N	0.365688	0.046185	-0.078208
N19	N	0.296510	0.045169	-0.078238
C20	C	0.254258	0.091995	-0.000447
N21	N	0.283797	0.139885	0.077358
N22	N	0.352982	0.140902	0.077382
C23	C	0.394704	0.094062	-0.000394
C24	C	0.130368	0.153928	-0.000492
C25	C	0.057543	0.152854	-0.000498
C26	C	0.074585	0.025586	-0.000487
C27	C	0.147409	0.026663	-0.000466
C28	C	0.175295	0.090835	-0.000475
C29	C	0.829973	-0.034634	-0.000386
C30	C	0.828834	-0.112138	-0.000382
C31	C	0.828303	-0.148539	-0.124981
C32	C	0.827223	-0.221362	-0.124991
C33	C	0.826688	-0.257783	-0.000395
C34	C	0.827215	-0.221373	0.124221
C35	C	0.828288	-0.148551	0.124227
N36	N	0.864735	-0.377445	0.092321
N37	N	0.863718	-0.446623	0.092307
C38	C	0.823454	-0.477192	-0.000407
N39	N	0.784255	-0.435970	-0.093126
N40	N	0.785276	-0.366786	-0.093115
C41	C	0.825524	-0.336746	-0.000388
C42	C	0.821751	-0.592555	-0.125025
C43	C	0.820667	-0.665379	-0.125030
C44	C	0.820666	-0.665390	0.124185
C45	C	0.821743	-0.592567	0.124187
C46	C	0.822289	-0.556154	-0.000422
C47	C	0.952149	0.087546	-0.000463
C48	C	1.029654	0.088687	-0.000508
C49	C	0.818992	0.220700	-0.000419
C50	C	0.820131	0.298205	-0.000432
N51	N	0.824485	0.093037	0.355717
N52	N	0.824485	0.093024	-0.356520
C53	C	0.872110	0.045442	0.427628
C54	C	0.872108	0.045433	0.571511
C55	C	0.776855	0.140622	0.571559
C56	C	0.776854	0.140626	0.427679
C57	C	0.927105	-0.009512	0.427602
C58	C	0.927103	-0.009521	0.571485
H59	H	0.051874	-0.026659	-0.000582
N60	N	0.602884	0.226012	-0.000339
N61	N	0.641645	0.240806	-0.096672
H62	H	0.661776	0.287094	-0.096671
N63	N	0.906572	-0.072888	0.627511
N64	N	0.904001	-0.080808	0.754848
H65	H	0.889496	-0.125558	0.794422
N66	N	0.193303	-0.037785	-0.000425
N67	N	0.190853	-0.080508	0.095932
H68	H	0.223266	-0.126027	0.095967
H69	H	0.822181	-0.562930	0.225649
N70	N	0.912939	-0.076661	0.378610
N71	N	0.956852	-0.112561	0.304737
H72	H	0.946845	-0.159984	0.270141
H73	H	0.820231	-0.695014	-0.226497
N74	N	0.822310	-0.555366	-0.252315
N75	N	0.821831	-0.587879	-0.363560
H76	H	0.822227	-0.561617	-0.453461
N77	N	0.158861	0.219475	-0.000454
N78	N	0.197574	0.234268	0.095916
H79	H	0.217696	0.280561	0.095947
N80	N	0.728214	0.189241	0.645067
N81	N	0.728966	0.253777	0.629004
H82	H	0.694613	0.288117	0.680916
H83	H	0.738069	0.179376	0.369130
N84	N	0.990443	0.011099	0.371595
N85	N	1.037878	0.026528	0.449971
H86	H	1.082607	0.041096	0.410417
N87	N	0.828859	-0.111356	-0.252274
N88	N	0.828383	-0.143871	-0.363517
H89	H	0.828774	-0.117610	-0.453420
H90	H	0.980622	0.001812	0.610509
H91	H	0.464976	0.210777	-0.000372
H92	H	0.495885	-0.020111	-0.000355
H93	H	0.820225	-0.695043	0.225634
H94	H	0.826786	-0.251004	-0.226458
H95	H	0.628003	-0.018171	-0.000274
N96	N	0.011660	0.217310	-0.000512
N97	N	0.036572	0.274598	-0.000516
H98	H	0.004167	0.320122	-0.000525
N99	N	0.826654	-0.258572	0.251492
N100	N	0.776849	-0.292620	0.279306
H101	H	0.776449	-0.318891	0.369196
N102	N	0.828820	-0.111364	0.251508
N103	N	0.779491	-0.112909	0.334954
H104	H	0.779866	-0.086644	0.424848
