data_functionalizedCrystal
_audit_creation_method	'MofGen! by Chris Wilmer'
_symmetry_space_group_name_H-M	'P1'
_symmetry_Int_Tables_number	1
_symmetry_cell_setting	triclinic
loop_
_symmetry_equiv_pos_as_xyz
  x,y,z
_cell_length_a	16.959455
_cell_length_b	16.959453
_cell_length_c	12.759393
_cell_angle_alpha	89.964958
_cell_angle_beta	89.977038
_cell_angle_gamma	90.018936
loop_
_atom_site_label
_atom_site_type_symbol
_atom_site_fract_x
_atom_site_fract_y
_atom_site_fract_z
Zn1	Zn	1.208433	-0.314657	-0.594081
Zn2	Zn	1.708433	0.185343	-0.094081
Zn3	Zn	1.208341	-0.446859	-0.418391
Zn4	Zn	1.708341	0.053141	0.081609
Zn5	Zn	1.076247	-0.314696	-0.418407
Zn6	Zn	1.576247	0.185304	0.081593
Zn7	Zn	1.076226	-0.446795	-0.594018
Zn8	Zn	1.576226	0.053205	-0.094018
O9	O	1.142312	-0.380752	-0.506224
O10	O	1.642312	0.119248	-0.006224
O11	O	1.319032	-0.332204	-0.570795
O12	O	1.819032	0.167796	-0.070795
O13	O	1.190789	-0.429370	-0.271372
O14	O	1.690789	0.070630	0.228628
O15	O	1.093829	-0.204080	-0.441743
O16	O	1.593829	0.295920	0.058257
O17	O	1.318964	-0.429332	-0.441716
O18	O	1.818964	0.070668	0.058284
O19	O	1.190945	-0.204051	-0.570811
O20	O	1.690945	0.295949	-0.070811
O21	O	1.093740	-0.332270	-0.271384
O22	O	1.593740	0.167730	0.228616
O23	O	0.965633	-0.332208	-0.441683
O24	O	1.465633	0.167792	0.058317
O25	O	1.093793	-0.429224	-0.741048
O26	O	1.593793	0.070776	-0.241048
O27	O	0.965618	-0.429261	-0.570704
O28	O	1.465618	0.070739	-0.070704
O29	O	1.190925	-0.332143	-0.741094
O30	O	1.690925	0.167857	-0.241094
O31	O	1.190769	-0.557461	-0.441655
O32	O	1.690769	-0.057461	0.058345
O33	O	1.093705	-0.557414	-0.570688
O34	O	1.593705	-0.057414	-0.070688
C35	C	0.936946	-0.380733	-0.506189
C36	C	1.436946	0.119267	-0.006189
C37	C	0.849089	-0.380744	-0.506198
C38	C	1.349089	0.119256	-0.006198
C39	C	1.142246	-0.586118	-0.506186
C40	C	1.642246	-0.086118	-0.006186
C41	C	1.142290	-0.673974	-0.506204
C42	C	1.642290	-0.173974	-0.006204
C43	C	0.807799	-0.330141	-0.439131
C44	C	1.307799	0.169859	0.060869
C45	C	0.807825	-0.431353	-0.573282
C46	C	1.307825	0.068647	-0.073282
C47	C	0.725279	-0.431362	-0.573297
C48	C	1.225279	0.068638	-0.073297
C49	C	0.683990	-0.380759	-0.506229
C50	C	1.183990	0.119241	-0.006229
C51	C	0.725246	-0.330146	-0.439146
C52	C	1.225246	0.169854	0.060854
C53	C	0.684017	-0.481967	-0.640386
C54	C	1.184017	0.018033	-0.140386
C55	C	0.601466	-0.481978	-0.640405
C56	C	1.101466	0.018022	-0.140405
C57	C	0.560175	-0.431378	-0.573332
C58	C	1.060175	0.068622	-0.073332
C59	C	0.601436	-0.380765	-0.506245
C60	C	1.101436	0.119235	-0.006245
C61	C	0.560147	-0.330161	-0.439177
C62	C	1.060147	0.169839	0.060823
C63	C	0.601407	-0.279551	-0.372085
C64	C	1.101407	0.220449	0.127915
C65	C	0.683955	-0.279547	-0.372073
C66	C	1.183955	0.220453	0.127927
C67	C	0.477626	-0.431383	-0.573344
C68	C	0.977626	0.068617	-0.073344
C69	C	0.477593	-0.330167	-0.439193
C70	C	0.977593	0.169833	0.060807
C71	C	1.192945	-1.045377	-0.573556
C72	C	1.692945	-0.545377	-0.073556
C73	C	1.091899	-1.045523	-0.439048
C74	C	1.591899	-0.545523	0.060952
C75	C	1.091870	-0.962977	-0.439024
C76	C	1.591870	-0.462977	0.060976
C77	C	1.142378	-0.921627	-0.506268
C78	C	1.642378	-0.421627	-0.006268
C79	C	1.192916	-0.962823	-0.573536
C80	C	1.692916	-0.462823	-0.073536
C81	C	1.041328	-0.921775	-0.371764
C82	C	1.541328	-0.421775	0.128236
C83	C	1.041296	-0.839224	-0.371739
C84	C	1.541296	-0.339224	0.128261
C85	C	1.091809	-0.797873	-0.438978
C86	C	1.591809	-0.297873	0.061022
C87	C	1.142349	-0.839074	-0.506248
C88	C	1.642349	-0.339074	-0.006248
C89	C	1.192857	-0.797724	-0.573493
C90	C	1.692857	-0.297724	-0.073493
C91	C	1.243402	-0.838923	-0.640758
C92	C	1.743402	-0.338923	-0.140758
C93	C	1.243428	-0.921472	-0.640776
C94	C	1.743428	-0.421472	-0.140776
C95	C	1.091782	-0.715325	-0.438960
C96	C	1.591782	-0.215325	0.061040
C97	C	1.192828	-0.715170	-0.573473
C98	C	1.692828	-0.215170	-0.073473
C99	C	1.348480	-0.380771	-0.506260
C100	C	1.848480	0.119229	-0.006260
C101	C	1.436337	-0.380779	-0.506276
C102	C	1.936337	0.119221	-0.006276
C103	C	1.142367	-0.380672	-0.780258
C104	C	1.642367	0.119328	-0.280258
C105	C	1.142391	-0.380638	-0.897034
C106	C	1.642391	0.119362	-0.397034
C107	C	1.142400	-0.174583	-0.506286
C108	C	1.642400	0.325417	-0.006286
C109	C	1.142437	-0.086727	-0.506312
C110	C	1.642437	0.413273	-0.006312
C111	C	1.192974	-0.330083	-0.951922
C112	C	1.692974	0.169917	-0.451922
C113	C	1.192993	-0.330054	-1.061646
C114	C	1.692993	0.169946	-0.561646
C115	C	1.091843	-0.431143	-1.061585
C116	C	1.591843	0.068857	-0.561585
C117	C	1.091821	-0.431167	-0.951863
C118	C	1.591821	0.068833	-0.451863
C119	C	1.243544	-0.279554	-0.897093
C120	C	1.743544	0.220446	-0.397093
C121	C	1.294133	-0.228996	-0.951981
C122	C	1.794133	0.271004	-0.451981
C123	C	1.294151	-0.228967	-1.061705
C124	C	1.794151	0.271033	-0.561705
C125	C	1.243582	-0.279497	-1.116542
C126	C	1.743582	0.220503	-0.616542
C127	C	1.142302	-0.380774	-0.233257
C128	C	1.642302	0.119226	0.266743
C129	C	1.142432	-0.380585	-0.116481
C130	C	1.642432	0.119415	0.383519
H131	H	0.443981	-0.288961	-0.384576
H132	H	0.943981	0.211039	0.115424
H133	H	1.284579	-0.955024	-0.695541
H134	H	1.784579	-0.455024	-0.195541
F135	F	1.246738	-1.089223	-0.645138
F136	F	1.746738	-0.589223	-0.145138
H137	H	0.444036	-0.472584	-0.627976
H138	H	0.944036	0.027416	-0.127976
F139	F	1.037983	-0.484972	-0.893444
F140	F	1.537983	0.015028	-0.393444
F141	F	0.727963	-0.535829	-0.711745
F142	F	1.227963	-0.035829	-0.211745
H143	H	1.000205	-0.955449	-0.317021
H144	H	1.500205	-0.455449	0.182979
H145	H	1.233961	-0.681508	-0.628227
H146	H	1.733961	-0.181508	-0.128227
F147	F	0.557454	-0.225692	-0.300716
F148	F	1.057454	0.274308	0.199284
H149	H	0.717556	-0.238342	-0.317450
H150	H	1.217556	0.261658	0.182550
F151	F	1.038029	-0.484918	-1.119949
F152	F	1.538029	0.015082	-0.619949
H153	H	1.000141	-0.805685	-0.316967
H154	H	1.500141	-0.305685	0.183033
F155	F	1.038139	-1.089533	-0.367499
F156	F	1.538139	-0.589533	0.132501
H157	H	1.243592	-0.279461	-1.205887
H158	H	1.743592	0.220539	-0.705887
F159	F	1.347939	-0.175211	-0.893620
F160	F	1.847939	0.324789	-0.393620
H161	H	1.284522	-0.805247	-0.695514
H162	H	1.784522	-0.305247	-0.195514
H163	H	0.841448	-0.472548	-0.627890
H164	H	1.341448	0.027452	-0.127890
F165	F	0.851711	-0.276282	-0.367727
F166	F	1.351711	0.223718	0.132273
H167	H	1.050625	-0.681784	-0.384198
H168	H	1.550625	-0.181784	0.115802
F169	F	0.557561	-0.535843	-0.711808
F170	F	1.057561	-0.035843	-0.211808
F171	F	1.243531	-0.279583	-0.780316
F172	F	1.743531	0.220417	-0.280316
F173	F	1.347991	-0.175160	-1.120118
F174	F	1.847991	0.324840	-0.620118
