data_functionalizedCrystal
_audit_creation_method	'MofGen! by Chris Wilmer'
_symmetry_space_group_name_H-M	'P1'
_symmetry_Int_Tables_number	1
_symmetry_cell_setting	triclinic
loop_
_symmetry_equiv_pos_as_xyz
  x,y,z
_cell_length_a	10.723024
_cell_length_b	12.784905
_cell_length_c	9.798715
_cell_angle_alpha	89.998003
_cell_angle_beta	89.996609
_cell_angle_gamma	78.787594
loop_
_atom_site_label
_atom_site_type_symbol
_atom_site_fract_x
_atom_site_fract_y
_atom_site_fract_z
O1	O	1.639527	0.148957	-0.113477
O2	O	1.274684	0.163215	-0.113482
O3	O	1.483804	0.001553	-0.113475
O4	O	1.430407	0.310619	-0.113484
O5	O	1.483789	0.001553	0.113507
O6	O	1.274670	0.163215	0.113501
O7	O	1.639513	0.148956	0.113505
Zn8	Zn	1.457089	0.156085	0.149541
Zn9	Zn	1.457108	0.156086	-0.149518
O10	O	1.430393	0.310618	0.113499
C11	C	1.228300	0.162177	0.000009
C12	C	1.090114	0.159073	0.000007
C13	C	1.004407	0.249530	0.000004
C14	C	0.861584	0.246324	0.000002
C15	C	1.487269	-0.038021	0.000014
C16	C	1.497602	-0.155940	0.000008
C17	C	1.287083	-0.353859	0.000019
C18	C	1.296785	-0.464653	0.000014
C19	C	1.526709	-0.488324	0.000002
C20	C	1.517006	-0.377530	0.000007
C21	C	1.397189	-0.310301	0.000014
C22	C	1.387488	-0.199504	0.000009
C23	C	1.617410	-0.223178	0.000007
C24	C	1.627113	-0.333972	0.000002
C25	C	1.685896	0.149994	0.000011
C26	C	1.824083	0.153099	0.000004
C27	C	1.426927	0.350193	0.000006
C28	C	1.416594	0.468111	0.000003
N29	N	1.457085	0.156084	0.353641
N30	N	1.457122	0.156079	-0.353618
C31	C	1.544924	0.087908	0.421420
C32	C	1.544945	0.087904	0.578583
H33	H	1.057755	0.079255	-0.000026
H34	H	1.207125	-0.500113	0.000025
H35	H	1.381894	0.214447	0.411963
H36	H	1.707067	-0.187702	-0.000117
N37	N	0.764082	0.348905	0.000054
H38	H	0.808738	0.411559	0.000070
H39	H	0.709098	0.351873	-0.084077
N40	N	1.047263	0.355260	-0.000003
H41	H	1.013644	0.397029	-0.084148
H42	H	1.013628	0.396947	0.084193
H43	H	1.620109	0.029538	0.363100
H44	H	0.897689	0.075656	-0.000002
H45	H	1.289926	-0.144767	0.000012
H46	H	1.189522	-0.299119	0.000014
N47	N	1.644573	0.010590	0.655777
H48	H	1.630468	0.021548	0.757106
H49	H	1.638114	-0.064828	0.630880
N50	N	1.357494	0.233406	0.569205
H51	H	1.400259	0.280634	0.509909
H52	H	1.306610	0.192417	0.510011
H53	H	1.624258	-0.543081	0.000013
H54	H	1.724664	-0.388725	0.000002
