data_functionalizedCrystal
_audit_creation_method	'MofGen! by Chris Wilmer'
_symmetry_space_group_name_H-M	'P1'
_symmetry_Int_Tables_number	1
_symmetry_cell_setting	triclinic
loop_
_symmetry_equiv_pos_as_xyz
  x,y,z
_cell_length_a	12.837943
_cell_length_b	12.503572
_cell_length_c	12.811415
_cell_angle_alpha	91.877684
_cell_angle_beta	89.411917
_cell_angle_gamma	93.890817
loop_
_atom_site_label
_atom_site_type_symbol
_atom_site_fract_x
_atom_site_fract_y
_atom_site_fract_z
O1	O	1.384311	0.115199	0.265915
O2	O	1.082361	0.113900	0.252510
O3	O	1.239948	0.099824	0.108082
O4	O	1.226724	0.129275	0.410342
O5	O	1.228097	-0.077758	0.118964
O6	O	1.070510	-0.063681	0.263391
O7	O	1.372460	-0.062382	0.276796
Cu8	Cu	1.220403	-0.079246	0.271087
Cu9	Cu	1.234418	0.130764	0.258218
O10	O	1.214873	-0.048306	0.421224
C11	C	1.037766	0.024669	0.253422
C12	C	0.922542	0.023356	0.239916
N13	N	1.210552	-0.226957	0.280139
C14	C	0.683343	0.039161	0.402278
C15	C	0.575079	0.037927	0.389593
C16	C	0.597750	0.019646	0.201863
C17	C	0.706013	0.020880	0.214548
C18	C	0.748805	0.030639	0.314758
C19	C	0.857071	0.031881	0.327442
C20	C	0.879739	0.013593	0.139714
C21	C	0.771476	0.012359	0.127029
C22	C	1.196062	-0.444773	0.293463
C23	C	1.258763	-0.503716	0.235839
C24	C	1.250701	-0.624917	0.243252
C25	C	1.204124	-0.323561	0.286050
C26	C	1.417055	0.026851	0.275884
C27	C	1.532279	0.028171	0.289389
C28	C	1.232918	0.007240	0.074566
C29	C	1.229616	-0.004064	-0.041514
N30	N	1.244277	0.278474	0.249160
C31	C	1.236313	0.168317	-0.271496
C32	C	1.233210	0.157701	-0.380564
C33	C	1.220300	-0.035910	-0.368720
C34	C	1.223403	-0.025294	-0.259652
C35	C	1.231411	0.076822	-0.211044
C36	C	1.234521	0.087437	-0.101975
C37	C	1.221604	-0.106173	-0.090132
C38	C	1.218501	-0.116789	-0.199200
C39	C	1.221903	0.044281	0.454740
C40	C	1.225206	0.055591	0.570820
H41	H	0.718184	0.047109	0.483873
O42	O	1.243144	0.197573	-0.049544
H43	H	1.316220	0.241747	-0.075604
O44	O	1.116958	-0.498496	0.366199
H45	H	1.072267	-0.436623	0.407275
H46	H	0.933052	0.006661	0.068449
H47	H	1.318499	-0.463154	0.180939
O48	O	0.903226	0.042391	0.435523
H49	H	0.881832	0.118908	0.473679
H50	H	1.242843	0.251464	-0.231920
H51	H	0.736619	0.004401	0.045441
O52	O	1.238479	0.256382	-0.445771
H53	H	1.244567	0.329169	-0.393643
H54	H	1.213772	-0.119048	-0.408316
O55	O	1.209887	-0.226926	-0.251628
H56	H	1.208566	-0.218939	-0.337627
H57	H	1.217616	-0.180675	-0.040900
H58	H	0.521782	0.044863	0.460861
O59	O	0.551588	0.009104	0.093786
H60	H	0.465307	0.009676	0.099675
