data_functionalizedCrystal
_audit_creation_method	'MofGen! by Chris Wilmer'
_symmetry_space_group_name_H-M	'P1'
_symmetry_Int_Tables_number	1
_symmetry_cell_setting	triclinic
loop_
_symmetry_equiv_pos_as_xyz
  x,y,z
_cell_length_a	19.805407
_cell_length_b	17.637592
_cell_length_c	19.805399
_cell_angle_alpha	78.754426
_cell_angle_beta	90.017803
_cell_angle_gamma	78.769158
loop_
_atom_site_label
_atom_site_type_symbol
_atom_site_fract_x
_atom_site_fract_y
_atom_site_fract_z
Zn1	Zn	0.980221	0.314853	0.328120
Zn2	Zn	1.313554	0.648186	0.661454
Zn3	Zn	1.646887	0.981520	0.994787
Zn4	Zn	0.957242	0.447076	0.192016
Zn5	Zn	1.290575	0.780409	0.525350
Zn6	Zn	1.623909	1.113743	0.858683
Zn7	Zn	0.867033	0.314869	0.214946
Zn8	Zn	1.200366	0.648202	0.548279
Zn9	Zn	1.533699	0.981535	0.881612
Zn10	Zn	0.844114	0.447028	0.305175
Zn11	Zn	1.177447	0.780361	0.638508
Zn12	Zn	1.510780	1.113695	0.971842
O13	O	0.912152	0.380956	0.260064
O14	O	1.245486	0.714290	0.593398
O15	O	1.578819	1.047623	0.926731
O16	O	1.071887	0.332406	0.310072
O17	O	1.405220	0.665740	0.643406
O18	O	1.738553	0.999073	0.976739
O19	O	0.945251	0.429565	0.100337
O20	O	1.278584	0.762899	0.433670
O21	O	1.611917	1.096232	0.767003
O22	O	0.901256	0.204222	0.249157
O23	O	1.234589	0.537555	0.582490
O24	O	1.567922	0.870888	0.915824
O25	O	1.055004	0.429550	0.210077
O26	O	1.388338	0.762883	0.543411
O27	O	1.721671	1.096217	0.876744
O28	O	0.984414	0.204210	0.332306
O29	O	1.317748	0.537544	0.665639
O30	O	1.651081	0.870877	0.998973
O31	O	0.878974	0.332433	0.117183
O32	O	1.212307	0.665766	0.450516
O33	O	1.545641	0.999100	0.783849
O34	O	0.769278	0.332386	0.226908
O35	O	1.102612	0.665720	0.560241
O36	O	1.435945	0.999053	0.893575
O37	O	0.862194	0.429468	0.402940
O38	O	1.195527	0.762801	0.736273
O39	O	1.528860	1.096135	1.069606
O40	O	0.752440	0.429483	0.293199
O41	O	1.085773	0.762816	0.626532
O42	O	1.419106	1.096150	0.959866
O43	O	0.962191	0.332360	0.419798
O44	O	1.295524	0.665693	0.753131
O45	O	1.628858	0.999026	1.086464
O46	O	0.923027	0.557715	0.187828
O47	O	1.256360	0.891048	0.521162
O48	O	1.589694	1.224381	0.854495
O49	O	0.839912	0.557679	0.270965
O50	O	1.173245	0.891013	0.604299
O51	O	1.506579	1.224346	0.937632
C52	C	0.736301	0.380932	0.260052
C53	C	1.069634	0.714265	0.593385
C54	C	1.402967	1.047598	0.926719
C55	C	0.661067	0.380940	0.260060
C56	C	0.994400	0.714274	0.593393
C57	C	1.327734	1.047607	0.926726
C58	C	0.634499	0.330447	0.312177
C59	C	0.967832	0.663780	0.645511
C60	C	1.301165	0.997114	0.978844
C61	C	0.563810	0.330451	0.312179
C62	C	0.897143	0.663784	0.645513
C63	C	1.230476	0.997118	0.978846
C64	C	0.519689	0.380953	0.260066
C65	C	0.853023	0.714286	0.593399
C66	C	1.186356	1.047620	0.926732
C67	C	0.546262	0.431449	0.207943
C68	C	0.879596	0.764782	0.541276
C69	C	1.212929	1.098115	0.874609
C70	C	0.616951	0.431440	0.207939
C71	C	0.950284	0.764773	0.541272
C72	C	1.283618	1.098106	0.874605
C73	C	0.261183	0.431484	0.207957
C74	C	0.594516	0.764817	0.541291
C75	C	0.927849	1.098151	0.874624
C76	C	0.190490	0.431491	0.207966
C77	C	0.523823	0.764824	0.541300
C78	C	0.857156	1.098157	0.874633
C79	C	0.208041	0.330495	0.312198
C80	C	0.541375	0.663829	0.645531
C81	C	0.874708	0.997162	0.978864
C82	C	0.278730	0.330487	0.312194
C83	C	0.612063	0.663820	0.645527
C84	C	0.945397	0.997153	0.978860
C85	C	0.305297	0.380979	0.260069
C86	C	0.638631	0.714312	0.593403
C87	C	0.971964	1.047645	0.926736
C88	C	0.381947	0.380973	0.260067
C89	C	0.715280	0.714306	0.593400
C90	C	1.048614	1.047639	0.926734
C91	C	0.443040	0.380964	0.260070
C92	C	0.776374	0.714297	0.593403
C93	C	1.109707	1.047630	0.926736
C94	C	0.876507	0.586386	0.224434
C95	C	1.209841	0.919719	0.557767
C96	C	1.543174	1.253053	0.891100
C97	C	0.861320	0.674269	0.209213
C98	C	1.194653	1.007603	0.542547
C99	C	1.527987	1.340936	0.875880
C100	C	0.796647	0.798211	0.144426
C101	C	1.129980	1.131544	0.477760
C102	C	1.463313	1.464878	0.811093
C103	C	0.810922	0.715631	0.158733
C104	C	1.144255	1.048964	0.492067
C105	C	1.477589	1.382298	0.825400
C106	C	0.897465	0.715478	0.245404
C107	C	1.230799	1.048812	0.578737
C108	C	1.564132	1.382145	0.912070
C109	C	0.883200	0.798060	0.231102
C110	C	1.216533	1.131393	0.564435
C111	C	1.549866	1.464727	0.897768
C112	C	0.832789	0.839420	0.180613
C113	C	1.166122	1.172753	0.513946
C114	C	1.499456	1.506086	0.847279
C115	C	0.919342	0.839269	0.267288
C116	C	1.252675	1.172602	0.600621
C117	C	1.586009	1.505936	0.933955
C118	C	0.905074	0.921843	0.252989
C119	C	1.238408	1.255177	0.586323
C120	C	1.571741	1.588510	0.919656
C121	C	0.854665	0.963209	0.202504
C122	C	1.187998	1.296542	0.535838
C123	C	1.521331	1.629876	0.869171
C124	C	0.818521	0.921994	0.166314
C125	C	1.151855	1.255328	0.499647
C126	C	1.485188	1.588661	0.832981
C127	C	0.969749	0.797908	0.317780
C128	C	1.303082	1.131241	0.651113
C129	C	1.636416	1.464574	0.984447
C130	C	1.005891	0.839117	0.353966
C131	C	1.339224	1.172450	0.687300
C132	C	1.672558	1.505783	1.020633
C133	C	0.991627	0.921693	0.339665
C134	C	1.324961	1.255026	0.672998
C135	C	1.658294	1.588359	1.006331
C136	C	0.941218	0.963058	0.289180
C137	C	1.274551	1.296391	0.622513
C138	C	1.607884	1.629725	0.955846
C139	C	1.027771	0.962907	0.375855
C140	C	1.361104	1.296241	0.709188
C141	C	1.694437	1.629574	1.042522
C142	C	1.013503	1.045482	0.361556
C143	C	1.346836	1.378815	0.694890
C144	C	1.680170	1.712148	1.028223
C145	C	0.926950	1.045633	0.274881
C146	C	1.260283	1.378966	0.608214
C147	C	1.593617	1.712299	0.941548
C148	C	1.088691	0.380982	0.260077
C149	C	1.422024	0.714315	0.593410
C150	C	1.755357	1.047649	0.926743
C151	C	1.163921	0.380993	0.260082
C152	C	1.497254	0.714326	0.593415
C153	C	1.830587	1.047659	0.926749
C154	C	0.912199	0.380907	0.436616
C155	C	1.245532	0.714240	0.769949
C156	C	1.578866	1.047573	1.103282
C157	C	0.912219	0.380885	0.511851
C158	C	1.245552	0.714219	0.845185
C159	C	1.578885	1.047552	1.178518
C160	C	0.947925	1.174725	0.295841
C161	C	1.281258	1.508058	0.629174
C162	C	1.614592	1.841392	0.962508
C163	C	0.963092	1.086841	0.311067
C164	C	1.296426	1.420175	0.644401
C165	C	1.629759	1.753508	0.977734
C166	C	0.912155	0.380949	0.084210
C167	C	1.245488	0.714282	0.417543
C168	C	1.578821	1.047616	0.750876
C169	C	0.912305	0.380748	0.009013
C170	C	1.245638	0.714081	0.342346
C171	C	1.578971	1.047414	0.675679
C172	C	0.964289	0.330319	0.555975
C173	C	1.297622	0.663652	0.889308
C174	C	1.630955	0.996985	1.222642
C175	C	0.964300	0.330296	0.626667
C176	C	1.297633	0.663629	0.960001
C177	C	1.630966	0.996962	1.293334
C178	C	0.912243	0.380844	0.653234
C179	C	1.245576	0.714178	0.986567
C180	C	1.578909	1.047511	1.319901
C181	C	0.860168	0.431413	0.609105
C182	C	1.193501	0.764747	0.942439
C183	C	1.526834	1.098080	1.275772
C184	C	0.860154	0.431432	0.538415
C185	C	1.193488	0.764765	0.871748
C186	C	1.526821	1.098098	1.205082
C187	C	0.860218	0.431339	0.894191
C188	C	1.193552	0.764673	1.227525
C189	C	1.526885	1.098006	1.560858
C190	C	0.860237	0.431319	0.964887
C191	C	1.193570	0.764652	1.298221
C192	C	1.526903	1.097986	1.631554
C193	C	0.964364	0.330204	0.982444
C194	C	1.297697	0.663537	1.315777
C195	C	1.631030	0.996870	1.649111
C196	C	0.964351	0.330222	0.911754
C197	C	1.297684	0.663555	1.245087
C198	C	1.631017	0.996889	1.578420
C199	C	0.912274	0.380788	0.867631
C200	C	1.245607	0.714121	1.200965
C201	C	1.578940	1.047454	1.534298
C202	C	0.912262	0.380811	0.790979
C203	C	1.245595	0.714144	1.124312
C204	C	1.578929	1.047478	1.457646
C205	C	0.912257	0.380826	0.729885
C206	C	1.245590	0.714159	1.063218
C207	C	1.578923	1.047492	1.396551
H208	H	0.885904	1.079310	0.233764
H209	H	1.219238	1.412643	0.567098
H210	H	1.552571	1.745977	0.900431
H211	H	0.186403	0.289379	0.354638
H212	H	0.519736	0.622713	0.687972
H213	H	0.853069	0.956046	1.021305
Br214	Br	0.835407	1.075276	0.182990
Br215	Br	1.168740	1.408609	0.516323
Br216	Br	1.502073	1.741942	0.849656
Br217	Br	1.062554	1.101413	0.410666
Br218	Br	1.395887	1.434747	0.743999
Br219	Br	1.729221	1.768080	1.077332
Br220	Br	0.988846	0.685842	0.337451
Br221	Br	1.322179	1.019175	0.670785
Br222	Br	1.655513	1.352509	1.004118
Br223	Br	1.096169	0.906767	0.444385
Br224	Br	1.429503	1.240100	0.777719
Br225	Br	1.762836	1.573434	1.111052
H226	H	0.755601	0.831888	0.103310
H227	H	1.088934	1.165222	0.436643
H228	H	1.422267	1.498555	0.769976
H229	H	1.006702	0.289121	0.662590
H230	H	1.340035	0.622454	0.995924
H231	H	1.673368	0.955788	1.329257
Br232	Br	0.297233	0.499989	0.137203
Br233	Br	0.630566	0.833322	0.470536
Br234	Br	0.963900	1.166655	0.803869
H235	H	0.817780	0.472568	0.630742
H236	H	1.151113	0.805901	0.964075
H237	H	1.484447	1.139234	1.297409
Br238	Br	0.486386	0.499982	0.137211
Br239	Br	0.819720	0.833315	0.470545
Br240	Br	1.153053	1.166648	0.803878
H241	H	0.154567	0.472617	0.165526
H242	H	0.487901	0.805951	0.498860
H243	H	0.821234	1.139284	0.832193
H244	H	0.638581	0.472556	0.165499
H245	H	0.971914	0.805889	0.498832
H246	H	1.305248	1.139223	0.832165
H247	H	0.777476	0.955672	0.125197
H248	H	1.110809	1.289005	0.458531
H249	H	1.444142	1.622338	0.791864
Br250	Br	1.074296	0.782979	0.422492
Br251	Br	1.407630	1.116312	0.755825
Br252	Br	1.740963	1.449645	1.089158
H253	H	0.781486	0.682083	0.129262
H254	H	1.114819	1.015416	0.462596
H255	H	1.448152	1.348749	0.795929
Br256	Br	1.035005	0.261623	0.875702
Br257	Br	1.368338	0.594956	1.209035
Br258	Br	1.701671	0.928289	1.542368
H259	H	0.670417	0.289324	0.354616
H260	H	1.003750	0.622658	0.687949
H261	H	1.337084	0.955991	1.021283
H262	H	0.938508	0.681794	0.286514
H263	H	1.271842	1.015127	0.619847
H264	H	1.605175	1.348461	0.953181
Br265	Br	0.789482	0.500056	0.478532
Br266	Br	1.122815	0.833389	0.811866
Br267	Br	1.456149	1.166722	1.145199
H268	H	0.542181	0.289336	0.354620
H269	H	0.875515	0.622669	0.687953
H270	H	1.208848	0.956003	1.021286
H271	H	1.006681	0.289159	0.534350
H272	H	1.340015	0.622492	0.867683
H273	H	1.673348	0.955825	1.201017
H274	H	1.006765	0.289028	1.018378
H275	H	1.340099	0.622361	1.351711
H276	H	1.673432	0.955695	1.685044
Br277	Br	0.789584	0.499926	1.000941
Br278	Br	1.122917	0.833260	1.334275
Br279	Br	1.456250	1.166593	1.667608
H280	H	0.314650	0.289365	0.354632
H281	H	0.647983	0.622699	0.687965
H282	H	0.981317	0.956032	1.021299
H283	H	0.817822	0.472525	0.858273
H284	H	1.151156	0.805858	1.191606
H285	H	1.484489	1.139191	1.524940
