data_functionalizedCrystal
_audit_creation_method	'MofGen! by Chris Wilmer'
_symmetry_space_group_name_H-M	'P1'
_symmetry_Int_Tables_number	1
_symmetry_cell_setting	triclinic
loop_
_symmetry_equiv_pos_as_xyz
  x,y,z
_cell_length_a	16.109301
_cell_length_b	23.532407
_cell_length_c	14.586319
_cell_angle_alpha	89.991566
_cell_angle_beta	89.999213
_cell_angle_gamma	83.155079
loop_
_atom_site_label
_atom_site_type_symbol
_atom_site_fract_x
_atom_site_fract_y
_atom_site_fract_z
O1	O	1.102555	0.073202	-0.076192
O2	O	0.860422	0.082312	-0.076208
O3	O	0.988790	-0.005148	-0.076183
O4	O	0.974187	0.160662	-0.076217
O5	O	0.988781	-0.005149	0.076298
O6	O	0.860413	0.082311	0.076273
O7	O	1.102546	0.073201	0.076289
Cu8	Cu	0.981479	0.077756	0.090204
Cu9	Cu	0.981489	0.077757	-0.090123
O10	O	0.974178	0.160660	0.076264
C11	C	0.829445	0.081942	0.000031
C12	C	0.737159	0.080836	0.000026
C13	C	0.988414	-0.026366	0.000060
C14	C	0.987296	-0.089587	0.000067
C15	C	0.514498	0.130160	0.000026
C16	C	0.427786	0.129116	0.000032
C17	C	0.448476	0.025348	0.000050
C18	C	0.535187	0.026393	0.000050
C19	C	0.568195	0.078801	0.000034
C20	C	0.394773	0.076712	0.000039
C21	C	0.300755	0.075580	0.000046
C22	C	0.662218	0.079933	0.000029
C23	C	1.056249	-0.488436	0.000021
C24	C	1.055210	-0.547840	0.000014
O25	O	1.119130	-0.584349	-0.000015
N26	N	0.978895	-0.570748	0.000010
C27	C	0.903614	-0.534248	0.000003
O28	O	0.838607	-0.559187	-0.000002
C29	C	0.904654	-0.474845	0.000004
C30	C	0.980973	-0.451941	0.000018
C31	C	1.132562	-0.465531	0.000034
C32	C	1.133601	-0.406131	0.000043
C33	C	1.058325	-0.369636	0.000039
C34	C	0.982012	-0.392541	0.000026
C35	C	0.829373	-0.438346	-0.000009
C36	C	0.830419	-0.378940	-0.000009
C37	C	0.906739	-0.356036	0.000004
C38	C	0.907774	-0.296645	0.000031
N39	N	0.984089	-0.273738	0.000035
C40	C	1.059365	-0.310233	0.000039
C41	C	0.901437	-0.658998	0.000001
C42	C	0.900396	-0.718400	0.000007
C43	C	1.051993	-0.731988	0.000016
C44	C	1.053032	-0.672585	0.000017
C45	C	0.977752	-0.636091	0.000005
C46	C	1.061539	-0.185488	0.000058
C47	C	1.062571	-0.126082	0.000071
C48	C	0.910975	-0.112499	0.000057
C49	C	0.909943	-0.171900	0.000049
C50	C	0.985232	-0.208394	0.000047
O51	O	0.843888	-0.260102	0.000057
O52	O	1.124361	-0.285285	0.000032
C53	C	1.133523	0.073570	0.000048
C54	C	1.225809	0.074677	0.000047
C55	C	0.974554	0.181878	0.000019
C56	C	0.975672	0.245100	0.000006
N57	N	0.981477	0.077754	0.217035
N58	N	0.981497	0.077754	-0.216954
C59	C	1.038338	0.039040	0.452053
C60	C	1.038340	0.039039	0.548034
C61	C	0.924631	0.116470	0.548021
C62	C	0.924625	0.116468	0.452042
C63	C	0.981483	0.077754	0.404060
C64	C	0.981491	0.077754	0.596021
C65	C	0.981494	0.077753	0.700088
C66	C	0.981480	0.077754	0.299986
H67	H	0.541371	0.172834	0.000019
H68	H	0.878340	0.147991	0.587098
O69	O	1.125042	-0.767527	-0.000032
C70	C	1.107750	-0.824867	-0.000018
H71	H	1.042464	-0.827129	-0.028883
H72	H	1.111048	-0.842058	0.073132
C73	C	1.252782	-0.858445	-0.024371
C74	C	1.172600	-0.861224	-0.059831
H75	H	1.292786	-0.880873	-0.061263
H76	H	1.264433	-0.819815	-0.024377
H77	H	1.255519	-0.872770	0.036587
H78	H	1.169861	-0.846893	-0.120783
H79	H	1.160950	-0.899854	-0.059837
O80	O	0.828249	-0.623607	-0.000119
C81	C	0.781897	-0.633975	-0.079103
H82	H	0.802704	-0.679033	-0.105434
H83	H	0.792981	-0.601476	-0.134399
C84	C	0.662625	-0.572993	-0.022775
C85	C	0.688177	-0.628336	-0.055111
H86	H	0.604814	-0.569512	-0.007978
H87	H	0.693854	-0.566006	0.030437
H88	H	0.671870	-0.545917	-0.068861
H89	H	0.678942	-0.655411	-0.009021
H90	H	0.656944	-0.635327	-0.108314
O91	O	0.837932	-0.076961	0.000011
C92	C	0.855224	-0.019621	0.000040
H93	H	0.920513	-0.017352	-0.028815
H94	H	0.851918	-0.002449	0.073193
C95	C	0.710194	0.013963	-0.024328
C96	C	0.790381	0.016751	-0.059776
H97	H	0.670195	0.036401	-0.061222
H98	H	0.698543	-0.024667	-0.024344
H99	H	0.707451	0.028273	0.036632
H100	H	0.793126	0.002435	-0.120730
H101	H	0.802031	0.055381	-0.059772
O102	O	1.093593	0.001376	0.405585
C103	C	1.143787	-0.032785	0.468531
H104	H	1.109710	-0.033432	0.536952
H105	H	1.205395	-0.014282	0.478729
C106	C	1.203281	-0.093426	0.347056
C107	C	1.161424	-0.094224	0.431089
H108	H	1.214164	-0.131324	0.323960
H109	H	1.169467	-0.070410	0.304647
H110	H	1.254616	-0.078004	0.355566
H111	H	1.110086	-0.109639	0.422577
H112	H	1.195230	-0.117244	0.473496
O113	O	1.127116	-0.650271	-0.000101
C114	C	1.132271	-0.616324	-0.079085
H115	H	1.066620	-0.601518	-0.105419
H116	H	1.169274	-0.642570	-0.134380
C117	C	1.257235	-0.581972	-0.022756
C118	C	1.176600	-0.563784	-0.055094
H119	H	1.284582	-0.549564	-0.007959
H120	H	1.253764	-0.604844	0.030457
H121	H	1.288060	-0.603845	-0.068840
H122	H	1.145774	-0.541918	-0.009006
H123	H	1.180067	-0.540907	-0.108298
H124	H	1.084635	0.007514	0.587107
O125	O	0.869315	0.154000	0.405373
C126	C	0.818291	0.123489	0.349850
H127	H	0.817257	0.078577	0.378792
H128	H	0.844336	0.120505	0.277110
C129	C	0.730041	0.210022	0.312818
C130	C	0.728765	0.154862	0.348369
H131	H	0.674817	0.229375	0.311900
H132	H	0.764418	0.230579	0.350222
H133	H	0.751748	0.207527	0.252204
H134	H	0.707067	0.157358	0.408985
H135	H	0.694381	0.134306	0.310975
H136	H	0.847797	-0.190549	0.000064
H137	H	1.124722	-0.107437	0.000084
O138	O	0.757343	-0.343432	0.000104
C139	C	0.753384	-0.308684	0.079090
H140	H	0.819345	-0.305684	0.105429
H141	H	0.715576	-0.328234	0.134380
C142	C	0.630017	-0.252056	0.022752
C143	C	0.711032	-0.248367	0.055097
H144	H	0.603889	-0.214850	0.007954
H145	H	0.632682	-0.275467	-0.030461
H146	H	0.598521	-0.268349	0.068833
H147	H	0.742530	-0.232081	0.009012
H148	H	0.708372	-0.224951	0.108302
O149	O	0.826311	-0.740713	-0.000120
C150	C	0.821164	-0.774643	-0.079108
H151	H	0.886818	-0.789444	-0.105432
H152	H	0.784169	-0.748385	-0.134407
C153	C	0.696192	-0.809004	-0.022801
C154	C	0.776830	-0.827187	-0.055128
H155	H	0.668842	-0.841414	-0.008011
H156	H	0.699658	-0.786143	0.030414
H157	H	0.665373	-0.787122	-0.068888
H158	H	0.807651	-0.849062	-0.009036
H159	H	0.773369	-0.850053	-0.108334
O160	O	0.755213	-0.460557	-0.000191
C161	C	0.709367	-0.441877	-0.079159
H162	H	0.754019	-0.429525	-0.134343
H163	H	0.662719	-0.403154	-0.061311
C164	C	0.607143	-0.505639	-0.047209
C165	C	0.661986	-0.490472	-0.114989
H166	H	0.577913	-0.535613	-0.069309
H167	H	0.638028	-0.518223	0.005996
H168	H	0.568277	-0.473366	-0.032342
H169	H	0.700857	-0.522743	-0.129847
H170	H	0.631107	-0.477895	-0.168197
O171	O	0.375743	0.179060	-0.000019
C172	C	0.423476	0.225537	-0.000009
H173	H	0.488318	0.211070	-0.028876
H174	H	0.429519	0.241600	0.073140
C175	C	0.300221	0.291916	-0.024360
C176	C	0.379859	0.274149	-0.059823
H177	H	0.273316	0.321904	-0.061253
H178	H	0.268062	0.260605	-0.024364
H179	H	0.305268	0.305299	0.036596
H180	H	0.374810	0.260761	-0.120774
H181	H	0.412017	0.305460	-0.059831
H182	H	0.578910	-0.015433	0.000059
O183	O	0.416369	-0.025543	-0.000105
C184	C	0.366817	-0.029242	-0.079066
H185	H	0.387081	0.000517	-0.134265
H186	H	0.298321	-0.016094	-0.061216
C187	C	0.352956	-0.127793	-0.047070
C188	C	0.377849	-0.091246	-0.114870
H189	H	0.359757	-0.166039	-0.069154
H190	H	0.386337	-0.125300	0.006129
H191	H	0.295877	-0.116829	-0.032202
H192	H	0.434929	-0.102204	-0.129729
H193	H	0.344477	-0.093741	-0.168073
O194	O	1.134750	-0.220851	0.000100
C195	C	1.202321	-0.187886	0.000091
H196	H	1.180826	-0.143554	0.028960
H197	H	1.225744	-0.183646	-0.073058
C198	C	1.299926	-0.271938	0.024439
C199	C	1.273528	-0.217490	0.059904
H200	H	1.343852	-0.290199	0.061331
H201	H	1.254404	-0.294147	0.024442
H202	H	1.319440	-0.268397	-0.036518
H203	H	1.254005	-0.221032	0.120855
H204	H	1.319049	-0.195281	0.059912
H205	H	1.195748	-0.387488	0.000050
H206	H	1.193864	-0.495240	0.000034
