data_functionalizedCrystal
_audit_creation_method	'MofGen! by Chris Wilmer'
_symmetry_space_group_name_H-M	'P1'
_symmetry_Int_Tables_number	1
_symmetry_cell_setting	triclinic
loop_
_symmetry_equiv_pos_as_xyz
  x,y,z
_cell_length_a	19.288867
_cell_length_b	16.053789
_cell_length_c	19.288865
_cell_angle_alpha	92.901325
_cell_angle_beta	83.136658
_cell_angle_gamma	92.894766
loop_
_atom_site_label
_atom_site_type_symbol
_atom_site_fract_x
_atom_site_fract_y
_atom_site_fract_z
O1	O	0.923951	0.069410	0.089257
O2	O	1.423951	0.569410	0.589257
O3	O	0.721691	0.069420	0.100945
O4	O	1.221691	0.569420	0.600945
O5	O	0.828664	0.069398	-0.006030
O6	O	1.328664	0.569398	0.493970
O7	O	0.816977	0.069432	0.196232
O8	O	1.316977	0.569432	0.696232
O9	O	0.823447	-0.069462	-0.011240
O10	O	1.323447	0.430538	0.488760
O11	O	0.716473	-0.069440	0.095734
O12	O	1.216473	0.430560	0.595734
O13	O	0.918733	-0.069450	0.084047
O14	O	1.418733	0.430550	0.584047
Zn15	Zn	0.816775	-0.091492	0.089063
Zn16	Zn	1.316775	0.408508	0.589063
Zn17	Zn	0.823649	0.091462	0.095928
Zn18	Zn	1.323649	0.591462	0.595928
O19	O	0.811760	-0.069428	0.191021
O20	O	1.311760	0.430572	0.691021
C21	C	0.693206	-0.000009	0.097963
C22	C	1.193206	0.499991	0.597963
C23	C	0.616102	-0.000007	0.096834
C24	C	1.116102	0.499993	0.596834
C25	C	0.063380	0.075675	0.091537
C26	C	0.563380	0.575675	0.591537
C27	C	0.135828	0.075678	0.092595
C28	C	0.635828	0.575678	0.592595
C29	C	0.169213	-0.000014	0.090286
C30	C	0.669213	0.499986	0.590286
C31	C	0.130146	-0.075715	0.086902
C32	C	0.630146	0.424285	0.586902
C33	C	0.057700	-0.075716	0.085838
C34	C	0.557700	0.424284	0.585838
C35	C	0.276361	-0.057997	0.130478
C36	C	0.776361	0.442003	0.630478
C37	C	0.348805	-0.057993	0.131547
C38	C	0.848805	0.442007	0.631547
C39	C	0.392658	-0.000014	0.093565
C40	C	0.892658	0.499986	0.593565
C41	C	0.364059	0.057975	0.054525
C42	C	0.864059	0.557975	0.554525
C43	C	0.291613	0.057974	0.053461
C44	C	0.791613	0.557974	0.553461
C45	C	0.247767	-0.000021	0.091440
C46	C	0.747767	0.499979	0.591440
C47	C	0.510273	0.075686	0.098091
C48	C	1.010273	0.575686	0.598091
C49	C	0.582722	0.075686	0.099144
C50	C	1.082722	0.575686	0.599144
C51	C	0.577038	-0.075709	0.093458
C52	C	1.077038	0.424291	0.593458
C53	C	0.504591	-0.075707	0.092398
C54	C	1.004591	0.424293	0.592398
C55	C	0.471212	-0.000007	0.094718
C56	C	0.971212	0.499993	0.594718
N57	N	0.812089	-0.216353	0.084377
N58	N	1.312089	0.283647	0.584377
C59	C	0.852442	-0.260039	0.124761
C60	C	1.352442	0.239961	0.624761
C61	C	0.849173	-0.347446	0.121478
C62	C	1.349173	0.152554	0.621478
C63	C	0.805547	-0.391167	0.077816
C64	C	1.305547	0.108833	0.577816
C65	C	0.765192	-0.347475	0.037428
C66	C	1.265192	0.152525	0.537428
C67	C	0.768465	-0.260069	0.040707
C68	C	1.268465	0.239931	0.540707
C69	C	0.791259	-0.652579	0.063500
C70	C	1.291259	-0.152579	0.563500
C71	C	0.787987	-0.739991	0.060225
C72	C	1.287987	-0.239991	0.560225
C73	C	0.871970	-0.739956	0.144275
C74	C	1.371970	-0.239956	0.644275
C75	C	0.875236	-0.652549	0.147553
C76	C	1.375236	-0.152549	0.647553
C77	C	0.834884	-0.608865	0.107163
C78	C	1.334884	-0.108865	0.607163
N79	N	0.802203	-0.480511	0.074462
N80	N	1.302203	0.019489	0.574462
N81	N	0.838232	-0.519522	0.110514
N82	N	1.338232	-0.019522	0.610514
C83	C	0.947218	-0.000019	0.087028
C84	C	1.447218	0.499981	0.587028
C85	C	1.024322	-0.000016	0.088158
C86	C	1.524322	0.499984	0.588158
C87	C	0.825679	-0.000034	-0.034512
C88	C	1.325679	0.499966	0.465488
C89	C	0.824550	-0.000042	-0.111616
C90	C	1.324550	0.499958	0.388384
N91	N	0.828341	0.216323	0.100608
N92	N	1.328341	0.716323	0.600608
C93	C	0.887318	-0.000049	-0.156312
C94	C	1.387318	0.499951	0.343688
C95	C	0.886258	-0.000035	-0.228758
C96	C	1.386258	0.499965	0.271242
C97	C	0.822426	-0.000032	-0.256506
C98	C	1.322426	0.499968	0.243494
C99	C	0.759650	-0.000020	-0.211800
C100	C	1.259650	0.499980	0.288200
C101	C	0.760712	-0.000025	-0.139355
C102	C	1.260712	0.499975	0.360645
C103	C	0.770419	-0.048669	-0.366619
C104	C	1.270419	0.451331	0.133381
C105	C	0.769359	-0.048670	-0.439063
C106	C	1.269359	0.451330	0.060937
C107	C	0.819147	-0.000013	-0.479951
C108	C	1.319147	0.499987	0.020049
C109	C	0.870006	0.048633	-0.448387
C110	C	1.370006	0.548633	0.051613
C111	C	0.871068	0.048628	-0.375942
C112	C	1.371068	0.548628	0.124058
C113	C	0.821267	-0.000026	-0.335060
C114	C	1.321267	0.499974	0.164940
C115	C	0.880769	-0.000004	-0.603203
C116	C	1.380769	0.499996	-0.103203
C117	C	0.879706	0.000014	-0.675650
C118	C	1.379706	0.500014	-0.175650
C119	C	0.753097	0.000021	-0.658690
C120	C	1.253097	0.500021	-0.158690
C121	C	0.754161	0.000011	-0.586244
C122	C	1.254161	0.500011	-0.086244
C123	C	0.817999	-0.000006	-0.558505
C124	C	1.317999	0.499994	-0.058505
C125	C	0.814744	0.000006	0.219503
C126	C	1.314744	0.500006	0.719503
C127	C	0.815874	0.000019	0.296607
C128	C	1.315874	0.500019	0.796607
H129	H	0.036209	0.137316	0.093423
H130	H	0.536209	0.637316	0.593423
C131	C	0.228126	-0.121781	0.172255
C132	C	0.728126	0.378219	0.672255
H133	H	0.180886	-0.113484	0.166024
H134	H	0.680886	0.386516	0.666024
H135	H	0.233875	-0.114480	0.220445
H136	H	0.733875	0.385520	0.720445
H137	H	0.239856	-0.176735	0.156054
H138	H	0.739856	0.323265	0.656054
C139	C	0.613752	-0.158970	0.090918
C140	C	1.113752	0.341030	0.590918
H141	H	0.662492	-0.148130	0.092040
H142	H	1.162492	0.351870	0.592040
H143	H	0.606135	-0.190078	0.049081
H144	H	1.106135	0.309922	0.549081
H145	H	0.595288	-0.190064	0.130078
H146	H	1.095288	0.309936	0.630078
C147	C	0.924780	0.102156	-0.493351
C148	C	1.424780	0.602156	0.006649
H149	H	0.955223	0.131119	-0.464178
H150	H	1.455223	0.631119	0.035822
H151	H	0.901826	0.141281	-0.516922
H152	H	1.401826	0.641281	-0.016922
H153	H	0.951093	0.067075	-0.526689
H154	H	1.451093	0.567075	-0.026689
H155	H	0.614524	0.137326	0.101890
H156	H	1.114524	0.637326	0.601890
H157	H	0.904823	-0.775533	0.177158
H158	H	1.404823	-0.275533	0.677158
C159	C	0.893559	-0.395497	0.165903
C160	C	1.393559	0.104503	0.665903
H161	H	0.920003	-0.356940	0.192382
H162	H	1.420003	0.143060	0.692382
H163	H	0.924341	-0.429594	0.136082
H164	H	1.424341	0.070406	0.636082
H165	H	0.863713	-0.429591	0.196664
H166	H	1.363713	0.070409	0.696664
H167	H	0.157332	-0.137344	0.085022
H168	H	0.657332	0.362656	0.585022
C169	C	0.178800	0.158942	0.096321
C170	C	0.678800	0.658942	0.596321
H171	H	0.148544	0.204025	0.097555
H172	H	0.648544	0.704025	0.597555
H173	H	0.212607	0.162092	0.056362
H174	H	0.712607	0.662092	0.556362
H175	H	0.201748	0.162081	0.137358
H176	H	0.701748	0.662081	0.637358
C177	C	0.689435	-0.000013	-0.242316
C178	C	1.189435	0.499987	0.257684
H179	H	0.652204	-0.000002	-0.205317
H180	H	1.152204	0.499998	0.294683
H181	H	0.684565	-0.048434	-0.272050
H182	H	1.184565	0.451566	0.227950
H183	H	0.688213	0.048420	-0.268399
H184	H	1.188213	0.548420	0.231601
H185	H	0.932750	-0.000014	-0.580616
H186	H	1.432750	0.499986	-0.080616
C187	C	0.955302	-0.000049	-0.277936
C188	C	1.455302	0.499951	0.222064
H189	H	0.945525	-0.000039	-0.325054
H190	H	1.445525	0.499961	0.174946
H191	H	0.979663	-0.048477	-0.271371
H192	H	1.479663	0.451523	0.228629
H193	H	0.983310	0.048376	-0.267726
H194	H	1.483310	0.548376	0.232274
H195	H	0.268331	0.105189	0.021671
H196	H	0.768331	0.605189	0.521671
H197	H	0.025899	-0.137355	0.083089
H198	H	0.525899	0.362645	0.583089
H199	H	0.887963	-0.224448	0.160319
H200	H	1.387963	0.275552	0.660319
H201	H	0.729873	-0.088296	-0.333334
H202	H	1.229873	0.411704	0.166666
H203	H	0.912478	0.088239	-0.350246
H204	H	1.412478	0.588239	0.149754
H205	H	0.910763	-0.616957	0.183105
H206	H	1.410763	-0.116957	0.683105
H207	H	0.727944	-0.088275	-0.464756
H208	H	1.227944	0.411725	0.035244
H209	H	0.399763	0.105190	0.023599
H210	H	0.899763	0.605190	0.523599
C211	C	0.746866	-0.604538	0.019079
C212	C	1.246866	-0.104538	0.519079
H213	H	0.720410	-0.643097	-0.007386
H214	H	1.220410	-0.143097	0.492614
H215	H	0.776703	-0.570443	-0.011684
H216	H	1.276703	-0.070443	0.488316
H217	H	0.716084	-0.570442	0.048908
H218	H	1.216084	-0.070442	0.548908
C219	C	0.724073	-0.212012	-0.003709
C220	C	1.224073	0.287988	0.496291
H221	H	0.732275	-0.153695	0.004493
H222	H	1.232275	0.346305	0.504493
H223	H	0.675974	-0.226341	0.008780
H224	H	1.175974	0.273659	0.508780
H225	H	0.736597	-0.226343	-0.051808
H226	H	1.236597	0.273657	0.448192
H227	H	0.752458	-0.775586	0.024670
H228	H	1.252458	-0.275586	0.524670
C229	C	0.682881	0.000028	-0.689201
C230	C	1.182881	0.500028	-0.189201
H231	H	0.645650	0.000034	-0.652202
H232	H	1.145650	0.500034	-0.152202
H233	H	0.678013	-0.048391	-0.718936
H234	H	1.178013	0.451609	-0.218936
H235	H	0.681657	0.048462	-0.715281
H236	H	1.181657	0.548462	-0.215281
C237	C	0.473553	0.158951	0.100645
C238	C	0.973553	0.658951	0.600645
H239	H	0.507195	0.204032	0.102802
H240	H	1.007195	0.704032	0.602802
H241	H	0.439991	0.162095	0.140849
H242	H	0.939991	0.662095	0.640849
H243	H	0.450830	0.162099	0.059852
H244	H	0.950830	0.662099	0.559852
C245	C	0.461623	-0.158969	0.088692
C246	C	0.961623	0.341031	0.588692
H247	H	0.491879	-0.204049	0.087475
H248	H	0.991879	0.295951	0.587475
H249	H	0.438666	-0.162124	0.047664
H250	H	0.938666	0.337876	0.547664
H251	H	0.427822	-0.162107	0.128662
H252	H	0.927822	0.337893	0.628662
C253	C	0.948754	0.000005	-0.724816
C254	C	1.448754	0.500005	-0.224816
H255	H	0.986923	-0.000014	-0.697917
H256	H	1.486923	0.499986	-0.197917
H257	H	0.952797	0.048430	-0.751605
H258	H	1.452797	0.548430	-0.251605
H259	H	0.949146	-0.048423	-0.755254
H260	H	1.449146	0.451577	-0.255254
C261	C	0.691665	-0.000025	-0.090187
C262	C	1.191665	0.499975	0.409813
H263	H	0.653495	-0.000025	-0.117086
H264	H	1.153495	0.499975	0.382914
H265	H	0.691267	0.048393	-0.059745
H266	H	1.191267	0.548393	0.440255
H267	H	0.687630	-0.048460	-0.063404
H268	H	1.187630	0.451540	0.436596
C269	C	0.717202	-0.395566	-0.010598
C270	C	1.217202	0.104434	0.489402
H271	H	0.721026	-0.453878	-0.006762
H272	H	1.221026	0.046122	0.493238
H273	H	0.730793	-0.381251	-0.057620
H274	H	1.230793	0.118749	0.442380
H275	H	0.670173	-0.381243	0.002972
H276	H	1.170173	0.118757	0.502972
C277	C	0.957535	-0.000064	-0.125798
C278	C	1.457535	0.499936	0.374202
H279	H	0.949180	-0.000073	-0.076251
H280	H	1.449180	0.499927	0.423749
H281	H	0.985195	0.048355	-0.139331
H282	H	1.485195	0.548355	0.360669
H283	H	0.981544	-0.048498	-0.142981
H284	H	1.481544	0.451502	0.357019
C285	C	0.380262	-0.121773	0.174490
C286	C	0.880262	0.378227	0.674490
H287	H	0.429687	-0.113462	0.169692
H288	H	0.929687	0.386538	0.669692
H289	H	0.368245	-0.176726	0.157944
H290	H	0.868245	0.323274	0.657944
H291	H	0.362265	-0.114467	0.222333
H292	H	0.862265	0.385533	0.722333
C293	C	0.685116	0.000004	-0.537077
C294	C	1.185116	0.500004	-0.037077
H295	H	0.646947	0.000001	-0.563977
H296	H	1.146947	0.500001	-0.063977
H297	H	0.684715	0.048424	-0.506636
H298	H	1.184715	0.548424	-0.006636
H299	H	0.681082	-0.048429	-0.510292
H300	H	1.181082	0.451571	-0.010292
