data_functionalizedCrystal
_audit_creation_method	'MofGen! by Chris Wilmer'
_symmetry_space_group_name_H-M	'P1'
_symmetry_Int_Tables_number	1
_symmetry_cell_setting	triclinic
loop_
_symmetry_equiv_pos_as_xyz
  x,y,z
_cell_length_a	14.519709
_cell_length_b	11.792241
_cell_length_c	10.268362
_cell_angle_alpha	89.999626
_cell_angle_beta	89.999088
_cell_angle_gamma	96.063220
loop_
_atom_site_label
_atom_site_type_symbol
_atom_site_fract_x
_atom_site_fract_y
_atom_site_fract_z
O1	O	-0.126405	1.506208	-0.108155
O2	O	0.373595	2.006208	0.391845
O3	O	-0.139432	1.175795	-0.108183
O4	O	0.360568	1.675795	0.391817
O5	O	0.001288	1.349762	-0.108180
O6	O	0.501288	1.849762	0.391820
O7	O	-0.267125	1.332241	-0.108158
O8	O	0.232875	1.832241	0.391842
O9	O	0.001294	1.349747	0.108421
O10	O	0.501294	1.849747	0.608421
O11	O	-0.139426	1.175780	0.108418
O12	O	0.360574	1.675780	0.608418
O13	O	-0.126399	1.506193	0.108446
O14	O	0.373601	2.006193	0.608446
Cu15	Cu	-0.132912	1.340985	0.128209
Cu16	Cu	0.367088	1.840985	0.628209
Cu17	Cu	-0.132919	1.341003	-0.127946
Cu18	Cu	0.367081	1.841003	0.372054
O19	O	-0.267119	1.332226	0.108443
O20	O	0.232881	1.832226	0.608443
C21	C	-0.138611	1.133501	0.000113
C22	C	0.361389	1.633501	0.500113
C23	C	-0.136161	1.007501	0.000102
C24	C	0.363839	1.507501	0.500102
C25	C	-0.131657	0.776813	0.000139
C26	C	0.368343	1.276813	0.500139
C27	C	-0.134160	0.905185	0.000118
C28	C	0.365840	1.405185	0.500118
C29	C	-0.301484	1.333050	0.000146
C30	C	0.198516	1.833050	0.500146
C31	C	-0.403875	1.335497	0.000155
C32	C	0.096125	1.835497	0.500155
C33	C	-0.778803	1.344505	0.000104
C34	C	-0.278803	1.844505	0.500104
C35	C	-0.674486	1.342003	0.000118
C36	C	-0.174486	1.842003	0.500118
C37	C	-0.591342	1.340001	0.000130
C38	C	-0.091342	1.840001	0.500130
C39	C	-0.487019	1.337499	0.000143
C40	C	0.012981	1.837499	0.500143
C41	C	0.035654	1.348938	0.000115
C42	C	0.535654	1.848938	0.500115
C43	C	0.138044	1.346491	0.000097
C44	C	0.638044	1.846491	0.500097
C45	C	-0.127220	1.548487	0.000147
C46	C	0.372780	2.048487	0.500147
C47	C	-0.129669	1.674487	0.000150
C48	C	0.370331	2.174487	0.500150
N49	N	-0.132906	1.340981	0.308375
N50	N	0.367094	1.840981	0.808375
N51	N	-0.132917	1.341016	-0.308112
N52	N	0.367083	1.841016	0.191888
C53	C	-0.132917	1.340997	0.574046
C54	C	0.367083	1.840997	1.074046
C55	C	-0.132914	1.340984	0.426208
C56	C	0.367086	1.840984	0.926208
