data_functionalizedCrystal
_audit_creation_method	'MofGen! by Chris Wilmer'
_symmetry_space_group_name_H-M	'P1'
_symmetry_Int_Tables_number	1
_symmetry_cell_setting	triclinic
loop_
_symmetry_equiv_pos_as_xyz
  x,y,z
_cell_length_a	12.759400
_cell_length_b	12.759401
_cell_length_c	19.805399
_cell_angle_alpha	89.982040
_cell_angle_beta	90.023237
_cell_angle_gamma	89.986380
loop_
_atom_site_label
_atom_site_type_symbol
_atom_site_fract_x
_atom_site_fract_y
_atom_site_fract_z
Zn1	Zn	-0.418321	-1.606224	0.382711
Zn2	Zn	-0.594014	-1.606128	0.269531
Zn3	Zn	-0.418346	-1.430535	0.269539
Zn4	Zn	-0.593955	-1.430514	0.382681
O5	O	-0.506159	-1.518350	0.326116
O6	O	-0.441641	-1.753232	0.367707
O7	O	-0.570747	-1.582803	0.174816
O8	O	-0.271322	-1.453890	0.284567
O9	O	-0.570722	-1.753161	0.284554
O10	O	-0.271303	-1.582967	0.367714
O11	O	-0.441684	-1.453796	0.174821
O12	O	-0.441627	-1.283511	0.284538
O13	O	-0.570621	-1.453854	0.477402
O14	O	-0.570646	-1.283496	0.367663
O15	O	-0.441583	-1.582947	0.477424
O16	O	-0.741027	-1.582783	0.284525
O17	O	-0.740984	-1.453761	0.367656
C18	C	-0.506134	-1.245383	0.326099
C19	C	-0.506148	-1.128606	0.326107
C20	C	-0.573252	-1.073711	0.282750
C21	C	-0.573267	-0.963987	0.282760
C22	C	-0.439067	-0.964063	0.369487
C23	C	-0.439057	-1.073785	0.369480
C24	C	-0.640343	-1.128532	0.239378
C25	C	-0.707451	-1.073637	0.196016
C26	C	-0.707466	-0.963913	0.196026
C27	C	-0.640374	-0.909084	0.239398
C28	C	-0.779126	-1.518288	0.326101
C29	C	-0.895903	-1.518357	0.326118
C30	C	-0.950753	-1.585614	0.282880
C31	C	-1.060477	-1.585678	0.282901
C32	C	-1.060491	-1.451221	0.369400
C33	C	-0.950769	-1.451163	0.369382
C34	C	-0.895886	-1.652809	0.239616
C35	C	-0.950736	-1.720070	0.196373
C36	C	-1.060460	-1.720134	0.196394
C37	C	-1.115334	-1.652938	0.239657
C38	C	-0.232126	-1.518441	0.326145
C39	C	-0.115349	-1.518480	0.326157
C40	C	-0.506093	-1.518409	0.502658
C41	C	-0.506064	-1.518434	0.577890
C42	C	-0.506179	-0.792383	0.326129
C43	C	-0.506173	-0.909160	0.326125
C44	C	-0.506149	-1.518352	0.150260
C45	C	-0.505881	-1.518530	0.075028
C46	C	-0.438871	-1.585654	0.613247
C47	C	-0.438841	-1.585665	0.683935
C48	C	-0.506010	-1.518460	0.719266
C49	C	-0.573206	-1.451233	0.683904
C50	C	-0.573230	-1.451217	0.613217
C51	C	-0.573108	-1.451292	0.968978
C52	C	-0.573081	-1.451315	1.039670
C53	C	-0.438718	-1.585740	1.039696
C54	C	-0.438743	-1.585724	0.969009
C55	C	-0.505935	-1.518493	0.933654
C56	C	-0.505965	-1.518481	0.857005
C57	C	-0.505985	-1.518477	0.795913
H58	H	-0.384413	-1.118482	0.404784
O59	O	-1.119678	-1.378746	0.416055
H60	H	-1.063103	-1.331972	0.446123
O61	O	-0.777542	-1.652743	0.239581
H62	H	-0.748699	-1.573495	0.225846
O63	O	-0.366422	-1.658146	0.575147
H64	H	-0.413463	-1.711584	0.542949
O65	O	-0.779848	-0.904701	0.149264
H66	H	-0.732755	-0.854688	0.114890
H67	H	-0.906052	-1.774785	0.161154
H68	H	-0.627780	-1.396584	1.068434
O69	O	-0.640385	-0.790738	0.239407
H70	H	-0.719660	-0.761803	0.252995
O71	O	-1.119625	-1.792674	0.149758
H72	H	-1.063036	-1.839380	0.119669
H73	H	-1.204679	-1.653004	0.239676
H74	H	-0.627835	-1.396564	0.940200
O75	O	-0.645649	-1.378738	0.722006
H76	H	-0.634351	-1.390045	0.777100
H77	H	-0.906110	-1.396397	0.404591
H78	H	-0.384128	-1.640405	0.712720
H79	H	-0.384050	-1.640453	0.940246
O80	O	-0.366212	-1.658228	1.077828
H81	H	-0.377459	-1.646937	1.132917
O82	O	-0.645688	-1.378703	0.575077
H83	H	-0.692392	-1.331973	0.611519
H84	H	-0.640335	-1.217875	0.239363
H85	H	-0.384442	-0.919413	0.404797
O86	O	-0.779811	-1.132763	0.149236
H87	H	-0.768520	-1.218283	0.156506
