data_functionalizedCrystal
_audit_creation_method	'MofGen! by Chris Wilmer'
_symmetry_space_group_name_H-M	'P1'
_symmetry_Int_Tables_number	1
_symmetry_cell_setting	triclinic
loop_
_symmetry_equiv_pos_as_xyz
  x,y,z
_cell_length_a	14.853567
_cell_length_b	11.792241
_cell_length_c	13.330367
_cell_angle_alpha	89.995231
_cell_angle_beta	89.995418
_cell_angle_gamma	83.914173
loop_
_atom_site_label
_atom_site_type_symbol
_atom_site_fract_x
_atom_site_fract_y
_atom_site_fract_z
O1	O	1.196946	0.148181	-0.083355
O2	O	0.934555	0.165833	-0.083372
O3	O	1.072118	-0.008203	-0.083356
O4	O	1.059383	0.322217	-0.083371
O5	O	1.072098	-0.008206	0.083491
O6	O	0.934535	0.165829	0.083475
O7	O	1.196926	0.148177	0.083492
Cu8	Cu	1.065728	0.157003	0.098718
Cu9	Cu	1.065752	0.157008	-0.098598
O10	O	1.059363	0.322213	0.083476
C11	C	0.900953	0.165032	0.000049
C12	C	0.800860	0.162635	0.000043
C13	C	0.387884	0.049122	0.000071
C14	C	0.367408	0.255880	0.000060
C15	C	0.461451	0.258134	0.000057
C16	C	0.518715	0.155880	0.000059
C17	C	0.481936	0.051372	0.000064
C18	C	0.498237	0.362640	0.000042
C19	C	0.592285	0.364898	0.000037
C20	C	0.649550	0.262642	0.000046
C21	C	0.612766	0.158131	0.000053
C22	C	0.670030	0.055877	0.000055
C23	C	0.633248	-0.048637	0.000068
C24	C	0.539201	-0.050883	0.000073
C25	C	0.743596	0.264889	0.000041
C26	C	0.764081	0.058127	0.000048
C27	C	1.071308	-0.050491	0.000067
C28	C	1.068913	-0.176489	0.000066
C29	C	1.064511	-0.407174	0.000049
C30	C	1.066957	-0.278804	0.000058
C31	C	1.230527	0.148979	0.000069
C32	C	1.330621	0.151376	0.000069
C33	C	1.060173	0.364501	0.000051
C34	C	1.062567	0.490500	0.000046
N35	N	1.065718	0.156999	0.237500
N36	N	1.065769	0.157003	-0.237379
C37	C	1.004837	0.234040	0.710116
C38	C	1.126692	0.079966	0.710098
C39	C	1.126682	0.079962	0.605079
C40	C	1.065749	0.157000	0.552574
C41	C	1.004826	0.234042	0.605087
C42	C	1.187610	0.002930	0.552558
C43	C	1.187602	0.002925	0.447534
C44	C	1.126665	0.079958	0.395027
C45	C	1.065739	0.157001	0.447546
C46	C	1.004806	0.234039	0.395041
C47	C	0.943875	0.311078	0.447559
C48	C	0.943888	0.311075	0.552580
C49	C	1.126651	0.079961	0.290005
C50	C	1.004796	0.234040	0.290013
H51	H	0.451606	0.445889	0.000030
C52	C	0.774874	-0.146477	0.000056
C53	C	0.827023	-0.054277	0.000046
H54	H	0.813733	-0.215868	0.000047
H55	H	0.737773	-0.143056	0.058241
H56	H	0.737761	-0.143043	-0.058126
H57	H	0.864132	-0.057705	0.058231
H58	H	0.864140	-0.057700	-0.058146
H59	H	0.679884	-0.131891	0.000063
H60	H	0.894281	0.373798	0.595347
C61	C	0.356613	0.460478	0.000040
C62	C	0.304468	0.368275	0.000049
H63	H	0.317751	0.529868	0.000027
H64	H	0.393712	0.457059	0.058222
H65	H	0.393729	0.457048	-0.058145
H66	H	0.267356	0.371701	0.058239
H67	H	0.267353	0.371696	-0.058138
C68	C	0.713906	0.469033	0.000021
C69	C	0.784028	0.379757	0.000027
H70	H	0.738868	0.539951	0.000020
H71	H	0.677656	0.463852	-0.058158
H72	H	0.677645	0.463849	0.058210
H73	H	0.820285	0.384936	-0.058165
H74	H	0.820293	0.384941	0.058212
C75	C	0.884345	0.386341	0.300580
C76	C	0.937817	0.318728	0.232303
H77	H	0.843001	0.438627	0.264951
H78	H	0.851693	0.339018	0.341546
H79	H	0.922081	0.427249	0.341538
H80	H	0.900082	0.277813	0.191350
H81	H	0.970471	0.366057	0.191320
H82	H	1.237214	-0.059805	0.404780
H83	H	0.894267	0.373808	0.404797
C84	C	0.252818	-0.046147	0.000088
C85	C	0.347458	-0.065756	0.000081
H86	H	0.227863	-0.117069	0.000088
H87	H	0.233204	-0.004050	0.058268
H88	H	0.233204	-0.004037	-0.058099
H89	H	0.367073	-0.107858	0.058273
H90	H	0.367080	-0.107870	-0.058105
C91	C	0.849094	0.300315	0.742470
C92	C	0.937861	0.318714	0.767841
H93	H	0.807747	0.352584	0.778115
H94	H	0.840377	0.311348	0.672418
H95	H	0.838954	0.224536	0.759691
H96	H	0.948004	0.394490	0.750614
H97	H	0.946582	0.307689	0.837909
C98	C	0.527707	-0.227804	-0.085692
C99	C	0.498769	-0.165756	0.000076
H100	H	0.502746	-0.298723	-0.085688
H101	H	0.508090	-0.185690	-0.143864
H102	H	0.591913	-0.241095	-0.085679
H103	H	0.434562	-0.152457	0.000059
H104	H	0.518381	-0.207879	0.058263
H105	H	0.622224	0.449998	0.000026
H106	H	1.176264	0.017242	0.247250
C107	C	1.178661	-0.116397	0.742441
C108	C	1.193659	-0.004717	0.767813
H109	H	1.220006	-0.168679	0.778073
H110	H	1.118440	-0.128840	0.759665
H111	H	1.187381	-0.127413	0.672377
H112	H	1.184932	0.006302	0.837876
H113	H	1.253894	0.007731	0.750595
C114	C	1.239575	-0.193433	0.584899
C115	C	1.254570	-0.081755	0.610280
H116	H	1.280914	-0.245718	0.620537
H117	H	1.179352	-0.205876	0.602111
H118	H	1.248306	-0.204447	0.514837
H119	H	1.245833	-0.070738	0.680341
H120	H	1.314808	-0.069307	0.593074
