data_functionalizedCrystal
_audit_creation_method	'MofGen! by Chris Wilmer'
_symmetry_space_group_name_H-M	'P1'
_symmetry_Int_Tables_number	1
_symmetry_cell_setting	triclinic
loop_
_symmetry_equiv_pos_as_xyz
  x,y,z
_cell_length_a	21.395364
_cell_length_b	18.050590
_cell_length_c	21.395355
_cell_angle_alpha	89.981964
_cell_angle_beta	89.975448
_cell_angle_gamma	90.033504
loop_
_atom_site_label
_atom_site_type_symbol
_atom_site_fract_x
_atom_site_fract_y
_atom_site_fract_z
Zn1	Zn	0.957912	-0.295449	-0.354264
Zn2	Zn	1.207912	-0.045449	-0.104264
Zn3	Zn	1.457912	0.204551	0.145736
Zn4	Zn	1.707912	0.454551	0.395736
Zn5	Zn	0.957837	-0.419621	-0.249487
Zn6	Zn	1.207837	-0.169621	0.000513
Zn7	Zn	1.457837	0.080379	0.250513
Zn8	Zn	1.707837	0.330379	0.500513
Zn9	Zn	0.853127	-0.295482	-0.249500
Zn10	Zn	1.103127	-0.045482	0.000500
Zn11	Zn	1.353127	0.204518	0.250500
Zn12	Zn	1.603127	0.454518	0.500500
Zn13	Zn	0.853118	-0.419634	-0.354227
Zn14	Zn	1.103118	-0.169634	-0.104227
Zn15	Zn	1.353118	0.080366	0.145773
Zn16	Zn	1.603118	0.330366	0.395773
O17	O	0.905499	-0.357547	-0.301870
O18	O	1.155499	-0.107547	-0.051870
O19	O	1.405499	0.142453	0.198130
O20	O	1.655499	0.392453	0.448130
O21	O	1.045580	-0.311902	-0.340374
O22	O	1.295580	-0.061902	-0.090374
O23	O	1.545580	0.188098	0.159626
O24	O	1.795580	0.438098	0.409626
O25	O	0.943919	-0.403162	-0.161811
O26	O	1.193919	-0.153162	0.088189
O27	O	1.443919	0.096838	0.338189
O28	O	1.693919	0.346838	0.588189
O29	O	0.867062	-0.191553	-0.263418
O30	O	1.117062	0.058447	-0.013418
O31	O	1.367062	0.308447	0.236582
O32	O	1.617062	0.558447	0.486582
O33	O	1.045525	-0.403130	-0.263396
O34	O	1.295525	-0.153130	-0.013396
O35	O	1.545525	0.096870	0.236604
O36	O	1.795525	0.346870	0.486604
O37	O	0.944047	-0.191529	-0.340387
O38	O	1.194047	0.058471	-0.090387
O39	O	1.444047	0.308471	0.159613
O40	O	1.694047	0.558471	0.409613
O41	O	0.866989	-0.311957	-0.161821
O42	O	1.116989	-0.061957	0.088179
O43	O	1.366989	0.188043	0.338179
O44	O	1.616989	0.438043	0.588179
O45	O	0.765448	-0.311970	-0.263383
O46	O	1.015448	-0.061970	-0.013383
O47	O	1.265448	0.188030	0.236617
O48	O	1.515448	0.438030	0.486617
O49	O	0.867047	-0.403153	-0.441910
O50	O	1.117047	-0.153153	-0.191910
O51	O	1.367047	0.096847	0.058090
O52	O	1.617047	0.346847	0.308090
O53	O	0.765442	-0.403184	-0.340325
O54	O	1.015442	-0.153184	-0.090325
O55	O	1.265442	0.096816	0.159675
O56	O	1.515442	0.346816	0.409675
O57	O	0.944039	-0.311915	-0.441937
O58	O	1.194039	-0.061915	-0.191937
O59	O	1.444039	0.188085	0.058063
O60	O	1.694039	0.438085	0.308063
O61	O	0.943911	-0.523547	-0.263360
O62	O	1.193911	-0.273547	-0.013360
O63	O	1.443911	-0.023547	0.236640
O64	O	1.693911	0.226453	0.486640
O65	O	0.866974	-0.523557	-0.340312
O66	O	1.116974	-0.273557	-0.090312
O67	O	1.366974	-0.023557	0.159688
O68	O	1.616974	0.226443	0.409688
C69	C	0.742711	-0.357583	-0.301852
C70	C	0.992711	-0.107583	-0.051852
C71	C	1.242711	0.142417	0.198148
C72	C	1.492711	0.392417	0.448148
C73	C	0.673070	-0.357616	-0.301859
C74	C	0.923070	-0.107616	-0.051859
C75	C	1.173070	0.142384	0.198141
C76	C	1.423070	0.392384	0.448141
C77	C	0.640408	-0.310191	-0.342004
C78	C	0.890408	-0.060191	-0.092004
C79	C	1.140408	0.189809	0.157996
C80	C	1.390408	0.439809	0.407996
C81	C	0.574972	-0.310171	-0.342007
C82	C	0.824972	-0.060171	-0.092007
C83	C	1.074972	0.189829	0.157993
C84	C	1.324972	0.439829	0.407993
C85	C	0.542201	-0.357590	-0.301871
C86	C	0.792201	-0.107590	-0.051871
C87	C	1.042201	0.142410	0.198129
C88	C	1.292201	0.392410	0.448129
C89	C	0.574871	-0.405018	-0.261718
C90	C	0.824871	-0.155018	-0.011718
C91	C	1.074871	0.094982	0.238282
C92	C	1.324871	0.344982	0.488282
C93	C	0.640305	-0.405031	-0.261712
C94	C	0.890305	-0.155031	-0.011712
C95	C	1.140305	0.094969	0.238288
C96	C	1.390305	0.344969	0.488288
C97	C	0.438489	-0.424470	-0.296834
C98	C	0.688489	-0.174470	-0.046834
C99	C	0.938489	0.075530	0.203166
C100	C	1.188489	0.325530	0.453166
C101	C	0.373056	-0.424458	-0.296844
C102	C	0.623056	-0.174458	-0.046844
C103	C	0.873056	0.075542	0.203156
C104	C	1.123056	0.325542	0.453156
C105	C	0.340381	-0.357549	-0.301885
C106	C	0.590381	-0.107549	-0.051885
C107	C	0.840381	0.142451	0.198115
C108	C	1.090381	0.392451	0.448115
C109	C	0.373146	-0.290650	-0.306929
C110	C	0.623146	-0.040650	-0.056929
C111	C	0.873146	0.209350	0.193071
C112	C	1.123146	0.459350	0.443071
C113	C	0.438580	-0.290663	-0.306923
C114	C	0.688580	-0.040663	-0.056923
C115	C	0.938580	0.209337	0.193077
C116	C	1.188580	0.459337	0.443077
C117	C	0.471249	-0.357580	-0.301872
C118	C	0.721249	-0.107580	-0.051872
C119	C	0.971249	0.142420	0.198128
C120	C	1.221249	0.392420	0.448128
C121	C	0.236766	-0.310099	-0.342034
C122	C	0.486766	-0.060099	-0.092034
C123	C	0.736766	0.189901	0.157966
C124	C	0.986766	0.439901	0.407966
C125	C	0.171330	-0.310078	-0.342032
C126	C	0.421330	-0.060078	-0.092032
C127	C	0.671330	0.189922	0.157968
C128	C	0.921330	0.439922	0.407968
C129	C	0.171230	-0.404931	-0.261747
C130	C	0.421230	-0.154931	-0.011747
C131	C	0.671230	0.095069	0.238253
C132	C	0.921230	0.345069	0.488253
C133	C	0.236665	-0.404945	-0.261746
C134	C	0.486665	-0.154945	-0.011746
C135	C	0.736665	0.095055	0.238254
C136	C	0.986665	0.345055	0.488254
C137	C	0.269429	-0.357530	-0.301893
C138	C	0.519429	-0.107530	-0.051893
C139	C	0.769429	0.142470	0.198107
C140	C	1.019429	0.392470	0.448107
C141	C	0.905450	-0.550499	-0.301845
C142	C	1.155450	-0.300499	-0.051845
C143	C	1.405450	-0.050499	0.198155
C144	C	1.655450	0.199501	0.448155
C145	C	0.905487	-0.633044	-0.301855
C146	C	1.155487	-0.383044	-0.051855
C147	C	1.405487	-0.133044	0.198145
C148	C	1.655487	0.116956	0.448145
C149	C	0.947412	-0.832463	-0.260067
C150	C	1.197412	-0.582463	-0.010067
C151	C	1.447412	-0.332463	0.239933
C152	C	1.697412	-0.082463	0.489933
C153	C	0.962722	-0.881803	-0.317251
C154	C	1.212722	-0.631803	-0.067251
C155	C	1.462722	-0.381803	0.182749
C156	C	1.712722	-0.131803	0.432749
C157	C	0.905523	-0.784175	-0.301880
C158	C	1.155523	-0.534175	-0.051880
C159	C	1.405523	-0.284175	0.198120
C160	C	1.655523	-0.034175	0.448120
C161	C	0.890277	-0.881916	-0.244722
C162	C	1.140277	-0.631916	0.005278
C163	C	1.390277	-0.381916	0.255278
C164	C	1.640277	-0.131916	0.505278
C165	C	0.905558	-0.930160	-0.301899
C166	C	1.155558	-0.680160	-0.051899
C167	C	1.405558	-0.430160	0.198101
C168	C	1.655558	-0.180160	0.448101
C169	C	0.920862	-0.832428	-0.359094
C170	C	1.170862	-0.582428	-0.109094
C171	C	1.420862	-0.332428	0.140906
C172	C	1.670862	-0.082428	0.390906
C173	C	0.848390	-0.832537	-0.286526
C174	C	1.098390	-0.582537	-0.036526
C175	C	1.348390	-0.332537	0.213474
C176	C	1.598390	-0.082537	0.463474
C177	C	0.863678	-0.881855	-0.343750
C178	C	1.113678	-0.631855	-0.093750
C179	C	1.363678	-0.381855	0.156250
C180	C	1.613678	-0.131855	0.406250
C181	C	0.905504	-0.700076	-0.301868
C182	C	1.155504	-0.450076	-0.051868
C183	C	1.405504	-0.200076	0.198132
C184	C	1.655504	0.049924	0.448132
C185	C	0.905577	-1.014256	-0.301917
C186	C	1.155577	-0.764256	-0.051917
C187	C	1.405577	-0.514256	0.198083
C188	C	1.655577	-0.264256	0.448083
C189	C	1.068922	-0.357511	-0.301888
C190	C	1.318922	-0.107511	-0.051888
C191	C	1.568922	0.142489	0.198112
C192	C	1.818922	0.392489	0.448112
C193	C	1.138563	-0.357496	-0.301895
C194	C	1.388563	-0.107496	-0.051895
C195	C	1.638563	0.142504	0.198105
C196	C	1.888563	0.392504	0.448105
C197	C	0.905551	-0.357531	-0.465293
C198	C	1.155551	-0.107531	-0.215293
C199	C	1.405551	0.142469	0.034707
C200	C	1.655551	0.392469	0.284707
C201	C	0.905573	-0.357525	-0.534934
C202	C	1.155573	-0.107525	-0.284934
C203	C	1.405573	0.142475	-0.034934
C204	C	1.655573	0.392475	0.215066
C205	C	0.905564	-0.163841	-0.301908
C206	C	1.155564	0.086159	-0.051908
C207	C	1.405564	0.336159	0.198092
C208	C	1.655564	0.586159	0.448092
C209	C	0.905592	-0.081295	-0.301925
C210	C	1.155592	0.168705	-0.051925
C211	C	1.405592	0.418705	0.198075
C212	C	1.655592	0.668705	0.448075
C213	C	0.945660	-0.310015	-0.567662
C214	C	1.195660	-0.060015	-0.317662
C215	C	1.445660	0.189985	-0.067662
C216	C	1.695660	0.439985	0.182338
C217	C	0.945660	-0.309983	-0.633098
C218	C	1.195660	-0.059983	-0.383098
C219	C	1.445660	0.190017	-0.133098
C220	C	1.695660	0.440017	0.116902
C221	C	0.905578	-0.357474	-0.665803
C222	C	1.155578	-0.107474	-0.415803
C223	C	1.405578	0.142526	-0.165803
C224	C	1.655578	0.392526	0.084197
C225	C	0.865482	-0.404988	-0.633067
C226	C	1.115482	-0.154988	-0.383067
C227	C	1.365482	0.095012	-0.133067
C228	C	1.615482	0.345012	0.116933
C229	C	0.865480	-0.405013	-0.567632
C230	C	1.115480	-0.155013	-0.317632
C231	C	1.365480	0.094987	-0.067632
C232	C	1.615480	0.344987	0.182368
C233	C	0.900614	-0.424345	-0.769469
C234	C	1.150614	-0.174345	-0.519469
C235	C	1.400614	0.075655	-0.269469
C236	C	1.650614	0.325655	-0.019469
C237	C	0.900621	-0.424321	-0.834902
C238	C	1.150621	-0.174321	-0.584902
C239	C	1.400621	0.075679	-0.334902
C240	C	1.650621	0.325679	-0.084902
C241	C	0.905582	-0.357396	-0.867623
C242	C	1.155582	-0.107396	-0.617623
C243	C	1.405582	0.142604	-0.367623
C244	C	1.655582	0.392604	-0.117623
C245	C	0.910549	-0.290493	-0.834904
C246	C	1.160549	-0.040493	-0.584904
C247	C	1.410549	0.209507	-0.334904
C248	C	1.660549	0.459507	-0.084904
C249	C	0.910546	-0.290518	-0.769470
C250	C	1.160546	-0.040518	-0.519470
C251	C	1.410546	0.209482	-0.269470
C252	C	1.660546	0.459482	-0.019470
C253	C	0.905576	-0.357452	-0.736755
C254	C	1.155576	-0.107452	-0.486755
C255	C	1.405576	0.142548	-0.236755
C256	C	1.655576	0.392548	0.013245
C257	C	0.945670	-0.309848	-0.971304
C258	C	1.195670	-0.059848	-0.721304
C259	C	1.445670	0.190152	-0.471304
C260	C	1.695670	0.440152	-0.221304
C261	C	0.945665	-0.309814	-1.036741
C262	C	1.195665	-0.059814	-0.786741
C263	C	1.445665	0.190186	-0.536741
C264	C	1.695665	0.440186	-0.286741
C265	C	0.865491	-0.404825	-1.036708
C266	C	1.115491	-0.154825	-0.786708
C267	C	1.365491	0.095175	-0.536708
C268	C	1.615491	0.345175	-0.286708
C269	C	0.865493	-0.404852	-0.971273
C270	C	1.115493	-0.154852	-0.721273
C271	C	1.365493	0.095148	-0.471273
C272	C	1.615493	0.345148	-0.221273
C273	C	0.905586	-0.357364	-0.938575
C274	C	1.155586	-0.107364	-0.688575
C275	C	1.405586	0.142636	-0.438575
C276	C	1.655586	0.392636	-0.188575
C277	C	0.905483	-0.357508	-0.139082
C278	C	1.155483	-0.107508	0.110918
C279	C	1.405483	0.142492	0.360918
C280	C	1.655483	0.392492	0.610918
C281	C	0.905582	-0.357305	-0.069441
C282	C	1.155582	-0.107305	0.180559
C283	C	1.405582	0.142695	0.430559
C284	C	1.655582	0.392695	0.680559
H285	H	0.465256	-0.236191	-0.311028
H286	H	0.715256	0.013809	-0.061028
H287	H	0.965256	0.263809	0.188972
H288	H	1.215256	0.513809	0.438972
H289	H	0.828269	-0.903404	-0.379159
H290	H	1.078269	-0.653404	-0.129159
H291	H	1.328269	-0.403404	0.120841
H292	H	1.578269	-0.153404	0.370841
F293	F	0.822822	-0.455529	-0.667874
F294	F	1.072822	-0.205529	-0.417874
F295	F	1.322822	0.044471	-0.167874
F296	F	1.572822	0.294471	0.082126
H297	H	0.914590	-0.235996	-0.861545
H298	H	1.164590	0.014004	-0.611545
H299	H	1.414590	0.264004	-0.361545
H300	H	1.664590	0.514004	-0.111545
F301	F	0.785233	-0.804230	-0.269516
F302	F	1.035233	-0.554230	-0.019516
F303	F	1.285233	-0.304230	0.230484
F304	F	1.535233	-0.054230	0.480484
H305	H	0.978308	-0.271122	-1.063387
H306	H	1.228308	-0.021122	-0.813387
H307	H	1.478308	0.228878	-0.563387
H308	H	1.728308	0.478878	-0.313387
F309	F	0.338376	-0.219434	-0.312293
F310	F	0.588376	0.030566	-0.062293
F311	F	0.838376	0.280566	0.187707
F312	F	1.088376	0.530566	0.437707
H313	H	0.346383	-0.478932	-0.292740
H314	H	0.596383	-0.228932	-0.042740
H315	H	0.846383	0.021068	0.207260
H316	H	1.096383	0.271068	0.457260
H317	H	0.877367	-0.903654	-0.196376
H318	H	1.127367	-0.653654	0.053624
H319	H	1.377367	-0.403654	0.303624
H320	H	1.627367	-0.153654	0.553624
F321	F	0.988338	-0.259305	-0.936502
F322	F	1.238338	-0.009305	-0.686502
F323	F	1.488338	0.240695	-0.436502
F324	F	1.738338	0.490695	-0.186502
H325	H	0.667080	-0.271581	-0.374694
H326	H	0.917080	-0.021581	-0.124694
H327	H	1.167080	0.228419	0.125306
H328	H	1.417080	0.478419	0.375306
F329	F	0.988329	-0.259471	-0.532866
F330	F	1.238329	-0.009471	-0.282866
F331	F	1.488329	0.240529	-0.032866
F332	F	1.738329	0.490529	0.217134
F333	F	0.822828	-0.455364	-1.071511
F334	F	1.072828	-0.205364	-0.821511
F335	F	1.322828	0.044636	-0.571511
F336	F	1.572828	0.294636	-0.321511
F337	F	0.988318	-0.259403	-0.667936
F338	F	1.238318	-0.009403	-0.417936
F339	F	1.488318	0.240597	-0.167936
F340	F	1.738318	0.490597	0.082064
F341	F	0.271639	-0.259632	-0.384758
F342	F	0.521639	-0.009632	-0.134758
F343	F	0.771639	0.240368	0.115242
F344	F	1.021639	0.490368	0.365242
H345	H	0.548374	-0.271549	-0.374696
H346	H	0.798374	-0.021549	-0.124696
H347	H	1.048374	0.228451	0.125304
H348	H	1.298374	0.478451	0.375304
H349	H	0.465088	-0.478959	-0.292728
H350	H	0.715088	-0.228959	-0.042728
H351	H	0.965088	0.021041	0.207272
H352	H	1.215088	0.271041	0.457272
F353	F	0.822811	-0.455581	-0.532800
F354	F	1.072811	-0.205581	-0.282800
F355	F	1.322811	0.044419	-0.032800
F356	F	1.572811	0.294419	0.217200
H357	H	0.832853	-0.443544	-0.944625
H358	H	1.082853	-0.193544	-0.694625
H359	H	1.332853	0.056456	-0.444625
H360	H	1.582853	0.306456	-0.194625
H361	H	1.011053	-0.903446	-0.330249
H362	H	1.261053	-0.653446	-0.080249
H363	H	1.511053	-0.403446	0.169751
H364	H	1.761053	-0.153446	0.419751
H365	H	0.666898	-0.443651	-0.229021
H366	H	0.916898	-0.193651	0.020979
H367	H	1.166898	0.056349	0.270979
H368	H	1.416898	0.306349	0.520979
F369	F	0.915830	-0.219317	-0.734650
F370	F	1.165830	0.030683	-0.484650
F371	F	1.415830	0.280683	-0.234650
F372	F	1.665830	0.530683	0.015350
F373	F	0.993728	-0.804115	-0.213895
F374	F	1.243728	-0.554115	0.036105
F375	F	1.493728	-0.304115	0.286105
F376	F	1.743728	-0.054115	0.536105
H377	H	0.144737	-0.271454	-0.374722
H378	H	0.394737	-0.021454	-0.124722
H379	H	0.644737	0.228546	0.125278
H380	H	0.894737	0.478546	0.375278
F381	F	0.895339	-0.495525	-0.869718
F382	F	1.145339	-0.245525	-0.619718
F383	F	1.395339	0.004475	-0.369718
F384	F	1.645339	0.254475	-0.119718
H385	H	0.144548	-0.443540	-0.229067
H386	H	0.394548	-0.193540	0.020933
H387	H	0.644548	0.056460	0.270933
H388	H	0.894548	0.306460	0.520933
F389	F	0.271428	-0.455420	-0.219015
F390	F	0.521428	-0.205420	0.030985
F391	F	0.771428	0.044580	0.280985
F392	F	1.021428	0.294580	0.530985
F393	F	0.937817	-0.804138	-0.422302
F394	F	1.187817	-0.554138	-0.172302
F395	F	1.437817	-0.304138	0.077698
F396	F	1.687817	-0.054138	0.327698
H397	H	0.548185	-0.443626	-0.229039
H398	H	0.798185	-0.193626	0.020961
H399	H	1.048185	0.056374	0.270961
H400	H	1.298185	0.306374	0.520961
H401	H	0.896406	-0.478830	-0.742832
H402	H	1.146406	-0.228830	-0.492832
H403	H	1.396406	0.021170	-0.242832
H404	H	1.646406	0.271170	0.007168
