data_functionalizedCrystal
_audit_creation_method	'MofGen! by Chris Wilmer'
_symmetry_space_group_name_H-M	'P1'
_symmetry_Int_Tables_number	1
_symmetry_cell_setting	triclinic
loop_
_symmetry_equiv_pos_as_xyz
  x,y,z
_cell_length_a	15.297327
_cell_length_b	12.759401
_cell_length_c	12.759393
_cell_angle_alpha	90.018205
_cell_angle_beta	99.641342
_cell_angle_gamma	80.295528
loop_
_atom_site_label
_atom_site_type_symbol
_atom_site_fract_x
_atom_site_fract_y
_atom_site_fract_z
Zn1	Zn	-0.359152	-1.533776	-0.666329
Zn2	Zn	0.140848	-1.033776	-0.166329
Zn3	Zn	-0.510039	-1.503229	-0.521034
Zn4	Zn	-0.010039	-1.003229	-0.021034
Zn5	Zn	-0.359194	-1.358073	-0.490674
Zn6	Zn	0.140806	-0.858073	0.009326
Zn7	Zn	-0.509963	-1.327637	-0.696657
Zn8	Zn	-0.009963	-0.827637	-0.196657
O9	O	-0.434587	-1.430679	-0.593673
O10	O	0.065413	-0.930679	-0.093673
O11	O	-0.379182	-1.676742	-0.647068
O12	O	0.120818	-1.176742	-0.147068
O13	O	-0.490078	-1.483927	-0.369995
O14	O	0.009922	-0.983927	0.130005
O15	O	-0.232944	-1.406902	-0.488577
O16	O	0.267056	-0.906902	0.011423
O17	O	-0.490038	-1.654299	-0.540320
O18	O	0.009962	-1.154299	-0.040320
O19	O	-0.232914	-1.535990	-0.617629
O20	O	0.267086	-1.035990	-0.117629
O21	O	-0.379253	-1.377282	-0.347690
O22	O	0.120747	-0.877282	0.152310
O23	O	-0.379179	-1.207017	-0.517985
O24	O	0.120821	-0.707017	-0.017985
O25	O	-0.489908	-1.355028	-0.839645
O26	O	0.010092	-0.855028	-0.339645
O27	O	-0.489949	-1.184656	-0.669320
O28	O	0.010051	-0.684656	-0.169320
O29	O	-0.379108	-1.506478	-0.817363
O30	O	0.120892	-1.006478	-0.317363
O31	O	-0.636273	-1.454414	-0.569729
O32	O	-0.136273	-0.954414	-0.069729
O33	O	-0.636217	-1.325408	-0.698759
O34	O	-0.136217	-0.825408	-0.198759
C35	C	-0.434561	-1.157716	-0.593650
C36	C	0.065439	-0.657716	-0.093650
C37	C	-0.434572	-1.040938	-0.593669
C38	C	0.065428	-0.540938	-0.093669
C39	C	-0.492340	-0.974441	-0.672376
C40	C	0.007660	-0.474441	-0.172376
C41	C	-0.492348	-0.864716	-0.672387
C42	C	0.007652	-0.364716	-0.172387
C43	C	-0.376817	-0.887993	-0.514976
C44	C	0.123183	-0.387993	-0.014976
C45	C	-0.376805	-0.997717	-0.514970
C46	C	0.123195	-0.497717	-0.014970
C47	C	-0.550107	-1.017662	-0.751075
C48	C	-0.050107	-0.517662	-0.251075
C49	C	-0.607880	-0.951164	-0.829787
C50	C	-0.107880	-0.451164	-0.329787
C51	C	-0.607888	-0.841438	-0.829799
C52	C	-0.107888	-0.341438	-0.329799
C53	C	-0.550122	-0.798210	-0.751098
C54	C	-0.050122	-0.298210	-0.251098
C55	C	-0.668979	-1.383322	-0.640852
C56	C	-0.168979	-0.883322	-0.140852
C57	C	-0.769252	-1.363158	-0.661070
C58	C	-0.269252	-0.863158	-0.161070
C59	C	-1.051898	-1.575222	-0.449528
C60	C	-0.551898	-1.075222	0.050472
C61	C	-0.957686	-1.594166	-0.430527
C62	C	-0.457686	-1.094166	0.069473
C63	C	-0.910573	-1.536416	-0.488161
C64	C	-0.410573	-1.036416	0.011839
C65	C	-0.957681	-1.459718	-0.564800
C66	C	-0.457681	-0.959718	-0.064800
C67	C	-1.051903	-1.440767	-0.583797
C68	C	-0.551903	-0.940767	-0.083797
C69	C	-0.910577	-1.401961	-0.622430
C70	C	-0.410577	-0.901961	-0.122430
C71	C	-0.957686	-1.325263	-0.699069
C72	C	-0.457686	-0.825263	-0.199069
C73	C	-1.051898	-1.306316	-0.718064
C74	C	-0.551898	-0.806316	-0.218064
C75	C	-1.099011	-1.364065	-0.660429
C76	C	-0.599011	-0.864065	-0.160429
C77	C	-0.816356	-1.420912	-0.603433
C78	C	-0.316356	-0.920912	-0.103433
C79	C	-0.816361	-1.286457	-0.737702
C80	C	-0.316361	-0.786457	-0.237702
C81	C	-0.910573	-1.267513	-0.756704
C82	C	-0.410573	-0.767513	-0.256704
C83	C	-0.199280	-1.478249	-0.546333
C84	C	0.300720	-0.978249	-0.046333
C85	C	-0.099006	-1.498520	-0.526160
C86	C	0.400994	-0.998520	-0.026160
C87	C	-0.434495	-1.430765	-0.867688
C88	C	0.065505	-0.930765	-0.367688
C89	C	-0.434456	-1.430802	-0.984457
C90	C	0.065544	-0.930802	-0.484457
C91	C	-0.434605	-0.704708	-0.593692
C92	C	0.065395	-0.204708	-0.093692
C93	C	-0.434591	-0.821488	-0.593687
C94	C	0.065409	-0.321488	-0.093687
C95	C	-0.376739	-1.375303	-1.027709
C96	C	0.123261	-0.875303	-0.527709
C97	C	-0.376712	-1.375340	-1.137428
C98	C	0.123288	-0.875340	-0.637428
C99	C	-0.492122	-1.486385	-1.160634
C100	C	0.007878	-0.986385	-0.660634
C101	C	-0.492153	-1.486341	-1.050918
C102	C	0.007847	-0.986341	-0.550918
C103	C	-0.319042	-1.319764	-0.961248
C104	C	0.180958	-0.819764	-0.461248
C105	C	-0.261319	-1.264261	-1.004499
C106	C	0.238681	-0.764261	-0.504499
C107	C	-0.261292	-1.264298	-1.114218
C108	C	0.238708	-0.764298	-0.614218
C109	C	-0.318988	-1.319839	-1.180686
C110	C	0.181012	-0.819839	-0.680686
C111	C	-0.434613	-1.430666	-0.320711
C112	C	0.065387	-0.930666	0.179289
C113	C	-0.434398	-1.430884	-0.203892
C114	C	0.065602	-0.930884	0.296108
H115	H	-0.654905	-0.986369	-0.893868
H116	H	-0.154905	-0.486369	-0.393868
H117	H	-0.919334	-1.656611	-0.368127
H118	H	-0.419334	-1.156611	0.131873
H119	H	-0.539093	-1.531606	-1.214760
H120	H	-0.039093	-1.031606	-0.714760
H121	H	-0.654923	-0.787300	-0.893896
H122	H	-0.154923	-0.287300	-0.393896
H123	H	-0.319055	-1.319730	-0.871908
H124	H	0.180945	-0.819730	-0.371908
H125	H	-0.539139	-1.531550	-1.015700
H126	H	-0.039139	-1.031550	-0.515700
H127	H	-0.550125	-0.708865	-0.751121
H128	H	-0.050125	-0.208865	-0.251121
H129	H	-0.329787	-0.852787	-0.450901
H130	H	0.170213	-0.352787	0.049099
H131	H	-0.550108	-1.107004	-0.751073
H132	H	-0.050108	-0.607004	-0.251073
C133	C	-0.806936	-1.557276	-0.467275
C134	C	-0.306936	-1.057276	0.032725
N135	N	-0.728874	-1.573001	-0.451549
N136	N	-0.228874	-1.073001	0.048451
H137	H	-1.175726	-1.348648	-0.675899
H138	H	-0.675726	-0.848648	-0.175899
H139	H	-0.778009	-1.483360	-0.541033
H140	H	-0.278009	-0.983360	-0.041033
C141	C	-1.103715	-1.221936	-0.802360
C142	C	-0.603715	-0.721936	-0.302360
N143	N	-1.142741	-1.158381	-0.865852
N144	N	-0.642741	-0.658381	-0.365852
H145	H	-0.329758	-1.051862	-0.450887
H146	H	0.170242	-0.551862	0.049113
C147	C	-0.962404	-1.183139	-0.840996
C148	C	-0.462404	-0.683139	-0.340996
N149	N	-1.001445	-1.119586	-0.904483
N150	N	-0.501445	-0.619586	-0.404483
C151	C	-1.103728	-1.638726	-0.386128
C152	C	-0.603728	-1.138726	0.113872
N153	N	-1.142768	-1.686558	-0.338369
N154	N	-0.642768	-1.186558	0.161631
C155	C	-0.197797	-1.203245	-1.161790
C156	C	0.302203	-0.703245	-0.661790
N157	N	-0.149966	-1.157263	-1.197618
N158	N	0.350034	-0.657263	-0.697618
H159	H	-0.318964	-1.319861	-1.270026
H160	H	0.181036	-0.819861	-0.770026
H161	H	-0.778002	-1.239430	-0.784631
H162	H	-0.278002	-0.739430	-0.284631
H163	H	-0.214350	-1.219036	-0.950375
H164	H	0.285650	-0.719036	-0.450375
