data_functionalizedCrystal
_audit_creation_method	'MofGen! by Chris Wilmer'
_symmetry_space_group_name_H-M	'P1'
_symmetry_Int_Tables_number	1
_symmetry_cell_setting	triclinic
loop_
_symmetry_equiv_pos_as_xyz
  x,y,z
_cell_length_a	12.594517
_cell_length_b	12.594516
_cell_length_c	16.120297
_cell_angle_alpha	92.877768
_cell_angle_beta	92.884965
_cell_angle_gamma	90.016010
loop_
_atom_site_label
_atom_site_type_symbol
_atom_site_fract_x
_atom_site_fract_y
_atom_site_fract_z
Zn1	Zn	1.596748	-0.454279	-0.471271
Zn2	Zn	1.605666	-0.623247	-0.331872
Zn3	Zn	1.427778	-0.445284	-0.331890
Zn4	Zn	1.418736	-0.632215	-0.471255
O5	O	1.512232	-0.538756	-0.401572
O6	O	1.746877	-0.476704	-0.452779
O7	O	1.589586	-0.592123	-0.215210
O8	O	1.450245	-0.297533	-0.350393
O9	O	1.753429	-0.600845	-0.350363
O10	O	1.574386	-0.304141	-0.452796
O11	O	1.458892	-0.461375	-0.215223
O12	O	1.277633	-0.470070	-0.350378
O13	O	1.434833	-0.616128	-0.587922
O14	O	1.270989	-0.607407	-0.452769
O15	O	1.565618	-0.485400	-0.587933
O16	O	1.580817	-0.773382	-0.350347
O17	O	1.443480	-0.779970	-0.452752
C18	C	1.235691	-0.538736	-0.401574
C19	C	1.117384	-0.538754	-0.401595
C20	C	0.973792	-0.613574	-0.457182
C21	C	1.049489	-0.634546	-0.381095
C22	C	1.043259	-0.517828	-0.477673
C23	C	0.982301	-0.559807	-0.325443
C24	C	0.976060	-0.443048	-0.422072
C25	C	1.051730	-0.463980	-0.345933
C26	C	1.512163	-0.815297	-0.401564
C27	C	1.512229	-0.933604	-0.401588
C28	C	1.437527	-1.006476	-0.457247
C29	C	1.416520	-1.072408	-0.381176
C30	C	1.533332	-1.078472	-0.477672
C31	C	1.491173	-0.997974	-0.325477
C32	C	1.608028	-1.004036	-0.422025
C33	C	1.587061	-1.069932	-0.345901
C34	C	1.789853	-0.538778	-0.401571
C35	C	1.908159	-0.538787	-0.401570
C36	C	1.498222	-0.552767	-0.619023
C37	C	1.492252	-0.558738	-0.711688
C38	C	1.512330	-0.261137	-0.401599
C39	C	1.512371	-0.142832	-0.401610
C40	C	1.481312	-0.569615	-0.881347
C41	C	1.543362	-0.507578	-0.922649
C42	C	1.537275	-0.513631	-1.017054
C43	C	1.487397	-0.563565	-0.786934
C44	C	1.526249	-0.524723	-0.184967
C45	C	1.532426	-0.518452	-0.092303
H46	H	0.939693	-0.676875	-0.504142
H47	H	0.943825	-0.362122	-0.439430
F48	F	1.467797	-0.952140	-0.241363
F49	F	1.078473	-0.494674	-0.561781
H50	H	1.374251	-0.978490	-0.504247
F51	F	1.405909	-0.644976	-0.927797
F52	F	1.091596	-0.740352	-0.358436
F53	F	1.310709	-1.111715	-0.358587
F54	F	1.713807	-0.964698	-0.444641
F55	F	1.618791	-0.432234	-0.876199
F56	F	1.556588	-1.124481	-0.561760
F57	F	0.947266	-0.583084	-0.241309
H58	H	1.650298	-1.097714	-0.298788
H59	H	1.085640	-0.400717	-0.298860
