data_functionalizedCrystal
_audit_creation_method	'MofGen! by Chris Wilmer'
_symmetry_space_group_name_H-M	'P1'
_symmetry_Int_Tables_number	1
_symmetry_cell_setting	triclinic
loop_
_symmetry_equiv_pos_as_xyz
  x,y,z
_cell_length_a	12.837943
_cell_length_b	10.540539
_cell_length_c	11.892095
_cell_angle_alpha	93.930600
_cell_angle_beta	85.689438
_cell_angle_gamma	89.677216
loop_
_atom_site_label
_atom_site_type_symbol
_atom_site_fract_x
_atom_site_fract_y
_atom_site_fract_z
O1	O	1.384471	0.322967	-0.093973
O2	O	1.082545	0.306651	-0.093980
O3	O	1.240396	0.130859	-0.093975
O4	O	1.226620	0.498759	-0.093978
O5	O	1.227234	0.145491	0.094032
O6	O	1.069383	0.321283	0.094027
O7	O	1.371309	0.337599	0.094034
Zn8	Zn	1.218257	0.331764	0.123881
Zn9	Zn	1.235597	0.312486	-0.123827
O10	O	1.213458	0.513391	0.094029
C11	C	1.037303	0.308455	0.000023
C12	C	0.922104	0.292017	0.000020
C13	C	0.682608	0.489636	0.000034
C14	C	0.574368	0.474197	0.000032
C15	C	0.597382	0.245700	0.000022
C16	C	0.705621	0.261139	0.000024
C17	C	0.748231	0.383111	0.000028
C18	C	0.856473	0.398549	0.000022
C19	C	0.879484	0.170054	0.000020
C20	C	0.771244	0.154614	0.000018
C21	C	1.232782	0.090759	0.000027
C22	C	1.229692	-0.050529	0.000020
C23	C	1.111279	-0.247002	-0.000404
C24	C	1.114382	-0.100007	0.000019
C25	C	1.277668	-0.097735	0.107383
C26	C	1.273726	-0.244704	0.107473
C27	C	1.291038	-0.261604	-0.106326
C28	C	1.292200	-0.114616	-0.107745
C29	C	1.416551	0.335795	0.000029
C30	C	1.531751	0.352232	0.000025
C31	C	1.221072	0.553491	0.000025
C32	C	1.224163	0.694779	0.000024
N33	N	1.206429	0.344921	0.292934
N34	N	1.247433	0.299320	-0.292880
C35	C	1.329731	0.207693	0.529586
C36	C	1.321471	0.216900	0.647928
C37	C	1.181647	0.372535	0.647961
C38	C	1.189906	0.363328	0.529620
C39	C	1.263952	0.280906	0.470436
C40	C	1.272215	0.271706	0.352093
C41	C	1.132387	0.427334	0.352128
C42	C	1.124127	0.436540	0.470470
H43	H	0.891163	0.497865	0.000027
H44	H	0.932927	0.083313	0.000008
N45	N	1.249152	-0.317218	-0.214115
H46	H	1.227936	-0.246164	-0.260755
H47	H	1.305094	-0.371504	-0.258619
H48	H	0.520940	0.560941	0.000040
H49	H	0.717301	0.588951	0.000036
N50	N	1.061424	0.506289	0.288328
H51	H	1.013265	0.559895	0.343782
H52	H	1.104984	0.563470	0.239219
N53	N	0.551398	0.114164	0.000042
H54	H	0.511870	0.097243	-0.069645
H55	H	0.609440	0.049093	0.000086
H56	H	1.065016	-0.057082	0.077107
N57	N	0.725272	0.023072	0.000023
H58	H	0.685751	0.006155	-0.069670
H59	H	0.783322	-0.041990	0.000063
N60	N	1.058073	-0.299457	-0.102382
H61	H	0.992197	-0.344594	-0.076761
H62	H	1.039821	-0.227395	-0.149372
N63	N	1.245871	-0.074467	-0.212958
H64	H	1.286401	-0.115980	-0.281989
H65	H	1.170496	-0.101545	-0.212176
N66	N	1.409569	0.118773	0.465748
H67	H	1.404813	0.124042	0.381803
H68	H	1.481845	0.143989	0.486403
N69	N	1.063694	-0.057845	-0.101927
H70	H	1.001984	-0.000404	-0.076300
H71	H	1.116087	-0.010142	-0.150191
N72	N	1.044080	-0.285713	0.101003
H73	H	1.086443	-0.340799	0.147218
H74	H	1.018680	-0.207172	0.148856
N75	N	1.211963	-0.279767	0.213774
H76	H	1.187546	-0.199794	0.260133
H77	H	1.149431	-0.331510	0.192878
N78	N	1.383115	-0.295686	0.113935
H79	H	1.433680	-0.222676	0.116718
H80	H	1.386087	-0.343655	0.184305
H81	H	1.362068	-0.065766	0.111377
H82	H	1.233527	-0.053152	0.187277
H83	H	1.376723	-0.081663	-0.114226
H84	H	1.374376	-0.299736	-0.107046
N85	N	1.352066	0.182813	0.288240
H86	H	1.424377	0.207989	0.308814
H87	H	1.337914	0.092822	0.308857
H88	H	1.375034	0.157281	0.696085
N89	N	1.101777	0.461409	0.711804
H90	H	1.106525	0.456122	0.795748
H91	H	1.115866	0.551394	0.691129
N92	N	1.044263	0.525428	0.534306
H93	H	1.049009	0.520150	0.618251
H94	H	1.058362	0.615407	0.513621
