data_functionalizedCrystal
_audit_creation_method	'MofGen! by Chris Wilmer'
_symmetry_space_group_name_H-M	'P1'
_symmetry_Int_Tables_number	1
_symmetry_cell_setting	triclinic
loop_
_symmetry_equiv_pos_as_xyz
  x,y,z
_cell_length_a	6.817900
_cell_length_b	16.255748
_cell_length_c	23.753023
_cell_angle_alpha	96.317749
_cell_angle_beta	100.067528
_cell_angle_gamma	103.490428
loop_
_atom_site_label
_atom_site_type_symbol
_atom_site_fract_x
_atom_site_fract_y
_atom_site_fract_z
V1	V	-3.988782	-0.118161	-0.178586
O2	O	-3.977019	0.004578	-0.174985
O3	O	-3.940558	-0.233235	-0.177558
O4	O	-3.923817	-0.116826	-0.256385
O5	O	-3.993876	-0.112637	-0.095612
V6	V	-4.474534	-0.103423	-0.168638
O7	O	-4.245152	-0.150490	-0.200407
O8	O	-4.668361	-0.071094	-0.146816
O9	O	-4.299551	0.011652	-0.169666
O10	O	-4.603694	-0.226162	-0.172239
O11	O	-4.586837	-0.108946	-0.251611
O12	O	-4.316292	-0.104758	-0.090839
C13	C	-3.786138	-0.261273	-0.174790
C14	C	-3.827886	-0.355351	-0.174469
C15	C	-3.764237	-0.634426	-0.170527
C16	C	-3.860295	-0.591597	-0.219623
C17	C	-3.978300	-0.693990	-0.173335
C18	C	-3.807736	-0.569188	-0.124820
C19	C	-3.904386	-0.527605	-0.173891
C20	C	-4.074931	-0.652409	-0.222467
C21	C	-4.022324	-0.629995	-0.127620
C22	C	-4.118538	-0.587197	-0.176731
C23	C	-4.020874	-0.789840	-0.173015
C24	C	-3.861829	-0.431758	-0.174215
C25	C	-3.764782	-0.112780	-0.275341
C26	C	-3.792951	-0.112450	-0.338944
C27	C	-4.006338	-0.188055	-0.741660
C28	C	-4.032840	-0.187758	-0.801423
O29	O	-4.079324	-0.253557	-0.839393
N30	N	-4.007622	-0.110057	-0.823011
C31	C	-3.955917	-0.032648	-0.784833
O32	O	-3.936902	0.033470	-0.808683
C33	C	-3.929430	-0.032946	-0.725072
C34	C	-3.954632	-0.110652	-0.703487
C35	C	-4.031539	-0.265754	-0.720075
C36	C	-4.005035	-0.266051	-0.660316
C37	C	-3.953329	-0.188648	-0.622142
C38	C	-3.928127	-0.110949	-0.643728
C39	C	-3.877740	0.044461	-0.686895
C40	C	-3.851256	0.044156	-0.627130
C41	C	-3.876458	-0.033550	-0.605545
C42	C	-3.849917	-0.033842	-0.545796
N43	N	-3.875136	-0.111543	-0.524207
C44	C	-3.926842	-0.188946	-0.562381
C45	C	-4.011548	-0.032028	-0.910337
C46	C	-4.038020	-0.031729	-0.970097
C47	C	-4.114946	-0.186839	-0.986683
C48	C	-4.088458	-0.187137	-0.926922
C49	C	-4.036767	-0.109729	-0.888749
C50	C	-3.871176	-0.189563	-0.436882
C51	C	-3.844657	-0.189852	-0.377117
C52	C	-3.767745	-0.034743	-0.360536
C53	C	-3.794250	-0.034453	-0.420296
C54	C	-3.845975	-0.111870	-0.458468
O55	O	-3.803442	0.031923	-0.507791
O56	O	-3.945874	-0.255054	-0.538523
C57	C	-4.117313	0.039685	-0.172431
C58	C	-4.054803	0.133762	-0.172757
C59	C	-4.138669	-0.108806	-0.071879
C60	C	-4.089739	-0.109132	-0.008276
H61	H	-4.091140	-0.647172	-0.088715
N62	N	-4.114105	-0.266477	-0.904835
N63	N	-3.967491	-0.280607	-0.871075
H64	H	-3.985574	-0.336635	-0.855466
N65	N	-3.576960	-0.660663	-0.167298
N66	N	-3.513803	-0.694742	-0.125467
H67	H	-3.381544	-0.713274	-0.123188
H68	H	-3.969440	0.031011	-0.879259
H69	H	-4.188184	-0.688422	-0.263777
H70	H	-4.157052	-0.249864	-1.017775
N71	N	-4.012221	0.047655	-0.992132
N72	N	-3.966042	0.116755	-0.958035
H73	H	-3.947826	0.172823	-0.973594
H74	H	-3.725636	0.028276	-0.329445
N75	N	-3.773882	-0.570080	-0.268427
N76	N	-3.606763	-0.585832	-0.273979
H77	H	-3.545724	-0.570641	-0.308445
N78	N	-4.306150	-0.561207	-0.180047
N79	N	-4.451948	-0.591792	-0.222544
H80	H	-4.584451	-0.573437	-0.224889
N81	N	-3.665427	-0.523854	-0.073078
N82	N	-3.488905	-0.535592	-0.061758
H83	H	-3.388369	-0.503562	-0.025224
H84	H	-3.865177	-0.253132	-0.359546
N85	N	-3.851984	0.123844	-0.708924
N86	N	-3.805835	0.192940	-0.674823
H87	H	-3.787646	0.249010	-0.690379
N88	N	-3.924016	-0.268649	-0.475860
N89	N	-3.946503	-0.338012	-0.456569
H90	H	-3.983812	-0.393867	-0.484097
N91	N	-4.031139	-0.345442	-0.638287
N92	N	-4.077545	-0.414545	-0.672390
H93	H	-4.096123	-0.470623	-0.656840
H94	H	-4.073648	-0.328789	-0.751151
H95	H	-3.809170	0.107192	-0.596052
N96	N	-3.768450	0.044928	-0.442338
N97	N	-3.722259	0.114032	-0.408244
H98	H	-3.704043	0.170097	-0.423807
