data_functionalizedCrystal
_audit_creation_method	'MofGen! by Chris Wilmer'
_symmetry_space_group_name_H-M	'P1'
_symmetry_Int_Tables_number	1
_symmetry_cell_setting	triclinic
loop_
_symmetry_equiv_pos_as_xyz
  x,y,z
_cell_length_a	12.594517
_cell_length_b	11.169416
_cell_length_c	11.169409
_cell_angle_alpha	90.030874
_cell_angle_beta	89.976516
_cell_angle_gamma	89.989860
loop_
_atom_site_label
_atom_site_type_symbol
_atom_site_fract_x
_atom_site_fract_y
_atom_site_fract_z
Zn1	Zn	1.627332	0.477716	-0.678672
Zn2	Zn	2.127332	0.977716	-0.178672
Zn3	Zn	1.627234	0.678457	-0.477994
Zn4	Zn	2.127234	1.178457	0.022006
Zn5	Zn	1.449329	0.477786	-0.477994
Zn6	Zn	1.949329	0.977786	0.022006
Zn7	Zn	1.449336	0.678355	-0.678626
Zn8	Zn	1.949336	1.178355	-0.178626
O9	O	1.538308	0.578079	-0.578322
O10	O	2.038308	1.078079	-0.078322
O11	O	1.776265	0.504358	-0.652071
O12	O	2.276265	1.004358	-0.152071
O13	O	1.603590	0.651909	-0.310044
O14	O	2.103590	1.151909	0.189956
O15	O	1.472980	0.309827	-0.504633
O16	O	1.972980	0.809827	-0.004633
O17	O	1.776193	0.651842	-0.504634
O18	O	2.276193	1.151842	-0.004634
O19	O	1.603758	0.309776	-0.652071
O20	O	2.103758	0.809776	-0.152071
O21	O	1.472885	0.504477	-0.310044
O22	O	1.972885	1.004477	0.189956
O23	O	1.300384	0.504378	-0.504589
O24	O	1.800384	1.004378	-0.004589
O25	O	1.472991	0.651669	-0.846582
O26	O	1.972991	1.151669	-0.346582
O27	O	1.300389	0.651736	-0.651992
O28	O	1.800389	1.151736	-0.151992
O29	O	1.603764	0.504260	-0.846616
O30	O	2.103764	1.004260	-0.346616
O31	O	1.603597	0.846393	-0.504589
O32	O	2.103597	1.346393	-0.004589
O33	O	1.472896	0.846319	-0.651993
O34	O	1.972896	1.346319	-0.151993
C35	C	1.261767	0.578054	-0.578286
C36	C	1.761767	1.078054	-0.078286
C37	C	1.143461	0.578073	-0.578300
C38	C	1.643461	1.078073	-0.078300
C39	C	1.538265	0.889903	-0.578312
C40	C	2.038265	1.389903	-0.078312
C41	C	1.538345	1.023303	-0.578349
C42	C	2.038345	1.523303	-0.078349
C43	C	1.538389	0.577945	-0.891364
C44	C	2.038389	1.077945	-0.391364
C45	C	1.538424	0.577888	-1.024764
C46	C	2.038424	1.077888	-0.524764
C47	C	1.074175	0.497816	-0.498279
C48	C	1.574175	0.997816	0.001721
C49	C	1.003372	0.607295	-0.468764
C50	C	1.503372	1.107295	0.031236
C51	C	1.003465	0.468648	-0.607835
C52	C	1.503465	0.968648	-0.107835
C53	C	1.074217	0.687609	-0.548727
C54	C	1.574217	1.187609	-0.048727
C55	C	1.074316	0.548889	-0.687849
C56	C	1.574316	1.048889	-0.187849
C57	C	1.003545	0.658443	-0.658375
C58	C	1.503545	1.158443	-0.158375
C59	C	1.815928	0.578104	-0.578358
C60	C	2.315928	1.078104	-0.078358
C61	C	1.934234	0.578114	-0.578373
C62	C	2.434234	1.078114	-0.078373
C63	C	1.538379	0.265036	-0.578357
C64	C	2.038379	0.765036	-0.078357
C65	C	1.538409	0.131636	-0.578372
C66	C	2.038409	0.631636	-0.078372
C67	C	1.538287	0.578125	-0.266497
C68	C	2.038287	1.078125	0.233503
C69	C	1.538459	0.577843	-0.133097
C70	C	2.038459	1.077843	0.366903
H71	H	1.105187	0.430011	-0.430526
H72	H	1.605187	0.930011	0.069474
N73	N	0.962708	0.748458	-0.748057
N74	N	1.462708	1.248458	-0.248057
H75	H	1.024655	0.789635	-0.788076
H76	H	1.524655	1.289635	-0.288076
H77	H	0.917499	0.809910	-0.705551
H78	H	1.417499	1.309910	-0.205551
H79	H	0.972330	0.376103	-0.632745
H80	H	1.472330	0.876103	-0.132745
N81	N	1.115641	0.516124	-0.810484
N82	N	1.615641	1.016124	-0.310484
H83	H	1.088830	0.575890	-0.871197
H84	H	1.588830	1.075890	-0.371197
H85	H	1.089945	0.433369	-0.832593
H86	H	1.589945	0.933369	-0.332593
H87	H	0.972212	0.632005	-0.376152
H88	H	1.472212	1.132005	0.123848
N89	N	1.115199	0.810250	-0.515535
N90	N	1.615199	1.310250	-0.015535
H91	H	1.195390	0.809469	-0.515676
H92	H	1.695390	1.309469	-0.015676
H93	H	1.088688	0.832417	-0.433101
H94	H	1.588688	1.332417	0.066899
