data_functionalizedCrystal
_audit_creation_method	'MofGen! by Chris Wilmer'
_symmetry_space_group_name_H-M	'P1'
_symmetry_Int_Tables_number	1
_symmetry_cell_setting	triclinic
loop_
_symmetry_equiv_pos_as_xyz
  x,y,z
_cell_length_a	18.050590
_cell_length_b	18.050590
_cell_length_c	18.050582
_cell_angle_alpha	90.024044
_cell_angle_beta	90.000128
_cell_angle_gamma	90.007719
loop_
_atom_site_label
_atom_site_type_symbol
_atom_site_fract_x
_atom_site_fract_y
_atom_site_fract_z
Zn1	Zn	1.135349	-0.295916	0.419598
Zn2	Zn	1.468682	0.037417	0.752931
Zn3	Zn	1.802016	0.370750	1.086264
Zn4	Zn	1.135279	-0.420101	0.295406
Zn5	Zn	1.468612	-0.086768	0.628739
Zn6	Zn	1.801945	0.246566	0.962073
Zn7	Zn	1.011166	-0.295906	0.295456
Zn8	Zn	1.344500	0.037427	0.628789
Zn9	Zn	1.677833	0.370761	0.962122
Zn10	Zn	1.011137	-0.420045	0.419589
Zn11	Zn	1.344470	-0.086712	0.752922
Zn12	Zn	1.677804	0.246621	1.086255
O13	O	1.073233	-0.357992	0.357512
O14	O	1.406566	-0.024659	0.690845
O15	O	1.739899	0.308675	1.024179
O16	O	1.239264	-0.312417	0.403106
O17	O	1.572597	0.020916	0.736440
O18	O	1.905931	0.354249	1.069773
O19	O	1.118798	-0.403645	0.191488
O20	O	1.452131	-0.070312	0.524821
O21	O	1.785464	0.263021	0.858155
O22	O	1.027681	-0.191983	0.311948
O23	O	1.361014	0.141351	0.645281
O24	O	1.694348	0.474684	0.978615
O25	O	1.239213	-0.403655	0.311863
O26	O	1.572546	-0.070322	0.645197
O27	O	1.905879	0.263011	0.978530
O28	O	1.118917	-0.191990	0.403155
O29	O	1.452251	0.141343	0.736488
O30	O	1.785584	0.474676	1.069821
O31	O	1.027613	-0.312400	0.191525
O32	O	1.360946	0.020934	0.524858
O33	O	1.694279	0.354267	0.858191
O34	O	0.907238	-0.312346	0.311939
O35	O	1.240571	0.020988	0.645273
O36	O	1.573904	0.354321	0.978606
O37	O	1.027631	-0.403560	0.523514
O38	O	1.360965	-0.070227	0.856848
O39	O	1.694298	0.263106	1.190181
O40	O	0.907216	-0.403550	0.403139
O41	O	1.240550	-0.070217	0.736472
O42	O	1.573883	0.263116	1.069806
O43	O	1.118889	-0.312363	0.523521
O44	O	1.452223	0.020970	0.856854
O45	O	1.785556	0.354303	1.190188
O46	O	1.118769	-0.524018	0.311854
O47	O	1.452103	-0.190685	0.645188
O48	O	1.785436	0.142648	0.978521
O49	O	1.027563	-0.523977	0.403091
O50	O	1.360896	-0.190644	0.736424
O51	O	1.694230	0.142689	1.069757
C52	C	0.880281	-0.357941	0.357544
C53	C	1.213614	-0.024608	0.690877
C54	C	1.546947	0.308725	1.024211
C55	C	0.797735	-0.357938	0.357575
C56	C	1.131068	-0.024604	0.690909
C57	C	1.464401	0.308729	1.024242
C58	C	0.598294	-0.407677	0.407052
C59	C	0.931627	-0.074343	0.740385
C60	C	1.264961	0.258990	1.073719
C61	C	0.548890	-0.339962	0.425328
C62	C	0.882223	-0.006628	0.758661
C63	C	1.215556	0.326705	1.091995
C64	C	0.646604	-0.357979	0.357539
C65	C	0.979938	-0.024646	0.690872
C66	C	1.313271	0.308688	1.024206
C67	C	0.548927	-0.425733	0.339262
C68	C	0.882260	-0.092400	0.672596
C69	C	1.215594	0.240934	1.005929
C70	C	0.500619	-0.358025	0.357505
C71	C	0.833953	-0.024692	0.690839
C72	C	1.167286	0.308642	1.024172
C73	C	0.598287	-0.290228	0.375850
C74	C	0.931621	0.043105	0.709184
C75	C	1.264954	0.376439	1.042517
C76	C	0.598329	-0.376045	0.289753
C77	C	0.931662	-0.042712	0.623086
C78	C	1.264996	0.290622	0.956420
C79	C	0.548947	-0.308283	0.308004
C80	C	0.882280	0.025050	0.641337
C81	C	1.215614	0.358384	0.974670
C82	C	0.730703	-0.357954	0.357560
C83	C	1.064036	-0.024620	0.690894
C84	C	1.397369	0.308713	1.024227
C85	C	0.416523	-0.358043	0.357484
C86	C	0.749856	-0.024710	0.690817
C87	C	1.083189	0.308624	1.024151
C88	C	1.073176	-0.550944	0.357482
C89	C	1.406509	-0.217611	0.690816
C90	C	1.739842	0.115722	1.024149
C91	C	1.073219	-0.633490	0.357495
C92	C	1.406552	-0.300157	0.690828
C93	C	1.739886	0.033177	1.024161
C94	C	1.122920	-0.832936	0.307949
C95	C	1.456254	-0.499603	0.641283
C96	C	1.789587	-0.166269	0.974616
C97	C	1.141057	-0.882277	0.375725
C98	C	1.474390	-0.548944	0.709058
C99	C	1.807723	-0.215610	1.042391
C100	C	1.073261	-0.784620	0.357524
C101	C	1.406595	-0.451287	0.690857
C102	C	1.739928	-0.117954	1.024191
C103	C	1.055200	-0.882361	0.289779
C104	C	1.388534	-0.549028	0.623113
C105	C	1.721867	-0.215694	0.956446
C106	C	1.073303	-0.930605	0.357547
C107	C	1.406637	-0.597272	0.690880
C108	C	1.739970	-0.263939	1.024213
C109	C	1.091433	-0.832874	0.425335
C110	C	1.424766	-0.499541	0.758668
C111	C	1.758099	-0.166208	1.092002
C112	C	1.005545	-0.832954	0.339344
C113	C	1.338878	-0.499620	0.672677
C114	C	1.672211	-0.166287	1.006011
C115	C	1.023655	-0.882273	0.407166
C116	C	1.356989	-0.548939	0.740499
C117	C	1.690322	-0.215606	1.073833
C118	C	1.073239	-0.700522	0.357510
C119	C	1.406572	-0.367189	0.690843
C120	C	1.739906	-0.033855	1.024177
C121	C	1.073326	-1.014702	0.357568
C122	C	1.406659	-0.681369	0.690902
C123	C	1.739992	-0.348035	1.024235
C124	C	1.266938	-0.358044	0.357480
C125	C	1.600272	-0.024710	0.690814
C126	C	1.933605	0.308623	1.024147
C127	C	1.349484	-0.358066	0.357467
C128	C	1.682817	-0.024732	0.690800
C129	C	2.016151	0.308601	1.024133
C130	C	1.073265	-0.357957	0.551218
C131	C	1.406598	-0.024623	0.884551
C132	C	1.739931	0.308710	1.217884
C133	C	1.073278	-0.357942	0.633763
C134	C	1.406612	-0.024608	0.967097
C135	C	1.739945	0.308725	1.300430
C136	C	1.073310	-0.164287	0.357558
C137	C	1.406644	0.169047	0.690891
C138	C	1.739977	0.502380	1.024225
C139	C	1.073343	-0.081741	0.357578
C140	C	1.406677	0.251593	0.690911
C141	C	1.740010	0.584926	1.024244
C142	C	1.073243	-0.357974	0.164560
C143	C	1.406577	-0.024640	0.497893
C144	C	1.739910	0.308693	0.831227
C145	C	1.073374	-0.357780	0.082014
C146	C	1.406707	-0.024446	0.415348
C147	C	1.740040	0.308887	0.748681
C148	C	1.023699	-0.407454	0.882586
C149	C	1.357032	-0.074121	1.215919
C150	C	1.690365	0.259213	1.549252
C151	C	1.005547	-0.339713	0.833204
C152	C	1.338880	-0.006380	1.166537
C153	C	1.672214	0.326953	1.499870
C154	C	1.073341	-0.357833	0.930884
C155	C	1.406675	-0.024499	1.264217
C156	C	1.740008	0.308834	1.597551
C157	C	1.091427	-0.425623	0.833184
C158	C	1.424760	-0.092290	1.166518
C159	C	1.758093	0.241043	1.499851
C160	C	1.073309	-0.357890	0.784899
C161	C	1.406642	-0.024557	1.118232
C162	C	1.739975	0.308777	1.451566
C163	C	1.055155	-0.290056	0.882589
C164	C	1.388488	0.043278	1.215923
C165	C	1.721821	0.376611	1.549256
C166	C	1.141066	-0.376012	0.882574
C167	C	1.474399	-0.042678	1.215908
C168	C	1.807733	0.290655	1.549241
C169	C	1.122940	-0.308224	0.833215
C170	C	1.456273	0.025109	1.166548
C171	C	1.789607	0.358443	1.499881
C172	C	1.073358	-0.357801	1.014982
C173	C	1.406692	-0.024467	1.348316
C174	C	1.740025	0.308866	1.681649
C175	C	1.073292	-0.357914	0.700802
C176	C	1.406625	-0.024581	1.034136
C177	C	1.739958	0.308753	1.367469
H178	H	0.527241	-0.483012	0.323820
H179	H	0.860574	-0.149679	0.657153
H180	H	1.193908	0.183655	0.990486
F181	F	0.626617	-0.462516	0.461839
F182	F	0.959950	-0.129183	0.795173
F183	F	1.293284	0.204150	1.128506
H184	H	0.527416	-0.266227	0.266118
H185	H	0.860750	0.067107	0.599451
H186	H	1.194083	0.400440	0.932785
H187	H	1.164929	-0.811272	0.266069
H188	H	1.498263	-0.477939	0.599402
H189	H	1.831596	-0.144605	0.932736
H190	H	0.620061	-0.391331	0.232459
H191	H	0.953395	-0.057997	0.565792
H192	H	1.286728	0.275336	0.899126
F193	F	0.626506	-0.215337	0.396123
F194	F	0.959839	0.117996	0.729456
F195	F	1.293173	0.451330	1.062790
F196	F	0.930688	-0.804615	0.319203
F197	F	1.264021	-0.471282	0.652536
F198	F	1.597355	-0.137949	0.985870
F199	F	0.520505	-0.320007	0.500236
F200	F	0.853838	0.013326	0.833570
F201	F	1.187171	0.346660	1.166903
F202	F	1.035056	-0.215131	0.910833
F203	F	1.368390	0.118203	1.244166
F204	F	1.701723	0.451536	1.577499
H205	H	1.164907	-0.266237	0.811674
H206	H	1.498241	0.067096	1.145008
H207	H	1.831574	0.400430	1.478341
F208	F	1.215934	-0.910584	0.395853
F209	F	1.549267	-0.577251	0.729187
F210	F	1.882600	-0.243918	1.062520
F211	F	1.035210	-0.910774	0.214885
F212	F	1.368544	-0.577440	0.548218
F213	F	1.701877	-0.244107	0.881552
F214	F	0.968788	-0.910412	0.462037
F215	F	1.302122	-0.577079	0.795371
F216	F	1.635455	-0.243745	1.128704
H217	H	1.106669	-0.811230	0.482685
H218	H	1.440002	-0.477896	0.816018
H219	H	1.773336	-0.144563	1.149351
F220	F	0.968805	-0.462202	0.910923
F221	F	1.302138	-0.128868	1.244257
F222	F	1.635472	0.204465	1.577590
F223	F	0.930669	-0.319639	0.804858
F224	F	1.264002	0.013694	1.138191
F225	F	1.597336	0.347028	1.471525
F226	F	1.111435	-0.500524	0.804811
F227	F	1.444769	-0.167191	1.138144
F228	F	1.778102	0.166143	1.471478
F229	F	1.215923	-0.396110	0.910945
F230	F	1.549257	-0.062776	1.244278
F231	F	1.882590	0.270557	1.577611
