data_functionalizedCrystal
_audit_creation_method	'MofGen! by Chris Wilmer'
_symmetry_space_group_name_H-M	'P1'
_symmetry_Int_Tables_number	1
_symmetry_cell_setting	triclinic
loop_
_symmetry_equiv_pos_as_xyz
  x,y,z
_cell_length_a	19.077105
_cell_length_b	13.897448
_cell_length_c	19.077174
_cell_angle_alpha	92.273651
_cell_angle_beta	85.483752
_cell_angle_gamma	87.714101
loop_
_atom_site_label
_atom_site_type_symbol
_atom_site_fract_x
_atom_site_fract_y
_atom_site_fract_z
Zn1	Zn	1.093747	-0.468678	-0.441851
Zn2	Zn	1.088946	-0.623231	-0.323966
Zn3	Zn	0.971131	-0.455194	-0.319249
Zn4	Zn	0.975840	-0.623167	-0.437084
O5	O	1.032416	-0.542567	-0.380538
O6	O	1.191761	-0.494849	-0.430183
O7	O	1.069338	-0.595324	-0.224691
O8	O	0.987435	-0.322004	-0.335533
O9	O	1.188233	-0.608398	-0.343573
O10	O	1.077521	-0.331911	-0.425609
O11	O	0.982780	-0.471868	-0.221225
O12	O	0.873105	-0.471807	-0.330910
O13	O	0.995460	-0.608291	-0.536366
O14	O	0.876565	-0.595216	-0.417484
O15	O	1.082087	-0.494788	-0.539869
O16	O	1.073903	-0.758200	-0.338951
O17	O	0.990805	-0.758154	-0.422058
C18	C	0.849256	-0.532042	-0.373168
C19	C	0.770900	-0.527563	-0.370032
C20	C	0.735905	-0.589801	-0.413562
C21	C	0.662281	-0.585580	-0.410619
C22	C	0.623654	-0.519126	-0.364142
C23	C	0.658654	-0.456882	-0.320610
C24	C	0.732276	-0.461098	-0.323557
C25	C	0.403271	-0.499610	-0.350505
C26	C	0.329643	-0.495400	-0.347559
C27	C	0.333276	-0.624098	-0.437569
C28	C	0.406899	-0.628313	-0.440509
C29	C	0.441893	-0.566065	-0.396980
N30	N	0.548398	-0.514812	-0.361131
N31	N	0.517147	-0.570375	-0.399996
C32	C	1.032364	-0.793178	-0.380515
C33	C	1.032407	-0.900395	-0.380532
C34	C	1.032483	-1.096697	-0.380579
C35	C	1.032439	-0.987460	-0.380555
C36	C	1.216291	-0.553135	-0.387936
C37	C	1.294648	-0.557638	-0.391089
C38	C	1.039834	-0.553036	-0.564412
C39	C	1.042996	-0.557497	-0.642768
C40	C	1.032488	-0.290981	-0.380576
C41	C	1.032519	-0.183769	-0.380593
C42	C	0.999417	-0.495318	-0.677775
C43	C	1.002384	-0.499517	-0.751398
C44	C	1.048935	-0.565893	-0.790014
C45	C	1.092516	-0.628079	-0.755002
C46	C	1.089544	-0.623883	-0.681380
C47	C	1.062652	-0.585338	-1.010396
C48	C	1.065621	-0.589527	-1.084023
C49	C	0.975489	-0.460966	-1.080415
C50	C	0.972524	-0.456772	-1.006791
C51	C	1.016102	-0.518962	-0.971785
N52	N	1.051971	-0.570185	-0.865270
N53	N	1.013062	-0.514673	-0.896531
C54	C	1.025067	-0.532072	-0.197381
C55	C	1.022043	-0.527347	-0.119030
H56	H	0.760768	-0.410413	-0.288114
H57	H	1.125036	-0.674510	-0.652878
H58	H	0.627198	-0.402769	-0.282770
O59	O	0.773451	-0.654454	-0.458611
C60	C	0.814409	-0.716805	-0.420105
H61	H	0.789971	-0.718216	-0.363686
H62	H	0.870116	-0.690038	-0.419949
C63	C	0.846927	-0.817437	-0.523760
C64	C	0.816908	-0.819176	-0.454467
H65	H	0.848472	-0.880583	-0.544957
H66	H	0.819335	-0.775428	-0.549704
H67	H	0.893346	-0.795126	-0.523621
H68	H	0.770487	-0.841474	-0.454607
H69	H	0.844492	-0.861191	-0.428524
H70	H	0.633791	-0.636261	-0.446065
O71	O	0.292227	-0.430754	-0.302393
C72	C	0.338900	-0.376732	-0.264592
H73	H	0.392552	-0.378099	-0.295571
H74	H	0.344552	-0.409333	-0.211318
C75	C	0.243873	-0.270159	-0.215368
C76	C	0.309769	-0.271831	-0.253420
H77	H	0.225904	-0.205452	-0.208473
H78	H	0.212429	-0.306557	-0.240833
H79	H	0.248593	-0.297331	-0.170977
H80	H	0.305047	-0.244670	-0.297813
H81	H	0.341212	-0.235426	-0.227963
H82	H	1.103532	-0.643579	-1.115463
H83	H	0.438345	-0.682429	-0.478354
O84	O	0.299252	-0.684417	-0.479929
C85	C	0.258512	-0.629749	-0.523813
H86	H	0.280895	-0.555313	-0.529149
H87	H	0.201832	-0.621943	-0.499787
C88	C	0.232851	-0.772551	-0.590440
C89	C	0.260345	-0.681130	-0.596999
H90	H	0.233978	-0.804246	-0.635584
H91	H	0.260295	-0.809383	-0.560873
H92	H	0.185619	-0.766033	-0.570416
H93	H	0.307578	-0.687650	-0.617015
H94	H	0.232909	-0.644300	-0.626571
O95	O	0.437330	-0.439286	-0.308185
C96	C	0.478044	-0.493941	-0.264271
H97	H	0.490075	-0.569133	-0.289483
H98	H	0.447546	-0.499834	-0.210882
C99	C	0.532691	-0.351760	-0.223401
C100	C	0.547471	-0.444109	-0.254370
H101	H	0.575515	-0.321021	-0.217290
H102	H	0.505259	-0.314937	-0.252984
H103	H	0.507274	-0.356684	-0.178914
H104	H	0.572880	-0.439184	-0.298860
H105	H	0.574909	-0.480931	-0.224794
H106	H	0.961514	-0.441263	-0.646339
O107	O	1.137810	-0.692426	-0.792547
C108	C	1.185067	-0.642555	-0.836986
H109	H	1.188550	-0.565573	-0.814987
H110	H	1.165524	-0.641157	-0.891907
C111	C	1.254106	-0.788508	-0.868077
C112	C	1.258388	-0.693960	-0.841053
H113	H	1.299334	-0.820219	-0.870589
H114	H	1.222267	-0.822108	-0.838139
H115	H	1.237817	-0.787330	-0.913842
H116	H	1.274669	-0.695140	-0.795286
H117	H	1.290232	-0.660361	-0.870983
O118	O	0.960027	-0.439014	-0.785294
C119	C	0.918295	-0.379542	-0.735423
H120	H	0.945055	-0.374874	-0.684106
H121	H	0.864426	-0.411334	-0.725431
C122	C	0.876463	-0.283669	-0.826796
C123	C	0.909333	-0.277930	-0.763768
H124	H	0.870931	-0.220991	-0.844281
H125	H	0.904576	-0.323738	-0.860395
H126	H	0.831575	-0.310166	-0.818461
H127	H	0.954222	-0.251444	-0.772106
H128	H	0.881227	-0.237853	-0.730171
O129	O	0.927244	-0.392265	-0.969388
C130	C	0.889429	-0.338263	-1.016075
H131	H	0.889088	-0.380622	-1.068449
H132	H	0.915587	-0.266941	-1.024959
C133	C	0.813666	-0.266373	-0.919995
C134	C	0.813242	-0.318403	-0.984320
H135	H	0.766671	-0.254117	-0.900406
H136	H	0.839143	-0.302751	-0.888540
H137	H	0.835468	-0.206943	-0.927407
H138	H	0.791448	-0.377836	-0.976905
H139	H	0.787759	-0.282033	-1.015773
H140	H	0.940009	-0.410335	-1.108924
O141	O	1.104886	-0.645837	-0.976365
C142	C	1.063020	-0.703396	-0.932142
H143	H	1.008389	-0.707427	-0.952089
H144	H	1.058353	-0.670263	-0.876250
C145	C	1.164489	-0.800631	-0.907891
C146	C	1.097392	-0.805589	-0.932394
H147	H	1.185692	-0.863668	-0.908043
H148	H	1.192696	-0.761851	-0.937683
H149	H	1.160591	-0.773016	-0.861316
H150	H	1.101292	-0.833192	-0.978971
H151	H	1.069186	-0.844376	-0.902610
