data_functionalizedCrystal
_audit_creation_method	'MofGen! by Chris Wilmer'
_symmetry_space_group_name_H-M	'P1'
_symmetry_Int_Tables_number	1
_symmetry_cell_setting	triclinic
loop_
_symmetry_equiv_pos_as_xyz
  x,y,z
_cell_length_a	6.817900
_cell_length_b	26.552285
_cell_length_c	19.551833
_cell_angle_alpha	85.126870
_cell_angle_beta	78.336523
_cell_angle_gamma	104.518380
loop_
_atom_site_label
_atom_site_type_symbol
_atom_site_fract_x
_atom_site_fract_y
_atom_site_fract_z
V1	V	-4.010628	-0.072399	0.216725
O2	O	-3.994071	0.002919	0.213756
O3	O	-3.966465	-0.143017	0.214130
O4	O	-3.953270	-0.071531	0.311754
O5	O	-4.007357	-0.069061	0.115457
V6	V	-4.494867	-0.063361	0.204748
O7	O	-4.270314	-0.092225	0.242999
O8	O	-4.685378	-0.043536	0.178475
O9	O	-4.315824	0.007256	0.207343
O10	O	-4.628821	-0.138679	0.207717
O11	O	-4.615535	-0.066699	0.306016
O12	O	-4.329019	-0.064229	0.109719
C13	C	-3.812786	-0.160224	0.210424
C14	C	-3.857905	-0.217956	0.208936
C15	C	-3.795954	-0.069037	0.334952
C16	C	-3.830369	-0.068795	0.412632
C17	C	-4.061033	-0.247729	0.211678
C18	C	-4.103431	-0.301975	0.210287
C19	C	-3.942682	-0.326446	0.206140
C20	C	-3.739527	-0.296667	0.203402
C21	C	-3.697139	-0.242422	0.204800
C22	C	-3.848146	-0.405482	0.160236
C23	C	-3.890539	-0.459725	0.158833
C24	C	-4.073416	-0.493754	0.201830
C25	C	-4.213923	-0.473532	0.246221
C26	C	-4.171535	-0.419288	0.247619
C27	C	-3.988625	-0.385264	0.204624
C28	C	-4.322530	-0.582347	0.203064
C29	C	-4.364924	-0.636595	0.201677
C30	C	-4.001009	-0.631284	0.194785
C31	C	-3.958625	-0.577038	0.196179
C32	C	-4.119392	-0.552573	0.200316
C33	C	-4.132859	0.024461	0.211047
C34	C	-4.065748	0.083277	0.212578
V35	V	-4.216710	0.178970	0.208676
O36	O	-4.169053	0.255611	0.204001
O37	O	-4.203848	0.105409	0.209894
O38	O	-4.190006	0.176873	0.307545
O39	O	-4.182990	0.183652	0.105673
V40	V	-4.663749	0.202786	0.177508
O41	O	-4.476138	0.166048	0.225978
O42	O	-4.826640	0.229099	0.142815
O43	O	-4.467227	0.269708	0.184914
O44	O	-4.821533	0.129637	0.177649
O45	O	-4.807596	0.201595	0.275976
O46	O	-4.481068	0.198244	0.087262
C47	C	-4.149677	-0.066725	0.086517
C48	C	-4.094500	-0.066965	0.008837
C49	C	-4.289507	0.281825	0.195227
C50	C	-4.204170	0.338938	0.197532
C51	C	-4.048100	0.174435	0.337148
C52	C	-4.102732	0.174661	0.414840
C53	C	-4.028468	-0.071288	0.452640
C54	C	-4.060805	-0.071060	0.525628
C55	C	-3.895042	-0.068350	0.558607
C56	C	-3.696913	-0.065853	0.518589
C57	C	-3.664576	-0.066076	0.445601
C58	C	-3.833933	-0.096588	0.677477
C59	C	-3.866279	-0.096369	0.750464
C60	C	-3.994767	-0.067661	0.783724
C61	C	-4.090945	-0.039180	0.743991
C62	C	-4.058609	-0.039403	0.671003
C63	C	-3.930084	-0.068108	0.637749
C64	C	-4.227941	-0.069907	0.902875
C65	C	-4.260269	-0.069676	0.975864
C66	C	-3.896375	-0.064475	0.968824
C67	C	-3.864049	-0.064701	0.895835
C68	C	-4.029842	-0.067419	0.862866
C69	C	-4.307164	0.190666	0.070661
C70	C	-4.233055	0.189825	-0.006229
C71	C	-4.301165	0.177472	0.447957
C72	C	-4.352515	0.177692	0.520955
C73	C	-4.205435	0.175097	0.560835
C74	C	-4.006983	0.172287	0.527713
C75	C	-3.955631	0.172071	0.454715
C76	C	-4.038246	0.181585	-0.032011
C77	C	-3.968578	0.180798	-0.104258
C78	C	-4.093729	0.188249	-0.150720
C79	C	-4.288553	0.196492	-0.124934
C80	C	-4.358211	0.197282	-0.052690
H81	H	-4.191949	-0.227813	0.215050
Br82	Br	-3.595192	-0.061324	0.841536
Br83	Br	-4.458384	0.206599	-0.187999
Br84	Br	-4.189131	-0.000753	0.617081
H85	H	-3.809940	0.174086	-0.125241
H86	H	-3.887244	0.170174	0.560194
H87	H	-4.516847	0.203990	-0.031704
H88	H	-3.787976	-0.119563	0.782810
H89	H	-4.195576	-0.015805	0.771070
Br90	Br	-3.659507	-0.135542	0.632343
H91	H	-4.362938	-0.072119	0.876030
Br92	Br	-3.686318	0.168249	0.409781
H93	H	-3.761402	-0.062264	0.995673
Br94	Br	-4.621854	0.181502	0.565892
H95	H	-4.420954	0.179584	0.415496
H96	H	-3.936312	0.175517	0.005810
Br97	Br	-3.999161	0.187175	-0.248765
H98	H	-4.421584	-0.071703	1.008437
H99	H	-4.268848	-0.326221	0.212519
H100	H	-4.285941	-0.402826	0.283765
H101	H	-4.362650	-0.501246	0.281329
H102	H	-4.453435	-0.562426	0.206431
Br103	Br	-4.640625	-0.677003	0.205406
Br104	Br	-3.471941	-0.062171	0.563343
H105	H	-3.870125	-0.651208	0.191413
Br106	Br	-4.275164	0.175390	0.659904
Br107	Br	-3.699876	-0.487163	0.098577
Br108	Br	-3.682933	-0.536629	0.192454
H109	H	-3.608647	-0.316594	0.200027
Br110	Br	-3.599929	-0.359306	0.101883
Br111	Br	-3.421443	-0.202014	0.201080
Br112	Br	-4.253470	-0.074975	0.407899
Br113	Br	-3.395708	-0.062693	0.391300
Br114	Br	-4.329671	-0.074439	0.579936
