data_functionalizedCrystal
_audit_creation_method	'MofGen! by Chris Wilmer'
_symmetry_space_group_name_H-M	'P1'
_symmetry_Int_Tables_number	1
_symmetry_cell_setting	triclinic
loop_
_symmetry_equiv_pos_as_xyz
  x,y,z
_cell_length_a	15.995343
_cell_length_b	15.995292
_cell_length_c	14.586319
_cell_angle_alpha	89.996995
_cell_angle_beta	90.001533
_cell_angle_gamma	83.478900
loop_
_atom_site_label
_atom_site_type_symbol
_atom_site_fract_x
_atom_site_fract_y
_atom_site_fract_z
O1	O	1.110969	0.107893	0.076142
O2	O	1.444303	0.441226	0.409475
O3	O	1.777636	0.774559	0.742808
O4	O	0.867190	0.121227	0.076163
O5	O	1.200524	0.454561	0.409496
O6	O	1.533857	0.787894	0.742830
O7	O	0.995769	-0.007331	0.076153
O8	O	1.329102	0.326002	0.409487
O9	O	1.662436	0.659335	0.742820
O10	O	0.982391	0.236451	0.076152
O11	O	1.315724	0.569784	0.409485
O12	O	1.649057	0.903118	0.742818
O13	O	0.995753	-0.007324	-0.076328
O14	O	1.329087	0.326010	0.257006
O15	O	1.662420	0.659343	0.590339
O16	O	0.867175	0.121235	-0.076318
O17	O	1.200508	0.454568	0.257016
O18	O	1.533841	0.787902	0.590349
O19	O	1.110954	0.107900	-0.076339
O20	O	1.444287	0.441234	0.256994
O21	O	1.777620	0.774567	0.590328
Cu22	Cu	0.989063	0.114568	-0.090251
Cu23	Cu	1.322396	0.447902	0.243082
Cu24	Cu	1.655729	0.781235	0.576416
Cu25	Cu	0.989081	0.114559	0.090075
Cu26	Cu	1.322415	0.447893	0.423408
Cu27	Cu	1.655748	0.781226	0.756742
O28	O	0.982375	0.236459	-0.076329
O29	O	1.315708	0.569792	0.257004
O30	O	1.649042	0.903125	0.590337
C31	C	0.835988	0.120681	-0.000075
C32	C	1.169321	0.454014	0.333259
C33	C	1.502655	0.787348	0.666592
C34	C	0.743037	0.119032	-0.000066
C35	C	1.076371	0.452365	0.333267
C36	C	1.409704	0.785698	0.666600
C37	C	0.572852	0.116038	-0.000078
C38	C	0.906185	0.449371	0.333255
C39	C	1.239518	0.782705	0.666588
C40	C	0.549525	0.023238	-0.000078
C41	C	0.882859	0.356572	0.333256
C42	C	1.216192	0.689905	0.666589
C43	C	0.452848	0.021493	-0.000429
C44	C	0.786181	0.354826	0.332904
C45	C	1.119514	0.688159	0.666238
C46	C	0.405292	0.113089	-0.000090
C47	C	0.738626	0.446423	0.333244
C48	C	1.071959	0.779756	0.666577
C49	C	0.434365	0.159755	-0.086991
C50	C	0.767699	0.493088	0.246343
C51	C	1.101032	0.826422	0.579676
C52	C	0.531158	0.160856	-0.087058
C53	C	0.864491	0.494189	0.246275
C54	C	1.197824	0.827522	0.579608
C55	C	0.531086	0.162206	0.086347
C56	C	0.864419	0.495539	0.419680
C57	C	1.197752	0.828872	0.753014
C58	C	0.434592	0.158780	0.087484
C59	C	0.767925	0.492113	0.420817
C60	C	1.101258	0.825446	0.754151
C61	C	0.310595	0.111428	-0.000099
C62	C	0.643928	0.444761	0.333235
C63	C	0.977261	0.778095	0.666568
C64	C	0.667549	0.117702	-0.000075
C65	C	1.000883	0.451036	0.333258
C66	C	1.334216	0.784369	0.666591
C67	C	0.995217	-0.038523	-0.000085
C68	C	1.328550	0.294810	0.333248
C69	C	1.661883	0.628144	0.666582
C70	C	0.993584	-0.131476	-0.000078
C71	C	1.326918	0.201857	0.333256
C72	C	1.660251	0.535191	0.666589
C73	C	0.987583	-0.469214	-0.000086
C74	C	1.320916	-0.135881	0.333248
C75	C	1.654250	0.197453	0.666581
C76	C	1.080388	-0.445904	-0.000434
C77	C	1.413721	-0.112571	0.332899
C78	C	1.747054	0.220762	0.666232
C79	C	1.082152	-0.349229	-0.000088
C80	C	1.415485	-0.015896	0.333246
C81	C	1.748818	0.317438	0.666579
C82	C	0.990561	-0.301658	-0.000082
C83	C	1.323894	0.031675	0.333251
C84	C	1.657228	0.365008	0.666584
C85	C	0.944172	-0.330762	0.086993
C86	C	1.277505	0.002571	0.420326
C87	C	1.610839	0.335904	0.753660
C88	C	0.943055	-0.427553	0.087063
C89	C	1.276388	-0.094220	0.420396
C90	C	1.609721	0.239114	0.753729
C91	C	0.941142	-0.427401	-0.086336
C92	C	1.274475	-0.094068	0.246997
C93	C	1.607809	0.239265	0.580330
C94	C	0.944581	-0.330909	-0.087484
C95	C	1.277914	0.002425	0.245849
C96	C	1.611248	0.335758	0.579182
C97	C	0.992239	-0.206962	-0.000077
C98	C	1.325572	0.126371	0.333256
C99	C	1.658906	0.459704	0.666589
C100	C	0.985902	-0.563910	-0.000084
C101	C	1.319236	-0.230577	0.333249
C102	C	1.652569	0.102757	0.666582
C103	C	1.142156	0.108447	-0.000099
C104	C	1.475490	0.441780	0.333234
C105	C	1.808823	0.775113	0.666567
C106	C	1.235107	0.110096	-0.000102
C107	C	1.568440	0.443429	0.333232
C108	C	1.901773	0.776762	0.666565
C109	C	0.982927	0.267650	-0.000089
C110	C	1.316261	0.600984	0.333244
C111	C	1.649594	0.934317	0.666577
C112	C	0.984560	0.360603	-0.000090
C113	C	1.317893	0.693937	0.333243
C114	C	1.651226	1.027270	0.666576
N115	N	0.989056	0.114574	-0.217083
N116	N	1.322389	0.447907	0.116250
N117	N	1.655723	0.781241	0.449584
C118	C	1.039840	0.165374	-0.452094
C119	C	1.373173	0.498707	-0.118761
C120	C	1.706506	0.832041	0.214572
C121	C	1.039848	0.165368	-0.548076
C122	C	1.373182	0.498702	-0.214742
C123	C	1.706515	0.832035	0.118591
C124	C	0.938309	0.063741	-0.548075
C125	C	1.271642	0.397074	-0.214742
C126	C	1.604976	0.730408	0.118592
C127	C	0.938305	0.063743	-0.452096
C128	C	1.271639	0.397076	-0.118762
C129	C	1.604972	0.730410	0.214571
C130	C	0.989069	0.114564	-0.404108
C131	C	1.322403	0.447898	-0.070774
C132	C	1.655736	0.781231	0.262559
C133	C	0.989082	0.114557	-0.596068
C134	C	1.322415	0.447890	-0.262735
C135	C	1.655748	0.781223	0.070598
C136	C	0.989091	0.114550	-0.700136
C137	C	1.322424	0.447883	-0.366802
C138	C	1.655757	0.781217	-0.033469
C139	C	0.989061	0.114570	-0.300034
C140	C	1.322395	0.447903	0.033299
C141	C	1.655728	0.781237	0.366633
N142	N	0.989095	0.114547	0.216907
N143	N	1.322428	0.447880	0.550240
N144	N	1.655762	0.781213	0.883573
H145	H	0.401621	0.225614	0.093000
H146	H	0.734955	0.558947	0.426333
H147	H	1.068288	0.892281	0.759666
Cl148	Cl	0.841362	-0.280007	-0.095599
Cl149	Cl	1.174695	0.053326	0.237735
Cl150	Cl	1.508028	0.386659	0.571068
H151	H	0.545085	0.230512	0.087184
H152	H	0.878418	0.563845	0.420518
H153	H	1.211751	0.897178	0.753851
Cl154	Cl	1.103664	0.229257	-0.391770
Cl155	Cl	1.436997	0.562590	-0.058437
Cl156	Cl	1.770330	0.895923	0.274897
Cl157	Cl	0.985958	-0.471087	-0.188233
Cl158	Cl	1.319291	-0.137753	0.145100
Cl159	Cl	1.652625	0.195580	0.478433
H160	H	0.578511	-0.012142	-0.062302
H161	H	0.911844	0.321191	0.271031
H162	H	1.245178	0.654524	0.604365
H163	H	0.402505	0.227168	-0.089979
H164	H	0.735838	0.560501	0.243355
H165	H	1.069171	0.893834	0.576688
H166	H	0.978359	-0.312341	-0.151902
H167	H	1.311692	0.020992	0.181432
H168	H	1.645026	0.354326	0.514765
Cl169	Cl	0.403350	0.110332	-0.187220
Cl170	Cl	0.736684	0.443665	0.146113
Cl171	Cl	1.070017	0.776998	0.479446
H172	H	0.896978	0.022365	-0.587158
H173	H	1.230311	0.355698	-0.253825
H174	H	1.563645	0.689032	0.079508
Cl175	Cl	1.135611	-0.489126	-0.096847
Cl176	Cl	1.468945	-0.155792	0.236487
Cl177	Cl	1.802278	0.177541	0.569820
H178	H	1.118483	-0.330202	-0.062505
H179	H	1.451816	0.003132	0.270828
H180	H	1.785149	0.336465	0.604161
Cl181	Cl	0.423501	-0.034905	0.095729
Cl182	Cl	0.756834	0.298428	0.429063
Cl183	Cl	1.090168	0.631761	0.762396
Cl184	Cl	0.592788	-0.032307	0.096121
Cl185	Cl	0.926122	0.301027	0.429455
Cl186	Cl	1.259455	0.634360	0.762788
Cl187	Cl	0.424376	-0.034613	-0.097182
Cl188	Cl	0.757709	0.298720	0.236152
Cl189	Cl	1.091043	0.632053	0.569485
Cl190	Cl	0.574749	0.116995	0.188075
Cl191	Cl	0.908082	0.450329	0.521409
Cl192	Cl	1.241416	0.783662	0.854742
H193	H	1.081192	0.206742	-0.587142
H194	H	1.414525	0.540075	-0.253809
H195	H	1.747859	0.873408	0.079525
H196	H	0.896961	0.022363	-0.413024
H197	H	1.230295	0.355696	-0.079690
H198	H	1.563628	0.689030	0.253643
Cl199	Cl	0.553640	0.265921	-0.092787
Cl200	Cl	0.886973	0.599254	0.240546
Cl201	Cl	1.220307	0.932587	0.573879
Cl202	Cl	0.572516	0.111552	-0.187731
Cl203	Cl	0.905850	0.444885	0.145602
Cl204	Cl	1.239183	0.778219	0.478936
Cl205	Cl	1.135323	-0.490709	0.095426
Cl206	Cl	1.468656	-0.157375	0.428759
Cl207	Cl	1.801990	0.175958	0.762092
Cl208	Cl	0.838003	-0.450019	0.093178
Cl209	Cl	1.171336	-0.116686	0.426511
Cl210	Cl	1.504670	0.216647	0.759844
H211	H	0.416048	0.124796	0.151775
H212	H	0.749381	0.458129	0.485108
H213	H	1.082714	0.791463	0.818441
H214	H	1.118710	-0.330828	0.062434
H215	H	1.452043	0.002505	0.395768
H216	H	1.785377	0.335838	0.729101
Cl217	Cl	0.992683	-0.468966	0.187546
Cl218	Cl	1.326016	-0.135633	0.520880
Cl219	Cl	1.659350	0.197700	0.854213
Cl220	Cl	0.993928	-0.299804	0.187037
Cl221	Cl	1.327261	0.033529	0.520371
Cl222	Cl	1.660595	0.366863	0.853704
Cl223	Cl	0.840115	-0.281556	0.092006
Cl224	Cl	1.173448	0.051778	0.425340
Cl225	Cl	1.506782	0.385111	0.758673
Cl226	Cl	0.835676	-0.449000	-0.087239
Cl227	Cl	1.169009	-0.115667	0.246094
Cl228	Cl	1.502343	0.217667	0.579428
