data_functionalizedCrystal
_audit_creation_method	'MofGen! by Chris Wilmer'
_symmetry_space_group_name_H-M	'P1'
_symmetry_Int_Tables_number	1
_symmetry_cell_setting	triclinic
loop_
_symmetry_equiv_pos_as_xyz
  x,y,z
_cell_length_a	15.944551
_cell_length_b	15.944480
_cell_length_c	9.130307
_cell_angle_alpha	90.001410
_cell_angle_beta	89.996269
_cell_angle_gamma	96.515708
loop_
_atom_site_label
_atom_site_type_symbol
_atom_site_fract_x
_atom_site_fract_y
_atom_site_fract_z
O1	O	1.114492	-0.108336	0.121627
O2	O	0.869939	-0.121693	0.121661
O3	O	0.998925	0.007264	0.121656
O4	O	0.985506	-0.237293	0.121631
O5	O	0.998923	0.007269	-0.121943
O6	O	0.869937	-0.121688	-0.121938
O7	O	1.114490	-0.108331	-0.121972
Cu8	Cu	0.992213	-0.115009	-0.144198
Cu9	Cu	0.992216	-0.115015	0.143886
O10	O	0.985504	-0.237288	-0.121968
C11	C	0.838644	-0.121136	-0.000134
C12	C	0.745399	-0.119473	-0.000120
C13	C	0.530563	-0.035566	-0.000140
C14	C	0.469534	-0.074532	0.119963
C15	C	0.574674	-0.116466	-0.000137
C16	C	0.469555	-0.074547	-0.120207
C17	C	0.409762	-0.113555	-0.000160
C18	C	0.514873	-0.155454	0.120065
C19	C	0.514899	-0.155457	-0.120212
C20	C	0.453888	-0.194482	-0.000080
C21	C	0.669675	-0.118141	-0.000123
C22	C	0.314761	-0.111887	-0.000164
C23	C	0.998377	0.038562	-0.000137
C24	C	0.996739	0.131811	-0.000118
C25	C	1.072670	0.367572	-0.000155
C26	C	1.031732	0.418138	0.119958
C27	C	0.993702	0.302533	-0.000134
C28	C	1.031712	0.418119	-0.120212
C29	C	0.990775	0.467444	-0.000156
C30	C	0.952786	0.351871	0.120077
C31	C	0.952777	0.351848	-0.120200
C32	C	0.911781	0.402381	-0.000059
C33	C	0.995391	0.207533	-0.000120
C34	C	0.989081	0.562441	-0.000160
C35	C	1.145785	-0.108888	-0.000174
C36	C	1.239031	-0.110550	-0.000179
C37	C	0.986063	0.731416	-0.000170
C38	C	0.987736	0.638171	-0.000174
N39	N	0.992218	-0.115013	0.346509
N40	N	0.992218	-0.115004	-0.346821
C41	C	1.106659	-0.001032	0.346495
C42	C	1.163876	0.055964	0.423154
C43	C	1.163876	0.055974	0.576488
C44	C	1.106653	-0.001021	0.653165
C45	C	1.049436	-0.058018	0.576505
C46	C	1.049441	-0.058019	0.423168
C47	C	0.935000	-0.172001	0.576520
C48	C	0.934995	-0.172008	0.423186
C49	C	0.877778	-0.228996	0.653197
C50	C	0.820555	-0.285989	0.576537
C51	C	0.820557	-0.285996	0.423195
C52	C	0.877778	-0.229004	0.346527
H53	H	1.140687	0.351944	-0.000043
Cl54	Cl	0.748627	-0.357658	0.326837
H55	H	0.843711	0.417847	0.000017
Cl56	Cl	0.901349	0.307115	-0.276975
H57	H	0.877782	-0.229001	0.221674
Cl58	Cl	0.877780	-0.228990	0.845960
H59	H	0.449433	-0.040317	0.221509
Cl60	Cl	0.748631	-0.357637	0.672935
Cl61	Cl	0.438557	-0.021695	-0.276971
Cl62	Cl	1.106654	-0.001027	0.153731
H63	H	1.210468	0.102367	0.360710
Cl64	Cl	1.235811	0.127623	0.672862
Cl65	Cl	0.582015	0.068107	0.000047
H66	H	0.534852	-0.189648	0.221714
Cl67	Cl	1.083220	0.462829	0.276722
H68	H	0.420712	-0.261692	-0.000019
Cl69	Cl	0.901331	0.307378	0.277029
H70	H	1.065077	0.447052	-0.221750
Cl71	Cl	1.106664	-0.001020	0.845928
Cl72	Cl	0.545971	-0.208240	-0.276999
