data_functionalizedCrystal
_audit_creation_method	'MofGen! by Chris Wilmer'
_symmetry_space_group_name_H-M	'P1'
_symmetry_Int_Tables_number	1
_symmetry_cell_setting	triclinic
loop_
_symmetry_equiv_pos_as_xyz
  x,y,z
_cell_length_a	16.974897
_cell_length_b	17.019294
_cell_length_c	15.455313
_cell_angle_alpha	88.788101
_cell_angle_beta	83.675220
_cell_angle_gamma	83.149135
loop_
_atom_site_label
_atom_site_type_symbol
_atom_site_fract_x
_atom_site_fract_y
_atom_site_fract_z
O1	O	1.056388	0.093263	-0.153173
O2	O	1.389722	0.426596	0.180161
O3	O	1.723055	0.759930	0.513494
O4	O	0.825440	0.106784	-0.137989
O5	O	1.158773	0.440117	0.195344
O6	O	1.492107	0.773450	0.528677
O7	O	0.946945	-0.014427	-0.137451
O8	O	1.280279	0.318907	0.195882
O9	O	1.613612	0.652240	0.529216
O10	O	0.934883	0.214474	-0.153711
O11	O	1.268216	0.547807	0.179623
O12	O	1.601550	0.881140	0.512956
O13	O	0.939997	-0.007524	0.006782
O14	O	1.273330	0.325810	0.340116
O15	O	1.606664	0.659143	0.673449
O16	O	0.818492	0.113687	0.006244
O17	O	1.151825	0.447020	0.339578
O18	O	1.485158	0.780353	0.672911
O19	O	1.049440	0.100166	-0.008939
O20	O	1.382773	0.433499	0.324394
O21	O	1.716107	0.766833	0.657728
Cu22	Cu	0.933331	0.107557	0.011822
Cu23	Cu	1.266665	0.440890	0.345156
Cu24	Cu	1.599998	0.774223	0.678489
Cu25	Cu	0.941548	0.099393	-0.158751
Cu26	Cu	1.274882	0.432726	0.174583
Cu27	Cu	1.608215	0.766060	0.507916
O28	O	0.927935	0.221377	-0.009477
O29	O	1.261268	0.554710	0.323856
O30	O	1.594601	0.888043	0.657190
C31	C	0.792407	0.109847	-0.063771
C32	C	1.125740	0.443180	0.269562
C33	C	1.459074	0.776514	0.602896
C34	C	0.704332	0.108681	-0.057508
C35	C	1.037665	0.442015	0.275825
C36	C	1.370999	0.775348	0.609158
C37	C	0.666734	0.104373	-0.133182
C38	C	1.000067	0.437706	0.200152
C39	C	1.333401	0.771040	0.533485
C40	C	0.583976	0.103291	-0.127285
C41	C	0.917309	0.436624	0.206048
C42	C	1.250642	0.769958	0.539381
C43	C	0.538818	0.106511	-0.045715
C44	C	0.872151	0.439845	0.287619
C45	C	1.205484	0.773178	0.620952
C46	C	0.576421	0.110822	0.029964
C47	C	0.909754	0.444156	0.363297
C48	C	1.243088	0.777489	0.696631
C49	C	0.659177	0.111910	0.024067
C50	C	0.992510	0.445244	0.357400
C51	C	1.325844	0.778577	0.690733
C52	C	0.290907	0.103667	-0.019646
C53	C	0.624241	0.437000	0.313687
C54	C	0.957574	0.770334	0.647020
C55	C	0.208146	0.102576	-0.013754
C56	C	0.541480	0.435910	0.319579
C57	C	0.874813	0.769243	0.652912
C58	C	0.215707	0.095046	-0.171005
C59	C	0.549040	0.428380	0.162329
C60	C	0.882373	0.761713	0.495662
C61	C	0.298464	0.096130	-0.176895
C62	C	0.631798	0.429463	0.156439
C63	C	0.965131	0.762796	0.489772
C64	C	0.336060	0.100445	-0.101216
C65	C	0.669393	0.433778	0.232117
C66	C	1.002727	0.767112	0.565451
N67	N	0.454226	0.105403	-0.039686
N68	N	0.787559	0.438736	0.293648
N69	N	1.120892	0.772069	0.626981
N70	N	0.420650	0.101559	-0.107246
N71	N	0.753983	0.434892	0.226087
N72	N	1.087316	0.768226	0.559420
C73	C	0.942877	-0.040257	-0.063106
C74	C	1.276210	0.293076	0.270227
C75	C	1.609543	0.626409	0.603560
C76	C	0.941096	-0.127508	-0.056467
C77	C	1.274430	0.205825	0.276866
C78	C	1.607763	0.539158	0.610200
C79	C	0.944049	-0.172257	-0.131969
C80	C	1.277382	0.161076	0.201364
C81	C	1.610716	0.494409	0.534698
C82	C	0.942371	-0.254238	-0.125727
C83	C	1.275704	0.079095	0.207606
C84	C	1.609038	0.412429	0.540939
C85	C	0.937746	-0.291469	-0.043983
C86	C	1.271079	0.041864	0.289350
C87	C	1.604412	0.375198	0.622683
C88	C	0.934790	-0.246714	0.031524
C89	C	1.268124	0.086620	0.364858
C90	C	1.601457	0.419953	0.698191
C91	C	0.936463	-0.164734	0.025282
C92	C	1.269796	0.168600	0.358616
C93	C	1.603129	0.501933	0.691949
C94	C	0.932501	-0.538807	-0.021203
C95	C	1.265834	-0.205474	0.312130
C96	C	1.599168	0.127860	0.645464
C97	C	0.930831	-0.620793	-0.014967
C98	C	1.264164	-0.287460	0.318366
C99	C	1.597498	0.045873	0.651700
C100	C	0.938410	-0.628312	-0.172219
C101	C	1.271744	-0.294978	0.161114
C102	C	1.605077	0.038355	0.494447
C103	C	0.940087	-0.546331	-0.178454
C104	C	1.273421	-0.212997	0.154879
C105	C	1.606754	0.120336	0.488212
C106	C	0.937128	-0.501582	-0.102946
C107	C	1.270461	-0.168248	0.230387
C108	C	1.603794	0.165085	0.563720
C109	C	0.936033	-0.375267	-0.037602
C110	C	1.269366	-0.041933	0.295731
C111	C	1.602699	0.291400	0.629065
C112	C	0.938835	-0.417785	-0.109328
C113	C	1.272168	-0.084451	0.224005
C114	C	1.605502	0.248882	0.557338
C115	C	1.082473	0.097103	-0.083159
C116	C	1.415806	0.430436	0.250174
C117	C	1.749139	0.763769	0.583507
C118	C	1.170548	0.098268	-0.089428
C119	C	1.503882	0.431601	0.243906
C120	C	1.837215	0.764935	0.577239
C121	C	0.932003	0.247207	-0.083824
C122	C	1.265336	0.580540	0.249510
C123	C	1.598670	0.913874	0.582843
C124	C	0.933784	0.334458	-0.090469
C125	C	1.267117	0.667791	0.242864
C126	C	1.600451	1.001124	0.576198
N127	N	0.927558	0.113298	0.131794
N128	N	1.260891	0.446631	0.465127
N129	N	1.594224	0.779965	0.798460
N130	N	0.947328	0.093646	-0.278722
N131	N	1.280662	0.426979	0.054611
N132	N	1.613995	0.760312	0.387945
C133	C	0.979195	0.061822	0.177414
C134	C	1.312529	0.395156	0.510747
C135	C	1.645862	0.728489	0.844080
C136	C	0.974836	0.066171	0.268202
C137	C	1.308170	0.399505	0.601536
C138	C	1.641503	0.732838	0.934869
C139	C	0.918843	0.122000	0.313368
C140	C	1.252176	0.455334	0.646702
C141	C	1.585509	0.788667	0.980035
C142	C	0.867199	0.173478	0.267742
C143	C	1.200533	0.506812	0.601076
C144	C	1.533866	0.840145	0.934409
C145	C	0.871555	0.169125	0.176956
C146	C	1.204889	0.502458	0.510289
C147	C	1.538222	0.835792	0.843623
C148	C	0.900041	0.140770	0.584866
C149	C	1.233374	0.474104	0.918199
C150	C	1.566708	0.807437	1.251532
C151	C	0.895691	0.145121	0.675658
C152	C	1.229024	0.478455	1.008991
C153	C	1.562357	0.811788	1.342325
C154	C	1.003327	0.037813	0.676112
C155	C	1.336660	0.371146	1.009445
C156	C	1.669994	0.704479	1.342779
C157	C	1.007681	0.033467	0.585323
C158	C	1.341015	0.366801	0.918657
C159	C	1.674348	0.700134	1.251990
C160	C	0.956035	0.084943	0.539705
C161	C	1.289369	0.418276	0.873039
C162	C	1.622702	0.751609	1.206372
N163	N	0.914387	0.126449	0.406169
N164	N	1.247721	0.459782	0.739502
N165	N	1.581054	0.793116	1.072835
N166	N	0.960487	0.080490	0.446907
N167	N	1.293821	0.413823	0.780241
N168	N	1.627154	0.747157	1.113574
H169	H	0.947820	-0.141951	-0.198534
H170	H	1.281153	0.191383	0.134799
H171	H	1.614486	0.524716	0.468133
Br172	Br	0.801467	0.238983	0.115044
Br173	Br	1.134800	0.572316	0.448377
Br174	Br	1.468134	0.905650	0.781710
H175	H	0.930107	-0.502384	0.040280
H176	H	1.263440	-0.169051	0.373613
H177	H	1.596773	0.164282	0.706947
H178	H	1.016883	0.024255	0.305346
H179	H	1.350217	0.357589	0.638679
H180	H	1.683550	0.690922	0.972012
H181	H	0.553367	0.099783	-0.188907
H182	H	0.886701	0.433116	0.144427
H183	H	1.220034	0.766449	0.477760
Br184	Br	0.829954	0.210629	0.522960
Br185	Br	1.163287	0.543962	0.856294
Br186	Br	1.496620	0.877295	1.189627
Br187	Br	0.791200	0.249243	0.329037
Br188	Br	1.124534	0.582576	0.662370
Br189	Br	1.457867	0.915909	0.995703
H190	H	0.931019	-0.277033	0.098082
H191	H	1.264353	0.056300	0.431416
H192	H	1.597686	0.389634	0.764749
Br193	Br	0.932451	-0.104001	0.127754
Br194	Br	1.265784	0.229332	0.461087
Br195	Br	1.599117	0.562666	0.794420
H196	H	0.185087	0.091535	-0.232618
H197	H	0.518420	0.424868	0.100716
H198	H	0.851754	0.758202	0.434049
Br199	Br	0.728013	0.099994	-0.243890
Br200	Br	1.061346	0.433327	0.089444
Br201	Br	1.394680	0.766660	0.422777
H202	H	0.171377	0.105221	0.052672
H203	H	0.504711	0.438555	0.386006
H204	H	0.838044	0.771888	0.719339
H205	H	0.321508	0.107175	0.041977
H206	H	0.654842	0.440509	0.375310
H207	H	0.988175	0.773842	0.708644
H208	H	0.942595	-0.387467	-0.175884
H209	H	1.275929	-0.054134	0.157450
H210	H	1.609262	0.279200	0.490783
Br211	Br	0.515135	0.115203	0.140668
Br212	Br	0.848468	0.448536	0.474002
Br213	Br	1.181801	0.781869	0.807335
H214	H	0.940818	-0.664755	-0.233693
H215	H	1.274152	-0.331421	0.099640
H216	H	1.607485	0.001912	0.432973
H217	H	0.689787	0.115422	0.085688
H218	H	1.023121	0.448755	0.419021
H219	H	1.356454	0.782088	0.752354
Br220	Br	0.924562	-0.671322	0.095978
Br221	Br	1.257895	-0.337989	0.429312
Br222	Br	1.591228	-0.004655	0.762645
H223	H	0.335228	0.093502	-0.243318
H224	H	0.668561	0.426835	0.090016
H225	H	1.001894	0.760168	0.423349
Br226	Br	0.929748	-0.425800	0.073334
Br227	Br	1.263081	-0.092467	0.406668
Br228	Br	1.596415	0.240866	0.740001
Br229	Br	1.055197	-0.013944	0.116125
Br230	Br	1.388530	0.319389	0.449459
Br231	Br	1.721863	0.652722	0.782792
H232	H	1.045374	-0.004097	0.713262
H233	H	1.378707	0.329237	1.046596
H234	H	1.712041	0.662570	1.379929
H235	H	1.053276	-0.011993	0.548551
H236	H	1.386609	0.321340	0.881884
H237	H	1.719942	0.654674	1.215217
Br238	Br	0.946377	-0.314966	-0.228199
Br239	Br	1.279711	0.018367	0.105134
Br240	Br	1.613044	0.351700	0.438467
Br241	Br	0.946370	-0.495809	-0.289397
Br242	Br	1.279704	-0.162476	0.043936
Br243	Br	1.613037	0.170858	0.377270
Br244	Br	0.819696	0.220900	0.736949
Br245	Br	1.153029	0.554233	1.070283
Br246	Br	1.486362	0.887566	1.403616
