data_functionalizedCrystal
_audit_creation_method	'MofGen! by Chris Wilmer'
_symmetry_space_group_name_H-M	'P1'
_symmetry_Int_Tables_number	1
_symmetry_cell_setting	triclinic
loop_
_symmetry_equiv_pos_as_xyz
  x,y,z
_cell_length_a	11.169417
_cell_length_b	21.295418
_cell_length_c	11.169409
_cell_angle_alpha	90.039711
_cell_angle_beta	90.019824
_cell_angle_gamma	90.028279
loop_
_atom_site_label
_atom_site_type_symbol
_atom_site_fract_x
_atom_site_fract_y
_atom_site_fract_z
Zn1	Zn	1.834820	-0.250543	0.678481
Zn2	Zn	1.834650	-0.355832	0.477772
Zn3	Zn	1.634106	-0.250582	0.477816
Zn4	Zn	1.634054	-0.355780	0.678417
O5	O	1.734407	-0.303184	0.578122
O6	O	2.002747	-0.264516	0.651865
O7	O	1.807998	-0.341908	0.309828
O8	O	1.660824	-0.162487	0.504479
O9	O	2.002622	-0.341870	0.504405
O10	O	1.808288	-0.162459	0.651907
O11	O	1.660659	-0.264581	0.309860
O12	O	1.466149	-0.264531	0.504417
O13	O	1.660735	-0.341783	0.846375
O14	O	1.466111	-0.341820	0.651798
O15	O	1.808237	-0.264466	0.846423
O16	O	1.807947	-0.443914	0.504343
O17	O	1.660570	-0.443877	0.651756
C18	C	1.422583	-0.303175	0.578106
C19	C	1.289183	-0.303186	0.578128
C20	C	1.734267	-0.466736	0.578064
C21	C	1.734317	-0.536704	0.578080
C22	C	1.811435	-1.036161	0.501557
C23	C	1.811389	-0.970418	0.501529
C24	C	1.734576	-0.937543	0.578206
C25	C	1.657782	-0.970417	0.654895
C26	C	1.657821	-1.036158	0.654912
N27	N	1.725253	-0.834282	0.683226
N28	N	1.725222	-0.771830	0.683206
C29	C	1.734451	-0.739469	0.578155
N30	N	1.743735	-0.771918	0.473123
N31	N	1.743772	-0.834375	0.473144
C32	C	1.734525	-0.866258	0.578194
C33	C	1.811186	-0.635318	0.501434
C34	C	1.811131	-0.569574	0.501404
C35	C	1.657531	-0.569574	0.654780
C36	C	1.657578	-0.635316	0.654800
C37	C	1.734412	-0.668184	0.578129
C38	C	2.047450	-0.303194	0.578138
C39	C	2.180850	-0.303199	0.578145
C40	C	1.734500	-0.303114	0.891164
C41	C	1.734539	-0.303085	1.024564
C42	C	1.734581	-0.138994	0.578205
C43	C	1.734655	-0.069026	0.578241
C44	C	1.734385	-0.303209	0.266297
C45	C	1.734578	-0.303061	0.132897
H46	H	1.873995	-1.062918	0.439121
H47	H	1.873914	-0.943654	0.439081
H48	H	1.595238	-0.943647	0.717324
H49	H	1.594983	-0.542808	0.717207
H50	H	1.595298	-1.062917	0.717362
H51	H	1.595059	-0.662076	0.717248
O52	O	1.885846	-0.667153	0.426837
C53	C	1.953619	-0.624044	0.359157
H54	H	1.904431	-0.577205	0.354942
H55	H	2.044742	-0.616992	0.403185
C56	C	2.031416	-0.707281	0.236624
C57	C	1.970998	-0.649754	0.231438
H58	H	2.042142	-0.723140	0.157842
H59	H	1.985760	-0.736325	0.282223
H60	H	2.107346	-0.701396	0.273319
H61	H	1.895064	-0.655641	0.194757
H62	H	2.016641	-0.620711	0.185829
O63	O	1.885547	-0.537620	0.426778
C64	C	1.817244	-0.499647	0.349198
H65	H	1.722736	-0.519504	0.341697
H66	H	1.813053	-0.449807	0.386282
C67	C	1.992036	-0.474282	0.233701
C68	C	1.875962	-0.498673	0.224481
H69	H	2.028257	-0.473678	0.156771
H70	H	2.038054	-0.499863	0.285971
H71	H	1.988527	-0.432751	0.264609
H72	H	1.879473	-0.540206	0.193588
H73	H	1.829945	-0.473099	0.172203
