data_functionalizedCrystal
_audit_creation_method	'MofGen! by Chris Wilmer'
_symmetry_space_group_name_H-M	'P1'
_symmetry_Int_Tables_number	1
_symmetry_cell_setting	triclinic
loop_
_symmetry_equiv_pos_as_xyz
  x,y,z
_cell_length_a	6.817900
_cell_length_b	9.514072
_cell_length_c	14.125465
_cell_angle_alpha	92.613576
_cell_angle_beta	100.398878
_cell_angle_gamma	118.843421
loop_
_atom_site_label
_atom_site_type_symbol
_atom_site_fract_x
_atom_site_fract_y
_atom_site_fract_z
V1	V	-4.075413	-0.220821	-0.300725
O2	O	-3.974926	0.012031	-0.294225
O3	O	-4.110342	-0.439217	-0.299415
O4	O	-4.010024	-0.216802	-0.431542
O5	O	-4.075938	-0.211924	-0.161183
V6	V	-4.550445	-0.193043	-0.283944
O7	O	-4.355298	-0.281755	-0.337536
O8	O	-4.720758	-0.132109	-0.247134
O9	O	-4.292310	0.025352	-0.285255
O10	O	-4.768328	-0.425895	-0.290445
O11	O	-4.667317	-0.201940	-0.423487
O12	O	-4.392627	-0.197063	-0.153128
C13	C	-3.976164	-0.492476	-0.294863
C14	C	-4.085896	-0.671014	-0.294663
C15	C	-3.848197	-0.208762	-0.463403
C16	C	-3.876570	-0.206920	-0.570351
C17	C	-3.928574	-0.203544	-0.766163
C18	C	-4.116651	-0.210317	-0.818507
C19	C	-4.145589	-0.208438	-0.927463
C20	C	-3.899628	-0.205422	-0.657197
C21	C	-4.089833	0.078604	-0.289804
C22	C	-3.959339	0.257139	-0.290010
C23	C	-4.217799	-0.205108	-0.121262
C24	C	-4.168662	-0.206941	-0.014313
H25	H	-4.278223	-0.746105	-0.298528
C26	C	-4.239214	-0.220100	-0.668719
C27	C	-4.304711	-0.220082	-0.768548
H28	H	-4.355322	-0.226147	-0.637877
H29	H	-4.098505	-0.123047	-0.641171
H30	H	-4.219434	-0.311140	-0.659407
H31	H	-4.324474	-0.129036	-0.777860
H32	H	-4.445460	-0.317147	-0.796105
C33	C	-3.806095	-0.193841	-0.915958
C34	C	-3.740564	-0.193832	-0.816127
H35	H	-3.690038	-0.187860	-0.946811
H36	H	-3.825818	-0.102793	-0.925277
H37	H	-3.946859	-0.290892	-0.943490
H38	H	-3.599808	-0.096775	-0.788592
H39	H	-3.720813	-0.284887	-0.806801
C40	C	-3.593109	-0.523369	-0.201403
C41	C	-3.699712	-0.641506	-0.284778
H42	H	-3.432824	-0.460785	-0.198177
H43	H	-3.616368	-0.574801	-0.145145
H44	H	-3.657820	-0.454383	-0.204351
H45	H	-3.635013	-0.710499	-0.281826
H46	H	-3.676437	-0.590071	-0.341049
