data_functionalizedCrystal
_audit_creation_method	'MofGen! by Chris Wilmer'
_symmetry_space_group_name_H-M	'P1'
_symmetry_Int_Tables_number	1
_symmetry_cell_setting	triclinic
loop_
_symmetry_equiv_pos_as_xyz
  x,y,z
_cell_length_a	18.215407
_cell_length_b	18.050589
_cell_length_c	18.215399
_cell_angle_alpha	89.976397
_cell_angle_beta	89.980167
_cell_angle_gamma	90.028669
loop_
_atom_site_label
_atom_site_type_symbol
_atom_site_fract_x
_atom_site_fract_y
_atom_site_fract_z
Zn1	Zn	1.125055	-0.295658	-0.416138
Zn2	Zn	1.625055	0.204342	0.083862
Zn3	Zn	1.124956	-0.419853	-0.293081
Zn4	Zn	1.624956	0.080147	0.206919
Zn5	Zn	1.001987	-0.295682	-0.293085
Zn6	Zn	1.501987	0.204318	0.206915
Zn7	Zn	1.001946	-0.419812	-0.416106
Zn8	Zn	1.501946	0.080188	0.083894
O9	O	1.063486	-0.357751	-0.354603
O10	O	1.563486	0.142249	0.145397
O11	O	1.228026	-0.312140	-0.399826
O12	O	1.728026	0.187860	0.100174
O13	O	1.108620	-0.403409	-0.190097
O14	O	1.608620	0.096591	0.309903
O15	O	1.018371	-0.191755	-0.309424
O16	O	1.518371	0.308245	0.190576
O17	O	1.227953	-0.403386	-0.309417
O18	O	1.727953	0.096614	0.190583
O19	O	1.108788	-0.191737	-0.399830
O20	O	1.608788	0.308263	0.100170
O21	O	1.018275	-0.312181	-0.190101
O22	O	1.518275	0.187819	0.309899
O23	O	0.898998	-0.312141	-0.309393
O24	O	1.398998	0.187859	0.190607
O25	O	1.018301	-0.403315	-0.519095
O26	O	1.518301	0.096685	-0.019095
O27	O	0.898967	-0.403339	-0.399775
O28	O	1.398967	0.096661	0.100225
O29	O	1.108748	-0.312100	-0.519118
O30	O	1.608748	0.187900	-0.019118
O31	O	1.108580	-0.523772	-0.309385
O32	O	1.608580	-0.023772	0.190615
O33	O	1.018205	-0.523742	-0.399771
O34	O	1.518205	-0.023742	0.100229
C35	C	0.872280	-0.357739	-0.354582
C36	C	1.372280	0.142261	0.145418
C37	C	0.790481	-0.357751	-0.354590
C38	C	1.290481	0.142249	0.145410
C39	C	0.602291	-0.405312	-0.401593
C40	C	1.102291	0.094688	0.098407
C41	C	0.525432	-0.405315	-0.401602
C42	C	1.025432	0.094685	0.098398
C43	C	0.525434	-0.310204	-0.307628
C44	C	1.025434	0.189796	0.192372
C45	C	0.602291	-0.310199	-0.307623
C46	C	1.102291	0.189801	0.192377
C47	C	0.640718	-0.357757	-0.354605
C48	C	1.140718	0.142243	0.145395
C49	C	0.487001	-0.357765	-0.354619
C50	C	0.987001	0.142235	0.145381
C51	C	0.403668	-0.357767	-0.354628
C52	C	0.903668	0.142233	0.145372
C53	C	0.724056	-0.357754	-0.354596
C54	C	1.224056	0.142246	0.145404
C55	C	1.063397	-0.550704	-0.354590
C56	C	1.563397	-0.050704	0.145410
C57	C	1.063427	-0.633249	-0.354610
C58	C	1.563427	-0.133249	0.145390
C59	C	1.014329	-0.832710	-0.403744
C60	C	1.514329	-0.332710	0.096256
C61	C	0.996389	-0.882151	-0.336590
C62	C	1.496389	-0.382151	0.163410
C63	C	1.063499	-0.784380	-0.354619
C64	C	1.563499	-0.284380	0.145381
C65	C	1.081475	-0.882021	-0.421781
C66	C	1.581475	-0.382021	0.078219
C67	C	1.063567	-0.930365	-0.354635
C68	C	1.563567	-0.430365	0.145365
C69	C	1.045524	-0.832733	-0.287430
C70	C	1.545524	-0.332733	0.212570
C71	C	1.130641	-0.832599	-0.372666
C72	C	1.630641	-0.332599	0.127334
C73	C	1.112726	-0.882017	-0.305466
C74	C	1.612726	-0.382017	0.194534
C75	C	1.063458	-0.700281	-0.354612
C76	C	1.563458	-0.200281	0.145388
C77	C	1.063609	-1.014461	-0.354635
C78	C	1.563609	-0.514461	0.145365
C79	C	1.255439	-0.357765	-0.354624
C80	C	1.755439	0.142235	0.145376
C81	C	1.337238	-0.357770	-0.354634
C82	C	1.837238	0.142230	0.145366
C83	C	1.063531	-0.357700	-0.546556
C84	C	1.563531	0.142300	-0.046556
C85	C	1.063550	-0.357678	-0.628355
C86	C	1.563550	0.142322	-0.128355
C87	C	1.063595	-0.164046	-0.354631
C88	C	1.563595	0.335954	0.145369
C89	C	1.063642	-0.081500	-0.354643
C90	C	1.563642	0.418500	0.145357
C91	C	1.110663	-0.310138	-0.816562
C92	C	1.610663	0.189862	-0.316562
C93	C	1.110672	-0.310117	-0.893421
C94	C	1.610672	0.189883	-0.393421
C95	C	1.016489	-0.405104	-0.893385
C96	C	1.516489	0.094896	-0.393385
C97	C	1.016477	-0.405121	-0.816528
C98	C	1.516477	0.094879	-0.316528
C99	C	1.063568	-0.357639	-0.778118
C100	C	1.563568	0.142361	-0.278118
C101	C	1.063589	-0.357600	-0.931834
C102	C	1.563589	0.142400	-0.431834
C103	C	1.063598	-0.357577	-1.015168
C104	C	1.563598	0.142423	-0.515168
C105	C	1.063558	-0.357661	-0.694779
C106	C	1.563558	0.142339	-0.194779
C107	C	1.063484	-0.357749	-0.163396
C108	C	1.563484	0.142251	0.336604
C109	C	1.063607	-0.357561	-0.081598
C110	C	1.563607	0.142439	0.418402
H111	H	0.494138	-0.271485	-0.269377
H112	H	0.994138	0.228515	0.230623
C113	C	1.168939	-0.911089	-0.249295
C114	C	1.668939	-0.411089	0.250705
H115	H	1.204918	-0.940012	-0.273856
H116	H	1.704918	-0.440012	0.226144
H117	H	1.144532	-0.940765	-0.213781
H118	H	1.644532	-0.440765	0.286219
H119	H	1.192054	-0.870420	-0.225603
H120	H	1.692054	-0.370420	0.274397
H121	H	0.633575	-0.444035	-0.439850
H122	H	1.133575	0.055965	0.060150
H123	H	0.633579	-0.271469	-0.269360
H124	H	1.133579	0.228531	0.230640
H125	H	1.096652	-0.903671	-0.478573
H126	H	1.596652	-0.403671	0.021427
H127	H	0.978151	-0.443763	-0.924667
H128	H	1.478151	0.056237	-0.424667
C129	C	1.162451	-0.257902	-0.774314
C130	C	1.662451	0.242098	-0.274314
H131	H	1.190494	-0.229603	-0.808220
H132	H	1.690494	0.270397	-0.308220
H133	H	1.194500	-0.286312	-0.744330
H134	H	1.694500	0.213688	-0.244330
H135	H	1.134303	-0.225548	-0.744336
H136	H	1.634303	0.274452	-0.244336
H137	H	0.972687	-0.811060	-0.445229
H138	H	1.472687	-0.311060	0.054771
H139	H	0.939642	-0.903933	-0.321340
H140	H	1.439642	-0.403933	0.178660
C141	C	0.964672	-0.457373	-0.774233
C142	C	1.464672	0.042627	-0.274233
H143	H	0.971404	-0.450576	-0.722959
H144	H	1.471404	0.049424	-0.222959
H145	H	0.975414	-0.507270	-0.786818
H146	H	1.475414	-0.007270	-0.286818
H147	H	0.915230	-0.446494	-0.786821
H148	H	1.415230	0.053506	-0.286821
C149	C	0.483165	-0.457624	-0.453291
C150	C	0.983165	0.042376	0.046709
H151	H	0.517061	-0.485947	-0.481266
H152	H	1.017061	0.014053	0.018734
H153	H	0.453211	-0.429256	-0.485406
H154	H	0.953211	0.070744	0.014594
H155	H	0.453156	-0.489952	-0.425087
H156	H	0.953156	0.010048	0.074913
C157	C	1.024925	-0.803612	-0.210689
C158	C	1.524925	-0.303612	0.289311
H159	H	1.024999	-0.750983	-0.211159
H160	H	1.524999	-0.250983	0.288841
H161	H	1.059655	-0.820888	-0.175769
H162	H	1.559655	-0.320888	0.324231
H163	H	0.977398	-0.820992	-0.197804
H164	H	1.477398	-0.320992	0.302196
C165	C	1.207296	-0.803198	-0.393296
C166	C	1.707296	-0.303198	0.106704
H167	H	1.219977	-0.820051	-0.441046
H168	H	1.719977	-0.320051	0.058954
H169	H	1.242353	-0.820832	-0.358882
H170	H	1.742353	-0.320832	0.141118
H171	H	1.206849	-0.750574	-0.392702
H172	H	1.706849	-0.250574	0.107298
H173	H	1.149020	-0.271435	-0.924718
H174	H	1.649020	0.228565	-0.424718
