data_functionalizedCrystal
_audit_creation_method	'MofGen! by Chris Wilmer'
_symmetry_space_group_name_H-M	'P1'
_symmetry_Int_Tables_number	1
_symmetry_cell_setting	triclinic
loop_
_symmetry_equiv_pos_as_xyz
  x,y,z
_cell_length_a	17.077404
_cell_length_b	15.297327
_cell_length_c	17.077396
_cell_angle_alpha	99.647268
_cell_angle_beta	89.981638
_cell_angle_gamma	99.704720
loop_
_atom_site_label
_atom_site_type_symbol
_atom_site_fract_x
_atom_site_fract_y
_atom_site_fract_z
Zn1	Zn	1.145945	-0.359212	-0.497880
Zn2	Zn	1.645945	0.140788	0.002120
Zn3	Zn	1.123125	-0.510086	-0.389320
Zn4	Zn	1.623125	-0.010086	0.110680
Zn5	Zn	1.014673	-0.359238	-0.366634
Zn6	Zn	1.514673	0.140762	0.133366
Zn7	Zn	0.991927	-0.510026	-0.520537
Zn8	Zn	1.491927	-0.010026	-0.020537
O9	O	1.068917	-0.434641	-0.443593
O10	O	1.568917	0.065359	0.056407
O11	O	1.252762	-0.379240	-0.483491
O12	O	1.752762	0.120760	0.016509
O13	O	1.108708	-0.490111	-0.276469
O14	O	1.608708	0.009889	0.223531
O15	O	1.051156	-0.232988	-0.365068
O16	O	1.551156	0.267012	0.134932
O17	O	1.235997	-0.490086	-0.403732
O18	O	1.735997	0.009914	0.096268
O19	O	1.147601	-0.232970	-0.461493
O20	O	1.647601	0.267030	0.038507
O21	O	1.029028	-0.379284	-0.259802
O22	O	1.529028	0.120716	0.240198
O23	O	0.901811	-0.379226	-0.387038
O24	O	1.401811	0.120774	0.112962
O25	O	1.012388	-0.489985	-0.627373
O26	O	1.512388	0.010015	-0.127373
O27	O	0.885099	-0.490010	-0.500110
O28	O	1.385099	0.009990	-0.000110
O29	O	1.125545	-0.379183	-0.610727
O30	O	1.625545	0.120817	-0.110727
O31	O	1.086652	-0.636324	-0.425702
O32	O	1.586652	-0.136324	0.074298
O33	O	0.990261	-0.636281	-0.522107
O34	O	1.490261	-0.136281	-0.022107
C35	C	0.864973	-0.434615	-0.443571
C36	C	1.364973	0.065385	0.056429
C37	C	0.777722	-0.434626	-0.443584
C38	C	1.277722	0.065374	0.056416
C39	C	0.745447	-0.377011	-0.485206
C40	C	1.245447	0.122989	0.014794
C41	C	0.663466	-0.377017	-0.485211
C42	C	1.163466	0.122983	0.014789
C43	C	0.613760	-0.434643	-0.443597
C44	C	1.113760	0.065357	0.056403
C45	C	0.646040	-0.492260	-0.401970
C46	C	1.146040	0.007740	0.098030
C47	C	0.728021	-0.492249	-0.401961
C48	C	1.228021	0.007751	0.098039
C49	C	0.475167	-0.492281	-0.401992
C50	C	0.975167	0.007719	0.098008
C51	C	0.393181	-0.492293	-0.402002
C52	C	0.893181	0.007707	0.097998
C53	C	0.410612	-0.377048	-0.485242
C54	C	0.910612	0.122952	0.014758
C55	C	0.492592	-0.377037	-0.485233
C56	C	0.992592	0.122963	0.014767
C57	C	0.524867	-0.434656	-0.443607
C58	C	1.024867	0.065344	0.056393
C59	C	1.033533	-0.669037	-0.478842
C60	C	1.533533	-0.169037	0.021158
C61	C	1.018468	-0.769312	-0.493948
C62	C	1.518468	-0.269312	0.006052
C63	C	1.176917	-1.051938	-0.335895
C64	C	1.676917	-0.551938	0.164105
C65	C	1.191071	-0.957724	-0.321698
C66	C	1.691071	-0.457724	0.178302
C67	C	1.147922	-0.910617	-0.364759
C68	C	1.647922	-0.410617	0.135241
C69	C	1.090615	-0.957732	-0.422020
C70	C	1.590615	-0.457732	0.077980
C71	C	1.076455	-1.051955	-0.436214
C72	C	1.576455	-0.551955	0.063786
C73	C	1.047460	-0.910634	-0.465079
C74	C	1.547460	-0.410634	0.034921
C75	C	0.990153	-0.957749	-0.522339
C76	C	1.490153	-0.457749	-0.022339
C77	C	0.975996	-1.051963	-0.536531
C78	C	1.475996	-0.551963	-0.036531
C79	C	1.019145	-1.099071	-0.493470
C80	C	1.519145	-0.599071	0.006530
C81	C	1.061620	-0.816411	-0.450885
C82	C	1.561620	-0.316411	0.049115
C83	C	0.961158	-0.816428	-0.551204
C84	C	1.461158	-0.316428	-0.051204
C85	C	0.947004	-0.910642	-0.565401
C86	C	1.447004	-0.410642	-0.065401
C87	C	1.273658	-0.434667	-0.443615
C88	C	1.773658	0.065333	0.056385
C89	C	1.360906	-0.434678	-0.443624
C90	C	1.860906	0.065322	0.056376
C91	C	1.068975	-0.434574	-0.648327
C92	C	1.568975	0.065426	-0.148327
C93	C	1.068999	-0.434546	-0.735573
C94	C	1.568999	0.065454	-0.235573
C95	C	1.104461	-0.199329	-0.408223
C96	C	1.604461	0.300671	0.091777
C97	C	1.119607	-0.099054	-0.393150
C98	C	1.619607	0.400946	0.106850
C99	C	1.127922	-0.376846	-0.767896
C100	C	1.627922	0.123154	-0.267896
C101	C	1.127936	-0.376816	-0.849872
C102	C	1.627936	0.123184	-0.349872
C103	C	1.069030	-0.434491	-0.899524
C104	C	1.569030	0.065509	-0.399524
C105	C	1.010101	-0.492193	-0.867196
C106	C	1.510101	0.007807	-0.367196
C107	C	1.010084	-0.492218	-0.785220
C108	C	1.510084	0.007782	-0.285220
C109	C	1.010141	-0.492139	-1.038058
C110	C	1.510141	0.007861	-0.538058
C111	C	1.010158	-0.492116	-1.120039
C112	C	1.510158	0.007884	-0.620039
C113	C	1.127993	-0.376737	-1.102709
C114	C	1.627993	0.123263	-0.602709
C115	C	1.127976	-0.376762	-1.020734
C116	C	1.627976	0.123238	-0.520734
C117	C	1.069048	-0.434466	-0.988411
C118	C	1.569048	0.065534	-0.488411
C119	C	1.068915	-0.434642	-0.239645
C120	C	1.568915	0.065358	0.260355
C121	C	1.069081	-0.434416	-0.152362
C122	C	1.569081	0.065584	0.347638
H123	H	0.754298	-0.539165	-0.368067
H124	H	1.254298	-0.039165	0.131933
H125	H	0.785912	-0.330088	-0.519095
H126	H	1.285912	0.169912	-0.019095
H127	H	1.175919	-0.329834	-0.876185
H128	H	1.675919	0.170166	-0.376185
H129	H	1.108280	-0.778058	-0.404262
H130	H	1.608280	-0.278058	0.095738
Br131	Br	0.930163	-0.570448	-0.994191
Br132	Br	1.430163	-0.070448	-0.494191
H133	H	0.962190	-0.539077	-1.160464
H134	H	1.462190	-0.039077	-0.660464
H135	H	0.605564	-0.539176	-0.368083
H136	H	1.105564	-0.039176	0.131917
H137	H	0.926021	-0.778073	-0.586267
H138	H	1.426021	-0.278073	-0.086267
H139	H	1.159449	-0.833903	-0.353196
H140	H	1.659449	-0.333903	0.146804
Br141	Br	0.619667	-0.298822	-0.541701
Br142	Br	1.119667	0.201178	-0.041701
Br143	Br	1.268848	-0.893788	-0.243997
Br144	Br	1.768848	-0.393788	0.256003
Br145	Br	0.930110	-0.570522	-0.741352
Br146	Br	1.430110	-0.070522	-0.241352
H147	H	1.175973	-0.329751	-1.129029
H148	H	1.675973	0.170249	-0.629029
Br149	Br	1.235466	-1.115873	-0.277457
Br150	Br	1.735466	-0.615873	0.222543
Br151	Br	0.366812	-0.298851	-0.541735
Br152	Br	0.866812	0.201149	-0.041735
H153	H	1.175893	-0.329884	-0.727474
H154	H	1.675893	0.170116	-0.227474
Br155	Br	0.898217	-1.115905	-0.614237
Br156	Br	1.398217	-0.615905	-0.114237
Br157	Br	0.560049	-0.298840	-0.541720
Br158	Br	1.060049	0.201160	-0.041720
H159	H	1.007626	-1.175788	-0.505028
H160	H	1.507626	-0.675788	-0.005028
Br161	Br	0.930151	-0.570462	-0.934579
Br162	Br	1.430151	-0.070462	-0.434579
H163	H	0.352712	-0.539218	-0.368117
H164	H	0.852712	-0.039218	0.131883
Br165	Br	0.869234	-0.974595	-0.643111
Br166	Br	1.369234	-0.474595	-0.143111
H167	H	1.175947	-0.329803	-0.980309
H168	H	1.675947	0.170197	-0.480309
H169	H	0.501442	-0.539198	-0.368093
H170	H	1.001442	-0.039198	0.131907
