data_functionalizedCrystal
_audit_creation_method	'MofGen! by Chris Wilmer'
_symmetry_space_group_name_H-M	'P1'
_symmetry_Int_Tables_number	1
_symmetry_cell_setting	triclinic
loop_
_symmetry_equiv_pos_as_xyz
  x,y,z
_cell_length_a	18.050591
_cell_length_b	18.050589
_cell_length_c	12.645323
_cell_angle_alpha	90.025443
_cell_angle_beta	90.028496
_cell_angle_gamma	90.024227
loop_
_atom_site_label
_atom_site_type_symbol
_atom_site_fract_x
_atom_site_fract_y
_atom_site_fract_z
Zn1	Zn	1.135348	-0.295733	0.599607
Zn2	Zn	1.135242	-0.419932	0.422345
Zn3	Zn	1.011151	-0.295751	0.422333
Zn4	Zn	1.011115	-0.419877	0.599542
O5	O	1.073214	-0.357823	0.510957
O6	O	1.239259	-0.312223	0.576124
O7	O	1.118752	-0.403490	0.273996
O8	O	1.027685	-0.191824	0.445871
O9	O	1.239181	-0.403472	0.445891
O10	O	1.118932	-0.191811	0.576113
O11	O	1.027583	-0.312255	0.273987
O12	O	0.907222	-0.312202	0.445808
O13	O	1.027624	-0.403378	0.747898
O14	O	0.907195	-0.403396	0.576003
O15	O	1.118898	-0.312170	0.747945
O16	O	1.118717	-0.523849	0.445829
O17	O	1.027522	-0.523809	0.576015
C18	C	0.880262	-0.357795	0.510898
C19	C	0.797716	-0.357801	0.510898
C20	C	0.598258	-0.308152	0.440261
C21	C	0.548836	-0.375891	0.414180
C22	C	0.646586	-0.357824	0.510946
C23	C	0.548926	-0.290109	0.537024
C24	C	0.500601	-0.357840	0.510990
C25	C	0.598251	-0.425598	0.484815
C26	C	0.598345	-0.339771	0.607704
C27	C	0.548946	-0.407556	0.581659
C28	C	0.730684	-0.357814	0.510918
C29	C	0.416504	-0.357858	0.511019
C30	C	1.073124	-0.550775	0.510939
C31	C	1.073154	-0.633321	0.510967
C32	C	1.023611	-0.832777	0.581738
C33	C	1.005504	-0.882218	0.485000
C34	C	1.073227	-0.784451	0.510981
C35	C	1.091370	-0.882092	0.607729
C36	C	1.073296	-0.930436	0.511003
C37	C	1.055085	-0.832805	0.414192
C38	C	1.140983	-0.832675	0.536987
C39	C	1.122902	-0.882094	0.440183
C40	C	1.073185	-0.700353	0.510970
C41	C	1.073338	-1.014533	0.511003
C42	C	1.266920	-0.357851	0.511016
C43	C	1.349465	-0.357863	0.511041
C44	C	1.073269	-0.357766	0.787462
C45	C	1.073292	-0.357741	0.905292
C46	C	1.073324	-0.164117	0.510998
C47	C	1.073371	-0.081572	0.511015
C48	C	1.073202	-0.357827	0.235527
C49	C	1.073323	-0.357642	0.117697
C50	C	1.015695	-0.414850	1.072827
C51	C	1.015846	-0.415133	0.950267
C52	C	1.151539	-0.378986	0.949823
C53	C	1.151223	-0.379344	1.072421
C54	C	1.053382	-0.279068	1.072488
C55	C	1.051636	-0.279539	0.949882
H56	H	0.527091	-0.391172	0.332373
N57	N	1.212800	-0.805350	0.564634
N58	N	1.220622	-0.764797	0.644013
H59	H	1.271343	-0.745497	0.663553
H60	H	0.527430	-0.449617	0.641454
N61	N	0.970893	-0.805616	0.656693
N62	N	0.903840	-0.821528	0.646853
H63	H	0.866606	-0.802345	0.699785
N64	N	1.032040	-0.487477	1.111456
N65	N	0.992419	-0.541136	1.084767
H66	H	1.003966	-0.592430	1.112045
H67	H	0.620109	-0.324469	0.689486
N68	N	1.035772	-0.805778	0.311530
N69	N	1.022069	-0.850337	0.238390
H70	H	1.008427	-0.831249	0.165886
H71	H	0.619910	-0.266192	0.380421
N72	N	1.110577	-0.909254	0.710360
N73	N	1.071128	-0.893440	0.788378
H74	H	1.084686	-0.912621	0.860863
N75	N	0.521745	-0.218261	0.564660
N76	N	0.537553	-0.163512	0.508529
H77	H	0.518358	-0.112768	0.528037
N78	N	0.625323	-0.497463	0.457052
N79	N	0.693516	-0.509047	0.452517
H80	H	0.712639	-0.559801	0.432907
N81	N	1.032384	-0.488203	0.913501
N82	N	1.043857	-0.539149	0.978387
H83	H	1.055539	-0.590759	0.952424
H84	H	0.957500	-0.401682	1.102292
H85	H	0.948237	-0.903996	0.463024
N86	N	1.206842	-0.328364	0.913281
N87	N	1.189161	-0.275940	0.853867
H88	H	1.228217	-0.240186	0.828057
N89	N	1.175573	-0.909084	0.365038
N90	N	1.168801	-0.893143	0.269337
H91	H	1.205998	-0.912206	0.216262
N92	N	0.943055	-0.398450	0.912503
N93	N	0.891785	-0.386518	0.976692
H94	H	0.840372	-0.374740	0.950027
H95	H	1.168128	-0.436783	1.101034
N96	N	1.206913	-0.329341	1.109653
N97	N	1.245892	-0.294294	1.045089
H98	H	1.285223	-0.258980	1.071379
H99	H	1.168733	-0.435823	0.919136
H100	H	0.997318	-0.259704	1.103385
H101	H	0.994053	-0.263518	0.920774
N102	N	1.100439	-0.223243	0.911451
N103	N	1.105708	-0.211697	0.814287
H104	H	1.140181	-0.171942	0.787139
N105	N	1.106042	-0.225606	1.108896
N106	N	1.158053	-0.245185	1.167880
H107	H	1.195247	-0.207433	1.193598
