data_functionalizedCrystal
_audit_creation_method	'MofGen! by Chris Wilmer'
_symmetry_space_group_name_H-M	'P1'
_symmetry_Int_Tables_number	1
_symmetry_cell_setting	triclinic
loop_
_symmetry_equiv_pos_as_xyz
  x,y,z
_cell_length_a	10.489741
_cell_length_b	19.188940
_cell_length_c	9.565339
_cell_angle_alpha	90.007961
_cell_angle_beta	90.004940
_cell_angle_gamma	83.843944
loop_
_atom_site_label
_atom_site_type_symbol
_atom_site_fract_x
_atom_site_fract_y
_atom_site_fract_z
O1	O	1.691854	0.098505	0.116327
O2	O	1.320452	0.107751	0.116315
O3	O	1.516864	0.001545	0.116311
O4	O	1.495442	0.204711	0.116331
O5	O	1.516854	0.001535	-0.116210
O6	O	1.320442	0.107742	-0.116205
O7	O	1.691844	0.098496	-0.116194
Zn8	Zn	1.506141	0.103117	-0.153117
Zn9	Zn	1.506155	0.103129	0.153238
O10	O	1.495432	0.204702	-0.116189
C11	C	1.516164	-0.024476	0.000051
C12	C	1.514075	-0.101994	0.000051
C13	C	1.272931	0.107048	0.000054
C14	C	1.131348	0.104959	0.000049
C15	C	1.739365	0.099199	0.000071
C16	C	1.880948	0.101288	0.000085
C17	C	1.499209	-0.655358	-0.126663
C18	C	1.501158	-0.582520	-0.126671
C19	C	1.502144	-0.546089	0.000075
C20	C	1.501148	-0.582499	0.126837
C21	C	1.499187	-0.655334	0.126841
N22	N	1.577806	-0.436554	0.094416
N23	N	1.579672	-0.367364	0.094404
C24	C	1.508051	-0.326640	0.000070
N25	N	1.434510	-0.357722	-0.094272
N26	N	1.432649	-0.426919	-0.094264
C27	C	1.504270	-0.467111	0.000084
C28	C	1.511151	-0.211260	-0.126693
C29	C	1.513091	-0.138420	-0.126695
C30	C	1.513094	-0.138401	0.126816
C31	C	1.511141	-0.211238	0.126815
C32	C	1.510175	-0.247664	0.000056
C33	C	1.947581	0.168864	0.000077
C34	C	2.040425	0.136946	0.114713
C35	C	2.040381	0.136921	-0.114533
C36	C	1.971927	0.069342	0.114816
C37	C	1.971874	0.069326	-0.114534
C38	C	2.064691	0.037360	0.000131
N39	N	1.506142	0.103108	-0.362196
C40	C	1.496132	0.230722	0.000074
C41	C	1.498221	0.308240	0.000083
C42	C	1.596282	0.053605	-0.546534
C43	C	1.621710	0.116628	-0.453288
C44	C	1.480770	0.040090	-0.453373
C45	C	1.531650	0.166188	-0.546488
C46	C	1.390660	0.089609	-0.546581
C47	C	1.416039	0.152678	-0.453377
N48	N	1.506164	0.103133	0.362318
H49	H	1.498422	-0.685011	-0.229879
O50	O	1.935837	0.035381	0.230682
C51	C	1.849851	0.081044	0.310036
H52	H	1.864268	0.137645	0.284055
H53	H	1.747183	0.071279	0.284108
C54	C	1.857432	-0.001860	0.498750
C55	C	1.875146	0.067658	0.466848
H56	H	1.873030	-0.010118	0.595479
H57	H	1.915358	-0.032626	0.445286
H58	H	1.771875	-0.009989	0.477133
H59	H	1.960706	0.075784	0.488449
H60	H	1.817235	0.098425	0.520320
O61	O	1.501876	-0.547134	0.249999
C62	C	1.390970	-0.557592	0.327104
H63	H	1.313246	-0.572478	0.252926
H64	H	1.414795	-0.601529	0.406133
C65	C	1.438096	-0.471271	0.495883
C66	C	1.342629	-0.489548	0.404774
H67	H	1.408279	-0.429300	0.543799
H68	H	1.512818	-0.464226	0.443939
H69	H	1.457941	-0.507891	0.561728
H70	H	1.322798	-0.452933	0.338921
H71	H	1.267903	-0.496585	0.456709
H72	H	1.513882	-0.108739	0.230014
O73	O	1.274229	0.075824	-0.595451
C74	C	1.247827	0.009295	-0.548064
H75	H	1.341611	-0.023787	-0.521888
H76	H	1.185129	0.015641	-0.450584
C77	C	1.061806	0.013373	-0.695490
C78	C	1.176995	-0.027262	-0.663352
H79	H	1.018108	-0.009177	-0.766601
H80	H	1.079589	0.058196	-0.727413
H81	H	1.009573	0.018658	-0.614247
H82	H	1.229231	-0.032539	-0.744589
H83	H	1.159218	-0.072087	-0.631445
O84	O	1.325262	0.202722	-0.404705
C85	C	1.384073	0.250920	-0.321733
H86	H	1.479581	0.224954	-0.280618
H87	H	1.401311	0.298554	-0.387511
C88	C	1.178707	0.306188	-0.248279
C89	C	1.296008	0.274295	-0.197771
H90	H	1.124384	0.320610	-0.171817
H91	H	1.139084	0.273719	-0.304183
H92	H	1.193090	0.345879	-0.303094
H93	H	1.281626	0.234600	-0.142973
H94	H	1.335627	0.306758	-0.141855
O95	O	2.076536	0.171025	0.230449
C96	C	2.040001	0.136007	0.351196
H97	H	1.957653	0.104092	0.324545
H98	H	2.125065	0.099505	0.391269
C99	C	2.097564	0.229371	0.497696
C100	C	1.996415	0.190178	0.464965
H101	H	2.070683	0.262785	0.567877
H102	H	2.122184	0.252962	0.416348
H103	H	2.168442	0.198946	0.531082
H104	H	1.925546	0.220602	0.431564
H105	H	1.971782	0.166593	0.546311
H106	H	2.070715	0.165522	-0.211453
O107	O	1.510143	-0.246536	-0.249943
C108	C	1.511452	-0.198784	-0.361819
H109	H	1.472476	-0.144175	-0.324665
H110	H	1.613958	-0.197848	-0.400790
C111	C	1.474930	-0.288728	-0.527205
C112	C	1.427050	-0.221657	-0.481574
H113	H	1.422873	-0.302838	-0.601079
H114	H	1.474054	-0.320900	-0.451834
H115	H	1.560352	-0.287939	-0.559671
H116	H	1.341636	-0.222449	-0.449093
H117	H	1.427910	-0.189486	-0.556943
H118	H	1.501939	-0.552875	-0.229885
H119	H	1.498380	-0.684972	0.230056
H120	H	2.115346	-0.018253	0.000181
H121	H	1.513893	-0.108783	-0.229911
O122	O	1.687192	0.003622	-0.595175
C123	C	1.661410	-0.062648	-0.545725
H124	H	1.600574	-0.055793	-0.446934
H125	H	1.607259	-0.090003	-0.629213
C126	C	1.863295	-0.115767	-0.633714
C127	C	1.788584	-0.107347	-0.512371
H128	H	1.941741	-0.143341	-0.613146
H129	H	1.880663	-0.071120	-0.667035
H130	H	1.818154	-0.138560	-0.703276
H131	H	1.833718	-0.084546	-0.442818
H132	H	1.771226	-0.151991	-0.479037
O133	O	1.886915	0.235156	0.000465
C134	C	1.921647	0.270534	0.121555
H135	H	1.955275	0.230625	0.205614
H136	H	2.002529	0.303568	0.095395
C137	C	1.763602	0.367481	0.072377
C138	C	1.804894	0.318464	0.175623
H139	H	1.691586	0.397049	0.105726
H140	H	1.740205	0.343648	-0.009207
H141	H	1.831014	0.395002	0.050585
H142	H	1.737488	0.290938	0.197399
H143	H	1.828277	0.342293	0.257212
O144	O	1.738130	0.130289	-0.404151
C145	C	1.736134	0.130696	-0.256768
H146	H	1.632998	0.142031	-0.218751
H147	H	1.778592	0.077384	-0.215947
C148	C	1.942594	0.173923	-0.248962
C149	C	1.815921	0.187851	-0.202270
H150	H	1.991815	0.209176	-0.215343
H151	H	1.943942	0.173647	-0.348257
H152	H	1.977958	0.129495	-0.214941
H153	H	1.780555	0.232273	-0.236305
H154	H	1.814569	0.188136	-0.102979
O155	O	1.557644	0.229742	-0.595122
C156	C	1.669925	0.221346	-0.677131
H157	H	1.730241	0.170731	-0.646173
H158	H	1.642820	0.218844	-0.792304
C159	C	1.673631	0.346093	-0.690973
C160	C	1.747717	0.283930	-0.652941
H161	H	1.721615	0.384698	-0.676059
H162	H	1.597983	0.351750	-0.635727
H163	H	1.651048	0.343998	-0.786949
H164	H	1.770285	0.286022	-0.556963
H165	H	1.823372	0.278274	-0.708171
H166	H	1.459301	-0.013214	-0.412468
H167	H	1.510344	-0.240878	0.230025
H168	H	1.941458	0.040754	-0.211463
