data_functionalizedCrystal
_audit_creation_method	'MofGen! by Chris Wilmer'
_symmetry_space_group_name_H-M	'P1'
_symmetry_Int_Tables_number	1
_symmetry_cell_setting	triclinic
loop_
_symmetry_equiv_pos_as_xyz
  x,y,z
_cell_length_a	19.805407
_cell_length_b	10.686285
_cell_length_c	19.805399
_cell_angle_alpha	85.609337
_cell_angle_beta	89.983114
_cell_angle_gamma	85.631507
loop_
_atom_site_label
_atom_site_type_symbol
_atom_site_fract_x
_atom_site_fract_y
_atom_site_fract_z
Zn1	Zn	1.055482	-0.502358	-0.362111
Zn2	Zn	1.064125	-0.713374	-0.240266
Zn3	Zn	0.942304	-0.502398	-0.248934
Zn4	Zn	0.950980	-0.713302	-0.353416
O5	O	1.003223	-0.607858	-0.301182
O6	O	1.151346	-0.530363	-0.345960
O7	O	1.047951	-0.685435	-0.146697
O8	O	0.950070	-0.325817	-0.271214
O9	O	1.157695	-0.685396	-0.256441
O10	O	1.033221	-0.325788	-0.354364
O11	O	0.958450	-0.530431	-0.153066
O12	O	0.848738	-0.530361	-0.262782
O13	O	0.964856	-0.685273	-0.449288
O14	O	0.855112	-0.685311	-0.339545
O15	O	1.041634	-0.530293	-0.455676
O16	O	1.056363	-0.889940	-0.248009
O17	O	0.973236	-0.889887	-0.331140
C18	C	0.827366	-0.607834	-0.301161
C19	C	0.752134	-0.607854	-0.301167
C20	C	1.016697	-0.935697	-0.287705
C21	C	1.022524	-1.075948	-0.281963
C22	C	0.720132	-0.688658	-0.341062
C23	C	0.649444	-0.688660	-0.341071
C24	C	0.610759	-0.607864	-0.301182
C25	C	0.642766	-0.527051	-0.261285
C26	C	0.713453	-0.527043	-0.261280
C27	C	0.357694	-0.527078	-0.261306
C28	C	0.287003	-0.527095	-0.261313
C29	C	0.293685	-0.688696	-0.341098
C30	C	0.364371	-0.688688	-0.341093
C31	C	0.396372	-0.607871	-0.301199
C32	C	0.473020	-0.607868	-0.301190
C33	C	0.534112	-0.607872	-0.301186
C34	C	1.179766	-0.607883	-0.301203
C35	C	1.254999	-0.607894	-0.301212
C36	C	1.003249	-0.607770	-0.477728
C37	C	1.003260	-0.607733	-0.552962
C38	C	0.989714	-0.278738	-0.314726
C39	C	0.983957	-0.138487	-0.320498
C40	C	0.956669	-0.527015	-0.591622
C41	C	0.956677	-0.526991	-0.662311
C42	C	1.003280	-0.607678	-0.694340
C43	C	1.049874	-0.688405	-0.655674
C44	C	1.049862	-0.688435	-0.584986
C45	C	1.049922	-0.688287	-0.940753
C46	C	1.049932	-0.688248	-1.011446
C47	C	0.956738	-0.526843	-1.018078
C48	C	0.956726	-0.526873	-0.947389
C49	C	1.003316	-0.607603	-0.908730
C50	C	1.003306	-0.607631	-0.832081
C51	C	1.003294	-0.607646	-0.770988
C52	C	1.003232	-0.607854	-0.125326
C53	C	1.003337	-0.607536	-0.050107
H54	H	0.751624	-0.754456	-0.373543
H55	H	0.946481	-1.084735	-0.357883
C56	C	1.073148	-1.148562	-0.231448
H57	H	1.070555	-1.236463	-0.234082
H58	H	1.062389	-1.127084	-0.186832
H59	H	1.117735	-1.126949	-0.242275
C60	C	0.392887	-0.438206	-0.217412
H61	H	0.359723	-0.390104	-0.193649
H62	H	0.418217	-0.383277	-0.245599
H63	H	0.422429	-0.486418	-0.185894
H64	H	0.918779	-0.461164	-0.921316
H65	H	0.918735	-0.461267	-0.693785
H66	H	0.623391	-0.754460	-0.373557
H67	H	0.395865	-0.754485	-0.373573
C68	C	1.101180	-0.777068	-0.898237
H69	H	1.128942	-0.825102	-0.927439
H70	H	1.077548	-0.832062	-0.868393
H71	H	1.128686	-0.728800	-0.872656
H72	H	0.918722	-0.461302	-0.565550
H73	H	0.918799	-0.461111	-1.049563
C74	C	1.101195	-0.777015	-1.046676
H75	H	1.128937	-0.825109	-1.013529
H76	H	1.128711	-0.728741	-1.076242
H77	H	1.077556	-0.831975	-1.071987
C78	C	1.101137	-0.777158	-0.690904
H79	H	1.094477	-0.765571	-0.738541
H80	H	1.094711	-0.861943	-0.675829
H81	H	1.145856	-0.758692	-0.680083
C82	C	1.101112	-0.777225	-0.542460
H83	H	1.128872	-0.825269	-0.571658
H84	H	1.077470	-0.832209	-0.512619
H85	H	1.128621	-0.728969	-0.516875
C86	C	0.258482	-0.777581	-0.384988
H87	H	0.210842	-0.766009	-0.379287
H88	H	0.273547	-0.862337	-0.371523
H89	H	0.269331	-0.759215	-0.431237
C90	C	0.244450	-0.438205	-0.217438
H91	H	0.273632	-0.390062	-0.193683
H92	H	0.218845	-0.486400	-0.185924
H93	H	0.214628	-0.383296	-0.245647
H94	H	0.739508	-0.461237	-0.228797
C95	C	0.600216	-0.438180	-0.217405
H96	H	0.553534	-0.449767	-0.223115
H97	H	0.608316	-0.353420	-0.230865
H98	H	0.612541	-0.456549	-0.171154
