data_functionalizedCrystal
_audit_creation_method	'MofGen! by Chris Wilmer'
_symmetry_space_group_name_H-M	'P1'
_symmetry_Int_Tables_number	1
_symmetry_cell_setting	triclinic
loop_
_symmetry_equiv_pos_as_xyz
  x,y,z
_cell_length_a	10.540539
_cell_length_b	10.540539
_cell_length_c	9.016244
_cell_angle_alpha	89.999933
_cell_angle_beta	89.994699
_cell_angle_gamma	84.525492
loop_
_atom_site_label
_atom_site_type_symbol
_atom_site_fract_x
_atom_site_fract_y
_atom_site_fract_z
O1	O	1.685893	0.178895	-0.123263
O2	O	1.316480	0.195751	-0.123280
O3	O	1.509614	0.002617	-0.123269
O4	O	1.492759	0.372030	-0.123274
O5	O	1.509586	0.002621	0.123411
O6	O	1.316452	0.195755	0.123400
O7	O	1.685865	0.178900	0.123418
Cu8	Cu	1.501156	0.187328	0.145933
Cu9	Cu	1.501189	0.187323	-0.145795
O10	O	1.492730	0.372034	0.123407
C11	C	1.269163	0.194489	0.000058
C12	C	1.128215	0.190707	0.000051
C13	C	1.508336	-0.044684	0.000068
C14	C	1.504554	-0.185632	0.000060
C15	C	0.944788	0.045790	0.000628
C16	C	1.091406	0.049624	0.000057
C17	C	1.066558	0.258600	-0.140811
C18	C	0.920014	0.253785	-0.140914
C19	C	0.919493	0.256660	0.139608
C20	C	1.066475	0.257960	0.141455
C21	C	1.359637	-0.369059	-0.000500
C22	C	1.363471	-0.222441	0.000055
C23	C	1.572434	-0.247287	0.140930
C24	C	1.567619	-0.393832	0.141049
C25	C	1.570520	-0.394355	-0.139473
C26	C	1.571820	-0.247373	-0.141336
C27	C	1.733182	0.180161	0.000077
C28	C	1.874130	0.183943	0.000074
C29	C	1.494008	0.419335	0.000066
C30	C	1.497790	0.560283	0.000064
N31	N	1.501141	0.187331	0.351119
N32	N	1.501213	0.187310	-0.350982
C33	C	1.397510	0.290298	0.586146
C34	C	1.397739	0.290684	0.414255
C35	C	1.633864	0.217464	0.413464
C36	C	1.633298	0.218193	0.585409
C37	C	1.473367	0.053892	0.585663
C38	C	1.470322	0.054757	0.413709
H39	H	0.916191	-0.009944	0.101649
C40	C	1.285696	-0.409583	0.133384
C41	C	1.277837	-0.541360	0.128167
C42	C	1.209753	-0.578741	0.251489
H43	H	1.202292	-0.366592	0.132337
H44	H	1.328267	-0.388560	0.221634
H45	H	1.235263	-0.562371	0.039940
H46	H	1.361221	-0.584383	0.129235
H47	H	1.252324	-0.557718	0.339739
H48	H	1.126353	-0.535742	0.250430
H49	H	1.204421	-0.668156	0.247972
C50	C	1.148173	-0.021855	0.134553
C51	C	1.118950	-0.148588	0.129028
C52	C	1.171228	-0.214486	0.252891
H53	H	1.113570	0.017238	0.222459
H54	H	1.238076	-0.019699	0.134400
H55	H	1.029066	-0.150738	0.129195
H56	H	1.153554	-0.187717	0.041149
H57	H	1.261130	-0.212329	0.252738
H58	H	1.136620	-0.175382	0.340788
H59	H	1.151417	-0.300484	0.249152
C60	C	0.904643	-0.028460	-0.133181
C61	C	0.968349	-0.151241	-0.131074
C62	C	0.931386	-0.219676	-0.254307
H63	H	0.925735	0.013951	-0.221500
H64	H	0.815255	-0.034025	-0.129870
H65	H	1.057717	-0.145670	-0.134399
H66	H	0.947264	-0.193686	-0.042783
H67	H	0.841998	-0.225241	-0.250996
H68	H	0.952481	-0.177255	-0.342617
H69	H	0.974596	-0.302993	-0.252887
H70	H	0.891816	0.203602	-0.246209
H71	H	0.872045	0.355250	-0.147309
H72	H	1.133163	-0.004177	-0.101092
H73	H	1.525258	-0.204686	0.245756
H74	H	1.109159	0.211434	-0.245643
C75	C	1.420809	0.421639	0.643630
C76	C	1.327692	0.512252	0.586693
C77	C	1.349107	0.633252	0.639632
H78	H	1.502714	0.441828	0.612918
H79	H	1.416573	0.422067	0.748887
H80	H	1.331940	0.511828	0.481458
H81	H	1.245777	0.492105	0.617399
H82	H	1.344871	0.633680	0.744889
H83	H	1.431014	0.653428	0.608917
H84	H	1.285925	0.694745	0.601019
H85	H	1.517429	-0.422030	0.246347
H86	H	1.378630	0.025213	0.629106
H87	H	1.712941	0.146204	0.626995
H88	H	1.540849	-0.025564	0.370737
C89	C	1.702994	-0.457564	0.149679
C90	C	1.788756	-0.364074	0.154759
C91	C	1.913469	-0.422729	0.162738
H92	H	1.720218	-0.509731	0.064772
H93	H	1.712198	-0.508591	0.236577
H94	H	1.779558	-0.313069	0.067870
H95	H	1.771574	-0.311901	0.239662
H96	H	1.922673	-0.473755	0.249636
H97	H	1.930680	-0.474895	0.077830
H98	H	1.971673	-0.359305	0.166200
H99	H	1.088912	0.362208	-0.146054
C100	C	1.265538	0.266409	0.641047
C101	C	1.187243	0.246151	0.519556
C102	C	1.065665	0.224117	0.570083
H103	H	1.229987	0.338306	0.695584
H104	H	1.271728	0.193285	0.703182
H105	H	1.181048	0.319268	0.457445
H106	H	1.222753	0.174252	0.465006
H107	H	1.071855	0.150993	0.632218
H108	H	1.030127	0.296017	0.624620
H109	H	1.012531	0.210358	0.487661
C110	C	1.665721	0.348082	0.638582
C111	C	1.685643	0.425161	0.515893
C112	C	1.715493	0.544832	0.564810
H113	H	1.740895	0.338237	0.697195
H114	H	1.597262	0.386832	0.696361
H115	H	1.754096	0.386420	0.458139
H116	H	1.610484	0.435043	0.457268
H117	H	1.647034	0.583582	0.622589
H118	H	1.790666	0.534974	0.623423
H119	H	1.729003	0.597148	0.481575
H120	H	1.310059	-0.179839	-0.100926
H121	H	1.658762	0.313702	0.370386
H122	H	1.712919	0.144501	0.372564
C123	C	0.877824	0.195532	0.282009
C124	C	0.930766	0.068655	0.287921
C125	C	0.892516	0.012277	0.419109
H126	H	0.787518	0.198083	0.284181
H127	H	0.906295	0.240795	0.364826
H128	H	0.902288	0.023404	0.205126
H129	H	1.021070	0.066068	0.285774
H130	H	0.920988	0.057541	0.501926
H131	H	0.802210	0.014838	0.421269
H132	H	0.928441	-0.073810	0.423144
C133	C	1.574285	-0.048342	0.639589
C134	C	1.637873	-0.106597	0.517450
C135	C	1.730859	-0.200757	0.567079
H136	H	1.534844	-0.110467	0.694906
H137	H	1.633688	-0.010562	0.700776
H138	H	1.578479	-0.144377	0.456288
H139	H	1.677341	-0.044505	0.462121
H140	H	1.790262	-0.162978	0.628265
H141	H	1.691406	-0.262873	0.622395
H142	H	1.774022	-0.240287	0.484216
H143	H	1.090700	0.360819	0.149959
H144	H	1.107425	0.208362	0.245664
H145	H	0.872266	0.358564	0.140559
C146	C	1.285359	-0.406953	-0.135330
C147	C	1.248931	-0.298536	-0.220569
C148	C	1.180521	-0.333405	-0.344801
H149	H	1.211549	-0.444617	-0.103863
H150	H	1.337492	-0.466474	-0.193267
H151	H	1.196800	-0.239036	-0.162643
H152	H	1.322716	-0.260857	-0.252073
H153	H	1.232654	-0.392927	-0.402738
H154	H	1.106717	-0.371071	-0.313320
H155	H	1.155806	-0.259853	-0.402658
H156	H	1.309661	-0.180683	0.101200
H157	H	1.676041	-0.224933	0.146173
C158	C	1.706488	-0.457091	-0.140658
C159	C	1.791576	-0.362960	-0.136052
C160	C	1.916832	-0.420711	-0.137109
H161	H	1.720530	-0.506124	-0.228543
H162	H	1.719699	-0.511073	-0.056589
H163	H	1.778370	-0.309000	-0.220114
H164	H	1.777575	-0.313921	-0.048173
H165	H	1.930044	-0.474694	-0.053039
H166	H	1.930861	-0.469743	-0.224995
H167	H	1.974579	-0.356853	-0.133970
H168	H	1.524871	-0.425910	-0.246244
H169	H	1.372684	0.031916	0.372962
H170	H	1.674681	-0.223152	-0.149837
H171	H	1.522153	-0.206517	-0.245547
H172	H	1.299123	0.272553	0.372106
H173	H	1.415639	0.389668	0.373108
