data_functionalizedCrystal
_audit_creation_method	'MofGen! by Chris Wilmer'
_symmetry_space_group_name_H-M	'P1'
_symmetry_Int_Tables_number	1
_symmetry_cell_setting	triclinic
loop_
_symmetry_equiv_pos_as_xyz
  x,y,z
_cell_length_a	11.792241
_cell_length_b	9.065215
_cell_length_c	8.140239
_cell_angle_alpha	90.001034
_cell_angle_beta	90.003307
_cell_angle_gamma	84.604057
loop_
_atom_site_label
_atom_site_type_symbol
_atom_site_fract_x
_atom_site_fract_y
_atom_site_fract_z
O1	O	0.166414	1.958838	0.136599
O2	O	0.666414	2.458838	0.636599
O3	O	0.180069	1.529425	0.136606
O4	O	0.680069	2.029425	0.636606
O5	O	0.008128	1.754552	0.136591
O6	O	0.508128	2.254552	0.636591
O7	O	0.338354	1.733711	0.136614
O8	O	0.838354	2.233711	0.636614
O9	O	0.008127	1.754545	-0.136636
O10	O	0.508127	2.254545	0.363364
O11	O	0.180067	1.529418	-0.136621
O12	O	0.680067	2.029418	0.363379
O13	O	0.166412	1.958831	-0.136628
O14	O	0.666412	2.458831	0.363372
Zn15	Zn	0.173240	1.744123	-0.180005
Zn16	Zn	0.673240	2.244123	0.319995
Zn17	Zn	0.173241	1.744133	0.179983
Zn18	Zn	0.673241	2.244133	0.679983
O19	O	0.338353	1.733704	-0.136613
O20	O	0.838353	2.233704	0.363387
C21	C	-0.034171	1.753239	-0.000022
C22	C	0.465829	2.253239	0.499978
C23	C	-0.160206	1.749321	-0.000021
C24	C	0.339794	2.249321	0.499979
C25	C	0.178756	1.474447	-0.000007
C26	C	0.678756	1.974447	0.499993
C27	C	0.174835	1.310640	-0.000005
C28	C	0.674835	1.810640	0.499995
C29	C	0.167725	2.013809	-0.000012
C30	C	0.667725	2.513809	0.499988
C31	C	0.171646	2.177615	-0.000003
C32	C	0.671646	2.677615	0.499997
C33	C	-0.390958	1.742116	0.000007
C34	C	0.109042	2.242116	0.500007
C35	C	-0.262551	1.746119	-0.000008
C36	C	0.237449	2.246119	0.499992
C37	C	0.380652	1.735016	0.000003
C38	C	0.880652	2.235016	0.500003
C39	C	0.506687	1.738935	0.000013
C40	C	1.006687	2.238935	0.500013
N41	N	0.173238	1.744127	-0.425688
N42	N	0.673238	2.244127	0.074312
N43	N	0.173234	1.744140	0.425666
N44	N	0.673234	2.244140	0.925666
