data_functionalizedCrystal
_audit_creation_method	'MofGen! by Chris Wilmer'
_symmetry_space_group_name_H-M	'P1'
_symmetry_Int_Tables_number	1
_symmetry_cell_setting	triclinic
loop_
_symmetry_equiv_pos_as_xyz
  x,y,z
_cell_length_a	14.519731
_cell_length_b	14.519731
_cell_length_c	16.053802
_cell_angle_alpha	92.569546
_cell_angle_beta	87.413705
_cell_angle_gamma	83.688853
loop_
_atom_site_label
_atom_site_type_symbol
_atom_site_fract_x
_atom_site_fract_y
_atom_site_fract_z
O1	O	1.227749	0.117107	-0.069433
O2	O	1.561082	0.450441	0.263900
O3	O	1.894415	0.783774	0.597234
O4	O	0.959276	0.131323	-0.069434
O5	O	1.292609	0.464656	0.263899
O6	O	1.625942	0.797990	0.597232
O7	O	1.100620	-0.010021	-0.069426
O8	O	1.433953	0.323312	0.263907
O9	O	1.767286	0.656646	0.597241
O10	O	1.086405	0.258451	-0.069441
O11	O	1.419738	0.591785	0.263892
O12	O	1.753071	0.925118	0.597225
O13	O	1.092840	-0.002273	0.069432
O14	O	1.426173	0.331060	0.402766
O15	O	1.759506	0.664394	0.736099
O16	O	0.951496	0.139071	0.069424
O17	O	1.284829	0.472404	0.402757
O18	O	1.618162	0.805738	0.736091
O19	O	1.219969	0.124855	0.069426
O20	O	1.553302	0.458188	0.402759
O21	O	1.886635	0.791522	0.736092
Zn22	Zn	1.084497	0.133193	0.091472
Zn23	Zn	1.417830	0.466526	0.424805
Zn24	Zn	1.751164	0.799860	0.758138
Zn25	Zn	1.094747	0.122985	-0.091480
Zn26	Zn	1.428081	0.456318	0.241853
Zn27	Zn	1.761414	0.789652	0.575186
O28	O	1.078625	0.266199	0.069417
O29	O	1.411958	0.599532	0.402751
O30	O	1.745291	0.932866	0.736084
C31	C	0.921026	0.134531	-0.000005
C32	C	1.254360	0.467864	0.333328
C33	C	1.587693	0.801198	0.666661
C34	C	0.818646	0.132535	-0.000006
C35	C	1.151979	0.465868	0.333328
C36	C	1.485312	0.799202	0.666661
C37	C	0.735502	0.130913	-0.000009
C38	C	1.068835	0.464246	0.333324
C39	C	1.402168	0.797579	0.666658
C40	C	0.631193	0.128886	-0.000009
C41	C	0.964526	0.462220	0.333324
C42	C	1.297860	0.795553	0.666658
C43	C	0.548054	0.127278	-0.000009
C44	C	0.881387	0.460611	0.333324
C45	C	1.214720	0.793944	0.666658
C46	C	0.443738	0.125251	-0.000011
C47	C	0.777072	0.458585	0.333323
C48	C	1.110405	0.791918	0.666656
C49	C	1.096064	-0.040507	0.000003
C50	C	1.429397	0.292827	0.333337
C51	C	1.762730	0.626160	0.666670
C52	C	1.094068	-0.142887	0.000004
C53	C	1.427401	0.190446	0.333337
C54	C	1.760734	0.523780	0.666671
C55	C	1.092446	-0.226031	0.000002
C56	C	1.425779	0.107302	0.333335
C57	C	1.759112	0.440635	0.666669
C58	C	1.090420	-0.330341	-0.000004
C59	C	1.423753	0.002993	0.333329
C60	C	1.757086	0.336326	0.666662
C61	C	1.088811	-0.413480	-0.000010
C62	C	1.422145	-0.080147	0.333324
C63	C	1.755478	0.253187	0.666657
C64	C	1.086785	-0.517796	-0.000015
C65	C	1.420119	-0.184463	0.333319
C66	C	1.753452	0.148871	0.666652
C67	C	1.258218	0.121647	-0.000005
C68	C	1.591552	0.454981	0.333328
C69	C	1.924885	0.788314	0.666661
C70	C	1.360599	0.123643	-0.000011
C71	C	1.693932	0.456976	0.333323
C72	C	2.027266	0.790310	0.666656
C73	C	1.083181	0.296685	-0.000014
C74	C	1.416514	0.630018	0.333319
C75	C	1.749848	0.963351	0.666653
C76	C	1.085177	0.399065	-0.000020
C77	C	1.418511	0.732398	0.333313
C78	C	1.751844	1.065731	0.666647
N79	N	1.077508	0.140159	0.216331
N80	N	1.410841	0.473493	0.549665
N81	N	1.744175	0.806826	0.882998
N82	N	1.101744	0.116011	-0.216340
N83	N	1.435077	0.449345	0.116993
N84	N	1.768410	0.782678	0.450326
C85	C	1.137672	0.080039	0.260029
C86	C	1.471005	0.413372	0.593362
C87	C	1.804339	0.746705	0.926696
C88	C	1.132792	0.084920	0.347435
C89	C	1.466125	0.418254	0.680769
C90	C	1.799458	0.751587	1.014102
C91	C	1.067751	0.149928	0.391143
C92	C	1.401085	0.483261	0.724476
C93	C	1.734418	0.816595	1.057810
C94	C	1.007581	0.210051	0.347439
C95	C	1.340914	0.543385	0.680773
C96	C	1.674247	0.876718	1.014106
C97	C	1.012457	0.205164	0.260034
C98	C	1.345791	0.538498	0.593368
C99	C	1.679124	0.871831	0.926701
C100	C	1.046450	0.171248	0.652551
C101	C	1.379783	0.504581	0.985885
C102	C	1.713116	0.837915	1.319218
C103	C	1.041580	0.176132	0.739962
C104	C	1.374913	0.509465	1.073296
C105	C	1.708246	0.842799	1.406629
C106	C	1.166790	0.051000	0.739952
C107	C	1.500123	0.384333	1.073286
C108	C	1.833457	0.717666	1.406619
C109	C	1.171665	0.046122	0.652546
C110	C	1.504998	0.379456	0.985879
C111	C	1.838331	0.712789	1.319213
C112	C	1.111491	0.106242	0.608850
C113	C	1.444824	0.439576	0.942183
C114	C	1.778158	0.772909	1.275517
N115	N	1.062763	0.154921	0.480486
N116	N	1.396096	0.488255	0.813820
N117	N	1.729430	0.821588	1.147153
N118	N	1.116475	0.101244	0.519508
N119	N	1.449809	0.434577	0.852841
N120	N	1.783142	0.767910	1.186175
H121	H	1.190639	0.027107	0.224448
H122	H	1.523972	0.360440	0.557782
H123	H	1.857306	0.693773	0.891115
C124	C	0.922205	0.295432	0.661353
C125	C	1.255538	0.628766	0.994686
C126	C	1.588872	0.962099	1.328019
C127	C	0.980315	0.237339	0.604528
C128	C	1.313648	0.570672	0.937861
C129	C	1.646981	0.904005	1.271195
H130	H	0.881379	0.336239	0.631701
H131	H	1.214713	0.669573	0.965034
H132	H	1.548046	1.002906	1.298368
H133	H	0.887070	0.258873	0.695456
H134	H	1.220404	0.592206	1.028789
H135	H	1.553737	0.925540	1.362122
H136	H	0.958759	0.330595	0.695431
H137	H	1.292093	0.663928	1.028764
H138	H	1.625426	0.997261	1.362097
H139	H	0.943761	0.202171	0.570454
H140	H	1.277094	0.535504	0.903787
H141	H	1.610427	0.868838	1.237121
H142	H	1.015453	0.273902	0.570411
H143	H	1.348786	0.607236	0.903744
H144	H	1.682119	0.940569	1.237077
C145	C	0.910637	0.201337	0.838297
C146	C	1.243970	0.534671	1.171631
C147	C	1.577304	0.868004	1.504964
C148	C	0.970081	0.247587	0.788015
C149	C	1.303414	0.580920	1.121348
C150	C	1.636747	0.914253	1.454682
H151	H	0.866506	0.245450	0.867968
H152	H	1.199839	0.578783	1.201301
H153	H	1.533172	0.912116	1.534634
H154	H	0.879302	0.160976	0.804214
H155	H	1.212635	0.494310	1.137548
H156	H	1.545969	0.827643	1.470881
H157	H	0.945792	0.166232	0.876821
H158	H	1.279125	0.499565	1.210154
H159	H	1.612458	0.832898	1.543488
H160	H	0.934927	0.282687	0.749487
H161	H	1.268260	0.616021	1.082820
H162	H	1.601594	0.949354	1.416154
H163	H	1.001418	0.287964	0.822101
H164	H	1.334751	0.621297	1.155434
H165	H	1.668085	0.954631	1.488768
H166	H	1.224626	-0.006812	0.616961
H167	H	1.557959	0.326521	0.950294
H168	H	1.891293	0.659855	1.283628
C169	C	1.324841	-0.001295	0.766838
C170	C	1.658175	0.332038	1.100171
C171	C	1.991508	0.665371	1.433505
C172	C	1.232921	-0.015093	0.787983
C173	C	1.566254	0.318241	1.121316
C174	C	1.899588	0.651574	1.454649
H175	H	1.365665	-0.042101	0.796493
H176	H	1.698998	0.291233	1.129827
H177	H	2.032332	0.624566	1.463160
H178	H	1.337045	-0.013507	0.708535
H179	H	1.670378	0.319826	1.041868
H180	H	2.003711	0.653160	1.375201
H181	H	1.334155	0.061077	0.781160
H182	H	1.667489	0.394411	1.114493
H183	H	2.000822	0.727744	1.447827
H184	H	1.223605	-0.077464	0.773655
H185	H	1.556938	0.255869	1.106988
H186	H	1.890272	0.589202	1.440322
H187	H	1.220713	-0.002888	0.846299
H188	H	1.554047	0.330445	1.179633
H189	H	1.887380	0.663778	1.512966
C190	C	0.944516	0.273111	0.481427
C191	C	1.277849	0.606445	0.814761
C192	C	1.611183	0.939778	1.148094
C193	C	0.936088	0.281512	0.395481
C194	C	1.269421	0.614845	0.728814
C195	C	1.602755	0.948178	1.062147
H196	H	0.900383	0.317235	0.511083
H197	H	1.233716	0.650569	0.844416
H198	H	1.567050	0.983902	1.177749
H199	H	0.933595	0.212348	0.495762
H200	H	1.266928	0.545682	0.829095
H201	H	1.600262	0.879015	1.162428
H202	H	1.005284	0.284070	0.495726
H203	H	1.338617	0.617403	0.829060
H204	H	1.671951	0.950737	1.162393
H205	H	0.875322	0.270546	0.381181
H206	H	1.208655	0.603879	0.714514
H207	H	1.541988	0.937213	1.047847
H208	H	0.947002	0.342289	0.381140
H209	H	1.280335	0.675622	0.714474
H210	H	1.613669	1.008956	1.047807
H211	H	0.963464	0.254120	0.224457
H212	H	1.296797	0.587453	0.557790
H213	H	1.630131	0.920786	0.891123
H214	H	1.181782	0.035965	0.383014
H215	H	1.515115	0.369298	0.716347
H216	H	1.848448	0.702632	1.049680
