data_functionalizedCrystal
_audit_creation_method	'MofGen! by Chris Wilmer'
_symmetry_space_group_name_H-M	'P1'
_symmetry_Int_Tables_number	1
_symmetry_cell_setting	triclinic
loop_
_symmetry_equiv_pos_as_xyz
  x,y,z
_cell_length_a	16.625546
_cell_length_b	14.908941
_cell_length_c	14.908308
_cell_angle_alpha	96.369340
_cell_angle_beta	86.735930
_cell_angle_gamma	86.677812
loop_
_atom_site_label
_atom_site_type_symbol
_atom_site_fract_x
_atom_site_fract_y
_atom_site_fract_z
Zn1	Zn	-0.273410	-1.354226	0.432069
Zn2	Zn	-0.400005	-1.362859	0.280711
Zn3	Zn	-0.273444	-1.211600	0.289444
Zn4	Zn	-0.416462	-1.202830	0.440736
O5	O	-0.340830	-1.282879	0.360740
O6	O	-0.283302	-1.482034	0.404709
O7	O	-0.376344	-1.350077	0.155209
O8	O	-0.160605	-1.230577	0.308391
O9	O	-0.376311	-1.488376	0.293507
O10	O	-0.160581	-1.335364	0.413177
O11	O	-0.283360	-1.238948	0.161625
O12	O	-0.299317	-1.083774	0.316795
O13	O	-0.404359	-1.215629	0.566247
O14	O	-0.404391	-1.077331	0.427949
O15	O	-0.299259	-1.326860	0.559879
O16	O	-0.515022	-1.341573	0.301911
O17	O	-0.527113	-1.224000	0.419481
C18	C	-0.353644	-1.047710	0.374261
C19	C	-0.359146	-0.947103	0.380067
C20	C	-0.259926	-0.764699	0.275393
C21	C	-0.265093	-0.670170	0.280845
C22	C	-0.374651	-0.663513	0.396417
C23	C	-0.369484	-0.758042	0.390965
C24	C	-0.312118	-0.808632	0.330452
C25	C	-0.306948	-0.903163	0.325005
C26	C	-0.416510	-0.896505	0.440572
C27	C	-0.421677	-0.801975	0.446024
C28	C	-0.550324	-1.282795	0.360707
C29	C	-0.639943	-1.282841	0.360718
C30	C	-0.968115	-1.282993	0.360804
C31	C	-0.876808	-1.282948	0.360783
C32	C	-0.804032	-1.282916	0.360761
C33	C	-0.712719	-1.282872	0.360740
C34	C	-0.130518	-1.282986	0.360791
C35	C	-0.040896	-1.283032	0.360813
C36	C	-0.353641	-1.269303	0.596823
C37	C	-0.359100	-1.263519	0.697428
C38	C	-0.327959	-0.518966	0.347160
C39	C	-0.322453	-0.619573	0.341356
C40	C	-0.328008	-1.296453	0.125572
C41	C	-0.322313	-1.302414	0.024958
C42	C	-0.259900	-1.368470	0.879846
C43	C	-0.265026	-1.363037	0.974373
C44	C	-0.374475	-1.247217	0.981010
C45	C	-0.369349	-1.252649	0.886484
C46	C	-0.312060	-1.313279	0.835904
C47	C	-0.306938	-1.318715	0.741376
C48	C	-0.416382	-1.202891	0.748015
C49	C	-0.421509	-1.197458	0.842542
H50	H	-0.213207	-0.805890	0.226132
H51	H	-0.222591	-0.634403	0.236011
H52	H	-0.421362	-0.622307	0.445676
Br53	Br	-0.452210	-1.164932	1.049669
Br54	Br	-0.499538	-0.733311	0.528131
H55	H	-0.459005	-0.932285	0.485411
Br56	Br	-0.229194	-1.401001	0.672732
H57	H	-0.260233	-0.944352	0.275738
Br58	Br	-0.487187	-1.127997	0.688375
H59	H	-0.213257	-1.417841	0.838663
H60	H	-0.222550	-1.407977	1.010146
H61	H	-0.468150	-1.148094	0.883736
