data_functionalizedCrystal
_audit_creation_method	'MofGen! by Chris Wilmer'
_symmetry_space_group_name_H-M	'P1'
_symmetry_Int_Tables_number	1
_symmetry_cell_setting	triclinic
loop_
_symmetry_equiv_pos_as_xyz
  x,y,z
_cell_length_a	19.805407
_cell_length_b	19.805404
_cell_length_c	19.805384
_cell_angle_alpha	89.901832
_cell_angle_beta	89.933459
_cell_angle_gamma	90.026910
loop_
_atom_site_label
_atom_site_type_symbol
_atom_site_fract_x
_atom_site_fract_y
_atom_site_fract_z
Zn1	Zn	1.035046	-0.269053	-0.382691
Zn2	Zn	1.535046	0.230947	0.117309
Zn3	Zn	1.034859	-0.382381	-0.269503
Zn4	Zn	1.534859	0.117619	0.230497
Zn5	Zn	0.921765	-0.269206	-0.269519
Zn6	Zn	1.421765	0.230794	0.230481
Zn7	Zn	0.921818	-0.382200	-0.382654
Zn8	Zn	1.421818	0.117800	0.117346
O9	O	0.978372	-0.325710	-0.326092
O10	O	1.478372	0.174290	0.173908
O11	O	1.129738	-0.284098	-0.367685
O12	O	1.629738	0.215902	0.132315
O13	O	1.019755	-0.367509	-0.174788
O14	O	1.519755	0.132491	0.325212
O15	O	0.936848	-0.174469	-0.284553
O16	O	1.436848	0.325531	0.215447
O17	O	1.129600	-0.367360	-0.284527
O18	O	1.629600	0.132640	0.215473
O19	O	1.020076	-0.174356	-0.367700
O20	O	1.520076	0.325644	0.132300
O21	O	0.936666	-0.284360	-0.174800
O22	O	1.436666	0.215640	0.325200
O23	O	0.827055	-0.284184	-0.284517
O24	O	1.327055	0.215816	0.215483
O25	O	0.936939	-0.367050	-0.477376
O26	O	1.436939	0.132950	0.022624
O27	O	0.827095	-0.367199	-0.367637
O28	O	1.327095	0.132801	0.132363
O29	O	1.020127	-0.283921	-0.477403
O30	O	1.520127	0.216079	0.022597
O31	O	1.019807	-0.477074	-0.284491
O32	O	1.519807	0.022926	0.215509
O33	O	0.936757	-0.476940	-0.367622
O34	O	1.436757	0.023060	0.132378
C35	C	0.802516	-0.325689	-0.326075
C36	C	1.302516	0.174311	0.173925
C37	C	0.727284	-0.325696	-0.326084
C38	C	1.227284	0.174304	0.173916
C39	C	0.692012	-0.282418	-0.369451
C40	C	1.192012	0.217582	0.130549
C41	C	0.621324	-0.282422	-0.369453
C42	C	1.121324	0.217578	0.130547
C43	C	0.585908	-0.325707	-0.326092
C44	C	1.085908	0.174293	0.173908
C45	C	0.621185	-0.368987	-0.282721
C46	C	1.121185	0.131013	0.217279
C47	C	0.691872	-0.368980	-0.282716
C48	C	1.191872	0.131020	0.217284
C49	C	0.336112	-0.369018	-0.282742
C50	C	0.836112	0.130982	0.217258
C51	C	0.265420	-0.369023	-0.282752
C52	C	0.765420	0.130977	0.217248
C53	C	0.265564	-0.282459	-0.369480
C54	C	0.765564	0.217541	0.130520
C55	C	0.336251	-0.282452	-0.369474
C56	C	0.836251	0.217548	0.130526
C57	C	0.371521	-0.325729	-0.326101
C58	C	0.871521	0.174271	0.173899
C59	C	0.448169	-0.325724	-0.326097
C60	C	0.948169	0.174276	0.173903
C61	C	0.509261	-0.325716	-0.326099
C62	C	1.009261	0.174284	0.173901
C63	C	0.978286	-0.501566	-0.326066
C64	C	1.478286	-0.001566	0.173934
C65	C	0.978311	-0.576798	-0.326077
C66	C	1.478311	-0.076798	0.173923
C67	C	1.021783	-1.038636	-0.282900
C68	C	1.521783	-0.538636	0.217100
C69	C	1.021751	-0.967947	-0.282887
C70	C	1.521751	-0.467947	0.217113
C71	C	0.978461	-0.932560	-0.326128
C72	C	1.478461	-0.432560	0.173872
C73	C	0.935195	-0.967864	-0.369379
C74	C	1.435195	-0.467864	0.130621
C75	C	0.935224	-1.038551	-0.369389
C76	C	1.435224	-0.538551	0.130611
C77	C	0.935077	-0.682791	-0.369342
C78	C	1.435077	-0.182791	0.130658
C79	C	0.935053	-0.612099	-0.369331
C80	C	1.435053	-0.112099	0.130669
C81	C	1.021604	-0.612187	-0.282840
C82	C	1.521604	-0.112187	0.217160
C83	C	1.021633	-0.682874	-0.282850
C84	C	1.521633	-0.182874	0.217150
C85	C	0.978365	-0.718172	-0.326099
C86	C	1.478365	-0.218172	0.173901
C87	C	0.978399	-0.794821	-0.326112
C88	C	1.478399	-0.294821	0.173888
C89	C	0.978430	-0.855913	-0.326119
C90	C	1.478430	-0.355913	0.173881
C91	C	1.154915	-0.325732	-0.326109
C92	C	1.654915	0.174268	0.173891
C93	C	1.230147	-0.325741	-0.326116
C94	C	1.730147	0.174259	0.173884
C95	C	0.978560	-0.325448	-0.502635
C96	C	1.478560	0.174552	-0.002635
C97	C	0.978640	-0.325337	-0.577867
C98	C	1.478640	0.174663	-0.077867
C99	C	0.978477	-0.149167	-0.326133
C100	C	1.478477	0.350833	0.173867
C101	C	0.978521	-0.073935	-0.326150
C102	C	1.478521	0.426065	0.173850
C103	C	0.978223	-0.325922	-0.150235
C104	C	1.478223	0.174078	0.349765
C105	C	0.978274	-0.325843	-0.075003
C106	C	1.478274	0.174157	0.424997
C107	C	0.934726	-0.282833	-0.039697
C108	C	1.434726	0.217167	0.460303
C109	C	0.934780	-0.282758	0.030991
C110	C	1.434780	0.217242	0.530991
C111	C	0.978379	-0.325697	0.066372
C112	C	1.478379	0.174303	0.566372
C113	C	1.021933	-0.368709	0.031061
C114	C	1.521933	0.131291	0.531061
C115	C	1.021882	-0.368780	-0.039626
C116	C	1.521882	0.131220	0.460374
C117	C	1.022140	-0.368424	0.316133
C118	C	1.522140	0.131576	0.816133
C119	C	1.022186	-0.368351	0.386825
C120	C	1.522186	0.131649	0.886825
C121	C	0.935038	-0.282402	0.386751
C122	C	1.435038	0.217598	0.886751
C123	C	0.934987	-0.282472	0.316064
C124	C	1.434987	0.217528	0.816064
C125	C	0.978543	-0.325482	0.280759
C126	C	1.478543	0.174518	0.780759
C127	C	0.978484	-0.325561	0.204111
C128	C	1.478484	0.174439	0.704111
C129	C	0.978434	-0.325621	0.143019
C130	C	1.478434	0.174379	0.643019
H131	H	0.720589	-0.404221	-0.247402
H132	H	1.220589	0.095779	0.252598
H133	H	1.057038	-1.067444	-0.247692
H134	H	1.557038	-0.567444	0.252308
O135	O	1.064256	-0.410464	-0.073956
O136	O	1.564256	0.089536	0.426044
C137	C	1.155615	-0.418993	-0.153941
C138	C	1.655615	0.081007	0.346059
C139	C	1.107674	-0.371711	-0.115096
C140	C	1.607674	0.128289	0.384904
H141	H	1.190721	-0.387681	-0.187223
H142	H	1.690721	0.112319	0.312777
H143	H	1.186834	-0.449659	-0.116543
H144	H	1.686834	0.050341	0.383457
H145	H	1.124741	-0.454652	-0.186852
H146	H	1.624741	0.045348	0.313148
H147	H	1.138496	-0.336011	-0.082184
H148	H	1.638496	0.163989	0.417816
H149	H	1.076452	-0.341092	-0.152530
H150	H	1.576452	0.158908	0.347470
H151	H	0.899317	-0.247735	0.059735
H152	H	1.399317	0.252265	0.559735
H153	H	1.056834	-0.583440	-0.247622
H154	H	1.556834	-0.083440	0.252378
O155	O	0.586889	-0.411058	-0.240537
O156	O	1.086889	0.088942	0.259463
C157	C	0.594213	-0.496954	-0.154546
C158	C	1.094213	0.003046	0.345454
C159	C	0.633134	-0.449328	-0.202271
C160	C	1.133134	0.050672	0.297729
H161	H	0.631585	-0.527917	-0.123605
H162	H	1.131585	-0.027917	0.376395
H163	H	0.561102	-0.465915	-0.119166
H164	H	1.061102	0.034085	0.380834
H165	H	0.561129	-0.532322	-0.185574
H166	H	1.061129	-0.032322	0.314426
H167	H	0.666255	-0.413950	-0.171297
H168	H	1.166255	0.086050	0.328703
H169	H	0.666202	-0.480408	-0.237652
H170	H	1.166202	0.019592	0.262348
O171	O	0.586989	-0.240478	-0.411618
O172	O	1.086989	0.259522	0.088382
C173	C	0.507336	-0.231395	-0.503057
C174	C	1.007336	0.268605	-0.003057
C175	C	0.546163	-0.278974	-0.455334
C176	C	1.046163	0.221026	0.044666
H177	H	0.474329	-0.262501	-0.538423
H178	H	0.974329	0.237499	-0.038423
H179	H	0.474171	-0.196009	-0.472091
H180	H	0.974171	0.303991	0.027909
H181	H	0.544806	-0.200448	-0.534018
H182	H	1.044806	0.299552	-0.034018
H183	H	0.508742	-0.309965	-0.424363
H184	H	1.008742	0.190035	0.075637
H185	H	0.579338	-0.314315	-0.486339
H186	H	1.079338	0.185685	0.013661
H187	H	0.720843	-0.247172	-0.404762
H188	H	1.220843	0.252828	0.095238
O189	O	0.231405	-0.240392	-0.411673
O190	O	0.731405	0.259608	0.088327
C191	C	0.239011	-0.154505	-0.497673
C192	C	0.739011	0.345495	0.002327
C193	C	0.277776	-0.202117	-0.449934
C194	C	0.777776	0.297883	0.050066
H195	H	0.276485	-0.123537	-0.528609
H196	H	0.776485	0.376463	-0.028609
H197	H	0.205968	-0.185554	-0.533056
H198	H	0.705968	0.314446	-0.033056
H199	H	0.205875	-0.119140	-0.466656
H200	H	0.705875	0.380860	0.033344
H201	H	0.310950	-0.237492	-0.480897
H202	H	0.810950	0.262508	0.019103
H203	H	0.310777	-0.171026	-0.414549
H204	H	0.810777	0.328974	0.085451
O205	O	0.231090	-0.411164	-0.240658
O206	O	0.731090	0.088836	0.259342
C207	C	0.209342	-0.526296	-0.207616
C208	C	0.709342	-0.026296	0.292384
C209	C	0.248274	-0.478650	-0.255314
C210	C	0.748274	0.021350	0.244686
H211	H	0.223210	-0.580869	-0.219457
H212	H	0.723210	-0.080869	0.280543
H213	H	0.223186	-0.514455	-0.153048
H214	H	0.723186	-0.014455	0.346952
H215	H	0.152765	-0.518832	-0.215063
H216	H	0.652765	-0.018832	0.284937
H217	H	0.304859	-0.486087	-0.247927
H218	H	0.804859	0.013913	0.252073
H219	H	0.234374	-0.490503	-0.309865
H220	H	0.734374	0.009497	0.190135
O221	O	1.064222	-0.410399	0.065532
O222	O	1.564222	0.089601	0.565532
C223	C	1.102952	-0.448357	0.174459
C224	C	1.602952	0.051643	0.674459
C225	C	1.055015	-0.401118	0.135507
C226	C	1.555015	0.098882	0.635507
H227	H	1.095535	-0.440860	0.231041
H228	H	1.595535	0.059140	0.731041
H229	H	1.091420	-0.503047	0.160780
H230	H	1.591420	-0.003047	0.660780
H231	H	1.157432	-0.436103	0.160385
H232	H	1.657432	0.063897	0.660385
H233	H	1.000519	-0.413312	0.149560
H234	H	1.500519	0.086688	0.649560
H235	H	1.066605	-0.346442	0.149190
H236	H	1.566605	0.153558	0.649190
H237	H	1.056977	-0.939207	-0.247669
H238	H	1.556977	-0.439207	0.252331
O239	O	0.892613	-0.240697	0.281801
O240	O	1.392613	0.259303	0.781801
C241	C	0.806151	-0.155461	0.289189
C242	C	1.306151	0.344539	0.789189
C243	C	0.854115	-0.202729	0.328075
C244	C	1.354115	0.297271	0.828075
H245	H	0.775003	-0.124761	0.326585
H246	H	1.275003	0.375239	0.826585
H247	H	0.836935	-0.119837	0.255960
H248	H	1.336935	0.380163	0.755960
H249	H	0.770973	-0.186831	0.256227
H250	H	1.270973	0.313169	0.756227
H251	H	0.889303	-0.171413	0.361074
H252	H	1.389303	0.328587	0.861074
H253	H	0.823289	-0.238354	0.361262
H254	H	1.323289	0.261646	0.861262
H255	H	0.365083	-0.247207	-0.404785
H256	H	0.865083	0.252793	0.095215
H257	H	1.056887	-0.711684	-0.247641
H258	H	1.556887	-0.211684	0.252359
O259	O	0.370400	-0.410963	-0.240546
O260	O	0.870400	0.089037	0.259454
C261	C	0.450121	-0.420063	-0.149167
C262	C	0.950121	0.079937	0.350833
C263	C	0.411315	-0.372479	-0.196901
C264	C	0.911315	0.127521	0.303099
H265	H	0.483221	-0.388968	-0.113879
H266	H	0.983221	0.111032	0.386121
H267	H	0.412698	-0.450993	-0.118131
H268	H	0.912698	0.049007	0.381869
H269	H	0.483211	-0.455464	-0.180193
H270	H	0.983211	0.044536	0.319807
H271	H	0.378224	-0.337036	-0.165928
H272	H	0.878224	0.162964	0.334072
H273	H	0.448775	-0.341596	-0.227940
H274	H	0.948775	0.158404	0.272060
H275	H	0.899798	-0.583287	-0.404544
H276	H	1.399798	-0.083287	0.095456
H277	H	0.899944	-0.939047	-0.404585
H278	H	1.399944	-0.439047	0.095415
O279	O	0.893029	-0.716969	-0.411419
O280	O	1.393029	-0.216969	0.088581
C281	C	0.807148	-0.709415	-0.497180
C282	C	1.307148	-0.209415	0.002820
C283	C	0.854746	-0.670621	-0.449571
C284	C	1.354746	-0.170621	0.050429
H285	H	0.776173	-0.671960	-0.528028
H286	H	1.276173	-0.171960	-0.028028
H287	H	0.838209	-0.742400	-0.532651
H288	H	1.338209	-0.242400	-0.032651
H289	H	0.771789	-0.742613	-0.466065
H290	H	1.271789	-0.242613	0.033935
H291	H	0.890114	-0.637386	-0.480631
H292	H	1.390114	-0.137386	0.019369
H293	H	0.823643	-0.637679	-0.414098
H294	H	1.323643	-0.137679	0.085902
O295	O	0.892465	-0.241088	-0.074138
O296	O	1.392465	0.258912	0.425862
C297	C	0.882692	-0.149826	-0.154144
C298	C	1.382692	0.350174	0.345856
C299	C	0.930627	-0.197071	-0.115197
C300	C	1.430627	0.302929	0.384803
H301	H	0.913527	-0.114216	-0.187339
H302	H	1.413527	0.385784	0.312661
H303	H	0.847494	-0.181149	-0.187132
H304	H	1.347494	0.318851	0.312868
H305	H	0.851561	-0.119103	-0.116752
H306	H	1.351561	0.380897	0.383248
H307	H	0.961801	-0.227803	-0.152540
H308	H	1.461801	0.272197	0.347460
H309	H	0.965780	-0.165709	-0.082199
H310	H	1.465780	0.334291	0.417801
O311	O	0.893180	-1.072738	-0.411468
O312	O	1.393180	-0.572738	0.088532
C313	C	0.807299	-1.065195	-0.497229
C314	C	1.307299	-0.565195	0.002771
C315	C	0.854893	-1.026395	-0.449622
C316	C	1.354893	-0.526395	0.050378
H317	H	0.776321	-1.027744	-0.528079
H318	H	1.276321	-0.527744	-0.028079
H319	H	0.838363	-1.098179	-0.532699
H320	H	1.338363	-0.598179	-0.032699
H321	H	0.771943	-1.098395	-0.466114
H322	H	1.271943	-0.598395	0.033886
H323	H	0.890259	-0.993159	-0.480682
H324	H	1.390259	-0.493159	0.019318
H325	H	0.823787	-0.993455	-0.414150
H326	H	1.323787	-0.493455	0.085850
O327	O	0.892795	-0.240637	0.421152
O328	O	1.392795	0.259363	0.921152
C329	C	0.854217	-0.202458	0.530015
C330	C	1.354217	0.297542	1.030015
C331	C	0.902102	-0.249775	0.491143
C332	C	1.402102	0.250225	0.991143
H333	H	0.861714	-0.209840	0.586610
H334	H	1.361714	0.290160	1.086610
H335	H	0.865726	-0.147796	0.515994
H336	H	1.365726	0.352204	1.015994
H337	H	0.799718	-0.214744	0.516212
H338	H	1.299718	0.285256	1.016212
H339	H	0.956617	-0.237550	0.504926
H340	H	1.456617	0.262450	1.004926
H341	H	0.890534	-0.304423	0.505168
H342	H	1.390534	0.195577	1.005168
O343	O	1.064608	-0.410084	0.421090
O344	O	1.564608	0.089916	0.921090
C345	C	1.151022	-0.495369	0.413709
C346	C	1.651022	0.004631	0.913709
C347	C	1.103031	-0.448132	0.374820
C348	C	1.603031	0.051868	0.874820
H349	H	1.182089	-0.526153	0.376316
H350	H	1.682089	-0.026153	0.876316
H351	H	1.186269	-0.464038	0.446636
H352	H	1.686269	0.035962	0.946636
H353	H	1.120195	-0.530921	0.446973
H354	H	1.620195	-0.030921	0.946973
H355	H	1.133803	-0.412571	0.341518
H356	H	1.633803	0.087429	0.841518
H357	H	1.067782	-0.479505	0.341935
H358	H	1.567782	0.020495	0.841935
H359	H	1.057604	-0.403446	0.287396
H360	H	1.557604	0.096554	0.787396
