data_functionalizedCrystal
_audit_creation_method	'MofGen! by Chris Wilmer'
_symmetry_space_group_name_H-M	'P1'
_symmetry_Int_Tables_number	1
_symmetry_cell_setting	triclinic
loop_
_symmetry_equiv_pos_as_xyz
  x,y,z
_cell_length_a	15.944551
_cell_length_b	12.811438
_cell_length_c	11.295692
_cell_angle_alpha	90.849633
_cell_angle_beta	85.408249
_cell_angle_gamma	83.772108
loop_
_atom_site_label
_atom_site_type_symbol
_atom_site_fract_x
_atom_site_fract_y
_atom_site_fract_z
O1	O	0.100447	1.376927	0.247704
O2	O	0.114428	1.073427	0.214935
O3	O	-0.014854	1.233466	0.232203
O4	O	0.229729	1.216889	0.230435
O5	O	-0.004779	1.245966	0.035510
O6	O	0.124502	1.085928	0.018241
O7	O	0.110522	1.389427	0.051010
Cu8	Cu	0.118432	1.238819	0.016666
Cu9	Cu	0.106518	1.224036	0.249279
O10	O	0.239803	1.229389	0.033742
C11	C	0.118990	1.040840	0.112395
C12	C	0.117566	0.925117	0.099900
C13	C	0.121050	0.768823	-0.024922
C14	C	0.122389	0.877556	-0.013187
C15	C	0.111406	0.863936	0.201259
C16	C	0.110067	0.755203	0.189524
C17	C	0.114888	0.707651	0.076430
C18	C	0.113543	0.598918	0.064696
C19	C	0.102566	0.585299	0.279142
C20	C	0.103905	0.694031	0.290877
C21	C	-0.041109	1.239028	0.133782
C22	C	-0.134351	1.236965	0.133559
C23	C	-0.348994	1.132834	0.122332
C24	C	-0.405144	1.187352	0.030571
C25	C	-0.305070	1.233232	0.133165
C26	C	-0.415060	1.175051	0.224498
C27	C	-0.469976	1.229619	0.132789
C28	C	-0.359987	1.287782	0.041327
C29	C	-0.369901	1.275462	0.235339
C30	C	-0.426032	1.330055	0.143563
C31	C	-0.210071	1.235311	0.133380
C32	C	-0.564972	1.227548	0.132566
C33	C	0.266058	1.223827	0.132165
C34	C	0.359300	1.225889	0.132397
C35	C	0.105959	1.422014	0.153553
C36	C	0.107383	1.537737	0.166056
N37	N	0.126811	1.249224	-0.146940
C38	C	0.187162	1.324286	-0.325808
C39	C	0.180826	1.316390	-0.202002
C40	C	0.079130	1.189946	-0.215694
C41	C	0.085465	1.197842	-0.339500
C42	C	0.139482	1.265015	-0.394552
C43	C	0.145813	1.272916	-0.518360
C44	C	0.044121	1.146468	-0.532051
C45	C	0.037786	1.138572	-0.408245
N46	N	0.098132	1.213639	0.412886
H47	H	0.099983	0.732763	0.382955
H48	H	-0.439249	1.127363	0.301908
H49	H	0.117474	0.560202	-0.027391
H50	H	-0.420965	1.150098	-0.056004
H51	H	0.097551	0.535480	0.361670
C52	C	0.129319	1.050281	-0.090418
C53	C	0.129160	0.944800	-0.124595
H54	H	0.133505	1.091791	-0.159202
H55	H	0.078318	1.073242	-0.043595
H56	H	0.176252	1.057346	-0.045294
H57	H	0.082222	0.937733	-0.169712
H58	H	0.180166	0.921832	-0.171438
H59	H	0.124980	0.730105	-0.117008
H60	H	0.107489	0.902671	0.293335
C61	C	0.025623	0.989500	-0.284182
C62	C	-0.021591	1.064745	-0.347719
H63	H	-0.011039	0.943929	-0.246812
H64	H	0.066805	0.949864	-0.337103
H65	H	0.053113	1.023679	-0.225525
H66	H	-0.049076	1.030565	-0.406382
H67	H	-0.062788	1.104385	-0.294793
C68	C	-0.295014	1.253542	0.410989
C69	C	-0.348500	1.325704	0.352208
H70	H	-0.281797	1.284557	0.483141
H71	H	-0.322622	1.192745	0.427862
H72	H	-0.244340	1.234399	0.361833
H73	H	-0.399176	1.344841	0.401361
H74	H	-0.320892	1.386521	0.335339
C75	C	-0.321208	0.974486	0.002724
C76	C	-0.303784	1.020348	0.110061
H77	H	-0.293291	0.905048	-0.004857
H78	H	-0.380523	0.972450	0.001804
H79	H	-0.301613	1.014851	-0.061574
H80	H	-0.323385	0.979987	0.174359
H81	H	-0.244456	1.022378	0.110990
H82	H	-0.335880	1.335427	-0.036172
C83	C	0.199303	1.473364	-0.449860
C84	C	0.246530	1.398126	-0.386329
H85	H	0.235955	1.518954	-0.487215
H86	H	0.171825	1.439188	-0.508516
H87	H	0.158110	1.512989	-0.396926
H88	H	0.287719	1.358496	-0.439264
H89	H	0.274022	1.432306	-0.327666
H90	H	-0.459359	1.413466	0.152513
C91	C	0.281979	1.442172	-0.200908
C92	C	0.233233	1.381547	-0.126436
H93	H	0.314331	1.482402	-0.154253
H94	H	0.318944	1.397281	-0.254384
H95	H	0.245719	1.487962	-0.244578
H96	H	0.269494	1.335751	-0.082771
H97	H	0.196265	1.426443	-0.072939
H98	H	0.189795	1.327614	-0.563181
H99	H	0.035156	1.135251	-0.170849
H100	H	0.005298	1.098204	-0.588036
