data_functionalizedCrystal
_audit_creation_method	'MofGen! by Chris Wilmer'
_symmetry_space_group_name_H-M	'P1'
_symmetry_Int_Tables_number	1
_symmetry_cell_setting	triclinic
loop_
_symmetry_equiv_pos_as_xyz
  x,y,z
_cell_length_a	18.215405
_cell_length_b	21.295419
_cell_length_c	18.215399
_cell_angle_alpha	90.017422
_cell_angle_beta	89.970050
_cell_angle_gamma	89.960709
loop_
_atom_site_label
_atom_site_type_symbol
_atom_site_fract_x
_atom_site_fract_y
_atom_site_fract_z
Zn1	Zn	-0.292649	-0.962341	-0.416130
Zn2	Zn	0.207351	-0.462341	0.083870
Zn3	Zn	-0.415726	-0.962272	-0.293064
Zn4	Zn	0.084274	-0.462272	0.206936
Zn5	Zn	-0.292713	-0.857078	-0.293076
Zn6	Zn	0.207287	-0.357078	0.206924
Zn7	Zn	-0.415714	-0.857048	-0.416088
Zn8	Zn	0.084286	-0.357048	0.083912
O9	O	-0.354200	-0.909685	-0.354590
O10	O	0.145800	-0.409685	0.145410
O11	O	-0.308954	-1.050421	-0.399818
O12	O	0.191046	-0.550421	0.100182
O13	O	-0.399439	-0.948302	-0.190082
O14	O	0.100561	-0.448302	0.309918
O15	O	-0.189720	-0.871083	-0.309422
O16	O	0.310280	-0.371083	0.190578
O17	O	-0.399377	-1.050370	-0.309402
O18	O	0.100623	-0.550370	0.190598
O19	O	-0.189673	-0.948419	-0.399829
O20	O	0.310327	-0.448419	0.100171
O21	O	-0.309062	-0.871017	-0.190090
O22	O	0.190938	-0.371017	0.309910
O23	O	-0.309051	-0.768985	-0.309381
O24	O	0.190949	-0.268985	0.190619
O25	O	-0.399358	-0.871031	-0.519078
O26	O	0.100642	-0.371031	-0.019078
O27	O	-0.399420	-0.768962	-0.399758
O28	O	0.100580	-0.268962	0.100242
O29	O	-0.308942	-0.948389	-0.519109
O30	O	0.191058	-0.448389	-0.019109
O31	O	-0.518708	-0.948272	-0.309362
O32	O	-0.018708	-0.448272	0.190638
O33	O	-0.518700	-0.870964	-0.399746
O34	O	-0.018700	-0.370964	0.100254
C35	C	-0.354242	-0.746133	-0.354566
C36	C	0.145758	-0.246133	0.145434
C37	C	-0.354277	-0.676165	-0.354574
C38	C	0.145723	-0.176165	0.145426
C39	C	-0.545407	-0.909624	-0.354564
C40	C	-0.045407	-0.409624	0.145436
C41	C	-0.627206	-0.909656	-0.354578
C42	C	-0.127206	-0.409656	0.145422
C43	C	-0.307271	-0.643347	-0.401726
C44	C	0.192729	-0.143347	0.098274
C45	C	-0.307254	-0.577605	-0.401728
C46	C	0.192746	-0.077605	0.098272
C47	C	-0.354255	-0.544682	-0.354585
C48	C	0.145745	-0.044682	0.145415
C49	C	-0.401264	-0.577508	-0.307425
C50	C	0.098736	-0.077508	0.192575
C51	C	-0.401275	-0.643249	-0.307419
C52	C	0.098725	-0.143249	0.192581
N53	N	-0.418651	-0.441415	-0.348837
N54	N	0.081349	0.058585	0.151163
N55	N	-0.418638	-0.378964	-0.348847
N56	N	0.081362	0.121036	0.151153
C57	C	-0.354224	-0.346608	-0.354599
C58	C	0.145776	0.153392	0.145401
N59	N	-0.289822	-0.379062	-0.360354
N60	N	0.210178	0.120938	0.139646
N61	N	-0.289835	-0.441520	-0.360349
N62	N	0.210165	0.058480	0.139651
C63	C	-0.354248	-0.473397	-0.354586
C64	C	0.145752	0.026603	0.145414
C65	C	-0.307196	-0.242504	-0.401755
C66	C	0.192804	0.257496	0.098245
C67	C	-0.307177	-0.176761	-0.401752
C68	C	0.192823	0.323239	0.098248
C69	C	-0.401194	-0.176665	-0.307452
C70	C	0.098806	0.323335	0.192548
C71	C	-0.401206	-0.242408	-0.307452
C72	C	0.098794	0.257592	0.192548
C73	C	-0.354208	-0.275323	-0.354607
C74	C	0.145792	0.224677	0.145393
C75	C	-0.815314	-0.949944	-0.401717
C76	C	-0.315314	-0.449944	0.098283
C77	C	-0.892173	-0.949967	-0.401731
C78	C	-0.392173	-0.449967	0.098269
C79	C	-0.892335	-0.869503	-0.307508
C80	C	-0.392335	-0.369503	0.192492
C81	C	-0.815477	-0.869478	-0.307498
C82	C	-0.315477	-0.369478	0.192502
C83	C	-0.776969	-0.909702	-0.354602
C84	C	-0.276969	-0.409702	0.145398
C85	C	-0.930685	-0.909750	-0.354625
C86	C	-0.430685	-0.409750	0.145375
C87	C	-1.014019	-0.909774	-0.354640
C88	C	-0.514019	-0.409774	0.145360
C89	C	-0.693630	-0.909676	-0.354588
C90	C	-0.193630	-0.409676	0.145412
C91	C	-0.162247	-0.909762	-0.354631
C92	C	0.337753	-0.409762	0.145369
C93	C	-0.080449	-0.909795	-0.354649
C94	C	0.419551	-0.409795	0.145351
C95	C	-0.354142	-0.909714	-0.546543
C96	C	0.145858	-0.409714	-0.046543
C97	C	-0.354117	-0.909727	-0.628342
C98	C	0.145883	-0.409727	-0.128342
C99	C	-0.354169	-0.073875	-0.354609
C100	C	0.145831	0.426125	0.145391
C101	C	-0.354178	-0.143843	-0.354608
C102	C	0.145822	0.356157	0.145392
C103	C	-0.307026	-0.869519	-0.816541
C104	C	0.192974	-0.369519	-0.316541
C105	C	-0.307011	-0.869530	-0.893400
C106	C	0.192989	-0.369530	-0.393400
C107	C	-0.401120	-0.950011	-0.893380
C108	C	0.098880	-0.450011	-0.393380
C109	C	-0.401138	-0.949996	-0.816523
C110	C	0.098862	-0.449996	-0.316523
C111	C	-0.354087	-0.909751	-0.778105
C112	C	0.145913	-0.409751	-0.278105
C113	C	-0.354054	-0.909777	-0.931821
C114	C	0.145946	-0.409777	-0.431821
C115	C	-0.354038	-0.909789	-1.015155
C116	C	0.145962	-0.409789	-0.515155
C117	C	-0.354103	-0.909738	-0.694766
C118	C	0.145897	-0.409738	-0.194766
C119	C	-0.354206	-0.909691	-0.163383
C120	C	0.145794	-0.409691	0.336617
C121	C	-0.354024	-0.909801	-0.081585
C122	C	0.145976	-0.409801	0.418415
H123	H	-0.268973	-0.550879	-0.440123
H124	H	0.231027	-0.050879	0.059877
N125	N	-0.258933	-0.828446	-0.932672
N126	N	0.241067	-0.328446	-0.432672
N127	N	-0.258920	-0.828464	-1.001294
N128	N	0.241080	-0.328464	-0.501294
H129	H	-0.224963	-0.799448	-1.029031
H130	H	0.275037	-0.299448	-0.529031
N131	N	-0.449175	-0.991113	-0.932636
N132	N	0.050825	-0.491113	-0.432636
N133	N	-0.449153	-0.991122	-1.001258
N134	N	0.050847	-0.491122	-0.501258
H135	H	-0.483093	-1.020152	-1.028982
H136	H	0.016907	-0.520152	-0.528982
N137	N	-0.775990	-0.991035	-0.449833
N138	N	-0.275990	-0.491035	0.050167
N139	N	-0.810239	-1.026962	-0.491897
N140	N	-0.310239	-0.526962	0.008103
H141	H	-0.782469	-1.055983	-0.525882
H142	H	-0.282469	-0.555983	-0.025882
H143	H	-0.268895	-0.150041	-0.440147
H144	H	0.231105	0.349959	0.059853
H145	H	-0.439463	-0.982760	-0.785228
H146	H	0.060537	-0.482760	-0.285228
H147	H	-0.268714	-0.836748	-0.785263
H148	H	0.231286	-0.336748	-0.285263
H149	H	-0.439532	-0.550699	-0.269041
H150	H	0.060468	-0.050699	0.230959
H151	H	-0.269001	-0.670143	-0.440123
H152	H	0.230999	-0.170143	0.059877
H153	H	-0.923390	-0.982735	-0.440098
H154	H	-0.423390	-0.482735	0.059902
H155	H	-0.923698	-0.836755	-0.269157
H156	H	-0.423698	-0.336755	0.230843
H157	H	-0.784255	-0.836704	-0.269132
H158	H	-0.284255	-0.336704	0.230868
H159	H	-0.439554	-0.669969	-0.269021
H160	H	0.060446	-0.169969	0.230979
H161	H	-0.268923	-0.269306	-0.440147
H162	H	0.231077	0.230694	0.059853
H163	H	-0.439463	-0.149861	-0.269068
H164	H	0.060537	0.350139	0.230932
H165	H	-0.439486	-0.269129	-0.269059
H166	H	0.060514	0.230871	0.230941
