data_functionalizedCrystal
_audit_creation_method	'MofGen! by Chris Wilmer'
_symmetry_space_group_name_H-M	'P1'
_symmetry_Int_Tables_number	1
_symmetry_cell_setting	triclinic
loop_
_symmetry_equiv_pos_as_xyz
  x,y,z
_cell_length_a	6.817900
_cell_length_b	7.190334
_cell_length_c	10.943925
_cell_angle_alpha	92.181143
_cell_angle_beta	108.844289
_cell_angle_gamma	60.611776
loop_
_atom_site_label
_atom_site_type_symbol
_atom_site_fract_x
_atom_site_fract_y
_atom_site_fract_z
V1	V	-4.249989	0.664972	-0.176574
O2	O	-4.205106	0.652344	0.010604
O3	O	-4.227050	0.660395	-0.352154
O4	O	-4.286595	0.955002	-0.172928
O5	O	-4.145149	0.355697	-0.169863
V6	V	-4.719303	0.627984	-0.154295
O7	O	-4.542416	0.746109	-0.225444
O8	O	-4.877073	0.546847	-0.105425
O9	O	-4.519036	0.632560	0.021285
O10	O	-4.881583	0.640612	-0.341473
O11	O	-4.941540	0.937259	-0.161006
O12	O	-4.459490	0.337953	-0.157941
C13	C	-4.075494	0.649898	-0.394986
C14	C	-4.138592	0.648089	-0.538519
C15	C	-4.151460	1.025695	-0.166359
C16	C	-4.264933	1.267252	-0.164504
C17	C	-4.407773	0.657062	-0.715224
C18	C	-4.181812	0.475914	-0.609785
C19	C	-4.363722	0.829180	-0.642045
C20	C	-4.024870	0.463557	-0.688796
C21	C	-4.206893	0.816984	-0.721079
C22	C	-3.980785	0.635784	-0.615670
C23	C	-4.333933	0.643052	0.064110
C24	C	-4.250077	0.644875	0.207642
H25	H	-4.588747	0.665814	-0.758692
H26	H	-4.506355	0.983713	-0.620865
H27	H	-4.170548	0.331726	-0.561315
Cl28	Cl	-3.701116	0.621840	-0.548877
Cl29	Cl	-3.804562	0.224725	-0.721234
Cl30	Cl	-4.224430	1.039617	-0.795973
