data_functionalizedCrystal
_audit_creation_method	'MofGen! by Chris Wilmer'
_symmetry_space_group_name_H-M	'P1'
_symmetry_Int_Tables_number	1
_symmetry_cell_setting	triclinic
loop_
_symmetry_equiv_pos_as_xyz
  x,y,z
_cell_length_a	27.732064
_cell_length_b	26.809956
_cell_length_c	27.732048
_cell_angle_alpha	89.990422
_cell_angle_beta	97.353960
_cell_angle_gamma	90.008415
loop_
_atom_site_label
_atom_site_type_symbol
_atom_site_fract_x
_atom_site_fract_y
_atom_site_fract_z
O1	O	0.640930	0.041396	-0.057554
O2	O	0.974263	0.374729	0.275779
O3	O	1.307597	0.708063	0.609113
O4	O	0.500138	0.041417	-0.066291
O5	O	0.833471	0.374751	0.267042
O6	O	1.166804	0.708084	0.600376
O7	O	0.574907	0.041396	0.008474
O8	O	0.908240	0.374730	0.341807
O9	O	1.241573	0.708063	0.675141
O10	O	0.566161	0.041417	-0.132319
O11	O	0.899495	0.374750	0.201014
O12	O	1.232828	0.708083	0.534348
O13	O	0.574884	-0.041563	0.008474
O14	O	0.908217	0.291770	0.341807
O15	O	1.241550	0.625104	0.675141
O16	O	0.500115	-0.041542	-0.066291
O17	O	0.833448	0.291791	0.267042
O18	O	1.166782	0.625125	0.600376
O19	O	0.640907	-0.041563	-0.057554
O20	O	0.974241	0.291770	0.275779
O21	O	1.307574	0.625103	0.609113
Zn22	Zn	0.570507	-0.054724	-0.061923
Zn23	Zn	0.903841	0.278609	0.271411
Zn24	Zn	1.237174	0.611942	0.604744
Zn25	Zn	0.570538	0.054578	-0.061923
Zn26	Zn	0.903871	0.387911	0.271411
Zn27	Zn	1.237204	0.721245	0.604744
O28	O	0.566138	-0.041543	-0.132319
O29	O	0.899472	0.291791	0.201014
O30	O	1.232805	0.625124	0.534348
C31	C	0.482120	-0.000060	-0.066106
C32	C	0.815453	0.333273	0.267227
C33	C	1.148786	0.666607	0.600560
C34	C	0.428465	-0.000052	-0.065551
C35	C	0.761798	0.333281	0.267783
C36	C	1.095132	0.666615	0.601116
C37	C	0.051392	-0.000087	-0.017583
C38	C	0.384726	0.333246	0.315750
C39	C	0.718059	0.666579	0.649083
C40	C	0.253053	-0.000074	-0.019630
C41	C	0.586386	0.333259	0.313704
C42	C	0.919719	0.666592	0.647037
O43	O	0.284305	-0.000098	0.017591
O44	O	0.617639	0.333235	0.350925
O45	O	0.950972	0.666568	0.684258
N46	N	0.272180	-0.000066	-0.063964
N47	N	0.605513	0.333268	0.269369
N48	N	0.938847	0.666601	0.602703
C49	C	0.240889	-0.000064	-0.107790
C50	C	0.574222	0.333270	0.225544
C51	C	0.907556	0.666603	0.558877
O52	O	0.261785	-0.000061	-0.145546
O53	O	0.595119	0.333272	0.187788
O54	O	0.928452	0.666606	0.521121
C55	C	0.039230	-0.000080	-0.105743
C56	C	0.372563	0.333253	0.227590
C57	C	0.705896	0.666586	0.560924
C58	C	0.020105	-0.000084	-0.061406
C59	C	0.353439	0.333249	0.271928
C60	C	0.686772	0.666583	0.605261
C61	C	0.032267	-0.000092	0.026750
C62	C	0.365601	0.333242	0.360084
C63	C	0.698934	0.666575	0.693417
C64	C	-0.018145	-0.000092	0.027261
C65	C	0.315189	0.333241	0.360595
C66	C	0.648522	0.666574	0.693928
C67	C	-0.049432	-0.000089	-0.016561
C68	C	0.283901	0.333245	0.316772
C69	C	0.617235	0.666578	0.650105
C70	C	-0.030307	-0.000085	-0.060895
C71	C	0.303026	0.333249	0.272439
C72	C	0.636360	0.666582	0.605772
C73	C	0.007940	-0.000082	-0.149568
C74	C	0.341273	0.333251	0.183765
C75	C	0.674606	0.666585	0.517098
C76	C	-0.042478	-0.000087	-0.149053
C77	C	0.290855	0.333246	0.184281
C78	C	0.624189	0.666579	0.517614
C79	C	-0.061602	-0.000091	-0.104716
C80	C	0.271731	0.333242	0.228618
C81	C	0.605064	0.666576	0.561951
C82	C	-0.112006	-0.000082	-0.104206
C83	C	0.221327	0.333252	0.229127
C84	C	0.554661	0.666585	0.562461
N85	N	-0.131134	-0.000090	-0.059872
N86	N	0.202200	0.333243	0.273461
N87	N	0.535533	0.666576	0.606795
C88	C	-0.099846	-0.000094	-0.016049
C89	C	0.233487	0.333240	0.317284
C90	C	0.566820	0.666573	0.650617
C91	C	0.346763	-0.000054	-0.108861
C92	C	0.680097	0.333280	0.224472
C93	C	1.013430	0.666613	0.557806
C94	C	0.397178	-0.000049	-0.109373
C95	C	0.730511	0.333285	0.223960
C96	C	1.063845	0.666618	0.557294
C97	C	0.409338	-0.000060	-0.021213
C98	C	0.742672	0.333273	0.312121
C99	C	1.076005	0.666606	0.645454
C100	C	0.358923	-0.000062	-0.020701
C101	C	0.692256	0.333272	0.312632
C102	C	1.025589	0.666605	0.645965
C103	C	0.327636	-0.000062	-0.064527
C104	C	0.660969	0.333271	0.268806
C105	C	0.994303	0.666604	0.602140
C106	C	-0.205716	-0.000095	-0.014979
C107	C	0.127617	0.333239	0.318354
C108	C	0.460951	0.666572	0.651687
C109	C	-0.256133	-0.000093	-0.014472
C110	C	0.077200	0.333240	0.318861
C111	C	0.410534	0.666574	0.652194
C112	C	-0.268289	-0.000084	-0.102632
C113	C	0.065045	0.333249	0.230701
C114	C	0.398378	0.666582	0.564034
C115	C	-0.217876	-0.000083	-0.103140
C116	C	0.115457	0.333250	0.230194
C117	C	0.448791	0.666584	0.563527
C118	C	-0.186590	-0.000090	-0.059309
C119	C	0.146743	0.333243	0.274024
C120	C	0.480076	0.666577	0.607357
O121	O	-0.143287	-0.000063	-0.141407
O122	O	0.190046	0.333270	0.191926
O123	O	0.523380	0.666603	0.525259
O124	O	-0.120752	-0.000107	0.021701
O125	O	0.212581	0.333226	0.355034
O126	O	0.545914	0.666559	0.688368
C127	C	0.101804	-0.000087	-0.018094
C128	C	0.435138	0.333246	0.315239
C129	C	0.768471	0.666580	0.648572
C130	C	0.120929	-0.000083	-0.062428
C131	C	0.454263	0.333251	0.270905
C132	C	0.787596	0.666584	0.604239
C133	C	0.089642	-0.000079	-0.106250
C134	C	0.422976	0.333254	0.227083
C135	C	0.756309	0.666587	0.560416
C136	C	0.171344	-0.000078	-0.062940
C137	C	0.504677	0.333256	0.270394
C138	C	0.838011	0.666589	0.603727
C139	C	0.202631	-0.000081	-0.019117
C140	C	0.535965	0.333252	0.314216
C141	C	0.869298	0.666585	0.647549
C142	C	0.183504	-0.000090	0.025217
C143	C	0.516837	0.333244	0.358550
C144	C	0.850170	0.666577	0.691884
C145	C	0.133092	-0.000090	0.025728
C146	C	0.466425	0.333243	0.359061
C147	C	0.799758	0.666576	0.692395
C148	C	0.108770	-0.000071	-0.150585
C149	C	0.442103	0.333263	0.182749
C150	C	0.775437	0.666596	0.516082
C151	C	0.159183	-0.000069	-0.151092
C152	C	0.492516	0.333264	0.182241
C153	C	0.825849	0.666597	0.515574
C154	C	0.190470	-0.000073	-0.107270
C155	C	0.523803	0.333260	0.226064
C156	C	0.857136	0.666594	0.559397
N157	N	0.570490	-0.129320	-0.061922
N158	N	0.903824	0.204013	0.271411
N159	N	1.237157	0.537346	0.604744
C160	C	0.599628	-0.473947	-0.091035
C161	C	0.932961	-0.140613	0.242298
C162	C	1.266295	0.192720	0.575632
C163	C	0.599644	-0.682824	-0.091035
C164	C	0.932977	-0.349491	0.242299
C165	C	1.266310	-0.016158	0.575632
O166	O	0.624404	-0.709828	-0.115782
O167	O	0.957738	-0.376495	0.217551
O168	O	1.291071	-0.043162	0.550885
N169	N	0.570549	-0.708947	-0.061918
N170	N	0.903882	-0.375614	0.271416
N171	N	1.237216	-0.042281	0.604749
C172	C	0.541451	-0.682848	-0.032796
C173	C	0.874785	-0.349514	0.300537
C174	C	1.208118	-0.016181	0.633870
O175	O	0.516709	-0.709860	-0.008027
O176	O	0.850042	-0.376527	0.325307
O177	O	1.183375	-0.043193	0.658640
C178	C	0.541439	-0.473971	-0.032794
C179	C	0.874772	-0.140638	0.300539
C180	C	1.208105	0.192696	0.633872
C181	C	0.570531	-0.447851	-0.061917
C182	C	0.903864	-0.114517	0.271416
C183	C	1.237198	0.218816	0.604750
C184	C	0.628718	-0.447826	-0.120155
C185	C	0.962052	-0.114493	0.213178
C186	C	1.295385	0.218841	0.546512
C187	C	0.628712	-0.395610	-0.120157
C188	C	0.962046	-0.062277	0.213177
C189	C	1.295379	0.271057	0.546510
C190	C	0.599615	-0.369514	-0.091039
C191	C	0.932949	-0.036181	0.242295
C192	C	1.266282	0.297153	0.575628
C193	C	0.570525	-0.395634	-0.061919
C194	C	0.903858	-0.062301	0.271414
C195	C	1.237192	0.271032	0.604748
C196	C	0.512344	-0.447872	-0.003671
C197	C	0.845677	-0.114539	0.329663
C198	C	1.179010	0.218794	0.662996
C199	C	0.512344	-0.395650	-0.003672
C200	C	0.845677	-0.062317	0.329661
C201	C	1.179011	0.271017	0.662995
C202	C	0.541436	-0.369530	-0.032795
C203	C	0.874770	-0.036196	0.300539
C204	C	1.208103	0.297137	0.633872
C205	C	0.541422	-0.317322	-0.032803
C206	C	0.874755	0.016011	0.300531
C207	C	1.208089	0.349344	0.633864
N208	N	0.570516	-0.291199	-0.061920
N209	N	0.903850	0.042134	0.271414
N210	N	1.237183	0.375468	0.604747
C211	C	0.599613	-0.317295	-0.091038
C212	C	0.932946	0.016038	0.242296
C213	C	1.266280	0.349372	0.575629
C214	C	0.541459	-0.792511	-0.032800
C215	C	0.874793	-0.459178	0.300533
C216	C	1.208126	-0.125844	0.633867
C217	C	0.541462	-0.844730	-0.032801
C218	C	0.874795	-0.511397	0.300532
C219	C	1.208128	-0.178063	0.633866
C220	C	0.599655	-0.844703	-0.091039
C221	C	0.932988	-0.511370	0.242295
C222	C	1.266321	-0.178036	0.575628
C223	C	0.599649	-0.792483	-0.091040
C224	C	0.932983	-0.459150	0.242293
C225	C	1.266316	-0.125816	0.575627
C226	C	0.570554	-0.766388	-0.061917
C227	C	0.903887	-0.433055	0.271416
C228	C	1.237220	-0.099721	0.604750
C229	C	0.599598	-0.207637	-0.091040
C230	C	0.932931	0.125696	0.242294
C231	C	1.266264	0.459030	0.575627
C232	C	0.599587	-0.155416	-0.091040
C233	C	0.932921	0.177917	0.242293
C234	C	1.266254	0.511251	0.575626
C235	C	0.541396	-0.155448	-0.032801
C236	C	0.874730	0.177886	0.300533
C237	C	1.208063	0.511219	0.633866
C238	C	0.541404	-0.207664	-0.032802
C239	C	0.874738	0.125669	0.300532
C240	C	1.208071	0.459003	0.633865
C241	C	0.570509	-0.233757	-0.061923
C242	C	0.903842	0.099576	0.271411
C243	C	1.237176	0.432909	0.604744
O244	O	0.516678	-0.290286	-0.008064
O245	O	0.850011	0.043047	0.325269
O246	O	1.183345	0.376381	0.658603
O247	O	0.624360	-0.290274	-0.115795
O248	O	0.957693	0.043059	0.217538
O249	O	1.291027	0.376393	0.550871
C250	C	0.599634	-0.526163	-0.091033
C251	C	0.932967	-0.192830	0.242300
C252	C	1.266301	0.140504	0.575633
C253	C	0.570543	-0.552283	-0.061913
C254	C	0.903877	-0.218950	0.271420
C255	C	1.237210	0.114383	0.604753
C256	C	0.541447	-0.526187	-0.032795
C257	C	0.874780	-0.192854	0.300538
C258	C	1.208113	0.140479	0.633871
C259	C	0.570546	-0.604502	-0.061914
C260	C	0.903879	-0.271169	0.271419
C261	C	1.237213	0.062164	0.604752
C262	C	0.599643	-0.630598	-0.091032
C263	C	0.932976	-0.297265	0.242301
C264	C	1.266309	0.036069	0.575634
C265	C	0.628737	-0.604475	-0.120150
C266	C	0.962070	-0.271142	0.213184
C267	C	1.295404	0.062192	0.546517
C268	C	0.628731	-0.552259	-0.120151
C269	C	0.962064	-0.218925	0.213182
C270	C	1.295398	0.114408	0.546515
C271	C	0.512352	-0.552310	-0.003678
C272	C	0.845686	-0.218977	0.329655
C273	C	1.179019	0.114356	0.662988
C274	C	0.512360	-0.604527	-0.003679
C275	C	0.845694	-0.271193	0.329654
C276	C	1.179027	0.062140	0.662987
C277	C	0.541457	-0.630623	-0.032797
C278	C	0.874791	-0.297289	0.300536
C279	C	1.208124	0.036044	0.633869
C280	C	0.658925	-0.000085	-0.057739
C281	C	0.992259	0.333248	0.275595
C282	C	1.325592	0.666581	0.608928
C283	C	0.712580	-0.000090	-0.058295
C284	C	1.045913	0.333244	0.275039
C285	C	1.379247	0.666577	0.608372
C286	C	0.574712	-0.000085	0.026481
C287	C	0.908045	0.333249	0.359814
C288	C	1.241378	0.666582	0.693147
C289	C	0.574159	-0.000089	0.080136
C290	C	0.907492	0.333245	0.413469
C291	C	1.240826	0.666578	0.746802
N292	N	0.570558	0.129174	-0.061919
N293	N	0.903892	0.462507	0.271414
N294	N	1.237225	0.795841	0.604748
C295	C	0.566333	-0.000060	-0.150326
C296	C	0.899667	0.333273	0.183007
C297	C	1.233000	0.666606	0.516341
C298	C	0.566886	-0.000053	-0.203981
C299	C	0.900219	0.333280	0.129352
C300	C	1.233553	0.666613	0.462686
C301	C	0.614862	-0.000069	0.418948
C302	C	0.948196	0.333264	0.752282
C303	C	1.281529	0.666598	1.085615
C304	C	0.612811	-0.000062	0.620608
C305	C	0.946145	0.333271	0.953941
C306	C	1.279478	0.666605	1.287275
O307	O	0.650032	-0.000046	0.651862
O308	O	0.983365	0.333288	0.985195
O309	O	1.316698	0.666621	1.318528
N310	N	0.568476	-0.000056	0.639735
N311	N	0.901810	0.333278	0.973068
N312	N	1.235143	0.666611	1.306401
C313	C	0.524651	-0.000048	0.608442
C314	C	0.857985	0.333285	0.941776
C315	C	1.191318	0.666619	1.275109
O316	O	0.486895	-0.000037	0.629338
O317	O	0.820228	0.333296	0.962671
O318	O	1.153561	0.666629	1.296004
C319	C	0.526703	-0.000052	0.406784
C320	C	0.860036	0.333282	0.740117
C321	C	1.193369	0.666615	1.073450
C322	C	0.571040	-0.000063	0.387660
C323	C	0.904374	0.333270	0.720994
C324	C	1.237707	0.666604	1.054327
C325	C	0.659196	-0.000080	0.399824
C326	C	0.992530	0.333253	0.733158
C327	C	1.325863	0.666587	1.066491
C328	C	0.659709	-0.000084	0.349412
C329	C	0.993042	0.333249	0.682746
C330	C	1.326375	0.666582	1.016079
C331	C	0.615887	-0.000078	0.318124
C332	C	0.949220	0.333255	0.651458
C333	C	1.282553	0.666588	0.984791
C334	C	0.571553	-0.000067	0.337248
C335	C	0.904886	0.333266	0.670582
C336	C	1.238219	0.666599	1.003915
C337	C	0.482878	-0.000040	0.375493
C338	C	0.816211	0.333293	0.708826
C339	C	1.149545	0.666626	1.042159
C340	C	0.483395	-0.000040	0.325075
C341	C	0.816728	0.333293	0.658409
C342	C	1.150062	0.666627	0.991742
C343	C	0.527733	-0.000051	0.305952
C344	C	0.861066	0.333282	0.639285
C345	C	1.194399	0.666615	0.972619
C346	C	0.528243	-0.000066	0.255548
C347	C	0.861576	0.333268	0.588882
C348	C	1.194910	0.666601	0.922215
N349	N	0.572578	-0.000072	0.236422
N350	N	0.905911	0.333261	0.569755
N351	N	1.239245	0.666595	0.903089
C352	C	0.616400	-0.000078	0.267710
C353	C	0.949733	0.333255	0.601043
C354	C	1.283066	0.666588	0.934377
C355	C	0.523577	-0.000047	0.714317
C356	C	0.856911	0.333286	1.047650
C357	C	1.190244	0.666620	1.380983
C358	C	0.523064	-0.000047	0.764731
C359	C	0.856398	0.333286	1.098064
C360	C	1.189731	0.666620	1.431398
C361	C	0.611225	-0.000060	0.776893
C362	C	0.944558	0.333273	1.110227
C363	C	1.277891	0.666607	1.443560
C364	C	0.611737	-0.000064	0.726478
C365	C	0.945070	0.333270	1.059811
C366	C	1.278404	0.666603	1.393145
C367	C	0.567912	-0.000053	0.695190
C368	C	0.901245	0.333280	1.028524
C369	C	1.234579	0.666613	1.361857
C370	C	0.617472	-0.000088	0.161841
C371	C	0.950806	0.333245	0.495174
C372	C	1.284139	0.666578	0.828507
C373	C	0.617981	-0.000095	0.111424
C374	C	0.951314	0.333239	0.444757
C375	C	1.284647	0.666572	0.778090
C376	C	0.529821	-0.000079	0.099266
C377	C	0.863154	0.333254	0.432599
C378	C	1.196487	0.666587	0.765933
C379	C	0.529312	-0.000075	0.149679
C380	C	0.862645	0.333258	0.483012
C381	C	1.195979	0.666591	0.816345
C382	C	0.573142	-0.000078	0.180965
C383	C	0.906475	0.333255	0.514299
C384	C	1.239808	0.666589	0.847632
O385	O	0.491043	-0.000076	0.224267
O386	O	0.824376	0.333257	0.557600
O387	O	1.157709	0.666590	0.890933
O388	O	0.654151	-0.000078	0.246805
O389	O	0.987484	0.333256	0.580139
O390	O	1.320818	0.666589	0.913472
C391	C	0.614350	-0.000065	0.469360
C392	C	0.947683	0.333269	0.802694
C393	C	1.281017	0.666602	1.136027
C394	C	0.570016	-0.000054	0.488484
C395	C	0.903349	0.333279	0.821818
C396	C	1.236683	0.666613	1.155151
C397	C	0.526194	-0.000048	0.457196
C398	C	0.859527	0.333286	0.790530
C399	C	1.192861	0.666619	1.123863
C400	C	0.569503	-0.000054	0.538899
C401	C	0.902836	0.333279	0.872232
C402	C	1.236170	0.666613	1.205565
C403	C	0.613325	-0.000060	0.570187
C404	C	0.946658	0.333273	0.903520
C405	C	1.279991	0.666607	1.236853
C406	C	0.657660	-0.000066	0.551060
C407	C	0.990993	0.333267	0.884394
C408	C	1.324326	0.666600	1.217727
C409	C	0.658172	-0.000071	0.500648
C410	C	0.991505	0.333263	0.833982
C411	C	1.324839	0.666596	1.167315
C412	C	0.481859	-0.000041	0.476323
C413	C	0.815193	0.333292	0.809656
C414	C	1.148526	0.666625	1.142989
C415	C	0.481351	-0.000037	0.526735
C416	C	0.814684	0.333296	0.860068
C417	C	1.148017	0.666629	1.193402
C418	C	0.525172	-0.000044	0.558023
C419	C	0.858506	0.333290	0.891357
C420	C	1.191839	0.666623	1.224690
H421	H	-0.033711	-0.000097	0.063365
H422	H	0.299623	0.333236	0.396698
H423	H	0.632956	0.666569	0.730032
N424	N	0.477774	-0.000031	0.784261
N425	N	0.811108	0.333302	1.117595
N426	N	1.144441	0.666636	1.450928
N427	N	0.467660	0.034943	0.811028
N428	N	0.800993	0.368276	1.144361
N429	N	1.134327	0.701609	1.477695
H430	H	0.435672	0.034957	0.824820
H431	H	0.769006	0.368291	1.158153
H432	H	1.102339	0.701624	1.491486
N433	N	0.658443	-0.368937	-0.149895
N434	N	0.991776	-0.035603	0.183438
N435	N	1.325109	0.297730	0.516771
N436	N	0.690546	-0.339799	-0.130803
N437	N	1.023879	-0.006466	0.202530
N438	N	1.357213	0.326867	0.535863
H439	H	0.711547	-0.320965	-0.151807
H440	H	1.044880	0.012368	0.181527
H441	H	1.378213	0.345701	0.514860
H442	H	0.487888	-0.000039	0.688846
H443	H	0.821221	0.333295	1.022179
H444	H	1.154554	0.666628	1.355513
N445	N	0.416702	-0.000034	-0.154667
N446	N	0.750035	0.333299	0.178667
N447	N	1.083369	0.666633	0.512000
N448	N	0.388756	-0.000031	-0.193788
N449	N	0.722089	0.333303	0.139545
N450	N	1.055422	0.666636	0.472879
H451	H	0.402542	-0.000022	-0.225779
H452	H	0.735875	0.333311	0.107554
H453	H	1.069209	0.666644	0.440888
N454	N	0.511747	-0.871408	-0.003050
N455	N	0.845080	-0.538075	0.330283
N456	N	1.178414	-0.204742	0.663616
N457	N	0.530863	-0.900547	0.029041
N458	N	0.864197	-0.567213	0.362374
N459	N	1.197530	-0.233880	0.695707
H460	H	0.509878	-0.919387	0.050055
H461	H	0.843212	-0.586054	0.383389
H462	H	1.176545	-0.252720	0.716722
H463	H	-0.067950	-0.000090	-0.184742
H464	H	0.265384	0.333243	0.148592
H465	H	0.598717	0.666576	0.481925
H466	H	0.446774	-0.000028	0.391054
H467	H	0.780107	0.333305	0.724387
H468	H	1.113440	0.666638	1.057720
H469	H	0.623297	-0.228876	-0.114752
H470	H	0.956631	0.104457	0.218581
H471	H	1.289964	0.437791	0.551914
H472	H	0.321293	-0.000054	-0.144551
H473	H	0.654627	0.333280	0.188782
H474	H	0.987960	0.666613	0.522115
N475	N	0.437094	-0.000048	0.444366
N476	N	0.770427	0.333285	0.777700
N477	N	1.103760	0.666618	1.111033
N478	N	0.427534	-0.035022	0.414889
N479	N	0.760867	0.298311	0.748222
N480	N	1.094201	0.631644	1.081555
H481	H	0.395916	-0.035031	0.392321
H482	H	0.729249	0.298303	0.725654
H483	H	1.062582	0.631636	1.058987
H484	H	-0.271701	-0.000095	0.021634
H485	H	0.061632	0.333239	0.354967
H486	H	0.394966	0.666572	0.688301
N487	N	0.704995	-0.000096	0.329875
N488	N	1.038329	0.333237	0.663209
N489	N	1.371662	0.666571	0.996542
N490	N	0.715114	-0.035067	0.303108
N491	N	1.048447	0.298266	0.636441
N492	N	1.381780	0.631600	0.969775
H493	H	0.747100	-0.035074	0.289312
H494	H	1.080433	0.298259	0.622646
H495	H	1.413766	0.631592	0.955979
N496	N	0.658451	-0.631136	-0.149902
N497	N	0.991785	-0.297802	0.183432
N498	N	1.325118	0.035531	0.516765
N499	N	0.639335	-0.660274	-0.181988
N500	N	0.972669	-0.326941	0.151345
N501	N	1.306002	0.006393	0.484678
H502	H	0.660321	-0.679105	-0.202999
H503	H	0.993654	-0.345772	0.130334
H504	H	1.326987	-0.012438	0.463667
N505	N	0.485054	-0.000073	0.067310
N506	N	0.818388	0.333260	0.400643
N507	N	1.151721	0.666593	0.733976
N508	N	0.455466	-0.035032	0.068869
N509	N	0.788800	0.298301	0.402202
N510	N	1.122133	0.631634	0.735536
H511	H	0.423849	-0.035025	0.046300
H512	H	0.757182	0.298309	0.379633
H513	H	1.090515	0.631642	0.712966
H514	H	0.517705	-0.134191	-0.009095
H515	H	0.851038	0.199142	0.324238
H516	H	1.184372	0.532476	0.657572
N517	N	0.484022	-0.000058	0.169213
N518	N	0.817355	0.333275	0.502546
N519	N	1.150689	0.666608	0.835879
N520	N	0.473908	0.034919	0.195974
N521	N	0.807241	0.368253	0.529308
N522	N	1.140574	0.701586	0.862641
H523	H	0.441920	0.034936	0.209767
H524	H	0.775253	0.368269	0.543100
H525	H	1.108587	0.701603	0.876433
H526	H	0.652415	-0.469068	-0.143866
H527	H	0.985748	-0.135735	0.189467
H528	H	1.319082	0.197599	0.522800
H529	H	0.208987	-0.000090	0.060899
H530	H	0.542320	0.333244	0.394232
H531	H	0.875653	0.666577	0.727565
H532	H	0.488665	-0.625790	0.020035
H533	H	0.821998	-0.292456	0.353368
H534	H	1.155332	0.040877	0.686701
H535	H	0.623339	-0.771219	-0.114755
H536	H	0.956672	-0.437886	0.218579
H537	H	1.290005	-0.104553	0.551912
N538	N	0.629369	-0.871372	-0.120785
N539	N	0.962702	-0.538039	0.212548
N540	N	1.296035	-0.204705	0.545881
N541	N	0.629361	-0.917996	-0.120780
N542	N	0.962694	-0.584662	0.212553
N543	N	1.296028	-0.251329	0.545887
H544	H	0.650346	-0.936834	-0.141786
H545	H	0.983679	-0.603500	0.191547
H546	H	1.317012	-0.270167	0.524880
H547	H	0.517765	-0.771269	-0.009083
H548	H	0.851098	-0.437936	0.324250
H549	H	1.184431	-0.104603	0.657584
N550	N	0.076813	-0.000059	-0.195350
N551	N	0.410146	0.333274	0.137984
N552	N	0.743479	0.666608	0.471317
N553	N	0.047329	0.034911	-0.204904
N554	N	0.380662	0.368244	0.128430
N555	N	0.713995	0.701578	0.461763
H556	H	0.024759	0.034921	-0.236521
H557	H	0.358092	0.368254	0.096812
H558	H	0.691426	0.701587	0.430145
N559	N	0.703466	-0.000084	0.481126
N560	N	1.036800	0.333249	0.814460
N561	N	1.370133	0.666582	1.147793
N562	N	0.742586	-0.000090	0.509076
N563	N	1.075919	0.333243	0.842409
N564	N	1.409253	0.666576	1.175742
H565	H	0.774578	-0.000100	0.495292
H566	H	1.107912	0.333234	0.828625
H567	H	1.441245	0.666567	1.161959
N568	N	0.657026	-0.000082	0.706945
N569	N	0.990360	0.333251	1.040279
N570	N	1.323693	0.666584	1.373612
N571	N	0.686471	-0.035059	0.716654
N572	N	1.019804	0.298274	1.049988
N573	N	1.353137	0.631608	1.383321
H574	H	0.718458	-0.035072	0.702862
H575	H	1.051791	0.298261	1.036195
H576	H	1.385125	0.631594	1.369528
H577	H	0.057737	-0.000096	0.062438
H578	H	0.391070	0.333237	0.395771
H579	H	0.724404	0.666571	0.729104
H580	H	0.488654	-0.469131	0.020045
H581	H	0.821987	-0.135797	0.353378
H582	H	1.155320	0.197536	0.686711
H583	H	-0.180248	-0.000100	0.020712
H584	H	0.153085	0.333233	0.354045
H585	H	0.486418	0.666567	0.687378
N586	N	-0.198331	-0.000070	-0.148424
N587	N	0.135002	0.333263	0.184909
N588	N	0.468336	0.666596	0.518242
N589	N	-0.171549	0.034898	-0.158548
N590	N	0.161784	0.368231	0.174786
N591	N	0.495117	0.701565	0.508119
H592	H	-0.157748	0.034904	-0.190531
H593	H	0.175585	0.368237	0.142803
H594	H	0.508919	0.701570	0.476136
H595	H	0.023501	-0.000077	-0.185672
H596	H	0.356835	0.333257	0.147661
H597	H	0.690168	0.666590	0.480994
H598	H	0.488650	-0.374406	0.020045
H599	H	0.821984	-0.041073	0.353378
H600	H	1.155317	0.292261	0.686711
H601	H	0.693341	-0.000074	0.576544
H602	H	1.026674	0.333260	0.909877
H603	H	1.360008	0.666593	1.243211
N604	N	0.178706	-0.000060	-0.196389
N605	N	0.512039	0.333274	0.136944
N606	N	0.845373	0.666607	0.470277
N607	N	0.150760	-0.000057	-0.235511
N608	N	0.484093	0.333276	0.097822
N609	N	0.817426	0.666610	0.431156
H610	H	0.164546	-0.000053	-0.267502
H611	H	0.497879	0.333280	0.065832
H612	H	0.831213	0.666613	0.399165
H613	H	0.646906	-0.000065	0.802377
H614	H	0.980239	0.333268	1.135710
H615	H	1.313573	0.666601	1.469043
N616	N	0.658450	-0.525589	-0.149904
N617	N	0.991784	-0.192256	0.183430
N618	N	1.325117	0.141077	0.516763
N619	N	0.684425	-0.548904	-0.175898
N620	N	1.017758	-0.215571	0.157436
N621	N	1.351091	0.117763	0.490769
H622	H	0.705416	-0.530072	-0.196912
H623	H	1.038750	-0.196739	0.136421
H624	H	1.372083	0.136595	0.469755
H625	H	0.517709	-0.228932	-0.009094
H626	H	0.851042	0.104401	0.324239
H627	H	1.184375	0.437734	0.657573
H628	H	0.445243	-0.000033	0.542300
H629	H	0.778576	0.333301	0.875633
H630	H	1.111909	0.666634	1.208967
N631	N	-0.300254	-0.000093	-0.147393
N632	N	0.033079	0.333241	0.185941
N633	N	0.366412	0.666574	0.519274
N634	N	-0.298703	-0.035064	-0.176958
N635	N	0.034630	0.298270	0.156375
N636	N	0.367964	0.631603	0.489708
H637	H	-0.321280	-0.035074	-0.208571
H638	H	0.012053	0.298260	0.124763
H639	H	0.345386	0.631593	0.458096
H640	H	0.343355	-0.000065	0.015402
H641	H	0.676689	0.333268	0.348735
H642	H	1.010022	0.666602	0.682069
N643	N	0.482631	-0.525660	0.026070
N644	N	0.815964	-0.192327	0.359403
N645	N	1.149298	0.141006	0.692737
N646	N	0.488753	-0.531500	0.071159
N647	N	0.822086	-0.198167	0.404492
N648	N	1.155420	0.135166	0.737825
H649	H	0.467758	-0.512681	0.092169
H650	H	0.801091	-0.179348	0.425502
H651	H	1.134425	0.153986	0.758835
N652	N	0.441295	-0.000062	0.023556
N653	N	0.774629	0.333271	0.356889
N654	N	1.107962	0.666604	0.690223
N655	N	0.439744	0.034898	0.053133
N656	N	0.773077	0.368232	0.386466
N657	N	1.106411	0.701565	0.719799
H658	H	0.462315	0.034894	0.084749
H659	H	0.795648	0.368227	0.418083
H660	H	1.128982	0.701561	0.751416
N661	N	0.113568	-0.000092	0.071022
N662	N	0.446902	0.333241	0.404355
N663	N	0.780235	0.666574	0.737689
N664	N	0.141517	-0.000095	0.110142
N665	N	0.474850	0.333239	0.443476
N666	N	0.808183	0.666572	0.776809
H667	H	0.127732	-0.000096	0.142134
H668	H	0.461066	0.333237	0.475467
H669	H	0.794399	0.666570	0.808801
N670	N	0.629307	-0.128743	-0.120794
N671	N	0.962641	0.204590	0.212539
N672	N	1.295974	0.537923	0.545873
N673	N	0.655285	-0.152053	-0.146788
N674	N	0.988618	0.181280	0.186545
N675	N	1.321952	0.514613	0.519878
H676	H	0.676275	-0.133218	-0.167801
H677	H	1.009609	0.200115	0.165532
H678	H	1.342942	0.533449	0.498866
H679	H	0.447706	-0.000031	0.299603
H680	H	0.781040	0.333302	0.632936
H681	H	1.114373	0.666636	0.966269
N682	N	0.663277	-0.000110	0.091899
N683	N	0.996610	0.333223	0.425232
N684	N	1.329944	0.666556	0.758565
N685	N	0.702399	-0.000116	0.119844
N686	N	1.035733	0.333218	0.453177
N687	N	1.369066	0.666551	0.786511
H688	H	0.734389	-0.000126	0.106056
H689	H	1.067723	0.333207	0.439390
H690	H	1.401056	0.666540	0.772723
H691	H	0.653163	-0.000089	0.187309
H692	H	0.986496	0.333245	0.520642
H693	H	1.319829	0.666578	0.853976
H694	H	0.694883	-0.000083	0.425295
H695	H	1.028217	0.333250	0.758628
H696	H	1.361550	0.666584	1.091962
