data_functionalizedCrystal
_audit_creation_method	'MofGen! by Chris Wilmer'
_symmetry_space_group_name_H-M	'P1'
_symmetry_Int_Tables_number	1
_symmetry_cell_setting	triclinic
loop_
_symmetry_equiv_pos_as_xyz
  x,y,z
_cell_length_a	10.654550
_cell_length_b	12.996460
_cell_length_c	14.519709
_cell_angle_alpha	89.992910
_cell_angle_beta	95.917462
_cell_angle_gamma	90.002324
loop_
_atom_site_label
_atom_site_type_symbol
_atom_site_fract_x
_atom_site_fract_y
_atom_site_fract_z
O1	O	1.666597	0.085493	-0.129534
O2	O	1.301000	0.085512	-0.141875
O3	O	1.493492	0.085492	-0.001516
O4	O	1.474106	0.085512	-0.269893
O5	O	1.493472	-0.085641	-0.001509
O6	O	1.300980	-0.085622	-0.141867
O7	O	1.666577	-0.085641	-0.129526
Cu8	Cu	1.483777	-0.101258	-0.135696
Cu9	Cu	1.483801	0.101128	-0.135705
O10	O	1.474085	-0.085622	-0.269885
C11	C	1.254201	-0.000053	-0.140965
C12	C	1.114784	-0.000046	-0.138254
N13	N	1.483769	-0.243605	-0.135689
C14	C	1.034504	-0.000043	-0.220895
C15	C	0.903507	-0.000061	-0.218342
C16	C	0.933084	-0.000081	-0.050500
C17	C	1.064078	-0.000070	-0.053054
C18	C	0.706724	-0.060023	-0.315671
C19	C	0.626439	-0.060002	-0.398316
C20	C	0.655893	-0.000022	-0.473239
C21	C	0.765629	0.059961	-0.465520
C22	C	0.845908	0.059950	-0.382873
C23	C	0.816456	-0.000054	-0.307954
C24	C	1.260862	0.059900	0.044269
C25	C	1.341144	0.059896	0.126917
C26	C	1.311694	-0.000077	0.201847
C27	C	1.201955	-0.060045	0.194138
C28	C	1.121673	-0.060041	0.111490
C29	C	1.151132	-0.000070	0.036559
C30	C	1.483799	-0.663419	-0.135706
C31	C	1.483787	-0.546614	-0.135705
C32	C	1.483785	-0.453516	-0.135698
C33	C	1.483772	-0.336703	-0.135695
C34	C	1.713377	-0.000074	-0.130436
C35	C	1.852794	-0.000075	-0.133147
C36	C	1.492579	-0.000075	0.032852
C37	C	1.489871	-0.000075	0.135247
N38	N	1.483818	0.243475	-0.135705
C39	C	1.474999	-0.000053	-0.304253
C40	C	1.477706	-0.000045	-0.406649
C41	C	1.479904	-0.000048	0.510195
C42	C	1.482672	-0.000056	0.405872
C43	C	1.484887	-0.000062	0.322724
C44	C	1.487656	-0.000068	0.218395
H45	H	1.075783	-0.000031	-0.290270
C46	C	0.798017	0.125945	-0.547944
N47	N	0.822417	0.175640	-0.610029
C48	C	1.461851	0.125876	0.135399
N49	N	1.552767	0.175573	0.141789
C50	C	0.966617	0.125920	-0.374382
N51	N	1.057542	0.175605	-0.367992
H52	H	0.590515	-0.000007	-0.540531
C53	C	0.674321	-0.126016	-0.233258
N54	N	0.649908	-0.175722	-0.171183
H55	H	0.537092	-0.108847	-0.404595
H56	H	0.891783	-0.000107	0.018867
C57	C	1.000978	-0.126037	0.103001
N58	N	0.910079	-0.175753	0.096603
H59	H	1.177973	-0.108877	0.255154
H60	H	1.284856	0.108733	-0.016746
H61	H	1.377064	-0.000064	0.269147
