data_functionalizedCrystal
_audit_creation_method	'MofGen! by Chris Wilmer'
_symmetry_space_group_name_H-M	'P1'
_symmetry_Int_Tables_number	1
_symmetry_cell_setting	triclinic
loop_
_symmetry_equiv_pos_as_xyz
  x,y,z
_cell_length_a	19.851628
_cell_length_b	12.970454
_cell_length_c	12.970454
_cell_angle_alpha	60.000396
_cell_angle_beta	89.999931
_cell_angle_gamma	60.004024
loop_
_atom_site_label
_atom_site_type_symbol
_atom_site_fract_x
_atom_site_fract_y
_atom_site_fract_z
Zr1	Zr	0.648904	1.128627	-0.135345
O2	O	0.541351	1.343696	-0.299958
O3	O	0.681875	0.913544	-0.084884
O4	O	0.681876	1.128632	-0.299971
O5	O	0.541349	1.128609	0.084797
O6	O	0.792725	1.128652	-0.299981
O7	O	0.541350	1.128608	-0.084870
O8	O	0.792722	0.743899	0.084772
O9	O	0.541352	1.513362	-0.299956
O10	O	0.778662	1.002031	-0.063368
O11	O	0.695936	1.002017	0.063259
O12	O	0.695938	1.255255	-0.189979
O13	O	0.613212	1.255241	-0.063352
Zr14	Zr	0.825694	1.128660	0.135239
Zr15	Zr	0.825695	1.128659	-0.135360
Zr16	Zr	0.648903	1.128629	0.135254
Zr17	Zr	0.648905	1.399225	-0.135343
Zr18	Zr	0.825693	0.858063	0.135236
O19	O	0.792724	1.343743	0.084777
O20	O	0.792725	1.343741	-0.299979
O21	O	0.541349	1.343698	0.084799
O22	O	0.933247	0.913592	0.299851
O23	O	0.933249	0.913590	-0.084905
O24	O	0.681873	0.913546	0.299873
O25	O	0.933249	1.128679	-0.084903
O26	O	0.792722	1.128655	0.299865
O27	O	0.681873	1.128635	0.299875
O28	O	0.933248	1.128680	0.084763
O29	O	0.681877	1.513387	-0.299968
O30	O	0.792721	0.743900	0.299862
O31	O	0.933246	0.743926	0.299850
O32	O	0.933247	0.743925	0.084760
O33	O	0.541351	1.513363	-0.084866
O34	O	0.681876	1.513388	-0.084878
O35	O	0.778660	1.002033	0.189873
O36	O	0.861386	1.002047	0.063245
O37	O	0.778662	1.255271	-0.063366
O38	O	0.695936	1.255257	0.063262
C39	C	0.737298	0.790168	-0.000056
C40	C	0.737298	0.675292	-0.000057
C41	C	0.516160	1.128604	-0.000034
C42	C	0.441108	1.128591	-0.000028
C43	C	0.304847	0.990555	0.068990
C44	C	0.237398	1.059571	0.119034
C45	C	0.303677	1.128628	-0.000044
C46	C	0.237391	1.059603	-0.050045
C47	C	0.170927	1.128655	-0.000059
C48	C	0.237216	1.197646	0.050069
C49	C	0.237219	1.197657	-0.119075
C50	C	0.169758	1.266775	-0.069062
C51	C	0.380151	1.128609	-0.000033
C52	C	0.094451	1.128685	-0.000068
C53	C	0.958438	1.128684	-0.000072
C54	C	1.033490	1.128697	-0.000078
C55	C	0.737301	1.128642	-0.338531
C56	C	0.737301	1.128641	-0.453407
C57	C	0.737300	1.467120	-0.000050
C58	C	0.737300	1.581996	-0.000049
C59	C	0.737297	1.128646	0.338424
C60	C	0.737297	1.128646	0.453301
C61	C	0.958437	0.790207	-0.000075
C62	C	1.033489	0.675345	-0.000082
C63	C	0.737297	0.790169	0.338421
C64	C	0.737296	0.675294	0.453297
C65	C	0.958435	0.790209	0.338403
C66	C	1.033487	0.675347	0.453271
C67	C	0.516163	1.467079	-0.338509
C68	C	0.441111	1.581940	-0.453378
C69	C	0.516161	1.467080	-0.000031
C70	C	0.441109	1.581943	-0.000024
C71	C	0.737301	1.467118	-0.338528
C72	C	0.737302	1.581994	-0.453403
C73	C	1.025553	0.621396	-0.066188
C74	C	1.096066	0.513486	-0.066220
C75	C	1.174514	0.459519	-0.000138
C76	C	1.182448	0.513478	0.065969
C77	C	1.111936	0.621394	0.065993
C78	C	1.111921	0.621415	0.441117
C79	C	1.182447	0.513505	0.549038
C80	C	1.174537	0.459523	0.669112
C81	C	1.096094	0.513466	0.681265
C82	C	1.025570	0.621381	0.573345
C83	C	0.362677	1.635886	-0.441223
C84	C	0.292151	1.743830	-0.549144
C85	C	0.300061	1.797818	-0.669219
C86	C	0.378504	1.743867	-0.681371
C87	C	0.449028	1.635933	-0.573451
C88	C	0.449045	1.635903	0.066070
C89	C	0.378532	1.743843	0.066073
C90	C	0.300084	1.797814	-0.000013
C91	C	0.292150	1.743849	-0.066115
C92	C	0.362662	1.635919	-0.066124
H93	H	0.362679	0.873807	0.127445
N94	N	0.223993	1.914231	-0.785613
H95	H	0.173107	1.940202	-0.759681
H96	H	0.224026	1.876589	-0.837519
H97	H	0.237816	1.255960	0.092466
N98	N	0.236489	0.982270	0.252353
H99	H	0.185704	1.052042	0.259816
H100	H	0.287456	0.946318	0.312908
N101	N	0.533650	1.577727	0.137337
H102	H	0.577124	1.501163	0.127311
H103	H	0.540184	1.533037	0.229767
H104	H	1.089589	0.469565	-0.120052
H105	H	0.356189	1.591987	-0.119943
N106	N	0.207552	1.802002	-0.536021
H107	H	0.213249	1.751405	-0.443577
H108	H	0.176407	1.783224	-0.577928
N109	N	0.238150	1.274900	-0.252380
H110	H	0.238911	1.222639	-0.290083
H111	H	0.288944	1.275131	-0.251339
H112	H	0.242676	1.885698	0.000005
H113	H	0.112018	1.383618	-0.127434
H114	H	0.385009	1.787763	0.119906
N115	N	1.120478	0.679618	0.311625
H116	H	1.093142	0.787963	0.263897
H117	H	1.093165	0.660722	0.263993
N118	N	0.207535	1.802052	-0.137369
H119	H	0.213197	1.751495	-0.179244
H120	H	0.176394	1.910399	-0.203809
H121	H	1.246312	0.469595	0.539121
N122	N	0.533620	1.577744	-0.586587
H123	H	0.564794	1.469405	-0.544770
H124	H	0.564757	1.596614	-0.544779
H125	H	0.384935	1.787838	-0.779148
H126	H	0.236730	1.001221	-0.092327
H127	H	0.356220	1.591935	-0.343462
H128	H	1.231922	0.371646	-0.000167
N129	N	0.940947	0.679588	-0.137464
H130	H	0.946631	0.629028	-0.179345
H131	H	0.909808	0.787935	-0.203903
H132	H	1.089665	0.469498	0.779043
N133	N	1.250607	0.343101	0.785503
H134	H	1.233701	0.317072	0.863421
H135	H	1.284521	0.380751	0.785432
N136	N	1.267062	0.455266	0.137238
H137	H	1.310520	0.378713	0.127188
H138	H	1.273600	0.410548	0.229673
H139	H	0.961708	0.665279	0.583259
H140	H	1.118409	0.665305	0.119832
