data_functionalizedCrystal
_audit_creation_method	'MofGen! by Chris Wilmer'
_symmetry_space_group_name_H-M	'P1'
_symmetry_Int_Tables_number	1
_symmetry_cell_setting	triclinic
loop_
_symmetry_equiv_pos_as_xyz
  x,y,z
_cell_length_a	12.759401
_cell_length_b	16.625546
_cell_length_c	12.759393
_cell_angle_alpha	90.036194
_cell_angle_beta	90.018496
_cell_angle_gamma	90.022629
loop_
_atom_site_label
_atom_site_type_symbol
_atom_site_fract_x
_atom_site_fract_y
_atom_site_fract_z
Zn1	Zn	1.606199	-0.320951	0.593948
Zn2	Zn	1.606069	-0.455807	0.418253
Zn3	Zn	1.430501	-0.320993	0.418287
Zn4	Zn	1.430465	-0.455745	0.593895
O5	O	1.518308	-0.388374	0.506096
O6	O	1.753203	-0.338848	0.570649
O7	O	1.582740	-0.437968	0.271237
O8	O	1.453876	-0.208155	0.441625
O9	O	1.753107	-0.437927	0.441568
O10	O	1.582961	-0.208124	0.570682
O11	O	1.453751	-0.338920	0.271261
O12	O	1.283475	-0.338860	0.441574
O13	O	1.453816	-0.437821	0.740923
O14	O	1.283449	-0.437862	0.570592
O15	O	1.582927	-0.338788	0.740962
O16	O	1.582706	-0.568632	0.441517
O17	O	1.453691	-0.568586	0.570560
C18	C	1.245341	-0.388359	0.506081
C19	C	1.128564	-0.388372	0.506100
C20	C	1.073717	-0.440005	0.573169
C21	C	0.963992	-0.440015	0.573180
C22	C	0.963974	-0.336758	0.439045
C23	C	1.073696	-0.336744	0.439040
C24	C	1.128585	-0.491634	0.640229
C25	C	1.073737	-0.543271	0.707303
C26	C	0.964013	-0.543282	0.707314
C27	C	0.909137	-0.491654	0.640252
C28	C	1.518209	-0.597865	0.506052
C29	C	1.518263	-0.687486	0.506068
C30	C	1.518446	-1.015662	0.506177
C31	C	1.518392	-0.924353	0.506150
C32	C	1.518353	-0.851577	0.506122
C33	C	1.518301	-0.760262	0.506096
C34	C	1.792342	-0.388390	0.506111
C35	C	1.909118	-0.388396	0.506117
C36	C	1.518382	-0.388293	0.780129
C37	C	1.518413	-0.388258	0.896906
C38	C	1.518437	-0.178065	0.506163
C39	C	1.518492	-0.088444	0.506191
C40	C	1.518296	-0.388397	0.233128
C41	C	1.518468	-0.388204	0.116352
C42	C	1.585650	-0.336687	0.951790
C43	C	1.585675	-0.336657	1.061514
C44	C	1.451223	-0.439778	1.061461
C45	C	1.451194	-0.439803	0.951739
C46	C	1.652870	-0.285142	0.896957
C47	C	1.720113	-0.233567	0.951841
C48	C	1.720138	-0.233538	1.061565
C49	C	1.652920	-0.285084	1.116405
H50	H	0.919358	-0.585322	0.761936
H51	H	0.819792	-0.491660	0.640276
H52	H	1.774833	-0.191595	0.907183
O53	O	1.127102	-0.286705	0.373836
C54	C	1.190511	-0.332547	0.305856
H55	H	1.206933	-0.393685	0.342767
H56	H	1.267678	-0.299688	0.291857
H57	H	1.148200	-0.341338	0.227975
H58	H	1.652934	-0.285046	1.205750
O59	O	1.385990	-0.489964	1.114613
C60	C	1.408913	-0.570334	1.087785
H61	H	1.449276	-0.572024	1.008119
H62	H	1.333067	-0.606486	1.084013
H63	H	1.462932	-0.597480	1.149527
O64	O	1.785550	-0.183413	1.114719
C65	C	1.844848	-0.137912	1.042789
H66	H	1.848443	-0.170959	0.964563
H67	H	1.927640	-0.129311	1.074500
H68	H	1.806415	-0.076673	1.031140
H69	H	0.919285	-0.294726	0.384446
O70	O	1.386039	-0.489940	0.898291
C71	C	1.445822	-0.542040	0.834825
H72	H	1.525456	-0.513606	0.818426
H73	H	1.403016	-0.552853	0.757651
H74	H	1.457336	-0.601788	0.877076
H75	H	1.118424	-0.585299	0.761909
O76	O	1.235169	-0.491772	0.640216
C77	C	1.271787	-0.569014	0.613013
H78	H	1.208548	-0.615480	0.630856
H79	H	1.345209	-0.583385	0.660357
H80	H	1.291216	-0.570636	0.525832
O81	O	1.652945	-0.285042	0.790373
C82	C	1.726710	-0.228506	0.753742
H83	H	1.741473	-0.181381	0.816990
H84	H	1.695013	-0.197925	0.680344
H85	H	1.803290	-0.260493	0.734269
