data_functionalizedCrystal
_audit_creation_method	'MofGen! by Chris Wilmer'
_symmetry_space_group_name_H-M	'P1'
_symmetry_Int_Tables_number	1
_symmetry_cell_setting	triclinic
loop_
_symmetry_equiv_pos_as_xyz
  x,y,z
_cell_length_a	11.026607
_cell_length_b	10.489741
_cell_length_c	9.482900
_cell_angle_alpha	99.430409
_cell_angle_beta	78.636152
_cell_angle_gamma	96.562595
loop_
_atom_site_label
_atom_site_type_symbol
_atom_site_fract_x
_atom_site_fract_y
_atom_site_fract_z
O1	O	1.633618	0.519526	-0.120902
O2	O	1.279780	0.458584	-0.120903
O3	O	1.464749	0.305229	-0.120894
O4	O	1.448649	0.672881	-0.120911
O5	O	1.427179	0.336539	0.120897
O6	O	1.242210	0.489894	0.120887
O7	O	1.596048	0.550836	0.120889
Cu8	Cu	1.415698	0.523224	0.142965
Cu9	Cu	1.460129	0.486196	-0.142980
O10	O	1.411079	0.704190	0.120879
C11	C	1.215686	0.462996	-0.000008
C12	C	1.080679	0.429482	-0.000008
C13	C	1.007683	0.522021	-0.000014
C14	C	0.868146	0.487384	-0.000014
C15	C	1.444748	0.273085	0.000000
C16	C	1.441110	0.130655	-0.000002
C17	C	1.323420	0.036624	-0.000013
C18	C	1.360492	-0.027831	0.119202
C19	C	1.397561	-0.058669	-0.119184
C20	C	1.478215	0.068088	0.119312
C21	C	1.515284	0.037242	-0.119182
C22	C	1.552438	-0.027163	0.000063
C23	C	1.660143	0.546423	-0.000010
C24	C	1.795151	0.579936	-0.000019
C25	C	1.431080	0.736334	-0.000018
C26	C	1.434720	0.878763	-0.000025
N27	N	1.384457	0.549268	0.344084
N28	N	1.491380	0.460144	-0.344099
C29	C	1.450906	0.493869	0.416286
C30	C	1.424922	0.515551	0.583703
H31	H	1.226636	0.065005	0.000107
H32	H	1.527029	0.430383	0.354162
H33	H	1.348785	0.579029	0.645823
H34	H	0.827348	0.382504	-0.000046
O35	O	0.843907	0.705003	-0.000301
C36	C	0.935969	0.713658	-0.125516
H37	H	0.918905	0.628667	-0.213022
H38	H	1.031310	0.710687	-0.097205
C39	C	0.951753	0.946322	-0.074857
C40	C	0.930788	0.841941	-0.182338
H41	H	0.948563	1.025455	-0.109905
H42	H	0.889733	0.940492	0.009506
H43	H	1.031203	0.943828	-0.051275
H44	H	0.851334	0.844426	-0.205905
H45	H	0.992796	0.847774	-0.266707
H46	H	1.308326	0.612742	0.406210
O47	O	1.056564	0.647059	-0.000077
C48	C	1.184998	0.653809	-0.000032
H49	H	1.220900	0.554930	-0.045808
H50	H	1.202340	0.683076	0.115969
C51	C	1.209275	0.876665	-0.038627
C52	C	1.253372	0.755222	-0.094861
H53	H	1.251452	0.939225	-0.097115
H54	H	1.122745	0.872120	-0.038651
H55	H	1.223729	0.901036	0.058040
H56	H	1.238903	0.730846	-0.191518
H57	H	1.339901	0.759766	-0.094854
O58	O	1.032025	0.304385	0.000252
C59	C	1.051709	0.259412	0.125459
H60	H	1.065185	0.345551	0.212985
H61	H	1.138065	0.203382	0.097148
C62	C	0.921801	0.063817	0.074742
C63	C	0.938342	0.169614	0.182247
H64	H	0.851875	0.008421	0.109769
H65	H	0.908543	0.094113	-0.009616
H66	H	0.993772	0.017140	0.051159
H67	H	0.866379	0.216297	0.205815
H68	H	0.951586	0.139324	0.266610
H69	H	1.649280	-0.055274	0.000129
O70	O	1.581926	0.384057	0.581795
C71	C	1.529247	0.279027	0.494012
H72	H	1.438282	0.305613	0.471233
H73	H	1.510562	0.190366	0.552853
C74	C	1.731545	0.215496	0.377387
C75	C	1.619826	0.248154	0.349399
H76	H	1.787419	0.196447	0.288185
H77	H	1.767036	0.286253	0.436531
H78	H	1.715957	0.141616	0.426424
H79	H	1.635413	0.322042	0.300379
H80	H	1.584339	0.177408	0.290242
H81	H	1.295034	-0.056746	0.219990
O82	O	1.593482	0.071876	-0.239270
C83	C	1.690011	0.160896	-0.196535
H84	H	1.701089	0.149268	-0.082421
H85	H	1.666594	0.263897	-0.196964
C86	C	1.798519	0.148986	-0.443583
C87	C	1.812131	0.134697	-0.303429
H88	H	1.873848	0.132831	-0.509522
H89	H	1.733483	0.089015	-0.472376
H90	H	1.779001	0.234821	-0.443919
H91	H	1.831634	0.048859	-0.303091
H92	H	1.877174	0.194653	-0.274639
O93	O	1.356652	-0.124127	-0.239384
C94	C	1.235856	-0.091955	-0.238906
H95	H	1.219967	0.006122	-0.169110
H96	H	1.164964	-0.169259	-0.192380
C97	C	1.240645	-0.205334	-0.481242
C98	C	1.221134	-0.084869	-0.395527
H99	H	1.231560	-0.200969	-0.577852
H100	H	1.322026	-0.227014	-0.481563
H101	H	1.181566	-0.269741	-0.442453
H102	H	1.280222	-0.020468	-0.434305
H103	H	1.139763	-0.063178	-0.395216
H104	H	1.512292	0.122930	0.220212
