data_functionalizedCrystal
_audit_creation_method	'MofGen! by Chris Wilmer'
_symmetry_space_group_name_H-M	'P1'
_symmetry_Int_Tables_number	1
_symmetry_cell_setting	triclinic
loop_
_symmetry_equiv_pos_as_xyz
  x,y,z
_cell_length_a	10.654550
_cell_length_b	15.021413
_cell_length_c	10.654551
_cell_angle_alpha	89.994178
_cell_angle_beta	84.485180
_cell_angle_gamma	90.004146
loop_
_atom_site_label
_atom_site_type_symbol
_atom_site_fract_x
_atom_site_fract_y
_atom_site_fract_z
O1	O	1.667849	0.073962	0.176382
O2	O	1.302370	0.073978	0.193188
O3	O	1.493512	0.073968	0.002046
O4	O	1.476707	0.073972	0.367524
O5	O	1.493481	-0.074097	0.002073
O6	O	1.302340	-0.074086	0.193216
O7	O	1.667818	-0.074102	0.176410
Zn8	Zn	1.485074	-0.097603	0.184817
Zn9	Zn	1.485114	0.097478	0.184781
O10	O	1.476677	-0.074092	0.367552
C11	C	1.255557	-0.000052	0.191968
C12	C	1.116114	-0.000046	0.188276
N13	N	1.485056	-0.230740	0.184841
C14	C	1.036629	-0.000047	0.300818
C15	C	0.905608	-0.000063	0.297341
C16	C	0.933570	-0.000072	0.068772
C17	C	1.064588	-0.000063	0.072249
C18	C	1.396658	-0.470419	0.273183
C19	C	1.510356	-0.529758	0.298547
C20	C	1.485088	-0.412347	0.184810
C21	C	1.371421	-0.529750	0.159474
C22	C	1.485109	-0.587771	0.184782
C23	C	1.598843	-0.470380	0.210231
C24	C	1.459834	-0.470367	0.071107
C25	C	1.573613	-0.529679	0.096424
C26	C	1.485074	-0.311290	0.184829
C27	C	1.485135	-0.688827	0.184763
C28	C	1.714632	-0.000070	0.177630
C29	C	1.854075	-0.000071	0.181322
C30	C	1.492262	-0.000063	-0.044738
C31	C	1.488570	-0.000059	-0.184181
N32	N	1.485143	0.230616	0.184747
C33	C	1.486854	0.080652	-0.249700
C34	C	1.483373	0.080653	-0.380720
C35	C	1.483332	-0.080775	-0.380692
C36	C	1.486803	-0.080775	-0.249673
C37	C	1.477926	-0.000059	0.414336
C38	C	1.481619	-0.000058	0.553779
H39	H	0.840896	-0.000065	0.388984
H40	H	1.321953	-0.444399	0.347979
C41	C	0.917070	0.076034	-0.127134
C42	C	0.876930	-0.000079	-0.058762
H43	H	0.882110	0.076027	-0.205872
H44	H	0.889850	0.127656	-0.080757
H45	H	1.006477	0.076027	-0.141160
H46	H	0.787523	-0.000069	-0.044727
H47	H	0.904143	-0.051716	-0.105149
H48	H	1.488289	0.146376	-0.196380
C49	C	1.478059	0.152332	-0.581570
C50	C	1.481488	0.169372	-0.452740
H51	H	1.476886	0.207108	-0.626028
H52	H	1.550584	0.119170	-0.611974
H53	H	1.404366	0.119175	-0.594080
H54	H	1.555186	0.202525	-0.440230
H55	H	1.408956	0.202549	-0.422328
H56	H	1.695000	-0.444411	0.231763
H57	H	1.531735	-0.555845	0.394691
C58	C	1.793571	-0.534463	0.022342
C59	C	1.674682	-0.564597	-0.004482
H60	H	1.855967	-0.556027	-0.039946
H61	H	1.794563	-0.471236	0.022267
H62	H	1.810819	-0.555704	0.102893
H63	H	1.657429	-0.543350	-0.085029
H64	H	1.673687	-0.627837	-0.004420
H65	H	1.129309	-0.000065	-0.019401
H66	H	1.488193	-0.146503	-0.196326
C67	C	1.478018	-0.152453	-0.581528
C68	C	1.481414	-0.169495	-0.452689
H69	H	1.476847	-0.207228	-0.625972
H70	H	1.404349	-0.119297	-0.594064
H71	H	1.550568	-0.119288	-0.611926
H72	H	1.408859	-0.202655	-0.422288
H73	H	1.555090	-0.202665	-0.440145
H74	H	1.078576	-0.000040	0.395294
H75	H	1.438420	-0.444259	-0.025006
H76	H	1.275287	-0.555831	0.138057
