data_functionalizedCrystal
_audit_creation_method	'MofGen! by Chris Wilmer'
_symmetry_space_group_name_H-M	'P1'
_symmetry_Int_Tables_number	1
_symmetry_cell_setting	triclinic
loop_
_symmetry_equiv_pos_as_xyz
  x,y,z
_cell_length_a	12.996460
_cell_length_b	8.559649
_cell_length_c	8.559649
_cell_angle_alpha	69.778664
_cell_angle_beta	89.995421
_cell_angle_gamma	89.994502
loop_
_atom_site_label
_atom_site_type_symbol
_atom_site_fract_x
_atom_site_fract_y
_atom_site_fract_z
O1	O	0.085551	-2.126883	0.055032
O2	O	0.085555	-1.651398	-0.028749
O3	O	0.085551	-1.931031	0.250884
O4	O	0.085554	-1.847250	-0.224601
O5	O	-0.085583	-1.931007	0.250895
O6	O	-0.085579	-1.651374	-0.028738
O7	O	-0.085583	-2.126859	0.055043
Cu8	Cu	-0.101207	-1.889114	0.013153
Cu9	Cu	0.101179	-1.889143	0.013141
O10	O	-0.085580	-1.847226	-0.224590
C11	C	-0.000012	-1.591077	-0.035093
C12	C	-0.000010	-1.411378	-0.053992
N13	N	-0.243554	-1.889106	0.013164
C14	C	-0.000014	-1.937369	0.311198
C15	C	-0.000008	-1.956268	0.490898
C16	C	-0.663368	-1.889141	0.013139
C17	C	-0.546563	-1.889126	0.013140
C18	C	-0.453465	-1.889124	0.013150
C19	C	-0.336652	-1.889108	0.013154
N20	N	0.243526	-1.889166	0.013144
C21	C	-0.000014	-2.187180	0.061387
C22	C	-0.000009	-2.366879	0.080286
C23	C	-0.000012	-1.840889	-0.284904
C24	C	-0.000011	-1.821990	-0.464604
H25	H	-0.000005	-1.466258	0.209705
H26	H	-0.000004	-1.311990	-0.183420
H27	H	-0.000013	-1.692570	0.436018
N28	N	-0.000026	-2.127716	0.622531
H29	H	-0.000034	-2.117376	0.736552
H30	H	0.063416	-2.190246	0.609479
