data_functionalizedCrystal
_audit_creation_method	'MofGen! by Chris Wilmer'
_symmetry_space_group_name_H-M	'P1'
_symmetry_Int_Tables_number	1
_symmetry_cell_setting	triclinic
loop_
_symmetry_equiv_pos_as_xyz
  x,y,z
_cell_length_a	16.109301
_cell_length_b	15.021413
_cell_length_c	16.109301
_cell_angle_alpha	89.997407
_cell_angle_beta	83.461481
_cell_angle_gamma	90.004594
loop_
_atom_site_label
_atom_site_type_symbol
_atom_site_fract_x
_atom_site_fract_y
_atom_site_fract_z
O1	O	1.103137	0.073979	0.106856
O2	O	1.603137	0.573979	0.606856
O3	O	0.861075	0.073993	0.120155
O4	O	1.361075	0.573993	0.620155
O5	O	0.988755	0.073976	-0.007525
O6	O	1.488755	0.573976	0.492475
O7	O	0.975456	0.073995	0.234537
O8	O	1.475456	0.573995	0.734537
O9	O	0.988735	-0.074088	-0.007507
O10	O	1.488735	0.425912	0.492493
O11	O	0.861054	-0.074071	0.120174
O12	O	1.361054	0.425929	0.620174
O13	O	1.103116	-0.074086	0.106874
O14	O	1.603116	0.425914	0.606874
Zn15	Zn	0.982082	-0.097587	0.113527
Zn16	Zn	1.482082	0.402413	0.613527
Zn17	Zn	0.982109	0.097494	0.113503
Zn18	Zn	1.482109	0.597494	0.613503
O19	O	0.975436	-0.074069	0.234555
O20	O	1.475436	0.425931	0.734555
C21	C	0.830090	-0.000037	0.119626
C22	C	1.330090	0.499963	0.619626
C23	C	0.737794	-0.000032	0.118011
C24	C	1.237794	0.499968	0.618011
N25	N	0.982070	-0.230724	0.113543
N26	N	1.482070	0.269276	0.613543
C27	C	0.515522	-0.000037	0.190018
C28	C	1.015522	0.499963	0.690018
C29	C	0.428801	-0.000043	0.188494
C30	C	0.928801	0.499957	0.688494
C31	C	0.448676	-0.000051	0.037006
C32	C	0.948676	0.499949	0.537006
C33	C	0.535394	-0.000051	0.038530
C34	C	1.035394	0.499949	0.538530
C35	C	0.568815	-0.000040	0.115039
C36	C	1.068815	0.499960	0.615039
C37	C	0.395376	-0.000045	0.111990
C38	C	0.895376	0.499955	0.611990
C39	C	0.301350	-0.000051	0.110337
C40	C	0.801350	0.499949	0.610337
C41	C	0.662847	-0.000035	0.116693
C42	C	1.162847	0.499965	0.616693
C43	C	0.923021	-0.470400	0.172554
C44	C	1.423021	0.029600	0.672554
C45	C	0.998143	-0.529737	0.188671
C46	C	1.498143	-0.029737	0.688671
C47	C	0.982091	-0.412331	0.113522
C48	C	1.482091	0.087669	0.613522
C49	C	0.906990	-0.529735	0.097424
C50	C	1.406990	-0.029735	0.597424
C51	C	0.982105	-0.587755	0.113504
C52	C	1.482105	-0.087755	0.613504
C53	C	1.057251	-0.470362	0.129676
C54	C	1.557251	0.029638	0.629676
C55	C	0.966048	-0.470355	0.038396
C56	C	1.466048	0.029645	0.538396
C57	C	1.041224	-0.529666	0.054481
C58	C	1.541224	-0.029666	0.554481
C59	C	0.982082	-0.311274	0.113535
C60	C	1.482082	0.188726	0.613535
C61	C	0.982123	-0.688811	0.113491
C62	C	1.482123	-0.188811	0.613491
C63	C	1.134101	-0.000053	0.107404
C64	C	1.634101	0.499947	0.607404
C65	C	1.226397	-0.000053	0.109019
C66	C	1.726397	0.499947	0.609019
C67	C	0.988206	-0.000056	-0.038491
C68	C	1.488206	0.499944	0.461509
C69	C	0.986591	-0.000057	-0.130786
C70	C	1.486591	0.499943	0.369214
N71	N	0.982128	0.230632	0.113480
N72	N	1.482128	0.730632	0.613480
C73	C	1.058599	-0.000048	-0.353059
C74	C	1.558599	0.499952	0.146941
C75	C	1.057075	-0.000040	-0.439779
C76	C	1.557075	0.499960	0.060221
C77	C	0.905586	-0.000035	-0.419905
C78	C	1.405586	0.499965	0.080095
C79	C	0.907111	-0.000036	-0.333186
C80	C	1.407111	0.499964	0.166814
C81	C	0.983620	-0.000047	-0.299766
C82	C	1.483620	0.499953	0.200234
C83	C	0.980571	-0.000038	-0.473205
C84	C	1.480571	0.499962	0.026795
C85	C	0.978918	-0.000030	-0.567231
C86	C	1.478918	0.499970	-0.067231
C87	C	0.985273	-0.000053	-0.205734
C88	C	1.485273	0.499947	0.294266
C89	C	0.975984	-0.000034	0.265521
C90	C	1.475984	0.499966	0.765521
C91	C	0.977600	-0.000027	0.357816
C92	C	1.477600	0.499973	0.857816
H93	H	0.385413	-0.000042	0.249550
H94	H	0.885413	0.499958	0.749550
O95	O	1.137946	-0.000043	-0.497261
O96	O	1.637946	0.499957	0.002739
H97	H	1.140862	-0.060386	-0.537248
H98	H	1.640862	0.439614	-0.037248
H99	H	0.846050	-0.000032	-0.289792
H100	H	1.346050	0.499968	0.210208
O101	O	0.551573	-0.000043	0.272534
O102	O	1.051573	0.499957	0.772534
H103	H	0.499942	-0.000053	0.324415
H104	H	0.999942	0.499947	0.824415
O105	O	0.412631	-0.000057	-0.045513
O106	O	0.912631	0.499943	0.454487
H107	H	0.343376	-0.000047	-0.033979
H108	H	0.843376	0.499953	0.466021
O109	O	0.592885	-0.000056	-0.042343
O110	O	1.092885	0.499944	0.457657
H111	H	0.555079	-0.000052	-0.095801
H112	H	1.055079	0.499948	0.404199
H113	H	0.873118	-0.444378	0.222517
H114	H	1.373118	0.055622	0.722517
H115	H	1.120897	-0.000055	-0.325851
H116	H	1.620897	0.499945	0.174149
O117	O	0.823067	-0.000042	-0.455950
O118	O	1.323067	0.499958	0.044050
H119	H	0.834602	-0.000054	-0.525205
H120	H	1.334602	0.499946	-0.025205
O121	O	1.016110	-0.564344	0.272802
O122	O	1.516110	-0.064344	0.772802
H123	H	0.966979	-0.540633	0.321706
H124	H	1.466979	-0.040633	0.821706
O125	O	1.141407	-0.435974	0.147806
O126	O	1.641407	0.064026	0.647806
H127	H	1.140730	-0.362087	0.147705
H128	H	1.640730	0.137913	0.647705
H129	H	1.091238	-0.555525	0.004548
H130	H	1.591238	-0.055525	0.504548
O131	O	0.948037	-0.435769	-0.045723
O132	O	1.448037	0.064231	0.454277
H133	H	0.890801	-0.394077	-0.037763
H134	H	1.390801	0.105923	0.462237
O135	O	0.822858	-0.564284	0.079388
O136	O	1.322858	-0.064284	0.579388
H137	H	0.773935	-0.540538	0.128483
H138	H	1.273935	-0.040538	0.628483
