data_functionalizedCrystal
_audit_creation_method	'MofGen! by Chris Wilmer'
_symmetry_space_group_name_H-M	'P1'
_symmetry_Int_Tables_number	1
_symmetry_cell_setting	triclinic
loop_
_symmetry_equiv_pos_as_xyz
  x,y,z
_cell_length_a	21.395364
_cell_length_b	18.101397
_cell_length_c	21.395356
_cell_angle_alpha	90.027036
_cell_angle_beta	90.016383
_cell_angle_gamma	90.035417
loop_
_atom_site_label
_atom_site_type_symbol
_atom_site_fract_x
_atom_site_fract_y
_atom_site_fract_z
Zn1	Zn	0.957853	-0.294568	0.354255
Zn2	Zn	1.457853	0.205432	0.854255
Zn3	Zn	0.957789	-0.418407	0.249475
Zn4	Zn	1.457789	0.081593	0.749475
Zn5	Zn	0.853083	-0.294616	0.249492
Zn6	Zn	1.353083	0.205384	0.749492
Zn7	Zn	0.853056	-0.418405	0.354215
Zn8	Zn	1.353056	0.081595	0.854215
O9	O	0.905446	-0.356499	0.301860
O10	O	1.405446	0.143501	0.801860
O11	O	1.045523	-0.310976	0.340366
O12	O	1.545523	0.189024	0.840366
O13	O	0.943885	-0.402006	0.161800
O14	O	1.443885	0.097994	0.661800
O15	O	0.867019	-0.190977	0.263413
O16	O	1.367019	0.309023	0.763413
O17	O	1.045476	-0.401960	0.263384
O18	O	1.545476	0.098040	0.763384
O19	O	0.943993	-0.190941	0.340382
O20	O	1.443993	0.309059	0.840382
O21	O	0.866957	-0.311058	0.161812
O22	O	1.366957	0.188942	0.661812
O23	O	0.765402	-0.311056	0.263374
O24	O	1.265402	0.188944	0.763374
O25	O	0.866973	-0.401957	0.441899
O26	O	1.366973	0.098043	0.941899
O27	O	0.765382	-0.402003	0.340314
O28	O	1.265382	0.097997	0.840314
O29	O	0.943967	-0.310974	0.441928
O30	O	1.443967	0.189026	0.941928
O31	O	0.943858	-0.522039	0.263346
O32	O	1.443858	-0.022039	0.763346
O33	O	0.866911	-0.522038	0.340298
O34	O	1.366911	-0.022038	0.840298
C35	C	0.742658	-0.356535	0.301842
C36	C	1.242658	0.143465	0.801842
C37	C	0.673017	-0.356568	0.301849
C38	C	1.173017	0.143432	0.801849
C39	C	0.640350	-0.309270	0.341995
C40	C	1.140350	0.190730	0.841995
C41	C	0.574915	-0.309251	0.341998
C42	C	1.074915	0.190749	0.841998
C43	C	0.542148	-0.356542	0.301861
C44	C	1.042148	0.143458	0.801861
C45	C	0.574823	-0.403843	0.261707
C46	C	1.074823	0.096157	0.761707
C47	C	0.640257	-0.403856	0.261701
C48	C	1.140257	0.096144	0.761701
C49	C	0.438435	-0.423235	0.296822
C50	C	0.938435	0.076765	0.796822
C51	C	0.373002	-0.423223	0.296832
C52	C	0.873002	0.076777	0.796832
C53	C	0.340328	-0.356501	0.301875
C54	C	0.840328	0.143499	0.801875
C55	C	0.373094	-0.289789	0.306920
C56	C	0.873094	0.210211	0.806920
C57	C	0.438529	-0.289802	0.306915
C58	C	0.938529	0.210198	0.806915
C59	C	0.471196	-0.356533	0.301862
C60	C	0.971196	0.143467	0.801862
C61	C	0.236709	-0.309178	0.342026
C62	C	0.736709	0.190822	0.842026
C63	C	0.171272	-0.309157	0.342024
C64	C	0.671272	0.190843	0.842024
C65	C	0.171181	-0.403756	0.261736
C66	C	0.671181	0.096244	0.761736
C67	C	0.236616	-0.403770	0.261734
C68	C	0.736616	0.096230	0.761734
C69	C	0.269376	-0.356482	0.301883
C70	C	0.769376	0.143518	0.801883
C71	C	0.905392	-0.548909	0.301829
C72	C	1.405392	-0.048909	0.801829
C73	C	0.905426	-0.631223	0.301837
C74	C	1.405426	-0.131223	0.801837
C75	C	0.905506	-0.930314	0.301894
C76	C	1.405506	-0.430314	0.801894
C77	C	0.953784	-0.898959	0.253348
C78	C	1.453784	-0.398959	0.753348
C79	C	0.953952	-0.813341	0.253474
C80	C	1.453952	-0.313341	0.753474
C81	C	0.905467	-0.781932	0.301865
C82	C	1.405467	-0.281932	0.801865
C83	C	0.923362	-0.812938	0.367908
C84	C	1.423362	-0.312938	0.867908
C85	C	0.923736	-0.898583	0.367644
C86	C	1.423736	-0.398583	0.867644
C87	C	0.839204	-0.898843	0.284969
C88	C	1.339204	-0.398843	0.784969
C89	C	0.839531	-0.813193	0.283495
C90	C	1.339531	-0.313193	0.783495
C91	C	0.905443	-0.698072	0.301853
C92	C	1.405443	-0.198072	0.801853
C93	C	0.905531	-1.014174	0.301911
C94	C	1.405531	-0.514174	0.801911
C95	C	1.068869	-0.356463	0.301878
C96	C	1.568869	0.143537	0.801878
C97	C	1.138510	-0.356448	0.301885
C98	C	1.638510	0.143552	0.801885
C99	C	0.905474	-0.356460	0.465283
C100	C	1.405474	0.143540	0.965283
C101	C	0.905486	-0.356443	0.534924
C102	C	1.405486	0.143557	1.034924
C103	C	0.905516	-0.163337	0.301904
C104	C	1.405516	0.336663	0.801904
C105	C	0.905547	-0.081023	0.301923
C106	C	1.405547	0.418977	0.801923
C107	C	0.905453	-0.356484	0.139072
C108	C	1.405453	0.143516	0.639072
C109	C	0.905562	-0.356292	0.069431
C110	C	1.405562	0.143708	0.569431
C111	C	0.945613	-0.403645	1.036715
C112	C	1.445613	0.096355	1.536715
C113	C	0.945602	-0.403668	0.971279
C114	C	1.445602	0.096332	1.471279
C115	C	0.905546	-0.356326	0.938563
C116	C	1.405546	0.143674	1.438563
C117	C	0.865488	-0.308970	0.971287
C118	C	1.365488	0.191030	1.471287
C119	C	0.865496	-0.308953	1.036721
C120	C	1.365496	0.191047	1.536721
C121	C	0.900611	-0.289632	0.834909
C122	C	1.400611	0.210368	1.334909
C123	C	0.900607	-0.289648	0.769476
C124	C	1.400607	0.210352	1.269476
C125	C	0.905518	-0.356378	0.736742
C126	C	1.405518	0.143622	1.236742
C127	C	0.910446	-0.423095	0.769449
C128	C	1.410446	0.076905	1.269449
C129	C	0.910454	-0.423078	0.834883
C130	C	1.410454	0.076922	1.334883
C131	C	0.905533	-0.356339	0.867610
C132	C	1.405533	0.143661	1.367610
C133	C	0.945559	-0.403761	0.633073
C134	C	1.445559	0.096239	1.133073
C135	C	0.945543	-0.403785	0.567636
C136	C	1.445543	0.096215	1.067636
C137	C	0.865432	-0.309080	0.567645
C138	C	1.365432	0.190920	1.067645
C139	C	0.865445	-0.309062	0.633081
C140	C	1.365445	0.190938	1.133081
C141	C	0.905511	-0.356401	0.665790
C142	C	1.405511	0.143599	1.165790
H143	H	0.465205	-0.235482	0.311021
H144	H	0.965205	0.264518	0.811021
H145	H	0.666853	-0.442373	0.229008
H146	H	1.166853	0.057627	0.729008
H147	H	0.942756	-0.792379	0.204504
H148	H	1.442756	-0.292379	0.704504
H149	H	0.346493	-0.235457	0.311027
H150	H	0.846493	0.264543	0.811027
Br151	Br	0.894292	-0.199026	0.879327
Br152	Br	1.394292	0.300974	1.379327
H153	H	0.826037	-0.792935	0.234893
H154	H	1.326037	-0.292935	0.734893
H155	H	0.144503	-0.442261	0.229055
H156	H	0.644503	0.057739	0.729055
Br157	Br	0.811126	-0.244718	0.926888
Br158	Br	1.311126	0.255282	1.426888
H159	H	0.801626	-0.791822	0.316264
H160	H	1.301626	-0.291822	0.816264
H161	H	0.822923	-0.920505	0.237646
H162	H	1.322923	-0.420505	0.737646
Br163	Br	0.280953	-0.467958	0.207242
Br164	Br	0.780953	0.032042	0.707242
Br165	Br	0.328539	-0.513761	0.289998
Br166	Br	0.828539	-0.013761	0.789998
Br167	Br	1.004512	-0.931764	0.391539
Br168	Br	1.504512	-0.431764	0.891539
Br169	Br	0.867666	-0.933156	0.429978
Br170	Br	1.367666	-0.433156	0.929978
H171	H	0.832881	-0.270391	1.063359
H172	H	1.332881	0.229609	1.563359
H173	H	0.667019	-0.270764	0.374687
H174	H	1.167019	0.229236	0.874687
H175	H	0.548313	-0.270732	0.374689
H176	H	1.048313	0.229268	0.874689
H177	H	0.914446	-0.477434	0.742798
H178	H	1.414446	0.022566	1.242798
Br179	Br	0.999933	-0.468004	0.677469
Br180	Br	1.499933	0.031996	1.177469
Br181	Br	0.281172	-0.244999	0.396507
Br182	Br	0.781172	0.255001	0.896507
Br183	Br	0.126938	-0.244956	0.396508
Br184	Br	0.626938	0.255044	0.896508
H185	H	0.465033	-0.477572	0.292715
H186	H	0.965033	0.022428	0.792715
H187	H	0.548140	-0.442347	0.229026
H188	H	1.048140	0.057653	0.729026
Br189	Br	0.779249	-0.932642	0.343900
Br190	Br	1.279249	-0.432642	0.843900
H191	H	0.942724	-0.919602	0.204232
H192	H	1.442724	-0.419602	0.704232
Br193	Br	0.999982	-0.467898	1.081104
Br194	Br	1.499982	0.032102	1.581104
H195	H	1.002629	-0.920413	0.264418
H196	H	1.502629	-0.420413	0.764418
Br197	Br	0.999958	-0.467940	0.926868
Br198	Br	1.499958	0.032060	1.426868
Br199	Br	1.035810	-0.779069	0.272142
Br200	Br	1.535810	-0.279069	0.772142
Br201	Br	1.003235	-0.777071	0.392212
Br202	Br	1.503235	-0.277071	0.892212
Br203	Br	0.999898	-0.468062	0.523234
Br204	Br	1.499898	0.031938	1.023234
Br205	Br	0.866542	-0.779042	0.429818
Br206	Br	1.366542	-0.279042	0.929818
H207	H	0.914464	-0.477402	0.861510
H208	H	1.414464	0.022598	1.361510
Br209	Br	0.811051	-0.244851	0.523251
Br210	Br	1.311051	0.255149	1.023251
Br211	Br	0.893928	-0.199104	0.725094
Br212	Br	1.393928	0.300896	1.225094
Br213	Br	0.811076	-0.244807	0.677485
Br214	Br	1.311076	0.255193	1.177485
