data_functionalizedCrystal
_audit_creation_method	'MofGen! by Chris Wilmer'
_symmetry_space_group_name_H-M	'P1'
_symmetry_Int_Tables_number	1
_symmetry_cell_setting	triclinic
loop_
_symmetry_equiv_pos_as_xyz
  x,y,z
_cell_length_a	12.837943
_cell_length_b	17.666332
_cell_length_c	19.188924
_cell_angle_alpha	89.991448
_cell_angle_beta	91.014548
_cell_angle_gamma	90.008016
loop_
_atom_site_label
_atom_site_type_symbol
_atom_site_fract_x
_atom_site_fract_y
_atom_site_fract_z
O1	O	1.374632	0.062942	-0.181454
O2	O	1.072867	0.062946	-0.172490
O3	O	1.232461	0.062935	-0.075913
O4	O	1.215037	0.062953	-0.278030
O5	O	1.232433	-0.062962	-0.075906
O6	O	1.072839	-0.062950	-0.172483
O7	O	1.374604	-0.062955	-0.181446
Cu8	Cu	1.223719	-0.074448	-0.176964
Cu9	Cu	1.223752	0.074440	-0.176973
O10	O	1.215009	-0.062943	-0.278023
C11	C	1.034246	-0.000002	-0.169458
C12	C	0.919210	-0.000000	-0.160428
N13	N	1.223703	-0.179167	-0.176957
C14	C	0.677756	-0.000002	-0.268995
C15	C	0.569669	-0.000001	-0.260513
C16	C	0.594947	-0.000004	-0.134982
C17	C	0.703034	-0.000005	-0.143464
C18	C	0.744434	-0.000002	-0.210473
C19	C	0.852523	0.000003	-0.218954
C20	C	0.877800	-0.000006	-0.093424
C21	C	0.769713	-0.000005	-0.084941
C22	C	1.294394	-0.218782	-0.134218
C23	C	1.294400	-0.298030	-0.134215
C24	C	1.223725	-0.337659	-0.176964
C25	C	1.153021	-0.298035	-0.219706
C26	C	1.153010	-0.218789	-0.219703
N27	N	1.210251	-0.462073	-0.237848
N28	N	1.210268	-0.537353	-0.237849
C29	C	1.223752	-0.576423	-0.176976
N30	N	1.237240	-0.537370	-0.116100
N31	N	1.237228	-0.462082	-0.116100
C32	C	1.223729	-0.423589	-0.176972
C33	C	1.294454	-0.701967	-0.134229
C34	C	1.294453	-0.781217	-0.134225
C35	C	1.153078	-0.781221	-0.219723
C36	C	1.153074	-0.701973	-0.219721
C37	C	1.223768	-0.662351	-0.176975
C38	C	1.413224	-0.000005	-0.184478
C39	C	1.528260	-0.000001	-0.193509
C40	C	1.231884	-0.000014	-0.049860
C41	C	1.230194	-0.000016	0.027761
N42	N	1.223776	0.179159	-0.176974
C43	C	1.215586	0.000007	-0.304076
C44	C	1.217277	0.000014	-0.381697
C45	C	1.229420	0.068611	0.064210
C46	C	1.227817	0.068616	0.137142
C47	C	1.227009	-0.000008	0.173624
C48	C	1.227777	-0.068644	0.137166
C49	C	1.229370	-0.068648	0.064234
N50	N	1.283470	-0.051085	0.289417
N51	N	1.281960	-0.051076	0.358699
C52	C	1.222209	-0.000001	0.393362
N53	N	1.164039	0.051078	0.356127
N54	N	1.165554	0.051071	0.286839
C55	C	1.225282	-0.000012	0.252706
C56	C	1.219696	0.068637	0.508893
C57	C	1.218087	0.068640	0.581827
C58	C	1.218057	-0.068623	0.581849
C59	C	1.219655	-0.068624	0.508916
C60	C	1.220480	0.000008	0.472443
H61	H	0.886229	0.000003	-0.273516
H62	H	0.711464	0.000002	-0.323557
H63	H	1.220361	0.124521	0.479194
H64	H	1.217391	-0.124498	0.611551
C65	C	1.220524	-0.144114	0.468821
H66	H	1.219822	-0.184984	0.500992
H67	H	1.160729	-0.146970	0.439063
H68	H	1.281573	-0.146966	0.441680
H69	H	0.735989	-0.000016	-0.030385
C70	C	1.230230	-0.144140	0.024139
H71	H	1.229524	-0.185011	0.056309
H72	H	1.170437	-0.146994	-0.005621
H73	H	1.291281	-0.146993	-0.003000
C74	C	1.372211	-0.824796	-0.087207
H75	H	1.362085	-0.877668	-0.093323
H76	H	1.441333	-0.811799	-0.099417
H77	H	1.361169	-0.811817	-0.039867
H78	H	0.515382	-0.000002	-0.308169
H79	H	0.561220	-0.000069	-0.080426
C80	C	0.951148	-0.000006	-0.029046
H81	H	1.021452	-0.000009	-0.043693
H82	H	0.938632	0.043896	-0.001873
H83	H	0.938623	-0.043915	-0.001862
C84	C	1.372143	-0.175202	-0.087192
H85	H	1.414238	-0.210150	-0.061732
H86	H	1.415158	-0.144271	-0.115183
H87	H	1.334988	-0.144306	-0.055636
C88	C	1.372165	-0.341615	-0.087201
H89	H	1.414268	-0.306668	-0.061746
H90	H	1.335032	-0.372544	-0.055652
H91	H	1.415187	-0.372513	-0.115208
C92	C	1.075283	-0.341625	-0.266731
H93	H	1.085421	-0.394495	-0.260618
H94	H	1.006157	-0.328655	-0.254523
H95	H	1.086325	-0.328623	-0.314070
C96	C	1.075254	-0.175211	-0.266724
H97	H	1.033164	-0.210160	-0.292187
H98	H	1.032233	-0.144306	-0.238729
H99	H	1.112402	-0.144289	-0.298277
H100	H	1.352014	-0.669706	-0.099421
C101	C	1.075336	-0.824804	-0.266746
H102	H	1.085470	-0.877675	-0.260630
H103	H	1.006211	-0.811830	-0.254538
H104	H	1.086380	-0.811805	-0.314086
H105	H	1.095515	-0.669717	-0.254526
C106	C	1.230324	0.144100	0.024089
H107	H	1.231393	0.134272	-0.024567
H108	H	1.169656	0.172306	0.034731
H109	H	1.290500	0.172291	0.037344
C110	C	1.227008	0.144108	0.177245
H111	H	1.227743	0.184981	0.145078
H112	H	1.165983	0.146985	0.204401
H113	H	1.286827	0.146937	0.206990
C114	C	1.226891	-0.144129	0.177292
H115	H	1.225842	-0.134298	0.225949
H116	H	1.166727	-0.172327	0.164041
H117	H	1.287570	-0.172328	0.166649
C118	C	1.217231	0.144133	0.621921
H119	H	1.217958	0.185003	0.589750
H120	H	1.156190	0.146992	0.649062
H121	H	1.277033	0.146982	0.651679
