data_functionalizedCrystal
_audit_creation_method	'MofGen! by Chris Wilmer'
_symmetry_space_group_name_H-M	'P1'
_symmetry_Int_Tables_number	1
_symmetry_cell_setting	triclinic
loop_
_symmetry_equiv_pos_as_xyz
  x,y,z
_cell_length_a	14.971491
_cell_length_b	14.044190
_cell_length_c	14.048226
_cell_angle_alpha	89.988942
_cell_angle_beta	89.991693
_cell_angle_gamma	88.404006
loop_
_atom_site_label
_atom_site_type_symbol
_atom_site_fract_x
_atom_site_fract_y
_atom_site_fract_z
O1	O	1.196681	0.123561	-0.079213
O2	O	1.696681	0.623561	0.420787
O3	O	0.937447	0.138350	-0.079207
O4	O	1.437447	0.638350	0.420793
O5	O	1.063170	-0.007033	-0.079191
O6	O	1.563170	0.492967	0.420809
O7	O	1.070958	0.268945	-0.079229
O8	O	1.570958	0.768945	0.420771
O9	O	1.063152	-0.007042	0.079130
O10	O	1.563152	0.492958	0.579130
O11	O	0.937430	0.138342	0.079114
O12	O	1.437430	0.638342	0.579114
O13	O	1.196664	0.123553	0.079109
O14	O	1.696664	0.623553	0.579109
Zn15	Zn	1.067044	0.130946	0.104248
Zn16	Zn	1.567044	0.630946	0.604248
Zn17	Zn	1.067067	0.130957	-0.104347
Zn18	Zn	1.567067	0.630957	0.395653
O19	O	1.070941	0.268937	0.079093
O20	O	1.570941	0.768937	0.579093
C21	C	1.059754	-0.042356	-0.000028
C22	C	1.559754	0.457644	0.499972
C23	C	1.049590	-0.147594	-0.000019
C24	C	1.549590	0.352406	0.499981
C25	C	0.904061	0.137684	-0.000045
C26	C	1.404061	0.637684	0.499955
C27	C	0.804608	0.135699	-0.000042
C28	C	1.304608	0.635699	0.499958
C29	C	0.376237	0.127140	-0.086364
C30	C	0.876237	0.627140	0.413636
C31	C	0.469684	0.129002	-0.086361
C32	C	0.969684	0.629002	0.413639
C33	C	0.516394	0.129934	-0.000057
C34	C	1.016394	0.629934	0.499943
C35	C	0.469653	0.128995	0.086250
C36	C	0.969653	0.628995	0.586250
C37	C	0.376208	0.127127	0.086245
C38	C	0.876208	0.627127	0.586245
C39	C	0.664422	0.132892	0.086253
C40	C	1.164422	0.632892	0.586253
C41	C	0.757873	0.134763	0.086257
C42	C	1.257873	0.634763	0.586257
C43	C	0.757898	0.134768	-0.086354
C44	C	1.257898	0.634768	0.413646
C45	C	0.664453	0.132899	-0.086358
C46	C	1.164453	0.632899	0.413642
C47	C	0.617718	0.131962	-0.000051
C48	C	1.117718	0.631962	0.499949
C49	C	1.103092	-0.397819	-0.000058
C50	C	1.603092	0.102181	0.499942
C51	C	1.031023	-0.340273	-0.000049
C52	C	1.531023	0.159727	0.499951
C53	C	1.041356	-0.233056	-0.000033
C54	C	1.541356	0.266944	0.499967
C55	C	1.092760	-0.505045	-0.000074
C56	C	1.592760	-0.005045	0.499926
C57	C	1.230049	0.124219	-0.000055
C58	C	1.730049	0.624219	0.499945
C59	C	1.329502	0.126204	-0.000064
C60	C	1.829502	0.626204	0.499936
C61	C	1.074357	0.304259	-0.000073
C62	C	1.574357	0.804259	0.499927
C63	C	1.084521	0.409497	-0.000088
C64	C	1.584521	0.909497	0.499912
N65	N	1.067035	0.130938	0.246609
N66	N	1.567035	0.630938	0.746609
N67	N	1.067082	0.130958	-0.246708
N68	N	1.567082	0.630958	0.253292
C69	C	1.122726	0.066588	0.296434
C70	C	1.622726	0.566588	0.796434
C71	C	1.122732	0.066588	0.396092
C72	C	1.622732	0.566588	0.896092
C73	C	1.067051	0.130942	0.445922
C74	C	1.567051	0.630942	0.945922
C75	C	1.011354	0.195294	0.396090
C76	C	1.511354	0.695294	0.896090
C77	C	1.011344	0.195289	0.296435
C78	C	1.511344	0.695289	0.796435
C79	C	1.011380	0.195301	0.603805
C80	C	1.511380	0.695301	1.103805
C81	C	1.011391	0.195307	0.703467
C82	C	1.511391	0.695307	1.203467
C83	C	1.122769	0.066599	0.703462
C84	C	1.622769	0.566599	1.203462
C85	C	1.122759	0.066595	0.603806
C86	C	1.622759	0.566595	1.103806
C87	C	1.067062	0.130949	0.553981
C88	C	1.567062	0.630949	1.053981
H89	H	0.338212	0.126388	-0.156643
H90	H	0.838212	0.626388	0.343357
H91	H	1.172546	-0.366565	-0.000049
H92	H	1.672546	0.133435	0.499951
F93	F	0.519419	0.129994	-0.178213
F94	F	1.019419	0.629994	0.321787
F95	F	0.940233	-0.381123	-0.000050
F96	F	1.440233	0.118877	0.499950
F97	F	0.326470	0.126123	0.178097
F98	F	0.826470	0.626123	0.678097
H99	H	0.626424	0.132146	-0.156634
H100	H	1.126424	0.632146	0.343366
F101	F	0.952088	0.263781	0.449125
F102	F	1.452088	0.763781	0.949125
F103	F	1.181996	-0.001903	0.243410
F104	F	1.681996	0.498097	0.743410
H105	H	1.168080	0.014189	0.436659
H106	H	1.668080	0.514189	0.936659
F107	F	0.807637	0.135774	-0.178208
F108	F	1.307637	0.635774	0.321792
F109	F	1.182025	-0.001891	0.550772
F110	F	1.682025	0.498109	1.050772
H111	H	0.507692	0.129749	0.156520
H112	H	1.007692	0.629749	0.656520
F113	F	1.182045	-0.001889	0.756493
F114	F	1.682045	0.498111	1.256493
H115	H	0.626373	0.132141	0.156533
H116	H	1.126373	0.632141	0.656533
F117	F	0.952126	0.263801	0.756494
F118	F	1.452126	0.763801	1.256494
F119	F	0.952097	0.263792	0.550781
F120	F	1.452097	0.763792	1.050781
H121	H	0.795902	0.135527	0.156534
H122	H	1.295902	0.635527	0.656534
F123	F	0.952066	0.263776	0.243408
F124	F	1.452066	0.763776	0.743408
