data_functionalizedCrystal
_audit_creation_method	'MofGen! by Chris Wilmer'
_symmetry_space_group_name_H-M	'P1'
_symmetry_Int_Tables_number	1
_symmetry_cell_setting	triclinic
loop_
_symmetry_equiv_pos_as_xyz
  x,y,z
_cell_length_a	27.780882
_cell_length_b	27.780884
_cell_length_c	27.780936
_cell_angle_alpha	90.002261
_cell_angle_beta	59.997799
_cell_angle_gamma	119.999789
loop_
_atom_site_label
_atom_site_type_symbol
_atom_site_fract_x
_atom_site_fract_y
_atom_site_fract_z
O1	O	0.424592	-0.330213	-0.014321
O2	O	0.326022	-0.260214	0.014251
O3	O	0.424588	-0.260214	-0.084318
O4	O	0.326026	-0.330213	0.084247
O5	O	0.344528	-0.340274	-0.084318
O6	O	0.245962	-0.340274	0.014251
O7	O	0.344532	-0.410273	-0.014321
Cu8	Cu	0.287937	-0.382584	-0.000035
Cu9	Cu	0.382617	-0.287904	-0.000035
O10	O	0.245966	-0.410273	0.084248
C11	C	0.177734	-0.120430	0.029862
C12	C	0.211527	-0.056934	0.025772
C13	C	0.119397	-0.149664	0.030267
C14	C	0.177730	-0.207598	0.029867
C15	C	0.211519	-0.237303	0.025783
C16	C	0.119393	-0.236700	0.030273
C17	C	0.090568	-0.207596	0.029862
C18	C	0.031162	-0.237298	0.025772
C19	C	0.206427	-0.149666	0.030273
C20	C	-0.016831	-0.261295	0.022466
C21	C	0.238829	-0.005636	0.022467
C22	C	0.238818	-0.261301	0.022482
C23	C	-0.077040	-0.291400	0.018321
C24	C	0.273079	0.058719	0.018322
C25	C	0.273065	-0.291409	0.018343
O26	O	-0.234707	-0.410266	-0.014339
O27	O	-0.094711	-0.340265	0.014229
O28	O	-0.094704	-0.340270	-0.084338
O29	O	-0.234714	-0.410261	0.084228
O30	O	-0.094701	-0.260209	-0.084343
O31	O	-0.094708	-0.260204	0.014225
O32	O	-0.234704	-0.330205	-0.014344
Cu33	Cu	-0.164706	-0.287894	-0.000060
Cu34	Cu	-0.164709	-0.382576	-0.000055
O35	O	-0.234711	-0.330200	0.084223
C36	C	0.492828	-0.207603	-0.372394
C37	C	0.459037	-0.237307	-0.402098
C38	C	0.551166	-0.149673	-0.401496
C39	C	0.492828	-0.207604	-0.285228
C40	C	0.459036	-0.237307	-0.221733
C41	C	0.551166	-0.149673	-0.314463
C42	C	0.579994	-0.120438	-0.372393
C43	C	0.639400	-0.056943	-0.402096
C44	C	0.464132	-0.236706	-0.314464
C45	C	0.687394	-0.005646	-0.426092
C46	C	0.431736	-0.261304	-0.426095
C47	C	0.431736	-0.261304	-0.170435
C48	C	0.747605	0.058709	-0.456197
C49	C	0.397486	-0.291409	-0.456201
C50	C	0.397486	-0.291410	-0.106080
C51	C	0.580008	-0.462879	-0.029964
C52	C	0.639417	-0.433174	-0.025878
C53	C	0.551182	-0.520809	-0.030373
C54	C	0.492839	-0.462880	-0.029960
C55	C	0.459045	-0.433178	-0.025869
C56	C	0.464144	-0.520811	-0.030368
C57	C	0.492842	-0.550045	-0.029964
C58	C	0.459052	-0.613540	-0.025878
C59	C	0.551178	-0.433777	-0.030369
C60	C	0.431752	-0.664837	-0.022575
C61	C	0.687412	-0.409177	-0.022576
C62	C	0.431742	-0.409182	-0.022562
C63	C	0.397504	-0.729192	-0.018433
C64	C	0.747625	-0.379070	-0.018434
C65	C	0.397490	-0.379077	-0.018415
O66	O	0.344549	0.249047	-0.014343
O67	O	0.245980	0.080483	0.014226
O68	O	0.344550	0.179042	-0.084342
O69	O	0.245978	0.150488	0.084224
O70	O	0.424607	0.179040	-0.084336
O71	O	0.326036	0.080480	0.014231
O72	O	0.424605	0.249045	-0.014338
Cu73	Cu	0.382630	0.164762	-0.000053
Cu74	Cu	0.287954	0.164765	-0.000059
O75	O	0.326034	0.150486	0.084230
O76	O	0.905273	0.249033	-0.494995
O77	O	0.765273	0.080470	-0.425001
O78	O	0.765270	0.179032	-0.424994
O79	O	0.905276	0.150471	-0.495003
O80	O	0.765272	0.179034	-0.505055
O81	O	0.765275	0.080472	-0.505062
O82	O	0.905275	0.249035	-0.575056
Cu83	Cu	0.835275	0.164754	-0.547369
Cu84	Cu	0.835273	0.164751	-0.452688
O85	O	0.905278	0.150473	-0.575063
O86	O	0.326020	-0.330218	-0.575063
O87	O	0.424588	-0.260215	-0.505065
O88	O	0.326020	-0.260217	-0.505059
O89	O	0.424589	-0.330216	-0.575069
O90	O	0.245961	-0.340275	-0.425000
O91	O	0.344530	-0.340273	-0.425006
O92	O	0.245962	-0.410276	-0.495003
Cu93	Cu	0.287936	-0.382585	-0.452694
Cu94	Cu	0.382614	-0.287906	-0.547374
O95	O	0.344531	-0.410274	-0.495009
C96	C	0.090559	-0.550051	0.372323
C97	C	0.031152	-0.613546	0.402025
C98	C	0.119386	-0.520817	0.401426
C99	C	0.177725	-0.462885	0.285158
C100	C	0.211517	-0.433181	0.221663
C101	C	0.206420	-0.433783	0.314394
C102	C	0.177724	-0.462886	0.372324
C103	C	0.211515	-0.433183	0.402029
C104	C	0.119387	-0.520816	0.314392
C105	C	0.238815	-0.409187	0.426026
C106	C	-0.016842	-0.664843	0.426021
C107	C	0.238818	-0.409184	0.170365
C108	C	0.273064	-0.379082	0.456133
C109	C	-0.077053	-0.729198	0.456125
C110	C	0.273068	-0.379078	0.106010
C111	C	0.177761	-0.120445	-0.372420
C112	C	0.211554	-0.056951	-0.402125
C113	C	0.206457	-0.149682	-0.401521
C114	C	0.090590	-0.207608	-0.285252
C115	C	0.031179	-0.237308	-0.221756
C116	C	0.119418	-0.236712	-0.314485
C117	C	0.177759	-0.207612	-0.372416
C118	C	0.211551	-0.237318	-0.402117
C119	C	0.119420	-0.149677	-0.314489
C120	C	0.238852	-0.261316	-0.426113
C121	C	0.238857	-0.005654	-0.426124
C122	C	-0.016817	-0.261303	-0.170458
C123	C	0.273102	-0.291424	-0.456216
C124	C	0.273109	0.058701	-0.456232
C125	C	-0.077032	-0.291406	-0.106103
C126	C	-0.507174	-0.462860	0.372301
C127	C	-0.540966	-0.433155	0.402003
C128	C	-0.535872	-0.520790	0.401406
C129	C	-0.420004	-0.462864	0.285137
C130	C	-0.360594	-0.433163	0.221642
C131	C	-0.448834	-0.520794	0.314373
C132	C	-0.507175	-0.550027	0.372304
C133	C	-0.540968	-0.613521	0.402010
C134	C	-0.448833	-0.433760	0.314371
C135	C	-0.568270	-0.664818	0.426008
C136	C	-0.568268	-0.409157	0.425999
C137	C	-0.312597	-0.409168	0.170343
C138	C	-0.602522	-0.729173	0.456115
C139	C	-0.602518	-0.379050	0.456103
C140	C	-0.252383	-0.379064	0.105988
C141	C	0.580005	0.194619	-0.372405
C142	C	0.639409	0.190525	-0.402104
C143	C	0.551178	0.195023	-0.401510
C144	C	0.492843	0.194635	-0.285245
C145	C	0.459054	0.190558	-0.221751
C146	C	0.464149	0.195039	-0.314482
C147	C	0.492843	0.194621	-0.372410
C148	C	0.459052	0.190530	-0.402115
C149	C	0.551179	0.195036	-0.314476
C150	C	0.431752	0.187222	-0.426113
C151	C	0.687401	0.187216	-0.426097
C152	C	0.431754	0.187263	-0.170455
C153	C	0.397503	0.183075	-0.456220
C154	C	0.747609	0.183066	-0.456199
C155	C	0.397506	0.183130	-0.106101
O156	O	0.424649	0.249027	-0.575092
O157	O	0.326070	0.080461	-0.505095
O158	O	0.424629	0.179018	-0.505082
O159	O	0.326090	0.150471	-0.575105
O160	O	0.344563	0.179021	-0.425026
O161	O	0.246004	0.080464	-0.425039
O162	O	0.344583	0.249030	-0.495036
Cu163	Cu	0.287983	0.164747	-0.452728
Cu164	Cu	0.382670	0.164744	-0.547403
O165	O	0.246024	0.150474	-0.495049
C166	C	0.177742	0.134906	0.372298
C167	C	0.211532	0.138997	0.402003
C168	C	0.119406	0.134505	0.401398
C169	C	0.177741	0.134893	0.285133
C170	C	0.211531	0.138970	0.221639
C171	C	0.119406	0.134492	0.314364
C172	C	0.090580	0.134909	0.372293
C173	C	0.031176	0.139004	0.401992
C174	C	0.206435	0.134489	0.314370
C175	C	-0.016815	0.142313	0.425985
C176	C	0.238832	0.142304	0.426002
C177	C	0.238831	0.142265	0.170343
C178	C	-0.077023	0.146464	0.456086
C179	C	0.273081	0.146451	0.456109
C180	C	0.273079	0.146398	0.105989
H181	H	0.095268	-0.284299	0.030928
H182	H	0.095249	-0.544287	0.449028
H183	H	0.575291	-0.126204	-0.449095
C184	C	0.269106	-0.370361	0.283075
C185	C	0.322423	-0.367233	0.280188
C186	C	0.380185	-0.308825	0.251331
H187	H	0.259046	-0.346091	0.304230
H188	H	0.282191	-0.357137	0.244296
H189	H	0.309341	-0.380450	0.318961
H190	H	0.332504	-0.391491	0.259029
H191	H	0.393270	-0.295601	0.212551
H192	H	0.370118	-0.284559	0.272489
H193	H	0.416369	-0.306696	0.249363
H194	H	0.417204	0.195694	-0.291009
C195	C	0.087100	-0.552199	0.283203
C196	C	0.029730	-0.609294	0.321225
C197	C	-0.000033	-0.638216	0.292516
H198	H	0.119029	-0.554265	0.248953
H199	H	0.073885	-0.531023	0.272195
H200	H	0.042946	-0.630465	0.332224
H201	H	-0.002214	-0.607245	0.355474
H202	H	-0.013247	-0.617040	0.281509
H203	H	0.031901	-0.640278	0.258268
H204	H	-0.038965	-0.676956	0.318312
C205	C	0.087232	-0.118386	0.031067
C206	C	0.086931	-0.115495	-0.019089
C207	C	0.057305	-0.086686	-0.018358
H208	H	0.112749	-0.079612	0.031222
H209	H	0.041812	-0.139587	0.065431
H210	H	0.132343	-0.094294	-0.053443
H211	H	0.061410	-0.154261	-0.019253
H212	H	0.011886	-0.107887	0.016005
H213	H	0.082826	-0.047914	-0.018202
H214	H	0.057092	-0.084725	-0.052385
C215	C	-0.416734	-0.370282	0.283183
C216	C	-0.454482	-0.350932	0.321205
C217	C	-0.424926	-0.292459	0.292499
H218	H	-0.416475	-0.367958	0.248932
H219	H	-0.371336	-0.346063	0.272177
H220	H	-0.499868	-0.375144	0.332203
H221	H	-0.454744	-0.353242	0.355456
H222	H	-0.379528	-0.268241	0.281493
H223	H	-0.424669	-0.290141	0.258249
H224	H	-0.450530	-0.279321	0.318295
H225	H	0.095281	-0.284313	-0.291012
C226	C	0.087330	-0.118290	-0.283300
C227	C	0.125083	-0.061194	-0.321324
C228	C	0.095540	-0.032268	-0.292616
H229	H	0.087078	-0.116223	-0.249053
H230	H	0.041930	-0.139462	-0.272289
H231	H	0.170471	-0.040027	-0.332327
H232	H	0.125338	-0.063244	-0.355572
H233	H	0.050140	-0.053440	-0.281605
H234	H	0.095289	-0.030205	-0.258369
H235	H	0.121147	0.006473	-0.318412
H236	H	0.253368	-0.126194	0.030932
C237	C	0.401525	-0.300165	-0.283258
C238	C	0.382436	-0.319504	-0.321273
C239	C	0.324757	-0.377952	-0.292541
H240	H	0.365235	-0.302442	-0.249022
H241	H	0.411644	-0.324421	-0.272226
H242	H	0.372314	-0.295256	-0.332297
H243	H	0.418709	-0.317242	-0.355509
H244	H	0.334876	-0.402207	-0.281509
H245	H	0.288473	-0.380223	-0.258306
H246	H	0.311802	-0.391082	-0.318332
H247	H	0.575304	-0.386180	-0.031019
C248	C	0.583326	0.195999	-0.283128
C249	C	0.602659	0.246705	-0.266930
C250	C	0.632260	0.247604	-0.238042
H251	H	0.622293	0.196200	-0.308787
H252	H	0.551314	0.162013	-0.248851
H253	H	0.634669	0.280682	-0.301202
H254	H	0.563704	0.246515	-0.241265
H255	H	0.600248	0.213618	-0.203765
H256	H	0.671224	0.247803	-0.263704
H257	H	0.645376	0.282004	-0.227043
C258	C	0.269079	-0.118278	-0.464975
C259	C	0.288177	-0.061171	-0.484313
C260	C	0.345867	-0.032223	-0.542757
H261	H	0.258990	-0.139408	-0.489247
H262	H	0.305355	-0.116239	-0.467227
H263	H	0.251909	-0.063212	-0.482066
H264	H	0.298279	-0.040025	-0.460057
H265	H	0.382142	-0.030184	-0.545009
H266	H	0.335772	-0.053357	-0.567024
H267	H	0.358835	0.006529	-0.555884
H268	H	-0.424704	-0.544265	0.290901
H269	H	-0.582816	-0.544257	0.449005
H270	H	0.575312	-0.544278	-0.031030
H271	H	0.575284	-0.126201	-0.290985
H272	H	0.095280	0.133853	0.448996
C273	C	0.401580	-0.551996	-0.031284
C274	C	0.382509	-0.513972	-0.031561
C275	C	0.324891	-0.542673	-0.032420
H276	H	0.365259	-0.586246	0.002706
H277	H	0.411759	-0.562999	-0.065679
H278	H	0.372327	-0.502976	0.002829
H279	H	0.418814	-0.479721	-0.065550
H280	H	0.335070	-0.553677	-0.066814
H281	H	0.288575	-0.576923	0.001572
H282	H	0.311948	-0.516877	-0.032613
C283	C	0.583429	0.195862	-0.464967
C284	C	0.640779	0.196106	-0.484302
C285	C	0.670499	0.196874	-0.542750
H286	H	0.596663	0.230228	-0.489234
H287	H	0.551451	0.161843	-0.467229
H288	H	0.672751	0.230122	-0.482044
H289	H	0.627563	0.161743	-0.460051
H290	H	0.638522	0.162854	-0.545013
H291	H	0.683729	0.231240	-0.567012
H292	H	0.709411	0.197034	-0.555875
H293	H	0.095283	0.133836	0.290888
C294	C	0.269009	0.133585	0.283183
C295	C	0.288084	0.133319	0.321206
C296	C	0.345718	0.132482	0.292499
H297	H	0.305323	0.167578	0.248934
H298	H	0.258846	0.099194	0.272175
H299	H	0.298250	0.167706	0.332205
H300	H	0.251787	0.099329	0.355456
H301	H	0.335554	0.098091	0.281491
H302	H	0.382026	0.166475	0.258250
H303	H	0.358663	0.132296	0.318295
