data_functionalizedCrystal
_audit_creation_method	'MofGen! by Chris Wilmer'
_symmetry_space_group_name_H-M	'P1'
_symmetry_Int_Tables_number	1
_symmetry_cell_setting	triclinic
loop_
_symmetry_equiv_pos_as_xyz
  x,y,z
_cell_length_a	10.654549
_cell_length_b	10.540510
_cell_length_c	9.730217
_cell_angle_alpha	89.999207
_cell_angle_beta	89.997559
_cell_angle_gamma	84.500114
loop_
_atom_site_label
_atom_site_type_symbol
_atom_site_fract_x
_atom_site_fract_y
_atom_site_fract_z
O1	O	1.667877	0.178330	-0.114315
O2	O	1.302403	0.195312	-0.114310
O3	O	1.493498	0.002109	-0.114312
O4	O	1.476783	0.371533	-0.114313
O5	O	1.493492	0.002107	0.114268
O6	O	1.302397	0.195310	0.114270
O7	O	1.667871	0.178329	0.114265
Zn8	Zn	1.485133	0.186819	0.150559
Zn9	Zn	1.485141	0.186821	-0.150605
O10	O	1.476777	0.371531	0.114267
C11	C	1.255602	0.194063	-0.000019
C12	C	1.116158	0.190328	-0.000017
C13	C	0.826229	0.414344	-0.000057
C14	C	0.877795	0.531615	-0.000051
C15	C	1.008814	0.535128	-0.000033
C16	C	1.088271	0.421357	-0.000025
C17	C	1.036705	0.304086	-0.000030
C18	C	0.905682	0.300586	-0.000044
C19	C	1.064592	0.073057	-0.000023
C20	C	0.933574	0.069541	-0.000031
C21	C	1.144050	-0.040713	-0.000014
C22	C	1.092484	-0.157987	-0.000010
C23	C	0.961457	-0.161495	-0.000026
C24	C	0.882008	-0.047730	-0.000037
C25	C	1.492249	-0.045195	-0.000025
C26	C	1.488523	-0.186143	-0.000033
C27	C	1.621275	-0.403644	0.000488
C28	C	1.625250	-0.257050	-0.000034
C29	C	1.418535	-0.230877	-0.130560
C30	C	1.415528	-0.377637	-0.130662
C31	C	1.412674	-0.377447	0.129276
C32	C	1.419159	-0.231108	0.130994
C33	C	1.714672	0.179578	-0.000029
C34	C	1.854116	0.183312	-0.000040
C35	C	1.478025	0.418835	-0.000023
C36	C	1.481752	0.559784	-0.000024
N37	N	1.485137	0.186817	0.356096
N38	N	1.485147	0.186814	-0.356141
C39	C	1.654421	0.015786	0.356085
C40	C	1.739071	-0.069725	0.428019
C41	C	1.739084	-0.069726	0.571899
C42	C	1.654435	0.015791	0.643847
C43	C	1.569785	0.101303	0.571913
C44	C	1.569784	0.101297	0.428030
C45	C	1.400497	0.272325	0.571925
C46	C	1.400488	0.272334	0.428045
C47	C	1.315848	0.357843	0.643874
C48	C	1.231201	0.443362	0.571939
C49	C	1.231193	0.443360	0.428051
C50	C	1.315838	0.357845	0.356111
H51	H	1.050797	0.630620	-0.000027
N52	N	1.280077	-0.408065	-0.138537
H53	H	1.259290	-0.458767	-0.054869
H54	H	1.222674	-0.326117	-0.141973
N55	N	0.684917	0.410548	-0.000070
H56	H	0.658828	0.364347	0.084664
H57	H	0.642501	0.500445	-0.000123
N58	N	1.469902	-0.433682	0.260333
H59	H	1.541194	-0.500428	0.237211
H60	H	1.503353	-0.364023	0.316970
H61	H	1.654430	0.015789	0.238930
H62	H	1.808009	-0.139361	0.630468
N63	N	1.830378	-0.161965	0.350440
H64	H	1.815125	-0.252199	0.375497
H65	H	1.817501	-0.148897	0.248398
N66	N	1.654433	0.015791	0.799031
H67	H	1.635411	-0.070636	0.833690
H68	H	1.739937	0.035122	0.833573
H69	H	1.315856	0.357833	0.761028
N70	N	0.792087	0.654314	-0.000055
H71	H	0.808782	0.705427	0.084680
H72	H	0.808842	0.705326	-0.084845
N73	N	1.698175	-0.219409	-0.124204
H74	H	1.773509	-0.175488	-0.093326
H75	H	1.727783	-0.298142	-0.178777
H76	H	1.194952	0.424228	-0.000026
N77	N	1.691861	-0.459250	0.124462
H78	H	1.721978	-0.388157	0.181636
H79	H	1.634025	-0.508706	0.181407
N80	N	1.285363	-0.036932	0.000005
H81	H	1.305976	0.054620	0.000015
H82	H	1.322282	-0.081505	0.084751
N83	N	1.697805	-0.218200	0.123887
H84	H	1.700538	-0.122684	0.123778
H85	H	1.654838	-0.244702	0.210359
N86	N	1.286920	-0.166100	0.141444
H87	H	1.224433	-0.232347	0.140287
H88	H	1.277828	-0.116098	0.230009
H89	H	0.775324	-0.050575	-0.000038
N90	N	1.691430	-0.461295	-0.122805
H91	H	1.648164	-0.428027	-0.209743
H92	H	1.780957	-0.437331	-0.121575
N93	N	1.478907	-0.430943	-0.259891
H94	H	1.508531	-0.359073	-0.316255
H95	H	1.553589	-0.492798	-0.234463
H96	H	1.162280	0.512979	0.630529
H97	H	1.317878	-0.183454	-0.135412
N98	N	1.315810	0.357840	0.200927
H99	H	1.334822	0.444266	0.166253
H100	H	1.382264	0.290634	0.166372
N101	N	1.178179	-0.280684	-0.000010
H102	H	1.269003	-0.260664	-0.000007
H103	H	1.161364	-0.331738	0.084731
H104	H	1.310017	-0.399562	0.130157
H105	H	0.919481	-0.256992	-0.000039
N106	N	1.139880	0.535582	0.350468
H107	H	1.086261	0.589748	0.417884
H108	H	1.188436	0.592170	0.290763
H109	H	1.467144	-0.200036	-0.227699
H110	H	1.470085	-0.202514	0.227557
