data_functionalizedCrystal
_audit_creation_method	'MofGen! by Chris Wilmer'
_symmetry_space_group_name_H-M	'P1'
_symmetry_Int_Tables_number	1
_symmetry_cell_setting	triclinic
loop_
_symmetry_equiv_pos_as_xyz
  x,y,z
_cell_length_a	16.109301
_cell_length_b	10.654541
_cell_length_c	14.586319
_cell_angle_alpha	89.996435
_cell_angle_beta	89.999213
_cell_angle_gamma	83.972705
loop_
_atom_site_label
_atom_site_type_symbol
_atom_site_fract_x
_atom_site_fract_y
_atom_site_fract_z
O1	O	1.104090	0.161419	-0.076182
O2	O	0.862147	0.181508	-0.076196
O3	O	0.988682	-0.011352	-0.076183
O4	O	0.977554	0.354278	-0.076195
O5	O	0.988673	-0.011354	0.076298
O6	O	0.862138	0.181505	0.076284
O7	O	1.104081	0.161416	0.076299
Cu8	Cu	0.983109	0.171460	0.090214
Cu9	Cu	0.983119	0.171464	-0.090112
O10	O	0.977546	0.354276	0.076286
C11	C	0.831163	0.180692	0.000042
C12	C	0.738853	0.178253	0.000037
C13	C	0.987861	-0.058140	0.000057
C14	C	0.985418	-0.197550	0.000055
C15	C	0.517227	0.287019	0.000044
C16	C	0.430493	0.284717	0.000050
C17	C	0.449008	0.055896	0.000053
C18	C	0.535740	0.058200	0.000054
C19	C	0.569847	0.173765	0.000045
C20	C	0.396381	0.169159	0.000050
C21	C	0.302340	0.166662	0.000056
C22	C	0.663894	0.176262	0.000040
C23	C	1.136725	-0.227574	0.000076
C24	C	1.211227	-0.308079	0.000088
C25	C	1.208926	-0.439066	0.000085
C26	C	1.132115	-0.489549	0.000067
C27	C	1.057613	-0.409044	0.000055
C28	C	1.059922	-0.278056	0.000060
C29	C	0.906308	-0.379021	0.000027
C30	C	0.908607	-0.248034	0.000037
C31	C	0.829496	-0.429504	0.000010
C32	C	0.754992	-0.348998	0.000004
C33	C	0.757296	-0.218004	0.000008
C34	C	0.834104	-0.167529	0.000025
C35	C	1.135065	0.162231	0.000058
C36	C	1.227375	0.164671	0.000058
C37	C	0.978367	0.401064	0.000044
C38	C	0.980810	0.540474	0.000040
N39	N	0.983107	0.171457	0.217046
N40	N	0.983127	0.171457	-0.216944
C41	C	1.039156	0.086088	0.452058
C42	C	1.039158	0.086085	0.548040
C43	C	0.927072	0.256830	0.548037
C44	C	0.927067	0.256826	0.452058
C45	C	0.983113	0.171457	0.404071
C46	C	0.983121	0.171457	0.596032
C47	C	0.983123	0.171455	0.700099
C48	C	0.983110	0.171457	0.299997
H49	H	0.387652	0.376940	0.000051
H50	H	0.421227	-0.038193	0.000067
N51	N	0.866610	0.348905	0.400300
H52	H	0.876694	0.438044	0.416991
H53	H	0.875135	0.335836	0.332232
N54	N	0.592503	-0.063959	0.000065
H55	H	0.557737	-0.137518	0.000066
H56	H	0.628897	-0.067987	-0.056458
H57	H	0.544993	0.381120	0.000043
H58	H	1.138606	-0.120919	0.000090
H59	H	0.881442	0.326338	0.587118
N60	N	1.294071	-0.253631	0.000119
H61	H	1.284228	-0.158436	0.000127
H62	H	1.326685	-0.283097	0.056656
H63	H	1.084792	0.016568	0.587108
N64	N	0.827018	-0.570782	0.000010
H65	H	0.796748	-0.596440	0.056529
H66	H	0.796789	-0.596343	-0.056558
N67	N	1.289279	-0.525905	0.000091
H68	H	1.338288	-0.474054	0.000100
H69	H	1.291608	-0.580911	0.056617
H70	H	0.692459	-0.390113	-0.000017
N71	N	1.129631	-0.630826	0.000050
H72	H	1.188482	-0.674165	0.000055
H73	H	1.099329	-0.656390	0.056570
N74	N	0.676939	-0.131176	-0.000013
H75	H	0.627936	-0.183038	-0.000027
H76	H	0.674585	-0.076182	0.056515
H77	H	0.835988	-0.060874	0.000034
N78	N	1.099601	-0.005987	0.400299
H79	H	1.135103	-0.060069	0.445267
H80	H	1.067452	-0.061520	0.360482
