data_functionalizedCrystal
_audit_creation_method	'MofGen! by Chris Wilmer'
_symmetry_space_group_name_H-M	'P1'
_symmetry_Int_Tables_number	1
_symmetry_cell_setting	triclinic
loop_
_symmetry_equiv_pos_as_xyz
  x,y,z
_cell_length_a	19.077105
_cell_length_b	15.297327
_cell_length_c	19.076919
_cell_angle_alpha	101.510342
_cell_angle_beta	90.076224
_cell_angle_gamma	97.818066
loop_
_atom_site_label
_atom_site_type_symbol
_atom_site_fract_x
_atom_site_fract_y
_atom_site_fract_z
Zn1	Zn	0.997096	-0.436205	-0.496821
Zn2	Zn	0.981405	-0.581179	-0.398060
Zn3	Zn	0.886008	-0.424127	-0.373052
Zn4	Zn	0.859303	-0.580636	-0.510742
O5	O	0.930953	-0.505537	-0.444669
O6	O	1.092606	-0.460719	-0.488360
O7	O	0.973359	-0.555519	-0.295787
O8	O	0.918487	-0.299557	-0.373179
O9	O	1.081077	-0.567231	-0.415800
O10	O	1.000103	-0.308431	-0.464111
O11	O	0.903272	-0.440133	-0.277414
O12	O	0.784875	-0.439605	-0.386678
O13	O	0.872972	-0.566304	-0.607851
O14	O	0.765254	-0.554592	-0.487838
O15	O	0.974208	-0.460192	-0.597623
O16	O	0.947464	-0.707279	-0.429299
O17	O	0.857757	-0.706880	-0.512086
C18	C	0.749760	-0.495730	-0.436055
C19	C	0.672241	-0.491557	-0.432390
C20	C	0.625617	-0.549547	-0.483277
C21	C	0.552781	-0.545614	-0.479834
C22	C	0.526571	-0.483695	-0.425502
C23	C	0.573201	-0.425698	-0.374613
C24	C	0.646036	-0.429627	-0.378058
C25	C	0.309833	-0.465511	-0.409558
C26	C	0.236992	-0.461589	-0.406115
C27	C	0.216578	-0.581504	-0.511338
C28	C	0.289415	-0.585431	-0.514776
C29	C	0.336039	-0.527431	-0.463889
N30	N	0.452121	-0.479676	-0.421981
N31	N	0.410488	-0.531447	-0.467414
C32	C	0.898028	-0.739796	-0.474933
C33	C	0.884005	-0.840018	-0.487907
C34	C	1.031451	-1.123247	-0.352197
C35	C	1.044626	-1.029084	-0.340004
C36	C	1.004472	-0.981812	-0.376979
C37	C	0.951141	-1.028714	-0.426149
C38	C	0.937961	-1.122886	-0.438339
C39	C	0.910982	-0.981452	-0.463121
C40	C	0.857651	-1.028353	-0.512291
C41	C	0.844474	-1.122517	-0.524480
C42	C	0.884628	-1.169788	-0.487505
C43	C	0.924162	-0.887280	-0.450930
C44	C	0.830672	-0.886919	-0.537073
C45	C	0.817497	-0.981082	-0.549266
C46	C	1.112853	-0.515383	-0.453317
C47	C	1.190368	-0.519579	-0.457002
C48	C	0.922362	-0.514535	-0.629112
C49	C	0.918700	-0.518369	-0.707711
C50	C	0.964025	-0.270365	-0.414303
C51	C	0.978118	-0.170148	-0.401362
C52	C	0.969686	-0.464926	-0.739314
C53	C	0.966238	-0.468525	-0.813165
C54	C	0.911807	-0.525572	-0.855413
C55	C	0.860816	-0.579017	-0.823806
C56	C	0.864262	-0.575413	-0.749955
C57	C	0.895847	-0.542271	-1.076853
C58	C	0.892406	-0.545873	-1.150709
C59	C	0.997828	-0.435379	-1.140063
C60	C	1.001271	-0.431784	-1.066212
C61	C	0.950279	-0.485225	-1.034610
N62	N	0.908282	-0.529254	-0.930901
N63	N	0.953801	-0.481538	-0.959123
C64	C	0.939560	-0.496511	-0.260936
C65	C	0.943392	-0.492430	-0.182311
H66	H	0.551855	-0.375279	-0.330377
C67	C	0.264486	-0.343435	-0.302455
C68	C	0.208181	-0.393517	-0.346391
H69	H	0.246697	-0.301411	-0.265589
H70	H	0.288639	-0.382869	-0.281765
H71	H	0.296300	-0.312047	-0.330215
H72	H	0.176370	-0.424910	-0.318632
H73	H	0.184016	-0.354078	-0.367082
H74	H	1.088047	-0.990900	-0.299969
C75	C	0.658902	-0.310717	-0.273696
C76	C	0.697287	-0.365891	-0.322117
H77	H	0.690543	-0.271371	-0.239157
H78	H	0.633904	-0.276260	-0.298756
H79	H	0.626233	-0.347104	-0.250326
H80	H	0.729953	-0.329504	-0.345491
H81	H	0.722297	-0.400350	-0.297053
H82	H	0.347786	-0.418290	-0.368118
H83	H	1.039343	-0.391869	-1.165801
C84	C	1.052716	-1.267761	-0.332604
C85	C	1.075560	-1.175205	-0.311532
H86	H	1.079946	-1.299835	-0.307492
H87	H	1.004182	-1.280183	-0.322016
H88	H	1.058541	-1.286035	-0.382598
H89	H	1.069730	-1.156930	-0.261539
H90	H	1.124106	-1.162777	-0.322116
H91	H	0.967585	-0.849101	-0.410896
C92	C	1.074251	-0.847122	-0.312621
C93	C	1.018959	-0.878307	-0.363583
H94	H	1.083199	-0.783220	-0.304356
H95	H	1.061360	-0.865576	-0.269174
H96	H	1.115696	-0.871411	-0.329777
H97	H	0.977512	-0.854023	-0.346424
H98	H	1.031847	-0.859844	-0.407038
H99	H	1.045597	-0.385332	-1.031818
H100	H	0.822738	-0.618923	-0.724225
C101	C	0.880365	-1.308862	-0.573092
C102	C	0.870154	-1.273298	-0.500909
H103	H	0.871437	-1.372765	-0.581364
H104	H	0.848811	-1.287434	-0.602140
H105	H	0.927777	-1.290515	-0.584720
H106	H	0.822740	-1.291639	-0.489282
H107	H	0.901709	-1.294734	-0.471852
C108	C	0.203717	-0.700418	-0.615697
C109	C	0.165329	-0.645243	-0.567279
H110	H	0.172077	-0.739769	-0.650233
H111	H	0.236383	-0.664038	-0.639064
H112	H	0.228717	-0.734876	-0.590628
H113	H	0.140334	-0.610780	-0.592347
H114	H	0.132651	-0.681627	-0.543910
H115	H	0.801040	-1.160700	-0.564509
H116	H	0.774074	-1.019283	-0.589301
C117	C	0.809367	-0.742411	-0.556645
C118	C	0.786533	-0.834968	-0.577723
H119	H	0.782121	-0.710337	-0.581742
H120	H	0.803563	-0.724150	-0.506654
H121	H	0.857901	-0.729976	-0.567256
H122	H	0.737999	-0.847405	-0.567108
H123	H	0.792330	-0.853236	-0.627725
C124	C	0.735488	-0.617649	-0.846595
C125	C	0.800982	-0.641724	-0.870244
H126	H	0.698551	-0.656362	-0.875266
H127	H	0.730247	-0.623153	-0.798095
H128	H	0.733246	-0.557107	-0.850396
H129	H	0.803227	-0.702265	-0.866437
H130	H	0.806225	-0.636229	-0.918755
C131	C	1.073539	-0.356062	-0.736214
C132	C	1.029518	-0.402214	-0.692877
H133	H	1.110473	-0.317341	-0.707545
H134	H	1.093346	-0.398195	-0.771358
H135	H	1.046650	-0.321339	-0.759121
H136	H	1.056406	-0.436943	-0.669974
H137	H	1.009710	-0.360076	-0.657720
C138	C	0.989106	-0.351801	-0.880995
C139	C	1.022282	-0.409766	-0.847893
H140	H	1.023707	-0.315517	-0.902427
H141	H	0.956207	-0.386289	-0.916727
H142	H	0.964913	-0.314276	-0.846274
H143	H	1.046471	-0.447296	-0.882615
H144	H	1.055193	-0.375275	-0.812157
C145	C	0.835886	-0.697816	-1.191550
C146	C	0.832569	-0.608578	-1.197153
H147	H	0.798945	-0.736522	-1.220221
H148	H	0.880317	-0.714137	-1.207585
H149	H	0.830633	-0.703310	-1.143043
H150	H	0.837827	-0.603082	-1.245660
H151	H	0.788126	-0.592252	-1.181121
C152	C	0.598116	-0.667673	-0.586944
C153	C	0.654424	-0.617609	-0.543003
H154	H	0.615900	-0.709686	-0.623821
H155	H	0.566303	-0.699063	-0.559194
H156	H	0.573963	-0.628220	-0.607625
H157	H	0.678573	-0.657061	-0.522318
H158	H	0.686249	-0.586216	-0.570757
H159	H	0.514822	-0.592837	-0.521271
C160	C	0.872956	-0.658981	-1.009012
C161	C	0.839794	-0.601020	-1.042131
H162	H	0.838347	-0.695248	-0.987573
H163	H	0.897146	-0.696515	-1.043718
H164	H	0.905858	-0.624485	-0.973275
H165	H	0.806896	-0.635516	-1.077872
H166	H	0.815593	-0.563481	-1.007421
H167	H	0.310749	-0.635854	-0.559018
