data_functionalizedCrystal
_audit_creation_method	'MofGen! by Chris Wilmer'
_symmetry_space_group_name_H-M	'P1'
_symmetry_Int_Tables_number	1
_symmetry_cell_setting	triclinic
loop_
_symmetry_equiv_pos_as_xyz
  x,y,z
_cell_length_a	16.959455
_cell_length_b	12.645330
_cell_length_c	16.959447
_cell_angle_alpha	90.028204
_cell_angle_beta	90.014322
_cell_angle_gamma	90.009593
loop_
_atom_site_label
_atom_site_type_symbol
_atom_site_fract_x
_atom_site_fract_y
_atom_site_fract_z
Zn1	Zn	1.208425	-0.422105	0.446920
Zn2	Zn	1.708425	0.077895	0.946920
Zn3	Zn	1.208364	-0.599396	0.314747
Zn4	Zn	1.708364	-0.099396	0.814747
Zn5	Zn	1.076253	-0.422138	0.314758
Zn6	Zn	1.576253	0.077862	0.814758
Zn7	Zn	1.076235	-0.599317	0.446885
Zn8	Zn	1.576235	-0.099317	0.946885
O9	O	1.142319	-0.510739	0.380828
O10	O	1.642319	-0.010739	0.880828
O11	O	1.319027	-0.445642	0.429397
O12	O	1.819027	0.054358	0.929397
O13	O	1.190822	-0.575930	0.204137
O14	O	1.690822	-0.075930	0.704137
O15	O	1.093819	-0.273786	0.332309
O16	O	1.593819	0.226214	0.832309
O17	O	1.318983	-0.575898	0.332290
O18	O	1.818983	-0.075898	0.832290
O19	O	1.190925	-0.273762	0.429408
O20	O	1.690925	0.226238	0.929408
O21	O	1.093760	-0.445699	0.204145
O22	O	1.593760	0.054301	0.704145
O23	O	0.965640	-0.445622	0.332275
O24	O	1.465640	0.054378	0.832275
O25	O	1.093788	-0.575763	0.557501
O26	O	1.593788	-0.075763	1.057501
O27	O	0.965626	-0.575795	0.429348
O28	O	1.465626	-0.075795	0.929348
O29	O	1.190907	-0.445565	0.557527
O30	O	1.690907	0.054435	1.057527
O31	O	1.190804	-0.747733	0.332256
O32	O	1.690804	-0.247733	0.832256
O33	O	1.093729	-0.747675	0.429337
O34	O	1.593729	-0.247675	0.929337
C35	C	0.936953	-0.510704	0.380809
C36	C	1.436953	-0.010704	0.880809
C37	C	0.849096	-0.510715	0.380820
C38	C	1.349096	-0.010715	0.880820
C39	C	0.477603	-0.442903	0.330387
C40	C	0.977603	0.057097	0.830387
C41	C	0.477638	-0.578663	0.431313
C42	C	0.977638	-0.078663	0.931313
C43	C	0.560184	-0.578648	0.431308
C44	C	1.060184	-0.078648	0.931308
C45	C	0.601443	-0.510760	0.380841
C46	C	1.101443	-0.010760	0.880841
C47	C	0.560157	-0.442888	0.330379
C48	C	1.060157	0.057112	0.830379
C49	C	0.601477	-0.646526	0.481764
C50	C	1.101477	-0.146526	0.981764
C51	C	0.684028	-0.646515	0.481761
C52	C	1.184028	-0.146515	0.981761
C53	C	0.725289	-0.578621	0.431297
C54	C	1.225289	-0.078621	0.931297
C55	C	0.683997	-0.510745	0.380833
C56	C	1.183997	-0.010745	0.880833
C57	C	0.725256	-0.442857	0.330366
C58	C	1.225256	0.057143	0.830366
C59	C	0.683966	-0.374975	0.279906
C60	C	1.183966	0.125025	0.779906
C61	C	0.601418	-0.374994	0.279915
C62	C	1.101418	0.125006	0.779915
C63	C	0.807837	-0.578602	0.431288
C64	C	1.307837	-0.078602	0.931288
C65	C	0.807810	-0.442842	0.330358
C66	C	1.307810	0.057158	0.830358
C67	C	1.142280	-0.786169	0.380809
C68	C	1.642280	-0.286169	0.880809
C69	C	1.142335	-0.903999	0.380827
C70	C	1.642335	-0.403999	0.880827
C71	C	1.203307	-1.071555	0.319629
C72	C	1.703307	-0.571555	0.819629
C73	C	1.203505	-0.948995	0.319779
C74	C	1.703505	-0.448995	0.819779
C75	C	1.164917	-0.948380	0.464146
C76	C	1.664917	-0.448380	0.964146
C77	C	1.165401	-1.070978	0.463821
C78	C	1.665401	-0.570978	0.963821
C79	C	1.058757	-1.071321	0.359528
C80	C	1.558757	-0.571321	0.859528
C81	C	1.059158	-0.948717	0.357659
C82	C	1.559158	-0.448717	0.857659
C83	C	1.348487	-0.510775	0.380846
C84	C	1.848487	-0.010775	0.880846
C85	C	1.436344	-0.510790	0.380854
C86	C	1.936344	-0.010790	0.880854
C87	C	1.142352	-0.510651	0.586996
C88	C	1.642352	-0.010651	1.086996
C89	C	1.142366	-0.510614	0.674852
C90	C	1.642366	-0.010614	1.174852
C91	C	1.142380	-0.234234	0.380864
C92	C	1.642380	0.265766	0.880864
C93	C	1.142407	-0.116404	0.380879
C94	C	1.642407	0.383596	0.880879
C95	C	1.142332	-0.510750	0.175461
C96	C	1.642332	-0.010750	0.675461
C97	C	1.142471	-0.510489	0.087605
C98	C	1.642471	-0.010489	0.587605
C99	C	1.091895	-0.578290	1.046317
C100	C	1.591895	-0.078290	1.546317
C101	C	1.193026	-0.442715	1.046339
C102	C	1.693026	0.057285	1.546339
C103	C	1.193005	-0.442737	0.963793
C104	C	1.693005	0.057263	1.463793
C105	C	1.142429	-0.510538	0.922506
C106	C	1.642429	-0.010538	1.422506
C107	C	1.091874	-0.578317	0.963764
C108	C	1.591874	-0.078317	1.463764
C109	C	1.243565	-0.374967	0.922529
C110	C	1.743565	0.125033	1.422529
C111	C	1.243546	-0.374988	0.839978
C112	C	1.743546	0.125012	1.339978
C113	C	1.192966	-0.442784	0.798689
C114	C	1.692966	0.057216	1.298689
C115	C	1.142408	-0.510565	0.839952
C116	C	1.642408	-0.010565	1.339952
C117	C	1.091832	-0.578366	0.798664
C118	C	1.591832	-0.078366	1.298664
C119	C	1.041270	-0.646142	0.839926
C120	C	1.541270	-0.146142	1.339926
C121	C	1.041293	-0.646113	0.922475
C122	C	1.541293	-0.146113	1.422475
C123	C	1.192942	-0.442813	0.716140
C124	C	1.692942	0.057187	1.216140
C125	C	1.091811	-0.578393	0.716111
C126	C	1.591811	-0.078393	1.216111
H127	H	0.444040	-0.633940	0.472397
H128	H	0.944040	-0.133940	0.972397
H129	H	1.226544	-1.099495	0.481907
H130	H	1.726544	-0.599495	0.981907
N131	N	1.284942	-1.112241	0.338121
N132	N	1.784942	-0.612241	0.838121
H133	H	1.305645	-1.153752	0.291638
H134	H	1.805645	-0.653752	0.791638
H135	H	1.282590	-1.159558	0.386022
H136	H	1.782590	-0.659558	0.886022
N137	N	0.556979	-0.719754	0.536186
N138	N	1.056979	-0.219754	1.036186
H139	H	0.498420	-0.709459	0.528535
H140	H	0.998420	-0.209459	1.028535
H141	H	0.571427	-0.703354	0.592659
H142	H	1.071427	-0.203354	1.092659
N143	N	0.998642	-1.109746	0.418605
N144	N	1.498642	-0.609746	0.918605
H145	H	0.973744	-1.047091	0.445895
H146	H	1.473744	-0.547091	0.945895
H147	H	1.025469	-1.156144	0.458961
H148	H	1.525469	-0.656144	0.958961
N149	N	1.036595	-0.910313	0.276441
N150	N	1.536595	-0.410313	0.776441
H151	H	1.080065	-0.864139	0.254739
H152	H	1.580065	-0.364139	0.754739
H153	H	0.986146	-0.868129	0.279826
H154	H	1.486146	-0.368129	0.779826
H155	H	0.717639	-0.701788	0.522849
H156	H	1.217639	-0.201788	1.022849
H157	H	1.038220	-1.102330	0.299830
H158	H	1.538220	-0.602330	0.799830
N159	N	0.852372	-0.651815	0.485699
N160	N	1.352372	-0.151815	0.985699
H161	H	0.813709	-0.694829	0.517667
H162	H	1.313709	-0.194829	1.017667
H163	H	0.886635	-0.608722	0.522335
H164	H	1.386635	-0.108722	1.022335
N165	N	0.995813	-0.908137	0.412412
N166	N	1.495813	-0.408137	0.912412
H167	H	1.008081	-0.930661	0.468211
H168	H	1.508081	-0.430661	0.968211
H169	H	0.943110	-0.938171	0.396028
H170	H	1.443110	-0.438171	0.896028
H171	H	1.050618	-0.633596	0.682500
H172	H	1.550618	-0.133596	1.182500
H173	H	1.284717	-0.319800	0.806390
H174	H	1.784717	0.180200	1.306390
H175	H	1.189377	-0.918993	0.257999
H176	H	1.689377	-0.418993	0.757999
H177	H	1.189356	-1.101109	0.257669
H178	H	1.689356	-0.601109	0.757669
H179	H	1.284746	-0.319774	0.956151
H180	H	1.784746	0.180226	1.456151
H181	H	1.000094	-0.701350	0.806299
H182	H	1.500094	-0.201350	1.306299
N183	N	0.986773	-0.719204	0.966993
N184	N	1.486773	-0.219204	1.466993
H185	H	0.999024	-0.794958	0.952618
H186	H	1.499024	-0.294958	1.452618
H187	H	0.930315	-0.702646	0.952623
H188	H	1.430315	-0.202646	1.452623
N189	N	1.247487	-0.369743	0.671639
N190	N	1.747487	0.130257	1.171639
H191	H	1.239805	-0.380053	0.613079
H192	H	1.739805	0.119947	1.113079
H193	H	1.303931	-0.386281	0.686074
H194	H	1.803931	0.113719	1.186074
N195	N	1.285571	-0.910033	0.338486
N196	N	1.785571	-0.410033	0.838486
H197	H	1.321757	-0.972500	0.346672
H198	H	1.821757	-0.472500	0.846672
H199	H	1.284121	-0.865772	0.388051
H200	H	1.784121	-0.365772	0.888051
H201	H	1.050726	-0.633468	1.079916
H202	H	1.550726	-0.133468	1.579916
N203	N	1.247579	-0.369596	1.090866
N204	N	1.747579	0.130404	1.590866
H205	H	1.239922	-0.379866	1.149421
H206	H	1.739922	0.120134	1.649421
H207	H	1.235288	-0.293887	1.076455
H208	H	1.735288	0.206113	1.576455
H209	H	1.121910	-0.919230	0.511004
H210	H	1.621910	-0.419230	1.011004
H211	H	1.122987	-1.100641	0.511029
H212	H	1.622987	-0.600641	1.011029
N213	N	1.244999	-0.907627	0.488504
N214	N	1.744999	-0.407627	0.988504
H215	H	1.243849	-0.827830	0.490816
H216	H	1.743849	-0.327830	0.990816
H217	H	1.285753	-0.931195	0.448801
H218	H	1.785753	-0.431195	0.948801
N219	N	0.852309	-0.369607	0.275934
N220	N	1.352309	0.130393	0.775934
H221	H	0.813624	-0.326609	0.243974
H222	H	1.313624	0.173391	0.743974
H223	H	0.886546	-0.412685	0.239291
H224	H	1.386546	0.087315	0.739291
H225	H	0.717570	-0.319706	0.238812
H226	H	1.217570	0.180294	0.738812
H227	H	0.567792	-0.319729	0.238832
H228	H	1.067792	0.180271	0.738832
H229	H	0.443981	-0.387632	0.289305
H230	H	0.943981	0.112368	0.789305
