data_functionalizedCrystal
_audit_creation_method	'MofGen! by Chris Wilmer'
_symmetry_space_group_name_H-M	'P1'
_symmetry_Int_Tables_number	1
_symmetry_cell_setting	triclinic
loop_
_symmetry_equiv_pos_as_xyz
  x,y,z
_cell_length_a	11.169417
_cell_length_b	15.297327
_cell_length_c	11.169409
_cell_angle_alpha	80.360209
_cell_angle_beta	90.019824
_cell_angle_gamma	99.707226
loop_
_atom_site_label
_atom_site_type_symbol
_atom_site_fract_x
_atom_site_fract_y
_atom_site_fract_z
Zn1	Zn	1.752166	-0.359064	0.761131
Zn2	Zn	2.252166	0.140936	1.261131
Zn3	Zn	1.717262	-0.509956	0.595155
Zn4	Zn	2.217262	-0.009956	1.095155
Zn5	Zn	1.551440	-0.359119	0.560478
Zn6	Zn	2.051440	0.140881	1.060478
Zn7	Zn	1.516683	-0.509883	0.795783
Zn8	Zn	2.016683	-0.009883	1.295783
O9	O	1.634387	-0.434505	0.678137
O10	O	2.134387	0.065495	1.178137
O11	O	1.915484	-0.379088	0.739125
O12	O	2.415484	0.120912	1.239125
O13	O	1.695203	-0.490001	0.422618
O14	O	2.195203	0.009999	0.922618
O15	O	1.607220	-0.232867	0.558081
O16	O	2.107220	0.267133	1.058081
O17	O	1.889840	-0.489948	0.617183
O18	O	2.389840	0.010052	1.117183
O19	O	1.754693	-0.232827	0.705500
O20	O	2.254693	0.267173	1.205500
O21	O	1.573374	-0.379181	0.397141
O22	O	2.073374	0.120819	0.897141
O23	O	1.378881	-0.379110	0.591682
O24	O	1.878881	0.120890	1.091682
O25	O	1.547982	-0.489823	0.959124
O26	O	2.047982	0.010177	1.459124
O27	O	1.353345	-0.489876	0.764559
O28	O	1.853345	0.010124	1.264559
O29	O	1.720991	-0.379016	0.933665
O30	O	2.220991	0.120984	1.433665
O31	O	1.661501	-0.636191	0.650783
O32	O	2.161501	-0.136191	1.150783
O33	O	1.514136	-0.636137	0.798184
O34	O	2.014136	-0.136137	1.298184
C35	C	1.322566	-0.434492	0.678118
C36	C	1.822566	0.065508	1.178118
C37	C	1.189162	-0.434508	0.678144
C38	C	1.689162	0.065492	1.178144
C39	C	1.580292	-0.668898	0.732033
C40	C	2.080292	-0.168898	1.232033
C41	C	1.557259	-0.769172	0.755130
C42	C	2.057259	-0.269172	1.255130
C43	C	1.799500	-1.051814	0.513469
C44	C	2.299500	-0.551814	1.013469
C45	C	1.821139	-0.957602	0.491762
C46	C	2.321139	-0.457602	0.991762
C47	C	1.755172	-0.910490	0.557602
C48	C	2.255172	-0.410490	1.057602
C49	C	1.667560	-0.957599	0.645153
C50	C	2.167560	-0.457599	1.145153
C51	C	1.645911	-1.051821	0.666855
C52	C	2.145911	-0.551821	1.166855
C53	C	1.601583	-0.910496	0.710988
C54	C	2.101583	-0.410496	1.210988
C55	C	1.513971	-0.957606	0.798539
C56	C	2.013971	-0.457606	1.298539
C57	C	1.492327	-1.051818	0.820238
C58	C	1.992327	-0.551818	1.320238
C59	C	1.558295	-1.098930	0.754397
C60	C	2.058295	-0.598930	1.254397
C61	C	1.623232	-0.816275	0.689286
C62	C	2.123232	-0.316275	1.189286
C63	C	1.469643	-0.816281	0.842672
C64	C	1.969643	-0.316281	1.342672
C65	C	1.448003	-0.910493	0.864379
C66	C	1.948003	-0.410493	1.364379
C67	C	1.947426	-0.434520	0.678156
C68	C	2.447426	0.065480	1.178156
C69	C	2.080825	-0.434526	0.678165
C70	C	2.580825	0.065474	1.178165
C71	C	1.634503	-0.434405	0.991157
C72	C	2.134503	0.065595	1.491157
C73	C	1.634552	-0.434362	1.124547
C74	C	2.134552	0.065638	1.624547
C75	C	1.688727	-0.199198	0.624057
C76	C	2.188727	0.300802	1.124057
C77	C	1.711884	-0.098924	0.601011
C78	C	2.211884	0.401076	1.101011
C79	C	1.634357	-0.434540	0.366320
C80	C	2.134357	0.065460	0.866320
C81	C	1.634599	-0.434329	0.232872
C82	C	2.134599	0.065671	0.732872
H83	H	1.694565	-0.777926	0.618002
H84	H	2.194565	-0.277926	1.118002
H85	H	1.772795	-0.833778	0.539922
H86	H	2.272795	-0.333778	1.039922
H87	H	1.540684	-1.175646	0.772069
H88	H	2.040684	-0.675646	1.272069
H89	H	1.892471	-0.919249	0.420479
H90	H	2.392471	-0.419249	0.920479
H91	H	1.420974	-1.090172	0.891513
H92	H	1.920974	-0.590172	1.391513
H93	H	1.853194	-1.090182	0.459864
H94	H	2.353194	-0.590182	0.959864
H95	H	1.376668	-0.948863	0.935663
H96	H	1.876668	-0.448863	1.435663
H97	H	1.415924	-0.777923	0.896283
H98	H	1.915924	-0.277923	1.396283
