data_functionalizedCrystal
_audit_creation_method	'MofGen! by Chris Wilmer'
_symmetry_space_group_name_H-M	'P1'
_symmetry_Int_Tables_number	1
_symmetry_cell_setting	triclinic
loop_
_symmetry_equiv_pos_as_xyz
  x,y,z
_cell_length_a	14.853567
_cell_length_b	11.026607
_cell_length_c	9.482944
_cell_angle_alpha	81.839415
_cell_angle_beta	100.431341
_cell_angle_gamma	83.889526
loop_
_atom_site_label
_atom_site_type_symbol
_atom_site_fract_x
_atom_site_fract_y
_atom_site_fract_z
O1	O	0.392932	-1.627743	0.120864
O2	O	0.349932	-1.274365	0.120870
O3	O	0.241726	-1.460494	0.120871
O4	O	0.501138	-1.441614	0.120863
O5	O	0.211094	-1.426583	-0.120919
O6	O	0.319301	-1.240454	-0.120921
O7	O	0.362300	-1.593832	-0.120926
Cu8	Cu	0.338003	-1.414047	-0.143001
Cu9	Cu	0.374229	-1.454150	0.142945
O10	O	0.470506	-1.407703	-0.120928
C11	C	0.326684	-1.212185	-0.000025
C12	C	0.303037	-1.077432	-0.000022
C13	C	0.192684	-1.442684	-0.000020
C14	C	0.092188	-1.440122	-0.000007
N15	N	0.312525	-1.385849	-0.344119
C16	C	-0.339938	-1.318718	-0.000033
C17	C	-0.325539	-1.539843	-0.000036
C18	C	-0.231115	-1.542254	-0.000028
C19	C	-0.191099	-1.432896	-0.000024
C20	C	-0.245506	-1.321126	-0.000029
C21	C	-0.176702	-1.654020	-0.000038
C22	C	-0.082273	-1.656436	-0.000031
C23	C	-0.042254	-1.547077	-0.000017
C24	C	-0.096667	-1.435303	-0.000020
C25	C	-0.056651	-1.325945	-0.000016
C26	C	-0.111062	-1.214170	-0.000009
C27	C	-0.205487	-1.211767	-0.000015
C28	C	0.052172	-1.549481	-0.000011
C29	C	0.037781	-1.328352	-0.000012
C30	C	0.519549	-1.425514	-0.000033
C31	C	0.620046	-1.428077	-0.000037
C32	C	0.385549	-1.656012	-0.000029
C33	C	0.409197	-1.790767	-0.000022
C34	C	0.368332	-1.003736	-0.000023
C35	C	0.343893	-0.864461	-0.000020
C36	C	0.345515	-1.422382	-0.583734
C37	C	0.366720	-1.445833	-0.416318
N38	N	0.399702	-1.482358	0.344063
H39	H	0.070355	-1.239298	-0.000002
H40	H	0.229047	-1.037421	0.000018
C41	C	-0.067032	-1.093880	-0.000005
N42	N	-0.033864	-1.003281	0.000001
H43	H	-0.249797	-1.120766	-0.000010
C44	C	0.509169	-0.844812	-0.000024
N45	N	0.584467	-0.885520	-0.000022
H46	H	0.269898	-0.824456	0.000019
H47	H	-0.384242	-1.227715	-0.000021
H48	H	0.283421	-1.353679	-0.645862
C49	C	0.468297	-1.057788	-0.000032
N50	N	0.543593	-1.098499	-0.000038
C51	C	-0.369561	-1.660129	-0.000048
N52	N	-0.402722	-1.750734	-0.000054
H53	H	0.461790	-1.551071	-0.593809
H54	H	0.428812	-1.514551	-0.354196
C55	C	0.228637	-1.293019	-0.428035
N56	N	0.165454	-1.223099	-0.491242
C57	C	-0.220727	-1.774304	-0.000052
N58	N	-0.253891	-1.864907	-0.000061
H59	H	-0.037979	-1.747449	-0.000035
H60	H	0.096467	-1.640484	-0.000026
