data_functionalizedCrystal
_audit_creation_method	'MofGen! by Chris Wilmer'
_symmetry_space_group_name_H-M	'P1'
_symmetry_Int_Tables_number	1
_symmetry_cell_setting	triclinic
loop_
_symmetry_equiv_pos_as_xyz
  x,y,z
_cell_length_a	13.635800
_cell_length_b	7.190335
_cell_length_c	7.190410
_cell_angle_alpha	97.683314
_cell_angle_beta	60.610675
_cell_angle_gamma	119.388233
loop_
_atom_site_label
_atom_site_type_symbol
_atom_site_fract_x
_atom_site_fract_y
_atom_site_fract_z
V1	V	-2.154323	-0.663495	0.291696
V2	V	-1.654323	-0.163495	0.791696
O3	O	-2.100791	-0.652432	-0.017520
O4	O	-1.600791	-0.152432	0.482480
O5	O	-2.172017	-0.657450	0.581753
O6	O	-1.672017	-0.157450	1.081753
O7	O	-2.172020	-0.953556	0.285672
O8	O	-1.672020	-0.453556	0.785672
O9	O	-2.100788	-0.354276	0.280611
O10	O	-1.600788	0.145724	0.780611
V11	V	-2.385279	-0.626693	0.254892
V12	V	-1.885279	-0.126693	0.754892
O13	O	-2.308654	-0.744223	0.372429
O14	O	-1.808654	-0.244223	0.872429
O15	O	-2.456047	-0.545965	0.174159
O16	O	-1.956047	-0.045965	0.674159
O17	O	-2.255982	-0.632738	-0.035166
O18	O	-1.755982	-0.132738	0.464834
O19	O	-2.497509	-0.637756	0.564108
O20	O	-1.997509	-0.137756	1.064108
O21	O	-2.497512	-0.935912	0.265977
O22	O	-1.997512	-0.435912	0.765977
O23	O	-2.255979	-0.336632	0.260916
O24	O	-1.755979	0.163368	0.760916
V25	V	-1.885272	-0.626693	0.254892
V26	V	-1.385272	-0.126693	0.754892
O27	O	-1.938806	-0.935912	0.265977
O28	O	-1.438806	-0.435912	0.765977
O29	O	-1.867575	-0.336632	0.260916
O30	O	-1.367575	0.163368	0.760916
O31	O	-1.867578	-0.632738	-0.035166
O32	O	-1.367578	-0.132738	0.464834
O33	O	-1.938804	-0.637756	0.564108
O34	O	-1.438804	-0.137756	1.064108
V35	V	-1.654315	-0.663495	0.291696
V36	V	-1.154315	-0.163495	0.791696
O37	O	-1.730941	-0.545965	0.174159
O38	O	-1.230941	-0.045965	0.674159
O39	O	-1.583548	-0.744223	0.372429
O40	O	-1.083548	-0.244223	0.872429
O41	O	-1.783616	-0.953556	0.285672
O42	O	-1.283616	-0.453556	0.785672
O43	O	-1.542082	-0.354276	0.280611
O44	O	-1.042082	0.145724	0.780611
O45	O	-1.542085	-0.652432	-0.017520
O46	O	-1.042085	-0.152432	0.482480
O47	O	-1.783613	-0.657450	0.581753
O48	O	-1.283613	-0.157450	1.081753
C49	C	-1.936229	-0.265871	0.271761
C50	C	-1.436229	0.234129	0.771761
C51	C	-1.879797	-0.024297	0.274816
C52	C	-1.379797	0.475703	0.774816
C53	C	-2.159799	-0.643564	0.894084
C54	C	-1.659799	-0.143564	1.394084
C55	C	-2.103350	-0.646592	0.652505
C56	C	-1.603350	-0.146592	1.152505
C57	C	-2.103361	-1.024304	0.274819
C58	C	-1.603361	-0.524304	0.774819
C59	C	-2.159789	-1.265876	0.271754
C60	C	-1.659789	-0.765876	0.771754
C61	C	-1.936238	-0.643597	-0.105912
C62	C	-1.436238	-0.143597	0.394088
C63	C	-1.879813	-0.646684	-0.347481
C64	C	-1.379813	-0.146684	0.152519
