data_functionalizedCrystal
_audit_creation_method	'MofGen! by Chris Wilmer'
_symmetry_space_group_name_H-M	'P1'
_symmetry_Int_Tables_number	1
_symmetry_cell_setting	triclinic
loop_
_symmetry_equiv_pos_as_xyz
  x,y,z
_cell_length_a	6.817900
_cell_length_b	9.582889
_cell_length_c	10.773894
_cell_angle_alpha	94.946176
_cell_angle_beta	96.645922
_cell_angle_gamma	111.207298
loop_
_atom_site_label
_atom_site_type_symbol
_atom_site_fract_x
_atom_site_fract_y
_atom_site_fract_z
V1	V	-3.987872	-0.201560	-0.388722
O2	O	-3.934976	0.015345	-0.381557
O3	O	-3.979231	-0.405101	-0.385837
O4	O	-3.904454	-0.195976	-0.558360
O5	O	-4.010270	-0.195228	-0.207840
V6	V	-4.470885	-0.175909	-0.367114
O7	O	-4.250248	-0.257827	-0.436119
O8	O	-4.658707	-0.119641	-0.319717
O9	O	-4.256319	0.027633	-0.369999
O10	O	-4.641179	-0.392813	-0.374279
O11	O	-4.565884	-0.182240	-0.547996
O12	O	-4.331097	-0.181492	-0.197476
C13	C	-3.835038	-0.454798	-0.379647
C14	C	-3.909026	-0.621180	-0.378419
C15	C	-3.739651	-0.188036	-0.599715
C16	C	-3.752994	-0.184818	-0.738393
C17	C	-3.932159	-0.190395	-0.806250
C18	C	-3.945954	-0.187069	-0.949581
C19	C	-4.063857	0.077322	-0.376186
C20	C	-3.969105	0.243703	-0.377422
C21	C	-4.159244	-0.189437	-0.156115
C22	C	-4.125138	-0.192648	-0.017435
H23	H	-4.075330	-0.197623	-0.758230
Br24	Br	-3.707279	-0.174987	-1.029594
H25	H	-4.268332	-0.199892	-0.969424
Br26	Br	-3.514333	-0.172736	-0.818411
