data_functionalizedCrystal
_audit_creation_method	'MofGen! by Chris Wilmer'
_symmetry_space_group_name_H-M	'P1'
_symmetry_Int_Tables_number	1
_symmetry_cell_setting	triclinic
loop_
_symmetry_equiv_pos_as_xyz
  x,y,z
_cell_length_a	19.188925
_cell_length_b	19.188924
_cell_length_c	12.376457
_cell_angle_alpha	101.235232
_cell_angle_beta	78.745006
_cell_angle_gamma	83.142256
loop_
_atom_site_label
_atom_site_type_symbol
_atom_site_fract_x
_atom_site_fract_y
_atom_site_fract_z
O1	O	0.939580	0.073722	-0.094034
O2	O	1.272914	0.407055	0.239299
O3	O	1.606247	0.740388	0.572633
O4	O	0.736268	0.085460	-0.094032
O5	O	1.069601	0.418794	0.239302
O6	O	1.402935	0.752127	0.572635
O7	O	0.843792	-0.022063	-0.094019
O8	O	1.177125	0.311270	0.239314
O9	O	1.510458	0.644603	0.572647
O10	O	0.832056	0.181245	-0.094046
O11	O	1.165390	0.514579	0.239287
O12	O	1.498723	0.847912	0.572621
O13	O	0.816920	0.004781	0.093990
O14	O	1.150254	0.338115	0.427323
O15	O	1.483587	0.671448	0.760656
O16	O	0.709396	0.112305	0.093978
O17	O	1.042730	0.445638	0.427311
O18	O	1.376063	0.778971	0.760644
O19	O	0.912709	0.100566	0.093975
O20	O	1.246042	0.433899	0.427309
O21	O	1.579376	0.767233	0.760642
Zn22	Zn	0.806786	0.110697	0.123827
Zn23	Zn	1.140120	0.444031	0.457160
Zn24	Zn	1.473453	0.777364	0.790494
Zn25	Zn	0.842190	0.075329	-0.123883
Zn26	Zn	1.175524	0.408662	0.209450
Zn27	Zn	1.508857	0.741996	0.542783
O28	O	0.805185	0.208090	0.093963
O29	O	1.138518	0.541423	0.427296
O30	O	1.471852	0.874756	0.760630
C31	C	0.696821	0.098503	-0.000027
C32	C	1.030154	0.431836	0.333307
C33	C	1.363488	0.765170	0.666640
C34	C	0.619316	0.097364	-0.000025
C35	C	0.952649	0.430697	0.333308
C36	C	1.285983	0.764031	0.666642
C37	C	0.057546	0.152827	-0.000035
C38	C	0.390879	0.486160	0.333298
C39	C	0.724213	0.819494	0.666632
C40	C	0.130370	0.153902	-0.000041
C41	C	0.463703	0.487236	0.333292
C42	C	0.797037	0.820569	0.666625
C43	C	0.175305	0.090812	-0.000031
C44	C	0.508638	0.424145	0.333302
C45	C	0.841971	0.757478	0.666636
C46	C	0.147414	0.026636	-0.000043
C47	C	0.480747	0.359970	0.333290
C48	C	0.814081	0.693303	0.666623
C49	C	0.074593	0.025561	-0.000049
C50	C	0.407926	0.358894	0.333285
C51	C	0.741259	0.692227	0.666618
N52	N	0.286835	0.054274	0.063975
N53	N	0.620168	0.387607	0.397308
N54	N	0.953501	0.720941	0.730641
N55	N	0.356011	0.055300	0.063982
N56	N	0.689344	0.388634	0.397315
N57	N	1.022678	0.721967	0.730649
C58	C	0.394712	0.094048	-0.000018
C59	C	0.728045	0.427381	0.333315
C60	C	1.061378	0.760714	0.666649
N61	N	0.361620	0.131742	-0.064011
N62	N	0.694953	0.465076	0.269322
N63	N	1.028286	0.798409	0.602655
N64	N	0.292436	0.130719	-0.064014
N65	N	0.625769	0.464052	0.269320
N66	N	0.959103	0.797385	0.602653
C67	C	0.254268	0.091971	-0.000026
C68	C	0.587601	0.425304	0.333307
C69	C	0.920935	0.758637	0.666641
C70	C	0.501560	0.159384	-0.000020
C71	C	0.834893	0.492717	0.333313
C72	C	1.168226	0.826051	0.666646
C73	C	0.574386	0.160456	-0.000034
C74	C	0.907720	0.493789	0.333300
C75	C	1.241053	0.827123	0.666633
C76	C	0.591427	0.033189	-0.000024
C77	C	0.924761	0.366523	0.333309
C78	C	1.258094	0.699856	0.666642
C79	C	0.518603	0.032118	-0.000023
C80	C	0.851937	0.365451	0.333311
C81	C	1.185270	0.698784	0.666644
C82	C	0.473673	0.095218	-0.000015
C83	C	0.807006	0.428551	0.333318
C84	C	1.140339	0.761884	0.666652
C85	C	0.829977	-0.034652	-0.000014
C86	C	1.163310	0.298681	0.333319
C87	C	1.496643	0.632015	0.666653
C88	C	0.828837	-0.112156	-0.000011
C89	C	1.162171	0.221177	0.333322
C90	C	1.495504	0.554510	0.666656
C91	C	0.842954	-0.163188	-0.102495
C92	C	1.176287	0.170145	0.230838
C93	C	1.509620	0.503479	0.564172
C94	C	0.841875	-0.236012	-0.102503
C95	C	1.175208	0.097321	0.230830
C96	C	1.508542	0.430655	0.564163
C97	C	0.826693	-0.257802	-0.000022
C98	C	1.160027	0.075531	0.333311
C99	C	1.493360	0.408864	0.666645
C100	C	0.812571	-0.206759	0.102475
C101	C	1.145905	0.126574	0.435809
C102	C	1.479238	0.459907	0.769142
C103	C	0.813643	-0.133936	0.102481
C104	C	1.146977	0.199397	0.435814
C105	C	1.480310	0.532730	0.769148
N106	N	0.853840	-0.366576	0.076252
N107	N	1.187173	-0.033242	0.409585
N108	N	1.520506	0.300091	0.742918
N109	N	0.852824	-0.435756	0.076239
N110	N	1.186157	-0.102422	0.409573
N111	N	1.519490	0.230911	0.742906
C112	C	0.823461	-0.477213	-0.000033
C113	C	1.156794	-0.143880	0.333300
C114	C	1.490127	0.189454	0.666634
N115	N	0.795163	-0.446880	-0.076310
N116	N	1.128497	-0.113547	0.257023
N117	N	1.461830	0.219786	0.590357
N118	N	0.796183	-0.377695	-0.076301
N119	N	1.129516	-0.044361	0.257033
N120	N	1.462850	0.288972	0.590366
C121	C	0.825529	-0.336765	-0.000017
C122	C	1.158862	-0.003432	0.333316
C123	C	1.492195	0.329902	0.666650
C124	C	0.836407	-0.607210	-0.102533
C125	C	1.169741	-0.273876	0.230800
C126	C	1.503074	0.059457	0.564133
C127	C	0.835324	-0.680034	-0.102538
C128	C	1.168657	-0.346700	0.230796
C129	C	1.501990	-0.013367	0.564129
C130	C	0.806027	-0.650780	0.102444
C131	C	1.139360	-0.317447	0.435777
C132	C	1.472693	0.015886	0.769111
C133	C	0.807104	-0.577957	0.102445
C134	C	1.140437	-0.244624	0.435779
C135	C	1.473770	0.088710	0.769112
C136	C	0.822298	-0.556177	-0.000046
C137	C	1.155631	-0.222844	0.333287
C138	C	1.488964	0.110490	0.666620
C139	C	0.952156	0.087523	-0.000032
C140	C	1.285489	0.420856	0.333301
C141	C	1.618823	0.754190	0.666634
C142	C	1.029662	0.088661	-0.000041
C143	C	1.362995	0.421994	0.333292
C144	C	1.696329	0.755328	0.666626
C145	C	0.819000	0.220678	-0.000045
C146	C	1.152334	0.554011	0.333288
C147	C	1.485667	0.887345	0.666622
C148	C	0.820141	0.298181	-0.000055
C149	C	1.153474	0.631515	0.333278
C150	C	1.486807	0.964848	0.666611
N151	N	0.782629	0.134835	0.292882
N152	N	1.115962	0.468168	0.626216
N153	N	1.449296	0.801502	0.959549
N154	N	0.866353	0.051186	-0.292939
N155	N	1.199687	0.384519	0.040395
N156	N	1.533020	0.717852	0.373728
C157	C	0.922430	-0.004859	0.647883
C158	C	1.255764	0.328474	0.981216
C159	C	1.589097	0.661807	1.314550
C160	C	0.939334	-0.021753	0.529545
C161	C	1.272667	0.311580	0.862879
C162	C	1.606001	0.644913	1.196212
C163	C	0.900159	0.017392	0.470374
C164	C	1.233492	0.350725	0.803707
C165	C	1.566826	0.684059	1.137040
C166	C	0.844078	0.073435	0.529552
C167	C	1.177411	0.406768	0.862885
C168	C	1.510744	0.740102	1.196218
C169	C	0.827176	0.090334	0.647901
C170	C	1.160509	0.423668	0.981235
C171	C	1.493842	0.757001	1.314568
C172	C	0.804905	0.112586	0.470392
C173	C	1.138238	0.445919	0.803725
C174	C	1.471571	0.779253	1.137059
C175	C	0.748823	0.168629	0.529570
C176	C	1.082157	0.501962	0.862903
C177	C	1.415490	0.835295	1.196237
C178	C	0.731924	0.185525	0.647908
C179	C	1.065257	0.518858	0.981241
C180	C	1.398591	0.852192	1.314575
C181	C	0.771099	0.146379	0.707079
C182	C	1.104432	0.479713	1.040413
C183	C	1.437766	0.813046	1.373746
C184	C	0.821807	0.095686	0.352042
C185	C	1.155140	0.429020	0.685376
C186	C	1.488473	0.762353	1.018709
C187	C	0.726552	0.190880	0.352060
C188	C	1.059885	0.524214	0.685394
C189	C	1.393219	0.857547	1.018727
C190	C	0.709648	0.207774	0.470398
C191	C	1.042982	0.541108	0.803732
C192	C	1.376315	0.874441	1.137065
H193	H	0.020968	0.204207	-0.000034
H194	H	0.354301	0.537541	0.333299
H195	H	0.687635	0.870874	0.666632
H196	H	0.855324	-0.145460	-0.185952
H197	H	1.188657	0.187873	0.147381
H198	H	1.521990	0.521207	0.480715
H199	H	0.464975	0.210763	-0.000016
H200	H	0.798309	0.544097	0.333317
H201	H	1.131642	0.877430	0.666650
H202	H	0.153076	0.206157	-0.000026
H203	H	0.486410	0.539491	0.333308
H204	H	0.819743	0.872824	0.666641
H205	H	0.853366	-0.277569	-0.185961
H206	H	1.186699	0.055764	0.147372
H207	H	1.520033	0.389097	0.480706
H208	H	0.795615	-0.536406	0.185899
H209	H	1.128948	-0.203072	0.519232
H210	H	1.462281	0.130261	0.852566
H211	H	0.867468	0.050056	0.303870
H212	H	1.200802	0.383390	0.637203
H213	H	1.534135	0.716723	0.970537
H214	H	0.984995	-0.067382	0.481367
H215	H	1.318329	0.265951	0.814700
H216	H	1.651662	0.599285	1.148033
H217	H	0.802145	-0.092384	0.185938
H218	H	1.135478	0.240949	0.519272
H219	H	1.468812	0.574283	0.852605
H220	H	0.757334	0.160132	0.803440
H221	H	1.090668	0.493466	1.136773
H222	H	1.424001	0.826799	1.470107
H223	H	0.848775	-0.589475	-0.185988
H224	H	1.182108	-0.256142	0.147345
H225	H	1.515442	0.077192	0.480678
H226	H	0.913925	0.003634	0.374018
H227	H	1.247258	0.336968	0.707351
H228	H	1.580591	0.670301	1.040684
H229	H	0.597088	0.212708	-0.000038
H230	H	0.930422	0.546042	0.333295
H231	H	1.263755	0.879375	0.666629
H232	H	0.184005	-0.024733	-0.000038
H233	H	0.517338	0.308600	0.333295
H234	H	0.850671	0.641933	0.666628
H235	H	0.846816	-0.721584	-0.185996
H236	H	1.180149	-0.388251	0.147337
H237	H	1.513482	-0.054918	0.480671
H238	H	0.686265	0.231163	0.696091
H239	H	1.019598	0.564497	1.029424
H240	H	1.352931	0.897830	1.362757
H241	H	0.954325	-0.036723	0.696068
H242	H	1.287658	0.296610	1.029402
H243	H	1.620992	0.629944	1.362735
H244	H	0.663986	0.253406	0.518596
H245	H	0.997319	0.586739	0.851929
H246	H	1.330652	0.920073	1.185263
H247	H	0.051891	-0.026692	-0.000054
H248	H	0.385225	0.306641	0.333279
H249	H	0.718558	0.639974	0.666613
H250	H	0.628014	-0.018182	-0.000025
H251	H	0.961347	0.315152	0.333309
H252	H	1.294680	0.648485	0.666642
H253	H	0.694653	0.222757	0.303884
H254	H	1.027987	0.556091	0.637217
H255	H	1.361320	0.889424	0.970551
H256	H	0.495900	-0.020132	-0.000021
H257	H	0.829233	0.313201	0.333313
H258	H	1.162567	0.646534	0.666646
H259	H	0.793660	-0.668520	0.185886
H260	H	1.126994	-0.335187	0.519220
H261	H	1.460327	-0.001854	0.852553
H262	H	0.800208	-0.224505	0.185916
H263	H	1.133542	0.108828	0.519250
H264	H	1.466875	0.442161	0.852583
