data_functionalizedCrystal
_audit_creation_method	'MofGen! by Chris Wilmer'
_symmetry_space_group_name_H-M	'P1'
_symmetry_Int_Tables_number	1
_symmetry_cell_setting	triclinic
loop_
_symmetry_equiv_pos_as_xyz
  x,y,z
_cell_length_a	23.532355
_cell_length_b	23.532357
_cell_length_c	10.268362
_cell_angle_alpha	90.009795
_cell_angle_beta	89.989546
_cell_angle_gamma	82.827896
loop_
_atom_site_label
_atom_site_type_symbol
_atom_site_fract_x
_atom_site_fract_y
_atom_site_fract_z
O1	O	0.755259	0.068996	0.108139
O2	O	0.589389	0.079031	0.108182
O3	O	0.677341	-0.008921	0.108132
O4	O	0.667307	0.156948	0.108189
O5	O	0.677348	-0.008925	-0.108468
O6	O	0.589397	0.079027	-0.108418
O7	O	0.755266	0.068993	-0.108462
Cu8	Cu	0.672332	0.074009	-0.128218
Cu9	Cu	0.672323	0.074014	0.127938
O10	O	0.667315	0.156944	-0.108412
C11	C	0.568177	0.078778	-0.000113
C12	C	0.504958	0.078024	-0.000097
C13	C	0.112949	0.073284	-0.118223
C14	C	0.053550	0.072566	-0.118228
O15	O	0.022835	0.072174	-0.218640
N16	N	0.023837	0.072212	-0.000159
C17	C	0.053528	0.072570	0.117922
O18	O	0.022801	0.072203	0.218348
C19	C	0.112927	0.073284	0.117926
C20	C	0.142636	0.073643	-0.000150
C21	C	0.142658	0.073642	-0.236289
C22	C	0.202053	0.074361	-0.236283
C23	C	0.231739	0.074721	-0.118211
C24	C	0.202031	0.074362	-0.000144
C25	C	0.142617	0.073638	0.236006
C26	C	0.202020	0.074351	0.236000
C27	C	0.231728	0.074710	0.117924
C28	C	0.291112	0.075440	0.117934
N29	N	0.320824	0.075794	-0.000135
C30	C	0.291138	0.075434	-0.118207
C31	C	-0.071213	0.071071	0.117905
C32	C	-0.130611	0.070362	0.117902
C33	C	-0.130585	0.070357	-0.118248
C34	C	-0.071186	0.071070	-0.118244
C35	C	-0.041501	0.071425	-0.000164
C36	C	0.415872	0.076943	-0.118186
C37	C	0.475272	0.077664	-0.118170
C38	C	0.475241	0.077667	0.117980
C39	C	0.415846	0.076949	0.117964
C40	C	0.386163	0.076585	-0.000129
O41	O	0.321865	0.075830	0.218294
O42	O	0.321874	0.075794	-0.218616
C43	C	0.677094	-0.030140	-0.000172
C44	C	0.676339	-0.093358	-0.000184
C45	C	0.671598	-0.485366	0.117957
C46	C	0.670881	-0.544766	0.117964
O47	O	0.670487	-0.575480	0.218377
N48	N	0.670529	-0.574479	-0.000103
C49	C	0.670889	-0.544789	-0.118186
O50	O	0.670524	-0.575516	-0.218610
C51	C	0.671602	-0.485390	-0.118192
C52	C	0.671960	-0.455681	-0.000117
C53	C	0.671955	-0.455657	0.236022
C54	C	0.672673	-0.396262	0.236014
C55	C	0.673035	-0.366576	0.117940
C56	C	0.672678	-0.396286	-0.000125
C57	C	0.671958	-0.455701	-0.236273
C58	C	0.672671	-0.396298	-0.236269
C59	C	0.673028	-0.366588	-0.118194
C60	C	0.673758	-0.307205	-0.118207
N61	N	0.674109	-0.277492	-0.000139
C62	C	0.673748	-0.307177	0.117934
C63	C	0.669391	-0.669530	-0.118164
C64	C	0.668681	-0.728928	-0.118159
C65	C	0.668672	-0.728901	0.117992
C66	C	0.669385	-0.669502	0.117986
C67	C	0.669742	-0.639817	-0.000096
C68	C	0.675257	-0.182444	0.117908
C69	C	0.675977	-0.123044	0.117890
C70	C	0.675984	-0.123076	-0.118260
C71	C	0.675266	-0.182471	-0.118242
C72	C	0.674901	-0.212153	-0.000148
O73	O	0.674150	-0.276452	-0.218569
O74	O	0.674106	-0.276442	0.218342
C75	C	0.776479	0.069245	-0.000164
C76	C	0.839698	0.069999	-0.000171
C77	C	0.667562	0.178163	-0.000105
C78	C	0.668317	0.241381	-0.000084
N79	N	0.672343	0.074006	-0.308383
N80	N	0.672317	0.074013	0.308104
C81	C	0.672321	0.074013	0.425946
C82	C	0.672331	0.074011	0.573784
H83	H	0.391654	0.076665	0.214112
F84	F	0.669764	-0.637888	0.243656
H85	H	0.499422	0.077962	0.214111
H86	H	-0.154797	0.070079	0.214052
H87	H	0.118438	0.073344	0.332157
F88	F	-0.039625	0.071454	0.243591
F89	F	0.384290	0.076555	-0.243874
H90	H	0.668376	-0.753081	0.214134
H91	H	-0.154766	0.070063	-0.214389
F92	F	0.233610	0.074727	0.361681
H93	H	0.674981	-0.206662	-0.214388
F94	F	0.233665	0.074741	-0.361957
H95	H	0.676270	-0.098857	0.214045
F96	F	0.676370	-0.091472	-0.243916
F97	F	0.111073	0.073261	-0.361969
H98	H	0.672962	-0.372077	0.332163
F99	F	0.506887	0.078049	-0.243848
H100	H	0.674956	-0.206603	0.214072
H101	H	0.671658	-0.479820	0.332177
H102	H	0.668399	-0.753114	-0.214307
H103	H	0.669683	-0.645364	-0.214326
H104	H	0.672953	-0.372130	-0.332428
H105	H	-0.047002	0.071363	-0.214392
F106	F	0.671576	-0.487306	-0.361947
