data_functionalizedCrystal
_audit_creation_method	'MofGen! by Chris Wilmer'
_symmetry_space_group_name_H-M	'P1'
_symmetry_Int_Tables_number	1
_symmetry_cell_setting	triclinic
loop_
_symmetry_equiv_pos_as_xyz
  x,y,z
_cell_length_a	18.215407
_cell_length_b	12.759399
_cell_length_c	12.759401
_cell_angle_alpha	90.010016
_cell_angle_beta	90.005505
_cell_angle_gamma	90.015564
loop_
_atom_site_label
_atom_site_type_symbol
_atom_site_fract_x
_atom_site_fract_y
_atom_site_fract_z
Zn1	Zn	1.125018	-0.418420	0.594071
Zn2	Zn	1.124978	-0.594071	0.418390
Zn3	Zn	1.001981	-0.418408	0.418401
Zn4	Zn	1.001937	-0.594058	0.594021
O5	O	1.063479	-0.506239	0.506221
O6	O	1.227997	-0.441730	0.570783
O7	O	1.108664	-0.570769	0.271371
O8	O	1.018337	-0.271389	0.441729
O9	O	1.227968	-0.570781	0.441711
O10	O	1.108732	-0.271397	0.570793
O11	O	1.018299	-0.441711	0.271378
O12	O	0.898991	-0.441698	0.441681
O13	O	1.018262	-0.570759	0.741049
O14	O	0.898959	-0.570748	0.570708
O15	O	1.108689	-0.441718	0.741086
O16	O	1.108621	-0.741090	0.441663
O17	O	1.018224	-0.741081	0.570698
C18	C	0.872272	-0.506221	0.506191
C19	C	0.790473	-0.506239	0.506203
C20	C	1.063433	-0.779207	0.506197
C21	C	1.063481	-0.895983	0.506222
C22	C	0.602282	-0.573541	0.573303
C23	C	0.525423	-0.573544	0.573316
C24	C	0.525427	-0.438957	0.439162
C25	C	0.602285	-0.438949	0.439154
C26	C	0.640710	-0.506247	0.506224
C27	C	0.486994	-0.506258	0.506244
C28	C	0.403660	-0.506261	0.506258
C29	C	0.724049	-0.506243	0.506212
C30	C	1.110605	-0.950815	0.439110
C31	C	1.110652	-1.060539	0.439145
C32	C	1.016446	-1.060590	0.573408
C33	C	1.016403	-0.950868	0.573377
C34	C	1.197525	-1.210403	0.401762
C35	C	1.244642	-1.265239	0.334633
C36	C	1.255986	-1.229661	0.232123
C37	C	1.220201	-1.139250	0.196721
C38	C	1.173078	-1.084420	0.263845
C39	C	1.161749	-1.119996	0.366369
C40	C	0.929529	-0.801002	0.610749
C41	C	0.882403	-0.746170	0.677868
C42	C	0.871052	-0.781745	0.780379
C43	C	0.906823	-0.872160	0.815777
C44	C	0.953950	-0.926992	0.748659
C45	C	0.965302	-0.891409	0.646148
C46	C	1.255431	-0.506258	0.506252
C47	C	1.337230	-0.506266	0.506265
C48	C	1.063475	-0.506238	0.780254
C49	C	1.063474	-0.506238	0.897031
C50	C	1.063544	-0.232206	0.506268
C51	C	1.063572	-0.115429	0.506288
C52	C	1.016427	-0.439046	0.951896
C53	C	1.016422	-0.439056	1.061620
C54	C	1.110518	-0.573453	1.061604
C55	C	1.110519	-0.573447	0.951882
C56	C	0.929639	-0.401514	1.211566
C57	C	0.882598	-0.334305	1.266435
C58	C	0.871325	-0.231788	1.230846
C59	C	0.907103	-0.196458	1.140389
C60	C	0.954150	-0.263661	1.085525
C61	C	0.965409	-0.366193	1.121113
C62	C	1.197303	-0.610978	0.801934
C63	C	1.244354	-0.678177	0.747068
C64	C	1.255634	-0.780696	0.782656
C65	C	1.219869	-0.816022	0.873116
C66	C	1.172818	-0.748823	0.927982
C67	C	1.161536	-0.646305	0.892387
C68	C	1.063474	-0.506261	1.233254
C69	C	1.063469	-0.506253	1.116477
H70	H	0.633566	-0.628336	0.627918
O71	O	1.301342	-0.845851	0.729212
C72	C	1.382340	-0.866632	0.581361
C73	C	1.330587	-0.792742	0.641767
H74	H	1.406011	-0.823715	0.510662
H75	H	1.350412	-0.938347	0.553694
H76	H	1.428952	-0.892521	0.635063
H77	H	1.283965	-0.766772	0.588128
H78	H	1.362567	-0.721081	0.669449
H79	H	1.229057	-0.899500	0.902096
O80	O	1.156271	-0.897337	0.373919
C81	C	1.197992	-0.728284	0.314412
C82	C	1.146223	-0.788713	0.388275
H83	H	1.189897	-0.640451	0.326009
H84	H	1.185126	-0.749834	0.229661
H85	H	1.257322	-0.749843	0.332937
H86	H	1.086875	-0.767186	0.369844
H87	H	1.159152	-0.767157	0.473003
O88	O	0.970610	-1.113790	0.638582
C89	C	0.845409	-1.147529	0.689389
C90	C	0.897238	-1.087201	0.615530
H91	H	0.786076	-1.126072	0.670764
H92	H	0.858216	-1.125881	0.774133
H93	H	0.853568	-1.235365	0.677902
H94	H	0.889107	-0.999352	0.626924
H95	H	0.884418	-1.108936	0.530814
O96	O	1.186365	-0.511320	0.767541
C97	C	1.196153	-0.327066	0.806599
C98	C	1.208555	-0.439874	0.845688
H99	H	1.214102	-0.269270	0.869752
H100	H	1.135440	-0.315014	0.788560
H101	H	1.229784	-0.313403	0.732501
H102	H	1.174969	-0.453615	0.919808
H103	H	1.269283	-0.451871	0.863655
H104	H	0.983283	-0.234894	1.011880
H105	H	0.494139	-0.628340	0.627941
H106	H	0.494132	-0.384167	0.384554
H107	H	0.983080	-1.000610	0.777490
H108	H	0.633573	-0.384144	0.384530
H109	H	1.143945	-1.010807	0.235022
H110	H	0.897928	-0.112973	1.111426
H111	H	1.273484	-0.649400	0.673419
H112	H	1.229435	-1.110296	0.113244
O113	O	1.301814	-1.282758	0.166861
C114	C	1.411361	-1.276560	0.061188
C115	C	1.359510	-1.216296	0.135054
H116	H	1.458029	-1.222858	0.035468
H117	H	1.379520	-1.304164	-0.010624
H118	H	1.434948	-1.347310	0.104101
H119	H	1.335909	-1.145505	0.092234
H120	H	1.391385	-1.188771	0.206864
H121	H	1.273778	-1.338852	0.363467
O122	O	0.895745	-0.906555	0.915404
C123	C	0.833938	-0.877954	1.079904
C124	C	0.846436	-0.838875	0.967110
H125	H	0.794060	-0.823266	1.121733
H126	H	0.888466	-0.879097	1.123753
H127	H	0.809997	-0.960486	1.077701
H128	H	0.870353	-0.756330	0.969216
H129	H	0.791890	-0.837809	0.923306
O130	O	0.825270	-0.728334	0.845457
C131	C	0.744197	-0.580563	0.866088
C132	C	0.796034	-0.640932	0.792286
H133	H	0.720533	-0.509899	0.823121
H134	H	0.776055	-0.552846	0.937842
H135	H	0.697584	-0.634308	0.891924
H136	H	0.842657	-0.587250	0.766370
H137	H	0.764124	-0.668663	0.720586
H138	H	0.938774	-0.772021	0.527278
O139	O	0.970619	-0.373883	0.898659
C140	C	0.845448	-0.322835	0.865131
C141	C	0.897245	-0.396711	0.925465
H142	H	0.786115	-0.341251	0.886798
H143	H	0.853465	-0.334375	0.777272
H144	H	0.858427	-0.238127	0.886713
H145	H	0.884298	-0.481448	0.903971
H146	H	0.889219	-0.385081	1.013309
H147	H	0.833023	-0.177066	1.275528
O148	O	0.847923	-0.368518	1.354406
C149	C	0.829198	-0.344234	1.539777
C150	C	0.868524	-0.305405	1.440235
H151	H	0.845828	-0.293211	1.609190
H152	H	0.845338	-0.429039	1.555873
H153	H	0.767267	-0.339158	1.527937
H154	H	0.930463	-0.310412	1.451998
H155	H	0.852325	-0.220619	1.424169
O156	O	1.156321	-0.638677	1.114774
C157	C	1.281495	-0.689648	1.148401
C158	C	1.229702	-0.615734	1.088105
H159	H	1.340834	-0.671111	1.126879
H160	H	1.268611	-0.774380	1.126790
H161	H	1.273377	-0.678125	1.236242
H162	H	1.237791	-0.627164	1.000251
H163	H	1.242598	-0.531030	1.109804
O164	O	0.940508	-0.501173	1.245989
C165	C	0.930792	-0.685425	1.206885
C166	C	0.918427	-0.572616	1.167776
H167	H	0.912959	-0.743217	1.143661
H168	H	0.897124	-0.699205	1.280929
H169	H	0.991503	-0.697362	1.224999
H170	H	0.857734	-0.560600	1.149601
H171	H	0.952142	-0.558890	1.093767
O172	O	1.137955	-0.783065	1.015789
C173	C	1.021976	-0.815647	1.100579
C174	C	1.061363	-0.776820	1.001085
H175	H	0.960044	-0.810632	1.088717
H176	H	1.038574	-0.764685	1.170054
H177	H	1.038158	-0.900448	1.116599
H178	H	1.045200	-0.692035	0.984967
H179	H	1.044763	-0.827857	0.931666
H180	H	1.188301	-1.239372	0.485236
H181	H	0.853280	-0.672544	0.649040
