data_functionalizedCrystal
_audit_creation_method	'MofGen! by Chris Wilmer'
_symmetry_space_group_name_H-M	'P1'
_symmetry_Int_Tables_number	1
_symmetry_cell_setting	triclinic
loop_
_symmetry_equiv_pos_as_xyz
  x,y,z
_cell_length_a	16.625548
_cell_length_b	25.639239
_cell_length_c	16.625539
_cell_angle_alpha	90.031255
_cell_angle_beta	90.020568
_cell_angle_gamma	90.039754
loop_
_atom_site_label
_atom_site_type_symbol
_atom_site_fract_x
_atom_site_fract_y
_atom_site_fract_z
Zn1	Zn	1.232590	-0.208135	0.455893
Zn2	Zn	1.482590	0.041865	0.705893
Zn3	Zn	1.732590	0.291865	0.955893
Zn4	Zn	1.982590	0.541865	1.205893
Zn5	Zn	1.232455	-0.295573	0.321053
Zn6	Zn	1.482455	-0.045573	0.571053
Zn7	Zn	1.732455	0.204427	0.821053
Zn8	Zn	1.982455	0.454427	1.071053
Zn9	Zn	1.097751	-0.208155	0.321073
Zn10	Zn	1.347751	0.041845	0.571073
Zn11	Zn	1.597751	0.291845	0.821073
Zn12	Zn	1.847751	0.541845	1.071073
Zn13	Zn	1.097684	-0.295543	0.455843
Zn14	Zn	1.347684	-0.045543	0.705843
Zn15	Zn	1.597684	0.204457	0.955843
Zn16	Zn	1.847684	0.454457	1.205843
O17	O	1.165120	-0.251851	0.388466
O18	O	1.415120	-0.001851	0.638466
O19	O	1.665120	0.248149	0.888466
O20	O	1.915120	0.498149	1.138466
O21	O	1.345404	-0.219738	0.438018
O22	O	1.595404	0.030262	0.688018
O23	O	1.845404	0.280262	0.938018
O24	O	2.095404	0.530262	1.188018
O25	O	1.214558	-0.283998	0.208223
O26	O	1.464558	-0.033998	0.458223
O27	O	1.714558	0.216002	0.708223
O28	O	1.964558	0.466002	0.958223
O29	O	1.115723	-0.134987	0.338987
O30	O	1.365723	0.115013	0.588987
O31	O	1.615723	0.365013	0.838987
O32	O	1.865723	0.615013	1.088987
O33	O	1.345305	-0.283978	0.338952
O34	O	1.595305	-0.033978	0.588952
O35	O	1.845305	0.216022	0.838952
O36	O	2.095305	0.466022	1.088952
O37	O	1.214788	-0.134972	0.438038
O38	O	1.464788	0.115028	0.688038
O39	O	1.714788	0.365028	0.938038
O40	O	1.964788	0.615028	1.188038
O41	O	1.115592	-0.219772	0.208238
O42	O	1.365592	0.030228	0.458238
O43	O	1.615592	0.280228	0.708238
O44	O	1.865592	0.530228	0.958238
O45	O	0.984910	-0.219743	0.338938
O46	O	1.234910	0.030257	0.588938
O47	O	1.484910	0.280257	0.838938
O48	O	1.734910	0.530257	1.088938
O49	O	1.115607	-0.283927	0.568682
O50	O	1.365607	-0.033927	0.818682
O51	O	1.615607	0.216073	1.068682
O52	O	1.865607	0.466073	1.318682
O53	O	0.984860	-0.283946	0.437953
O54	O	1.234860	-0.033946	0.687953
O55	O	1.484860	0.216054	0.937953
O56	O	1.734860	0.466054	1.187953
O57	O	1.214722	-0.219709	0.568719
O58	O	1.464722	0.030291	0.818719
O59	O	1.714722	0.280291	1.068719
O60	O	1.964722	0.530291	1.318719
O61	O	1.214492	-0.368734	0.338904
O62	O	1.464492	-0.118734	0.588904
O63	O	1.714492	0.131266	0.838904
O64	O	1.964492	0.381266	1.088904
O65	O	1.115477	-0.368712	0.437933
O66	O	1.365477	-0.118712	0.687933
O67	O	1.615477	0.131288	0.937933
O68	O	1.865477	0.381288	1.187933
C69	C	0.955629	-0.251844	0.388443
C70	C	1.205629	-0.001844	0.638443
C71	C	1.455629	0.248156	0.888443
C72	C	1.705629	0.498156	1.138443
C73	C	0.866008	-0.251853	0.388452
C74	C	1.116008	-0.001853	0.638452
C75	C	1.366008	0.248147	0.888452
C76	C	1.616008	0.498147	1.138452
C77	C	0.537832	-0.251857	0.388487
C78	C	0.787832	-0.001857	0.638487
C79	C	1.037832	0.248143	0.888487
C80	C	1.287832	0.498143	1.138487
C81	C	0.629141	-0.251854	0.388475
C82	C	0.879141	-0.001854	0.638475
C83	C	1.129141	0.248146	0.888475
C84	C	1.379141	0.498146	1.138475
C85	C	0.701917	-0.251855	0.388469
C86	C	0.951917	-0.001855	0.638469
C87	C	1.201917	0.248145	0.888469
C88	C	1.451917	0.498145	1.138469
C89	C	0.793231	-0.251852	0.388458
C90	C	1.043231	-0.001852	0.638458
C91	C	1.293231	0.248148	0.888458
C92	C	1.543231	0.498148	1.138458
C93	C	1.164984	-0.387694	0.388429
C94	C	1.414984	-0.137694	0.638429
C95	C	1.664984	0.112306	0.888429
C96	C	1.914984	0.362306	1.138429
C97	C	1.165000	-0.445808	0.388440
C98	C	1.415000	-0.195808	0.638440
C99	C	1.665000	0.054192	0.888440
C100	C	1.915000	0.304192	1.138440
C101	C	1.216812	-0.806170	0.336989
C102	C	1.466812	-0.556170	0.586989
C103	C	1.716812	-0.306170	0.836989
C104	C	1.966812	-0.056170	1.086989
C105	C	1.216843	-0.860774	0.337000
C106	C	1.466843	-0.610774	0.587000
C107	C	1.716843	-0.360774	0.837000
C108	C	1.966843	-0.110774	1.087000
O109	O	1.260755	-0.889010	0.293213
O110	O	1.510755	-0.639010	0.543213
O111	O	1.760755	-0.389010	0.793213
O112	O	2.010755	-0.139010	1.043213
N113	N	1.165262	-0.888090	0.388519
N114	N	1.415262	-0.638090	0.638519
N115	N	1.665262	-0.388090	0.888519
N116	N	1.915262	-0.138090	1.138519
C117	C	1.113651	-0.860799	0.440037
C118	C	1.363651	-0.610799	0.690037
C119	C	1.613651	-0.360799	0.940037
C120	C	1.863651	-0.110799	1.190037
O121	O	1.069780	-0.889048	0.483860
O122	O	1.319780	-0.639048	0.733860
O123	O	1.569780	-0.389048	0.983860
O124	O	1.819780	-0.139048	1.233860
C125	C	1.113625	-0.806196	0.440029
C126	C	1.363625	-0.556196	0.690029
C127	C	1.613625	-0.306196	0.940029
C128	C	1.863625	-0.056196	1.190029
C129	C	1.165204	-0.778883	0.388501
C130	C	1.415204	-0.528883	0.638501
C131	C	1.665204	-0.278883	0.888501
C132	C	1.915204	-0.028883	1.138501
C133	C	1.268387	-0.778857	0.285465
C134	C	1.518387	-0.528857	0.535465
C135	C	1.768387	-0.278857	0.785465
C136	C	2.018387	-0.028857	1.035465
C137	C	1.268355	-0.724256	0.285453
C138	C	1.518355	-0.474256	0.535453
C139	C	1.768355	-0.224256	0.785453
C140	C	2.018355	0.025744	1.035453
C141	C	1.216747	-0.696969	0.336965
C142	C	1.466747	-0.446969	0.586965
C143	C	1.716747	-0.196969	0.836965
C144	C	1.966747	0.053031	1.086965
C145	C	1.165171	-0.724282	0.388489
C146	C	1.415171	-0.474282	0.638489
C147	C	1.665171	-0.224282	0.888489
C148	C	1.915171	0.025718	1.138489
C149	C	1.062019	-0.778906	0.491551
C150	C	1.312019	-0.528906	0.741551
C151	C	1.562019	-0.278906	0.991551
C152	C	1.812019	-0.028906	1.241551
C153	C	1.061997	-0.724299	0.491539
C154	C	1.311997	-0.474299	0.741539
C155	C	1.561997	-0.224299	0.991539
C156	C	1.811997	0.025701	1.241539
C157	C	1.113576	-0.696986	0.440011
C158	C	1.363576	-0.446986	0.690011
C159	C	1.613576	-0.196986	0.940011
C160	C	1.863576	0.053014	1.190011
C161	C	1.113531	-0.642395	0.439990
C162	C	1.363531	-0.392395	0.689990
C163	C	1.613531	-0.142395	0.939990
C164	C	1.863531	0.107605	1.189990
N165	N	1.165112	-0.615078	0.388470
N166	N	1.415112	-0.365078	0.638470
N167	N	1.665112	-0.115078	0.888470
N168	N	1.915112	0.134922	1.138470
C169	C	1.216720	-0.642366	0.336958
C170	C	1.466720	-0.392366	0.586958
C171	C	1.716720	-0.142366	0.836958
C172	C	1.966720	0.107634	1.086958
C173	C	1.113712	-0.975470	0.440049
C174	C	1.363712	-0.725470	0.690049
C175	C	1.613712	-0.475470	0.940049
C176	C	1.863712	-0.225470	1.190049
C177	C	1.113734	-1.030072	0.440053
C178	C	1.363734	-0.780072	0.690053
C179	C	1.613734	-0.530072	0.940053
C180	C	1.863734	-0.280072	1.190053
C181	C	1.216927	-1.030043	0.337017
C182	C	1.466927	-0.780043	0.587017
C183	C	1.716927	-0.530043	0.837017
C184	C	1.966927	-0.280043	1.087017
C185	C	1.216900	-0.975440	0.337009
C186	C	1.466900	-0.725440	0.587009
C187	C	1.716900	-0.475440	0.837009
C188	C	1.966900	-0.225440	1.087009
C189	C	1.165293	-0.948154	0.388530
C190	C	1.415293	-0.698154	0.638530
C191	C	1.665293	-0.448154	0.888530
C192	C	1.915293	-0.198154	1.138530
C193	C	1.216648	-0.527700	0.336937
C194	C	1.466648	-0.277700	0.586937
C195	C	1.716648	-0.027700	0.836937
C196	C	1.966648	0.222300	1.086937
C197	C	1.216608	-0.473095	0.336928
C198	C	1.466608	-0.223095	0.586928
C199	C	1.716608	0.026905	0.836928
C200	C	1.966608	0.276905	1.086928
C201	C	1.113418	-0.473129	0.439967
C202	C	1.363418	-0.223129	0.689967
C203	C	1.613418	0.026871	0.939967
C204	C	1.863418	0.276871	1.189967
C205	C	1.113454	-0.527729	0.439973
C206	C	1.363454	-0.277729	0.689973
C207	C	1.613454	-0.027729	0.939973
C208	C	1.863454	0.222271	1.189973
C209	C	1.165076	-0.555014	0.388456
C210	C	1.415076	-0.305014	0.638456
C211	C	1.665076	-0.055014	0.888456
C212	C	1.915076	0.194986	1.138456
O213	O	1.069644	-0.614124	0.483756
O214	O	1.319644	-0.364124	0.733756
O215	O	1.569644	-0.114124	0.983756
O216	O	1.819644	0.135876	1.233756
O217	O	1.260591	-0.614110	0.293150
O218	O	1.510591	-0.364110	0.543150
O219	O	1.760591	-0.114110	0.793150
O220	O	2.010591	0.135890	1.043150
C221	C	1.375429	-0.251859	0.388489
C222	C	1.625429	-0.001859	0.638489
C223	C	1.875429	0.248141	0.888489
C224	C	2.125429	0.498141	1.138489
C225	C	1.465050	-0.251863	0.388498
C226	C	1.715050	-0.001863	0.638498
C227	C	1.965050	0.248137	0.888498
C228	C	2.215050	0.498137	1.138498
C229	C	1.165172	-0.251812	0.598775
C230	C	1.415172	-0.001812	0.848775
C231	C	1.665172	0.248188	1.098775
C232	C	1.915172	0.498188	1.348775
C233	C	1.165195	-0.251796	0.688396
C234	C	1.415195	-0.001796	0.938396
C235	C	1.665195	0.248204	1.188396
C236	C	1.915195	0.498204	1.438396
C237	C	1.165278	-0.115478	0.388520
C238	C	1.415278	0.134522	0.638520
C239	C	1.665278	0.384522	0.888520
C240	C	1.915278	0.634522	1.138520
C241	C	1.165345	-0.057364	0.388544
C242	C	1.415345	0.192636	0.638544
C243	C	1.665345	0.442636	0.888544
C244	C	1.915345	0.692636	1.138544
C245	C	1.165114	-0.251852	0.178975
C246	C	1.415114	-0.001852	0.428975
C247	C	1.665114	0.248148	0.678975
C248	C	1.915114	0.498148	0.928975
C249	C	1.165248	-0.251722	0.089354
C250	C	1.415248	-0.001722	0.339354
C251	C	1.665248	0.248278	0.589354
C252	C	1.915248	0.498278	0.839354
C253	C	1.165232	-0.251737	1.016572
C254	C	1.415232	-0.001737	1.266572
C255	C	1.665232	0.248263	1.516572
C256	C	1.915232	0.498263	1.766572
C257	C	1.165219	-0.251755	0.925263
C258	C	1.415219	-0.001755	1.175263
C259	C	1.665219	0.248245	1.425263
C260	C	1.915219	0.498245	1.675263
C261	C	1.165214	-0.251767	0.852487
C262	C	1.415214	-0.001767	1.102487
C263	C	1.665214	0.248233	1.352487
C264	C	1.915214	0.498233	1.602487
C265	C	1.165200	-0.251784	0.761172
C266	C	1.415200	-0.001784	1.011172
C267	C	1.665200	0.248216	1.261172
C268	C	1.915200	0.498216	1.511172
H269	H	1.258610	-0.450858	0.294964
H270	H	1.508610	-0.200858	0.544964
H271	H	1.758610	0.049142	0.794964
H272	H	2.008610	0.299142	1.044964
H273	H	1.019973	-0.702085	0.533496
H274	H	1.269973	-0.452085	0.783496
H275	H	1.519973	-0.202085	1.033496
H276	H	1.769973	0.047915	1.283496
C277	C	1.056718	-0.557775	0.496652
C278	C	1.306718	-0.307775	0.746652
C279	C	1.556718	-0.057775	0.996652
C280	C	1.806718	0.192225	1.246652
H281	H	1.025981	-0.533702	0.527331
H282	H	1.275981	-0.283702	0.777331
H283	H	1.525981	-0.033702	1.027331
H284	H	1.775981	0.216298	1.277331
H285	H	1.021616	-0.579119	0.465788
H286	H	1.271616	-0.329119	0.715788
H287	H	1.521616	-0.079119	0.965788
H288	H	1.771616	0.170881	1.215788
H289	H	1.087565	-0.579034	0.531821
H290	H	1.337565	-0.329034	0.781821
H291	H	1.587565	-0.079034	1.031821
H292	H	1.837565	0.170966	1.281821
H293	H	1.258901	-0.953205	0.295051
H294	H	1.508901	-0.703205	0.545051
H295	H	1.758901	-0.453205	0.795051
H296	H	2.008901	-0.203205	1.045051
C297	C	1.005287	-0.808939	0.548239
C298	C	1.255287	-0.558939	0.798239
C299	C	1.505287	-0.308939	1.048239
C300	C	1.755287	-0.058939	1.298239
H301	H	0.974560	-0.784860	0.578919
H302	H	1.224560	-0.534860	0.828919
H303	H	1.474560	-0.284860	1.078919
H304	H	1.724560	-0.034860	1.328919
H305	H	0.970175	-0.830279	0.517380
H306	H	1.220175	-0.580279	0.767380
H307	H	1.470175	-0.330279	1.017380
H308	H	1.720175	-0.080279	1.267380
H309	H	1.036130	-0.830201	0.583408
H310	H	1.286130	-0.580201	0.833408
H311	H	1.536130	-0.330201	1.083408
H312	H	1.786130	-0.080201	1.333408
C313	C	1.056993	-1.060114	0.496728
C314	C	1.306993	-0.810114	0.746728
C315	C	1.556993	-0.560114	0.996728
C316	C	1.806993	-0.310114	1.246728
H317	H	1.064394	-1.096543	0.489359
H318	H	1.314394	-0.846543	0.739359
H319	H	1.564394	-0.596543	0.989359
H320	H	1.814394	-0.346543	1.239359
H321	H	1.068759	-1.051130	0.550910
H322	H	1.318759	-0.801130	0.800910
H323	H	1.568759	-0.551130	1.050910
H324	H	1.818759	-0.301130	1.300910
H325	H	1.002817	-1.051206	0.484869
H326	H	1.252817	-0.801206	0.734869
H327	H	1.502817	-0.551206	0.984869
H328	H	1.752817	-0.301206	1.234869
H329	H	1.071397	-0.450903	0.481905
H330	H	1.321397	-0.200903	0.731905
H331	H	1.571397	0.049097	0.981905
H332	H	1.821397	0.299097	1.231905
H333	H	1.258952	-1.052270	0.295075
H334	H	1.508952	-0.802270	0.545075
H335	H	1.758952	-0.552270	0.795075
H336	H	2.008952	-0.302270	1.045075
H337	H	1.258684	-0.549909	0.294988
H338	H	1.508684	-0.299909	0.544988
H339	H	1.758684	-0.049909	0.794988
H340	H	2.008684	0.200091	1.044988
H341	H	1.310357	-0.702021	0.243497
H342	H	1.560357	-0.452021	0.493497
H343	H	1.810357	-0.202021	0.743497
H344	H	2.060357	0.047979	0.993497
C345	C	1.056931	-0.945460	0.496716
C346	C	1.306931	-0.695460	0.746716
C347	C	1.556931	-0.445460	0.996716
C348	C	1.806931	-0.195460	1.246716
H349	H	1.026214	-0.969552	0.527391
H350	H	1.276214	-0.719552	0.777391
H351	H	1.526214	-0.469552	1.027391
H352	H	1.776214	-0.219552	1.277391
H353	H	1.087737	-0.924123	0.531877
H354	H	1.337737	-0.674123	0.781877
H355	H	1.587737	-0.424123	1.031877
H356	H	1.837737	-0.174123	1.281877
H357	H	1.021800	-0.924197	0.465832
H358	H	1.271800	-0.674197	0.715832
H359	H	1.521800	-0.424197	0.965832
H360	H	1.771800	-0.174197	1.215832
C361	C	1.325157	-0.808864	0.228792
C362	C	1.575157	-0.558864	0.478792
C363	C	1.825157	-0.308864	0.728792
C364	C	2.075157	-0.058864	0.978792
H365	H	1.355860	-0.784770	0.198106
H366	H	1.605860	-0.534770	0.448106
H367	H	1.855860	-0.284770	0.698106
H368	H	2.105860	-0.034770	0.948106
H369	H	1.360289	-0.830132	0.259658
H370	H	1.610289	-0.580132	0.509658
H371	H	1.860289	-0.330132	0.759658
H372	H	2.110289	-0.080132	1.009658
H373	H	1.294337	-0.830196	0.193628
H374	H	1.544337	-0.580196	0.443628
H375	H	1.794337	-0.330196	0.693628
H376	H	2.044337	-0.080196	0.943628
