data_functionalizedCrystal
_audit_creation_method	'MofGen! by Chris Wilmer'
_symmetry_space_group_name_H-M	'P1'
_symmetry_Int_Tables_number	1
_symmetry_cell_setting	triclinic
loop_
_symmetry_equiv_pos_as_xyz
  x,y,z
_cell_length_a	19.805407
_cell_length_b	25.639239
_cell_length_c	25.639233
_cell_angle_alpha	89.981253
_cell_angle_beta	89.985655
_cell_angle_gamma	90.038686
loop_
_atom_site_label
_atom_site_type_symbol
_atom_site_fract_x
_atom_site_fract_y
_atom_site_fract_z
Zn1	Zn	1.034643	-0.208214	-0.295633
Zn2	Zn	1.034544	-0.295633	-0.208197
Zn3	Zn	0.921468	-0.208214	-0.208209
Zn4	Zn	0.921397	-0.295621	-0.295599
O5	O	0.978013	-0.251920	-0.251910
O6	O	1.129346	-0.219816	-0.284044
O7	O	1.019532	-0.284042	-0.135034
O8	O	0.936552	-0.135048	-0.219825
O9	O	1.129274	-0.284043	-0.219805
O10	O	1.019701	-0.135049	-0.284055
O11	O	0.936456	-0.219815	-0.135042
O12	O	0.826742	-0.219803	-0.219792
O13	O	0.936431	-0.284021	-0.368769
O14	O	0.826690	-0.284020	-0.283998
O15	O	1.019632	-0.219804	-0.368794
O16	O	1.019463	-0.368797	-0.219773
O17	O	0.936335	-0.368788	-0.283986
C18	C	0.802157	-0.251910	-0.251893
C19	C	0.726925	-0.251919	-0.251898
C20	C	0.977899	-0.387763	-0.251886
C21	C	0.977912	-0.445877	-0.251893
C22	C	0.691571	-0.285407	-0.285276
C23	C	0.620883	-0.285408	-0.285283
C24	C	0.585549	-0.251923	-0.251910
C25	C	0.620908	-0.218431	-0.218531
C26	C	0.691595	-0.218428	-0.218526
C27	C	0.335835	-0.218442	-0.218548
C28	C	0.265143	-0.218449	-0.218554
C29	C	0.265122	-0.285423	-0.285305
C30	C	0.335810	-0.285420	-0.285300
C31	C	0.371162	-0.251926	-0.251923
C32	C	0.447810	-0.251925	-0.251917
C33	C	0.508902	-0.251926	-0.251914
C34	C	1.021411	-0.806232	-0.218531
C35	C	1.021437	-0.860837	-0.218538
O36	O	1.058303	-0.889067	-0.190145
N37	N	0.978132	-0.888159	-0.251944
C38	C	0.934802	-0.860875	-0.285350
O39	O	0.897971	-0.889129	-0.313766
C40	C	0.934780	-0.806272	-0.285345
C41	C	0.978083	-0.778952	-0.251933
C42	C	1.064711	-0.778912	-0.185121
C43	C	1.064684	-0.724312	-0.185114
C44	C	1.021356	-0.697031	-0.218516
C45	C	0.978056	-0.724351	-0.251925
C46	C	0.891455	-0.778989	-0.318753
C47	C	0.891436	-0.724382	-0.318746
C48	C	0.934740	-0.697062	-0.285333
C49	C	0.934701	-0.642470	-0.285320
N50	N	0.978006	-0.615148	-0.251913
C51	C	1.021334	-0.642428	-0.218511
C52	C	0.934853	-0.975546	-0.285358
C53	C	0.934872	-1.030148	-0.285361
C54	C	1.021508	-1.030106	-0.218549
C55	C	1.021485	-0.975502	-0.218544
C56	C	0.978159	-0.948223	-0.251951
C57	C	1.021273	-0.527763	-0.218497
C58	C	1.021240	-0.473158	-0.218491
C59	C	0.934607	-0.473205	-0.285305
C60	C	0.934637	-0.527805	-0.285309
C61	C	0.977976	-0.555083	-0.251904
O62	O	0.897856	-0.614206	-0.313699
O63	O	1.058166	-0.614167	-0.190104
C64	C	1.154556	-0.251931	-0.251927
C65	C	1.229788	-0.251935	-0.251934
C66	C	0.978035	-0.251911	-0.388283
C67	C	0.978044	-0.251907	-0.446397
C68	C	0.978146	-0.115547	-0.251945
C69	C	0.978202	-0.057433	-0.251960
C70	C	1.021422	-0.218370	-0.806779
C71	C	1.021430	-0.218356	-0.861383
O72	O	1.058257	-0.189903	-0.889636
N73	N	0.978119	-0.251785	-0.888680
C74	C	0.934791	-0.285227	-0.861369
O75	O	0.897951	-0.313659	-0.889601
C76	C	0.934780	-0.285238	-0.806766
C77	C	0.978099	-0.251811	-0.779472
C78	C	1.064737	-0.184945	-0.779485
C79	C	1.064730	-0.184960	-0.724884
C80	C	1.021407	-0.218401	-0.697578
C81	C	0.978091	-0.251826	-0.724871
C82	C	0.891449	-0.318677	-0.779456
C83	C	0.891441	-0.318685	-0.724849
C84	C	0.934761	-0.285258	-0.697555
C85	C	0.934761	-0.285282	-0.642964
N86	N	0.978073	-0.251853	-0.615667
C87	C	1.021395	-0.218412	-0.642974
C88	C	0.934817	-0.285200	-0.976040
C89	C	0.934831	-0.285191	-1.030642
C90	C	1.021470	-0.218319	-1.030652
C91	C	1.021459	-0.218331	-0.976049
C92	C	0.978129	-0.251770	-0.948743
C93	C	1.021376	-0.218447	-0.528309
C94	C	1.021367	-0.218467	-0.473704
C95	C	0.934726	-0.285337	-0.473698
C96	C	0.934738	-0.285319	-0.528299
C97	C	0.978065	-0.251870	-0.555603
O98	O	0.897951	-0.313718	-0.614677
O99	O	1.058223	-0.189980	-0.614736
C100	C	0.978030	-0.251892	-0.116067
C101	C	0.978152	-0.251748	-0.057954
H102	H	0.592101	-0.312678	-0.312462
H103	H	0.720335	-0.312677	-0.312450
H104	H	1.056732	-0.191110	-0.953830
N105	N	0.371890	-0.319631	-0.319390
N106	N	0.340316	-0.349529	-0.349190
H107	H	0.365797	-0.373691	-0.373268
N108	N	0.890550	-0.319358	-0.948150
N109	N	0.828100	-0.315884	-0.954249
H110	H	0.796834	-0.340007	-0.934554
N111	N	0.584817	-0.184218	-0.184449
N112	N	0.545408	-0.150931	-0.202908
H113	H	0.519920	-0.126767	-0.178837
H114	H	0.236330	-0.312693	-0.312484
H115	H	0.899566	-0.953337	-0.312561
H116	H	0.236376	-0.191178	-0.191377
N117	N	0.371930	-0.184230	-0.184449
N118	N	0.340371	-0.154340	-0.154652
H119	H	0.365865	-0.130177	-0.130567
N120	N	0.847180	-0.352838	-0.696949
N121	N	0.804064	-0.334447	-0.666477
H122	H	0.772806	-0.358567	-0.646772
N123	N	0.890485	-0.319494	-0.445791
N124	N	0.890489	-0.319498	-0.397039
H125	H	0.859241	-0.343621	-0.377327
N126	N	0.847206	-0.352836	-0.807319
N127	N	0.808536	-0.382690	-0.782921
H128	H	0.777290	-0.406820	-0.802597
H129	H	1.100003	-0.157739	-0.702667
H130	H	1.056656	-0.191208	-0.550534
H131	H	0.899378	-0.550050	-0.312518
H132	H	1.099947	-0.702071	-0.157908
N133	N	0.890473	-0.319457	-0.556174
N134	N	0.851785	-0.349304	-0.531783
H135	H	0.820511	-0.373407	-0.551466
H136	H	1.100016	-0.157711	-0.801712
N137	N	0.890361	-0.445323	-0.319422
N138	N	0.914142	-0.414818	-0.352747
H139	H	0.882896	-0.395124	-0.376845
N140	N	0.727700	-0.184212	-0.184434
N141	N	0.696146	-0.154314	-0.154641
H142	H	0.721644	-0.130145	-0.130564
N143	N	1.065711	-0.947591	-0.184415
N144	N	1.041915	-0.917155	-0.151077
H145	H	1.073150	-0.897444	-0.126971
N146	N	1.065476	-0.445260	-0.184353
N147	N	1.104157	-0.469628	-0.154533
H148	H	1.135399	-0.449927	-0.130424
N149	N	0.847177	-0.696525	-0.352879
N150	N	0.808523	-0.720929	-0.382707
H151	H	0.777264	-0.701257	-0.406813
N152	N	1.065782	-1.057970	-0.184433
N153	N	1.104450	-1.033575	-0.154607
H154	H	1.135718	-1.053255	-0.130515
N155	N	1.065544	-0.555613	-0.184371
N156	N	1.104197	-0.531205	-0.154544
H157	H	1.135461	-0.550873	-0.130439
N158	N	1.108981	-0.806765	-0.150998
N159	N	1.147636	-0.782355	-0.121175
H160	H	1.178903	-0.802022	-0.097071
H161	H	1.056645	-0.191246	-0.451484
N162	N	0.847221	-0.806893	-0.352879
N163	N	0.804113	-0.837403	-0.334464
H164	H	0.772870	-0.857110	-0.358568
N165	N	0.890623	-1.058043	-0.319486
N166	N	0.851941	-1.033673	-0.349303
H167	H	0.820690	-1.053371	-0.373407
N168	N	1.065721	-0.184163	-1.058559
N169	N	1.065717	-0.184160	-1.107312
H170	H	1.096967	-0.160039	-1.127023
N171	N	0.890587	-0.319347	-1.058510
N172	N	0.851913	-0.349202	-1.034116
H173	H	0.820661	-0.373325	-1.053796
