data_functionalizedCrystal
_audit_creation_method	'MofGen! by Chris Wilmer'
_symmetry_space_group_name_H-M	'P1'
_symmetry_Int_Tables_number	1
_symmetry_cell_setting	triclinic
loop_
_symmetry_equiv_pos_as_xyz
  x,y,z
_cell_length_a	12.594517
_cell_length_b	10.686285
_cell_length_c	10.685986
_cell_angle_alpha	98.412590
_cell_angle_beta	85.652413
_cell_angle_gamma	85.631355
loop_
_atom_site_label
_atom_site_type_symbol
_atom_site_fract_x
_atom_site_fract_y
_atom_site_fract_z
Zn1	Zn	1.612578	-0.450160	0.679056
Zn2	Zn	1.642056	-0.678743	0.450556
Zn3	Zn	1.449357	-0.466516	0.466814
Zn4	Zn	1.449377	-0.662356	0.662752
O5	O	1.538342	-0.564444	0.564795
O6	O	1.765434	-0.480494	0.648764
O7	O	1.628822	-0.664293	0.275084
O8	O	1.458664	-0.286723	0.508596
O9	O	1.787091	-0.648433	0.480887
O10	O	1.578582	-0.274706	0.664529
O11	O	1.487247	-0.508371	0.287029
O12	O	1.300414	-0.492482	0.492786
O13	O	1.458698	-0.620505	0.842543
O14	O	1.300429	-0.636365	0.636741
O15	O	1.578602	-0.464605	0.854522
O16	O	1.628841	-0.854192	0.465077
O17	O	1.487281	-0.842153	0.620976
C18	C	1.561289	-0.894226	0.539521
C19	C	1.571200	-1.035305	0.528752
C20	C	1.261802	-0.564421	0.564759
C21	C	1.143497	-0.564440	0.564772
C22	C	1.074185	-0.486053	0.486645
C23	C	1.013627	-0.604232	0.446560
C24	C	0.993258	-0.446316	0.604874
C25	C	1.084506	-0.682683	0.524621
C26	C	1.064133	-0.524686	0.682995
C27	C	1.003610	-0.642941	0.642948
C28	C	1.815962	-0.564467	0.564831
C29	C	1.934267	-0.564477	0.564846
C30	C	1.515364	-0.538903	0.895878
C31	C	1.505572	-0.528019	1.036965
C32	C	1.515333	-0.233371	0.590194
C33	C	1.505527	-0.092288	0.601018
C34	C	1.561285	-0.589793	0.235007
C35	C	1.571258	-0.600320	0.093947
H36	H	1.441721	-1.033146	0.671130
Cl37	Cl	1.669710	-1.126621	0.420481
H38	H	1.105188	-0.419842	0.420483
H39	H	0.972818	-0.709328	0.709042
Cl40	Cl	1.098939	-0.472689	0.837271
H41	H	0.953467	-0.346421	0.638716
Cl42	Cl	0.978856	-0.656182	0.292250
Cl43	Cl	1.145668	-0.836997	0.472122
Cl44	Cl	1.669656	-0.708732	1.002625
H45	H	1.441846	-0.457788	1.096124
