data_functionalizedCrystal
_audit_creation_method	'MofGen! by Chris Wilmer'
_symmetry_space_group_name_H-M	'P1'
_symmetry_Int_Tables_number	1
_symmetry_cell_setting	triclinic
loop_
_symmetry_equiv_pos_as_xyz
  x,y,z
_cell_length_a	27.440280
_cell_length_b	27.440280
_cell_length_c	21.606444
_cell_angle_alpha	59.997997
_cell_angle_beta	89.996802
_cell_angle_gamma	60.000166
loop_
_atom_site_label
_atom_site_type_symbol
_atom_site_fract_x
_atom_site_fract_y
_atom_site_fract_z
Zr1	Zr	0.469562	0.533347	-0.081236
O2	O	0.391753	0.635019	-0.180058
O3	O	0.493406	0.431682	-0.050943
O4	O	0.493414	0.533348	-0.180064
O5	O	0.391749	0.533350	0.050917
O6	O	0.573616	0.533340	-0.180068
O7	O	0.391745	0.533353	-0.050937
O8	O	0.573602	0.351478	0.050906
O9	O	0.391764	0.715212	-0.180057
O10	O	0.563440	0.473489	-0.038025
O11	O	0.503589	0.473493	0.037990
O12	O	0.503598	0.593191	-0.114033
O13	O	0.443747	0.593194	-0.038018
Zr14	Zr	0.597482	0.533329	0.081203
Zr15	Zr	0.597475	0.533334	-0.081242
Zr16	Zr	0.469569	0.533341	0.081209
Zr17	Zr	0.469579	0.661244	-0.081235
Zr18	Zr	0.597465	0.405431	0.081201
O19	O	0.573638	0.634994	0.050910
O20	O	0.573629	0.635002	-0.180067
O21	O	0.391762	0.635011	0.050918
O22	O	0.675291	0.431656	0.180025
O23	O	0.675282	0.431664	-0.050952
O24	O	0.493415	0.431674	0.180033
O25	O	0.675295	0.533326	-0.050950
O26	O	0.573630	0.533328	0.180031
O27	O	0.493428	0.533336	0.180035
O28	O	0.675299	0.533322	0.050904
O29	O	0.493437	0.715202	-0.180062
O30	O	0.573607	0.351474	0.180028
O31	O	0.675280	0.351464	0.180024
O32	O	0.675275	0.351468	0.050901
O33	O	0.391769	0.715207	-0.050934
O34	O	0.493442	0.715197	-0.050939
O35	O	0.563446	0.473484	0.114000
O36	O	0.623297	0.473481	0.037985
O37	O	0.563455	0.593183	-0.038023
O38	O	0.503604	0.593186	0.037992
C39	C	0.533501	0.373357	-0.000019
C40	C	0.533494	0.319061	-0.000020
C41	C	0.564780	-0.017682	-0.039689
C42	C	0.564786	-0.068706	-0.039687
O43	O	0.591374	-0.095114	-0.073410
N44	N	0.533544	-0.094221	-0.000010
C45	C	0.502299	-0.068714	0.039675
O46	O	0.475726	-0.095101	0.073425
C47	C	0.502297	-0.017694	0.039677
C48	C	0.533537	0.007823	-0.000010
C49	C	0.596017	0.007834	-0.079372
C50	C	0.596011	0.058855	-0.079375
C51	C	0.564767	0.084360	-0.039695
C52	C	0.533530	0.058844	-0.000013
C53	C	0.471057	0.007809	0.079365
C54	C	0.471058	0.058831	0.079364
C55	C	0.502297	0.084348	0.039678
C56	C	0.502280	0.135370	0.039664
N57	N	0.533522	0.160885	-0.000014
C58	C	0.564766	0.135380	-0.039693
C59	C	0.502306	-0.175859	0.039669
C60	C	0.502303	-0.226874	0.039663
C61	C	0.564791	-0.226864	-0.039698
C62	C	0.564789	-0.175844	-0.039696
C63	C	0.533548	-0.150344	-0.000009
C64	C	0.564749	0.242528	-0.039697
C65	C	0.564738	0.293556	-0.039699
C66	C	0.502253	0.293539	0.039665
C67	C	0.502262	0.242519	0.039664
C68	C	0.533514	0.217013	-0.000019
O69	O	0.475708	0.161808	0.073372
O70	O	0.591340	0.161767	-0.073429
C71	C	0.373522	0.533353	-0.000009
C72	C	0.319220	0.533359	-0.000007
C73	C	-0.017480	0.533324	-0.056130
C74	C	-0.068498	0.533319	-0.056131
O75	O	-0.094875	0.533295	-0.103836
N76	N	-0.094013	0.533319	-0.000019
C77	C	-0.068505	0.533316	0.056101
O78	O	-0.094892	0.533314	0.103828
C79	C	-0.017485	0.533316	0.056104
C80	C	0.008024	0.533324	-0.000016
C81	C	0.008030	0.533331	-0.112245
C82	C	0.059044	0.533337	-0.112245
C83	C	0.084548	0.533337	-0.056130
C84	C	0.059038	0.533330	-0.000016
C85	C	0.008025	0.533308	0.112226
C86	C	0.059048	0.533308	0.112224
C87	C	0.084557	0.533315	0.056105
C88	C	0.135555	0.533335	0.056098
N89	N	0.161071	0.533336	-0.000013
C90	C	0.135567	0.533337	-0.056128
C91	C	-0.175649	0.533315	0.056091
C92	C	-0.226670	0.533320	0.056086
C93	C	-0.226658	0.533322	-0.056145
C94	C	-0.175639	0.533322	-0.056142
C95	C	-0.150133	0.533315	-0.000020
C96	C	0.242699	0.533350	-0.056124
C97	C	0.293716	0.533359	-0.056121
C98	C	0.293702	0.533354	0.056112
C99	C	0.242688	0.533348	0.056107
C100	C	0.217189	0.533344	-0.000015
O101	O	0.161966	0.533357	0.103781
O102	O	0.161965	0.533329	-0.103841
C103	C	0.693522	0.533322	-0.000024
C104	C	0.747824	0.533317	-0.000027
C105	C	0.533514	0.533345	-0.203211
C106	C	0.533511	0.533347	-0.272174
C107	C	0.533543	0.693318	-0.000014
C108	C	0.533550	0.747614	-0.000013
C109	C	0.502274	0.595830	-0.344248
C110	C	0.502279	0.595828	-0.409043
C111	C	0.533518	0.533342	-0.401762
C112	C	0.564759	0.470855	-0.329680
C113	C	0.564757	0.470858	-0.264887
C114	C	0.564769	0.470843	-0.590983
C115	C	0.564767	0.470845	-0.655784
C116	C	0.502291	0.595813	-0.735139
C117	C	0.502289	0.595816	-0.670346
C118	C	0.533532	0.533329	-0.598270
C119	C	0.533527	0.533332	-0.528012
C120	C	0.533520	0.533339	-0.472018
C121	C	0.533530	0.533331	0.203178
C122	C	0.533533	0.533329	0.272140
C123	C	0.693501	0.373342	-0.000026
C124	C	0.747796	0.319040	-0.000030
C125	C	0.533510	0.373350	0.203176
C126	C	0.533505	0.319052	0.272137
C127	C	0.693509	0.373335	0.203168
C128	C	0.747807	0.319031	0.272127
C129	C	0.373535	0.693341	-0.203201
C130	C	0.319237	0.747644	-0.272161
C131	C	0.373543	0.693334	-0.000007
C132	C	0.319248	0.747635	-0.000004
C133	C	0.533535	0.693325	-0.203209
C134	C	0.533539	0.747623	-0.272170
C135	C	0.742049	0.293544	-0.039714
C136	C	0.793061	0.242530	-0.039733
C137	C	0.849819	0.217009	-0.000061
C138	C	0.855564	0.242510	0.039624
C139	C	0.804554	0.293527	0.039638
C140	C	0.564748	0.293549	0.344205
C141	C	0.564742	0.242537	0.409008
C142	C	0.533496	0.217026	0.401741
C143	C	0.502249	0.242534	0.329666
C144	C	0.502252	0.293549	0.264864
C145	C	0.804553	0.293528	0.264832
C146	C	0.855577	0.242511	0.329620
C147	C	0.849853	0.216995	0.401703
C148	C	0.793102	0.242503	0.408997
C149	C	0.742079	0.293523	0.344209
C150	C	0.262491	0.773154	-0.264865
C151	C	0.211467	0.824186	-0.329653
C152	C	0.217191	0.849705	-0.401736
C153	C	0.273942	0.824194	-0.409030
C154	C	0.324965	0.773165	-0.344243
C155	C	0.324995	0.773136	0.039674
C156	C	0.273983	0.824165	0.039675
C157	C	0.217226	0.849688	0.000001
C158	C	0.211480	0.824185	-0.039682
C159	C	0.262491	0.773160	-0.039686
C160	C	0.564791	0.773118	-0.264879
C161	C	0.564806	0.824130	-0.329670
C162	C	0.533566	0.849650	-0.401751
C163	C	0.502313	0.824150	-0.409041
C164	C	0.502302	0.773136	-0.344251
H165	H	0.476858	-0.155095	0.071983
H166	H	0.476810	0.221756	0.323760
H167	H	0.533581	0.891190	-0.454501
O168	O	0.810170	0.318173	0.194842
C169	C	0.841612	0.263706	0.186566
H170	H	0.869795	0.212684	0.244904
H171	H	0.871915	0.271396	0.152432
H172	H	0.808554	0.262994	0.155670
O173	O	-0.016840	0.533425	-0.166778
C174	C	-0.076027	0.592802	-0.207852
H175	H	-0.093575	0.612589	-0.171697
H176	H	-0.105226	0.579455	-0.223138
H177	H	-0.077142	0.634375	-0.261932
O178	O	0.899358	0.167457	0.464712
C179	C	0.882145	0.150387	0.529905
H180	H	0.835054	0.195126	0.515051
H181	H	0.914386	0.139788	0.575653
H182	H	0.883076	0.102445	0.551727
O183	O	0.910687	0.217817	0.078071
C184	C	0.917246	0.272247	0.048930
H185	H	0.884946	0.315626	-0.011548
H186	H	0.964973	0.252768	0.049036
H187	H	0.907125	0.292358	0.085735
H188	H	0.476879	0.844937	-0.467738
H189	H	0.314484	0.533367	-0.101823
H190	H	0.445619	-0.012959	0.111683
H191	H	0.590188	0.221774	0.467689
H192	H	0.590207	0.419959	-0.649847
O193	O	0.156299	0.849055	-0.322693
C194	C	0.112486	0.899557	-0.395327
H195	H	0.132360	0.921882	-0.438285
H196	H	0.073151	0.942469	-0.394590
H197	H	0.096519	0.875160	-0.411841
O198	O	0.810034	0.318377	0.078137
C199	C	0.752845	0.368863	0.069672
H200	H	0.719016	0.391202	0.016079
H201	H	0.753425	0.411768	0.065152
H202	H	0.739851	0.344444	0.120939
H203	H	0.257803	0.752399	-0.071994
O204	O	0.257029	0.748277	-0.194792
C205	C	0.314226	0.697779	-0.139162
H206	H	0.348042	0.675458	-0.164411
H207	H	0.313654	0.654864	-0.089195
H208	H	0.327234	0.722180	-0.118895
H209	H	0.590193	0.419978	-0.206201
H210	H	0.278673	0.844922	0.071992
H211	H	0.175694	0.891235	0.000011
H212	H	0.590230	0.752348	-0.206193
O213	O	0.471841	0.656573	-0.351420
C214	C	0.410855	0.694582	-0.391378
H215	H	0.405744	0.676813	-0.427138
H216	H	0.391720	0.751744	-0.429897
H217	H	0.385787	0.685926	-0.349412
H218	H	0.590209	0.419962	-0.532304
H219	H	0.476844	0.646707	-0.467726
H220	H	0.314474	0.533356	0.101797
H221	H	-0.154872	0.533328	-0.101839
H222	H	0.891350	0.175466	-0.000078
H223	H	0.901782	0.221748	0.323668
H224	H	0.445616	0.079592	0.111682
H225	H	0.371205	0.752359	0.071986
O226	O	0.533581	0.167446	0.464771
C227	C	0.567849	0.150423	0.529936
H228	H	0.600882	0.164483	0.515047
H229	H	0.593282	0.092759	0.575701
H230	H	0.537093	0.180259	0.551752
O231	O	0.083862	0.533213	-0.166693
C232	C	0.101059	0.473852	-0.163135
H233	H	0.107781	0.432362	-0.103949
H234	H	0.144573	0.453921	-0.175939
H235	H	0.064731	0.487272	-0.206638
H236	H	0.175640	0.891255	-0.454484
H237	H	0.476813	0.314307	0.206185
H238	H	-0.247432	0.533321	-0.101835
O239	O	0.279391	0.849037	-0.479110
C240	C	0.222184	0.899553	-0.534720
H241	H	0.188372	0.891174	-0.509449
H242	H	0.222729	0.895419	-0.584690
H243	H	0.209194	0.952915	-0.554988
O244	O	0.217833	0.533441	-0.110661
C245	C	0.158645	0.592815	-0.151731
H246	H	0.141097	0.612601	-0.115577
H247	H	0.129449	0.579463	-0.167014
H248	H	0.157526	0.634390	-0.205813
O249	O	0.787519	0.217819	0.479005
C250	C	0.756042	0.272257	0.487323
H251	H	0.760285	0.315632	0.446286
H252	H	0.775439	0.252786	0.547931
H253	H	0.706950	0.292371	0.474479
H254	H	0.695839	0.314323	-0.072029
O255	O	-0.251459	0.533230	0.110613
C256	C	-0.251272	0.473852	0.151686
H257	H	-0.249019	0.454059	0.115535
H258	H	-0.293824	0.487201	0.166960
H259	H	-0.210825	0.432284	0.205772
H260	H	0.695876	0.314281	0.350160
H261	H	0.590192	0.314314	0.350137
O262	O	0.595156	-0.251552	-0.078305
C263	C	0.622746	-0.218110	-0.113315
H264	H	0.598242	-0.166393	-0.121178
H265	H	0.621069	-0.209326	-0.170948
H266	H	0.671235	-0.251568	-0.076129
O267	O	0.380052	0.748509	-0.351440
C268	C	0.386594	0.802955	-0.391400
H269	H	0.340666	0.853994	-0.427137
H270	H	0.413408	0.795276	-0.429942
H271	H	0.410997	0.803622	-0.349437
H272	H	0.165261	0.844973	-0.071983
O273	O	0.595084	0.848965	-0.322540
C274	C	0.572113	0.878461	-0.282554
H275	H	0.524489	0.893785	-0.287974
H276	H	0.572203	0.926099	-0.307157
H277	H	0.601073	0.839353	-0.220199
H278	H	0.476850	0.752384	-0.350198
H279	H	0.590176	0.314332	-0.072020
O280	O	0.471979	0.217711	0.078371
C281	C	0.444427	0.251141	0.113425
H282	H	0.468876	0.272264	0.121153
H283	H	0.446229	0.212813	0.171126
H284	H	0.395900	0.295377	0.076343
H285	H	0.590199	0.221767	-0.072009
H286	H	0.621462	-0.012929	-0.111683
O287	O	0.626459	0.083523	-0.117821
C288	C	0.687438	0.029067	-0.088653
H289	H	0.698490	-0.014293	-0.028173
H290	H	0.715706	0.048523	-0.088759
H291	H	0.697427	0.008937	-0.125441
O292	O	0.595182	-0.151075	-0.078131
C293	C	0.639042	-0.163561	-0.027191
H294	H	0.625911	-0.169912	0.025034
H295	H	0.642828	-0.118245	-0.055975
H296	H	0.683851	-0.212620	-0.009441
O297	O	0.471959	0.318372	0.078198
C298	C	0.478647	0.368887	0.069669
H299	H	0.520838	0.360513	0.055046
H300	H	0.482232	0.364743	0.124896
H301	H	0.438279	0.422250	0.022170
H302	H	0.476857	-0.247638	0.071970
H303	H	-0.012738	0.533302	0.157924
O304	O	-0.150972	0.533353	0.110639
C305	C	-0.184430	0.533338	0.160167
H306	H	-0.231644	0.555034	0.129929
H307	H	-0.186341	0.566624	0.178277
H308	H	-0.162363	0.478347	0.212344
H309	H	0.079813	0.533300	0.157928
H310	H	0.221913	0.533352	0.101798
H311	H	0.476848	0.646698	-0.676281
H312	H	0.590198	0.419978	-0.323757
O313	O	0.471998	0.656454	-0.805213
C314	C	0.478686	0.643058	-0.860843
H315	H	0.520879	0.589357	-0.835593
H316	H	0.482268	0.682964	-0.910809
H317	H	0.438319	0.646022	-0.881112
H318	H	0.788371	0.221773	-0.072050
