data_functionalizedCrystal
_audit_creation_method	'MofGen! by Chris Wilmer'
_symmetry_space_group_name_H-M	'P1'
_symmetry_Int_Tables_number	1
_symmetry_cell_setting	triclinic
loop_
_symmetry_equiv_pos_as_xyz
  x,y,z
_cell_length_a	10.654550
_cell_length_b	23.532407
_cell_length_c	9.730223
_cell_angle_alpha	89.990960
_cell_angle_beta	89.999957
_cell_angle_gamma	83.666804
loop_
_atom_site_label
_atom_site_type_symbol
_atom_site_fract_x
_atom_site_fract_y
_atom_site_fract_z
O1	O	1.665305	0.079985	-0.114203
O2	O	1.299585	0.087605	-0.114230
O3	O	1.493473	0.000935	-0.114191
O4	O	1.471417	0.166655	-0.114242
O5	O	1.493461	0.000933	0.114389
O6	O	1.299573	0.087603	0.114350
O7	O	1.665293	0.079982	0.114377
Zn8	Zn	1.482431	0.083792	0.150655
Zn9	Zn	1.482447	0.083795	-0.150508
O10	O	1.471404	0.166652	0.114337
C11	C	1.252799	0.087044	0.000057
C12	C	1.113408	0.085370	0.000048
C13	C	1.032306	0.136400	0.000036
C14	C	0.901335	0.134824	0.000060
C15	C	0.932582	0.031183	0.000103
C16	C	1.063550	0.032760	0.000089
C17	C	1.492905	-0.020286	0.000103
C18	C	1.491217	-0.083514	0.000113
C19	C	1.595364	-0.481938	0.000046
C20	C	1.593795	-0.541349	0.000035
O21	O	1.690341	-0.577464	-0.000009
N22	N	1.478529	-0.564726	0.000028
C23	C	1.364824	-0.528689	0.000017
O24	O	1.266636	-0.554029	0.000008
C25	C	1.366394	-0.469280	0.000018
C26	C	1.481668	-0.445906	0.000039
C27	C	1.710629	-0.458564	0.000066
C28	C	1.712197	-0.399158	0.000079
C29	C	1.598500	-0.363126	0.000072
C30	C	1.483236	-0.386500	0.000052
C31	C	1.252690	-0.433244	-0.000003
C32	C	1.254270	-0.373831	-0.000003
C33	C	1.369544	-0.350458	0.000018
C34	C	1.371107	-0.291061	0.000058
N35	N	1.486374	-0.267684	0.000066
C36	C	1.600070	-0.303716	0.000073
C37	C	1.361535	-0.653453	0.000013
C38	C	1.359964	-0.712861	0.000022
C39	C	1.588936	-0.725517	0.000038
C40	C	1.590506	-0.666108	0.000038
C41	C	1.476802	-0.630076	0.000020
C42	C	1.603355	-0.178958	0.000101
C43	C	1.604913	-0.119546	0.000120
C44	C	1.375942	-0.106896	0.000097
C45	C	1.374383	-0.166303	0.000086
C46	C	1.488100	-0.202333	0.000083
O47	O	1.274613	-0.254911	0.000096
O48	O	1.698241	-0.278369	0.000063
C49	C	1.712079	0.080543	0.000087
C50	C	1.851469	0.082217	0.000087
C51	C	1.471972	0.187873	0.000041
C52	C	1.473661	0.251101	0.000022
N53	N	1.482429	0.083790	0.356192
N54	N	1.482459	0.083793	-0.356045
C55	C	1.568311	0.045429	0.428135
C56	C	1.568324	0.045429	0.572018
C57	C	1.396567	0.122156	0.572002
C58	C	1.396550	0.122153	0.428121
H59	H	1.129588	-0.008797	0.000102
O60	O	0.883937	-0.019871	0.000070
C61	C	0.750949	-0.010322	0.000111
H62	H	0.719632	0.033998	-0.043178
H63	H	0.711148	-0.044015	-0.066235
H64	H	0.714531	-0.013226	0.109777
O65	O	1.651702	0.008088	0.641752
C66	C	1.631984	-0.048374	0.606646
H67	H	1.583569	-0.048509	0.502187
H68	H	1.726726	-0.076018	0.601723
H69	H	1.569714	-0.066250	0.687641
H70	H	1.803219	-0.487896	0.000066
H71	H	1.698787	-0.100519	0.000141
H72	H	1.326608	0.153391	0.369541
O73	O	0.822731	0.184448	-0.000017
C74	C	0.894828	0.231218	-0.000019
H75	H	0.992761	0.217148	-0.043301
H76	H	0.846054	0.267004	-0.066393
H77	H	0.903968	0.247321	0.109633
H78	H	1.695954	-0.208288	0.000094
H79	H	1.806065	-0.380133	0.000090
H80	H	1.326648	0.153392	0.630581
H81	H	1.681514	-0.754865	0.000038
O82	O	1.080798	0.187490	-0.000237
C83	C	1.155633	0.191499	-0.118615
H84	H	1.125024	0.161617	-0.201343
H85	H	1.143292	0.237349	-0.158369
H86	H	1.259092	0.178775	-0.091858
H87	H	1.266096	-0.731886	0.000028
O88	O	1.702402	-0.643337	-0.000136
C89	C	1.710188	-0.609358	-0.118540
H90	H	1.611028	-0.594956	-0.158016
H91	H	1.759754	-0.570264	-0.091917
H92	H	1.766078	-0.635377	-0.201430
O93	O	1.250959	-0.618535	0.000076
C94	C	1.148897	-0.651915	0.000036
H95	H	1.181355	-0.696121	0.043308
H96	H	1.069275	-0.630333	0.066398
H97	H	1.113532	-0.656280	-0.109627
O98	O	1.140600	-0.455846	-0.000091
C99	C	1.040603	-0.411293	-0.000072
H100	H	1.075311	-0.370800	-0.043331
H101	H	0.960083	-0.424017	-0.066455
H102	H	1.005553	-0.403035	0.109583
O103	O	1.143895	-0.338773	0.000165
C104	C	1.137917	-0.304050	0.118571
H105	H	1.237544	-0.300645	0.158056
H106	H	1.090561	-0.259594	0.091946
H107	H	1.080811	-0.323833	0.201455
O108	O	1.262379	-0.188986	-0.000171
C109	C	1.193115	-0.170590	-0.118541
H110	H	1.260541	-0.157950	-0.201266
H111	H	1.140159	-0.206784	-0.158305
H112	H	1.122637	-0.132164	-0.091770
O113	O	1.265617	-0.071807	0.000028
C114	C	1.291735	-0.014360	0.000071
H115	H	1.390347	-0.011689	-0.043184
H116	H	1.219233	0.012269	-0.066305
H117	H	1.286742	0.002791	0.109733
H118	H	1.638237	0.014190	0.369574
