data_functionalizedCrystal
_audit_creation_method	'MofGen! by Chris Wilmer'
_symmetry_space_group_name_H-M	'P1'
_symmetry_Int_Tables_number	1
_symmetry_cell_setting	triclinic
loop_
_symmetry_equiv_pos_as_xyz
  x,y,z
_cell_length_a	13.897449
_cell_length_b	29.839131
_cell_length_c	13.897441
_cell_angle_alpha	89.969998
_cell_angle_beta	89.981404
_cell_angle_gamma	90.042982
loop_
_atom_site_label
_atom_site_type_symbol
_atom_site_fract_x
_atom_site_fract_y
_atom_site_fract_z
Zn1	Zn	1.474521	-0.178828	-0.545379
Zn2	Zn	1.974521	0.321172	-0.045379
Zn3	Zn	1.474354	-0.253962	-0.384079
Zn4	Zn	1.974354	0.246038	0.115921
Zn5	Zn	1.313216	-0.178848	-0.384097
Zn6	Zn	1.813216	0.321152	0.115903
Zn7	Zn	1.313125	-0.253933	-0.545332
Zn8	Zn	1.813125	0.246067	-0.045332
O9	O	1.393804	-0.216393	-0.464722
O10	O	1.893804	0.283607	0.035278
O11	O	1.609481	-0.188798	-0.523994
O12	O	2.109481	0.311202	-0.023994
O13	O	1.452947	-0.244018	-0.249100
O14	O	1.952947	0.255982	0.250900
O15	O	1.334723	-0.115978	-0.405519
O16	O	1.834723	0.384022	0.094481
O17	O	1.609358	-0.243998	-0.405488
O18	O	2.109358	0.256002	0.094512
O19	O	1.453232	-0.115964	-0.524012
O20	O	1.953232	0.384036	-0.024012
O21	O	1.334560	-0.188832	-0.249113
O22	O	1.834560	0.311168	0.250887
O23	O	1.178223	-0.188805	-0.405473
O24	O	1.678223	0.311195	0.094527
O25	O	1.334566	-0.243950	-0.680319
O26	O	1.834566	0.256050	-0.180319
O27	O	1.178155	-0.243970	-0.523931
O28	O	1.678155	0.256030	-0.023931
O29	O	1.453143	-0.188771	-0.680354
O30	O	1.953143	0.311229	-0.180354
O31	O	1.452858	-0.316825	-0.405442
O32	O	1.952858	0.183175	0.094558
O33	O	1.334403	-0.316804	-0.523914
O34	O	1.834403	0.183196	-0.023914
C35	C	1.143190	-0.216387	-0.464700
C36	C	1.643190	0.283613	0.035300
C37	C	1.035976	-0.216395	-0.464713
C38	C	1.535976	0.283605	0.035287
C39	C	0.839681	-0.216397	-0.464738
C40	C	1.339681	0.283603	0.035262
C41	C	0.948913	-0.216394	-0.464722
C42	C	1.448913	0.283606	0.035278
C43	C	1.393629	-0.333115	-0.464692
C44	C	1.893629	0.166885	0.035308
C45	C	1.393642	-0.383050	-0.464712
C46	C	1.893642	0.116950	0.035288
C47	C	1.332165	-0.739642	-0.526406
C48	C	1.832165	-0.239642	-0.026406
C49	C	1.332037	-0.551969	-0.526375
C50	C	1.832037	-0.051969	-0.026375
O51	O	1.279557	-0.527708	-0.578812
O52	O	1.779557	-0.027708	-0.078812
N53	N	1.393744	-0.528495	-0.464740
N54	N	1.893744	-0.028495	0.035260
C55	C	1.455491	-0.551942	-0.403113
C56	C	1.955491	-0.051942	0.096887
O57	O	1.507981	-0.527670	-0.350695
O58	O	2.007981	-0.027670	0.149305
C59	C	1.455623	-0.739614	-0.403149
C60	C	1.955623	-0.239614	0.096851
C61	C	1.393905	-0.763086	-0.464781
C62	C	1.893905	-0.263086	0.035219
C63	C	1.270453	-0.763113	-0.588033
C64	C	1.770453	-0.263113	-0.088033
C65	C	1.270481	-0.810029	-0.588037
C66	C	1.770481	-0.310029	-0.088037
C67	C	1.332222	-0.833473	-0.526412
C68	C	1.832222	-0.333473	-0.026412
C69	C	1.393934	-0.810001	-0.464784
C70	C	1.893934	-0.310001	0.035216
C71	C	1.517374	-0.763061	-0.341527
C72	C	2.017374	-0.263061	0.158473
C73	C	1.517404	-0.809982	-0.341543
C74	C	2.017404	-0.309982	0.158457
C75	C	1.455686	-0.833453	-0.403175
C76	C	1.955686	-0.333453	0.096825
C77	C	1.455703	-0.880361	-0.403163
C78	C	1.955703	-0.380361	0.096837
N79	N	1.393997	-0.903835	-0.464798
N80	N	1.893997	-0.403835	0.035202
C81	C	1.332256	-0.880390	-0.526422
C82	C	1.832256	-0.380390	-0.026422
C83	C	1.455416	-0.453412	-0.403097
C84	C	1.955416	0.046588	0.096903
C85	C	1.455382	-0.406494	-0.403087
C86	C	1.955382	0.093506	0.096913
C87	C	1.331929	-0.406524	-0.526351
C88	C	1.831929	0.093476	-0.026351
C89	C	1.331959	-0.453442	-0.526356
C90	C	1.831959	0.046558	-0.026356
C91	C	1.393710	-0.476885	-0.464732
C92	C	1.893710	0.023115	0.035268
C93	C	1.332321	-0.978916	-0.526424
C94	C	1.832321	-0.478916	-0.026424
C95	C	1.332352	-1.025836	-0.526419
C96	C	1.832352	-0.525836	-0.026419
C97	C	1.455808	-1.025802	-0.403159
C98	C	1.955808	-0.525802	0.096841
C99	C	1.455774	-0.978887	-0.403160
C100	C	1.955774	-0.478887	0.096840
C101	C	1.394027	-0.955445	-0.464800
C102	C	1.894027	-0.455445	0.035200
O103	O	1.508164	-0.904650	-0.350761
O104	O	2.008164	-0.404650	0.149239
O105	O	1.279790	-0.904671	-0.578848
O106	O	1.779790	-0.404671	-0.078848
C107	C	1.332136	-0.692726	-0.526402
C108	C	1.832136	-0.192726	-0.026402
C109	C	1.393848	-0.669255	-0.464774
C110	C	1.893848	-0.169255	0.035226
C111	C	1.455588	-0.692699	-0.403150
C112	C	1.955588	-0.192699	0.096850
C113	C	1.393814	-0.622337	-0.464764
C114	C	1.893814	-0.122337	0.035236
C115	C	1.332073	-0.598893	-0.526389
C116	C	1.832073	-0.098893	-0.026389
C117	C	1.270366	-0.622367	-0.588024
C118	C	1.770366	-0.122367	-0.088024
C119	C	1.270395	-0.669282	-0.588027
C120	C	1.770395	-0.169282	-0.088027
C121	C	1.517295	-0.669225	-0.341515
C122	C	2.017295	-0.169225	0.158485
C123	C	1.517260	-0.622310	-0.341516
C124	C	2.017260	-0.122310	0.158484
C125	C	1.455520	-0.598866	-0.403140
C126	C	1.955520	-0.098866	0.096860
C127	C	1.645397	-0.216399	-0.464744
C128	C	2.145397	0.283601	0.035256
C129	C	1.752611	-0.216402	-0.464754
C130	C	2.252611	0.283598	0.035246
C131	C	1.393863	-0.216355	-0.716315
C132	C	1.893863	0.283645	-0.216315
C133	C	1.393888	-0.216339	-0.823529
C134	C	1.893888	0.283661	-0.323529
C135	C	1.394006	-0.099214	-0.464772
C136	C	1.894006	0.400786	0.035228
C137	C	1.394093	-0.049280	-0.464794
C138	C	1.894093	0.450720	0.035206
C139	C	1.393908	-0.216326	-0.910598
C140	C	1.893908	0.283674	-0.410598
C141	C	1.393936	-0.216306	-1.019831
C142	C	1.893936	0.283694	-0.519831
C143	C	1.393801	-0.216398	-0.214107
C144	C	1.893801	0.283602	0.285893
C145	C	1.393963	-0.216287	-0.106894
C146	C	1.893963	0.283713	0.393106
H147	H	1.282092	-1.044944	-0.576609
H148	H	1.782092	-0.544944	-0.076609
H149	H	1.506073	-1.044899	-0.352982
H150	H	2.006073	-0.544899	0.147018
H151	H	1.506020	-0.959776	-0.352964
H152	H	2.006020	-0.459776	0.147036
H153	H	1.282042	-0.959835	-0.576618
H154	H	1.782042	-0.459835	-0.076618
H155	H	1.220176	-0.744029	-0.638220
H156	H	1.720176	-0.244029	-0.138220
Br157	Br	1.186731	-0.841875	-0.671699
Br158	Br	1.686731	-0.341875	-0.171699
Br159	Br	1.248196	-0.485291	-0.610001
Br160	Br	1.748196	0.014709	-0.110001
Br161	Br	1.248135	-0.374698	-0.609981
Br162	Br	1.748135	0.125302	-0.109981
Br163	Br	1.601217	-0.841795	-0.257910
Br164	Br	2.101217	-0.341795	0.242090
Br165	Br	1.539131	-0.374646	-0.319426
Br166	Br	2.039131	0.125354	0.180574
H167	H	1.220139	-0.688389	-0.638216
H168	H	1.720139	-0.188389	-0.138216
Br169	Br	1.539229	-0.485221	-0.319456
Br170	Br	2.039229	0.014779	0.180544
H171	H	1.567631	-0.743957	-0.291341
H172	H	2.067631	-0.243957	0.208659
Br173	Br	1.186572	-0.590541	-0.671653
Br174	Br	1.686572	-0.090541	-0.171653
H175	H	1.567516	-0.603202	-0.291319
H176	H	2.067516	-0.103202	0.208681
H177	H	1.567574	-0.688308	-0.291332
H178	H	2.067574	-0.188308	0.208668
