data_functionalizedCrystal
_audit_creation_method	'MofGen! by Chris Wilmer'
_symmetry_space_group_name_H-M	'P1'
_symmetry_Int_Tables_number	1
_symmetry_cell_setting	triclinic
loop_
_symmetry_equiv_pos_as_xyz
  x,y,z
_cell_length_a	10.489741
_cell_length_b	13.339070
_cell_length_c	12.377033
_cell_angle_alpha	75.605255
_cell_angle_beta	101.403792
_cell_angle_gamma	100.084234
loop_
_atom_site_label
_atom_site_type_symbol
_atom_site_fract_x
_atom_site_fract_y
_atom_site_fract_z
O1	O	1.725411	0.162330	-0.093915
O2	O	1.358810	0.175765	-0.093932
O3	O	1.500036	0.021479	-0.093929
O4	O	1.584185	0.316617	-0.093918
O5	O	1.535309	-0.017033	0.094067
O6	O	1.394083	0.137253	0.094065
O7	O	1.760684	0.123818	0.094081
Zn8	Zn	1.582984	0.124421	0.123921
Zn9	Zn	1.536510	0.175162	-0.123772
O10	O	1.619458	0.278105	0.094078
C11	C	1.328567	0.155495	0.000064
C12	C	1.185898	0.152462	0.000057
C13	C	1.084152	0.054292	0.000064
C14	C	0.990510	0.119654	-0.092624
C15	C	1.025328	0.081707	0.092726
C16	C	1.094121	0.217879	-0.092707
C17	C	1.128960	0.179901	0.092726
C18	C	1.035366	0.245338	0.000015
C19	C	1.503458	-0.035569	0.000065
C20	C	1.461087	-0.148177	0.000053
C21	C	1.790926	0.144089	0.000083
C22	C	1.933595	0.147124	0.000082
C23	C	1.616036	0.335153	0.000082
C24	C	1.658406	0.447763	0.000086
N25	N	1.614710	0.089791	0.292966
C26	C	1.328962	0.810162	0.000055
C27	C	1.289154	0.704356	0.000070
C28	C	1.381463	0.640203	0.000073
C29	C	1.513589	0.681865	0.000063
C30	C	1.553403	0.787679	0.000058
C31	C	1.605904	0.617720	0.000076
C32	C	1.738029	0.659383	0.000066
C33	C	1.777837	0.765187	0.000060
C34	C	1.685527	0.829340	0.000056
C35	C	1.566089	0.511906	0.000081
C36	C	1.790530	0.489424	0.000084
C37	C	1.830339	0.595229	0.000070
N38	N	1.504792	0.209785	-0.292816
C39	C	1.431117	0.290200	0.648032
C40	C	1.408890	0.314446	0.529702
C41	C	1.460344	0.258284	0.470512
C42	C	1.534027	0.177872	0.529664
C43	C	1.556248	0.153619	0.648005
C44	C	1.585474	0.121703	0.470485
C45	C	1.659158	0.041291	0.529637
C46	C	1.681376	0.017042	0.647967
C47	C	1.629922	0.073203	0.707157
C48	C	1.563254	0.145957	0.352144
C49	C	1.688384	0.009376	0.352117
C50	C	1.710612	-0.014870	0.470447
H51	H	1.188918	0.205350	0.171095
N52	N	0.987062	0.009432	0.191021
N53	N	1.000183	-0.084798	0.207506
H54	H	0.973158	-0.135850	0.276922
N55	N	1.912806	0.807725	0.000069
N56	N	1.995215	0.750440	0.000074
H57	H	2.090539	0.780480	0.000081
N58	N	1.652601	0.048429	0.828032
N59	N	1.613632	-0.040912	0.880854
H60	H	1.629644	-0.058405	0.966224
H61	H	1.013589	0.326133	-0.000032
H62	H	1.717932	0.915499	0.000035
H63	H	1.503260	0.211428	0.303993
N64	N	1.756581	-0.065133	0.708388
N65	N	1.706081	-0.141936	0.774388
H66	H	1.759180	-0.199985	0.817053
N67	N	1.340827	0.532122	0.000091
N68	N	1.388039	0.463647	0.079335
H69	H	1.359337	0.387311	0.079344
N70	N	1.154204	0.661802	0.000093
N71	N	1.098387	0.664921	0.079337
H72	H	1.003070	0.634867	0.079353
H73	H	1.770606	-0.080344	0.518623
H74	H	1.937916	0.629168	0.000053
N75	N	1.740960	-0.048008	0.291687
N76	N	1.806730	-0.119810	0.344512
H77	H	1.843853	-0.160339	0.301828
H78	H	1.442243	0.278029	0.374163
N79	N	1.111739	-0.046937	-0.000062
N80	N	1.058292	-0.089710	-0.079777
H81	H	1.077774	-0.161202	-0.079872
N82	N	0.915336	0.087682	-0.190935
N83	N	0.922258	0.000219	-0.207460
H84	H	0.869174	-0.022367	-0.276892
N85	N	1.234703	0.875701	0.000069
N86	N	1.270274	0.970168	0.000074
H87	H	1.203698	1.016458	0.000087
H88	H	1.348896	0.379915	0.481545
N89	N	1.132170	0.290123	-0.191102
N90	N	1.248610	0.304100	-0.207004
H91	H	1.275489	0.355127	-0.276491
N92	N	1.378553	0.347568	0.708474
N93	N	1.312769	0.419362	0.655654
H94	H	1.275636	0.459881	0.698341
N95	N	1.431138	0.469343	0.000071
N96	N	1.395598	0.374873	0.000072
H97	H	1.300280	0.344812	0.000062
N98	N	1.884819	0.423887	0.000101
N99	N	1.849256	0.329417	0.000110
H100	H	1.915841	0.283123	0.000127
