data_functionalizedCrystal
_audit_creation_method	'MofGen! by Chris Wilmer'
_symmetry_space_group_name_H-M	'P1'
_symmetry_Int_Tables_number	1
_symmetry_cell_setting	triclinic
loop_
_symmetry_equiv_pos_as_xyz
  x,y,z
_cell_length_a	19.288840
_cell_length_b	10.654546
_cell_length_c	18.366186
_cell_angle_alpha	90.001264
_cell_angle_beta	89.983729
_cell_angle_gamma	96.195229
loop_
_atom_site_label
_atom_site_type_symbol
_atom_site_fract_x
_atom_site_fract_y
_atom_site_fract_z
O1	O	0.922388	-0.156507	-0.060664
O2	O	0.720263	-0.177672	-0.060637
O3	O	0.825974	0.015750	-0.060655
O4	O	0.816677	-0.349929	-0.060646
O5	O	0.825956	0.015760	0.060444
O6	O	0.720245	-0.177663	0.060462
O7	O	0.922369	-0.156497	0.060436
Zn8	Zn	0.821304	-0.167079	0.079676
Zn9	Zn	0.821328	-0.167091	-0.079878
O10	O	0.816659	-0.349920	0.060454
C11	C	0.694373	-0.176992	-0.000084
C12	C	0.617255	-0.174963	-0.000075
C13	C	0.581055	-0.173994	-0.066088
C14	C	0.508595	-0.172074	-0.066097
C15	C	0.472340	-0.171098	-0.000089
C16	C	0.508549	-0.172075	0.065933
C17	C	0.581006	-0.174007	0.065940
C18	C	0.362504	-0.094477	0.050470
C19	C	0.290049	-0.092536	0.050460
C20	C	0.248858	-0.165142	-0.000108
C21	C	0.280132	-0.239673	-0.050679
C22	C	0.352590	-0.241605	-0.050672
C23	C	0.393773	-0.169003	-0.000089
C24	C	0.134089	-0.162093	-0.066136
C25	C	0.061628	-0.160180	-0.066142
C26	C	0.061583	-0.160168	0.065890
C27	C	0.134042	-0.162093	0.065894
C28	C	0.170291	-0.163049	-0.000121
C29	C	0.825282	0.062538	-0.000108
C30	C	0.823242	0.201938	-0.000116
C31	C	0.885482	0.282766	-0.000125
C32	C	0.883560	0.413745	-0.000134
C33	C	0.757152	0.383056	-0.000124
C34	C	0.759075	0.252079	-0.000119
C35	C	0.949649	0.232625	-0.000121
C36	C	1.011895	0.313455	-0.000129
C37	C	1.009973	0.444434	-0.000139
C38	C	0.945806	0.494584	-0.000141
C39	C	0.948260	-0.157178	-0.000119
C40	C	1.025377	-0.159207	-0.000133
N41	N	0.821293	-0.167069	0.188567
C42	C	0.817351	0.603292	-0.000105
C43	C	0.819397	0.463894	-0.000130
N44	N	0.821345	-0.167090	-0.188769
C45	C	0.868117	-0.081464	0.226660
C46	C	0.868122	-0.081458	0.302887
C47	C	0.821308	-0.167080	0.341020
C48	C	0.774475	-0.252692	0.302918
C49	C	0.774467	-0.252687	0.226692
C50	C	0.812759	-0.281503	0.461784
C51	C	0.812771	-0.281509	0.538009
C52	C	0.821328	-0.167095	0.576127
C53	C	0.829887	-0.052670	0.538012
C54	C	0.829880	-0.052664	0.461785
C55	C	0.821311	-0.167094	0.423675
C56	C	0.868160	-0.081477	0.696875
C57	C	0.868159	-0.081469	0.773104
C58	C	0.774516	-0.252714	0.773133
C59	C	0.774513	-0.252710	0.696906
C60	C	0.821339	-0.167093	0.658781
H61	H	0.163517	-0.162874	0.119649
H62	H	0.805778	-0.374678	0.430754
H63	H	0.396036	-0.035349	0.091653
H64	H	0.944246	0.601238	-0.000157
H65	H	0.704910	0.423899	-0.000124
H66	H	0.610564	-0.174773	-0.119842
H67	H	0.736387	-0.322424	0.665889
H68	H	0.479115	-0.171286	-0.119854
H69	H	0.246596	-0.298801	-0.091854
H70	H	1.064138	0.272613	-0.000146
H71	H	0.378050	-0.302293	-0.091847
H72	H	0.163603	-0.162884	-0.119889
H73	H	1.060657	0.510243	-0.000153
H74	H	0.805806	-0.374682	0.569037
H75	H	0.032154	-0.159399	-0.119900
H76	H	0.032064	-0.159381	0.119635
H77	H	0.479025	-0.171283	0.119677
H78	H	0.906286	-0.011758	0.665832
H79	H	0.836855	0.040497	0.569046
H80	H	0.708393	0.186266	-0.000111
H81	H	0.906287	-0.011752	0.804119
H82	H	0.906244	-0.011746	0.195621
H83	H	0.736358	-0.322404	0.333970
H84	H	0.264591	-0.031843	0.091635
H85	H	0.610479	-0.174798	0.119697
H86	H	0.951221	0.125977	-0.000111
H87	H	0.736397	-0.322424	0.804180
H88	H	0.906253	-0.011745	0.333908
H89	H	0.836847	0.040505	0.430754
H90	H	0.736336	-0.322398	0.195676
