data_functionalizedCrystal
_audit_creation_method	'MofGen! by Chris Wilmer'
_symmetry_space_group_name_H-M	'P1'
_symmetry_Int_Tables_number	1
_symmetry_cell_setting	triclinic
loop_
_symmetry_equiv_pos_as_xyz
  x,y,z
_cell_length_a	14.044220
_cell_length_b	14.044220
_cell_length_c	12.503572
_cell_angle_alpha	86.156832
_cell_angle_beta	86.164750
_cell_angle_gamma	86.811122
loop_
_atom_site_label
_atom_site_type_symbol
_atom_site_fract_x
_atom_site_fract_y
_atom_site_fract_z
O1	O	1.282200	-0.225116	-0.089210
O2	O	1.782200	0.274884	0.410790
O3	O	1.005530	-0.216809	-0.089237
O4	O	1.505530	0.283191	0.410763
O5	O	1.139712	-0.082627	-0.089213
O6	O	1.639712	0.417373	0.410787
O7	O	1.148019	-0.359298	-0.089234
O8	O	1.648019	0.140702	0.410766
O9	O	1.129622	-0.092737	0.089427
O10	O	1.629622	0.407263	0.589427
O11	O	0.995440	-0.226918	0.089403
O12	O	1.495440	0.273082	0.589403
O13	O	1.272110	-0.235226	0.089430
O14	O	1.772110	0.264774	0.589430
Cu15	Cu	1.132854	-0.231995	0.105728
Cu16	Cu	1.632854	0.268005	0.605728
Cu17	Cu	1.144786	-0.220040	-0.105535
Cu18	Cu	1.644786	0.279960	0.394465
O19	O	1.137929	-0.369407	0.089406
O20	O	1.637929	0.130593	0.589406
C21	C	0.964864	-0.218228	0.000080
C22	C	1.464864	0.281772	0.500080
C23	C	0.858721	-0.207383	0.000070
C24	C	1.358721	0.292617	0.500070
C25	C	0.664382	-0.187558	0.000092
C26	C	1.164382	0.312442	0.500092
C27	C	0.613253	-0.264472	0.000091
C28	C	1.113253	0.235528	0.500091
C29	C	0.505116	-0.253441	0.000104
C30	C	1.005116	0.246559	0.500104
C31	C	0.772529	-0.198587	0.000080
C32	C	1.272529	0.301413	0.500080
C33	C	1.131031	-0.052060	0.000107
C34	C	1.631031	0.447940	0.500107
C35	C	1.120187	0.054082	0.000107
C36	C	1.620187	0.554082	0.500107
C37	C	1.312777	-0.233807	0.000111
C38	C	1.812777	0.266193	0.500111
C39	C	1.418920	-0.244651	0.000114
C40	C	1.918920	0.255349	0.500114
C41	C	1.146609	-0.399974	0.000084
C42	C	1.646609	0.100026	0.500084
C43	C	1.157454	-0.506117	0.000077
C44	C	1.657454	-0.006117	0.500077
N45	N	1.124469	-0.240404	0.254319
N46	N	1.624469	0.259596	0.754319
C47	C	1.100361	0.248421	0.000090
C48	C	1.600361	0.748421	0.500090
C49	C	1.177275	0.299551	0.000094
C50	C	1.677275	0.799551	0.500094
C51	C	1.166244	0.407687	0.000084
C52	C	1.666244	0.907687	0.500084
C53	C	1.111391	0.140274	0.000099
C54	C	1.611391	0.640274	0.500099
N55	N	1.153179	-0.211624	-0.254126
N56	N	1.653179	0.288376	0.245874
C57	C	1.112134	-0.252782	0.473432
C58	C	1.612134	0.247218	0.973432
C59	C	1.165511	-0.199249	0.526768
C60	C	1.665511	0.300751	1.026768
C61	C	1.158648	-0.206136	0.648690
C62	C	1.658648	0.293864	1.148690
C63	C	1.118996	-0.245896	0.351499
C64	C	1.618996	0.254104	0.851499
H65	H	1.251413	0.262115	0.000029
H66	H	1.751413	0.762115	0.500029
O67	O	1.011992	0.293226	0.000133
O68	O	1.511992	0.793226	0.500133
C69	C	1.020515	0.392785	0.000102
C70	C	1.520515	0.892785	0.500102
H71	H	1.091171	0.407834	0.033919
H72	H	1.591171	0.907834	0.533919
H73	H	0.958841	0.425281	0.051966
H74	H	1.458841	0.925281	0.551966
H75	H	1.018425	0.425747	-0.085602
H76	H	1.518425	0.925747	0.414398
O77	O	0.657805	-0.352959	-0.000078
O78	O	1.157805	0.147041	0.499922
C79	C	0.636284	-0.397574	-0.092621
C80	C	1.136284	0.102426	0.407379
H81	H	0.566712	-0.364070	-0.123444
H82	H	1.066712	0.135930	0.376556
H83	H	0.628134	-0.477107	-0.071834
H84	H	1.128134	0.022893	0.428166
H85	H	0.696603	-0.387624	-0.157414
H86	H	1.196603	0.112376	0.342586
H87	H	1.061285	-0.303783	0.519330
H88	H	1.561285	0.196217	1.019330
O89	O	1.225974	-0.138294	0.471849
O90	O	1.725974	0.361706	0.971849
C91	C	1.219303	-0.144742	0.360578
C92	C	1.719303	0.355258	0.860578
H93	H	1.191258	-0.216913	0.345276
H94	H	1.691258	0.283087	0.845276
H95	H	1.292981	-0.137448	0.317635
H96	H	1.792981	0.362552	0.817635
H97	H	1.168276	-0.085082	0.328846
H98	H	1.668276	0.414918	0.828846
O99	O	0.619578	-0.099189	0.000049
O100	O	1.119578	0.400811	0.500049
C101	C	0.520018	-0.107712	0.000084
C102	C	1.020018	0.392288	0.500084
H103	H	0.504964	-0.178363	-0.033732
H104	H	1.004964	0.321637	0.466268
H105	H	0.487515	-0.046031	-0.051780
H106	H	0.987515	0.453969	0.448220
H107	H	0.487070	-0.105632	0.085789
H108	H	0.987070	0.394368	0.585789
