data_functionalizedCrystal
_audit_creation_method	'MofGen! by Chris Wilmer'
_symmetry_space_group_name_H-M	'P1'
_symmetry_Int_Tables_number	1
_symmetry_cell_setting	triclinic
loop_
_symmetry_equiv_pos_as_xyz
  x,y,z
_cell_length_a	10.654562
_cell_length_b	10.654541
_cell_length_c	9.130313
_cell_angle_alpha	89.998951
_cell_angle_beta	89.996930
_cell_angle_gamma	84.487016
loop_
_atom_site_label
_atom_site_type_symbol
_atom_site_fract_x
_atom_site_fract_y
_atom_site_fract_z
O1	O	1.667823	0.176469	-0.121895
O2	O	1.302347	0.193259	-0.121877
O3	O	1.493490	0.002125	-0.121877
O4	O	1.476680	0.367603	-0.121894
O5	O	1.493487	0.002130	0.121721
O6	O	1.302344	0.193264	0.121722
O7	O	1.667821	0.176474	0.121704
Cu8	Cu	1.485082	0.184870	0.143955
Cu9	Cu	1.485085	0.184864	-0.144128
O10	O	1.476678	0.367608	0.121704
C11	C	1.255548	0.192025	-0.000075
C12	C	1.116105	0.188327	-0.000068
C13	C	1.050573	0.186605	0.132706
C14	C	0.919551	0.183140	0.132682
C15	C	0.919604	0.183125	-0.132903
C16	C	1.050625	0.186581	-0.132877
C17	C	1.050541	0.186619	0.286040
C18	C	0.919519	0.183154	0.286016
C19	C	1.492255	-0.044671	-0.000079
C20	C	1.488564	-0.184114	-0.000081
C21	C	1.717127	-0.212075	-0.000074
C22	C	1.829670	-0.291564	-0.000067
C23	C	1.826194	-0.422582	-0.000072
C24	C	1.710164	-0.474113	-0.000087
C25	C	1.597621	-0.394623	-0.000094
C26	C	1.601109	-0.263604	-0.000085
C27	C	1.369061	-0.366663	-0.000111
C28	C	1.372534	-0.235645	-0.000097
C29	C	1.253031	-0.418194	-0.000127
C30	C	1.140485	-0.338704	-0.000123
C31	C	1.143966	-0.207679	-0.000117
C32	C	1.259991	-0.156156	-0.000103
C33	C	1.714620	0.177708	-0.000101
C34	C	1.854062	0.181406	-0.000118
C35	C	1.477913	0.414404	-0.000097
C36	C	1.481603	0.553848	-0.000105
N37	N	1.485090	0.184873	0.346578
N38	N	1.485088	0.184850	-0.346751
C39	C	1.569750	0.100268	0.423230
C40	C	1.569746	0.100253	0.576567
C41	C	1.400419	0.269459	0.576586
C42	C	1.400417	0.269467	0.423252
C43	C	1.667513	0.002582	0.423219
C44	C	1.667510	0.002567	0.576556
H45	H	1.080114	0.278216	0.333612
Cl46	Cl	1.634408	-0.146453	0.358958
H47	H	1.096801	0.099826	0.344927
Cl48	Cl	0.873811	0.041870	0.359794
Cl49	Cl	1.975529	-0.226777	-0.000057
Cl50	Cl	1.620392	-0.138266	0.649987
Cl51	Cl	1.816512	0.035785	0.640811
H52	H	1.103978	0.187964	-0.240994
Cl53	Cl	0.848046	0.317158	0.376888
H54	H	0.866273	0.181703	-0.241031
H55	H	1.046022	-0.380672	-0.000145
Cl56	Cl	1.721505	-0.047366	-0.000035
Cl57	Cl	1.967677	-0.522515	-0.000076
Cl58	Cl	1.705798	-0.638823	-0.000192
H59	H	1.250209	-0.524877	-0.000139
Cl60	Cl	1.002474	-0.107759	-0.000136
H61	H	1.262836	-0.049475	-0.000089
H62	H	1.331470	0.338348	0.360844
Cl63	Cl	1.293979	0.375800	0.672986
H64	H	1.758696	0.033174	0.375655
