data_functionalizedCrystal
_audit_creation_method	'MofGen! by Chris Wilmer'
_symmetry_space_group_name_H-M	'P1'
_symmetry_Int_Tables_number	1
_symmetry_cell_setting	triclinic
loop_
_symmetry_equiv_pos_as_xyz
  x,y,z
_cell_length_a	13.897449
_cell_length_b	11.169416
_cell_length_c	11.169409
_cell_angle_alpha	89.969126
_cell_angle_beta	90.024677
_cell_angle_gamma	89.988833
loop_
_atom_site_label
_atom_site_type_symbol
_atom_site_fract_x
_atom_site_fract_y
_atom_site_fract_z
Zn1	Zn	1.474764	0.477683	0.678710
Zn2	Zn	1.808097	0.811017	1.012044
Zn3	Zn	2.141431	1.144350	1.345377
Zn4	Zn	1.474675	0.678424	0.478032
Zn5	Zn	1.808009	1.011757	0.811366
Zn6	Zn	2.141342	1.345091	1.144699
Zn7	Zn	1.313450	0.477756	0.478028
Zn8	Zn	1.646783	0.811090	0.811361
Zn9	Zn	1.980116	1.144423	1.144694
Zn10	Zn	1.313456	0.678326	0.678660
Zn11	Zn	1.646789	1.011659	1.011994
Zn12	Zn	1.980122	1.344993	1.345327
O13	O	1.394086	0.578047	0.578358
O14	O	1.727420	0.911381	0.911691
O15	O	2.060753	1.244714	1.245024
O16	O	1.609734	0.504322	0.652113
O17	O	1.943067	0.837656	0.985446
O18	O	2.276401	1.170989	1.318780
O19	O	1.453249	0.651876	0.310082
O20	O	1.786582	0.985210	0.643415
O21	O	2.119915	1.318543	0.976749
O22	O	1.334883	0.309797	0.504668
O23	O	1.668216	0.643130	0.838001
O24	O	2.001550	0.976464	1.171334
O25	O	1.609669	0.651806	0.504676
O26	O	1.943002	0.985139	0.838009
O27	O	2.276335	1.318472	1.171342
O28	O	1.453400	0.309743	0.652108
O29	O	1.786733	0.643077	0.985442
O30	O	2.120067	0.976410	1.318775
O31	O	1.334797	0.504447	0.310079
O32	O	1.668130	0.837780	0.643412
O33	O	2.001464	1.171114	0.976745
O34	O	1.178469	0.504352	0.504619
O35	O	1.511802	0.837685	0.837952
O36	O	1.845136	1.171019	1.171286
O37	O	1.334893	0.651639	0.846617
O38	O	1.668227	0.984972	1.179950
O39	O	2.001560	1.318306	1.513283
O40	O	1.178473	0.651710	0.652023
O41	O	1.511807	0.985043	0.985356
O42	O	1.845140	1.318376	1.318690
O43	O	1.453406	0.504228	0.846654
O44	O	1.786739	0.837561	1.179987
O45	O	2.120073	1.170894	1.513320
O46	O	1.453254	0.846361	0.504627
O47	O	1.786588	1.179694	0.837960
O48	O	2.119921	1.513027	1.171294
O49	O	1.334807	0.846289	0.652028
O50	O	1.668140	1.179622	0.985361
O51	O	2.001474	1.512955	1.318694
C52	C	1.143472	0.578029	0.578316
C53	C	1.476805	0.911362	0.911649
C54	C	1.810139	1.244696	1.244982
C55	C	1.036258	0.578050	0.578326
C56	C	1.369591	0.911383	0.911660
C57	C	1.702925	1.244717	1.244993
C58	C	0.949188	0.578054	0.578346
C59	C	1.282521	0.911387	0.911680
C60	C	1.615855	1.244721	1.245013
C61	C	0.839956	0.578062	0.578383
C62	C	1.173289	0.911396	0.911716
C63	C	1.506622	1.244729	1.245050
C64	C	1.394048	0.889872	0.578349
C65	C	1.727381	1.223205	0.911682
C66	C	2.060715	1.556539	1.245015
C67	C	1.394120	1.023272	0.578385
C68	C	1.727453	1.356605	0.911718
C69	C	2.060787	1.689939	1.245051
C70	C	1.394160	0.577914	0.891400
C71	C	1.727494	0.911247	1.224734
C72	C	2.060827	1.244581	1.558067
C73	C	1.394192	0.577857	1.024800
C74	C	1.727525	0.911191	1.358134
C75	C	2.060858	1.244524	1.691467
C76	C	1.645679	0.578067	0.578400
C77	C	1.979012	0.911400	0.911734
C78	C	2.312346	1.244733	1.245067
C79	C	1.752893	0.578075	0.578419
C80	C	2.086226	0.911408	0.911752
C81	C	2.419560	1.244742	1.245085
C82	C	1.394151	0.265005	0.578393
C83	C	1.727484	0.598338	0.911726
C84	C	2.060818	0.931672	1.245060
C85	C	1.394178	0.131605	0.578408
C86	C	1.727512	0.464938	0.911742
C87	C	2.060845	0.798272	1.245075
C88	C	1.394068	0.578094	0.266533
C89	C	1.727401	0.911427	0.599866
C90	C	2.060735	1.244760	0.933200
C91	C	1.394223	0.577812	0.133134
C92	C	1.727557	0.911146	0.466467
C93	C	2.060890	1.244479	0.799800
