data_functionalizedCrystal
_audit_creation_method	'MofGen! by Chris Wilmer'
_symmetry_space_group_name_H-M	'P1'
_symmetry_Int_Tables_number	1
_symmetry_cell_setting	triclinic
loop_
_symmetry_equiv_pos_as_xyz
  x,y,z
_cell_length_a	10.540510
_cell_length_b	10.540535
_cell_length_c	10.268362
_cell_angle_alpha	89.997809
_cell_angle_beta	90.005816
_cell_angle_gamma	95.481523
loop_
_atom_site_label
_atom_site_type_symbol
_atom_site_fract_x
_atom_site_fract_y
_atom_site_fract_z
O1	O	-0.178876	1.685872	-0.108231
O2	O	-0.195739	1.316456	-0.108249
O3	O	-0.002598	1.509611	-0.108229
O4	O	-0.372017	1.492716	-0.108251
O5	O	-0.002590	1.509594	0.108371
O6	O	-0.195730	1.316439	0.108351
O7	O	-0.178868	1.685855	0.108370
Cu8	Cu	-0.187299	1.501145	0.128138
Cu9	Cu	-0.187308	1.501165	-0.128017
O10	O	-0.372008	1.492699	0.108350
C11	C	-0.194471	1.269145	0.000049
C12	C	-0.190691	1.128197	0.000042
C13	C	-0.049676	1.091541	0.000056
C14	C	-0.045698	0.944941	0.000560
C15	C	-0.255058	0.918844	0.123503
C16	C	-0.258059	1.065609	0.123593
C17	C	-0.260120	1.065512	-0.122731
C18	C	-0.253598	0.919167	-0.124340
C19	C	-0.419316	1.493967	0.000047
C20	C	-0.560266	1.497733	0.000039
C21	C	-0.777724	1.363549	0.000545
C22	C	-0.631128	1.359531	0.000037
C23	C	-0.605046	1.568490	-0.123640
C24	C	-0.751806	1.571529	-0.123723
C25	C	-0.751571	1.574387	0.122592
C26	C	-0.605229	1.567832	0.124207
C27	C	0.044709	1.508344	0.000071
C28	C	0.185659	1.504577	0.000071
C29	C	-0.180136	1.733166	0.000069
C30	C	-0.183915	1.874114	0.000067
N31	N	-0.187291	1.501140	0.308304
N32	N	-0.187306	1.501180	-0.308183
C33	C	-0.187306	1.501159	0.573974
C34	C	-0.187301	1.501145	0.426136
H35	H	0.004472	1.133523	-0.088450
H36	H	-0.794000	1.530701	0.216344
H37	H	-0.216120	1.107983	-0.216324
H38	H	-0.601770	1.304158	0.088685
H39	H	-0.354473	0.870108	-0.132184
Br40	Br	-0.433067	1.102402	-0.124691
Br41	Br	0.047033	0.896056	-0.146891
Br42	Br	-0.430353	1.103985	0.132357
H43	H	-0.356825	0.871476	0.127739
H44	H	-0.206242	0.887940	0.215724
H45	H	-0.602739	1.303867	-0.088788
Br46	Br	-0.788481	1.747332	0.123997
Br47	Br	-0.553648	1.486621	-0.277074
Br48	Br	0.046566	0.897501	0.148939
Br49	Br	0.039083	1.163966	0.147383
Br50	Br	-0.790141	1.743811	-0.133027
Br51	Br	-0.818871	1.490959	-0.277824
H52	H	-0.576600	1.516348	0.215704
Br53	Br	-0.526067	1.738071	-0.131310
Br54	Br	-0.167278	0.871568	-0.276551
Br55	Br	-0.850254	1.274331	-0.146462
Br56	Br	-0.177972	1.132568	0.277983
Br57	Br	-0.847641	1.273780	0.148380
H58	H	-0.556154	1.668727	0.131682
