data_functionalizedCrystal
_audit_creation_method	'MofGen! by Chris Wilmer'
_symmetry_space_group_name_H-M	'P1'
_symmetry_Int_Tables_number	1
_symmetry_cell_setting	triclinic
loop_
_symmetry_equiv_pos_as_xyz
  x,y,z
_cell_length_a	16.120530
_cell_length_b	29.839131
_cell_length_c	16.120297
_cell_angle_alpha	87.139604
_cell_angle_beta	89.871860
_cell_angle_gamma	87.130172
loop_
_atom_site_label
_atom_site_type_symbol
_atom_site_fract_x
_atom_site_fract_y
_atom_site_fract_z
Zn1	Zn	1.247358	-0.227599	0.534475
Zn2	Zn	1.580692	0.105734	0.867808
Zn3	Zn	1.914025	0.439067	1.201141
Zn4	Zn	1.254283	-0.299116	0.395389
Zn5	Zn	1.587617	0.034218	0.728722
Zn6	Zn	1.920950	0.367551	1.062056
Zn7	Zn	1.115351	-0.220008	0.388396
Zn8	Zn	1.448685	0.113325	0.721729
Zn9	Zn	1.782018	0.446659	1.055062
Zn10	Zn	1.108240	-0.298702	0.527358
Zn11	Zn	1.441573	0.034631	0.860692
Zn12	Zn	1.774907	0.367965	1.194025
O13	O	1.181308	-0.261356	0.461404
O14	O	1.514642	0.071977	0.794738
O15	O	1.847975	0.405310	1.128071
O16	O	1.364642	-0.240436	0.521930
O17	O	1.697975	0.092897	0.855263
O18	O	2.031309	0.426230	1.188596
O19	O	1.241728	-0.285618	0.278097
O20	O	1.575061	0.047715	0.611430
O21	O	1.908395	0.381049	0.944764
O22	O	1.132941	-0.158151	0.407825
O23	O	1.466274	0.175182	0.741158
O24	O	1.799607	0.508515	1.074492
O25	O	1.369730	-0.292979	0.419744
O26	O	1.703063	0.040354	0.753077
O27	O	2.036397	0.373688	1.086411
O28	O	1.229925	-0.163729	0.515149
O29	O	1.563259	0.169605	0.848482
O30	O	1.896592	0.502938	1.181815
O31	O	1.139655	-0.227498	0.272959
O32	O	1.472989	0.105835	0.606293
O33	O	1.806322	0.439169	0.939626
O34	O	0.998043	-0.227097	0.400925
O35	O	1.331376	0.106237	0.734258
O36	O	1.664710	0.439570	1.067591
O37	O	1.120820	-0.292274	0.644667
O38	O	1.454153	0.041059	0.978000
O39	O	1.787487	0.374393	1.311333
O40	O	0.992818	-0.284913	0.503020
O41	O	1.326152	0.048420	0.836353
O42	O	1.659485	0.381754	1.169686
O43	O	1.223030	-0.240035	0.649895
O44	O	1.556363	0.093298	0.983228
O45	O	1.889696	0.426631	1.316562
O46	O	1.234832	-0.361924	0.412843
O47	O	1.568166	-0.028591	0.746177
O48	O	1.901499	0.304742	1.079510
O49	O	1.127535	-0.361621	0.509801
O50	O	1.460868	-0.028287	0.843134
O51	O	1.794202	0.305046	1.176467
C52	C	0.965258	-0.255137	0.450442
C53	C	1.298592	0.078197	0.783775
C54	C	1.631925	0.411530	1.117108
C55	C	0.872830	-0.252487	0.445771
C56	C	1.206164	0.080846	0.779105
C57	C	1.539497	0.414180	1.112438
C58	C	0.703603	-0.247639	0.437252
C59	C	1.036936	0.085694	0.770585
C60	C	1.370269	0.419027	1.103919
C61	C	0.659851	-0.275108	0.485618
C62	C	0.993185	0.058225	0.818951
C63	C	1.326518	0.391559	1.152284
C64	C	0.565687	-0.272411	0.480877
C65	C	0.899021	0.060923	0.814211
C66	C	1.232354	0.394256	1.147544
C67	C	0.797775	-0.250336	0.441991
C68	C	1.131109	0.082997	0.775324
C69	C	1.464442	0.416331	1.108658
C70	C	1.181185	-0.378073	0.461328
C71	C	1.514518	-0.044740	0.794661
C72	C	1.847852	0.288593	1.127995
C73	C	1.181207	-0.428008	0.461327
C74	C	1.514540	-0.094675	0.794660
C75	C	1.847874	0.238658	1.127994
C76	C	1.231793	-0.740528	0.517363
C77	C	1.565126	-0.407194	0.850696
C78	C	1.898460	-0.073861	1.184030
C79	C	1.231881	-0.928204	0.517418
C80	C	1.565214	-0.594871	0.850751
C81	C	1.898547	-0.261538	1.184084
O82	O	1.274769	-0.954909	0.565003
O83	O	1.608102	-0.621576	0.898337
O84	O	1.941436	-0.288243	1.231670
N85	N	1.181445	-0.948805	0.461504
N86	N	1.514778	-0.615471	0.794837
N87	N	1.848112	-0.282138	1.128171
C88	C	1.130979	-0.922483	0.405576
C89	C	1.464313	-0.589149	0.738910
C90	C	1.797646	-0.255816	1.072243
O91	O	1.088076	-0.944311	0.358025
O92	O	1.421410	-0.610978	0.691358
O93	O	1.754743	-0.277644	1.024692
C94	C	1.130888	-0.734807	0.405526
C95	C	1.464221	-0.401473	0.738860
C96	C	1.797555	-0.068140	1.072193
C97	C	1.181333	-0.714209	0.461438
C98	C	1.514667	-0.380876	0.794771
C99	C	1.848000	-0.047542	1.128105
C100	C	1.282233	-0.719930	0.573271
C101	C	1.615567	-0.386596	0.906604
C102	C	1.948900	-0.053263	1.239938
C103	C	1.282214	-0.673013	0.573254
C104	C	1.615548	-0.339680	0.906587
C105	C	1.948881	-0.006346	1.239920
C106	C	1.231755	-0.646695	0.517329
C107	C	1.565088	-0.313361	0.850662
C108	C	1.898421	0.019972	1.183995
C109	C	1.181314	-0.667293	0.461421
C110	C	1.514648	-0.333959	0.794754
C111	C	1.847981	-0.000626	1.128087
C112	C	1.080419	-0.708486	0.349603
C113	C	1.413752	-0.375152	0.682937
C114	C	1.747085	-0.041819	1.016270
C115	C	1.080399	-0.661564	0.349597
C116	C	1.413732	-0.328231	0.682931
C117	C	1.747065	0.005103	1.016264
C118	C	1.130844	-0.640966	0.405509
C119	C	1.464177	-0.307633	0.738842
C120	C	1.797511	0.025700	1.072176
C121	C	1.130836	-0.594058	0.405479
C122	C	1.464169	-0.260724	0.738812
C123	C	1.797502	0.072609	1.072145
N124	N	1.181271	-0.573457	0.461392
N125	N	1.514605	-0.240124	0.794726
N126	N	1.847938	0.093209	1.128059
C127	C	1.231731	-0.599776	0.517317
C128	C	1.565064	-0.266443	0.850651
C129	C	1.898398	0.066891	1.183984
C130	C	1.131032	-1.021016	0.405605
C131	C	1.464366	-0.687682	0.738939
C132	C	1.797699	-0.354349	1.072272
C133	C	1.131056	-1.067934	0.405617
C134	C	1.464389	-0.734601	0.738950
C135	C	1.797723	-0.401268	1.072283
C136	C	1.231956	-1.073653	0.517459
C137	C	1.565290	-0.740320	0.850793
C138	C	1.898623	-0.406986	1.184126
C139	C	1.231936	-1.026733	0.517443
C140	C	1.565270	-0.693400	0.850777
C141	C	1.898603	-0.360067	1.184110
C142	C	1.181468	-1.000415	0.461519
C143	C	1.514801	-0.667082	0.794852
C144	C	1.848135	-0.333749	1.128186
C145	C	1.231688	-0.501248	0.517276
C146	C	1.565021	-0.167914	0.850610
C147	C	1.898354	0.165419	1.183943
C148	C	1.231667	-0.454327	0.517252
C149	C	1.565000	-0.120994	0.850585
C150	C	1.898333	0.212340	1.183919
C151	C	1.130763	-0.448613	0.405413
C152	C	1.464097	-0.115279	0.738746
C153	C	1.797430	0.218054	1.072079
C154	C	1.130787	-0.495529	0.405434
C155	C	1.464121	-0.162196	0.738767
C156	C	1.797454	0.171137	1.072100
C157	C	1.181252	-0.521846	0.461373
C158	C	1.514585	-0.188513	0.794706
C159	C	1.847919	0.144821	1.128039
O160	O	1.087963	-0.567325	0.357924
O161	O	1.421296	-0.233992	0.691257
O162	O	1.754629	0.099342	1.024591
O163	O	1.274614	-0.577939	0.564874
O164	O	1.607947	-0.244606	0.898207
O165	O	1.941281	0.088727	1.231540
C166	C	1.231812	-0.787444	0.517380
C167	C	1.565145	-0.454111	0.850714
C168	C	1.898479	-0.120777	1.184047
C169	C	1.181371	-0.808042	0.461472
C170	C	1.514705	-0.474709	0.794806
C171	C	1.848038	-0.141375	1.128139
C172	C	1.130912	-0.781723	0.405547
C173	C	1.464245	-0.448390	0.738881
C174	C	1.797578	-0.115057	1.072214
C175	C	1.181395	-0.854961	0.461484
C176	C	1.514729	-0.521627	0.794817
C177	C	1.848062	-0.188294	1.128150
C178	C	1.231855	-0.881279	0.517409
C179	C	1.565188	-0.547946	0.850742
C180	C	1.898522	-0.214613	1.184076
C181	C	1.282291	-0.860679	0.573323
C182	C	1.615624	-0.527346	0.906656
C183	C	1.948957	-0.194012	1.239989
C184	C	1.282272	-0.813762	0.573305
C185	C	1.615605	-0.480429	0.906639
C186	C	1.948938	-0.147096	1.239972
C187	C	1.080476	-0.802324	0.349634
C188	C	1.413809	-0.468990	0.682967
C189	C	1.747143	-0.135657	1.016300
C190	C	1.080500	-0.849241	0.349655
C191	C	1.413833	-0.515907	0.682988
C192	C	1.747167	-0.182574	1.016322
C193	C	1.130960	-0.875559	0.405580
C194	C	1.464293	-0.542226	0.738913
C195	C	1.797626	-0.208892	1.072247
C196	C	1.398202	-0.267601	0.472411
C197	C	1.731535	0.065733	0.805744
C198	C	2.064868	0.399066	1.139077
C199	C	1.490629	-0.270262	0.477101
C200	C	1.823962	0.063072	0.810434
C201	C	2.157295	0.396405	1.143767
C202	C	1.170359	-0.266955	0.678296
C203	C	1.503692	0.066378	1.011630
C204	C	1.837026	0.399711	1.344963
C205	C	1.165693	-0.269341	0.770723
C206	C	1.499027	0.063992	1.104056
C207	C	1.832360	0.397325	1.437390
C208	C	1.181454	-0.144185	0.461501
C209	C	1.514787	0.189149	0.794834
C210	C	1.848120	0.522482	1.128167
C211	C	1.181516	-0.094253	0.461542
C212	C	1.514849	0.239080	0.794875
C213	C	1.848182	0.572414	1.128208
C214	C	1.192263	-0.255748	0.245359
C215	C	1.525596	0.077585	0.578692
C216	C	1.858929	0.410919	0.912025
C217	C	1.197090	-0.253240	0.152941
C218	C	1.530423	0.080093	0.486274
C219	C	1.863756	0.413426	0.819608
C220	C	1.157144	-0.273686	0.939946
C221	C	1.490477	0.059647	1.273279
C222	C	1.823811	0.392980	1.606612
C223	C	1.205637	-0.248896	0.983723
C224	C	1.538970	0.084437	1.317057
C225	C	1.872303	0.417770	1.650390
C226	C	1.200880	-0.251314	1.077885
C227	C	1.534213	0.082019	1.411218
C228	C	1.867546	0.415353	1.744551
C229	C	1.161900	-0.271269	0.845776
C230	C	1.495233	0.062064	1.179109
C231	C	1.828566	0.395397	1.512442
H232	H	1.272748	-0.437558	0.562782
H233	H	1.606081	-0.104225	0.896115
H234	H	1.939415	0.229109	1.229449
H235	H	0.693114	-0.300650	0.530586
H236	H	1.026448	0.032684	0.863920
H237	H	1.359781	0.366017	1.197253
H238	H	1.112060	-0.296724	0.973182
H239	H	1.445393	0.036609	1.306515
H240	H	1.778727	0.369942	1.639849
H241	H	0.670342	-0.222100	0.392288
H242	H	1.003675	0.111234	0.725621
H243	H	1.337008	0.444567	1.058954
F244	F	1.264585	-0.218790	0.940282
F245	F	1.597918	0.114543	1.273615
F246	F	1.931252	0.447877	1.606948
H247	H	1.272775	-0.522670	0.562832
H248	H	1.606108	-0.189336	0.896166
H249	H	1.939441	0.143997	1.229499
H250	H	1.323323	-0.741354	0.618817
H251	H	1.656657	-0.408020	0.952150
H252	H	1.989990	-0.074687	1.285483
F253	F	1.335900	-0.651098	0.632768
F254	F	1.669234	-0.317764	0.966101
F255	F	2.002567	0.015569	1.299435
F256	F	1.285626	-1.004816	0.576952
F257	F	1.618959	-0.671483	0.910286
F258	F	1.952292	-0.338149	1.243619
F259	F	1.077109	-0.517452	0.345917
F260	F	1.410442	-0.184118	0.679250
F261	F	1.743776	0.149215	1.012584
H262	H	1.089682	-0.427177	0.359877
H263	H	1.423016	-0.093843	0.693210
H264	H	1.756349	0.239490	1.026543
F265	F	1.077376	-1.089851	0.346098
F266	F	1.410710	-0.756517	0.679431
F267	F	1.744043	-0.423184	1.012764
F268	F	1.285660	-1.101671	0.576979
F269	F	1.618993	-0.768338	0.910312
F270	F	1.952327	-0.435004	1.243645
F271	F	1.026725	-0.730397	0.290095
F272	F	1.360058	-0.397064	0.623429
F273	F	1.693391	-0.063730	0.956762
F274	F	1.026681	-0.633557	0.290073
F275	F	1.360015	-0.300224	0.623407
F276	F	1.693348	0.033110	0.956740
F277	F	1.335962	-0.791847	0.632816
F278	F	1.669295	-0.458514	0.966149
F279	F	2.002629	-0.125180	1.299482
F280	F	1.077311	-0.993011	0.346081
F281	F	1.410644	-0.659678	0.679414
F282	F	1.743978	-0.326345	1.012748
F283	F	1.335996	-0.888697	0.632840
F284	F	1.669330	-0.555364	0.966173
F285	F	2.002663	-0.222031	1.299506
H286	H	1.039423	-0.866007	0.304117
H287	H	1.372756	-0.532673	0.637450
H288	H	1.706090	-0.199340	0.970784
H289	H	1.039385	-0.780899	0.304094
H290	H	1.372718	-0.447565	0.637427
H291	H	1.706051	-0.114232	0.970760
