data_functionalizedCrystal
_audit_creation_method	'MofGen! by Chris Wilmer'
_symmetry_space_group_name_H-M	'P1'
_symmetry_Int_Tables_number	1
_symmetry_cell_setting	triclinic
loop_
_symmetry_equiv_pos_as_xyz
  x,y,z
_cell_length_a	17.699104
_cell_length_b	17.699103
_cell_length_c	16.776229
_cell_angle_alpha	89.988386
_cell_angle_beta	89.991971
_cell_angle_gamma	83.291289
loop_
_atom_site_label
_atom_site_type_symbol
_atom_site_fract_x
_atom_site_fract_y
_atom_site_fract_z
O1	O	1.004075	0.095787	-0.066313
O2	O	0.783700	0.108223	-0.066312
O3	O	0.900106	-0.008183	-0.066297
O4	O	0.887669	0.212193	-0.066328
O5	O	0.900091	-0.008190	0.066279
O6	O	0.783685	0.108216	0.066264
O7	O	1.004060	0.095780	0.066263
Zn8	Zn	0.893870	0.101997	0.087313
Zn9	Zn	0.893890	0.102006	-0.087362
O10	O	0.887654	0.212186	0.066249
C11	C	0.755496	0.107771	-0.000024
C12	C	0.671478	0.106426	-0.000023
C13	C	0.899650	-0.036383	-0.000007
C14	C	0.898306	-0.120400	-0.000000
C15	C	0.146612	0.167170	-0.000039
C16	C	0.225555	0.168429	-0.000042
C17	C	0.274168	0.100094	-0.000032
C18	C	0.243833	0.030496	-0.000028
C19	C	0.164891	0.029238	-0.000032
C20	C	0.562200	0.035569	-0.000016
C21	C	0.641147	0.036833	-0.000011
C22	C	0.622864	0.174760	-0.000027
C23	C	0.543922	0.173502	-0.000030
C24	C	0.513594	0.103904	-0.000030
C25	C	0.427994	0.102540	-0.000029
C26	C	0.359767	0.101458	-0.000028
C27	C	0.890090	-0.636109	-0.072320
C28	C	0.891352	-0.557165	-0.072313
C29	C	0.891973	-0.517711	-0.000041
C30	C	0.891340	-0.557205	0.072229
C31	C	0.890083	-0.636147	0.072221
C32	C	0.896410	-0.238838	0.072263
C33	C	0.897665	-0.159889	0.072265
C34	C	0.897679	-0.159856	-0.072272
C35	C	0.896422	-0.238798	-0.072280
C36	C	0.895793	-0.278286	-0.000010
C37	C	0.894425	-0.363886	-0.000019
C38	C	0.893335	-0.432112	-0.000031
C39	C	1.032264	0.096232	-0.000027
C40	C	1.116282	0.097577	-0.000033
C41	C	0.888110	0.240386	-0.000044
C42	C	0.889454	0.324403	-0.000055
N43	N	0.893861	0.101990	0.206524
N44	N	0.893904	0.102007	-0.206573
C45	C	0.945422	0.050467	0.248248
C46	C	0.945426	0.050466	0.331700
C47	C	0.893873	0.101993	0.373427
C48	C	0.842307	0.153519	0.331698
C49	C	0.842300	0.153515	0.248247
C50	C	0.842334	0.153533	0.668245
C51	C	0.842347	0.153535	0.751702
C52	C	0.945460	0.050484	0.751698
C53	C	0.945453	0.050481	0.668247
C54	C	0.893885	0.102004	0.626525
C55	C	0.893880	0.102003	0.536037
C56	C	0.893881	0.101998	0.463914
H57	H	0.250246	0.225098	-0.000055
H58	H	0.889565	-0.668297	0.131067
H59	H	0.647566	0.231430	-0.000030
H60	H	0.895898	-0.270979	0.131109
H61	H	0.987410	0.008511	0.365671
O62	O	0.786753	0.209124	0.796712
H63	H	0.750893	0.244951	0.753681
O64	O	0.889407	-0.678661	-0.150271
H65	H	0.890064	-0.637937	-0.200519
O66	O	0.132175	-0.045824	-0.000023
H67	H	0.096632	-0.049696	0.054009
H68	H	0.891851	-0.525075	0.131075
O69	O	0.491487	0.247204	-0.000041
H70	H	0.525841	0.295810	-0.000053
O71	O	0.693585	-0.036874	-0.000006
H72	H	0.659234	-0.085482	-0.000014
H73	H	0.537517	-0.021102	-0.000014
O74	O	0.296260	-0.043211	-0.000010
H75	H	0.356250	-0.030646	0.000002
O76	O	0.892023	-0.514569	-0.150254
H77	H	0.891366	-0.555265	-0.200510
O78	O	0.786704	0.209100	0.376697
H79	H	0.795377	0.200454	0.441736
H80	H	0.107036	0.222816	-0.000041
O81	O	0.895730	-0.281352	-0.150229
H82	H	0.896383	-0.240630	-0.200480
H83	H	0.800313	0.195470	0.214277
H84	H	0.987405	0.008511	0.214279
H85	H	0.987435	0.008525	0.634276
O86	O	1.001077	-0.005097	0.796697
H87	H	0.992418	0.003552	0.861736
H88	H	0.800347	0.195486	0.634281
H89	H	0.898167	-0.127767	0.131121
O90	O	0.898366	-0.117268	-0.150225
H91	H	0.899353	-0.055747	-0.138082
