data_functionalizedCrystal
_audit_creation_method	'MofGen! by Chris Wilmer'
_symmetry_space_group_name_H-M	'P1'
_symmetry_Int_Tables_number	1
_symmetry_cell_setting	triclinic
loop_
_symmetry_equiv_pos_as_xyz
  x,y,z
_cell_length_a	14.971486
_cell_length_b	16.109301
_cell_length_c	13.448316
_cell_angle_alpha	89.991973
_cell_angle_beta	89.998199
_cell_angle_gamma	83.537805
loop_
_atom_site_label
_atom_site_type_symbol
_atom_site_fract_x
_atom_site_fract_y
_atom_site_fract_z
O1	O	1.186791	0.108348	-0.082581
O2	O	0.926372	0.121323	-0.082608
O3	O	1.063736	-0.006187	-0.082584
O4	O	1.049428	0.235857	-0.082605
O5	O	1.063718	-0.006195	0.082800
O6	O	0.926355	0.121315	0.082776
O7	O	1.186774	0.108340	0.082803
Cu8	Cu	1.056563	0.114827	0.097890
Cu9	Cu	1.056583	0.114836	-0.097695
O10	O	1.049410	0.235850	0.082778
C11	C	0.893040	0.120739	0.000080
C12	C	0.793745	0.119000	0.000070
C13	C	0.736412	0.193908	0.000065
C14	C	0.643115	0.192269	0.000080
C15	C	0.607153	0.115721	0.000093
C16	C	0.664494	0.040807	0.000101
C17	C	0.757789	0.042447	0.000093
C18	C	0.470036	0.037395	0.000115
C19	C	0.376734	0.035755	0.000121
C20	C	0.355362	0.187217	0.000102
C21	C	0.448657	0.188857	0.000094
C22	C	0.505991	0.113942	0.000100
C23	C	1.063147	-0.037166	0.000109
C24	C	1.061410	-0.129464	0.000110
C25	C	1.138878	-0.351640	0.000102
C26	C	1.137239	-0.438362	0.000094
C27	C	0.974262	-0.418691	0.000081
C28	C	0.975902	-0.331970	0.000082
C29	C	1.058213	-0.298447	0.000098
C30	C	1.054933	-0.471890	0.000088
C31	C	1.053155	-0.565918	0.000079
C32	C	1.059992	-0.204413	0.000105
C33	C	1.220106	0.108924	0.000112
C34	C	1.319401	0.110663	0.000116
C35	C	1.049999	0.266829	0.000084
C36	C	1.051736	0.359127	0.000076
N37	N	1.056555	0.114820	0.235454
N38	N	1.056598	0.114837	-0.235260
C39	C	1.117398	0.058382	0.287506
C40	C	1.117404	0.058381	0.391609
C41	C	1.056570	0.114823	0.443659
C42	C	0.995720	0.171264	0.391601
C43	C	0.995711	0.171260	0.287499
C44	C	0.995745	0.171269	0.608581
C45	C	0.995755	0.171275	0.712689
C46	C	1.117438	0.058391	0.712690
C47	C	1.117429	0.058387	0.608589
C48	C	1.056580	0.114829	0.556538
H49	H	0.308675	0.248215	0.000101
H50	H	0.907247	-0.445996	0.000070
C51	C	0.533102	-0.045016	0.000119
N52	N	0.580603	-0.107086	0.000114
C53	C	0.488213	0.273064	0.000083
N54	N	0.518006	0.336489	0.000081
C55	C	1.229422	-0.314768	0.000109
N56	N	1.297623	-0.286998	0.000109
C57	C	1.184322	-0.003710	0.230260
N58	N	1.234727	-0.050483	0.187146
C59	C	0.928793	0.233343	0.448859
N60	N	0.878382	0.280102	0.491986
H61	H	0.910211	-0.288658	0.000075
C62	C	0.928785	0.233352	0.230243
N63	N	0.878376	0.280123	0.187120
H64	H	0.946216	0.217235	0.755063
C65	C	1.184315	-0.003725	0.448861
N66	N	1.234707	-0.050514	0.491982
H67	H	1.166969	0.012432	0.566210
H68	H	1.166983	0.012434	0.755077
H69	H	0.946192	0.217228	0.566204
H70	H	0.765684	0.256242	0.000053
H71	H	0.596437	0.253267	0.000074
H72	H	0.347458	-0.026577	0.000133
H73	H	0.804470	-0.018551	0.000097
C74	C	1.225977	-0.496871	0.000108
N75	N	1.292819	-0.540939	0.000120
H76	H	0.635206	-0.021520	0.000126
