data_functionalizedCrystal
_audit_creation_method	'MofGen! by Chris Wilmer'
_symmetry_space_group_name_H-M	'P1'
_symmetry_Int_Tables_number	1
_symmetry_cell_setting	triclinic
loop_
_symmetry_equiv_pos_as_xyz
  x,y,z
_cell_length_a	17.038272
_cell_length_b	19.288840
_cell_length_c	18.366186
_cell_angle_alpha	89.983729
_cell_angle_beta	89.993834
_cell_angle_gamma	87.118786
loop_
_atom_site_label
_atom_site_type_symbol
_atom_site_fract_x
_atom_site_fract_y
_atom_site_fract_z
O1	O	0.097420	0.927391	-0.060673
O2	O	0.430753	1.260725	0.272660
O3	O	0.764087	1.594058	0.605994
O4	O	0.110595	0.725943	-0.060648
O5	O	0.443928	1.059277	0.272685
O6	O	0.777262	1.392610	0.606019
O7	O	-0.009804	0.825470	-0.060654
O8	O	0.323529	1.158803	0.272679
O9	O	0.656863	1.492137	0.606012
O10	O	0.217819	0.827865	-0.060666
O11	O	0.551152	1.161198	0.272667
O12	O	0.884486	1.494531	0.606000
O13	O	-0.009810	0.825452	0.060445
O14	O	0.323524	1.158785	0.393778
O15	O	0.656857	1.492118	0.727112
O16	O	0.110589	0.725925	0.060452
O17	O	0.443922	1.059258	0.393785
O18	O	0.777256	1.392592	0.727118
O19	O	0.097414	0.927373	0.060427
O20	O	0.430748	1.260706	0.393760
O21	O	0.764081	1.594040	0.727093
Zn22	Zn	0.104001	0.826646	0.079666
Zn23	Zn	0.437334	1.159979	0.413000
Zn24	Zn	0.770667	1.493313	0.746333
Zn25	Zn	0.104008	0.826670	-0.079887
Zn26	Zn	0.437342	1.160004	0.253446
Zn27	Zn	0.770675	1.493337	0.586779
O28	O	0.217813	0.827846	0.060433
O29	O	0.551146	1.161180	0.393766
O30	O	0.884480	1.494513	0.727100
C31	C	0.110171	0.700031	-0.000095
C32	C	0.443505	1.033365	0.333238
C33	C	0.776838	1.366698	0.666572
C34	C	0.108909	0.622849	-0.000085
C35	C	0.442242	0.956182	0.333248
C36	C	0.775575	1.289515	0.666582
C37	C	0.108305	0.586618	-0.066098
C38	C	0.441638	0.919951	0.267235
C39	C	0.774972	1.253284	0.600568
C40	C	0.107110	0.514097	-0.066107
C41	C	0.440443	0.847430	0.267226
C42	C	0.773777	1.180764	0.600560
C43	C	0.106502	0.477811	-0.000099
C44	C	0.439836	0.811144	0.333234
C45	C	0.773169	1.144477	0.666568
C46	C	0.107110	0.514050	0.065923
C47	C	0.440444	0.847384	0.399256
C48	C	0.773777	1.180717	0.732589
C49	C	0.108313	0.586569	0.065930
C50	C	0.441647	0.919903	0.399263
C51	C	0.774980	1.253236	0.732596
C52	C	0.058809	0.365525	0.050465
C53	C	0.392142	0.698858	0.383798
C54	C	0.725475	1.032191	0.717131
C55	C	0.057601	0.293007	0.050455
C56	C	0.390934	0.626341	0.383788
C57	C	0.724267	0.959674	0.717122
C58	C	0.102795	0.254138	-0.000118
C59	C	0.436129	0.587471	0.333215
C60	C	0.769462	0.920804	0.666549
C61	C	0.149188	0.287795	-0.050693
C62	C	0.482521	0.621129	0.282640
C63	C	0.815855	0.954462	0.615973
C64	C	0.150391	0.360314	-0.050686
C65	C	0.483724	0.693648	0.282647
C66	C	0.817058	1.026981	0.615980
C67	C	0.105198	0.399176	-0.000099
C68	C	0.438532	0.732509	0.333234
C69	C	0.771865	1.065843	0.666567
C70	C	0.100897	0.139271	-0.066145
C71	C	0.434230	0.472605	0.267188
C72	C	0.767564	0.805938	0.600522
C73	C	0.099707	0.066749	-0.066151
C74	C	0.433040	0.400082	0.267182
C75	C	0.766373	0.733415	0.600515
C76	C	0.099699	0.066704	0.065880
C77	C	0.433033	0.400037	0.399214
C78	C	0.766366	0.733371	0.732547
C79	C	0.100897	0.139225	0.065885
C80	C	0.434231	0.472558	0.399218
C81	C	0.767564	0.805891	0.732551
C82	C	0.101493	0.175504	-0.000130
C83	C	0.434826	0.508837	0.333203
C84	C	0.768159	0.842171	0.666537
C85	C	-0.038928	0.823283	-0.000105
C86	C	0.294405	1.156616	0.333229
C87	C	0.627739	1.489950	0.666562
C88	C	-0.125699	0.816785	-0.000104
C89	C	0.207634	1.150119	0.333229
C90	C	0.540968	1.483452	0.666563
C91	C	-0.176012	0.876442	-0.000111
C92	C	0.157322	1.209775	0.333223
C93	C	0.490655	1.543108	0.666556
C94	C	-0.257542	0.870332	-0.000117
C95	C	0.075791	1.203666	0.333217
C96	C	0.409125	1.536999	0.666550
C97	C	-0.288758	0.804566	-0.000111
C98	C	0.044575	1.137899	0.333222
C99	C	0.377909	1.471233	0.666556
C100	C	-0.238439	0.744905	-0.000107
C101	C	0.094895	1.078238	0.333227
C102	C	0.428228	1.411572	0.666560
C103	C	-0.156910	0.751015	-0.000106
C104	C	0.176423	1.084348	0.333228
C105	C	0.509756	1.417682	0.666561
C106	C	-0.534444	0.782980	-0.000118
C107	C	-0.201111	1.116314	0.333215
C108	C	0.132223	1.449647	0.666548
C109	C	-0.615979	0.776875	-0.000117
C110	C	-0.282646	1.110208	0.333216
C111	C	0.050688	1.443541	0.666550
C112	C	-0.635077	0.902303	-0.000129
C113	C	-0.301743	1.235636	0.333205
C114	C	0.031590	1.568969	0.666538
C115	C	-0.553546	0.908407	-0.000123
C116	C	-0.220212	1.241740	0.333210
C117	C	0.113121	1.575073	0.666543
C118	C	-0.503234	0.848746	-0.000123
C119	C	-0.169900	1.182079	0.333211
C120	C	0.163433	1.515413	0.666544
C121	C	-0.372095	0.798320	-0.000115
C122	C	-0.038761	1.131653	0.333218
C123	C	0.294572	1.464986	0.666552
C124	C	-0.419899	0.854993	-0.000124
C125	C	-0.086565	1.188326	0.333209
C126	C	0.246768	1.521660	0.666543
C127	C	0.246937	0.830033	-0.000118
C128	C	0.580270	1.163367	0.333215
C129	C	0.913604	1.496700	0.666548
C130	C	0.333708	0.836531	-0.000124
C131	C	0.667042	1.169864	0.333210
C132	C	1.000375	1.503198	0.666543
C133	C	0.097838	0.953285	-0.000128
C134	C	0.431171	1.286618	0.333205
C135	C	0.764504	1.619952	0.666539
C136	C	0.099101	1.030468	-0.000143
C137	C	0.432434	1.363801	0.333191
C138	C	0.765767	1.697134	0.666524
N139	N	0.103995	0.826634	0.188557
N140	N	0.437328	1.159968	0.521891
N141	N	0.770662	1.493301	0.855224
N142	N	0.104008	0.826687	-0.188779
N143	N	0.437341	1.160020	0.144555
N144	N	0.770675	1.493354	0.477888
C145	C	0.050708	0.870722	0.226655
C146	C	0.384042	1.204055	0.559988
C147	C	0.717375	1.537389	0.893321
C148	C	0.050705	0.870726	0.302883
C149	C	0.384038	1.204059	0.636216
C150	C	0.717372	1.537393	0.969549
C151	C	0.104001	0.826650	0.341010
C152	C	0.437335	1.159984	0.674343
C153	C	0.770668	1.493317	1.007677
C154	C	0.157292	0.782554	0.302903
C155	C	0.490625	1.115887	0.636237
C156	C	0.823959	1.449221	0.969570
C157	C	0.157289	0.782546	0.226677
C158	C	0.490622	1.115880	0.560010
C159	C	0.823955	1.449213	0.893344
C160	C	0.175226	0.821759	0.461767
C161	C	0.508559	1.155092	0.795101
C162	C	0.841892	1.488425	1.128434
C163	C	0.175230	0.821771	0.537992
C164	C	0.508563	1.155105	0.871326
C165	C	0.841897	1.488438	1.204659
C166	C	0.104011	0.826671	0.576118
C167	C	0.437344	1.160004	0.909451
C168	C	0.770678	1.493337	1.242784
C169	C	0.032785	0.831571	0.538008
C170	C	0.366118	1.164905	0.871342
C171	C	0.699452	1.498238	1.204675
C172	C	0.032782	0.831563	0.461782
C173	C	0.366115	1.164897	0.795115
C174	C	0.699448	1.498230	1.128449
C175	C	0.104010	0.826654	0.423665
C176	C	0.437344	1.159987	0.756998
C177	C	0.770677	1.493320	1.090331
C178	C	0.050716	0.870765	0.696870
C179	C	0.384050	1.204098	1.030203
C180	C	0.717383	1.537432	1.363537
C181	C	0.050712	0.870764	0.773099
C182	C	0.384045	1.204098	1.106433
C183	C	0.717379	1.537431	1.439766
C184	C	0.157306	0.782596	0.773119
C185	C	0.490639	1.115929	1.106452
C186	C	0.823972	1.449263	1.439785
C187	C	0.157303	0.782593	0.696891
C188	C	0.490637	1.115926	1.030224
C189	C	0.823970	1.449260	1.363557
C190	C	0.104010	0.826681	0.658771
C191	C	0.437343	1.160014	0.992104
C192	C	0.770676	1.493348	1.325438
H193	H	0.019821	0.265609	0.091633
H194	H	0.353155	0.598943	0.424966
H195	H	0.686488	0.932276	0.758300
H196	H	0.007315	0.906663	0.804119
H197	H	0.340649	1.239996	1.137452
H198	H	0.673982	1.573330	1.470785
Br199	Br	0.101710	0.188512	-0.155734
Br200	Br	0.435044	0.521845	0.177599
Br201	Br	0.768377	0.855178	0.510933
Br202	Br	-0.063877	0.838208	0.410064
Br203	Br	0.269457	1.171541	0.743398
Br204	Br	0.602790	1.504874	1.076731
Br205	Br	-0.280802	0.655649	-0.000111
Br206	Br	0.052531	0.988983	0.333222
Br207	Br	0.385865	1.322316	0.666556
Br208	Br	-0.063876	0.838229	0.589740
Br209	Br	0.269457	1.171562	0.923073
Br210	Br	0.602790	1.504896	1.256406
H211	H	0.233226	0.817785	0.569015
H212	H	0.566560	1.151119	0.902348
H213	H	0.899893	1.484452	1.235682
Br214	Br	0.229618	0.722731	0.354645
Br215	Br	0.562952	1.056064	0.687978
Br216	Br	0.896285	1.389397	1.021311
H217	H	0.007311	0.906628	0.333907
H218	H	0.340644	1.239962	0.667241
H219	H	0.673978	1.573295	1.000574
Br220	Br	0.229626	0.722760	0.645181
Br221	Br	0.562960	1.056093	0.978514
Br222	Br	0.896293	1.389426	1.311848
Br223	Br	0.229629	0.722770	0.824857
Br224	Br	0.562962	1.056104	1.158190
Br225	Br	0.896296	1.389437	1.491523
Br226	Br	-0.021613	0.930596	0.645134
Br227	Br	0.311721	1.263929	0.978467
Br228	Br	0.645054	1.597262	1.311801
H229	H	-0.528136	0.961961	-0.000128
H230	H	-0.194803	1.295294	0.333205
H231	H	0.138530	1.628627	0.666539
Br232	Br	0.271891	0.815179	0.410034
Br233	Br	0.605224	1.148513	0.743367
Br234	Br	0.938557	1.481846	1.076700
H235	H	0.200682	0.746644	0.195657
H236	H	0.534015	1.079977	0.528991
H237	H	0.867348	1.413311	0.862324
H238	H	0.106620	0.484592	-0.119865
H239	H	0.439953	0.817925	0.213469
H240	H	0.773286	1.151259	0.546802
Br241	Br	0.109114	0.635851	-0.155689
Br242	Br	0.442448	0.969185	0.177644
Br243	Br	0.775781	1.302518	0.510978
H244	H	0.188167	0.387715	-0.091865
H245	H	0.521500	0.721048	0.241469
H246	H	0.854834	1.054382	0.574802
Br247	Br	0.098898	0.017576	-0.155749
Br248	Br	0.432231	0.350909	0.177585
Br249	Br	0.765564	0.684242	0.510918
Br250	Br	-0.414466	0.709067	-0.000114
Br251	Br	-0.081133	1.042400	0.333219
Br252	Br	0.252201	1.375734	0.666552
H253	H	0.099209	0.037160	0.119626
H254	H	0.432543	0.370494	0.452959
H255	H	0.765876	0.703827	0.786292
H256	H	-0.641391	0.723317	-0.000101
H257	H	-0.308058	1.056650	0.333233
H258	H	0.025275	1.389984	0.666566
Br259	Br	0.109134	0.635743	0.155526
Br260	Br	0.442467	0.969077	0.488859
Br261	Br	0.775801	1.302410	0.822193
Br262	Br	0.210530	0.235053	-0.119332
Br263	Br	0.543863	0.568387	0.214002
Br264	Br	0.877197	0.901720	0.547335
H265	H	-0.676049	0.950875	-0.000131
H266	H	-0.342716	1.284208	0.333203
H267	H	-0.009382	1.617541	0.666536
Br268	Br	-0.088627	0.670050	-0.000102
Br269	Br	0.244706	1.003383	0.333231
Br270	Br	0.578040	1.336716	0.666564
Br271	Br	-0.021619	0.930551	0.174920
Br272	Br	0.311714	1.263885	0.508254
Br273	Br	0.645047	1.597218	0.841587
H274	H	0.101384	0.168724	0.119640
H275	H	0.434717	0.502058	0.452973
H276	H	0.768050	0.835391	0.786306
Br277	Br	-0.002529	0.418269	0.119108
Br278	Br	0.330804	0.751602	0.452442
Br279	Br	0.664137	1.084935	0.785775
H280	H	0.106618	0.484501	0.119667
H281	H	0.439951	0.817835	0.453000
H282	H	0.773284	1.151168	0.786334
H283	H	-0.298504	0.918911	-0.000121
H284	H	0.034829	1.252244	0.333213
H285	H	0.368163	1.585578	0.666546
Br286	Br	-0.133656	0.965700	-0.000108
Br287	Br	0.199677	1.299034	0.333226
Br288	Br	0.533011	1.632367	0.666559
Br289	Br	-0.377533	0.944245	-0.000138
Br290	Br	-0.044199	1.277578	0.333195
Br291	Br	0.289134	1.610911	0.666529
H292	H	-0.493489	0.734400	-0.000118
H293	H	-0.160156	1.067733	0.333216
H294	H	0.173177	1.401066	0.666549
