data_functionalizedCrystal
_audit_creation_method	'MofGen! by Chris Wilmer'
_symmetry_space_group_name_H-M	'P1'
_symmetry_Int_Tables_number	1
_symmetry_cell_setting	triclinic
loop_
_symmetry_equiv_pos_as_xyz
  x,y,z
_cell_length_a	16.992694
_cell_length_b	9.730223
_cell_length_c	10.654550
_cell_angle_alpha	89.995747
_cell_angle_beta	87.576577
_cell_angle_gamma	90.002382
loop_
_atom_site_label
_atom_site_type_symbol
_atom_site_fract_x
_atom_site_fract_y
_atom_site_fract_z
O1	O	1.041839	-0.114117	0.266431
O2	O	0.813538	-0.114158	0.263508
O3	O	0.932937	-0.114128	0.082684
O4	O	0.922439	-0.114147	0.447255
O5	O	0.932930	0.114452	0.082678
O6	O	0.813530	0.114422	0.263502
O7	O	1.041831	0.114463	0.266425
Zn8	Zn	0.927679	0.150734	0.264963
Zn9	Zn	0.927689	-0.150429	0.264971
O10	O	0.922431	0.114433	0.447249
C11	C	0.784301	0.000127	0.259745
C12	C	0.697196	0.000112	0.248526
N13	N	0.927678	0.356271	0.264957
N14	N	0.927697	-0.355966	0.264967
C15	C	0.647544	0.000107	0.356776
C16	C	0.565700	0.000127	0.346227
C17	C	0.533509	0.000141	0.227426
C18	C	0.583167	0.000150	0.119167
C19	C	0.665010	0.000140	0.129718
C20	C	0.289674	0.000180	0.183699
C21	C	0.207825	0.000186	0.173157
C22	C	0.190363	0.000165	0.400218
C23	C	0.272208	0.000147	0.410758
C24	C	0.321859	0.000163	0.302499
N25	N	0.449852	0.000157	0.216640
N26	N	0.405515	0.000157	0.313286
C27	C	1.071068	0.000175	0.270188
C28	C	1.158173	0.000181	0.281408
C29	C	0.932163	0.000161	0.035816
C30	C	0.929856	0.000159	-0.103826
C31	C	0.980566	0.428210	0.184926
C32	C	0.980574	0.572093	0.184927
C33	C	0.874803	0.572085	0.345002
C34	C	0.874792	0.428205	0.344993
C35	C	1.000157	0.000171	-0.177237
C36	C	0.997985	0.000154	-0.308445
C37	C	0.855206	0.000118	-0.292820
C38	C	0.857379	0.000126	-0.161614
C39	C	0.923206	0.000141	0.494117
C40	C	0.925512	0.000134	0.633759
H41	H	0.525276	0.000121	0.434377
N42	N	1.078327	0.000195	-0.114909
H43	H	1.069038	0.000205	-0.020651
H44	H	1.109113	0.084940	-0.141270
N45	N	0.548449	0.000152	-0.008968
H46	H	0.592325	0.000155	-0.075944
H47	H	0.514875	0.084891	-0.018295
N48	N	0.136801	0.000182	0.516965
H49	H	0.147235	0.084919	0.568421
H50	H	0.147237	-0.084606	0.568352
H51	H	0.800128	0.000112	-0.101841
N52	N	0.817743	0.350616	0.431324
H53	H	0.848015	0.290902	0.489992
H54	H	0.782758	0.291016	0.379693
N55	N	0.718567	0.000155	0.012963
H56	H	0.685757	0.000165	-0.063899
H57	H	0.752902	-0.084582	0.012391
N58	N	1.073808	0.000184	-0.387628
H59	H	1.076098	-0.084555	-0.442403
H60	H	1.120006	0.000260	-0.331024
N61	N	0.682261	0.000076	0.484913
H62	H	0.638384	0.000077	0.551887
H63	H	0.715844	0.084806	0.494239
N64	N	0.306926	0.000106	0.538893
H65	H	0.263052	0.000100	0.605871
H66	H	0.340513	0.084830	0.548230
N67	N	0.777035	0.000096	-0.355143
H68	H	0.772953	-0.084638	-0.409227
H69	H	0.772995	0.084887	-0.409170
N70	N	0.173102	0.000193	0.045016
H71	H	0.216974	0.000202	-0.021966
H72	H	0.139526	0.084929	0.035698
H73	H	0.330090	0.000194	0.095546
H74	H	1.023628	0.369645	0.119754
H75	H	0.831745	0.630668	0.410167
N76	N	1.037629	0.649686	0.098626
H77	H	1.071132	0.582279	0.047933
H78	H	1.072566	0.709360	0.150271
