data_functionalizedCrystal
_audit_creation_method	'MofGen! by Chris Wilmer'
_symmetry_space_group_name_H-M	'P1'
_symmetry_Int_Tables_number	1
_symmetry_cell_setting	triclinic
loop_
_symmetry_equiv_pos_as_xyz
  x,y,z
_cell_length_a	25.639242
_cell_length_b	25.639239
_cell_length_c	18.101389
_cell_angle_alpha	89.979551
_cell_angle_beta	89.972814
_cell_angle_gamma	90.033587
loop_
_atom_site_label
_atom_site_type_symbol
_atom_site_fract_x
_atom_site_fract_y
_atom_site_fract_z
Zn1	Zn	0.799254	-0.208277	-0.418885
Zn2	Zn	1.132587	0.125057	-0.085551
Zn3	Zn	1.465921	0.458390	0.247782
Zn4	Zn	0.799169	-0.295698	-0.295039
Zn5	Zn	1.132502	0.037635	0.038295
Zn6	Zn	1.465836	0.370969	0.371628
Zn7	Zn	0.711822	-0.208271	-0.295040
Zn8	Zn	1.045155	0.125063	0.038294
Zn9	Zn	1.378488	0.458396	0.371627
Zn10	Zn	0.711775	-0.295675	-0.418821
Zn11	Zn	1.045109	0.037658	-0.085488
Zn12	Zn	1.378442	0.370992	0.247845
O13	O	0.755505	-0.251980	-0.356946
O14	O	1.088838	0.081353	-0.023613
O15	O	1.422172	0.414686	0.309721
O16	O	0.872408	-0.219885	-0.402483
O17	O	1.205741	0.113448	-0.069149
O18	O	1.539075	0.446781	0.264184
O19	O	0.787566	-0.284108	-0.191406
O20	O	1.120899	0.049226	0.141927
O21	O	1.454233	0.382559	0.475261
O22	O	0.723475	-0.135106	-0.311495
O23	O	1.056808	0.198227	0.021838
O24	O	1.390141	0.531560	0.355172
O25	O	0.872345	-0.284114	-0.311493
O26	O	1.205679	0.049220	0.021840
O27	O	1.539012	0.382553	0.355173
O28	O	0.787711	-0.135111	-0.402483
O29	O	1.121044	0.198223	-0.069150
O30	O	1.454378	0.531556	0.264183
O31	O	0.723392	-0.219875	-0.191407
O32	O	1.056726	0.113458	0.141927
O33	O	1.390059	0.446791	0.475260
O34	O	0.638650	-0.219853	-0.311433
O35	O	0.971984	0.113480	0.021900
O36	O	1.305317	0.446814	0.355233
O37	O	0.723396	-0.284074	-0.522463
O38	O	1.056729	0.049259	-0.189129
O39	O	1.390062	0.382592	0.144204
O40	O	0.638616	-0.284069	-0.402375
O41	O	0.971950	0.049265	-0.069042
O42	O	1.305283	0.382598	0.264292
O43	O	0.787666	-0.219863	-0.522509
O44	O	1.120999	0.113470	-0.189176
O45	O	1.454333	0.446803	0.144157
O46	O	0.787521	-0.368860	-0.311432
O47	O	1.120854	-0.035527	0.021901
O48	O	1.454188	0.297806	0.355235
O49	O	0.723313	-0.368843	-0.402374
O50	O	1.056647	-0.035510	-0.069041
O51	O	1.389980	0.297823	0.264292
C52	C	0.619662	-0.251958	-0.356898
C53	C	0.952996	0.081375	-0.023565
C54	C	1.286329	0.414709	0.309769
C55	C	0.561548	-0.251961	-0.356895
C56	C	0.894882	0.081372	-0.023561
C57	C	1.228215	0.414705	0.309772
C58	C	0.310364	-0.218487	-0.309675
C59	C	0.643697	0.114846	0.023659
C60	C	0.977031	0.448179	0.356992
C61	C	0.364968	-0.218482	-0.309665
C62	C	0.698302	0.114851	0.023668
C63	C	1.031635	0.448184	0.357001
O64	O	0.393212	-0.189991	-0.269475
O65	O	0.726546	0.143342	0.063858
O66	O	1.059879	0.476676	0.397191
N67	N	0.392275	-0.251968	-0.356932
N68	N	0.725608	0.081366	-0.023599
N69	N	1.058941	0.414699	0.309735
C70	C	0.364974	-0.285456	-0.404217
C71	C	0.698307	0.047877	-0.070883
C72	C	1.031640	0.381210	0.262450
O73	O	0.393214	-0.313937	-0.444421
O74	O	0.726547	0.019396	-0.111087
O75	O	1.059880	0.352729	0.222246
C76	C	0.310370	-0.285458	-0.404229
C77	C	0.643704	0.047875	-0.070896
C78	C	0.977037	0.381209	0.262437
C79	C	0.283067	-0.251974	-0.356954
C80	C	0.616400	0.081359	-0.023621
C81	C	0.949734	0.414692	0.309713
C82	C	0.283060	-0.185006	-0.262404
C83	C	0.616394	0.148327	0.070930
C84	C	0.949727	0.481661	0.404263
C85	C	0.228460	-0.185012	-0.262412
C86	C	0.561793	0.148322	0.070921
C87	C	0.895127	0.481655	0.404254
C88	C	0.201163	-0.218499	-0.309692
C89	C	0.534496	0.114835	0.023641
C90	C	0.867829	0.448168	0.356975
C91	C	0.228466	-0.251980	-0.356963
C92	C	0.561800	0.081353	-0.023629
C93	C	0.895133	0.414687	0.309704
C94	C	0.283071	-0.318944	-0.451517
C95	C	0.616404	0.014390	-0.118184
C96	C	0.949737	0.347723	0.215149
C97	C	0.228463	-0.318942	-0.451526
C98	C	0.561797	0.014391	-0.118193
C99	C	0.895130	0.347724	0.215141
C100	C	0.201160	-0.285459	-0.404251
C101	C	0.534493	0.047875	-0.070918
C102	C	0.867827	0.381208	0.262416
C103	C	0.146569	-0.285473	-0.404251
C104	C	0.479902	0.047861	-0.070917
C105	C	0.813235	0.381194	0.262416
N106	N	0.119262	-0.251987	-0.356984
N107	N	0.452596	0.081346	-0.023651
N108	N	0.785929	0.414679	0.309683
C109	C	0.146560	-0.218500	-0.309704
C110	C	0.479893	0.114833	0.023629
C111	C	0.813226	0.448166	0.356962
C112	C	0.479644	-0.285449	-0.404188
C113	C	0.812978	0.047884	-0.070854
C114	C	1.146311	0.381217	0.262479
C115	C	0.534247	-0.285450	-0.404172
C116	C	0.867580	0.047883	-0.070839
C117	C	1.200913	0.381216	0.262495
C118	C	0.534237	-0.218476	-0.309621
C119	C	0.867571	0.114857	0.023712
C120	C	1.200904	0.448191	0.357046
C121	C	0.479634	-0.218478	-0.309634
C122	C	0.812967	0.114856	0.023700
C123	C	1.146301	0.448189	0.357033
C124	C	0.452338	-0.251964	-0.356921
C125	C	0.785671	0.081369	-0.023587
C126	C	1.119005	0.414703	0.309746
C127	C	0.031894	-0.218515	-0.309726
C128	C	0.365228	0.114818	0.023608
C129	C	0.698561	0.448152	0.356941
C130	C	-0.022711	-0.218525	-0.309736
C131	C	0.310622	0.114808	0.023597
C132	C	0.643956	0.448141	0.356930
C133	C	-0.022697	-0.285498	-0.404290
C134	C	0.310636	0.047836	-0.070956
C135	C	0.643970	0.381169	0.262377
C136	C	0.031904	-0.285490	-0.404276
C137	C	0.365237	0.047844	-0.070943
C138	C	0.698570	0.381177	0.262390
C139	C	0.059198	-0.251994	-0.356992
C140	C	0.392531	0.081339	-0.023659
C141	C	0.725865	0.414672	0.309675
O142	O	0.118290	-0.313948	-0.444422
O143	O	0.451623	0.019385	-0.111089
O144	O	0.784957	0.352718	0.222244
O145	O	0.118313	-0.190019	-0.269514
O146	O	0.451646	0.143314	0.063819
O147	O	0.784979	0.476647	0.397152
C148	C	0.755417	-0.387823	-0.356912
C149	C	1.088750	-0.054489	-0.023579
C150	C	1.422084	0.278844	0.309754
C151	C	0.755427	-0.445937	-0.356922
C152	C	1.088761	-0.112603	-0.023589
C153	C	1.422094	0.220730	0.309744
C154	C	0.789025	-0.806296	-0.309673
C155	C	1.122358	-0.472963	0.023660
C156	C	1.455692	-0.139629	0.356994
C157	C	0.789045	-0.860900	-0.309683
C158	C	1.122379	-0.527567	0.023650
C159	C	1.455712	-0.194234	0.356984
O160	O	0.817520	-0.889134	-0.269473
O161	O	1.150854	-0.555801	0.063861
O162	O	1.484187	-0.222467	0.397194
N163	N	0.755597	-0.888219	-0.356995
N164	N	1.088930	-0.554886	-0.023662
N165	N	1.422264	-0.221553	0.309671
C166	C	0.722130	-0.860931	-0.404306
C167	C	1.055463	-0.527598	-0.070973
C168	C	1.388796	-0.194264	0.262361
O169	O	0.693681	-0.889182	-0.444550
O170	O	1.027015	-0.555848	-0.111217
O171	O	1.360348	-0.222515	0.222117
C172	C	0.722112	-0.806328	-0.404299
C173	C	1.055446	-0.472994	-0.070966
C174	C	1.388779	-0.139661	0.262368
C175	C	0.755559	-0.779012	-0.356979
C176	C	1.088893	-0.445678	-0.023645
C177	C	1.422226	-0.112345	0.309688
C178	C	0.822470	-0.778980	-0.262357
C179	C	1.155803	-0.445647	0.070976
C180	C	1.489136	-0.112313	0.404310
C181	C	0.822449	-0.724379	-0.262346
C182	C	1.155782	-0.391046	0.070987
C183	C	1.489115	-0.057713	0.404320
C184	C	0.788983	-0.697095	-0.309652
C185	C	1.122316	-0.363762	0.023682
C186	C	1.455650	-0.030428	0.357015
C187	C	0.755538	-0.724411	-0.356968
C188	C	1.088872	-0.391078	-0.023635
C189	C	1.422205	-0.057744	0.309699
C190	C	0.688648	-0.779040	-0.451613
C191	C	1.021982	-0.445707	-0.118280
C192	C	1.355315	-0.112374	0.215054
C193	C	0.688634	-0.724433	-0.451603
C194	C	1.021967	-0.391100	-0.118269
C195	C	1.355301	-0.057767	0.215064
C196	C	0.722081	-0.697117	-0.404282
C197	C	1.055414	-0.363784	-0.070949
C198	C	1.388748	-0.030451	0.262385
C199	C	0.722051	-0.642526	-0.404263
C200	C	1.055385	-0.309193	-0.070929
C201	C	1.388718	0.024141	0.262404
N202	N	0.755500	-0.615207	-0.356950
N203	N	1.088833	-0.281874	-0.023617
N204	N	1.422167	0.051459	0.309716
C205	C	0.788966	-0.642492	-0.309645
C206	C	1.122299	-0.309158	0.023688
C207	C	1.455632	0.024175	0.357022
C208	C	0.722169	-0.975602	-0.404317
C209	C	1.055502	-0.642268	-0.070984
C210	C	1.388836	-0.308935	0.262349
C211	C	0.722183	-1.030204	-0.404321
C212	C	1.055517	-0.696871	-0.070988
C213	C	1.388850	-0.363537	0.262346
C214	C	0.789100	-1.030169	-0.309699
C215	C	1.122433	-0.696836	0.023635
C216	C	1.455767	-0.363503	0.356968
C217	C	0.789083	-0.975566	-0.309692
C218	C	1.122416	-0.642233	0.023641
C219	C	1.455749	-0.308900	0.356975
C220	C	0.755618	-0.948283	-0.357005
C221	C	1.088951	-0.614949	-0.023672
C222	C	1.422284	-0.281616	0.309662
C223	C	0.788919	-0.527827	-0.309626
C224	C	1.122252	-0.194493	0.023708
C225	C	1.455585	0.138840	0.357041
C226	C	0.788893	-0.473221	-0.309617
C227	C	1.122226	-0.139888	0.023716
C228	C	1.455560	0.193445	0.357050
C229	C	0.721979	-0.473260	-0.404241
C230	C	1.055312	-0.139927	-0.070908
C231	C	1.388645	0.193406	0.262425
C232	C	0.722002	-0.527861	-0.404248
C233	C	1.055335	-0.194528	-0.070914
C234	C	1.388669	0.138806	0.262419
C235	C	0.755476	-0.555143	-0.356937
C236	C	1.088810	-0.221809	-0.023604
C237	C	1.422143	0.111524	0.309729
O238	O	0.693593	-0.614258	-0.444455
O239	O	1.026926	-0.280925	-0.111121
O240	O	1.360259	0.052409	0.222212
O241	O	0.817414	-0.614234	-0.269415
O242	O	1.150748	-0.280901	0.063919
O243	O	1.484081	0.052432	0.397252
C244	C	0.891878	-0.252003	-0.356995
C245	C	1.225211	0.081331	-0.023662
C246	C	1.558545	0.414664	0.309672
C247	C	0.949992	-0.252012	-0.357016
C248	C	1.283325	0.081321	-0.023682
C249	C	1.616659	0.414654	0.309651
C250	C	0.755535	-0.251967	-0.550108
C251	C	1.088869	0.081366	-0.216775
C252	C	1.422202	0.414700	0.116559
C253	C	0.755548	-0.251961	-0.632422
C254	C	1.088881	0.081372	-0.299089
C255	C	1.422215	0.414705	0.034244
C256	C	0.755608	-0.115607	-0.356996
C257	C	1.088941	0.217726	-0.023663
C258	C	1.422274	0.551060	0.309670
C259	C	0.755651	-0.057493	-0.357018
C260	C	1.088985	0.275840	-0.023684
C261	C	1.422318	0.609174	0.309649
C262	C	0.755579	-0.251863	-0.931513
C263	C	1.088912	0.081470	-0.598180
C264	C	1.422245	0.414803	-0.264847
C265	C	0.715002	-0.292135	-0.900159
C266	C	1.048336	0.041199	-0.566825
C267	C	1.381669	0.374532	-0.233492
C268	C	0.715112	-0.292322	-0.814540
C269	C	1.048445	0.041012	-0.481207
C270	C	1.381779	0.374345	-0.147874
C271	C	0.755563	-0.251912	-0.783131
C272	C	1.088896	0.081421	-0.449797
C273	C	1.422230	0.414755	-0.116464
C274	C	0.810647	-0.266873	-0.814240
C275	C	1.143981	0.066460	-0.480906
C276	C	1.477314	0.399794	-0.147573
C277	C	0.810421	-0.267137	-0.899885
C278	C	1.143754	0.066196	-0.566551
C279	C	1.477088	0.399529	-0.233218
C280	C	0.741550	-0.196541	-0.899939
C281	C	1.074883	0.136792	-0.566606
C282	C	1.408216	0.470125	-0.233273
C283	C	0.740324	-0.196861	-0.814288
C284	C	1.073657	0.136472	-0.480955
C285	C	1.406990	0.469806	-0.147622
C286	C	0.755558	-0.251939	-0.699271
C287	C	1.088891	0.081395	-0.365938
C288	C	1.422224	0.414728	-0.032605
C289	C	0.755588	-0.251838	-1.015373
C290	C	1.088921	0.081495	-0.682040
C291	C	1.422254	0.414829	-0.348706
C292	C	0.755505	-0.251956	-0.164536
C293	C	1.088838	0.081378	0.168798
C294	C	1.422172	0.414711	0.502131
C295	C	0.755593	-0.251814	-0.082222
C296	C	1.088927	0.081519	0.251111
C297	C	1.422260	0.414853	0.584445
H298	H	0.054111	-0.191237	-0.271226
H299	H	0.387444	0.142096	0.062108
H300	H	0.720778	0.475429	0.395441
C301	C	0.685170	-0.443237	-0.456278
C302	C	1.018503	-0.109904	-0.122945
C303	C	1.351837	0.223430	0.210389
N304	N	0.657449	-0.420622	-0.495477
N305	N	0.990782	-0.087289	-0.162143
N306	N	1.324116	0.246045	0.171190
H307	H	0.305292	-0.346210	-0.490014
H308	H	0.638625	-0.012877	-0.156680
H309	H	0.971958	0.320457	0.176653
H310	H	0.556473	-0.191208	-0.271125
H311	H	0.889806	0.142126	0.062208
H312	H	1.223139	0.475459	0.395542
H313	H	0.661383	-0.702222	-0.490133
H314	H	0.994717	-0.368888	-0.156800
H315	H	1.328050	-0.035555	0.176534
H316	H	0.206242	-0.346210	-0.490036
H317	H	0.539575	-0.012876	-0.156703
H318	H	0.872909	0.320457	0.176630
C319	C	0.688225	-0.178131	-0.929090
C320	C	1.021559	0.155202	-0.595757
C321	C	1.354892	0.488535	-0.262423
N322	N	0.648059	-0.164271	-0.951045
N323	N	0.981392	0.169062	-0.617712
N324	N	1.314726	0.502396	-0.284379
H325	H	0.699787	-0.185579	-0.793954
H326	H	1.033120	0.147755	-0.460621
H327	H	1.366453	0.481088	-0.127288
H328	H	0.694942	-1.052440	-0.442847
H329	H	1.028276	-0.719107	-0.109514
H330	H	1.361609	-0.385773	0.223820
C331	C	0.852655	-0.229241	-0.927911
C332	C	1.185988	0.104092	-0.594577
C333	C	1.519321	0.437426	-0.261244
N334	N	0.884468	-0.200702	-0.949017
N335	N	1.217801	0.132632	-0.615684
N336	N	1.551135	0.465965	-0.282350
C337	C	0.826993	-0.320928	-0.785276
C338	C	1.160326	0.012405	-0.451943
C339	C	1.493660	0.345738	-0.118610
N340	N	0.839301	-0.361645	-0.763463
N341	N	1.172635	-0.028312	-0.430130
N342	N	1.505968	0.305022	-0.096797
C343	C	0.061938	-0.322325	-0.456279
C344	C	0.395272	0.011009	-0.122946
C345	C	0.728605	0.344342	0.210387
N346	N	0.084557	-0.350065	-0.495455
N347	N	0.417890	-0.016732	-0.162122
N348	N	0.751223	0.316601	0.171212
C349	C	-0.052734	-0.322330	-0.456296
C350	C	0.280599	0.011003	-0.122963
C351	C	0.613933	0.344336	0.210370
N352	N	-0.075360	-0.350070	-0.495472
N353	N	0.257974	-0.016737	-0.162139
N354	N	0.591307	0.316597	0.171194
C355	C	-0.052742	-0.181686	-0.257732
C356	C	0.280592	0.151647	0.075602
C357	C	0.613925	0.484980	0.408935
N358	N	-0.075359	-0.153938	-0.218565
N359	N	0.257975	0.179395	0.114769
N360	N	0.591308	0.512728	0.448102
C361	C	0.777330	-0.154170	-0.785391
C362	C	1.110663	0.179163	-0.452058
C363	C	1.443996	0.512496	-0.118724
N364	N	0.805204	-0.122016	-0.763620
N365	N	1.138537	0.211317	-0.430287
N366	N	1.471871	0.544650	-0.096954
C367	C	0.852588	-0.228495	-0.786755
C368	C	1.185922	0.104838	-0.453421
C369	C	1.519255	0.438171	-0.120088
N370	N	0.884178	-0.199589	-0.766051
N371	N	1.217511	0.133744	-0.432717
N372	N	1.550845	0.467078	-0.099384
H373	H	0.457423	-0.312722	-0.442693
H374	H	0.790757	0.020611	-0.109360
H375	H	1.124090	0.353944	0.223974
H376	H	0.822315	-0.307578	-0.919867
H377	H	1.155648	0.025755	-0.586533
H378	H	1.488982	0.359088	-0.253200
H379	H	0.661410	-0.801272	-0.490143
H380	H	0.994743	-0.467938	-0.156810
H381	H	1.328076	-0.134605	0.176524
H382	H	0.771104	-0.166537	-0.920219
H383	H	1.104437	0.166796	-0.586886
H384	H	1.437770	0.500130	-0.253552
H385	H	0.816178	-0.550033	-0.271103
H386	H	1.149511	-0.216700	0.062231
H387	H	1.482844	0.116634	0.395564
C388	C	0.825686	-0.443177	-0.257555
C389	C	1.159020	-0.109843	0.075778
C390	C	1.492353	0.223490	0.409112
N391	N	0.853398	-0.420549	-0.218342
N392	N	1.186731	-0.087216	0.114991
N393	N	1.520065	0.246117	0.448324
C394	C	0.727615	-0.347722	-0.786865
C395	C	1.060948	-0.014389	-0.453531
C396	C	1.394281	0.318945	-0.120198
N397	N	0.737022	-0.389454	-0.766020
N398	N	1.070355	-0.056121	-0.432686
N399	N	1.403688	0.277213	-0.099353
H400	H	0.206234	-0.157746	-0.223916
H401	H	0.539568	0.175588	0.109417
H402	H	0.872901	0.508921	0.442751
H403	H	0.305280	-0.157734	-0.223903
H404	H	0.638613	0.175600	0.109430
H405	H	0.971947	0.508933	0.442764
H406	H	0.694913	-0.953390	-0.442843
H407	H	1.028247	-0.620057	-0.109510
H408	H	1.361580	-0.286723	0.223824
H409	H	0.457407	-0.191210	-0.271141
H410	H	0.790741	0.142123	0.062193
H411	H	1.124074	0.475456	0.395526
C412	C	0.859285	-0.808984	-0.210309
C413	C	1.192619	-0.475651	0.123025
C414	C	1.525952	-0.142318	0.456358
N415	N	0.887014	-0.831580	-0.171097
N416	N	1.220347	-0.498246	0.162236
N417	N	1.553680	-0.164913	0.495570
C418	C	0.659929	-0.279671	-0.786121
C419	C	0.993262	0.053662	-0.452788
C420	C	1.326596	0.386995	-0.119455
N421	N	0.618362	-0.270145	-0.764720
N422	N	0.951696	0.063188	-0.431386
N423	N	1.285029	0.396521	-0.098053
C424	C	0.859239	-0.694339	-0.210283
C425	C	1.192573	-0.361006	0.123050
C426	C	1.525906	-0.027672	0.456383
N427	N	0.886950	-0.671716	-0.171065
N428	N	1.220284	-0.338382	0.162268
N429	N	1.553617	-0.005049	0.495602
C430	C	0.564274	-0.322291	-0.456170
C431	C	0.897608	0.011043	-0.122837
C432	C	1.230941	0.344376	0.210496
N433	N	0.586889	-0.350038	-0.495341
N434	N	0.920223	-0.016705	-0.162007
N435	N	1.253556	0.316629	0.171326
H436	H	0.816318	-0.953329	-0.271160
H437	H	1.149652	-0.619995	0.062173
H438	H	1.482985	-0.286662	0.395507
C439	C	0.685207	-0.557909	-0.456300
C440	C	1.018540	-0.224576	-0.122966
C441	C	1.351874	0.108757	0.210367
N442	N	0.657496	-0.580538	-0.495512
N443	N	0.990830	-0.247205	-0.162179
N444	N	1.324163	0.086128	0.171154
C445	C	0.825917	-1.060193	-0.257667
C446	C	1.159251	-0.726859	0.075666
C447	C	1.492584	-0.393526	0.408999
N448	N	0.853647	-1.082808	-0.218481
N449	N	1.186980	-0.749475	0.114853
N450	N	1.520314	-0.416141	0.448186
H451	H	0.674032	-0.282868	-0.920742
H452	H	1.007365	0.050465	-0.587409
H453	H	1.340699	0.383799	-0.254076
H454	H	0.724172	-0.332891	-0.921683
H455	H	1.057505	0.000443	-0.588350
H456	H	1.390838	0.333776	-0.255016
