data_functionalizedCrystal
_audit_creation_method	'MofGen! by Chris Wilmer'
_symmetry_space_group_name_H-M	'P1'
_symmetry_Int_Tables_number	1
_symmetry_cell_setting	triclinic
loop_
_symmetry_equiv_pos_as_xyz
  x,y,z
_cell_length_a	13.635800
_cell_length_b	23.752959
_cell_length_c	11.102315
_cell_angle_alpha	84.892683
_cell_angle_beta	108.606275
_cell_angle_gamma	79.933576
loop_
_atom_site_label
_atom_site_type_symbol
_atom_site_fract_x
_atom_site_fract_y
_atom_site_fract_z
V1	V	2.034379	-0.079163	0.396976
O2	O	2.036313	0.003801	0.388680
O3	O	2.001746	-0.156964	0.394971
O4	O	2.023101	-0.077947	0.569787
O5	O	2.014810	-0.075763	0.212655
V6	V	2.275612	-0.069240	0.374843
O7	O	2.166169	-0.100932	0.445525
O8	O	2.368921	-0.047471	0.326294
O9	O	2.196642	0.008562	0.376848
O10	O	2.332377	-0.152204	0.383139
O11	O	2.353880	-0.072639	0.559164
O12	O	2.175287	-0.070456	0.202033
V13	V	2.534379	-0.079163	0.396976
O14	O	2.536313	0.003801	0.388680
O15	O	2.501746	-0.156964	0.394971
O16	O	2.523101	-0.077947	0.569787
O17	O	2.514810	-0.075763	0.212655
V18	V	2.775612	-0.069240	0.374843
O19	O	2.666169	-0.100932	0.445525
O20	O	2.868921	-0.047471	0.326294
O21	O	2.696642	0.008562	0.376848
O22	O	2.832377	-0.152204	0.383139
O23	O	2.853880	-0.072639	0.559164
O24	O	2.675287	-0.070456	0.202033
C25	C	1.921776	-0.175931	0.388892
C26	C	1.935824	-0.239534	0.388405
C27	C	1.905402	-0.511543	0.380010
C28	C	1.892186	-0.451779	0.380458
O29	O	1.807786	-0.418395	0.375317
N30	N	1.976795	-0.424803	0.387043
C31	C	2.074630	-0.457593	0.393193
O32	O	2.145383	-0.429160	0.398836
C33	C	2.087846	-0.517356	0.392755
C34	C	2.003227	-0.544329	0.386157
C35	C	1.820791	-0.538516	0.373414
C36	C	1.834005	-0.598275	0.372964
C37	C	1.931831	-0.631061	0.379111
C38	C	2.016442	-0.604088	0.385707
C39	C	2.185682	-0.550146	0.398915
C40	C	2.198892	-0.609913	0.398477
C41	C	2.114273	-0.636886	0.391878
C42	C	2.127482	-0.696633	0.391403
N43	N	2.042873	-0.723610	0.384819
C44	C	1.945048	-0.690824	0.378672
C45	C	2.046867	-0.332087	0.394116
C46	C	2.033650	-0.272325	0.394545
C47	C	1.851207	-0.266515	0.381812
C48	C	1.864424	-0.326278	0.381373
C49	C	1.962258	-0.359064	0.387531
C50	C	1.972806	-0.816322	0.377727
C51	C	1.986029	-0.876086	0.377272
C52	C	2.168471	-0.881891	0.390012
C53	C	2.155249	-0.822132	0.390460
C54	C	2.057409	-0.789349	0.384321
O55	O	2.211852	-0.730054	0.396546
O56	O	1.874313	-0.719266	0.373047
C57	C	1.949016	-0.075135	0.611885
C58	C	1.980380	-0.074655	0.753163
C59	C	2.108282	0.027525	0.382923
C60	C	2.083854	0.091128	0.383419
C61	C	2.081042	-0.073269	0.159928
C62	C	2.039298	-0.073746	0.018648
C63	C	2.421776	-0.175931	0.388892
C64	C	2.435824	-0.239534	0.388405
C65	C	2.449016	-0.075135	0.611885
C66	C	2.480380	-0.074655	0.753163
C67	C	2.162863	-0.080373	0.766185
C68	C	2.268835	-0.083008	0.839067
C69	C	2.298298	-0.082557	0.971810
C70	C	2.221779	-0.079468	1.031671
C71	C	2.115807	-0.076833	0.958788
C72	C	2.086353	-0.077287	0.826044
C73	C	1.933325	-0.071111	0.945766
C74	C	1.903861	-0.071567	0.813025
C75	C	1.856807	-0.068022	1.005627
C76	C	1.750833	-0.065391	0.932746
C77	C	1.721373	-0.065844	0.799996
C78	C	1.797889	-0.068931	0.740142
C79	C	2.608282	0.027525	0.382923
C80	C	2.583854	0.091128	0.383419
C81	C	2.581042	-0.073269	0.159928
C82	C	2.539298	-0.073746	0.018648
C83	C	2.533650	-0.272320	0.394553
C84	C	2.546868	-0.332084	0.394115
C85	C	2.462256	-0.359060	0.387520
C86	C	2.364423	-0.326270	0.381376
C87	C	2.351209	-0.266508	0.381823
C88	C	2.658522	0.123914	0.377274
C89	C	2.635577	0.183677	0.377719
C90	C	2.537965	0.210653	0.384317
C91	C	2.463291	0.177863	0.390457
C92	C	2.486234	0.118101	0.390004
C93	C	2.512230	-0.179449	0.790441
C94	C	2.542886	-0.231618	0.875450
C95	C	2.572356	-0.231164	1.008192
C96	C	2.571172	-0.178535	1.055926
C97	C	2.540516	-0.126366	0.970916
C98	C	2.511044	-0.126826	0.838173
C99	C	2.508674	-0.021574	0.933640
C100	C	2.479196	-0.022027	0.800897
C101	C	2.507489	0.031054	0.981374
C102	C	2.476826	0.083224	0.896364
C103	C	2.447353	0.082768	0.763614
C104	C	2.448540	0.030142	0.715888
H105	H	1.917117	-0.898044	0.371900
Br106	Br	1.749579	-0.362877	0.372421
Br107	Br	2.480208	-0.440168	0.386914
Br108	Br	2.547494	0.031671	1.161525
H109	H	2.519297	0.259315	0.384684
Br110	Br	2.611191	-0.177921	1.236079
H111	H	2.475872	0.126070	0.935241
Br112	Br	2.261763	-0.078846	1.211819
Br113	Br	2.384884	0.073613	0.398344
H114	H	2.383815	0.199836	0.395828
Br115	Br	2.372676	-0.087203	0.757824
H116	H	2.384588	-0.084702	1.031151
Br117	Br	2.679646	-0.376573	0.402450
H118	H	1.741128	-0.511827	0.368414
H119	H	2.602555	-0.250364	0.399915
Br120	Br	2.218431	-0.222018	0.373470
H121	H	1.880802	-0.067651	1.113712
Br122	Br	2.472210	-0.180068	0.610289
Br123	Br	2.405769	0.153573	0.648256
Br124	Br	2.613974	-0.301965	1.123568
H125	H	1.688540	-0.062873	0.981494
Br126	Br	2.249601	-0.362889	0.372421
Br127	Br	2.544503	-0.303039	0.810664
H128	H	2.424538	0.029766	0.607804
Br129	Br	2.301227	-0.926397	0.398337
Br130	Br	1.719154	-0.634870	0.364000
Br131	Br	1.840025	-0.771840	0.369397
Br132	Br	2.300526	-0.513554	0.407839
Br133	Br	2.791004	0.087317	0.368322
H134	H	1.635076	-0.063684	0.740657
H135	H	1.773912	-0.069303	0.632058
H136	H	2.696393	0.210367	0.372720
H137	H	1.771551	-0.239810	0.376812
H138	H	2.102552	-0.250368	0.399896
H139	H	2.126536	-0.358778	0.399120
Br140	Br	2.270090	-0.785525	0.399421
Br141	Br	2.331676	-0.654406	0.406842
H142	H	2.138884	-0.080749	0.658102
