data_functionalizedCrystal
_audit_creation_method	'MofGen! by Chris Wilmer'
_symmetry_space_group_name_H-M	'P1'
_symmetry_Int_Tables_number	1
_symmetry_cell_setting	triclinic
loop_
_symmetry_equiv_pos_as_xyz
  x,y,z
_cell_length_a	10.654562
_cell_length_b	16.974813
_cell_length_c	9.130313
_cell_angle_alpha	86.342619
_cell_angle_beta	89.992431
_cell_angle_gamma	83.941369
loop_
_atom_site_label
_atom_site_type_symbol
_atom_site_fract_x
_atom_site_fract_y
_atom_site_fract_z
O1	O	1.666104	0.111101	-0.135062
O2	O	1.300463	0.121671	-0.136296
O3	O	1.493477	0.001339	-0.122036
O4	O	1.473091	0.231433	-0.149322
O5	O	1.493458	0.001340	0.121563
O6	O	1.300445	0.121672	0.107303
O7	O	1.666086	0.111102	0.108537
Cu8	Cu	1.483264	0.116387	0.130162
Cu9	Cu	1.483285	0.116386	-0.157921
O10	O	1.473073	0.231434	0.094277
C11	C	1.253669	0.120893	-0.014402
C12	C	1.114262	0.118565	-0.014119
C13	C	1.048739	0.117479	0.118784
C14	C	0.917750	0.115298	0.119018
C15	C	0.917820	0.115291	-0.146566
C16	C	1.048808	0.117467	-0.146798
C17	C	1.048696	0.117487	0.272117
C18	C	0.917708	0.115305	0.272351
C19	C	1.492692	-0.028123	0.003254
C20	C	1.490366	-0.115913	0.013656
C21	C	1.489286	-0.157152	-0.114242
C22	C	1.487092	-0.239639	-0.104464
C23	C	1.485988	-0.280886	0.033213
C24	C	1.487064	-0.239640	0.161121
C25	C	1.489248	-0.157154	0.151341
C26	C	1.479444	-0.527583	0.076700
C27	C	1.477263	-0.610075	0.086470
C28	C	1.477290	-0.610068	-0.179116
C29	C	1.479482	-0.527581	-0.188883
C30	C	1.480551	-0.486342	-0.060976
N31	N	1.483749	-0.365201	0.043211
N32	N	1.482780	-0.402027	-0.070975
C33	C	1.712881	0.111880	-0.013360
C34	C	1.852287	0.114208	-0.013653
C35	C	1.473857	0.260896	-0.031016
C36	C	1.476183	0.348686	-0.041428
N37	N	1.483258	0.116387	0.332785
N38	N	1.483302	0.116380	-0.360543
C39	C	1.397780	0.169646	0.403163
C40	C	1.397805	0.169645	0.556500
C41	C	1.568788	0.063118	0.569068
C42	C	1.568769	0.063124	0.415733
C43	C	1.299061	0.231147	0.395908
C44	C	1.299085	0.231145	0.549245
H45	H	1.077370	0.175153	0.312855
O46	O	1.661008	0.005673	0.658547
H47	H	1.758874	0.016335	0.627827
H48	H	1.319549	0.291925	0.347089
O49	O	1.338336	0.307211	0.603221
H50	H	1.260660	0.336306	0.668217
O51	O	0.855245	0.187690	0.341714
H52	H	0.928545	0.224862	0.375473
H53	H	1.202789	0.217596	0.592498
O54	O	1.490467	-0.112665	-0.262738
H55	H	1.489332	-0.155201	-0.350029
H56	H	1.490110	-0.123576	0.255490
O57	O	0.847206	0.114104	-0.289653
H58	H	0.883635	0.060717	-0.346973
O59	O	1.485865	-0.284117	-0.242410
H60	H	1.486992	-0.241578	-0.339788
O61	O	0.879688	0.038929	0.344451
H62	H	0.922606	-0.011950	0.284458
H63	H	1.095802	0.062844	0.337479
H64	H	1.476357	-0.643655	0.198589
H65	H	1.480383	-0.494004	-0.300995
O66	O	1.476115	-0.654543	-0.317070
H67	H	1.474397	-0.718829	-0.287147
H68	H	1.480340	-0.494018	0.180852
H69	H	1.486157	-0.273229	0.273221
H70	H	1.102155	0.118339	-0.255019
H71	H	1.638382	0.019763	0.358433
H72	H	1.208172	0.211888	0.350660
