data_functionalizedCrystal
_audit_creation_method	'MofGen! by Chris Wilmer'
_symmetry_space_group_name_H-M	'P1'
_symmetry_Int_Tables_number	1
_symmetry_cell_setting	triclinic
loop_
_symmetry_equiv_pos_as_xyz
  x,y,z
_cell_length_a	18.101398
_cell_length_b	25.639240
_cell_length_c	18.101389
_cell_angle_alpha	89.972369
_cell_angle_beta	89.990255
_cell_angle_gamma	90.028316
loop_
_atom_site_label
_atom_site_type_symbol
_atom_site_fract_x
_atom_site_fract_y
_atom_site_fract_z
Zn1	Zn	1.132112	-0.208268	-0.418503
Zn2	Zn	1.632112	0.291732	0.081497
Zn3	Zn	1.132005	-0.295689	-0.294642
Zn4	Zn	1.632005	0.204311	0.205358
Zn5	Zn	1.008271	-0.208263	-0.294696
Zn6	Zn	1.508271	0.291737	0.205304
Zn7	Zn	1.008218	-0.295667	-0.418462
Zn8	Zn	1.508218	0.204333	0.081538
O9	O	1.070152	-0.251972	-0.356576
O10	O	1.570152	0.248028	0.143424
O11	O	1.235731	-0.219876	-0.402067
O12	O	1.735731	0.280124	0.097933
O13	O	1.115568	-0.284099	-0.191016
O14	O	1.615568	0.215901	0.308984
O15	O	1.024766	-0.135098	-0.311159
O16	O	1.524766	0.364902	0.188841
O17	O	1.235652	-0.284104	-0.311067
O18	O	1.735652	0.215896	0.188933
O19	O	1.115752	-0.135102	-0.402120
O20	O	1.615752	0.364898	0.097880
O21	O	1.024662	-0.219867	-0.191056
O22	O	1.524662	0.280133	0.308944
O23	O	0.904631	-0.219846	-0.311119
O24	O	1.404631	0.280154	0.188881
O25	O	1.024676	-0.284066	-0.522100
O26	O	1.524676	0.215934	-0.022100
O27	O	0.904593	-0.284061	-0.402049
O28	O	1.404593	0.215939	0.097951
O29	O	1.115701	-0.219854	-0.522131
O30	O	1.615701	0.280146	-0.022131
O31	O	1.115517	-0.368851	-0.311027
O32	O	1.615517	0.131149	0.188973
O33	O	1.024572	-0.368835	-0.401997
O34	O	1.524572	0.131165	0.098003
C35	C	0.877741	-0.251951	-0.356586
C36	C	1.377741	0.248049	0.143414
C37	C	0.795427	-0.251955	-0.356608
C38	C	1.295427	0.248045	0.143392
C39	C	0.496336	-0.251986	-0.356577
C40	C	0.996336	0.248014	0.143423
C41	C	0.527662	-0.292584	-0.413505
C42	C	1.027662	0.207416	0.086495
C43	C	0.613280	-0.292457	-0.413739
C44	C	1.113280	0.207543	0.086261
C45	C	0.644719	-0.251971	-0.356592
C46	C	1.144719	0.248029	0.143408
C47	C	0.613666	-0.196903	-0.377933
C48	C	1.113666	0.303097	0.122067
C49	C	0.528021	-0.197147	-0.378337
C50	C	1.028021	0.302853	0.121663
C51	C	0.527883	-0.265969	-0.278171
C52	C	1.027883	0.234031	0.221829
C53	C	0.613533	-0.267178	-0.278590
C54	C	1.113533	0.232822	0.221410
C55	C	0.728578	-0.251959	-0.356600
C56	C	1.228578	0.248041	0.143400
C57	C	0.412477	-0.251994	-0.356571
C58	C	0.912477	0.248006	0.143429
C59	C	1.070047	-0.387814	-0.356518
C60	C	1.570047	0.112186	0.143482
C61	C	1.070070	-0.445928	-0.356518
C62	C	1.570070	0.054072	0.143482
C63	C	1.117551	-0.806255	-0.404024
C64	C	1.617551	-0.306255	0.095976
C65	C	1.117573	-0.860859	-0.404039
C66	C	1.617573	-0.360859	0.095961
O67	O	1.157819	-0.889065	-0.444372
O68	O	1.657819	-0.389065	0.055628
N69	N	1.070254	-0.888211	-0.356647
N70	N	1.570254	-0.388211	0.143353
C71	C	1.022905	-0.860955	-0.309242
C72	C	1.522905	-0.360955	0.190758
O73	O	0.982659	-0.889234	-0.268933
O74	O	1.482659	-0.389234	0.231067
C75	C	1.022880	-0.806352	-0.309231
C76	C	1.522880	-0.306352	0.190769
C77	C	1.070208	-0.779003	-0.356621
C78	C	1.570208	-0.279003	0.143379
C79	C	1.164874	-0.778906	-0.451411
C80	C	1.664874	-0.278906	0.048589
C81	C	1.164853	-0.724305	-0.451395
C82	C	1.664853	-0.224305	0.048605
C83	C	1.117509	-0.697054	-0.403992
C84	C	1.617509	-0.197054	0.096008
C85	C	1.070187	-0.724402	-0.356605
C86	C	1.570187	-0.224402	0.143395
C87	C	0.975528	-0.779097	-0.261831
C88	C	1.475528	-0.279097	0.238169
C89	C	0.975507	-0.724490	-0.261824
C90	C	1.475507	-0.224490	0.238176
C91	C	1.022834	-0.697142	-0.309214
C92	C	1.522834	-0.197142	0.190786
C93	C	1.022822	-0.642550	-0.309186
C94	C	1.522822	-0.142550	0.190814
N95	N	1.070140	-0.615199	-0.356578
N96	N	1.570140	-0.115199	0.143422
C97	C	1.117484	-0.642450	-0.403981
C98	C	1.617484	-0.142450	0.096019
C99	C	1.022961	-0.975626	-0.309269
C100	C	1.522961	-0.475626	0.190731
C101	C	1.022989	-1.030228	-0.309276
C102	C	1.522989	-0.530228	0.190724
C103	C	1.117656	-1.030128	-0.404074
C104	C	1.617656	-0.530128	0.095926
C105	C	1.117631	-0.975525	-0.404063
C106	C	1.617631	-0.475525	0.095937
C107	C	1.070279	-0.948274	-0.356661
C108	C	1.570279	-0.448274	0.143339
C109	C	1.117437	-0.527785	-0.403943
C110	C	1.617437	-0.027785	0.096057
C111	C	1.117414	-0.473180	-0.403920
C112	C	1.617414	0.026820	0.096080
C113	C	1.022744	-0.473285	-0.309125
C114	C	1.522744	0.026715	0.190875
C115	C	1.022770	-0.527885	-0.309145
C116	C	1.522770	-0.027885	0.190855
C117	C	1.070119	-0.555134	-0.356560
C118	C	1.570119	-0.055134	0.143440
O119	O	0.982594	-0.614310	-0.268876
O120	O	1.482594	-0.114310	0.231124
O121	O	1.157717	-0.614165	-0.444290
O122	O	1.657717	-0.114165	0.055710
C123	C	1.263314	-0.251993	-0.356566
C124	C	1.763314	0.248007	0.143434
C125	C	1.345628	-0.252002	-0.356561
C126	C	1.845628	0.247998	0.143439
C127	C	1.070194	-0.251958	-0.549738
C128	C	1.570194	0.248042	-0.049738
C129	C	1.070213	-0.251953	-0.632052
C130	C	1.570213	0.248047	-0.132052
C131	C	1.070277	-0.115599	-0.356650
C132	C	1.570277	0.384401	0.143350
C133	C	1.070330	-0.057485	-0.356682
C134	C	1.570330	0.442515	0.143318
C135	C	1.070256	-0.251855	-0.931143
C136	C	1.570256	0.248145	-0.431143
C137	C	1.012789	-0.292127	-0.899799
C138	C	1.512789	0.207873	-0.399799
C139	C	1.012944	-0.292314	-0.814180
C140	C	1.512944	0.207686	-0.314180
C141	C	1.070234	-0.251903	-0.782760
C142	C	1.570234	0.248097	-0.282760
C143	C	1.148259	-0.266864	-0.813843
C144	C	1.648259	0.233136	-0.313843
C145	C	1.147938	-0.267128	-0.899488
C146	C	1.647938	0.232872	-0.399488
C147	C	1.050377	-0.196533	-0.899585
C148	C	1.550377	0.303467	-0.399585
C149	C	1.048641	-0.196852	-0.813934
C150	C	1.548641	0.303148	-0.313934
C151	C	1.070226	-0.251930	-0.698901
C152	C	1.570226	0.248070	-0.198901
C153	C	1.070269	-0.251829	-1.015002
C154	C	1.570269	0.248171	-0.515002
C155	C	1.070152	-0.251947	-0.164165
C156	C	1.570152	0.248053	0.335835
C157	C	1.070277	-0.251805	-0.081851
C158	C	1.570277	0.248195	0.418149
H159	H	0.635132	-0.184827	-0.434628
H160	H	1.135132	0.315173	0.065372
H161	H	0.936945	-0.702305	-0.223225
H162	H	1.436945	-0.202305	0.276775
N163	N	1.213217	-0.696386	-0.499798
N164	N	1.713217	-0.196386	0.000202
N165	N	1.281553	-0.702469	-0.494926
N166	N	1.781553	-0.202469	0.005074
H167	H	1.315718	-0.682759	-0.529113
H168	H	1.815718	-0.182759	-0.029113
N169	N	0.638983	-0.318012	-0.258378
N170	N	1.138983	0.181988	0.241622
N171	N	0.593528	-0.353703	-0.246145
N172	N	1.093528	0.146297	0.253855
H173	H	0.611507	-0.389603	-0.231866
H174	H	1.111507	0.110397	0.268134
H175	H	1.164791	-0.307569	-0.919458
H176	H	1.664791	0.192431	-0.419458
N177	N	0.502962	-0.182281	-0.450242
N178	N	1.002962	0.317719	0.049758
N179	N	0.435298	-0.179778	-0.463544
N180	N	0.935298	0.320222	0.036456
H181	H	0.417601	-0.169281	-0.514329
H182	H	0.917601	0.330719	-0.014329
H183	H	0.984200	-0.451088	-0.270528
H184	H	1.484200	0.048912	0.229472
H185	H	0.634273	-0.333292	-0.400363
H186	H	1.134273	0.166708	0.099637
N187	N	1.203483	-0.231945	-0.925519
N188	N	1.703483	0.268055	-0.425519
N189	N	1.213146	-0.225876	-0.993358
N190	N	1.713146	0.274124	-0.493358
H191	H	1.252378	-0.201031	-1.011741
H192	H	1.752378	0.298969	-0.511741
N193	N	0.974605	-0.947790	-0.260832
N194	N	1.474605	-0.447790	0.239168
N195	N	1.000672	-0.917329	-0.213651
N196	N	1.500672	-0.417329	0.286349
H197	H	0.966520	-0.897671	-0.179443
H198	H	1.466520	-0.397671	0.320557
N199	N	0.974455	-0.555816	-0.260702
N200	N	1.474455	-0.055816	0.239298
N201	N	0.932206	-0.531475	-0.218363
N202	N	1.432206	-0.031475	0.281637
H203	H	0.898087	-0.551198	-0.184144
H204	H	1.398087	-0.051198	0.315856
N205	N	0.501783	-0.343976	-0.396916
N206	N	1.001783	0.156024	0.103084
N207	N	0.459947	-0.351284	-0.342945
N208	N	0.959947	0.148716	0.157055
H209	H	0.441661	-0.387581	-0.331231
H210	H	0.941661	0.112419	0.168769
H211	H	1.087443	-0.165254	-0.792547
H212	H	1.587443	0.334746	-0.292547
H213	H	0.506268	-0.305437	-0.258780
H214	H	1.006268	0.194563	0.241220
N215	N	1.213254	-0.806736	-0.499822
N216	N	1.713254	-0.306736	0.000178
N217	N	1.260482	-0.837182	-0.473805
N218	N	1.760482	-0.337182	0.026195
H219	H	1.294660	-0.856834	-0.507994
H220	H	1.794660	-0.356834	-0.007994
H221	H	1.192226	-0.238453	-0.793492
H222	H	1.692226	0.261547	-0.293492
N223	N	1.165772	-0.445242	-0.452315
N224	N	1.665772	0.054758	0.047685
N225	N	1.212971	-0.414767	-0.426275
N226	N	1.712971	0.085233	0.073725
H227	H	1.247128	-0.395038	-0.460449
H228	H	1.747128	0.104962	0.039551
H229	H	0.507301	-0.165815	-0.338775
H230	H	1.007301	0.334185	0.161225
N231	N	0.638995	-0.280851	-0.486620
N232	N	1.138995	0.219149	0.013380
N233	N	0.593689	-0.272816	-0.537468
N234	N	1.093689	0.227184	-0.037468
H235	H	0.611849	-0.264619	-0.588943
H236	H	1.111849	0.235381	-0.088943
N237	N	1.165980	-0.947599	-0.452474
N238	N	1.665980	-0.447599	0.047526
N239	N	1.208249	-0.971944	-0.494788
N240	N	1.708249	-0.471944	0.005212
H241	H	1.242398	-0.952225	-0.528981
H242	H	1.742398	-0.452225	-0.028981
H243	H	0.634032	-0.165835	-0.337763
H244	H	1.134032	0.334165	0.162237
N245	N	0.927178	-0.807032	-0.213437
N246	N	1.427178	-0.307032	0.286563
N247	N	0.927190	-0.855785	-0.213448
N248	N	1.427190	-0.355785	0.286552
H249	H	0.893038	-0.875514	-0.179269
H250	H	1.393038	-0.375514	0.320731
N251	N	0.940359	-0.280566	-0.787822
N252	N	1.440359	0.219434	-0.287822
N253	N	0.889232	-0.272173	-0.832681
N254	N	1.389232	0.227827	-0.332681
H255	H	0.837965	-0.263879	-0.814070
H256	H	1.337965	0.236121	-0.314070
N257	N	1.169777	-0.317053	-0.786922
N258	N	1.669777	0.182947	-0.286922
N259	N	1.175888	-0.324697	-0.718993
N260	N	1.675888	0.175303	-0.218993
H261	H	1.191084	-0.360144	-0.699980
H262	H	1.691084	0.139856	-0.199980
H263	H	0.994470	-0.182904	-0.921188
H264	H	1.494470	0.317096	-0.421188
N265	N	0.939988	-0.280496	-0.925642
N266	N	1.439988	0.219504	-0.425642
N267	N	0.929604	-0.242392	-0.967466
N268	N	1.429604	0.257608	-0.467466
H269	H	0.878187	-0.234177	-0.985724
H270	H	1.378187	0.265823	-0.485724
H271	H	1.155988	-0.549965	-0.442558
H272	H	1.655988	-0.049965	0.057442
N273	N	1.166016	-1.057979	-0.452489
N274	N	1.666016	-0.557979	0.047511
N275	N	1.166026	-1.106731	-0.452487
N276	N	1.666026	-0.606731	0.047513
H277	H	1.200179	-1.126403	-0.486676
H278	H	1.700179	-0.626403	0.013324
N279	N	0.976618	-0.182675	-0.788451
N280	N	1.476618	0.317325	-0.288451
N281	N	0.926066	-0.174085	-0.833883
N282	N	1.426066	0.325915	-0.333883
H283	H	0.875202	-0.164067	-0.815879
H284	H	1.375202	0.335933	-0.315879
N285	N	0.500677	-0.281121	-0.485960
N286	N	1.000677	0.218879	0.014040
N287	N	0.458475	-0.243182	-0.495852
N288	N	0.958475	0.256818	0.004148
H289	H	0.439416	-0.235084	-0.547022
H290	H	0.939416	0.264916	-0.047022
H291	H	1.092233	-0.166528	-0.919857
H292	H	1.592233	0.333472	-0.419857
N293	N	0.502468	-0.228885	-0.224944
N294	N	1.002468	0.271115	0.275056
N295	N	0.521420	-0.233066	-0.158807
N296	N	1.021420	0.266934	0.341193
H297	H	0.503467	-0.206875	-0.121218
H298	H	1.003467	0.293125	0.378782
N299	N	0.974654	-1.058153	-0.260850
N300	N	1.474654	-0.558153	0.239150
N301	N	0.932392	-1.033808	-0.218528
N302	N	1.432392	-0.533808	0.281472
H303	H	0.898252	-1.053527	-0.184327
H304	H	1.398252	-0.553527	0.315673
N305	N	1.029089	-0.343252	-0.926796
N306	N	1.529089	0.156748	-0.426796
N307	N	1.082846	-0.350157	-0.969020
N308	N	1.582846	0.149843	-0.469020
H309	H	1.094360	-0.386264	-0.988089
H310	H	1.594360	0.113736	-0.488089
H311	H	0.634934	-0.239754	-0.233895
H312	H	1.134934	0.260246	0.266105
H313	H	1.026068	-0.333320	-0.793685
H314	H	1.526068	0.166680	-0.293685
