data_functionalizedCrystal
_audit_creation_method	'MofGen! by Chris Wilmer'
_symmetry_space_group_name_H-M	'P1'
_symmetry_Int_Tables_number	1
_symmetry_cell_setting	triclinic
loop_
_symmetry_equiv_pos_as_xyz
  x,y,z
_cell_length_a	15.538191
_cell_length_b	10.723024
_cell_length_c	9.198806
_cell_angle_alpha	90.002012
_cell_angle_beta	90.005031
_cell_angle_gamma	65.869982
loop_
_atom_site_label
_atom_site_type_symbol
_atom_site_fract_x
_atom_site_fract_y
_atom_site_fract_z
O1	O	-1.247300	0.404097	-0.120917
O2	O	-0.973970	0.260436	-0.120914
O3	O	-1.116940	0.516770	-0.120910
O4	O	-1.104330	0.147763	-0.120921
O5	O	-1.116928	0.516765	0.120875
O6	O	-0.973958	0.260431	0.120872
O7	O	-1.247289	0.404092	0.120868
Cu8	Cu	-1.110622	0.332261	0.142947
Cu9	Cu	-1.110636	0.332267	-0.142992
O10	O	-1.104319	0.147758	0.120864
C11	C	-1.116016	0.562841	-0.000019
C12	C	-1.113271	0.700121	-0.000024
C13	C	-0.938965	0.245403	-0.000021
C14	C	-0.834681	0.200632	-0.000019
C15	C	-1.282293	0.419125	-0.000028
C16	C	-1.386577	0.463896	-0.000039
C17	C	-0.544016	0.645424	-0.000029
C18	C	-0.446022	0.603323	-0.000031
C19	C	-0.425110	0.366515	-0.000038
C20	C	-0.523104	0.408596	-0.000028
C21	C	-0.582550	0.548052	-0.000026
C22	C	-0.561637	0.311224	-0.000025
C23	C	-0.659623	0.353303	-0.000023
C24	C	-0.719075	0.492753	-0.000025
C25	C	-0.680535	0.590131	-0.000024
C26	C	-0.502190	0.171769	-0.000038
C27	C	-0.540723	0.074397	-0.000035
C28	C	-0.638710	0.116475	-0.000023
C29	C	-0.698162	0.255925	-0.000024
C30	C	-0.677250	0.019097	-0.000023
C31	C	-0.775235	0.061175	-0.000022
C32	C	-0.796148	0.298003	-0.000022
C33	C	-1.105242	0.101687	-0.000030
C34	C	-1.107987	-0.035593	-0.000034
N35	N	-1.110620	0.332261	0.344060
C36	C	-1.193269	0.812246	-0.000028
C37	C	-1.190434	0.954133	-0.000033
N38	N	-1.110646	0.332280	-0.344106
C39	C	-1.170649	0.440240	0.416259
C40	C	-1.170663	0.440251	0.583671
H41	H	-0.798860	0.527010	-0.000043
H42	H	-0.414654	0.682626	-0.000036
O43	O	-1.029111	0.711073	-0.000221
C44	C	-1.022575	0.782496	-0.125467
H45	H	-1.096420	0.848228	-0.167217
H46	H	-0.984675	0.850640	-0.097310
H47	H	-0.981344	0.706378	-0.213149
H48	H	-0.728940	0.703690	-0.000013
H49	H	-1.222060	0.532693	0.645759
O50	O	-0.367264	0.231093	-0.000230
C51	C	-0.309984	0.199654	-0.125473
H52	H	-0.304388	0.296158	-0.167230
H53	H	-0.236653	0.119952	-0.097309
H54	H	-0.342592	0.157430	-0.213152
H55	H	-1.059253	0.239827	0.593816
O56	O	-0.482877	-0.061025	-0.000227
C57	C	-0.425598	-0.092464	-0.125470
H58	H	-0.420001	0.004040	-0.167227
H59	H	-0.352266	-0.172166	-0.097306
H60	H	-0.458205	-0.134688	-0.213149
O61	O	-0.601635	0.780948	-0.000090
C62	C	-0.546617	0.857878	-0.000048
H63	H	-0.473704	0.793177	-0.045819
H64	H	-0.582248	0.952851	-0.070246
H65	H	-0.539411	0.889815	0.115949
O66	O	-0.619537	-0.116379	-0.000294
C67	C	-0.637150	-0.178133	-0.125497
H68	H	-0.670218	-0.097276	-0.213012
H69	H	-0.567972	-0.259510	-0.167545
H70	H	-0.687500	-0.227549	-0.097180
H71	H	-0.844552	0.411562	-0.000012
O72	O	-1.277405	0.801224	0.000038
C73	C	-1.261506	0.662011	0.000003
H74	H	-1.188382	0.598456	0.045778
H75	H	-1.317021	0.647088	0.070201
H76	H	-1.266259	0.627916	-0.115993
H77	H	-1.258919	1.050363	-0.000029
O78	O	-0.406991	0.130727	0.000156
C79	C	-0.368514	0.051735	0.125390
H80	H	-0.418872	0.006837	0.167131
H81	H	-0.297821	-0.034625	0.097221
H82	H	-0.357734	0.119115	0.213083
H83	H	-1.039499	0.868183	-0.000022
O84	O	-1.049277	0.222132	0.418326
C85	C	-0.990794	0.262357	0.506361
H86	H	-1.027396	0.376678	0.529001
H87	H	-0.976450	0.203842	0.613459
H88	H	-0.921246	0.239075	0.447812
H89	H	-1.222028	0.532681	0.354134
H90	H	-0.806609	-0.018115	-0.000006
