data_functionalizedCrystal
_audit_creation_method	'MofGen! by Chris Wilmer'
_symmetry_space_group_name_H-M	'P1'
_symmetry_Int_Tables_number	1
_symmetry_cell_setting	triclinic
loop_
_symmetry_equiv_pos_as_xyz
  x,y,z
_cell_length_a	14.908979
_cell_length_b	13.897441
_cell_length_c	14.908520
_cell_angle_alpha	93.265227
_cell_angle_beta	96.420994
_cell_angle_gamma	93.273185
loop_
_atom_site_label
_atom_site_type_symbol
_atom_site_fract_x
_atom_site_fract_y
_atom_site_fract_z
Zn1	Zn	1.363010	-0.478698	-0.280408
Zn2	Zn	1.354163	-0.327278	-0.431799
Zn3	Zn	1.211637	-0.327284	-0.289191
Zn4	Zn	1.202878	-0.498385	-0.440474
O5	O	1.282922	-0.407911	-0.360468
O6	O	1.488500	-0.450370	-0.293185
O7	O	1.335220	-0.192302	-0.412926
O8	O	1.239085	-0.339132	-0.161356
O9	O	1.482000	-0.339123	-0.404411
O10	O	1.350298	-0.450376	-0.154903
O11	O	1.230506	-0.192306	-0.308153
O12	O	1.083811	-0.358222	-0.316564
O13	O	1.224157	-0.630751	-0.419196
O14	O	1.077376	-0.483930	-0.427712
O15	O	1.341805	-0.616286	-0.301596
O16	O	1.326726	-0.358213	-0.559620
O17	O	1.215578	-0.483925	-0.565993
C18	C	1.047751	-0.423214	-0.374033
C19	C	0.947143	-0.429784	-0.379858
C20	C	0.802009	-0.504389	-0.446024
C21	C	0.896539	-0.498224	-0.440552
C22	C	0.903210	-0.367503	-0.324635
C23	C	0.808680	-0.373669	-0.330107
C24	C	0.758082	-0.442115	-0.390803
C25	C	0.663551	-0.448284	-0.396271
C26	C	0.670223	-0.317560	-0.280359
C27	C	0.764754	-0.311395	-0.274886
C28	C	1.282991	-0.659495	-0.360384
C29	C	1.283020	-0.766705	-0.360348
C30	C	1.283048	-0.962995	-0.360286
C31	C	1.283030	-0.853766	-0.360323
C32	C	1.519011	-0.392550	-0.346850
C33	C	1.619618	-0.386004	-0.341048
C34	C	1.269266	-0.423224	-0.595649
C35	C	1.263507	-0.429801	-0.696256
C36	C	1.282909	-0.157299	-0.360483
C37	C	1.283070	-0.050061	-0.360253
C38	C	1.368543	-0.311349	-0.878602
C39	C	1.363135	-0.317526	-0.973131
C40	C	1.247288	-0.448336	-0.979844
C41	C	1.252696	-0.442159	-0.885315
C42	C	1.313325	-0.373662	-0.834697
C43	C	1.318728	-0.367481	-0.740167
C44	C	1.202886	-0.498295	-0.746881
C45	C	1.197477	-0.504472	-0.841410
C46	C	1.296656	-0.392559	-0.124367
C47	C	1.302508	-0.386016	-0.023755
H48	H	0.634449	-0.266855	-0.235390
H49	H	1.408101	-0.266786	-1.008874
H50	H	1.197933	-0.504108	-1.021072
C51	C	0.944273	-0.565684	-0.500612
C52	C	0.995147	-0.511206	-0.555443
C53	C	1.039122	-0.573319	-0.610793
H54	H	0.983236	-0.603136	-0.463997
H55	H	0.900623	-0.607313	-0.537593
H56	H	1.038792	-0.469593	-0.518466
H57	H	0.956205	-0.473756	-0.592076
H58	H	0.995471	-0.614948	-0.647774
H59	H	1.078080	-0.610768	-0.574172
H60	H	1.073638	-0.536365	-0.648009
H61	H	1.368092	-0.311706	-0.698955
C62	C	0.746954	-0.578561	-0.511973
C63	C	0.689286	-0.531170	-0.573064
C64	C	0.638551	-0.599469	-0.633822
H65	H	0.786549	-0.614803	-0.544165
H66	H	0.712046	-0.620789	-0.479551
H67	H	0.724191	-0.488959	-0.605483
H68	H	0.649672	-0.494933	-0.540899
H69	H	0.603643	-0.641697	-0.601400
H70	H	0.678153	-0.635707	-0.666006
H71	H	0.599411	-0.567325	-0.675274
H72	H	0.944423	-0.311771	-0.275226
H73	H	1.148118	-0.560242	-0.882636
H74	H	1.157920	-0.549032	-0.711124
H75	H	0.622355	-0.504020	-0.445689
H76	H	1.417903	-0.255570	-0.837389
C77	C	0.819853	-0.237184	-0.209014
C78	C	0.912043	-0.245126	-0.216024
C79	C	0.962826	-0.176789	-0.155344
H80	H	0.803685	-0.174169	-0.223017
H81	H	0.807944	-0.248469	-0.149086
H82	H	0.923946	-0.233834	-0.275938
H83	H	0.928238	-0.308126	-0.202012
H84	H	0.950917	-0.188074	-0.095416
H85	H	0.946650	-0.113779	-0.169353
H86	H	1.025382	-0.182175	-0.160086
