data_functionalizedCrystal
_audit_creation_method	'MofGen! by Chris Wilmer'
_symmetry_space_group_name_H-M	'P1'
_symmetry_Int_Tables_number	1
_symmetry_cell_setting	triclinic
loop_
_symmetry_equiv_pos_as_xyz
  x,y,z
_cell_length_a	18.101395
_cell_length_b	12.759401
_cell_length_c	12.759386
_cell_angle_alpha	90.044589
_cell_angle_beta	89.935683
_cell_angle_gamma	89.973003
loop_
_atom_site_label
_atom_site_type_symbol
_atom_site_fract_x
_atom_site_fract_y
_atom_site_fract_z
Zn1	Zn	-0.294641	-1.606370	-0.594065
Zn2	Zn	-0.418570	-1.606145	-0.418380
Zn3	Zn	-0.294738	-1.430603	-0.418394
Zn4	Zn	-0.418437	-1.430611	-0.594011
O5	O	-0.356596	-1.518432	-0.506212
O6	O	-0.311096	-1.753361	-0.570777
O7	O	-0.402239	-1.582761	-0.271360
O8	O	-0.191092	-1.454010	-0.441726
O9	O	-0.402146	-1.753196	-0.441702
O10	O	-0.191021	-1.583146	-0.570791
O11	O	-0.311260	-1.453791	-0.271371
O12	O	-0.311131	-1.283583	-0.441673
O13	O	-0.401919	-1.454023	-0.741039
O14	O	-0.402012	-1.283589	-0.570698
O15	O	-0.310967	-1.583153	-0.741079
O16	O	-0.522185	-1.582769	-0.441648
O17	O	-0.522087	-1.453805	-0.570684
C18	C	-0.356568	-1.245465	-0.506182
C19	C	-0.356574	-1.128688	-0.506193
C20	C	-0.549007	-1.518292	-0.506182
C21	C	-0.631321	-1.518328	-0.506203
C22	C	-0.309188	-1.073793	-0.439131
C23	C	-0.309201	-0.964068	-0.439140
C24	C	-0.403988	-0.964145	-0.573283
C25	C	-0.403978	-1.073868	-0.573268
C26	C	-0.282698	-0.814017	-0.315322
C27	C	-0.235301	-0.759118	-0.248269
C28	C	-0.163029	-0.794750	-0.232315
C29	C	-0.138141	-0.885279	-0.283429
C30	C	-0.185535	-0.940173	-0.350490
C31	C	-0.257816	-0.904543	-0.366424
C32	C	-0.430474	-1.223920	-0.697088
C33	C	-0.477864	-1.278816	-0.764155
C34	C	-0.550137	-1.243187	-0.780120
C35	C	-0.575023	-1.152654	-0.729024
C36	C	-0.527632	-1.097758	-0.661957
C37	C	-0.455360	-1.133395	-0.645990
C38	C	-0.930412	-1.518558	-0.506260
C39	C	-0.899056	-1.437606	-0.587647
C40	C	-0.813438	-1.437221	-0.587393
C41	C	-0.782029	-1.518444	-0.506233
C42	C	-0.813230	-1.488419	-0.395506
C43	C	-0.898875	-1.487898	-0.395993
C44	C	-0.898748	-1.629712	-0.534625
C45	C	-0.813096	-1.629059	-0.537053
C46	C	-0.698170	-1.518381	-0.506211
C47	C	-1.014271	-1.518618	-0.506275
C48	C	-0.163434	-1.518602	-0.506266
C49	C	-0.081120	-1.518674	-0.506289
C50	C	-0.356418	-1.518614	-0.780246
C51	C	-0.356341	-1.518692	-0.897023
C52	C	-0.356615	-0.792465	-0.506234
C53	C	-0.356597	-0.909242	-0.506218
C54	C	-0.356721	-1.518312	-0.233245
C55	C	-0.356589	-1.518438	-0.116468
C56	C	-0.309507	-1.450865	-0.061662
C57	C	-0.309381	-1.450994	0.048062
C58	C	-0.403426	-1.586272	0.048162
C59	C	-0.403547	-1.586147	-0.061559
C60	C	-0.222066	-1.412802	0.197752
C61	C	-0.174991	-1.345213	0.252563
C62	C	-0.164176	-1.242554	0.217107
C63	C	-0.200447	-1.207462	0.126843
C64	C	-0.247528	-1.275045	0.072038
C65	C	-0.258329	-1.377719	0.107492
C66	C	-0.490862	-1.624328	-0.211251
C67	C	-0.537948	-1.691907	-0.266058
C68	C	-0.548770	-1.794569	-0.230605
C69	C	-0.512512	-1.829657	-0.140337
C70	C	-0.465427	-1.762078	-0.085530
C71	C	-0.454603	-1.659417	-0.120991
H72	H	-0.270587	-1.118424	-0.384517
C73	C	-0.262674	-0.659545	-0.192041
H74	H	-0.224092	-0.631948	-0.149831
H75	H	-0.303842	-0.676415	-0.149021
H76	H	-0.276960	-0.608830	-0.242592
C77	C	-0.925964	-1.378131	-0.363544
H78	H	-0.884627	-1.334276	-0.350194
H79	H	-0.955245	-1.383482	-0.301952
H80	H	-0.954722	-1.348906	-0.418485
H81	H	-0.588718	-1.287885	-0.834745
C82	C	-0.362187	-0.774794	-0.332912
H83	H	-0.386849	-0.820448	-0.380173
H84	H	-0.360902	-0.706095	-0.361490
H85	H	-0.387849	-0.773648	-0.267933
H86	H	-0.442582	-0.919497	-0.627895
H87	H	-0.145459	-1.373795	0.326057
C88	C	-0.785530	-1.659659	-0.647128
H89	H	-0.755211	-1.605260	-0.674195
H90	H	-0.826642	-1.669926	-0.692182
H91	H	-0.757712	-1.722666	-0.642908
C92	C	-0.110895	-0.734366	-0.158554
H93	H	-0.136069	-0.675353	-0.130395
H94	H	-0.068787	-0.711453	-0.196653
H95	H	-0.095681	-0.779039	-0.103089
C96	C	-0.287420	-1.236459	-0.027248
H97	H	-0.274235	-1.165636	-0.040520
H98	H	-0.339321	-1.241209	-0.017248
H99	H	-0.273297	-1.278720	-0.085243
C100	C	-0.927804	-1.666678	-0.641843
H101	H	-0.959520	-1.614661	-0.670314
H102	H	-0.954446	-1.730236	-0.633340
H103	H	-0.887367	-1.677918	-0.688034
H104	H	-0.791852	-1.408026	-0.371047
C105	C	-0.555005	-0.998173	-0.605753
H106	H	-0.604837	-0.984814	-0.624860
H107	H	-0.525086	-0.940351	-0.625642
H108	H	-0.551989	-1.007926	-0.532075
H109	H	-0.633871	-1.123639	-0.742030
C110	C	-0.233955	-1.525735	0.236745
H111	H	-0.267180	-1.560967	0.191171
H112	H	-0.254017	-1.524206	0.305556
H113	H	-0.187999	-1.561711	0.237548
H114	H	-0.792338	-1.456011	-0.669495
H115	H	-0.457590	-1.352517	-0.805781
H116	H	-0.371625	-1.252944	-0.684086
H117	H	-0.791712	-1.692568	-0.482096
H118	H	-0.191644	-1.123861	0.097988
C119	C	-0.926855	-1.462635	-0.698898
H120	H	-0.957827	-1.522686	-0.696715
H121	H	-0.885883	-1.476030	-0.743532
H122	H	-0.954049	-1.404603	-0.725069
H123	H	-0.125845	-1.187522	0.261742
C124	C	-0.928213	-1.326979	-0.562584
H125	H	-0.959410	-1.329912	-0.502733
H126	H	-0.955429	-1.301192	-0.620726
H127	H	-0.887782	-1.281587	-0.548806
H128	H	-0.793019	-1.354832	-0.568603
C129	C	-0.478954	-1.511398	-0.250251
H130	H	-0.445713	-1.476180	-0.204690
H131	H	-0.524901	-1.475407	-0.251058
H132	H	-0.458890	-1.512939	-0.319067
C133	C	-0.926909	-1.564070	-0.311269
H134	H	-0.885953	-1.595190	-0.276700
H135	H	-0.956008	-1.617215	-0.343075
H136	H	-0.956050	-1.526780	-0.261743
C137	C	-0.785751	-1.565552	-0.311347
H138	H	-0.754930	-1.616871	-0.343067
H139	H	-0.826878	-1.598941	-0.279340
H140	H	-0.758478	-1.528426	-0.259721
C141	C	-0.926070	-1.711168	-0.454479
H142	H	-0.956635	-1.677661	-0.403982
H143	H	-0.884856	-1.742123	-0.420400
H144	H	-0.953572	-1.763956	-0.489590
C145	C	-0.257848	-1.376398	-0.122058
H146	H	-0.229785	-1.336181	-0.073698
H147	H	-0.286450	-1.330839	-0.164666
H148	H	-0.225425	-1.416243	-0.165058
C149	C	-0.455082	-1.660735	0.108566
H150	H	-0.448273	-1.651125	0.181762
H151	H	-0.443913	-1.731203	0.090409
H152	H	-0.504938	-1.645800	0.090800
H153	H	-0.521325	-1.913252	-0.111468
H154	H	-0.435903	-1.790656	-0.012028
H155	H	-0.587116	-1.849588	-0.275236
H156	H	-0.567471	-1.663329	-0.339560
H157	H	-0.079288	-0.914278	-0.270440
C158	C	-0.158168	-1.039749	-0.406706
H159	H	-0.108336	-1.053113	-0.387599
H160	H	-0.161197	-1.030005	-0.480377
H161	H	-0.188083	-1.097576	-0.386798
