data_functionalizedCrystal
_audit_creation_method	'MofGen! by Chris Wilmer'
_symmetry_space_group_name_H-M	'P1'
_symmetry_Int_Tables_number	1
_symmetry_cell_setting	triclinic
loop_
_symmetry_equiv_pos_as_xyz
  x,y,z
_cell_length_a	12.837943
_cell_length_b	12.837942
_cell_length_c	11.892095
_cell_angle_alpha	85.697431
_cell_angle_beta	85.689237
_cell_angle_gamma	85.171060
loop_
_atom_site_label
_atom_site_type_symbol
_atom_site_fract_x
_atom_site_fract_y
_atom_site_fract_z
O1	O	1.408367	-0.266110	-0.093987
O2	O	1.908367	0.233890	0.406013
O3	O	1.105234	-0.252666	-0.093993
O4	O	1.605234	0.247334	0.406007
O5	O	1.250078	-0.107822	-0.093983
O6	O	1.750078	0.392178	0.406017
O7	O	1.263523	-0.410955	-0.093997
O8	O	1.763523	0.089045	0.406003
O9	O	1.237999	-0.119878	0.094023
O10	O	1.737999	0.380122	0.594023
O11	O	1.093155	-0.264723	0.094014
O12	O	1.593155	0.235277	0.594014
O13	O	1.396288	-0.278166	0.094019
O14	O	1.896288	0.221834	0.594019
Zn15	Zn	1.242804	-0.273359	0.123867
Zn16	Zn	1.742804	0.226641	0.623867
Zn17	Zn	1.258718	-0.257474	-0.123840
Zn18	Zn	1.758718	0.242526	0.376160
O19	O	1.251444	-0.423011	0.094010
O20	O	1.751444	0.076989	0.594010
C21	C	1.060125	-0.254153	0.000010
C22	C	1.560125	0.245847	0.500010
C23	C	0.943710	-0.240609	0.000008
C24	C	1.443710	0.259391	0.500008
C25	C	1.441397	-0.276679	0.000014
C26	C	1.941397	0.223321	0.500014
C27	C	1.557812	-0.290224	0.000009
C28	C	2.057812	0.209776	0.500009
C29	C	1.239498	-0.074781	0.000019
C30	C	1.739498	0.425219	0.500019
C31	C	1.225953	0.041634	0.000017
C32	C	1.725953	0.541634	0.500017
C33	C	1.782685	-0.127395	0.000028
C34	C	2.282685	0.372605	0.500028
C35	C	1.892068	-0.140117	0.000023
C36	C	2.392068	0.359883	0.500023
C37	C	1.885962	-0.328386	0.000001
C38	C	2.385962	0.171614	0.500001
C39	C	1.776579	-0.315665	0.000007
C40	C	2.276579	0.184335	0.500007
C41	C	1.724945	-0.215167	0.000018
C42	C	2.224945	0.284833	0.500018
C43	C	1.615561	-0.202446	0.000015
C44	C	2.115561	0.297554	0.500015
C45	C	1.609456	-0.390715	0.000002
C46	C	2.109456	0.109285	0.500002
C47	C	1.718839	-0.403436	-0.000003
C48	C	2.218839	0.096564	0.499997
C49	C	1.262025	-0.456052	0.000005
C50	C	1.762025	0.043948	0.500005
C51	C	1.275569	-0.572466	-0.000001
C52	C	1.775569	-0.072466	0.499999
N53	N	1.231950	-0.284200	0.292920
N54	N	1.731950	0.215800	0.792920
C55	C	1.388784	0.266510	-0.000003
C56	C	1.888784	0.766510	0.499997
C57	C	1.376063	0.375892	-0.000006
C58	C	1.876063	0.875892	0.499994
C59	C	1.187791	0.369785	0.000003
C60	C	1.687791	0.869785	0.500003
C61	C	1.200512	0.260402	0.000005
C62	C	1.700512	0.760402	0.500005
C63	C	1.301012	0.208768	0.000003
C64	C	1.801012	0.708768	0.500003
C65	C	1.313732	0.099383	0.000014
C66	C	1.813732	0.599383	0.500014
C67	C	1.125461	0.093278	0.000014
C68	C	1.625461	0.593278	0.500014
C69	C	1.112740	0.202661	0.000012
C70	C	1.612740	0.702661	0.500012
N71	N	1.269579	-0.246626	-0.292894
N72	N	1.769579	0.253374	0.207106
C73	C	1.345098	-0.171130	0.529575
C74	C	1.845098	0.328870	1.029575
C75	C	1.337520	-0.178716	0.647917
C76	C	1.837520	0.321284	1.147917
C77	C	1.209211	-0.306952	0.647946
C78	C	1.709211	0.193048	1.147946
C79	C	1.216789	-0.299366	0.529605
C80	C	1.716789	0.200634	1.029605
C81	C	1.284736	-0.231454	0.470424
C82	C	1.784736	0.268546	0.970424
C83	C	1.292319	-0.223874	0.352080
C84	C	1.792319	0.276126	0.852080
C85	C	1.164005	-0.352104	0.352112
C86	C	1.664005	0.147896	0.852112
C87	C	1.156427	-0.359690	0.470453
C88	C	1.656427	0.140310	0.970453
H89	H	1.573522	-0.120615	0.000020
H90	H	2.073522	0.379385	0.500020
H91	H	1.447537	0.422902	-0.000015
H92	H	1.947537	0.922902	0.499985
H93	H	1.400431	-0.115840	0.481389
H94	H	1.900431	0.384160	0.981389
Cl95	Cl	1.717770	-0.001058	0.000036
Cl96	Cl	2.217770	0.498942	0.500036
Cl97	Cl	1.440071	0.034473	0.000019
Cl98	Cl	1.940071	0.534473	0.500019
H99	H	1.939076	-0.068644	0.000031
H100	H	2.439076	0.431356	0.500031
Cl101	Cl	1.950892	-0.454717	-0.000012
Cl102	Cl	2.450892	0.045283	0.499988
H103	H	1.760895	-0.485260	-0.000008
H104	H	2.260895	0.014740	0.499992
H105	H	1.562432	-0.462185	-0.000006
H106	H	2.062432	0.037815	0.499994
Cl107	Cl	1.377740	-0.138502	0.277683
Cl108	Cl	1.877740	0.361498	0.777683
H109	H	1.101102	-0.414980	0.518652
H110	H	1.601102	0.085020	1.018652
H111	H	1.153882	-0.362237	0.696147
H112	H	1.653882	0.137763	1.196147
Cl113	Cl	1.061462	0.434716	-0.000029
Cl114	Cl	1.561462	0.934716	0.499971
Cl115	Cl	1.515120	0.201593	0.000023
Cl116	Cl	2.015120	0.701593	0.500023
Cl117	Cl	0.986405	0.267582	0.000004
Cl118	Cl	1.486405	0.767582	0.500004
H119	H	1.386671	-0.129593	0.696075
H120	H	1.886671	0.370407	1.196075
Cl121	Cl	1.015112	0.020682	0.000037
Cl122	Cl	1.515112	0.520682	0.500037
Cl123	Cl	1.088125	-0.427949	0.277739
Cl124	Cl	1.588125	0.072051	0.777739
