data_functionalizedCrystal
_audit_creation_method	'MofGen! by Chris Wilmer'
_symmetry_space_group_name_H-M	'P1'
_symmetry_Int_Tables_number	1
_symmetry_cell_setting	triclinic
loop_
_symmetry_equiv_pos_as_xyz
  x,y,z
_cell_length_a	17.699097
_cell_length_b	17.699104
_cell_length_c	15.186229
_cell_angle_alpha	89.995322
_cell_angle_beta	89.993050
_cell_angle_gamma	83.289974
loop_
_atom_site_label
_atom_site_type_symbol
_atom_site_fract_x
_atom_site_fract_y
_atom_site_fract_z
O1	O	1.004075	0.095757	-0.073304
O2	O	1.504075	0.595757	0.426696
O3	O	0.783699	0.108199	-0.073289
O4	O	1.283699	0.608199	0.426711
O5	O	0.900105	-0.008210	-0.073289
O6	O	1.400105	0.491790	0.426711
O7	O	0.887669	0.212166	-0.073304
O8	O	1.387669	0.712166	0.426696
O9	O	0.900098	-0.008211	0.073168
O10	O	1.400098	0.491789	0.573168
O11	O	0.783692	0.108197	0.073168
O12	O	1.283692	0.608197	0.573168
O13	O	1.004068	0.095755	0.073154
O14	O	1.504068	0.595755	0.573154
Zn15	Zn	0.893878	0.101976	0.096414
Zn16	Zn	1.393878	0.601976	0.596414
Zn17	Zn	0.893889	0.101978	-0.096550
Zn18	Zn	1.393889	0.601978	0.403450
O19	O	0.887662	0.212164	0.073153
O20	O	1.387662	0.712164	0.573153
C21	C	0.755499	0.107751	-0.000059
C22	C	1.255499	0.607751	0.499941
C23	C	0.671481	0.106408	-0.000053
C24	C	1.171481	0.606408	0.499947
C25	C	0.155766	0.098180	-0.079922
C26	C	0.655766	0.598180	0.420078
C27	C	0.234711	0.099436	-0.079918
C28	C	0.734711	0.599436	0.420082
C29	C	0.274172	0.100064	-0.000081
C30	C	0.774172	0.600064	0.499919
C31	C	0.234687	0.099429	0.079758
C32	C	0.734687	0.599429	0.579758
C33	C	0.155745	0.098167	0.079753
C34	C	0.655745	0.598167	0.579753
C35	C	0.553051	0.104516	0.079781
C36	C	1.053051	0.604516	0.579781
C37	C	0.631999	0.105780	0.079780
C38	C	1.131999	0.605780	0.579780
C39	C	0.632017	0.105785	-0.079890
C40	C	1.132017	0.605785	0.420110
C41	C	0.553075	0.104523	-0.079895
C42	C	1.053075	0.604523	0.420105
C43	C	0.513597	0.103884	-0.000057
C44	C	1.013597	0.603884	0.499943
C45	C	0.427997	0.102520	-0.000063
C46	C	0.927997	0.602520	0.499937
C47	C	0.359770	0.101433	-0.000074
C48	C	0.859770	0.601433	0.499926
C49	C	0.899653	-0.036407	-0.000060
C50	C	1.399653	0.463593	0.499940
C51	C	0.898308	-0.120425	-0.000060
C52	C	1.398308	0.379575	0.499940
C53	C	0.959052	-0.645293	-0.000089
C54	C	1.459052	-0.145293	0.499911
C55	C	0.960311	-0.566349	-0.000081
C56	C	1.460311	-0.066349	0.499919
C57	C	0.891976	-0.517735	-0.000075
C58	C	1.391976	-0.017735	0.499925
C59	C	0.822378	-0.548068	-0.000067
C60	C	1.322378	-0.048068	0.499933
C61	C	0.821119	-0.627010	-0.000068
C62	C	1.321119	-0.127010	0.499932
C63	C	0.827451	-0.229702	-0.000060
C64	C	1.327451	0.270298	0.499940
C65	C	0.828715	-0.150754	-0.000061
C66	C	1.328715	0.349246	0.499939
C67	C	0.966642	-0.169040	-0.000072
C68	C	1.466642	0.330960	0.499928
C69	C	0.965384	-0.247983	-0.000074
C70	C	1.465384	0.252017	0.499926
C71	C	0.895786	-0.278309	-0.000062
C72	C	1.395786	0.221691	0.499938
C73	C	0.894422	-0.363909	-0.000068
C74	C	1.394422	0.136091	0.499932
C75	C	0.893340	-0.432136	-0.000074
C76	C	1.393340	0.067864	0.499926
C77	C	1.032268	0.096204	-0.000079
C78	C	1.532268	0.596204	0.499921
C79	C	1.116286	0.097546	-0.000090
C80	C	1.616286	0.597546	0.499910
C81	C	0.888114	0.240362	-0.000077
C82	C	1.388114	0.740362	0.499923
C83	C	0.889459	0.324379	-0.000084
C84	C	1.389459	0.824379	0.499916
N85	N	0.893877	0.101974	0.228107
N86	N	1.393877	0.601974	0.728107
N87	N	0.893896	0.101974	-0.228242
N88	N	1.393896	0.601974	0.271758
C89	C	0.945439	0.050446	0.453830
C90	C	1.445439	0.550446	0.953830
C91	C	0.945441	0.050444	0.546019
C92	C	1.445441	0.550444	1.046019
C93	C	0.842329	0.153505	0.546028
C94	C	1.342329	0.653505	1.046028
C95	C	0.842323	0.153503	0.453840
C96	C	1.342323	0.653503	0.953840
C97	C	0.893883	0.101974	0.407743
C98	C	1.393883	0.601974	0.907743
C99	C	0.893890	0.101974	0.592121
C100	C	1.393890	0.601974	1.092121
C101	C	0.893893	0.101973	0.692077
C102	C	1.393893	0.601973	1.192077
C103	C	0.893880	0.101974	0.307781
C104	C	1.393880	0.601974	0.807781
H105	H	0.664170	0.106303	-0.144898
H106	H	1.164170	0.606303	0.355102
C107	C	1.036861	-0.532987	-0.000082
C108	C	1.536861	-0.032987	0.499918
H109	H	1.027826	-0.479010	-0.000067
H110	H	1.527826	0.020990	0.499933
H111	H	1.064997	-0.549673	-0.051156
H112	H	1.564997	-0.049673	0.448844
H113	H	1.064985	-0.549689	0.050996
H114	H	1.564985	-0.049689	0.550996
C115	C	1.002150	-0.006232	0.403122
C116	C	1.502150	0.493768	0.903122
H117	H	0.994771	0.001151	0.341617
H118	H	1.494771	0.501151	0.841617
H119	H	0.994027	-0.056736	0.418236
H120	H	1.494027	0.443264	0.918236
H121	H	1.052647	0.001935	0.418222
H122	H	1.552647	0.501935	0.918222
H123	H	0.766739	-0.508480	-0.000057
H124	H	1.266739	-0.008480	0.499943
H125	H	0.773065	-0.111173	-0.000054
H126	H	1.273065	0.388827	0.499946
H127	H	0.987422	0.008484	0.583540
H128	H	1.487422	0.508484	1.083540
C129	C	0.785625	0.210189	0.596737
C130	C	1.285625	0.710189	1.096737
H131	H	0.793017	0.202817	0.658242
H132	H	1.293017	0.702817	1.158242
H133	H	0.735127	0.202035	0.581644
H134	H	1.235127	0.702035	1.081644
H135	H	0.793761	0.260693	0.581617
H136	H	1.293761	0.760693	1.081617
H137	H	0.800336	0.195463	0.416314
H138	H	1.300336	0.695463	0.916314
H139	H	0.123600	0.097659	0.144760
H140	H	0.623600	0.597659	0.644760
H141	H	0.123642	0.097673	-0.144935
H142	H	0.623642	0.597673	0.355065
H143	H	0.266853	0.099947	-0.144925
H144	H	0.766853	0.599947	0.355075
H145	H	0.520949	0.104015	-0.144907
H146	H	1.020949	0.604015	0.355093
C147	C	1.040550	-0.301458	-0.000086
C148	C	1.540550	0.198542	0.499914
H149	H	1.029832	-0.352816	-0.000095
H150	H	1.529832	0.147184	0.499905
H151	H	1.069094	-0.292283	0.050983
H152	H	1.569094	0.207717	0.550983
H153	H	1.069091	-0.292270	-0.051169
H154	H	1.569091	0.207730	0.448831
C155	C	0.675408	0.106456	0.167605
C156	C	1.175408	0.606456	0.667605
H157	H	0.640592	0.105884	0.215153
H158	H	1.140592	0.605884	0.715153
H159	H	0.700357	0.151064	0.170934
H160	H	1.200357	0.651064	0.670934
H161	H	0.712049	0.062821	0.170912
H162	H	1.212049	0.562821	0.670912
C163	C	0.744567	-0.660371	-0.000071
C164	C	1.244567	-0.160371	0.499929
H165	H	0.704049	-0.620113	-0.000077
H166	H	1.204049	-0.120113	0.499923
H167	H	0.741204	-0.690792	0.051000
H168	H	1.241204	-0.190792	0.551000
H169	H	0.741215	-0.690781	-0.051152
H170	H	1.241215	-0.190781	0.448848
H171	H	1.014698	-0.684870	-0.000101
H172	H	1.514698	-0.184870	0.499899
H173	H	0.266824	0.099936	0.144763
H174	H	0.766824	0.599936	0.644763
C175	C	0.509634	0.103823	0.167598
C176	C	1.009634	0.603823	0.667598
H177	H	0.544443	0.104388	0.215144
H178	H	1.044443	0.604388	0.715144
H179	H	0.484687	0.059213	0.170925
H180	H	0.984687	0.559213	0.670925
H181	H	0.472990	0.147456	0.170911
H182	H	0.972990	0.647456	0.670911
H183	H	1.023312	-0.144340	-0.000094
H184	H	1.523312	0.355660	0.499906
H185	H	0.770780	-0.254383	-0.000061
H186	H	1.270780	0.245617	0.499939
