data_functionalizedCrystal
_audit_creation_method	'MofGen! by Chris Wilmer'
_symmetry_space_group_name_H-M	'P1'
_symmetry_Int_Tables_number	1
_symmetry_cell_setting	triclinic
loop_
_symmetry_equiv_pos_as_xyz
  x,y,z
_cell_length_a	18.215407
_cell_length_b	18.215405
_cell_length_c	18.215399
_cell_angle_alpha	90.030551
_cell_angle_beta	90.017368
_cell_angle_gamma	90.022329
loop_
_atom_site_label
_atom_site_type_symbol
_atom_site_fract_x
_atom_site_fract_y
_atom_site_fract_z
Zn1	Zn	1.125072	-0.293042	0.416054
Zn2	Zn	1.124980	-0.416113	0.292982
Zn3	Zn	1.002004	-0.293060	0.293007
Zn4	Zn	1.001970	-0.416066	0.416012
O5	O	1.063507	-0.354570	0.354514
O6	O	1.228044	-0.309380	0.399736
O7	O	1.108643	-0.399817	0.190001
O8	O	1.018382	-0.190073	0.309357
O9	O	1.227977	-0.399800	0.309315
O10	O	1.108799	-0.190060	0.399759
O11	O	1.018293	-0.309410	0.190019
O12	O	0.899016	-0.309364	0.309317
O13	O	1.018324	-0.399719	0.519002
O14	O	0.898991	-0.399736	0.399688
O15	O	1.108766	-0.309334	0.519033
O16	O	1.108610	-0.519091	0.309275
O17	O	1.018235	-0.519056	0.399665
C18	C	0.872301	-0.354548	0.354501
C19	C	0.790502	-0.354556	0.354513
C20	C	1.063429	-0.545777	0.354479
C21	C	1.063463	-0.627575	0.354488
C22	C	0.602342	-0.307571	0.401669
C23	C	0.525483	-0.307577	0.401672
C24	C	0.525424	-0.401590	0.307372
C25	C	0.602281	-0.401580	0.307366
C26	C	0.640738	-0.354571	0.354519
C27	C	0.487022	-0.354588	0.354527
C28	C	0.403688	-0.354595	0.354529
C29	C	0.724077	-0.354563	0.354516
C30	C	1.110632	-0.815763	0.307509
C31	C	1.110665	-0.892622	0.307526
C32	C	1.016476	-0.892625	0.401572
C33	C	1.016447	-0.815768	0.401557
C34	C	1.063524	-0.777339	0.354522
C35	C	1.063586	-0.931055	0.354554
C36	C	1.063621	-1.014389	0.354574
C37	C	1.063490	-0.694000	0.354503
C38	C	1.255460	-0.354593	0.354527
C39	C	1.337259	-0.354603	0.354533
C40	C	1.063552	-0.354520	0.546467
C41	C	1.063571	-0.354498	0.628266
C42	C	1.063605	-0.162617	0.354566
C43	C	1.063647	-0.080818	0.354588
C44	C	1.063504	-0.354568	0.163308
C45	C	1.063628	-0.354382	0.081509
C46	C	1.110681	-0.307390	0.816477
C47	C	1.110690	-0.307369	0.893336
C48	C	1.016513	-0.401492	0.893293
C49	C	1.016501	-0.401509	0.816435
C50	C	1.063589	-0.354459	0.778029
C51	C	1.063610	-0.354421	0.931746
C52	C	1.063619	-0.354398	1.015079
C53	C	1.063579	-0.354481	0.694690
H54	H	0.633651	-0.269291	0.440062
H55	H	0.494224	-0.269304	0.440065
O56	O	0.488031	-0.447335	0.261680
C57	C	0.401196	-0.546665	0.251612
C58	C	0.443508	-0.494914	0.303440
H59	H	0.365176	-0.585136	0.285354
H60	H	0.441809	-0.580310	0.217922
H61	H	0.365238	-0.512820	0.213180
H62	H	0.479466	-0.528703	0.341917
H63	H	0.402854	-0.461267	0.337078
H64	H	0.978086	-0.784481	0.439845
H65	H	1.149021	-0.269078	0.785209
H66	H	0.633544	-0.439854	0.268967
H67	H	1.148966	-0.784476	0.269210
O68	O	1.156506	-0.261624	0.930570
C69	C	1.249887	-0.168241	0.922496
C70	C	1.198048	-0.220025	0.880239
H71	H	1.283476	-0.134583	0.881822
H72	H	1.288405	-0.201988	0.958456
H73	H	1.216112	-0.129778	0.958504
H74	H	1.231764	-0.258498	0.844191
H75	H	1.159528	-0.186232	0.844325
O76	O	1.156447	-0.929833	0.261787
C77	C	1.249895	-0.921713	0.168534
C78	C	1.198068	-0.879481	0.220285
H79	H	1.283570	-0.881022	0.134977
H80	H	1.216180	-0.957731	0.129981
H81	H	1.288339	-0.957660	0.202375
H82	H	1.159613	-0.843495	0.186503
H83	H	1.231829	-0.843509	0.258840
H84	H	0.978146	-0.923924	0.439866
O85	O	0.970846	-0.447173	0.930715
C86	C	0.929095	-0.488831	1.049099
C87	C	0.980861	-0.437070	1.006812
H88	H	0.937163	-0.480669	1.110630
H89	H	0.941988	-0.548193	1.034025
H90	H	0.869766	-0.475913	1.033939
H91	H	1.040208	-0.449921	1.021949
H92	H	0.967905	-0.377723	1.021889
O93	O	0.970731	-0.447305	0.779196
C94	C	0.877291	-0.540630	0.787257
C95	C	0.929098	-0.488822	0.829522
H96	H	0.843606	-0.574199	0.827927
H97	H	0.911020	-0.579170	0.751287
H98	H	0.838853	-0.506834	0.751260
H99	H	0.967546	-0.522559	0.865559
H100	H	0.895323	-0.450280	0.865446
