data_functionalizedCrystal
_audit_creation_method	'MofGen! by Chris Wilmer'
_symmetry_space_group_name_H-M	'P1'
_symmetry_Int_Tables_number	1
_symmetry_cell_setting	triclinic
loop_
_symmetry_equiv_pos_as_xyz
  x,y,z
_cell_length_a	12.970454
_cell_length_b	18.878441
_cell_length_c	18.878441
_cell_angle_alpha	90.002729
_cell_angle_beta	59.999238
_cell_angle_gamma	60.000423
loop_
_atom_site_label
_atom_site_type_symbol
_atom_site_fract_x
_atom_site_fract_y
_atom_site_fract_z
Zr1	Zr	1.128509	0.682394	-0.092939
O2	O	1.343608	0.569284	-0.206051
O3	O	0.913415	0.717069	-0.058263
O4	O	1.128514	0.717063	-0.206045
O5	O	1.128504	0.569294	0.058302
O6	O	1.128511	0.833634	-0.206041
O7	O	1.128510	0.569290	-0.058269
O8	O	0.743739	0.833644	0.058313
O9	O	1.513275	0.569284	-0.206052
O10	O	1.001882	0.818853	-0.043472
O11	O	1.001879	0.731860	0.043521
O12	O	1.255130	0.731854	-0.130473
O13	O	1.255128	0.644862	-0.043479
Zr14	Zr	1.128494	0.868319	0.092987
Zr15	Zr	1.128504	0.868312	-0.092932
Zr16	Zr	1.128499	0.682402	0.092980
Zr17	Zr	1.399108	0.682394	-0.092940
Zr18	Zr	0.857894	0.868319	0.092988
O19	O	1.343588	0.833644	0.058311
O20	O	1.343601	0.833634	-0.206041
O21	O	1.343594	0.569294	0.058302
O22	O	0.913395	0.981429	0.206099
O23	O	0.913408	0.981419	-0.058254
O24	O	0.913401	0.717079	0.206089
O25	O	1.128499	0.981419	-0.058255
O26	O	1.128489	0.833650	0.206093
O27	O	1.128492	0.717079	0.206088
O28	O	1.128493	0.981424	0.058317
O29	O	1.513272	0.717063	-0.206046
O30	O	0.743731	0.833650	0.206094
O31	O	0.743727	0.981429	0.206099
O32	O	0.743735	0.981423	0.058319
O33	O	1.513268	0.569290	-0.058271
O34	O	1.513264	0.717069	-0.058266
O35	O	1.001873	0.818859	0.130520
O36	O	1.001875	0.905852	0.043527
O37	O	1.255123	0.818853	-0.043473
O38	O	1.255121	0.731860	0.043520
C39	C	0.790022	0.775356	0.000025
C40	C	0.675145	0.775356	0.000025
C41	C	1.128507	0.542803	0.000016
C42	C	1.128509	0.463876	0.000013
C43	C	1.128488	0.123921	0.064256
C44	C	1.128482	0.198083	0.064255
C45	C	1.128493	0.235155	0.000029
C46	C	1.128494	0.198067	-0.064195
C47	C	1.128489	0.123911	-0.064190
C48	C	1.128507	0.352631	-0.064202
C49	C	1.128515	0.426792	-0.064208
C50	C	1.128501	0.426803	0.064243
C51	C	1.128496	0.352647	0.064248
C52	C	1.128500	0.315563	0.000023
C53	C	1.466981	0.775357	0.000023
C54	C	1.581857	0.775357	0.000022
C55	C	1.128513	0.775348	-0.232532
C56	C	1.128518	0.775345	-0.311460
C57	C	1.128496	1.007911	0.000032
C58	C	1.128494	1.086837	0.000035
C59	C	1.260709	0.729932	-0.393953
C60	C	1.260704	0.729941	-0.468111
C61	C	1.128506	0.775357	-0.459773
C62	C	0.996304	0.820775	-0.377271
C63	C	0.996311	0.820771	-0.303115
C64	C	0.996301	0.820778	-0.531838
C65	C	0.996294	0.820781	-0.605999
C66	C	1.260694	0.729948	-0.696834
C67	C	1.260700	0.729944	-0.622678
C68	C	1.128498	0.775361	-0.540181
C69	C	1.128489	0.775365	0.232580
C70	C	1.128485	0.775368	0.311507
C71	C	0.790016	1.007910	0.000033
C72	C	0.675138	1.086837	0.000037
C73	C	0.790010	0.775365	0.232581
C74	C	0.675129	0.775368	0.311509
C75	C	0.790004	1.007919	0.232590
C76	C	0.675121	1.086849	0.311520
C77	C	1.466999	0.542794	-0.232542
C78	C	1.581881	0.463864	-0.311472
C79	C	1.466986	0.542803	0.000014
C80	C	1.581865	0.463876	0.000011
C81	C	1.466993	0.775348	-0.232533
C82	C	1.581874	0.775345	-0.311461
C83	C	0.621193	1.078489	-0.045382
C84	C	0.513267	1.152642	-0.045397
C85	C	0.459280	1.235142	0.000014
C86	C	0.513236	1.243488	0.045434
C87	C	0.621167	1.169336	0.045443
C88	C	0.621177	0.820782	0.393995
C89	C	0.513249	0.820782	0.468163
C90	C	0.459269	0.775372	0.459843
C91	C	0.513232	0.729952	0.377349
C92	C	0.621165	0.729948	0.303183
C93	C	0.621172	1.169332	0.303177
C94	C	0.513243	1.243502	0.377334
C95	C	0.459257	1.235187	0.459833
C96	C	0.513216	1.152695	0.468174
C97	C	0.621151	1.078527	0.394018
C98	C	1.635843	0.381381	-0.303130
C99	C	1.743807	0.307211	-0.377286
C100	C	1.797798	0.315526	-0.459785
C101	C	1.743832	0.398018	-0.468126
C102	C	1.635878	0.472186	-0.393970
C103	C	1.635821	0.472224	0.045422
C104	C	1.743777	0.398071	0.045416
C105	C	1.797767	0.315571	0.000003
C106	C	1.743807	0.307225	-0.045414
C107	C	1.635860	0.381377	-0.045412
C108	C	1.635820	0.820763	-0.303114
C109	C	1.743748	0.820778	-0.377268
C110	C	1.797736	0.775367	-0.459768
C111	C	1.743779	0.729947	-0.468114
C112	C	1.635845	0.729939	-0.393961
H113	H	1.128477	0.228277	0.116549
H114	H	1.368348	0.692957	-0.629473
N115	N	1.914226	0.235530	-0.539767
H116	H	2.003786	0.199839	-0.539794
H117	H	1.876525	0.199907	-0.539745
H118	H	1.368338	0.692964	-0.764009
H119	H	0.888667	0.857759	-0.370487
N120	N	1.802071	0.406979	-0.557109
H121	H	1.878641	0.347474	-0.602813
H122	H	1.719644	0.439762	-0.563984
N123	N	1.128546	0.312611	-0.133480
H124	H	1.038653	0.312720	-0.105468
H125	H	1.128623	0.347361	-0.174157
N126	N	1.802028	0.680967	-0.557101
H127	H	1.751482	0.652188	-0.551147
H128	H	1.783242	0.722667	-0.589842
H129	H	1.128491	0.093718	-0.116484
H130	H	1.128493	0.228258	-0.116487
H131	H	1.885623	0.775381	-0.520142
N132	N	1.403296	0.680943	-0.402949
H133	H	1.487037	0.652178	-0.466464
H134	H	1.409056	0.722638	-0.374156
H135	H	0.469264	1.310669	0.082405
N136	N	0.679385	0.680974	0.214202
H137	H	0.787739	0.635281	0.181413
H138	H	0.628731	0.652253	0.220235
N139	N	1.577605	0.869744	-0.214137
H140	H	1.628165	0.898517	-0.220114
H141	H	1.469249	0.915395	-0.181388
H142	H	1.591934	0.692950	-0.400770
N143	N	0.679375	1.178313	0.214203
H144	H	0.628809	1.241825	0.220183
H145	H	0.787731	1.149517	0.181448
N146	N	1.577675	0.372358	-0.094394
H147	H	1.532910	0.339591	-0.070568
H148	H	1.501154	0.431873	-0.087496
H149	H	1.368348	0.692963	-0.535278
H150	H	1.787668	0.857763	-0.370455
H151	H	0.371395	1.295514	0.000000
H152	H	0.469265	0.692981	0.370588
H153	H	0.888667	0.857750	-0.235945
N154	N	1.914187	0.235592	0.000007
H155	H	2.003749	0.235563	-0.025835
H156	H	1.876480	0.235618	0.061533
N157	N	1.802028	0.218240	-0.094380
H158	H	1.719672	0.211296	-0.070549
H159	H	1.846839	0.211328	-0.157901
H160	H	1.591871	0.539392	0.082409
N161	N	0.853713	0.869750	-0.597011
H162	H	0.769964	0.898522	-0.533498
H163	H	0.847946	0.915402	-0.625802
N164	N	0.679402	0.989514	-0.094362
H165	H	0.724199	0.982562	-0.157891
H166	H	0.755903	0.943853	-0.087400
N167	N	1.128489	0.083935	0.133525
H168	H	1.128482	0.118685	0.174209
H169	H	1.038585	0.084053	0.167208
H170	H	0.888647	0.857763	-0.464666
N171	N	0.455054	0.869775	0.557132
H172	H	0.505622	0.898547	0.551141
H173	H	0.346698	0.915428	0.589885
H174	H	0.665075	1.176145	0.082434
H175	H	1.787693	0.404883	0.082404
N176	N	0.679395	0.869755	0.402985
H177	H	0.755960	0.862868	0.343489
H178	H	0.596958	0.933262	0.435788
N179	N	1.128496	0.312655	0.133515
H180	H	1.128490	0.347400	0.174202
H181	H	1.038591	0.312774	0.167195
H182	H	1.128497	0.457001	0.116538
H183	H	0.371383	0.775382	0.520242
H184	H	0.469350	1.145830	-0.082383
N185	N	1.128523	0.466780	-0.133477
H186	H	1.128512	0.432041	-0.174159
H187	H	1.038624	0.528435	-0.105387
H188	H	0.469320	1.310664	0.370527
N189	N	0.454981	1.143734	0.557157
H190	H	0.378415	1.203239	0.602861
H191	H	0.410262	1.110950	0.564031
H192	H	0.371369	1.295587	0.520208
H193	H	0.665063	1.011369	0.400823
N194	N	1.577675	0.561149	-0.402975
H195	H	1.628264	0.555153	-0.466492
H196	H	1.469324	0.593892	-0.374193
H197	H	1.591889	0.374594	-0.235962
H198	H	1.787728	0.240050	-0.370478
