data_functionalizedCrystal
_audit_creation_method	'MofGen! by Chris Wilmer'
_symmetry_space_group_name_H-M	'P1'
_symmetry_Int_Tables_number	1
_symmetry_cell_setting	triclinic
loop_
_symmetry_equiv_pos_as_xyz
  x,y,z
_cell_length_a	16.959455
_cell_length_b	21.295417
_cell_length_c	16.959455
_cell_angle_alpha	90.019041
_cell_angle_beta	90.001568
_cell_angle_gamma	90.027454
loop_
_atom_site_label
_atom_site_type_symbol
_atom_site_fract_x
_atom_site_fract_y
_atom_site_fract_z
Zn1	Zn	1.208227	-0.250748	0.446882
Zn2	Zn	1.541560	0.082585	0.780215
Zn3	Zn	1.874894	0.415918	1.113548
Zn4	Zn	1.208155	-0.355995	0.314692
Zn5	Zn	1.541488	-0.022662	0.648025
Zn6	Zn	1.874821	0.310671	0.981359
Zn7	Zn	1.076085	-0.250738	0.314719
Zn8	Zn	1.409418	0.082595	0.648053
Zn9	Zn	1.742751	0.415928	0.981386
Zn10	Zn	1.075996	-0.355978	0.446830
Zn11	Zn	1.409329	-0.022645	0.780164
Zn12	Zn	1.742663	0.310689	1.113497
O13	O	1.142116	-0.303365	0.380781
O14	O	1.475449	0.029968	0.714114
O15	O	1.808782	0.363302	1.047447
O16	O	1.318828	-0.264721	0.429356
O17	O	1.652162	0.068612	0.762690
O18	O	1.985495	0.401946	1.096023
O19	O	1.190642	-0.342036	0.204085
O20	O	1.523976	-0.008703	0.537418
O21	O	1.857309	0.324631	0.870751
O22	O	1.093681	-0.162650	0.332284
O23	O	1.427014	0.170683	0.665617
O24	O	1.760348	0.504016	0.998950
O25	O	1.318775	-0.342046	0.332237
O26	O	1.652109	-0.008712	0.665570
O27	O	1.985442	0.324621	0.998904
O28	O	1.190765	-0.162658	0.429383
O29	O	1.524099	0.170676	0.762716
O30	O	1.857432	0.504009	1.096050
O31	O	1.093611	-0.264704	0.204105
O32	O	1.426944	0.068629	0.537438
O33	O	1.760278	0.401962	0.870771
O34	O	0.965462	-0.264687	0.332234
O35	O	1.298795	0.068646	0.665567
O36	O	1.632129	0.401979	0.998901
O37	O	1.093530	-0.342016	0.557448
O38	O	1.426863	-0.008683	0.890781
O39	O	1.760196	0.324651	1.224115
O40	O	0.965397	-0.342006	0.429296
O41	O	1.298730	-0.008673	0.762629
O42	O	1.632064	0.324660	1.095962
O43	O	1.190679	-0.264704	0.557486
O44	O	1.524013	0.068629	0.890819
O45	O	1.857346	0.401962	1.224152
O46	O	1.190556	-0.444083	0.332187
O47	O	1.523890	-0.110749	0.665521
O48	O	1.857223	0.222584	0.998854
O49	O	1.093460	-0.444070	0.429269
O50	O	1.426793	-0.110736	0.762602
O51	O	1.760126	0.222597	1.095936
C52	C	0.936749	-0.303344	0.380763
C53	C	1.270083	0.029989	0.714096
C54	C	1.603416	0.363322	1.047429
C55	C	0.848893	-0.303351	0.380774
C56	C	1.182226	0.029983	0.714107
C57	C	1.515559	0.363316	1.047440
C58	C	0.477427	-0.263072	0.330346
C59	C	0.810760	0.070261	0.663680
C60	C	1.144093	0.403595	0.997013
C61	C	0.477408	-0.343710	0.431260
C62	C	0.810741	-0.010377	0.764594
C63	C	1.144074	0.322957	1.097927
C64	C	0.559953	-0.343701	0.431256
C65	C	0.893287	-0.010368	0.764589
C66	C	1.226620	0.322966	1.097922
C67	C	0.601240	-0.303378	0.380795
C68	C	0.934573	0.029956	0.714128
C69	C	1.267906	0.363289	1.047461
C70	C	0.559980	-0.263063	0.330338
C71	C	0.893314	0.070270	0.663672
C72	C	1.226647	0.403603	0.997005
C73	C	0.601219	-0.384019	0.481705
C74	C	0.934553	-0.050686	0.815038
C75	C	1.267886	0.282648	1.148372
C76	C	0.683770	-0.384012	0.481702
C77	C	1.017104	-0.050679	0.815035
C78	C	1.350437	0.282655	1.148368
C79	C	0.725058	-0.343685	0.431244
C80	C	1.058391	-0.010352	0.764577
C81	C	1.391725	0.322982	1.097911
C82	C	0.683793	-0.303369	0.380786
C83	C	1.017127	0.029965	0.714120
C84	C	1.350460	0.363298	1.047453
C85	C	0.725080	-0.263045	0.330325
C86	C	1.058413	0.070288	0.663659
C87	C	1.391746	0.403621	0.996992
C88	C	0.683817	-0.222725	0.279871
C89	C	1.017150	0.110608	0.613205
C90	C	1.350483	0.443942	0.946538
C91	C	0.601268	-0.222736	0.279881
C92	C	0.934601	0.110597	0.613214
C93	C	1.267935	0.443931	0.946547
C94	C	0.807606	-0.343674	0.431235
C95	C	1.140940	-0.010341	0.764568
C96	C	1.474273	0.322993	1.097901
C97	C	0.807633	-0.263036	0.330317
C98	C	1.140967	0.070297	0.663651
C99	C	1.474300	0.403630	0.996984
C100	C	1.142012	-0.466917	0.380737
C101	C	1.475345	-0.133583	0.714070
C102	C	1.808679	0.199750	1.047404
C103	C	1.142040	-0.536885	0.380745
C104	C	1.475373	-0.203552	0.714078
C105	C	1.808707	0.129782	1.047411
C106	C	1.192643	-0.569737	0.330246
C107	C	1.525976	-0.236404	0.663579
C108	C	1.859310	0.096929	0.996913
C109	C	1.192680	-0.635480	0.330264
C110	C	1.526013	-0.302146	0.663597
C111	C	1.859347	0.031187	0.996931
C112	C	1.142100	-0.668367	0.380772
C113	C	1.475433	-0.335034	0.714105
C114	C	1.808767	-0.001701	1.047439
C115	C	1.091493	-0.635507	0.431280
C116	C	1.424827	-0.302174	0.764614
C117	C	1.758160	0.031160	1.097947
C118	C	1.091463	-0.569766	0.431267
C119	C	1.424797	-0.236432	0.764600
C120	C	1.758130	0.096901	1.097933
N121	N	1.072952	-0.771631	0.386792
N122	N	1.406285	-0.438298	0.720125
N123	N	1.739619	-0.104965	1.053458
N124	N	1.072983	-0.834083	0.386800
N125	N	1.406316	-0.500749	0.720133
N126	N	1.739649	-0.167416	1.053467
C127	C	1.142189	-0.866442	0.380817
C128	C	1.475522	-0.533109	0.714151
C129	C	1.808855	-0.199775	1.047484
N130	N	1.211364	-0.833991	0.374810
N131	N	1.544697	-0.500657	0.708144
N132	N	1.878031	-0.167324	1.041477
N133	N	1.211332	-0.771534	0.374798
N134	N	1.544666	-0.438200	0.708131
N135	N	1.877999	-0.104867	1.041465
C136	C	1.142127	-0.739653	0.380793
C137	C	1.475461	-0.406319	0.714126
C138	C	1.808794	-0.072986	1.047459
C139	C	1.192836	-0.970580	0.330335
C140	C	1.526169	-0.637247	0.663669
C141	C	1.859503	-0.303913	0.997002
C142	C	1.192874	-1.036324	0.330359
C143	C	1.526208	-0.702990	0.663692
C144	C	1.859541	-0.369657	0.997025
C145	C	1.091681	-1.036350	0.431371
C146	C	1.425014	-0.703016	0.764704
C147	C	1.758347	-0.369683	1.098038
C148	C	1.091649	-0.970607	0.431352
C149	C	1.424983	-0.637274	0.764685
C150	C	1.758316	-0.303941	1.098018
C151	C	1.142226	-0.937726	0.380830
C152	C	1.475559	-0.604393	0.714163
C153	C	1.808893	-0.271060	1.047496
C154	C	1.348284	-0.303386	0.380799
C155	C	1.681617	0.029947	0.714133
C156	C	2.014950	0.363280	1.047466
C157	C	1.436140	-0.303396	0.380807
C158	C	1.769474	0.029938	0.714141
C159	C	2.102807	0.363271	1.047474
C160	C	1.142103	-0.303359	0.586949
C161	C	1.475436	0.029974	0.920282
C162	C	1.808769	0.363307	1.253616
C163	C	1.142097	-0.303357	0.674806
C164	C	1.475430	0.029976	1.008139
C165	C	1.808764	0.363310	1.341472
C166	C	1.142241	-0.139175	0.380842
C167	C	1.475575	0.194158	0.714175
C168	C	1.808908	0.527492	1.047509
C169	C	1.142295	-0.069207	0.380868
C170	C	1.475628	0.264127	0.714201
C171	C	1.808961	0.597460	1.047535
C172	C	1.091527	-0.343627	1.046264
C173	C	1.424861	-0.010293	1.379597
C174	C	1.758194	0.323040	1.712931
C175	C	1.192690	-0.263121	1.046298
C176	C	1.526023	0.070212	1.379632
C177	C	1.859357	0.403545	1.712965
C178	C	1.192687	-0.263116	0.963752
C179	C	1.526021	0.070217	1.297086
C180	C	1.859354	0.403551	1.630419
C181	C	1.142105	-0.303367	0.922459
C182	C	1.475438	0.029966	1.255792
C183	C	1.808772	0.363299	1.589125
C184	C	1.091525	-0.343624	0.963710
C185	C	1.424858	-0.010291	1.297044
C186	C	1.758192	0.323043	1.630377
C187	C	1.243272	-0.222865	0.922494
C188	C	1.576605	0.110469	1.255828
C189	C	1.909939	0.443802	1.589161
C190	C	1.243272	-0.222858	0.839943
C191	C	1.576605	0.110475	1.173277
C192	C	1.909939	0.443808	1.506610
C193	C	1.192685	-0.263107	0.798648
C194	C	1.526018	0.070226	1.131981
C195	C	1.859352	0.403560	1.465315
C196	C	1.142102	-0.303365	0.839905
C197	C	1.475436	0.029969	1.173238
C198	C	1.808769	0.363302	1.506572
C199	C	1.091520	-0.343616	0.798611
C200	C	1.424853	-0.010283	1.131944
C201	C	1.758186	0.323051	1.465278
C202	C	1.040932	-0.383871	0.839867
C203	C	1.374266	-0.050538	1.173200
C204	C	1.707599	0.282796	1.506533
C205	C	1.040938	-0.383873	0.922415
C206	C	1.374271	-0.050539	1.255748
C207	C	1.707604	0.282794	1.589082
C208	C	1.192680	-0.263106	0.716099
C209	C	1.526013	0.070228	1.049433
C210	C	1.859346	0.403561	1.382766
C211	C	1.091517	-0.343613	0.716058
C212	C	1.424850	-0.010280	1.049391
C213	C	1.758184	0.323053	1.382724
C214	C	1.142118	-0.303382	1.175415
C215	C	1.475451	0.029951	1.508748
C216	C	1.808785	0.363285	1.842081
C217	C	1.142110	-0.303375	1.087558
C218	C	1.475443	0.029958	1.420891
C219	C	1.808777	0.363291	1.754225
H220	H	0.841243	-0.230196	0.289230
H221	H	1.174576	0.103138	0.622564
H222	H	1.507909	0.436471	0.955897
H223	H	1.050440	-0.943857	0.472469
H224	H	1.383773	-0.610524	0.805803
H225	H	1.717107	-0.277190	1.139136
H226	H	1.234021	-0.943807	0.289200
H227	H	1.567354	-0.610474	0.622533
H228	H	1.900688	-0.277141	0.955866
H229	H	0.841199	-0.376504	0.472311
H230	H	1.174533	-0.043171	0.805645
H231	H	1.507866	0.290163	1.138978
H232	H	1.233827	-0.542968	0.289110
H233	H	1.567161	-0.209634	0.622443
H234	H	1.900494	0.123699	0.955777
H235	H	1.233890	-0.662233	0.289142
H236	H	1.567223	-0.328900	0.622475
H237	H	1.900557	0.004433	0.955809
H238	H	1.050256	-0.543017	0.472390
H239	H	1.383589	-0.209683	0.805723
H240	H	1.716922	0.123650	1.139056
H241	H	0.717443	-0.189897	0.238782
H242	H	1.050776	0.143437	0.572116
H243	H	1.384109	0.476770	0.905449
H244	H	0.999752	-0.416646	0.806234
H245	H	1.333085	-0.083313	1.139568
H246	H	1.666418	0.250020	1.472901
H247	H	1.050312	-0.662288	0.472406
H248	H	1.383645	-0.328955	0.805739
H249	H	1.716979	0.004378	1.139072
H250	H	0.567598	-0.416853	0.522782
H251	H	0.900931	-0.083519	0.856115
H252	H	1.234265	0.249814	1.189449
H253	H	0.443827	-0.230243	0.289270
H254	H	0.777160	0.103091	0.622603
H255	H	1.110493	0.436424	0.955937
H256	H	0.717360	-0.416843	0.522785
H257	H	1.050693	-0.083509	0.856118
H258	H	1.384026	0.249824	1.189452
H259	H	1.284459	-0.190098	0.956122
H260	H	1.617792	0.143235	1.289455
H261	H	1.951125	0.476568	1.622788
H262	H	1.050501	-1.063126	0.472499
H263	H	1.383834	-0.729793	0.805832
H264	H	1.717167	-0.396459	1.139166
H265	H	0.999755	-0.416648	0.956013
H266	H	1.333088	-0.083315	1.289346
H267	H	1.666422	0.250019	1.622679
H268	H	1.050338	-0.376399	1.079858
H269	H	1.383672	-0.043066	1.413191
H270	H	1.717005	0.290267	1.746525
H271	H	1.233877	-0.230354	1.079925
H272	H	1.567210	0.102979	1.413258
H273	H	1.900543	0.436313	1.746591
H274	H	0.567664	-0.189910	0.238803
H275	H	0.900998	0.143423	0.572136
H276	H	1.234331	0.476756	0.905469
H277	H	0.443787	-0.376543	0.472339
H278	H	0.777121	-0.043210	0.805672
H279	H	1.110454	0.290124	1.139005
H280	H	1.050319	-0.376386	0.682442
H281	H	1.383652	-0.043052	1.015775
H282	H	1.716986	0.290281	1.349109
H283	H	1.284463	-0.190080	0.806360
H284	H	1.617796	0.143253	1.139693
H285	H	1.951129	0.476587	1.473027
H286	H	1.234086	-1.063071	0.289238
H287	H	1.567420	-0.729738	0.622571
H288	H	1.900753	-0.396404	0.955905
H289	H	1.233869	-0.230332	0.682513
H290	H	1.567202	0.103001	1.015846
H291	H	1.900536	0.436334	1.349180
