data_functionalizedCrystal
_audit_creation_method	'MofGen! by Chris Wilmer'
_symmetry_space_group_name_H-M	'P1'
_symmetry_Int_Tables_number	1
_symmetry_cell_setting	triclinic
loop_
_symmetry_equiv_pos_as_xyz
  x,y,z
_cell_length_a	19.188933
_cell_length_b	27.732025
_cell_length_c	18.266242
_cell_angle_alpha	90.008162
_cell_angle_beta	89.992377
_cell_angle_gamma	82.889519
loop_
_atom_site_label
_atom_site_type_symbol
_atom_site_fract_x
_atom_site_fract_y
_atom_site_fract_z
O1	O	0.925756	0.060353	-0.060833
O2	O	0.722393	0.068476	-0.060837
O3	O	0.830399	-0.005964	-0.060857
O4	O	0.817750	0.134793	-0.060813
O5	O	0.830381	-0.005967	0.060905
O6	O	0.722374	0.068472	0.060925
O7	O	0.925738	0.060349	0.060929
Zn8	Zn	0.824053	0.064410	0.080259
Zn9	Zn	0.824077	0.064415	-0.080167
O10	O	0.817732	0.134789	0.060949
C11	C	0.696374	0.068211	0.000043
C12	C	0.618875	0.067421	0.000040
C13	C	0.065666	0.061784	-0.066326
C14	C	0.138485	0.062523	-0.066329
C15	C	0.174890	0.062893	0.000044
C16	C	0.138472	0.062511	0.066424
C17	C	0.065655	0.061767	0.066424
N18	N	0.283716	0.091566	0.049457
N19	N	0.352889	0.092275	0.049451
C20	C	0.394284	0.065135	0.000046
N21	N	0.363892	0.037266	-0.049366
N22	N	0.294712	0.036560	-0.049363
C23	C	0.253848	0.063700	0.000050
C24	C	0.509654	0.066315	-0.066333
C25	C	0.582475	0.067052	-0.066333
C26	C	0.582459	0.067044	0.066421
C27	C	0.509640	0.066303	0.066419
C28	C	0.473241	0.065941	0.000040
C29	C	0.830127	-0.023974	0.000016
C30	C	0.829334	-0.077631	-0.000005
C31	C	0.823716	-0.460812	-0.066335
C32	C	0.826680	-0.259144	-0.066359
O33	O	0.827100	-0.233073	-0.122808
N34	N	0.827041	-0.233923	0.000012
C35	C	0.826665	-0.259124	0.066393
O36	O	0.827047	-0.233046	0.122844
C37	C	0.823706	-0.460792	0.066416
C38	C	0.823338	-0.486009	0.000041
C39	C	0.823349	-0.486029	-0.132705
C40	C	0.822604	-0.536443	-0.132698
C41	C	0.822226	-0.561640	-0.066322
C42	C	0.822593	-0.536422	0.000047
C43	C	0.823335	-0.485992	0.132796
C44	C	0.822597	-0.536412	0.132796
C45	C	0.822229	-0.561629	0.066421
C46	C	0.821470	-0.612033	0.066430
N47	N	0.821109	-0.637253	0.000059
C48	C	0.821487	-0.612056	-0.066317
C49	C	0.828218	-0.153245	0.066376
C50	C	0.828956	-0.102828	0.066371
C51	C	0.828973	-0.102852	-0.066381
C52	C	0.828229	-0.153269	-0.066375
C53	C	0.827857	-0.178465	0.000006
C54	C	0.819922	-0.717929	-0.066298
C55	C	0.819174	-0.768347	-0.066285
C56	C	0.819162	-0.768319	0.066466
C57	C	0.819906	-0.717905	0.066454
C58	C	0.820288	-0.692712	0.000066
O59	O	0.821058	-0.638135	0.122849
O60	O	0.821121	-0.638145	-0.122760
C61	C	0.824461	-0.410398	-0.066342
C62	C	0.824828	-0.385181	0.000028
C63	C	0.824450	-0.410378	0.066404
C64	C	0.825566	-0.334764	0.000022
C65	C	0.825944	-0.309568	-0.066354
C66	C	0.825584	-0.334788	-0.132724
C67	C	0.824839	-0.385202	-0.132718
C68	C	0.824811	-0.385158	0.132774
C69	C	0.825555	-0.334744	0.132762
C70	C	0.825933	-0.309547	0.066386
C71	C	0.951757	0.060614	0.000047
C72	C	1.029256	0.061404	0.000045
C73	C	0.818004	0.152799	0.000074
C74	C	0.818796	0.206457	0.000091
N75	N	0.824042	0.064406	0.189746
N76	N	0.824094	0.064415	-0.189654
C77	C	0.871883	0.031461	0.228046
C78	C	0.871887	0.031458	0.304691
C79	C	0.824058	0.064410	0.343033
C80	C	0.776208	0.097358	0.304724
C81	C	0.776200	0.097357	0.228080
N82	N	0.814704	0.107201	0.463379
N83	N	0.814716	0.107201	0.536187
C84	C	0.824077	0.064417	0.573955
N85	N	0.833440	0.021632	0.536165
N86	N	0.833432	0.021632	0.463351
C87	C	0.824061	0.064416	0.426140
C88	C	0.871925	0.031466	0.695362
C89	C	0.871925	0.031463	0.772009
C90	C	0.776249	0.097368	0.772040
C91	C	0.776246	0.097366	0.695395
C92	C	0.824088	0.064416	0.657061
H93	H	0.168136	0.062835	-0.120378
F94	F	0.725331	0.132434	0.654631
F95	F	0.922842	-0.003606	0.812772
F96	F	0.822219	-0.563275	-0.203344
H97	H	0.612099	0.067344	0.120463
F98	F	0.825938	-0.307911	0.203413
F99	F	0.827839	-0.180102	-0.137019
F100	F	0.026932	0.061395	-0.136973
F101	F	0.725341	0.132434	0.812843
F102	F	0.922797	-0.003609	0.187249
H103	H	0.168117	0.062811	0.120464
H104	H	0.479994	0.065996	0.120466
F105	F	0.026903	0.061364	0.137069
F106	F	0.470913	0.065927	-0.136978
F107	F	0.824408	-0.411967	0.203425
H108	H	0.737242	0.124185	0.196896
F109	F	0.725302	0.132427	0.345531
H110	H	0.910879	0.004635	0.664149
F111	F	0.818781	-0.795182	-0.136934
F112	F	0.621226	0.067451	-0.136978
F113	F	0.820329	-0.691123	-0.136955
H114	H	0.823659	-0.465520	-0.186759
H115	H	0.824539	-0.405729	-0.186767
H116	H	0.829276	-0.082327	-0.120427
H117	H	0.829243	-0.082299	0.120420
H118	H	0.827915	-0.173755	0.120434
H119	H	0.823642	-0.465469	0.186846
H120	H	0.825886	-0.314264	-0.186770
F121	F	0.820294	-0.691066	0.137097
F122	F	0.822203	-0.563225	0.203449
F123	F	0.818754	-0.795144	0.137104
F124	F	0.922808	-0.003609	0.345459
