data_functionalizedCrystal
_audit_creation_method	'MofGen! by Chris Wilmer'
_symmetry_space_group_name_H-M	'P1'
_symmetry_Int_Tables_number	1
_symmetry_cell_setting	triclinic
loop_
_symmetry_equiv_pos_as_xyz
  x,y,z
_cell_length_a	16.959454
_cell_length_b	12.759401
_cell_length_c	12.759393
_cell_angle_alpha	89.980858
_cell_angle_beta	89.970108
_cell_angle_gamma	90.019747
loop_
_atom_site_label
_atom_site_type_symbol
_atom_site_fract_x
_atom_site_fract_y
_atom_site_fract_z
Zn1	Zn	-0.314648	1.606213	-0.594015
Zn2	Zn	0.185352	2.106213	-0.094015
Zn3	Zn	-0.446848	1.606092	-0.418337
Zn4	Zn	0.053152	2.106092	0.081663
Zn5	Zn	-0.314687	1.430516	-0.418351
Zn6	Zn	0.185313	1.930516	0.081649
Zn7	Zn	-0.446788	1.430487	-0.593976
Zn8	Zn	0.053212	1.930487	-0.093976
O9	O	-0.380743	1.518327	-0.506170
O10	O	0.119257	2.018327	-0.006170
O11	O	-0.332194	1.753218	-0.570721
O12	O	0.167806	2.253218	-0.070721
O13	O	-0.429358	1.582762	-0.271318
O14	O	0.070642	2.082762	0.228682
O15	O	-0.204071	1.453885	-0.441675
O16	O	0.295929	1.953885	0.058325
O17	O	-0.429320	1.753129	-0.441652
O18	O	0.070680	2.253129	0.058348
O19	O	-0.204042	1.582969	-0.570735
O20	O	0.295958	2.082969	-0.070735
O21	O	-0.332259	1.453768	-0.271328
O22	O	0.167741	1.953768	0.228672
O23	O	-0.332201	1.283491	-0.441638
O24	O	0.167799	1.783491	0.058362
O25	O	-0.429218	1.453836	-0.741002
O26	O	0.070782	1.953836	-0.241002
O27	O	-0.429255	1.283470	-0.570668
O28	O	0.070745	1.783470	-0.070668
O29	O	-0.332136	1.582941	-0.741031
O30	O	0.167864	2.082941	-0.241031
O31	O	-0.557451	1.582735	-0.441614
O32	O	-0.057451	2.082735	0.058386
O33	O	-0.557407	1.453719	-0.570655
O34	O	-0.057407	1.953719	-0.070655
C35	C	-0.380726	1.245359	-0.506151
C36	C	0.119274	1.745359	-0.006151
C37	C	-0.380738	1.128583	-0.506168
C38	C	0.119262	1.628583	-0.006168
C39	C	-0.431251	0.963951	-0.438890
C40	C	0.068749	1.463951	0.061110
C41	C	-0.431235	1.073675	-0.438872
C42	C	0.068765	1.573675	0.061128
C43	C	-0.330249	1.073761	-0.573479
C44	C	0.169751	1.573761	-0.073479
C45	C	-0.330261	0.964039	-0.573491
C46	C	0.169739	1.464039	-0.073491
C47	C	-0.481757	0.909049	-0.371597
C48	C	0.018243	1.409049	0.128403
C49	C	-0.532246	0.963864	-0.304284
C50	C	-0.032246	1.463864	0.195716
C51	C	-0.532230	1.073588	-0.304266
C52	C	-0.032230	1.573588	0.195734
C53	C	-0.481725	1.128497	-0.371561
C54	C	0.018275	1.628497	0.128439
C55	C	-0.586109	1.518239	-0.506152
C56	C	-0.086109	2.018239	-0.006152
C57	C	-0.673966	1.518297	-0.506179
C58	C	-0.173966	2.018297	-0.006179
C59	C	-1.045448	1.451246	-0.573354
C60	C	-0.545448	1.951246	-0.073354
C61	C	-1.045434	1.585701	-0.439092
C62	C	-0.545434	2.085701	0.060908
C63	C	-0.962888	1.585664	-0.439083
C64	C	-0.462888	2.085664	0.060917
C65	C	-0.921618	1.518416	-0.506209
C66	C	-0.421618	2.018416	-0.006209
C67	C	-0.962895	1.451205	-0.573344
C68	C	-0.462895	1.951205	-0.073344
C69	C	-0.921606	1.652866	-0.371941
C70	C	-0.421606	2.152866	0.128059
C71	C	-0.839055	1.652832	-0.371928
C72	C	-0.339055	2.152832	0.128072
C73	C	-0.797784	1.585588	-0.439060
C74	C	-0.297784	2.085588	0.060940
C75	C	-0.839065	1.518375	-0.506199
C76	C	-0.339065	2.018375	-0.006199
C77	C	-0.797795	1.451127	-0.573325
C78	C	-0.297795	1.951127	-0.073325
C79	C	-0.839075	1.383918	-0.640470
C80	C	-0.339075	1.883918	-0.140470
C81	C	-0.921623	1.383961	-0.640476
C82	C	-0.421623	1.883961	-0.140476
C83	C	-0.715235	1.585545	-0.439053
C84	C	-0.215235	2.085545	0.060947
C85	C	-0.715242	1.451086	-0.573315
C86	C	-0.215242	1.951086	-0.073315
C87	C	-0.174574	1.518444	-0.506211
C88	C	0.325426	2.018444	-0.006211
C89	C	-0.086718	1.518494	-0.506228
C90	C	0.413282	2.018494	-0.006228
C91	C	-0.380760	1.792360	-0.506189
C92	C	0.119240	2.292360	-0.006189
C93	C	-0.380767	1.909137	-0.506198
C94	C	0.119233	2.409137	-0.006198
C95	C	-0.380666	1.518399	-0.780203
C96	C	0.119334	2.018399	-0.280203
C97	C	-0.380633	1.518430	-0.896980
C98	C	0.119367	2.018430	-0.396980
C99	C	-0.431134	1.451259	-1.061554
C100	C	0.068866	1.951259	-0.561554
C101	C	-0.431163	1.451226	-0.951830
C102	C	0.068837	1.951226	-0.451830
C103	C	-0.330066	1.585662	-0.951860
C104	C	0.169934	2.085662	-0.451860
C105	C	-0.330033	1.585689	-1.061582
C106	C	0.169967	2.085689	-0.561582
C107	C	-0.481673	1.384058	-1.116398
C108	C	0.018327	1.884058	-0.616398
C109	C	-0.532240	1.316824	-1.061525
C110	C	-0.032240	1.816824	-0.561525
C111	C	-0.532268	1.316791	-0.951801
C112	C	-0.032268	1.816791	-0.451801
C113	C	-0.481730	1.383993	-0.896950
C114	C	0.018270	1.883993	-0.396950
C115	C	-0.380762	1.518316	-0.233202
C116	C	0.119238	2.018316	0.266798
C117	C	-0.380572	1.518488	-0.116426
C118	C	0.119428	2.018488	0.383574
H119	H	-0.481777	0.819706	-0.371606
H120	H	0.018223	1.319706	0.128394
H121	H	-0.805450	1.707557	-0.317256
H122	H	-0.305450	2.207557	0.182744
H123	H	-0.573361	0.919149	-0.249490
H124	H	-0.073361	1.419149	0.250510
H125	H	-1.079062	1.396529	-0.628025
H126	H	-0.579062	1.896529	-0.128025
H127	H	-0.573335	1.118215	-0.249450
H128	H	-0.073335	1.618215	0.250550
F129	F	-0.481760	1.383951	-0.780170
F130	F	0.018240	1.883951	-0.280170
H131	H	-0.573436	1.262037	-0.907127
H132	H	-0.073436	1.762037	-0.407127
F133	F	-0.965532	1.724435	-0.300510
F134	F	-0.465532	2.224435	0.199490
H135	H	-0.481710	1.217842	-0.371533
H136	H	0.018290	1.717842	0.128467
F137	F	-0.276281	1.657174	-0.893480
F138	F	0.223719	2.157174	-0.393480
H139	H	-0.481657	1.384079	-1.205741
H140	H	0.018343	1.884079	-0.705741
H141	H	-0.955241	1.329242	-0.695141
H142	H	-0.455241	1.829242	-0.195141
F143	F	-0.276504	1.132203	-0.645096
F144	F	0.223496	1.632203	-0.145096
H145	H	-0.289149	0.919408	-0.628294
H146	H	0.210851	1.419408	-0.128294
F147	F	-0.671326	1.379515	-0.644767
F148	F	-0.171326	1.879515	-0.144767
H149	H	-0.288858	1.640428	-1.106261
H150	H	0.211142	2.140428	-0.606261
F151	F	-0.795143	1.312346	-0.711903
F152	F	-0.295143	1.812346	-0.211903
F153	F	-1.089358	1.657266	-0.367656
F154	F	-0.589358	2.157266	0.132344
H155	H	-0.681629	1.640261	-0.384380
H156	H	-0.181629	2.140261	0.115620
H157	H	-0.573380	1.262103	-1.106193
H158	H	-0.073380	1.762103	-0.606193
