data_functionalizedCrystal
_audit_creation_method	'MofGen! by Chris Wilmer'
_symmetry_space_group_name_H-M	'P1'
_symmetry_Int_Tables_number	1
_symmetry_cell_setting	triclinic
loop_
_symmetry_equiv_pos_as_xyz
  x,y,z
_cell_length_a	19.288864
_cell_length_b	11.026607
_cell_length_c	18.366186
_cell_angle_alpha	89.996969
_cell_angle_beta	89.977106
_cell_angle_gamma	95.861131
loop_
_atom_site_label
_atom_site_type_symbol
_atom_site_fract_x
_atom_site_fract_y
_atom_site_fract_z
O1	O	0.940539	0.151279	-0.060786
O2	O	1.440539	0.651279	0.439214
O3	O	0.740867	0.171686	-0.060737
O4	O	1.240867	0.671686	0.439263
O5	O	0.824154	-0.015080	-0.060755
O6	O	1.324154	0.484920	0.439245
O7	O	0.857252	0.338045	-0.060768
O8	O	1.357252	0.838045	0.439232
O9	O	0.824135	-0.015089	0.060345
O10	O	1.324135	0.484911	0.560345
O11	O	0.740847	0.171677	0.060363
O12	O	1.240847	0.671677	0.560363
O13	O	0.940520	0.151270	0.060313
O14	O	1.440520	0.651270	0.560313
Zn15	Zn	0.840681	0.161472	0.079565
Zn16	Zn	1.340681	0.661472	0.579565
Zn17	Zn	0.840706	0.161484	-0.079988
Zn18	Zn	1.340706	0.661484	0.420012
O19	O	0.857232	0.338036	0.060331
O20	O	1.357232	0.838036	0.560331
C21	C	0.714897	0.171025	-0.000181
C22	C	1.214897	0.671025	0.499819
C23	C	0.637544	0.169054	-0.000161
C24	C	1.137544	0.669054	0.499839
C25	C	0.818039	-0.060262	-0.000204
C26	C	1.318039	0.439738	0.499796
C27	C	0.799837	-0.194876	-0.000202
C28	C	1.299837	0.305124	0.499798
C29	C	0.606746	0.278640	-0.000177
C30	C	1.106746	0.778640	0.499823
C31	C	0.534064	0.276788	-0.000185
C32	C	1.034064	0.776788	0.499815
C33	C	0.492182	0.165344	-0.000192
C34	C	0.992182	0.665344	0.499808
C35	C	0.522988	0.055744	-0.000172
C36	C	1.022988	0.555744	0.499828
C37	C	0.595669	0.057599	-0.000157
C38	C	1.095669	0.557599	0.499843
C39	C	0.372816	0.077740	-0.042640
C40	C	0.872816	0.577740	0.457360
C41	C	0.300137	0.075890	-0.042659
C42	C	0.800137	0.575890	0.457341
C43	C	0.268011	0.159618	-0.000236
C44	C	0.768011	0.659618	0.499764
C45	C	0.308573	0.245218	0.042198
C46	C	0.808573	0.745218	0.542198
C47	C	0.381254	0.247073	0.042213
C48	C	0.881254	0.747073	0.542213
C49	C	0.413372	0.163320	-0.000208
C50	C	0.913372	0.663320	0.499792
C51	C	0.158403	0.267204	-0.000259
C52	C	0.658403	0.767204	0.499741
C53	C	0.085720	0.265347	-0.000263
C54	C	0.585720	0.765347	0.499737
C55	C	0.074645	0.044300	-0.000257
C56	C	0.574645	0.544300	0.499743
C57	C	0.147327	0.046159	-0.000246
C58	C	0.647327	0.546159	0.499754
C59	C	0.189202	0.157615	-0.000251
C60	C	0.689202	0.657615	0.499749
C61	C	0.850095	-0.268957	-0.000216
C62	C	1.350095	0.231043	0.499784
C63	C	0.831284	-0.408088	-0.000214
C64	C	1.331284	0.091912	0.499786
C65	C	0.966489	0.151931	-0.000244
C66	C	1.466489	0.651931	0.499756
C67	C	1.043843	0.153902	-0.000268
C68	C	1.543843	0.653902	0.499732
C69	C	0.863348	0.383218	-0.000221
C70	C	1.363348	0.883218	0.499779
C71	C	0.881550	0.517833	-0.000227
C72	C	1.381550	1.017833	0.499773
N73	N	0.840668	0.161463	0.188456
N74	N	1.340668	0.661463	0.688456
N75	N	0.840723	0.161484	-0.188880
N76	N	1.340723	0.661484	0.311120
C77	C	0.877569	0.078804	0.226549
C78	C	1.377569	0.578804	0.726549
C79	C	0.877572	0.078798	0.302777
C80	C	1.377572	0.578798	0.802777
C81	C	0.840685	0.161473	0.340909
C82	C	1.340685	0.661473	0.840909
C83	C	0.803777	0.244139	0.302807
C84	C	1.303777	0.744139	0.802807
C85	C	0.803768	0.244134	0.226581
C86	C	1.303768	0.744134	0.726581
C87	C	0.845400	0.271967	0.461667
C88	C	1.345400	0.771967	0.961667
C89	C	0.845414	0.271974	0.537891
C90	C	1.345414	0.771974	1.037891
C91	C	0.840707	0.161488	0.576017
C92	C	1.340707	0.661488	1.076017
C93	C	0.836000	0.050992	0.537907
C94	C	1.336000	0.550992	1.037907
C95	C	0.835992	0.050987	0.461681
C96	C	1.335992	0.550987	0.961681
C97	C	0.840689	0.161487	0.423564
C98	C	1.340689	0.661487	0.923564
C99	C	0.877613	0.078816	0.696764
C100	C	1.377613	0.578816	1.196764
C101	C	0.877611	0.078809	0.772993
C102	C	1.377611	0.578809	1.272993
C103	C	0.803820	0.244161	0.773023
C104	C	1.303820	0.744161	1.273023
C105	C	0.803817	0.244157	0.696795
C106	C	1.303817	0.744157	1.196795
C107	C	0.840717	0.161486	0.658670
C108	C	1.340717	0.661486	1.158670
H109	H	0.640837	0.369396	-0.000182
H110	H	1.140837	0.869396	0.499818
H111	H	0.773773	0.311471	0.665778
H112	H	1.273773	0.811471	1.165778
H113	H	0.938508	-0.442594	-0.000296
H114	H	1.438508	0.057406	0.499704
H115	H	0.488883	-0.034995	-0.000188
H116	H	0.988883	0.465005	0.499812
H117	H	0.398967	0.009556	-0.077190
H118	H	0.898967	0.509556	0.422810
H119	H	0.907622	0.011484	0.333797
H120	H	1.407622	0.511484	0.833797
O121	O	0.628893	-0.060601	-0.000144
O122	O	1.128893	0.439399	0.499856
H123	H	0.587563	-0.138410	-0.000152
H124	H	1.087563	0.361590	0.499848
O125	O	0.724391	-0.247285	-0.000179
O126	O	1.224391	0.252715	0.499821
H127	H	0.721455	-0.348340	-0.000173
H128	H	1.221455	0.151660	0.499827
H129	H	0.849250	0.361946	0.568914
H130	H	1.349250	0.861946	1.068914
O131	O	0.425001	0.339387	0.087983
O132	O	0.925001	0.839387	0.587983
H133	H	0.480936	0.326611	0.080860
H134	H	0.980936	0.826611	0.580860
O135	O	0.180546	-0.072043	-0.000235
O136	O	0.680546	0.427957	0.499765
H137	H	0.238121	-0.052031	-0.000217
H138	H	0.738121	0.447969	0.499783
H139	H	0.907613	0.011485	0.195510
H140	H	1.407613	0.511485	0.695510
O141	O	0.925542	-0.216548	-0.000234
O142	O	1.425542	0.283452	0.499766
H143	H	0.928477	-0.115493	-0.000228
H144	H	1.428477	0.384507	0.499772
H145	H	0.282418	0.313397	0.076744
H146	H	0.782418	0.813397	0.576744
O147	O	0.755834	-0.460491	-0.000190
O148	O	1.255834	0.039509	0.499810
H149	H	0.752898	-0.561546	-0.000185
H150	H	1.252898	-0.061546	0.499815
O151	O	0.830904	-0.068179	0.420574
O152	O	1.330904	0.431821	0.920574
H153	H	0.827626	-0.145012	0.459885
H154	H	1.327626	0.354988	0.959885
H155	H	0.267116	0.006194	-0.077215
H156	H	0.767116	0.506194	0.422785
O157	O	0.830916	-0.068189	0.579014
O158	O	1.330916	0.431811	1.079014
H159	H	0.831702	-0.049629	0.638421
H160	H	1.331702	0.450371	1.138421
H161	H	0.907656	0.011497	0.665722
H162	H	1.407656	0.511497	1.165722
H163	H	0.040545	-0.046440	-0.000308
H164	H	0.540545	0.453560	0.499692
H165	H	0.849222	0.361943	0.430631
H166	H	1.349222	0.861943	0.930631
H167	H	0.907657	0.011491	0.804009
H168	H	1.407657	0.511491	1.304009
O169	O	0.764034	0.333339	0.814138
O170	O	1.264034	0.833339	1.314138
H171	H	0.770242	0.319462	0.873544
H172	H	1.270242	0.819462	1.373544
O173	O	0.763998	0.333329	0.343926
O174	O	1.263998	0.833329	0.843926
H175	H	0.723884	0.282447	0.378688
H176	H	1.223884	0.782447	0.878688
O177	O	0.500833	0.394987	-0.000210
O178	O	1.000833	0.894987	0.499790
H179	H	0.542162	0.472799	-0.000215
H180	H	1.042162	0.972799	0.499785
O181	O	0.203576	0.387408	-0.000249
O182	O	0.703576	0.887408	0.499751
H183	H	0.169947	0.463302	-0.000247
H184	H	0.669947	0.963302	0.499753
H185	H	0.773719	0.311447	0.195565
H186	H	1.273719	0.811447	0.695565
H187	H	0.060646	0.354589	-0.000271
H188	H	0.560646	0.854589	0.499729
