data_functionalizedCrystal
_audit_creation_method	'MofGen! by Chris Wilmer'
_symmetry_space_group_name_H-M	'P1'
_symmetry_Int_Tables_number	1
_symmetry_cell_setting	triclinic
loop_
_symmetry_equiv_pos_as_xyz
  x,y,z
_cell_length_a	18.215407
_cell_length_b	13.897447
_cell_length_c	18.215399
_cell_angle_alpha	89.972535
_cell_angle_beta	89.983176
_cell_angle_gamma	90.019978
loop_
_atom_site_label
_atom_site_type_symbol
_atom_site_fract_x
_atom_site_fract_y
_atom_site_fract_z
Zn1	Zn	1.125077	-0.383990	-0.416131
Zn2	Zn	1.625077	0.116010	0.083869
Zn3	Zn	1.125004	-0.545307	-0.293071
Zn4	Zn	1.625004	-0.045307	0.206929
Zn5	Zn	1.002017	-0.384029	-0.293078
Zn6	Zn	1.502017	0.115971	0.206922
Zn7	Zn	1.001987	-0.545246	-0.416096
Zn8	Zn	1.501987	-0.045246	0.083904
O9	O	1.063521	-0.464643	-0.354594
O10	O	1.563521	0.035357	0.145406
O11	O	1.228052	-0.405399	-0.399818
O12	O	1.728052	0.094601	0.100182
O13	O	1.108671	-0.523954	-0.190087
O14	O	1.608671	-0.023954	0.309913
O15	O	1.018384	-0.249042	-0.309419
O16	O	1.518384	0.250958	0.190581
O17	O	1.227998	-0.523917	-0.309406
O18	O	1.727998	-0.023917	0.190594
O19	O	1.108796	-0.249014	-0.399825
O20	O	1.608796	0.250986	0.100175
O21	O	1.018312	-0.405464	-0.190093
O22	O	1.518312	0.094536	0.309907
O23	O	0.899028	-0.405405	-0.309385
O24	O	1.399028	0.094595	0.190615
O25	O	1.018334	-0.523814	-0.519084
O26	O	1.518334	-0.023814	-0.019084
O27	O	0.899007	-0.523851	-0.399765
O28	O	1.399007	-0.023851	0.100235
O29	O	1.108768	-0.405340	-0.519110
O30	O	1.608768	0.094660	-0.019110
O31	O	1.108642	-0.680280	-0.309372
O32	O	1.608642	-0.180280	0.190628
O33	O	1.018263	-0.680236	-0.399758
O34	O	1.518263	-0.180236	0.100242
C35	C	0.872315	-0.464627	-0.354573
C36	C	1.372315	0.035373	0.145427
C37	C	0.790516	-0.464643	-0.354581
C38	C	1.290516	0.035357	0.145419
C39	C	1.063461	-0.715257	-0.354577
C40	C	1.563461	-0.215257	0.145423
C41	C	1.063503	-0.822471	-0.354594
C42	C	1.563503	-0.322471	0.145406
C43	C	0.602330	-0.526414	-0.401583
C44	C	1.102330	-0.026414	0.098417
C45	C	0.525472	-0.526417	-0.401592
C46	C	1.025472	-0.026417	0.098408
C47	C	0.525464	-0.402889	-0.307620
C48	C	1.025464	0.097111	0.192380
C49	C	0.602322	-0.402882	-0.307616
C50	C	1.102322	0.097118	0.192384
C51	C	0.640753	-0.464650	-0.354596
C52	C	1.140753	0.035350	0.145404
C53	C	0.487037	-0.464660	-0.354610
C54	C	0.987037	0.035340	0.145390
C55	C	0.403703	-0.464663	-0.354619
C56	C	0.903703	0.035337	0.145381
C57	C	0.724092	-0.464646	-0.354587
C58	C	1.224092	0.035354	0.145413
C59	C	1.063539	-0.909541	-0.354611
C60	C	1.563539	-0.409541	0.145389
C61	C	1.063590	-1.018773	-0.354630
C62	C	1.563590	-0.518773	0.145370
C63	C	1.255474	-0.464660	-0.354615
C64	C	1.755474	0.035340	0.145385
C65	C	1.337273	-0.464668	-0.354625
C66	C	1.837273	0.035332	0.145375
C67	C	1.063556	-0.464566	-0.546547
C68	C	1.563556	0.035434	-0.046547
C69	C	1.063571	-0.464533	-0.628346
C70	C	1.563571	0.035467	-0.128346
C71	C	1.063601	-0.213050	-0.354627
C72	C	1.563601	0.286950	0.145373
C73	C	1.063636	-0.105836	-0.354641
C74	C	1.563636	0.394164	0.145359
C75	C	1.016561	-0.402794	-0.816543
C76	C	1.516561	0.097206	-0.316543
C77	C	1.016574	-0.402774	-0.893402
C78	C	1.516574	0.097226	-0.393402
C79	C	1.110669	-0.526158	-0.893386
C80	C	1.610669	-0.026158	-0.393386
C81	C	1.110652	-0.526181	-0.816528
C82	C	1.610652	-0.026181	-0.316528
C83	C	1.063599	-0.464494	-0.778109
C84	C	1.563599	0.035506	-0.278109
C85	C	1.063629	-0.464451	-0.931825
C86	C	1.563629	0.035549	-0.431825
C87	C	1.063643	-0.464430	-1.015159
C88	C	1.563643	0.035570	-0.515159
C89	C	1.063584	-0.464515	-0.694770
C90	C	1.563584	0.035485	-0.194770
C91	C	1.063529	-0.464650	-0.163387
C92	C	1.563529	0.035350	0.336613
C93	C	1.063657	-0.464411	-0.081589
C94	C	1.563657	0.035589	0.418411
H95	H	0.633619	-0.576708	-0.439839
H96	H	1.133619	-0.076708	0.060161
H97	H	1.148957	-0.576429	-0.785234
H98	H	1.648957	-0.076429	-0.285234
O99	O	1.161417	-0.592690	-0.934824
O100	O	1.661417	-0.092690	-0.434824
H101	H	1.219177	-0.576162	-0.920073
H102	H	1.719177	-0.076162	-0.420073
O103	O	0.484009	-0.336277	-0.256949
O104	O	0.984009	0.163723	0.243051
H105	H	0.523641	-0.293319	-0.224280
H106	H	1.023641	0.206681	0.275720
O107	O	0.965808	-0.336267	-0.775106
O108	O	1.465808	0.163733	-0.275106
H109	H	0.998754	-0.287196	-0.740109
H110	H	1.498754	0.212804	-0.240109
H111	H	0.494192	-0.576711	-0.439855
H112	H	0.994192	-0.076711	0.060145
H113	H	0.633606	-0.352580	-0.269353
H114	H	1.133606	0.147420	0.230647
O115	O	0.965846	-0.336220	-0.934859
O116	O	1.465846	0.163780	-0.434859
H117	H	0.933132	-0.293326	-0.895229
H118	H	1.433132	0.206674	-0.395229
