data_functionalizedCrystal
_audit_creation_method	'MofGen! by Chris Wilmer'
_symmetry_space_group_name_H-M	'P1'
_symmetry_Int_Tables_number	1
_symmetry_cell_setting	triclinic
loop_
_symmetry_equiv_pos_as_xyz
  x,y,z
_cell_length_a	17.637815
_cell_length_b	13.897449
_cell_length_c	17.640280
_cell_angle_alpha	101.199189
_cell_angle_beta	87.852258
_cell_angle_gamma	101.192654
loop_
_atom_site_label
_atom_site_type_symbol
_atom_site_fract_x
_atom_site_fract_y
_atom_site_fract_z
Zn1	Zn	-0.368363	1.479783	0.389108
Zn2	Zn	-0.215738	1.542375	0.490436
Zn3	Zn	-0.241383	1.343499	0.363469
Zn4	Zn	-0.342687	1.356127	0.516053
O5	O	-0.292043	1.430446	0.439766
O6	O	-0.348130	1.623067	0.402559
O7	O	-0.112870	1.536903	0.452143
O8	O	-0.279705	1.330098	0.260607
O9	O	-0.235997	1.669053	0.477004
O10	O	-0.372997	1.430226	0.279445
O11	O	-0.131711	1.390790	0.358861
O12	O	-0.254808	1.210194	0.383700
O13	O	-0.452363	1.351620	0.520664
O14	O	-0.329235	1.219471	0.495802
O15	O	-0.471227	1.442470	0.427399
O16	O	-0.211100	1.549148	0.600097
O17	O	-0.304369	1.412312	0.618917
C18	C	-0.292019	1.179833	0.439749
C19	C	-0.292023	1.072622	0.439764
C20	C	-0.292035	0.985551	0.439769
C21	C	-0.292057	0.876315	0.439779
C22	C	-0.490120	1.391472	0.479749
C23	C	-0.574529	1.374863	0.496787
C24	C	-0.901243	1.556746	0.310051
C25	C	-0.980554	1.541134	0.326078
C26	C	-0.960902	1.446540	0.423187
C27	C	-0.881587	1.462148	0.407171
C28	C	-0.851764	1.517251	0.350601
C29	C	-0.832108	1.422653	0.447721
C30	C	-0.752800	1.438256	0.431703
C31	C	-0.722971	1.493353	0.375135
C32	C	-0.772456	1.532853	0.334583
C33	C	-0.861933	1.367545	0.504286
C34	C	-0.812454	1.328050	0.544837
C35	C	-0.733144	1.343658	0.528823
C36	C	-0.703315	1.398756	0.472254
C37	C	-0.683660	1.304158	0.569374
C38	C	-0.604352	1.319761	0.553356
C39	C	-0.624008	1.414358	0.456236
C40	C	-0.094747	1.469308	0.399885
C41	C	-0.010382	1.486040	0.382633
C42	C	-0.292067	1.682037	0.439784
C43	C	-0.292078	1.789251	0.439792
C44	C	-0.252182	1.488915	0.637063
C45	C	-0.235155	1.514012	0.721472
C46	C	-0.332076	1.371771	0.241703
C47	C	-0.349135	1.346768	0.157300
C48	C	-0.421672	1.240131	1.048158
C49	C	-0.405648	1.263719	1.127469
C50	C	-0.308626	1.406263	1.107826
C51	C	-0.324644	1.382689	1.028512
C52	C	-0.381168	1.299621	0.998685
C53	C	-0.284140	1.442180	0.979039
C54	C	-0.300154	1.418604	0.899732
C55	C	-0.356673	1.335538	0.869899
C56	C	-0.397182	1.276046	0.919378
C57	C	-0.227613	1.525244	1.008867
C58	C	-0.187108	1.584734	0.959394
C59	C	-0.203126	1.561163	0.880086
C60	C	-0.259645	1.478097	0.850252
C61	C	-0.162617	1.620656	0.830606
C62	C	-0.178632	1.597080	0.751299
C63	C	-0.275660	1.454522	0.770946
H64	H	-0.599724	1.459234	0.410175
H65	H	-0.748172	1.577729	0.288522
H66	H	-0.876959	1.601621	0.263990
H67	H	-1.020840	1.573293	0.293048
H68	H	-0.214578	1.544438	1.073445
H69	H	-0.141085	1.652366	0.983690
H70	H	-0.116591	1.688284	0.854903
H71	H	-0.145648	1.645523	0.711017
H72	H	-0.836748	1.283183	0.590894
H73	H	-0.438646	1.215279	1.167751
H74	H	-0.262603	1.473895	1.132122
H75	H	-0.658393	1.506057	0.362094
H76	H	-0.321692	1.386885	0.746661
H77	H	-0.926513	1.354832	0.517319
H78	H	-0.985196	1.401673	0.469244
H79	H	-0.707955	1.259286	0.615427
H80	H	-0.564067	1.287581	0.586365
H81	H	-0.369706	1.316339	0.805320
H82	H	-0.443215	1.208409	0.895094
H83	H	-0.467705	1.172494	1.023874
