data_functionalizedCrystal
_audit_creation_method	'MofGen! by Chris Wilmer'
_symmetry_space_group_name_H-M	'P1'
_symmetry_Int_Tables_number	1
_symmetry_cell_setting	triclinic
loop_
_symmetry_equiv_pos_as_xyz
  x,y,z
_cell_length_a	29.839134
_cell_length_b	16.120507
_cell_length_c	16.120297
_cell_angle_alpha	84.388175
_cell_angle_beta	92.868807
_cell_angle_gamma	87.070741
loop_
_atom_site_label
_atom_site_type_symbol
_atom_site_fract_x
_atom_site_fract_y
_atom_site_fract_z
Zn1	Zn	0.663643	0.356870	-0.489657
Zn2	Zn	0.913643	0.606870	-0.239657
Zn3	Zn	1.163643	0.856870	0.010343
Zn4	Zn	1.413643	1.106870	0.260343
Zn5	Zn	0.663576	0.489560	-0.356963
Zn6	Zn	0.913576	0.739560	-0.106963
Zn7	Zn	1.163576	0.989560	0.143037
Zn8	Zn	1.413576	1.239560	0.393037
Zn9	Zn	0.592530	0.349793	-0.349881
Zn10	Zn	0.842530	0.599793	-0.099881
Zn11	Zn	1.092530	0.849793	0.150119
Zn12	Zn	1.342530	1.099793	0.400119
Zn13	Zn	0.584475	0.496587	-0.496659
Zn14	Zn	0.834475	0.746587	-0.246659
Zn15	Zn	1.084475	0.996587	0.003341
Zn16	Zn	1.334475	1.246587	0.253341
O17	O	0.626056	0.423203	-0.423290
O18	O	0.876056	0.673203	-0.173290
O19	O	1.126056	0.923203	0.076710
O20	O	1.376056	1.173203	0.326710
O21	O	0.726500	0.374493	-0.472089
O22	O	0.976500	0.624493	-0.222089
O23	O	1.226500	0.874493	0.027911
O24	O	1.476500	1.124493	0.277911
O25	O	0.657495	0.465117	-0.239063
O26	O	0.907495	0.715117	0.010937
O27	O	1.157495	0.965117	0.260937
O28	O	1.407495	1.215117	0.510937
O29	O	0.605362	0.233767	-0.362528
O30	O	0.855362	0.483767	-0.112528
O31	O	1.105362	0.733767	0.137472
O32	O	1.355362	0.983767	0.387472
O33	O	0.726451	0.471980	-0.374599
O34	O	0.976451	0.721980	-0.124599
O35	O	1.226451	0.971980	0.125401
O36	O	1.476451	1.221980	0.375401
O37	O	0.657609	0.238967	-0.465221
O38	O	0.907609	0.488967	-0.215221
O39	O	1.157609	0.738967	0.034779
O40	O	1.407609	0.988967	0.284779
O41	O	0.605297	0.362431	-0.233859
O42	O	0.855297	0.612431	0.016141
O43	O	1.105297	0.862431	0.266141
O44	O	1.355297	1.112431	0.516141
O45	O	0.528595	0.369245	-0.369317
O46	O	0.778595	0.619245	-0.119317
O47	O	1.028595	0.869245	0.130683
O48	O	1.278595	1.119245	0.380683
O49	O	0.591634	0.483956	-0.612691
O50	O	0.841634	0.733956	-0.362691
O51	O	1.091634	0.983956	-0.112691
O52	O	1.341634	1.233956	0.137309
O53	O	0.522678	0.477093	-0.477155
O54	O	0.772678	0.727093	-0.227155
O55	O	1.022678	0.977093	0.022845
O56	O	1.272678	1.227093	0.272845
O57	O	0.649798	0.381306	-0.607547
O58	O	0.899798	0.631306	-0.357547
O59	O	1.149798	0.881306	-0.107547
O60	O	1.399798	1.131306	0.142453
O61	O	0.649684	0.607457	-0.381388
O62	O	0.899684	0.857457	-0.131388
O63	O	1.149684	1.107457	0.118612
O64	O	1.399684	1.357457	0.368612
O65	O	0.591569	0.612620	-0.484023
O66	O	0.841569	0.862620	-0.234023
O67	O	1.091569	1.112620	0.015977
O68	O	1.341569	1.362620	0.265977
C69	C	0.509336	0.423164	-0.423228
C70	C	0.759336	0.673164	-0.173228
C71	C	1.009336	0.923164	0.076772
C72	C	1.259336	1.173164	0.326772
C73	C	0.459402	0.423169	-0.423222
C74	C	0.709402	0.673169	-0.173222
C75	C	0.959402	0.923169	0.076778
C76	C	1.209402	1.173169	0.326778
C77	C	0.146683	0.479435	-0.479380
C78	C	0.396683	0.729435	-0.229380
C79	C	0.646683	0.979435	0.020620
C80	C	0.896683	1.229435	0.270620
C81	C	-0.040992	0.479461	-0.479418
C82	C	0.209008	0.729461	-0.229418
C83	C	0.459008	0.979461	0.020582
C84	C	0.709008	1.229461	0.270582
O85	O	-0.067869	0.527259	-0.527127
O86	O	0.182131	0.777259	-0.277127
O87	O	0.432131	1.027259	-0.027127
O88	O	0.682131	1.277259	0.222873
N89	N	-0.061389	0.423236	-0.423355
N90	N	0.188611	0.673236	-0.173355
N91	N	0.438611	0.923236	0.076645
N92	N	0.688611	1.173236	0.326645
C93	C	-0.034864	0.366998	-0.367281
C94	C	0.215136	0.616998	-0.117281
C95	C	0.465136	0.866998	0.132719
C96	C	0.715136	1.116998	0.382719
O97	O	-0.056520	0.319171	-0.319602
O98	O	0.193480	0.569171	-0.069602
O99	O	0.443480	0.819171	0.180398
O100	O	0.693480	1.069171	0.430398
C101	C	0.152810	0.366970	-0.367247
C102	C	0.402810	0.616970	-0.117247
C103	C	0.652810	0.866970	0.132753
C104	C	0.902810	1.116970	0.382753
C105	C	0.173204	0.423203	-0.423309
C106	C	0.423204	0.673203	-0.173309
C107	C	0.673204	0.923203	0.076691
C108	C	0.923204	1.173203	0.326691
C109	C	0.167078	0.535663	-0.535437
C110	C	0.417078	0.785663	-0.285437
C111	C	0.667078	1.035663	-0.035437
C112	C	0.917078	1.285663	0.214563
C113	C	0.213994	0.535660	-0.535424
C114	C	0.463994	0.785660	-0.285424
C115	C	0.713994	1.035660	-0.035424
C116	C	0.963994	1.285660	0.214576
C117	C	0.240515	0.479427	-0.479353
C118	C	0.490515	0.729427	-0.229353
C119	C	0.740515	0.979427	0.020647
C120	C	0.990515	1.229427	0.270647
C121	C	0.220120	0.423199	-0.423296
C122	C	0.470120	0.673199	-0.173296
C123	C	0.720120	0.923199	0.076704
C124	C	0.970120	1.173199	0.326704
C125	C	0.179333	0.310728	-0.311179
C126	C	0.429333	0.560728	-0.061179
C127	C	0.679333	0.810728	0.188821
C128	C	0.929333	1.060728	0.438821
C129	C	0.226255	0.310724	-0.311177
C130	C	0.476255	0.560724	-0.061177
C131	C	0.726255	0.810724	0.188823
C132	C	0.976255	1.060724	0.438823
C133	C	0.246649	0.366958	-0.367238
C134	C	0.496649	0.616958	-0.117238
C135	C	0.746649	0.866958	0.132762
C136	C	0.996649	1.116958	0.382762
C137	C	0.293557	0.366963	-0.367212
C138	C	0.543557	0.616963	-0.117212
C139	C	0.793557	0.866963	0.132788
C140	C	1.043557	1.116963	0.382788
N141	N	0.313954	0.423187	-0.423275
N142	N	0.563954	0.673187	-0.173275
N143	N	0.813954	0.923187	0.076725
N144	N	1.063954	1.173187	0.326725
C145	C	0.287433	0.479419	-0.479346
C146	C	0.537433	0.729419	-0.229346
C147	C	0.787433	0.979419	0.020654
C148	C	1.037433	1.229419	0.270654
C149	C	-0.133396	0.367018	-0.367302
C150	C	0.116604	0.617018	-0.117302
C151	C	0.366604	0.867018	0.132698
C152	C	0.616604	1.117018	0.382698
C153	C	-0.180314	0.367027	-0.367309
C154	C	0.069686	0.617027	-0.117309
C155	C	0.319686	0.867027	0.132691
C156	C	0.569686	1.117027	0.382691
C157	C	-0.186438	0.479488	-0.479447
C158	C	0.063562	0.729488	-0.229447
C159	C	0.313562	0.979488	0.020553
C160	C	0.563562	1.229488	0.270553
C161	C	-0.139519	0.479483	-0.479435
C162	C	0.110481	0.729483	-0.229435
C163	C	0.360481	0.979483	0.020565
C164	C	0.610481	1.229483	0.270565
C165	C	-0.112999	0.423243	-0.423365
C166	C	0.137001	0.673243	-0.173365
C167	C	0.387001	0.923243	0.076635
C168	C	0.637001	1.173243	0.326635
C169	C	0.385960	0.479407	-0.479314
C170	C	0.635960	0.729407	-0.229314
C171	C	0.885960	0.979407	0.020686
C172	C	1.135960	1.229407	0.270686
C173	C	0.432881	0.479401	-0.479293
C174	C	0.682881	0.729401	-0.229293
C175	C	0.932881	0.979401	0.020707
C176	C	1.182881	1.229401	0.270707
C177	C	0.439001	0.366937	-0.367158
C178	C	0.689001	0.616937	-0.117158
C179	C	0.939001	0.866937	0.132842
C180	C	1.189001	1.116937	0.382842
C181	C	0.392085	0.366946	-0.367175
C182	C	0.642085	0.616946	-0.117175
C183	C	0.892085	0.866946	0.132825
C184	C	1.142085	1.116946	0.382825
C185	C	0.365565	0.423184	-0.423260
C186	C	0.615565	0.673184	-0.173260
C187	C	0.865565	0.923184	0.076740
C188	C	1.115565	1.173184	0.326740
O189	O	0.320462	0.319183	-0.319534
O190	O	0.570462	0.569183	-0.069534
O191	O	0.820462	0.819183	0.180466
O192	O	1.070462	1.069183	0.430466
O193	O	0.309097	0.527227	-0.527030
O194	O	0.559097	0.777227	-0.277030
O195	O	0.809097	1.027227	-0.027030
O196	O	1.059097	1.277227	0.222970
C197	C	0.099767	0.479439	-0.479393
C198	C	0.349767	0.729439	-0.229393
C199	C	0.599767	0.979439	0.020607
C200	C	0.849767	1.229439	0.270607
C201	C	0.079372	0.423211	-0.423335
C202	C	0.329372	0.673211	-0.173335
C203	C	0.579372	0.923211	0.076665
C204	C	0.829372	1.173211	0.326665
C205	C	0.105893	0.366979	-0.367265
C206	C	0.355893	0.616979	-0.117265
C207	C	0.605893	0.866979	0.132735
C208	C	0.855893	1.116979	0.382735
C209	C	0.032454	0.423219	-0.423343
C210	C	0.282454	0.673219	-0.173343
C211	C	0.532454	0.923219	0.076657
C212	C	0.782454	1.173219	0.326657
C213	C	0.005933	0.479451	-0.479413
C214	C	0.255933	0.729451	-0.229413
C215	C	0.505933	0.979451	0.020587
C216	C	0.755933	1.229451	0.270587
C217	C	0.026330	0.535675	-0.535477
C218	C	0.276330	0.785675	-0.285477
C219	C	0.526330	1.035675	-0.035477
C220	C	0.776330	1.285675	0.214523
C221	C	0.073246	0.535671	-0.535464
C222	C	0.323246	0.785671	-0.285464
C223	C	0.573246	1.035671	-0.035464
C224	C	0.823246	1.285671	0.214536
C225	C	0.085496	0.310754	-0.311201
C226	C	0.335496	0.560754	-0.061201
C227	C	0.585496	0.810754	0.188799
C228	C	0.835496	1.060754	0.438799
C229	C	0.038580	0.310764	-0.311218
C230	C	0.288580	0.560764	-0.061218
C231	C	0.538580	0.810764	0.188782
C232	C	0.788580	1.060764	0.438782
C233	C	0.012059	0.366996	-0.367289
C234	C	0.262059	0.616996	-0.117289
C235	C	0.512059	0.866996	0.132711
C236	C	0.762059	1.116996	0.382711
C237	C	0.619757	0.640367	-0.434252
C238	C	0.869757	0.890367	-0.184252
C239	C	1.119757	1.140367	0.065748
C240	C	1.369757	1.390367	0.315748
C241	C	0.617102	0.733272	-0.438969
C242	C	0.867102	0.983272	-0.188969
C243	C	1.117102	1.233272	0.061031
C244	C	1.367102	1.483272	0.311031
C245	C	0.639864	0.942186	-0.398947
C246	C	0.889864	1.192186	-0.148947
C247	C	1.139864	1.442186	0.101053
C248	C	1.389864	1.692186	0.351053
C249	C	0.612264	0.903366	-0.447591
C250	C	0.862264	1.153366	-0.197591
C251	C	1.112264	1.403366	0.052409
C252	C	1.362264	1.653366	0.302409
C253	C	0.614957	0.808717	-0.442793
C254	C	0.864957	1.058717	-0.192793
C255	C	1.114957	1.308717	0.057207
C256	C	1.364957	1.558717	0.307207
C257	C	0.637171	1.036843	-0.403744
C258	C	0.887171	1.286843	-0.153744
C259	C	1.137171	1.536843	0.096256
C260	C	1.387171	1.786843	0.346256
C261	C	0.743232	0.423242	-0.423353
C262	C	0.993232	0.673242	-0.173353
C263	C	1.243232	0.923242	0.076647
C264	C	1.493232	1.173242	0.326647
C265	C	0.793165	0.423259	-0.423380
C266	C	1.043165	0.673259	-0.173380
C267	C	1.293165	0.923259	0.076620
C268	C	1.543165	1.173259	0.326620
C269	C	0.619825	0.434204	-0.641293
C270	C	0.869825	0.684204	-0.391293
C271	C	1.119825	0.934204	-0.141293
C272	C	1.369825	1.184204	0.108707
C273	C	0.617170	0.438893	-0.734194
C274	C	0.867170	0.688893	-0.484194
C275	C	1.117170	0.938893	-0.234194
C276	C	1.367170	1.188893	0.015806
C277	C	0.632374	1.205191	-0.412291
C278	C	0.882374	1.455191	-0.162291
C279	C	1.132374	1.705191	0.087709
C280	C	1.382374	1.955191	0.337709
C281	C	0.635024	1.112285	-0.407571
C282	C	0.885024	1.362285	-0.157571
C283	C	1.135024	1.612285	0.092429
C284	C	1.385024	1.862285	0.342429
C285	C	0.612306	0.447433	-0.904282
C286	C	0.862306	0.697433	-0.654282
C287	C	1.112306	0.947433	-0.404282
C288	C	1.362306	1.197433	-0.154282
C289	C	0.639902	0.398721	-0.943138
C290	C	0.889902	0.648721	-0.693138
C291	C	1.139902	0.898721	-0.443138
C292	C	1.389902	1.148721	-0.193138
C293	C	0.637196	0.403474	-1.037780
C294	C	0.887196	0.653474	-0.787780
C295	C	1.137196	0.903474	-0.537780
C296	C	1.387196	1.153474	-0.287780
C297	C	0.615011	0.442682	-0.809630
C298	C	0.865011	0.692682	-0.559630
C299	C	1.115011	0.942682	-0.309630
C300	C	1.365011	1.192682	-0.059630
C301	C	0.632290	0.412183	-0.206132
C302	C	0.882290	0.662183	0.043868
C303	C	1.132290	0.912183	0.293868
C304	C	1.382290	1.162183	0.543868
C305	C	0.635039	0.407260	-0.113220
C306	C	0.885039	0.657260	0.136780
C307	C	1.135039	0.907260	0.386780
C308	C	1.385039	1.157260	0.636780
H309	H	0.449483	0.525196	-0.524946
H310	H	0.699483	0.775196	-0.274946
H311	H	0.949483	1.025196	-0.024946
H312	H	1.199483	1.275196	0.225054
Cl313	Cl	0.012947	0.240064	-0.240731
Cl314	Cl	0.262947	0.490064	0.009269
Cl315	Cl	0.512947	0.740064	0.259269
Cl316	Cl	0.762947	0.990064	0.509269
H317	H	0.665560	0.353448	-0.905324
H318	H	0.915560	0.603448	-0.655324
H319	H	1.165560	0.853448	-0.405324
H320	H	1.415560	1.103448	-0.155324
Cl321	Cl	0.572696	0.517331	-0.962660
Cl322	Cl	0.822696	0.767331	-0.712660
Cl323	Cl	1.072696	1.017331	-0.462660
Cl324	Cl	1.322696	1.267331	-0.212660
H325	H	-0.111807	0.321219	-0.321639
H326	H	0.138193	0.571219	-0.071639
H327	H	0.388193	0.821219	0.178361
H328	H	0.638193	1.071219	0.428361
H329	H	0.364374	0.525200	-0.524985
H330	H	0.614374	0.775200	-0.274985
H331	H	0.864374	1.025200	-0.024985
H332	H	1.114374	1.275200	0.225015
Cl333	Cl	0.572658	0.961798	-0.517451
Cl334	Cl	0.822658	1.211798	-0.267451
Cl335	Cl	1.072658	1.461798	-0.017451
Cl336	Cl	1.322658	1.711798	0.232549
H337	H	0.230595	0.581449	-0.581077
H338	H	0.480595	0.831449	-0.331077
H339	H	0.730595	1.081449	-0.081077
H340	H	0.980595	1.331449	0.168923
H341	H	0.145489	0.581455	-0.581101
H342	H	0.395489	0.831455	-0.331101
H343	H	0.645489	1.081455	-0.081101
H344	H	0.895489	1.331455	0.168899
H345	H	-0.122917	0.525272	-0.525087
H346	H	0.127083	0.775272	-0.275087
H347	H	0.377083	1.025272	-0.025087
H348	H	0.627083	1.275272	0.224913
Cl349	Cl	-0.219788	0.550174	-0.549941
Cl350	Cl	0.030212	0.800174	-0.299941
Cl351	Cl	0.280212	1.050174	-0.049941
Cl352	Cl	0.530212	1.300174	0.200059
H353	H	0.665513	0.904341	-0.353699
H354	H	0.915513	1.154341	-0.103699
H355	H	1.165513	1.404341	0.146301
H356	H	1.415513	1.654341	0.396301
Cl357	Cl	0.259592	0.240017	-0.240685
Cl358	Cl	0.509592	0.490017	0.009315
Cl359	Cl	0.759592	0.740017	0.259315
Cl360	Cl	1.009592	0.990017	0.509315
Cl361	Cl	-0.205947	0.296340	-0.296818
Cl362	Cl	0.044053	0.546340	-0.046818
Cl363	Cl	0.294053	0.796340	0.203182
Cl364	Cl	0.544053	1.046340	0.453182
H365	H	0.375479	0.321158	-0.321524
H366	H	0.625479	0.571158	-0.071524
H367	H	0.875479	0.821158	0.178476
H368	H	1.125479	1.071158	0.428476
Cl369	Cl	0.153706	0.240024	-0.240702
Cl370	Cl	0.403706	0.490024	0.009298
Cl371	Cl	0.653706	0.740024	0.259298
Cl372	Cl	0.903706	0.990024	0.509298
Cl373	Cl	-0.007019	0.606369	-0.605962
Cl374	Cl	0.242981	0.856369	-0.355962
Cl375	Cl	0.492981	1.106369	-0.105962
Cl376	Cl	0.742981	1.356369	0.144038
Cl377	Cl	0.118830	0.240054	-0.240706
Cl378	Cl	0.368830	0.490054	0.009294
Cl379	Cl	0.618830	0.740054	0.259294
Cl380	Cl	0.868830	0.990054	0.509294
Cl381	Cl	0.098878	0.606368	-0.605946
Cl382	Cl	0.348878	0.856368	-0.355946
Cl383	Cl	0.598878	1.106368	-0.105946
Cl384	Cl	0.848878	1.356368	0.144054
Cl385	Cl	0.472350	0.296248	-0.296674
Cl386	Cl	0.722350	0.546248	-0.046674
Cl387	Cl	0.972350	0.796248	0.203326
Cl388	Cl	1.222350	1.046248	0.453326
