data_functionalizedCrystal
_audit_creation_method	'MofGen! by Chris Wilmer'
_symmetry_space_group_name_H-M	'P1'
_symmetry_Int_Tables_number	1
_symmetry_cell_setting	triclinic
loop_
_symmetry_equiv_pos_as_xyz
  x,y,z
_cell_length_a	10.654547
_cell_length_b	17.699083
_cell_length_c	16.776229
_cell_angle_alpha	90.007545
_cell_angle_beta	90.007840
_cell_angle_gamma	83.884535
loop_
_atom_site_label
_atom_site_type_symbol
_atom_site_fract_x
_atom_site_fract_y
_atom_site_fract_z
O1	O	-1.665984	-0.106314	-0.066304
O2	O	-1.165984	0.393686	0.433696
O3	O	-1.300328	-0.116440	-0.066302
O4	O	-0.800328	0.383560	0.433698
O5	O	-1.493487	-0.001254	-0.066296
O6	O	-0.993487	0.498746	0.433704
O7	O	-1.472825	-0.221501	-0.066310
O8	O	-0.972825	0.278499	0.433690
O9	O	-1.493461	-0.001247	0.066280
O10	O	-0.993461	0.498753	0.566280
O11	O	-1.300303	-0.116433	0.066274
O12	O	-0.800303	0.383567	0.566274
O13	O	-1.665958	-0.106307	0.066273
O14	O	-1.165958	0.393693	0.566273
Zn15	Zn	-1.483126	-0.111369	0.087323
Zn16	Zn	-0.983126	0.388631	0.587323
Zn17	Zn	-1.483160	-0.111378	-0.087352
Zn18	Zn	-0.983160	0.388622	0.412648
O19	O	-1.472800	-0.221493	0.066266
O20	O	-0.972800	0.278507	0.566266
C21	C	-1.492733	0.026952	-0.000008
C22	C	-0.992733	0.526952	0.499992
C23	C	-1.490512	0.110984	-0.000007
C24	C	-0.990512	0.610984	0.499993
C25	C	-1.253530	-0.115693	-0.000014
C26	C	-0.753530	0.384307	0.499986
C27	C	-1.114126	-0.113467	-0.000013
C28	C	-0.614126	0.386533	0.499987
C29	C	-1.712756	-0.107055	-0.000017
C30	C	-1.212756	0.392945	0.499983
C31	C	-1.852160	-0.109280	-0.000023
C32	C	-1.352160	0.390720	0.499977
C33	C	-0.852208	-0.109279	-0.144562
C34	C	-0.352208	0.390721	0.355438
C35	C	-0.917721	-0.110330	-0.216830
C36	C	-0.417721	0.389670	0.283170
C37	C	-1.048702	-0.112427	-0.216828
C38	C	-0.548702	0.387573	0.283172
C39	C	-1.114173	-0.113471	-0.144551
C40	C	-0.614173	0.386529	0.355449
C41	C	-1.048659	-0.112420	-0.072283
C42	C	-0.548659	0.387580	0.427717
C43	C	-0.917675	-0.110326	-0.072293
C44	C	-0.417675	0.389674	0.427707
C45	C	-1.048613	-0.112416	0.072254
C46	C	-0.548613	0.387584	0.572254
C47	C	-0.917631	-0.110325	0.072254
C48	C	-0.417631	0.389675	0.572254
C49	C	-1.114083	-0.113460	0.144532
C50	C	-0.614083	0.386540	0.644532
C51	C	-1.048568	-0.112415	0.216801
C52	C	-0.548568	0.387585	0.716801
C53	C	-0.917579	-0.110319	0.216796
C54	C	-0.417579	0.389681	0.716796
C55	C	-0.852117	-0.109274	0.144522
C56	C	-0.352117	0.390726	0.644522
C57	C	-1.473553	-0.249699	-0.000024
C58	C	-0.973553	0.250301	0.499976
C59	C	-1.475774	-0.333731	-0.000029
C60	C	-0.975774	0.166269	0.499971
N61	N	-1.483112	-0.111362	0.206534
N62	N	-0.983112	0.388638	0.706534
C63	C	-1.603892	0.158883	-0.000007
C64	C	-1.103892	0.658883	0.499993
C65	C	-1.601798	0.237840	-0.000014
C66	C	-1.101798	0.737840	0.499986
C67	C	-1.486322	0.268896	-0.000016
C68	C	-0.986322	0.768896	0.499984
C69	C	-1.372934	0.220990	-0.000019
C70	C	-0.872934	0.720990	0.499981
C71	C	-1.375029	0.142035	-0.000018
C72	C	-0.875029	0.642035	0.499982
C73	C	-1.364480	0.539407	-0.000025
C74	C	-0.864480	1.039407	0.499975
C75	C	-1.362393	0.618368	-0.000024
C76	C	-0.862393	1.118368	0.499976
C77	C	-1.591248	0.635212	-0.000021
C78	C	-1.091248	1.135212	0.499979
C79	C	-1.593344	0.556257	-0.000020
C80	C	-1.093344	1.056257	0.499980
C81	C	-1.479956	0.508358	-0.000027
C82	C	-0.979956	1.008358	0.499973
C83	C	-1.482228	0.422744	-0.000021
C84	C	-0.982228	0.922744	0.499979
C85	C	-1.484049	0.354508	-0.000016
C86	C	-0.984049	0.854508	0.499984
N87	N	-1.483184	-0.111379	-0.206564
N88	N	-0.983184	0.388621	0.293436
C89	C	-1.568669	-0.060379	0.248254
C90	C	-1.068669	0.439621	0.748254
C91	C	-1.568676	-0.060378	0.331706
C92	C	-1.068676	0.439622	0.831706
C93	C	-1.483131	-0.111365	0.373437
C94	C	-0.983131	0.388635	0.873437
C95	C	-1.397566	-0.162351	0.331711
C96	C	-0.897566	0.337649	0.831711
C97	C	-1.397554	-0.162347	0.248261
C98	C	-0.897554	0.337653	0.748261
C99	C	-1.397611	-0.162366	0.668258
C100	C	-0.897611	0.337634	1.168258
C101	C	-1.397632	-0.162367	0.751715
C102	C	-0.897632	0.337633	1.251715
C103	C	-1.568733	-0.060397	0.751704
C104	C	-1.068733	0.439603	1.251704
C105	C	-1.568721	-0.060393	0.668253
C106	C	-1.068721	0.439607	1.168253
C107	C	-1.483152	-0.111376	0.626535
C108	C	-0.983152	0.388624	1.126535
C109	C	-1.483144	-0.111375	0.536047
C110	C	-0.983144	0.388625	1.036047
C111	C	-1.483145	-0.111370	0.463924
C112	C	-0.983145	0.388630	0.963924
H113	H	-0.745554	-0.107582	-0.144571
H114	H	-0.245554	0.392418	0.355429
H115	H	-0.864402	-0.109477	-0.275677
H116	H	-0.364402	0.390523	0.224323
Br117	Br	-1.684865	0.008797	0.808325
Br118	Br	-1.184865	0.508797	1.308325
H119	H	-1.694123	0.276837	-0.000011
H120	H	-1.194123	0.776837	0.499989
H121	H	-1.268353	0.643650	-0.000024
H122	H	-0.768353	1.143650	0.499976
H123	H	-1.272152	0.500417	-0.000031
H124	H	-0.772152	1.000417	0.499969
H125	H	-1.697926	0.133604	-0.000000
H126	H	-1.197926	0.633604	0.500000
H127	H	-1.102044	-0.113282	-0.275675
H128	H	-0.602044	0.386718	0.224325
H129	H	-1.638334	-0.018862	0.214282
H130	H	-1.138334	0.481138	0.714282
H131	H	-1.220826	-0.115169	-0.144555
H132	H	-0.720826	0.384831	0.355445
Br133	Br	-1.291846	-0.116300	0.144536
Br134	Br	-0.791846	0.383700	0.644536
H135	H	-1.101886	-0.113260	0.275644
H136	H	-0.601886	0.386740	0.775644
Br137	Br	-1.281529	-0.231569	0.808350
Br138	Br	-0.781529	0.268431	1.308350
H139	H	-1.327940	-0.203879	0.634298
H140	H	-0.827940	0.296121	1.134298
Br141	Br	-0.828681	-0.108882	0.314880
Br142	Br	-0.328681	0.391118	0.814880
H143	H	-0.745464	-0.107571	0.144511
H144	H	-0.245464	0.392429	0.644511
H145	H	-1.327908	-0.203862	0.365693
H146	H	-0.827908	0.296138	0.865693
H147	H	-1.638342	-0.018863	0.365674
H148	H	-1.138342	0.481137	0.865674
Br149	Br	-1.750066	0.514114	-0.000018
Br150	Br	-1.250066	1.014114	0.499982
Br151	Br	-1.216214	0.263136	-0.000035
Br152	Br	-0.716214	0.763136	0.499965
H153	H	-1.683574	0.674221	-0.000020
H154	H	-1.183574	1.174221	0.499980
H155	H	-1.282704	0.103035	-0.000018
H156	H	-0.782704	0.603035	0.499982
Br157	Br	-1.281428	-0.231537	0.191640
Br158	Br	-0.781428	0.268463	0.691640
Br159	Br	-1.684827	0.008801	0.611621
Br160	Br	-1.184827	0.508801	1.111621
