data_functionalizedCrystal
_audit_creation_method	'MofGen! by Chris Wilmer'
_symmetry_space_group_name_H-M	'P1'
_symmetry_Int_Tables_number	1
_symmetry_cell_setting	triclinic
loop_
_symmetry_equiv_pos_as_xyz
  x,y,z
_cell_length_a	19.077269
_cell_length_b	14.908178
_cell_length_c	19.077174
_cell_angle_alpha	89.105285
_cell_angle_beta	90.075979
_cell_angle_gamma	91.150529
loop_
_atom_site_label
_atom_site_type_symbol
_atom_site_fract_x
_atom_site_fract_y
_atom_site_fract_z
Zn1	Zn	1.070011	-0.431565	-0.335498
Zn2	Zn	1.570011	0.068435	0.164502
Zn3	Zn	1.058497	-0.575479	-0.211783
Zn4	Zn	1.558497	-0.075479	0.288217
Zn5	Zn	0.948356	-0.419548	-0.223248
Zn6	Zn	1.448356	0.080452	0.276752
Zn7	Zn	0.945739	-0.575916	-0.333953
Zn8	Zn	1.445739	-0.075916	0.166047
O9	O	1.005651	-0.500627	-0.276120
O10	O	1.505651	-0.000627	0.223880
O11	O	1.166587	-0.455502	-0.314935
O12	O	1.666587	0.044498	0.185065
O13	O	1.040163	-0.549583	-0.115198
O14	O	1.540163	-0.049583	0.384802
O15	O	0.970408	-0.295472	-0.243582
O16	O	1.470408	0.204528	0.256418
O17	O	1.158128	-0.561235	-0.224043
O18	O	1.658128	-0.061235	0.275957
O19	O	1.059787	-0.304301	-0.326052
O20	O	1.559787	0.195699	0.173948
O21	O	0.959243	-0.435021	-0.123621
O22	O	1.459243	0.064979	0.376379
O23	O	0.849906	-0.435444	-0.242085
O24	O	1.349906	0.064556	0.257915
O25	O	0.965947	-0.561979	-0.432264
O26	O	1.465947	-0.061979	0.067736
O27	O	0.847983	-0.550327	-0.323419
O28	O	1.347983	-0.050327	0.176581
O29	O	1.057250	-0.455925	-0.433398
O30	O	1.557250	0.044075	0.066602
O31	O	1.037626	-0.701207	-0.222545
O32	O	1.537626	-0.201207	0.277455
O33	O	0.954783	-0.701528	-0.312303
O34	O	1.454783	-0.201528	0.187697
C35	C	0.823507	-0.491630	-0.283829
C36	C	1.323507	0.008370	0.216171
C37	C	0.745585	-0.487803	-0.287142
C38	C	1.245585	0.012197	0.212858
C39	C	0.704572	-0.540958	-0.241313
C40	C	1.204572	-0.040958	0.258687
C41	C	0.631356	-0.537363	-0.244436
C42	C	1.131356	-0.037363	0.255564
C43	C	0.599155	-0.480608	-0.293384
C44	C	1.099155	0.019392	0.206616
C45	C	0.640174	-0.427451	-0.339218
C46	C	1.140174	0.072549	0.160782
C47	C	0.713388	-0.431051	-0.336098
C48	C	1.213388	0.068949	0.163902
C49	C	0.380660	-0.463953	-0.307799
C50	C	0.880660	0.036047	0.192201
C51	C	0.307441	-0.460354	-0.310914
C52	C	0.807441	0.039646	0.189086
C53	C	0.298628	-0.570269	-0.216132
C54	C	0.798628	-0.070269	0.283868
C55	C	0.371844	-0.573860	-0.213014
C56	C	0.871844	-0.073860	0.286986
C57	C	0.412856	-0.520706	-0.258850
C58	C	0.912856	-0.020706	0.241150
N59	N	0.524317	-0.476930	-0.296576
N60	N	1.024317	0.023070	0.203424
N61	N	0.487693	-0.524389	-0.255661
N62	N	0.987693	-0.024389	0.244339
C63	C	0.994690	-0.733954	-0.266027
C64	C	1.494690	-0.233954	0.233973
C65	C	0.990066	-0.833776	-0.261729
C66	C	1.490066	-0.333776	0.238271
C67	C	1.074384	-1.030399	-0.339628
C68	C	1.574384	-0.530399	0.160372
C69	C	1.070042	-1.124191	-0.335593
C70	C	1.570042	-0.624191	0.164407
C71	C	0.977037	-1.115156	-0.249627
C72	C	1.477037	-0.615156	0.250373
C73	C	0.981379	-1.021363	-0.253662
C74	C	1.481379	-0.521363	0.246338
C75	C	1.030055	-0.978988	-0.298664
C76	C	1.530055	-0.478988	0.201336
C77	C	1.034400	-0.885194	-0.302695
C78	C	1.534400	-0.385194	0.197305
C79	C	0.941392	-0.876160	-0.216733
C80	C	1.441392	-0.376160	0.283267
C81	C	0.937050	-0.969953	-0.212697
C82	C	1.437050	-0.469953	0.287303
C83	C	1.188506	-0.509660	-0.268382
C84	C	1.688506	-0.009660	0.231618
C85	C	1.266427	-0.513510	-0.265085
C86	C	1.766427	-0.013510	0.234915
C87	C	1.012591	-0.510341	-0.458980
C88	C	1.512591	-0.010341	0.041020
C89	C	1.015548	-0.514481	-0.536904
C90	C	1.515548	-0.014481	-0.036904
C91	C	1.016674	-0.266391	-0.286268
C92	C	1.516674	0.233609	0.213732
C93	C	1.021371	-0.166573	-0.290593
C94	C	1.521371	0.333427	0.209407
C95	C	0.974809	-0.456780	-0.577897
C96	C	1.474809	0.043220	-0.077897
C97	C	0.977585	-0.460677	-0.651115
C98	C	1.477585	0.039323	-0.151115
C99	C	1.021104	-0.522271	-0.683338
C100	C	1.521104	-0.022271	-0.183338
C101	C	1.061845	-0.579978	-0.642339
C102	C	1.561845	-0.079978	-0.142339
C103	C	1.059065	-0.576085	-0.569122
C104	C	1.559065	-0.076085	-0.069122
C105	C	1.033933	-0.540315	-0.901840
C106	C	1.533933	-0.040315	-0.401840
C107	C	1.036711	-0.544202	-0.975062
C108	C	1.536711	-0.044202	-0.475062
C109	C	0.952449	-0.424902	-0.983833
C110	C	1.452449	0.075098	-0.483833
C111	C	0.949676	-0.421011	-0.910615
C112	C	1.449676	0.078989	-0.410615
C113	C	0.990414	-0.478721	-0.869622
C114	C	1.490414	0.021279	-0.369622
N115	N	1.023944	-0.526254	-0.758178
N116	N	1.523944	-0.026254	-0.258178
N117	N	0.987570	-0.474742	-0.794784
N118	N	1.487570	0.025258	-0.294784
C119	C	0.998781	-0.490888	-0.093973
C120	C	1.498781	0.009112	0.406027
C121	C	0.995971	-0.486502	-0.016055
C122	C	1.495971	0.013498	0.483945
H123	H	0.414044	-0.420672	-0.345123
H124	H	0.914044	0.079328	0.154877
N125	N	0.739303	-0.602174	-0.188520
N126	N	1.239303	-0.102174	0.311480
H127	H	0.770152	-0.565383	-0.156365
H128	H	1.270152	-0.065383	0.343635
H129	H	0.702168	-0.635292	-0.160012
H130	H	1.202168	-0.135292	0.339988
H131	H	0.919282	-0.377919	-1.017217
H132	H	1.419282	0.122081	-0.517217
H133	H	0.265228	-0.613545	-0.178816
H134	H	0.765228	-0.113545	0.321184
H135	H	1.097276	-0.630133	-0.668580
H136	H	1.597276	-0.130133	-0.168580
H137	H	0.939375	-0.406619	-0.551667
H138	H	1.439375	0.093381	-0.051667
N139	N	0.933652	-0.398420	-0.695317
N140	N	1.433652	0.101580	-0.195317
H141	H	0.965262	-0.359830	-0.726288
H142	H	1.465262	0.140170	-0.226288
H143	H	0.900594	-0.434965	-0.725449
H144	H	1.400594	0.065035	-0.225449
N145	N	0.272711	-0.399141	-0.363716
N146	N	0.772711	0.100859	0.136284
H147	H	0.241856	-0.435937	-0.395863
H148	H	0.741856	0.064063	0.104137
H149	H	0.243243	-0.354471	-0.338324
H150	H	0.743243	0.145529	0.161676
N151	N	1.083647	-0.610637	-1.009827
N152	N	1.583647	-0.110637	-0.509827
H153	H	1.133911	-0.598495	-0.995571
H154	H	1.633911	-0.098495	-0.495571
H155	H	1.069194	-0.673560	-0.994761
H156	H	1.569194	-0.173560	-0.494761
H157	H	1.067096	-0.587316	-0.868472
H158	H	1.567096	-0.087316	-0.368472
N159	N	0.924544	-1.160868	-0.201089
N160	N	1.424544	-0.660868	0.298911
H161	H	0.928524	-1.228086	-0.204750
H162	H	1.428524	-0.728086	0.295250
H163	H	0.934366	-1.142369	-0.151272
H164	H	1.434366	-0.642369	0.348728
H165	H	0.897418	-1.004467	-0.176060
H166	H	1.397418	-0.504467	0.323940
N167	N	0.605447	-0.366240	-0.392017
N168	N	1.105447	0.133760	0.107983
H169	H	0.552842	-0.372022	-0.387039
H170	H	1.052842	0.127978	0.112961
H171	H	0.620843	-0.302135	-0.383419
H172	H	1.120843	0.197865	0.116581
H173	H	1.092245	-0.623064	-0.535746
H174	H	1.592245	-0.123064	-0.035746
H175	H	1.106136	-1.166047	-0.368954
H176	H	1.606136	-0.666047	0.131046
H177	H	0.597966	-0.580648	-0.207117
H178	H	1.097966	-0.080648	0.292883
N179	N	1.126882	-0.984680	-0.388156
N180	N	1.626882	-0.484680	0.111844
H181	H	1.175817	-1.002843	-0.374489
H182	H	1.675817	-0.502843	0.125511
H183	H	1.117040	-1.003122	-0.437983
H184	H	1.617040	-0.503122	0.062017
N185	N	0.757628	-0.373724	-0.385531
N186	N	1.257628	0.126276	0.114469
H187	H	0.726120	-0.337223	-0.417013
H188	H	1.226120	0.162777	0.082987
H189	H	0.788870	-0.332087	-0.357556
H190	H	1.288870	0.167913	0.142444
N191	N	0.902754	-0.354559	-0.875862
N192	N	1.402754	0.145441	-0.375862
H193	H	0.877370	-0.318590	-0.912942
H194	H	1.377370	0.181410	-0.412942
H195	H	0.867433	-0.387876	-0.845265
H196	H	1.367433	0.112124	-0.345265
N197	N	0.893581	-0.820707	-0.172543
N198	N	1.393581	-0.320707	0.327457
H199	H	0.863948	-0.781719	-0.204050
H200	H	1.363948	-0.281719	0.295950
H201	H	0.862135	-0.861845	-0.143428
H202	H	1.362135	-0.361845	0.356572
N203	N	0.406574	-0.635067	-0.160215
N204	N	0.906574	-0.135067	0.339785
H205	H	0.369482	-0.668195	-0.131654
H206	H	0.869482	-0.168195	0.368346
H207	H	0.436091	-0.679692	-0.185599
H208	H	0.936091	-0.179692	0.314401
H209	H	1.074036	-0.850693	-0.339336
H210	H	1.574036	-0.350693	0.160664
