data_functionalizedCrystal
_audit_creation_method	'MofGen! by Chris Wilmer'
_symmetry_space_group_name_H-M	'P1'
_symmetry_Int_Tables_number	1
_symmetry_cell_setting	triclinic
loop_
_symmetry_equiv_pos_as_xyz
  x,y,z
_cell_length_a	12.759401
_cell_length_b	12.759394
_cell_length_c	12.759393
_cell_angle_alpha	90.030600
_cell_angle_beta	90.018496
_cell_angle_gamma	90.014017
loop_
_atom_site_label
_atom_site_type_symbol
_atom_site_fract_x
_atom_site_fract_y
_atom_site_fract_z
Zn1	Zn	1.606262	-0.418200	0.593988
Zn2	Zn	1.606158	-0.593919	0.418311
Zn3	Zn	1.430564	-0.418255	0.418328
Zn4	Zn	1.430555	-0.593838	0.593953
O5	O	1.518385	-0.506053	0.506145
O6	O	1.753269	-0.441520	0.570692
O7	O	1.582826	-0.570674	0.271293
O8	O	1.453917	-0.271227	0.441651
O9	O	1.753193	-0.570620	0.441623
O10	O	1.583002	-0.271186	0.570708
O11	O	1.453817	-0.441614	0.271305
O12	O	1.283541	-0.441536	0.441617
O13	O	1.453902	-0.570482	0.740979
O14	O	1.283535	-0.570536	0.570648
O15	O	1.582993	-0.441442	0.741005
O16	O	1.582817	-0.740929	0.441589
O17	O	1.453802	-0.740870	0.570632
C18	C	1.245417	-0.506034	0.506131
C19	C	1.128641	-0.506051	0.506150
C20	C	1.518326	-0.779021	0.506128
C21	C	1.518397	-0.895797	0.506156
C22	C	1.073803	-0.573329	0.573225
C23	C	0.964079	-0.573342	0.573236
C24	C	0.964040	-0.438796	0.439088
C25	C	1.073762	-0.438779	0.439083
C26	C	1.073824	-0.651011	0.650671
C27	C	0.964100	-0.651024	0.650683
C28	C	1.652713	-0.895597	0.640643
C29	C	1.719903	-0.950358	0.707895
C30	C	1.719966	-1.060079	0.707918
C31	C	1.652828	-1.115043	0.640684
C32	C	1.585637	-1.060282	0.573432
C33	C	1.585584	-0.950558	0.573414
C34	C	1.451318	-1.060482	0.438951
C35	C	1.451260	-0.950761	0.438921
C36	C	1.384181	-1.115446	0.371717
C37	C	1.316994	-1.060685	0.304458
C38	C	1.316935	-0.950957	0.304437
C39	C	1.384069	-0.896000	0.371669
C40	C	1.792418	-0.506073	0.506160
C41	C	1.909194	-0.506082	0.506166
C42	C	1.518458	-0.505947	0.780179
C43	C	1.518489	-0.505902	0.896955
C44	C	1.518472	-0.232020	0.506186
C45	C	1.518509	-0.115243	0.506203
C46	C	1.518372	-0.506083	0.233178
C47	C	1.518544	-0.505832	0.116402
C48	C	1.585716	-0.438704	0.951833
C49	C	1.585741	-0.438666	1.061557
C50	C	1.451310	-0.573033	1.061517
C51	C	1.451280	-0.573065	0.951795
C52	C	1.663333	-0.361132	0.951857
C53	C	1.663358	-0.361094	1.061581
H54	H	1.118407	-0.383988	0.384471
H55	H	1.384032	-0.806659	0.371655
C56	C	1.377310	-0.646975	0.891442
C57	C	1.257886	-0.638361	0.906547
C58	C	1.183906	-0.712273	0.846201
C59	C	1.229350	-0.794799	0.770750
C60	C	1.348780	-0.803416	0.755641
C61	C	1.422760	-0.729504	0.815987
H62	H	1.224240	-0.577267	0.962404
H63	H	1.095495	-0.705893	0.857386
H64	H	1.174585	-0.849513	0.726078
H65	H	1.382426	-0.864510	0.699784
H66	H	1.511171	-0.735884	0.804802
C67	C	1.793754	-0.889897	0.781850
C68	C	1.793696	-0.769207	0.781830
C69	C	1.867544	-0.708752	0.855786
C70	C	1.941449	-0.768987	0.929762
C71	C	1.941509	-0.889683	0.929784
C72	C	1.867662	-0.950139	0.855828
H73	H	1.738984	-0.724612	0.727066
H74	H	1.867499	-0.619404	0.855768
H75	H	1.996116	-0.724234	0.984508
H76	H	1.996221	-0.934279	0.984548
H77	H	1.867707	-1.039487	0.855846
C78	C	1.377387	-0.646914	1.121842
C79	C	1.377412	-0.646880	1.242533
C80	C	1.303488	-0.720764	1.302856
C81	C	1.229539	-0.794681	1.242489
C82	C	1.229511	-0.794717	1.121792
C83	C	1.303435	-0.720834	1.061469
H84	H	1.432156	-0.592160	1.287226
H85	H	1.303510	-0.720737	1.392204
H86	H	1.174817	-0.849375	1.287143
H87	H	1.174767	-0.849438	1.077098
H88	H	1.303414	-0.720861	0.972121
H89	H	0.930102	-0.621980	0.728034
H90	H	0.919345	-0.384025	0.384486
H91	H	1.652678	-0.806256	0.640622
C92	C	1.119788	-0.755373	0.611124
C93	C	1.046128	-0.844817	0.577240
C94	C	1.092094	-0.949178	0.537691
C95	C	1.211719	-0.964096	0.532027
C96	C	1.285386	-0.874649	0.565912
C97	C	1.239421	-0.770288	0.605461
H98	H	0.957568	-0.833776	0.581432
H99	H	1.037560	-1.015393	0.512607
H100	H	1.245745	-1.041351	0.502751
H101	H	1.373947	-0.885690	0.561720
H102	H	1.293955	-0.704074	0.630545
C103	C	0.923835	-0.760913	0.621047
C104	C	0.854397	-0.775504	0.523385
C105	C	0.814131	-0.885387	0.493750
C106	C	0.843303	-0.980678	0.561777
C107	C	0.912745	-0.966089	0.659446
C108	C	0.953011	-0.856207	0.689081
H109	H	0.832799	-0.704961	0.473022
H110	H	0.762726	-0.896186	0.421449
H111	H	0.813496	-1.062020	0.539840
H112	H	0.934343	-1.036632	0.709809
H113	H	1.004416	-0.845408	0.761382
H114	H	1.652876	-1.204384	0.640717
H115	H	1.641563	-0.279767	0.922099
C116	C	1.793872	-1.120324	0.781895
C117	C	1.876412	-1.195727	0.736444
C118	C	1.950316	-1.255973	0.810420
C119	C	1.941681	-1.240816	0.929848
C120	C	1.859137	-1.165409	0.975305
C121	C	1.785233	-1.105163	0.901329
H122	H	1.882807	-1.206951	0.648031
H123	H	2.011420	-1.311794	0.776769
H124	H	1.996389	-1.285413	0.984610
H125	H	1.852742	-1.154185	1.063718
H126	H	1.724129	-1.049342	0.934980
C127	C	1.767722	-0.400525	0.905865
C128	C	1.857201	-0.434249	0.979502
C129	C	1.961589	-0.473645	0.933509
C130	C	1.976497	-0.479317	0.813880
C131	C	1.887016	-0.445592	0.740236
C132	C	1.782628	-0.406196	0.786229
H133	H	1.846167	-0.430051	1.068065
H134	H	2.027829	-0.498611	0.988026
H135	H	2.053771	-0.508481	0.779833
H136	H	1.898049	-0.449790	0.651673
H137	H	1.716388	-0.381230	0.731712
H138	H	1.262216	-0.906376	0.249677
C139	C	1.624038	-0.256656	1.107588
C140	C	1.618432	-0.241677	1.227219
C141	C	1.579107	-0.137245	1.273228
C142	C	1.545387	-0.047792	1.199606
C143	C	1.550992	-0.062768	1.079967
C144	C	1.590317	-0.167200	1.033958
H145	H	1.643394	-0.307898	1.281726
H146	H	1.574958	-0.126160	1.361793
H147	H	1.516276	0.029515	1.233664
H148	H	1.526030	0.003453	1.025460
H149	H	1.594466	-0.178286	0.945393
H150	H	1.384232	-1.204787	0.371744
H151	H	1.262330	-1.105445	0.249726
H152	H	1.744729	-0.382886	1.091360
H153	H	1.103632	-0.629311	0.732078
