data_functionalizedCrystal
_audit_creation_method	'MofGen! by Chris Wilmer'
_symmetry_space_group_name_H-M	'P1'
_symmetry_Int_Tables_number	1
_symmetry_cell_setting	triclinic
loop_
_symmetry_equiv_pos_as_xyz
  x,y,z
_cell_length_a	11.026607
_cell_length_b	10.654534
_cell_length_c	10.065875
_cell_angle_alpha	81.166931
_cell_angle_beta	79.268236
_cell_angle_gamma	83.467789
loop_
_atom_site_label
_atom_site_type_symbol
_atom_site_fract_x
_atom_site_fract_y
_atom_site_fract_z
O1	O	0.152952	-1.719273	0.113516
O2	O	0.169242	-1.357328	0.113513
O3	O	-0.015806	-1.508302	0.113509
O4	O	0.338001	-1.568299	0.113520
O5	O	0.019623	-1.479546	-0.113479
O6	O	0.204672	-1.328571	-0.113475
O7	O	0.188381	-1.690517	-0.113472
Zn8	Zn	0.202152	-1.504978	-0.149513
Zn9	Zn	0.155472	-1.542866	0.149554
O10	O	0.373430	-1.539542	-0.113468
C11	C	0.185765	-1.295892	0.000019
C12	C	0.182199	-1.155674	0.000017
C13	C	0.199833	-1.074129	-0.123716
C14	C	0.196462	-0.942377	-0.123720
C15	C	0.157828	-0.973728	0.123755
C16	C	0.161190	-1.105476	0.123757
C17	C	-0.043395	-1.482856	0.000017
C18	C	-0.178385	-1.449862	0.000021
C19	C	-0.251430	-1.540966	0.000024
C20	C	-0.390950	-1.506867	0.000029
C21	C	0.401018	-1.564989	0.000027
C22	C	0.536007	-1.597984	0.000032
N23	N	0.234008	-1.479130	-0.353618
C24	C	0.171869	-0.751953	0.000020
C25	C	0.175466	-0.892173	0.000012
C26	C	0.166549	-1.533863	-0.421398
C27	C	0.191076	-1.513981	-0.578565
N28	N	0.123606	-1.568722	0.353659
H29	H	0.140724	-0.932840	0.224500
C30	C	0.122676	-1.123245	0.368386
C31	C	0.141810	-1.195122	0.259776
H32	H	0.110718	-1.178591	0.452352
H33	H	0.051398	-1.064792	0.363239
H34	H	0.192948	-1.077621	0.363235
H35	H	0.071534	-1.240739	0.264922
H36	H	0.213096	-1.253598	0.264926
C37	C	0.284291	-1.293731	-0.514527
C38	C	0.336490	-1.395998	-0.432345
H39	H	0.347563	-1.242414	-0.563133
H40	H	0.224778	-1.243918	-0.458791
H41	H	0.245147	-1.325510	-0.577409
H42	H	0.375627	-1.364220	-0.369456
H43	H	0.396025	-1.445819	-0.488086
C44	C	0.006374	-1.663797	-0.435399
C45	C	0.064062	-1.616992	-0.342676
H46	H	-0.056902	-1.715112	-0.386799
H47	H	0.065899	-1.713618	-0.491115
H48	H	-0.029015	-1.594400	-0.491152
H49	H	0.099460	-1.686389	-0.286929
H50	H	0.004528	-1.567170	-0.286936
H51	H	0.216940	-1.114995	-0.224473
C52	C	-0.281429	-1.744173	0.000024
C53	C	-0.408997	-1.737368	0.000030
H54	H	-0.247479	-1.830221	0.000015
H55	H	-0.267496	-1.713498	0.079175
H56	H	-0.242795	-1.693429	-0.079137
H57	H	-0.447632	-1.788105	0.079197
H58	H	-0.422939	-1.768059	-0.079129
H59	H	-0.210674	-1.644205	0.000017
C60	C	-0.573515	-1.360682	0.000031
C61	C	-0.445948	-1.367484	0.000029
H62	H	-0.607465	-1.274633	0.000023
H63	H	-0.612147	-1.411414	0.079184
H64	H	-0.587444	-1.391369	-0.079128
H65	H	-0.432019	-1.336806	0.079193
H66	H	-0.407304	-1.316733	-0.079133
C67	C	-0.212829	-1.265285	0.116714
C68	C	-0.233392	-1.310487	0.000028
H69	H	-0.246793	-1.179241	0.116721
H70	H	-0.126294	-1.269911	0.116698
H71	H	-0.251476	-1.316038	0.195861
H72	H	-0.194737	-1.259740	-0.079119
H73	H	-0.319944	-1.305851	0.000032
H74	H	0.210822	-0.875987	-0.224476
H75	H	0.047684	-1.630299	-0.588022
H76	H	0.266989	-1.452393	-0.636884
