data_functionalizedCrystal
_audit_creation_method	'MofGen! by Chris Wilmer'
_symmetry_space_group_name_H-M	'P1'
_symmetry_Int_Tables_number	1
_symmetry_cell_setting	triclinic
loop_
_symmetry_equiv_pos_as_xyz
  x,y,z
_cell_length_a	12.759401
_cell_length_b	25.639240
_cell_length_c	12.759393
_cell_angle_alpha	90.044235
_cell_angle_beta	90.018496
_cell_angle_gamma	90.032919
loop_
_atom_site_label
_atom_site_type_symbol
_atom_site_fract_x
_atom_site_fract_y
_atom_site_fract_z
Zn1	Zn	1.606124	-0.208118	0.593889
Zn2	Zn	1.605962	-0.295564	0.418170
Zn3	Zn	1.430425	-0.208145	0.418228
Zn4	Zn	1.430359	-0.295524	0.593812
O5	O	1.518218	-0.251838	0.506025
O6	O	1.753123	-0.219723	0.570587
O7	O	1.582638	-0.283996	0.271157
O8	O	1.453828	-0.134976	0.441587
O9	O	1.753005	-0.283970	0.441488
O10	O	1.582912	-0.134956	0.570644
O11	O	1.453671	-0.219770	0.271199
O12	O	1.283396	-0.219731	0.441512
O13	O	1.453714	-0.283901	0.740843
O14	O	1.283347	-0.283928	0.570512
O15	O	1.582847	-0.219684	0.740900
O16	O	1.582573	-0.368724	0.441413
O17	O	1.453558	-0.368695	0.570456
C18	C	1.245250	-0.251828	0.506010
C19	C	1.128474	-0.251837	0.506029
C20	C	1.073614	-0.285318	0.573089
C21	C	0.963889	-0.285324	0.573100
C22	C	0.963895	-0.218368	0.438984
C23	C	1.073617	-0.218359	0.438978
C24	C	1.073609	-0.323976	0.650516
C25	C	0.963885	-0.323983	0.650528
C26	C	1.518069	-0.387680	0.505942
C27	C	1.518102	-0.445795	0.505942
C28	C	1.585465	-0.806109	0.573346
C29	C	1.585496	-0.860713	0.573367
O30	O	1.642595	-0.888908	0.630592
N31	N	1.518363	-0.888077	0.506126
C32	C	1.451188	-0.860834	0.438867
O33	O	1.394088	-0.889123	0.381676
C34	C	1.451152	-0.806230	0.438852
C35	C	1.518297	-0.778869	0.506090
C36	C	1.652604	-0.778747	0.640579
C37	C	1.652574	-0.724147	0.640556
C38	C	1.585406	-0.696907	0.573300
C39	C	1.518267	-0.724269	0.506067
C40	C	1.383972	-0.778988	0.371598
C41	C	1.383941	-0.724381	0.371590
C42	C	1.451086	-0.697020	0.438828
C43	C	1.451069	-0.642429	0.438787
N44	N	1.518202	-0.615065	0.506028
C45	C	1.585370	-0.642304	0.573285
C46	C	1.451266	-0.975504	0.438905
C47	C	1.451306	-1.030107	0.438915
C48	C	1.585614	-1.029982	0.573417
C49	C	1.585578	-0.975379	0.573401
C50	C	1.518399	-0.948140	0.506146
C51	C	1.585303	-0.527639	0.573231
C52	C	1.585270	-0.473034	0.573199
C53	C	1.450959	-0.473163	0.438701
C54	C	1.450995	-0.527764	0.438729
C55	C	1.518171	-0.555000	0.506002
O56	O	1.393996	-0.614199	0.381595
O57	O	1.642450	-0.614008	0.630476
C58	C	1.792251	-0.251848	0.506040
C59	C	1.909027	-0.251852	0.506046
C60	C	1.518291	-0.251785	0.780058
C61	C	1.518323	-0.251763	0.896835
C62	C	1.518395	-0.115465	0.506130
C63	C	1.518471	-0.057351	0.506175
C64	C	1.518205	-0.251853	0.233057
C65	C	1.518377	-0.251728	0.116281
C66	C	1.585572	-0.218322	0.951728
C67	C	1.585597	-0.218303	1.061452
C68	C	1.451120	-0.285170	1.061380
C69	C	1.451091	-0.285186	0.951658
C70	C	1.663214	-0.179718	0.951771
C71	C	1.663239	-0.179699	1.061495
H72	H	1.103424	-0.313178	0.731928
O73	O	1.378547	-0.321242	0.892430
H74	H	1.325128	-0.297828	0.842476
O75	O	1.658003	-0.945873	0.645922
H76	H	1.610947	-0.920989	0.699332
O77	O	1.132784	-0.182240	0.366659
H78	H	1.218298	-0.187853	0.377925
H79	H	1.107599	-0.362421	0.621215
O80	O	0.918847	-0.304835	0.752988
H81	H	0.983703	-0.294681	0.807304
H82	H	0.934064	-0.364467	0.628578
O83	O	1.771008	-0.194063	1.100947
H84	H	1.765721	-0.229955	1.149245
H85	H	1.639951	-0.450758	0.627952
H86	H	1.396381	-0.312382	1.106031
H87	H	1.639996	-0.549809	0.628018
H88	H	1.707246	-0.701872	0.695310
H89	H	1.707300	-0.800920	0.695354
O90	O	0.904731	-0.182273	0.366640
H91	H	0.819217	-0.187908	0.377897
O92	O	1.658051	-1.059366	0.645975
H93	H	1.646779	-1.101931	0.634694
O94	O	1.634416	-0.126086	0.912363
H95	H	1.620327	-0.099817	0.980088
H96	H	1.329233	-0.702207	0.316824
H97	H	1.634149	-0.141226	1.095560
O98	O	1.378580	-0.557280	0.366208
H99	H	1.331866	-0.529163	0.319441
H100	H	1.396641	-1.052380	0.384151
H101	H	1.396564	-0.953330	0.384130
H102	H	1.396274	-0.450977	0.383938
O103	O	1.311543	-0.808492	0.299084
H104	H	1.264828	-0.780369	0.252333
O105	O	1.765557	-0.198935	0.906662
H106	H	1.819843	-0.209109	0.971480
