data_functionalizedCrystal
_audit_creation_method	'MofGen! by Chris Wilmer'
_symmetry_space_group_name_H-M	'P1'
_symmetry_Int_Tables_number	1
_symmetry_cell_setting	triclinic
loop_
_symmetry_equiv_pos_as_xyz
  x,y,z
_cell_length_a	31.640172
_cell_length_b	23.196402
_cell_length_c	31.640172
_cell_angle_alpha	120.000295
_cell_angle_beta	119.994140
_cell_angle_gamma	90.007426
loop_
_atom_site_label
_atom_site_type_symbol
_atom_site_fract_x
_atom_site_fract_y
_atom_site_fract_z
Zr1	Zr	-0.055381	0.555378	-0.462580
O2	O	-0.122870	0.583582	-0.462588
O3	O	-0.034695	0.463331	-0.462578
O4	O	-0.122861	0.463315	-0.550754
O5	O	0.034845	0.678481	-0.304855
O6	O	-0.122850	0.463318	-0.620301
O7	O	-0.034704	0.583597	-0.374411
O8	O	0.034862	0.463346	-0.462569
O9	O	-0.122867	0.678454	-0.462587
O10	O	-0.025861	0.524839	-0.514478
O11	O	0.026035	0.595647	-0.410667
O12	O	-0.077769	0.595629	-0.514484
O13	O	-0.025872	0.666437	-0.410673
Zr14	Zr	0.055559	0.706711	-0.462564
Zr15	Zr	-0.055365	0.555383	-0.573498
Zr16	Zr	0.055543	0.706706	-0.351645
Zr17	Zr	-0.055376	0.706687	-0.462578
Zr18	Zr	0.055554	0.555402	-0.462566
O19	O	0.034873	0.798758	-0.462565
O20	O	-0.122846	0.583589	-0.620299
O21	O	0.034849	0.798751	-0.304854
O22	O	0.123048	0.678506	-0.462556
O23	O	-0.034671	0.463337	-0.620290
O24	O	0.123024	0.678500	-0.304844
O25	O	-0.034667	0.583608	-0.620288
O26	O	0.123038	0.798773	-0.374389
O27	O	0.123028	0.798770	-0.304843
O28	O	0.034882	0.678491	-0.550732
O29	O	-0.122854	0.678457	-0.550752
O30	O	0.123032	0.583631	-0.374391
O31	O	0.123045	0.583635	-0.462557
O32	O	0.034875	0.463349	-0.550735
O33	O	-0.034697	0.798739	-0.374409
O34	O	-0.034684	0.798743	-0.462574
O35	O	0.077947	0.666460	-0.410660
O36	O	0.026050	0.595651	-0.514471
O37	O	-0.025857	0.666442	-0.514476
O38	O	0.026039	0.737250	-0.410666
C39	C	0.000083	0.441780	-0.462574
C40	C	0.000081	0.377545	-0.462575
C41	C	-0.138674	0.631014	-0.462589
C42	C	-0.185769	0.631004	-0.462595
C43	C	-0.027010	0.310411	-0.516761
C44	C	-0.027006	0.250056	-0.516762
C45	C	0.000082	0.256839	-0.462573
C46	C	0.027180	0.323985	-0.408379
C47	C	0.027179	0.384338	-0.408380
C48	C	-0.003791	0.189533	-0.421060
C49	C	-0.003794	0.129179	-0.421062
C50	C	0.000088	0.070691	-0.462569
C51	C	0.003962	0.072558	-0.504084
C52	C	0.003961	0.132911	-0.504085
C53	C	0.000086	0.191400	-0.462566
C54	C	-0.027000	-0.061890	-0.516760
C55	C	-0.026993	-0.122244	-0.516758
C56	C	0.027190	-0.048313	-0.408374
C57	C	0.027185	0.012040	-0.408377
C58	C	0.000087	0.005247	-0.462572
C59	C	-0.450686	0.668019	-0.408378
C60	C	-0.627671	0.668037	-0.408368
O61	O	-0.627518	0.699497	-0.362282
N62	N	-0.676890	0.631075	-0.462555
C63	C	-0.681862	0.594110	-0.516749
O64	O	-0.727787	0.562678	-0.562839
C65	C	-0.504878	0.594097	-0.516759
C66	C	-0.455659	0.631056	-0.462568
C67	C	-0.401470	0.704975	-0.354191
C68	C	-0.357226	0.704967	-0.354194
C69	C	-0.362199	0.668004	-0.408384
C70	C	-0.411416	0.631048	-0.462571
C71	C	-0.509850	0.557137	-0.570953
C72	C	-0.465599	0.557138	-0.570950
C73	C	-0.416380	0.594097	-0.516759
C74	C	-0.372145	0.594076	-0.516764
N75	N	-0.322926	0.631038	-0.462576
C76	C	-0.317953	0.668001	-0.408386
C77	C	-0.774780	0.594118	-0.516741
C78	C	-0.819026	0.594120	-0.516738
C79	C	-0.764831	0.668048	-0.408356
C80	C	-0.720585	0.668042	-0.408359
C81	C	-0.725561	0.631080	-0.462553
C82	C	-0.225041	0.667982	-0.408397
C83	C	-0.180796	0.667968	-0.408405
C84	C	-0.234994	0.594044	-0.516787
C85	C	-0.279235	0.594054	-0.516779
C86	C	-0.274255	0.631028	-0.462580
O87	O	-0.372259	0.562639	-0.562825
O88	O	-0.272024	0.699441	-0.362304
C89	C	-0.494929	0.668027	-0.408375
C90	C	-0.544146	0.631071	-0.462562
C91	C	-0.549119	0.594108	-0.516752
C92	C	-0.588392	0.631073	-0.462559
C93	C	-0.583419	0.668037	-0.408369
C94	C	-0.534200	0.704999	-0.354182
C95	C	-0.489956	0.704991	-0.354185
C96	C	-0.598338	0.557146	-0.570939
C97	C	-0.642579	0.557156	-0.570932
C98	C	-0.637606	0.594120	-0.516742
C99	C	0.138852	0.631074	-0.462554
C100	C	0.185947	0.631084	-0.462548
C101	C	0.000068	0.631038	-0.323830
C102	C	0.000061	0.631036	-0.276742
C103	C	0.000095	0.820309	-0.462570
C104	C	0.000097	0.884543	-0.462569
C105	C	0.027187	0.594084	0.015297
C106	C	0.027194	0.594078	0.192288
O107	O	0.050256	0.562676	0.215195
N108	N	0.000098	0.631027	0.214414
C109	C	-0.026999	0.667985	0.192292
O110	O	-0.050042	0.699419	0.215176
C111	C	-0.027003	0.667995	0.015304
C112	C	0.000091	0.631037	-0.006824
C113	C	0.054279	0.557130	-0.006831
C114	C	0.054274	0.557128	-0.051078
C115	C	0.027178	0.594081	-0.073199
C116	C	0.000086	0.631035	-0.051071
C117	C	-0.054097	0.704956	-0.006815
C118	C	-0.054095	0.704956	-0.051063
C119	C	-0.027001	0.667998	-0.073191
C120	C	-0.027015	0.667987	-0.117439
N121	N	0.000081	0.631037	-0.139565
C122	C	0.027178	0.594084	-0.117445
C123	C	-0.026996	0.667976	0.285212
C124	C	-0.026996	0.667973	0.329458
C125	C	0.027198	0.594067	0.329453
C126	C	0.027195	0.594066	0.285203
C127	C	0.000100	0.631027	0.263087
C128	C	0.027166	0.594084	-0.210368
C129	C	0.027158	0.594084	-0.254621
C130	C	-0.027034	0.667993	-0.254610
C131	C	-0.027028	0.667990	-0.210363
C132	C	0.000076	0.631035	-0.188241
O133	O	-0.050060	0.699379	-0.140369
O134	O	0.050226	0.562668	-0.140328
C135	C	0.027191	0.594085	0.059544
C136	C	0.000099	0.631039	0.081671
C137	C	-0.026997	0.667992	0.059551
C138	C	0.000100	0.631036	0.125917
C139	C	0.027196	0.594083	0.148038
C140	C	0.054292	0.557133	0.125912
C141	C	0.054288	0.557132	0.081665
C142	C	-0.054093	0.704942	0.081677
C143	C	-0.054087	0.704939	0.125924
C144	C	-0.026991	0.667987	0.148044
C145	C	0.000106	0.631042	0.398681
C146	C	0.000101	0.631020	0.351579
C147	C	-0.138660	0.441756	-0.601333
C148	C	-0.185750	0.377513	-0.648428
C149	C	0.000104	0.441786	-0.601316
C150	C	0.000109	0.377553	-0.648404
C151	C	0.138832	0.631068	-0.323812
C152	C	0.185920	0.631076	-0.276718
C153	C	0.000074	0.820303	-0.323827
C154	C	0.000069	0.884535	-0.276739
C155	C	0.138838	0.820333	-0.323810
C156	C	0.185928	0.884575	-0.276716
C157	C	-0.138654	0.631020	-0.601331
C158	C	-0.185742	0.631012	-0.648425
C159	C	-0.234963	0.384296	-0.670552
C160	C	-0.279214	0.323939	-0.714808
C161	C	-0.274249	0.256800	-0.736937
C162	C	-0.225030	0.250018	-0.714812
C163	C	-0.180781	0.310375	-0.670559
C164	C	-0.026991	0.310419	-0.670526
C165	C	-0.026997	0.250060	-0.714777
C166	C	0.000101	0.256836	-0.736902
C167	C	0.027201	0.323977	-0.714779
C168	C	0.027204	0.384335	-0.670532
C169	C	0.235135	0.668050	-0.254594
C170	C	0.279383	0.668072	-0.210338
C171	C	0.274415	0.631116	-0.188211
C172	C	0.225195	0.594141	-0.210337
C173	C	0.180948	0.594124	-0.254589
C174	C	0.027164	0.951670	-0.254622
C175	C	0.027158	1.012029	-0.210383
C176	C	0.000059	1.005252	-0.188260
C177	C	-0.027040	0.938111	-0.210381
C178	C	-0.027036	0.877753	-0.254622
C179	C	0.180946	0.951703	-0.254598
C180	C	0.225188	1.012071	-0.210341
C181	C	0.274411	1.005311	-0.188206
C182	C	0.279391	0.938177	-0.210326
C183	C	0.235149	0.877810	-0.254579
C184	C	-0.180757	0.667972	-0.670541
C185	C	-0.224997	0.667962	-0.714797
C186	C	-0.274221	0.630996	-0.736932
C187	C	-0.279204	0.594032	-0.714814
C188	C	-0.234965	0.594038	-0.670562
H189	H	-0.049068	0.195385	-0.560889
N190	N	0.000102	0.191735	-0.784621
H191	H	-0.015314	0.191697	-0.821340
H192	H	-0.021168	0.148214	-0.795224
H193	H	0.049263	0.329485	-0.732800
H194	H	-0.049063	-0.067422	-0.560888
H195	H	-0.220929	0.698066	-0.732798
H196	H	0.239190	0.698147	-0.272604
N197	N	0.322140	0.631126	-0.140489
H198	H	0.322163	0.652159	-0.103771
H199	H	0.354044	0.660144	-0.129885
H200	H	-0.680512	0.698134	-0.364232
N201	N	-0.127669	0.707846	-0.646672
H202	H	-0.131232	0.731253	-0.667405
H203	H	-0.108130	0.673914	-0.654368
N204	N	-0.321929	0.631004	-0.784657
H205	H	-0.343231	0.652036	-0.769266
H206	H	-0.343187	0.580935	-0.821363
N207	N	0.332467	0.707946	-0.186482
H208	H	0.336608	0.759645	-0.168134
H209	H	0.336579	0.688495	-0.220269
N210	N	-0.127713	0.707837	-0.349949
H211	H	-0.108139	0.745028	-0.347529
H212	H	-0.108194	0.673893	-0.347565
N213	N	0.083513	0.517274	0.149775
H214	H	0.110776	0.551178	0.194191
H215	H	0.100646	0.493860	0.129007
H216	H	0.221158	0.564052	-0.192314
H217	H	-0.220979	0.698090	-0.364263
N218	N	0.056436	0.456743	-0.646672
H219	H	0.073601	0.451870	-0.667404
H220	H	0.083676	0.483396	-0.602256
H221	H	0.049235	0.957201	-0.272627
H222	H	0.239212	0.823154	-0.272586
N223	N	0.332482	0.930892	-0.186457
H224	H	0.352047	0.954292	-0.142041
H225	H	0.351997	0.954291	-0.194200
N226	N	0.056379	1.084438	-0.186539
H227	H	0.052261	1.121651	-0.155162
H228	H	0.042149	1.090000	-0.220345
H229	H	0.140876	0.564011	-0.272601
H230	H	-0.319288	0.563935	-0.732843
H231	H	0.000060	1.054405	-0.152236
N232	N	-0.056257	0.930808	-0.186507
H233	H	-0.052139	0.979235	-0.155120
H234	H	-0.042022	0.904130	-0.168176
H235	H	0.221123	1.066729	-0.192339
N236	N	-0.056261	0.805345	-0.278474
H237	H	-0.073426	0.810218	-0.257742
H238	H	-0.031384	0.778699	-0.270767
H239	H	-0.239031	0.563942	-0.652557
N240	N	-0.083313	0.744801	0.149785
H241	H	-0.100476	0.768210	0.129055
H242	H	-0.058432	0.781962	0.194201
H243	H	-0.049073	0.304876	-0.560889
H244	H	0.007117	0.134428	-0.537887
N245	N	-0.240328	0.456704	-0.646699
H246	H	-0.204831	0.493918	-0.615307
H247	H	-0.259902	0.462292	-0.628383
H248	H	-0.076160	0.735033	0.063670
N249	N	-0.056220	0.303098	-0.646669
H250	H	-0.031374	0.326487	-0.602255
H251	H	-0.073385	0.251392	-0.667448
H252	H	0.007129	0.024939	-0.537878
H253	H	-0.049065	0.195397	-0.732783
H254	H	-0.049051	-0.176911	-0.560884
H255	H	0.310431	1.054472	-0.152173
N256	N	0.056422	0.554214	0.261342
H257	H	0.031574	0.517019	0.216926
H258	H	0.073585	0.530849	0.282114
N259	N	0.056402	0.456753	-0.349934
H260	H	0.073566	0.451896	-0.315604
H261	H	0.031522	0.483398	-0.347575
H262	H	-0.317154	0.735067	-0.310066
H263	H	0.140871	0.957220	-0.272614
H264	H	-0.049065	0.698059	0.347464
H265	H	0.049246	-0.042789	-0.364253
H266	H	-0.006951	0.127664	-0.387259
N267	N	0.056405	0.084454	-0.349933
H268	H	0.073568	0.079595	-0.315603
H269	H	0.031526	0.111101	-0.347574
N270	N	-0.083320	0.744818	-0.074921
H271	H	-0.069107	0.796521	-0.041162
H272	H	-0.121216	0.725369	-0.093282
N273	N	-0.007976	0.252614	-0.376287
H274	H	-0.041478	0.238324	-0.381831
H275	H	-0.007365	0.291105	-0.382608
N276	N	0.056398	0.331301	-0.349934
H277	H	0.031547	0.307904	-0.347519
H278	H	0.073561	0.383005	-0.315639
N279	N	-0.396099	0.744848	-0.295738
H280	H	-0.358203	0.768255	-0.261417
H281	H	-0.413278	0.710914	-0.293375
H282	H	-0.760789	0.698142	-0.364232
N283	N	-0.056230	0.707832	0.261353
H284	H	-0.031387	0.745035	0.269052
H285	H	-0.073393	0.731186	0.282096
N286	N	-0.872109	0.554222	-0.575187
H287	H	-0.868540	0.530801	-0.609513
H288	H	-0.891661	0.588136	-0.577567
H289	H	-0.778838	0.564018	-0.560873
H290	H	-0.549920	0.527043	-0.615080
H291	H	-0.319312	0.563951	-0.560907
N292	N	-0.470966	0.517275	-0.629404
H293	H	-0.508861	0.493866	-0.663729
H294	H	-0.453797	0.480114	-0.631770
N295	N	-0.240353	0.554155	-0.575233
H296	H	-0.204853	0.559758	-0.567007
H297	H	-0.259912	0.573548	-0.598908
N298	N	-0.436874	0.744843	-0.295736
H299	H	-0.440445	0.768254	-0.261411
H300	H	-0.417322	0.782001	-0.293364
H301	H	-0.530157	0.735092	-0.310058
N302	N	-0.695664	0.517259	-0.629385
H303	H	-0.692095	0.493835	-0.663711
H304	H	-0.715213	0.551175	-0.631764
H305	H	-0.602394	0.527046	-0.615068
H306	H	0.049222	0.563988	-0.272635
H307	H	0.076335	0.527030	-0.069093
N308	N	0.056395	0.554224	-0.186512
H309	H	0.094297	0.573613	-0.168161
H310	H	0.042138	0.502530	-0.220301
N311	N	0.083507	0.517271	0.017024
H312	H	0.100667	0.493865	-0.003713
H313	H	0.058630	0.480107	0.009321
N314	N	0.056426	0.554216	0.353323
H315	H	0.094330	0.573615	0.371683
H316	H	0.042180	0.502519	0.319544
N317	N	-0.083317	0.744822	0.017048
H318	H	-0.100475	0.768233	-0.003682
H319	H	-0.058435	0.781982	0.061463
H320	H	-0.220995	0.195346	-0.732836
H321	H	-0.049097	0.698075	-0.192352
H322	H	-0.310284	0.207659	-0.772971
N323	N	-0.056261	0.707844	-0.278475
H324	H	-0.052149	0.702234	-0.309863
H325	H	-0.042034	0.759531	-0.244683
N326	N	0.083508	0.517267	0.057799
H327	H	0.100671	0.493860	0.078532
H328	H	0.110748	0.551201	0.065496
N329	N	-0.332295	0.331262	-0.738676
H330	H	-0.328721	0.382954	-0.717939
H331	H	-0.351850	0.307826	-0.730991
N332	N	-0.127701	0.303054	-0.646697
H333	H	-0.131275	0.251362	-0.667433
H334	H	-0.108168	0.326480	-0.602282
