data_functionalizedCrystal
_audit_creation_method	'MofGen! by Chris Wilmer'
_symmetry_space_group_name_H-M	'P1'
_symmetry_Int_Tables_number	1
_symmetry_cell_setting	triclinic
loop_
_symmetry_equiv_pos_as_xyz
  x,y,z
_cell_length_a	20.919287
_cell_length_b	14.628931
_cell_length_c	14.628931
_cell_angle_alpha	60.000000
_cell_angle_beta	86.844449
_cell_angle_gamma	58.213065
loop_
_atom_site_label
_atom_site_type_symbol
_atom_site_fract_x
_atom_site_fract_y
_atom_site_fract_z
Zr1	Zr	0.616754	1.000582	-0.168513
O2	O	0.514529	1.191286	-0.306426
O3	O	0.648092	0.809876	-0.126234
O4	O	0.648092	1.000581	-0.316940
O5	O	0.514528	1.000582	0.034711
O6	O	0.753449	1.000582	-0.325234
O7	O	0.514528	1.000581	-0.115721
O8	O	0.753448	0.659445	0.015904
O9	O	0.514529	1.341718	-0.306427
O10	O	0.740084	0.888317	-0.114393
O11	O	0.661457	0.888317	0.004062
O12	O	0.661457	1.112847	-0.220469
O13	O	0.582830	1.112847	-0.102014
Zr14	Zr	0.784786	1.000583	0.058181
Zr15	Zr	0.784787	1.000582	-0.181740
Zr16	Zr	0.616754	1.000582	0.071409
Zr17	Zr	0.616754	1.240503	-0.168513
Zr18	Zr	0.784786	0.760662	0.058181
O19	O	0.753449	1.191288	0.015903
O20	O	0.753449	1.191287	-0.325234
O21	O	0.514528	1.191287	0.034711
O22	O	0.887012	0.809879	0.196095
O23	O	0.887012	0.809878	-0.145042
O24	O	0.648091	0.809877	0.214903
O25	O	0.887012	1.000583	-0.145042
O26	O	0.753449	1.000583	0.206609
O27	O	0.648091	1.000583	0.214902
O28	O	0.887012	1.000584	0.005389
O29	O	0.648092	1.341719	-0.316941
O30	O	0.753448	0.659446	0.206609
O31	O	0.887012	0.659447	0.196095
O32	O	0.887012	0.659446	0.005390
O33	O	0.514529	1.341719	-0.115721
O34	O	0.648092	1.341719	-0.126235
O35	O	0.740083	0.888317	0.110138
O36	O	0.818710	0.888317	-0.008317
O37	O	0.740084	1.112848	-0.114393
O38	O	0.661457	1.112848	0.004062
C39	C	0.700770	0.700477	-0.055165
C40	C	0.700770	0.598624	-0.055165
C41	C	0.490587	1.000581	-0.038620
C42	C	0.419253	1.000581	-0.033005
C43	C	0.739774	0.553215	-0.113927
C44	C	0.739775	0.447945	-0.113928
C45	C	0.385740	1.000584	-0.113243
C46	C	0.318716	1.000577	-0.107961
C47	C	0.285204	1.000576	-0.022445
C48	C	0.318723	1.000569	0.057801
C49	C	0.385749	1.000567	0.052523
C50	C	0.082832	1.000574	-0.002359
C51	C	0.015801	1.000581	0.002912
C52	C	0.015799	1.000586	-0.162850
C53	C	0.082824	1.000592	-0.168124
C54	C	0.116339	1.000578	-0.087875
C55	C	0.216693	1.000573	-0.017047
C56	C	0.184852	1.000572	-0.093271
C57	C	0.910953	1.000583	-0.071711
C58	C	0.982287	1.000584	-0.077327
C59	C	0.700771	1.000581	-0.355271
C60	C	0.700771	1.000581	-0.457123
C61	C	0.700771	1.300688	-0.055166
C62	C	0.700771	1.402541	-0.055166
C63	C	0.661767	1.111963	-0.555154
C64	C	0.661766	1.111966	-0.660425
C65	C	0.700770	1.000583	0.244939
C66	C	0.700770	1.000583	0.346792
C67	C	0.910953	0.700478	-0.071711
C68	C	0.982287	0.598626	-0.077326
C69	C	0.700770	0.700478	0.244940
C70	C	0.700769	0.598625	0.346793
C71	C	0.910953	0.700479	0.228394
C72	C	0.982286	0.598627	0.324632
C73	C	0.490588	1.300686	-0.338726
C74	C	0.419254	1.402538	-0.434963
C75	C	0.490588	1.300686	-0.038621
C76	C	0.419254	1.402539	-0.033005
C77	C	0.700771	1.300687	-0.355271
C78	C	0.700771	1.402539	-0.457124
C79	C	0.974744	0.550794	-0.135344
C80	C	1.041763	0.455106	-0.140642
C81	C	1.116325	0.407245	-0.087915
C82	C	1.123867	0.455086	-0.029895
C83	C	1.056848	0.550779	-0.024605
C84	C	1.056835	0.550796	0.307993
C85	C	1.123867	0.455108	0.398409
C86	C	1.116349	0.407247	0.505462
C87	C	1.041793	0.455087	0.522099
C88	C	0.974762	0.550779	0.431684
C89	C	0.344705	1.450380	-0.418325
C90	C	0.277673	1.546098	-0.508740
C91	C	0.285191	1.593964	-0.615794
C92	C	0.359748	1.546118	-0.632431
C93	C	0.426778	1.450409	-0.542016
C94	C	0.426797	1.450380	0.025002
C95	C	0.359777	1.546095	0.030274
C96	C	0.285215	1.593960	-0.022456
C97	C	0.277674	1.546114	-0.080472
C98	C	0.344692	1.450408	-0.085749
C99	C	0.739773	0.553217	0.444823
C100	C	0.739774	0.447946	0.550094
H101	H	0.773170	0.592266	-0.164230
H102	H	0.734160	0.905220	-0.569110
H103	H	0.338569	1.411412	-0.331164
Cl104	Cl	0.649205	0.462828	0.022505
H105	H	0.773168	0.408895	0.634196
Cl106	Cl	1.066345	0.610889	0.048348
H107	H	0.216957	1.585100	-0.123402
H108	H	0.487477	1.411456	-0.555577
Cl109	Cl	1.032355	0.394902	0.656689
Cl110	Cl	0.649215	0.462815	0.413036
H111	H	0.487503	1.411416	0.067950
Cl112	Cl	1.066307	0.610954	0.173421
Cl113	Cl	0.369276	1.606218	0.103217
Cl114	Cl	0.276585	1.000579	-0.208833
H115	H	1.170936	0.329327	0.579074
Cl116	Cl	0.200970	1.714275	-0.015808
Cl117	Cl	0.649217	0.538322	0.022516
H118	H	0.413019	1.000593	-0.182883
Cl119	Cl	0.752333	0.853350	-0.447861
H120	H	0.110108	1.000593	-0.237759
Cl121	Cl	0.610214	1.259195	-0.564417
Cl122	Cl	1.217608	0.394897	0.036390
H123	H	0.365860	1.585103	-0.719604
Cl124	Cl	0.335196	1.390267	-0.158671
Cl125	Cl	0.791329	0.387665	-0.191611
Cl126	Cl	-0.026335	1.000597	-0.263726
H127	H	-0.011483	1.000581	0.072553
Cl128	Cl	0.124959	1.000564	0.098520
H129	H	0.914064	0.589711	0.445248
Cl130	Cl	0.276598	1.000559	0.165313
Cl131	Cl	0.649206	0.538337	0.337531
Cl132	Cl	0.881017	0.610948	-0.201644
Cl133	Cl	0.610202	1.259200	-0.790270
H134	H	1.184568	0.416166	0.384843
Cl135	Cl	0.183955	1.606223	-0.487800
Cl136	Cl	1.032264	0.394978	-0.213579
Cl137	Cl	0.200915	1.714284	-0.729448
H138	H	0.413035	1.000562	0.117862
Cl139	Cl	0.791326	0.613520	0.454085
H140	H	0.212142	1.000566	-0.162895
H141	H	0.189401	1.000576	0.052581
H142	H	1.170890	0.329324	-0.092230
