data_functionalizedCrystal
_audit_creation_method	'MofGen! by Chris Wilmer'
_symmetry_space_group_name_H-M	'P1'
_symmetry_Int_Tables_number	1
_symmetry_cell_setting	triclinic
loop_
_symmetry_equiv_pos_as_xyz
  x,y,z
_cell_length_a	27.731993
_cell_length_b	27.732048
_cell_length_c	26.809956
_cell_angle_alpha	89.999364
_cell_angle_beta	90.002784
_cell_angle_gamma	82.631525
loop_
_atom_site_label
_atom_site_type_symbol
_atom_site_fract_x
_atom_site_fract_y
_atom_site_fract_z
O1	O	0.640948	0.057385	-0.041351
O2	O	0.890948	0.307385	0.208649
O3	O	1.140948	0.557385	0.458649
O4	O	1.390948	0.807385	0.708649
O5	O	0.500151	0.066158	-0.041382
O6	O	0.750151	0.316158	0.208618
O7	O	1.000151	0.566158	0.458618
O8	O	1.250151	0.816158	0.708618
O9	O	0.574923	-0.008626	-0.041356
O10	O	0.824923	0.241374	0.208644
O11	O	1.074923	0.491374	0.458644
O12	O	1.324923	0.741374	0.708644
O13	O	0.566177	0.132169	-0.041377
O14	O	0.816177	0.382169	0.208623
O15	O	1.066177	0.632169	0.458623
O16	O	1.316177	0.882169	0.708623
O17	O	0.574908	-0.008615	0.041603
O18	O	0.824908	0.241385	0.291603
O19	O	1.074908	0.491385	0.541603
O20	O	1.324908	0.741385	0.791603
O21	O	0.500137	0.066169	0.041577
O22	O	0.750137	0.316169	0.291577
O23	O	1.000137	0.566169	0.541577
O24	O	1.250137	0.816169	0.791577
O25	O	0.640934	0.057396	0.041609
O26	O	0.890934	0.307396	0.291609
O27	O	1.140934	0.557396	0.541609
O28	O	1.390934	0.807396	0.791609
Zn29	Zn	0.570533	0.061784	0.054764
Zn30	Zn	0.820533	0.311784	0.304764
Zn31	Zn	1.070533	0.561784	0.554764
Zn32	Zn	1.320533	0.811784	0.804764
Zn33	Zn	0.570552	0.061769	-0.054538
Zn34	Zn	0.820552	0.311769	0.195462
Zn35	Zn	1.070552	0.561769	0.445462
Zn36	Zn	1.320552	0.811769	0.695462
O37	O	0.566163	0.132180	0.041582
O38	O	0.816163	0.382180	0.291582
O39	O	1.066163	0.632180	0.541582
O40	O	1.316163	0.882180	0.791582
C41	C	0.482137	0.065983	0.000094
C42	C	0.732137	0.315983	0.250094
C43	C	0.982137	0.565983	0.500094
C44	C	1.232137	0.815983	0.750094
C45	C	0.428480	0.065441	0.000082
C46	C	0.678480	0.315441	0.250082
C47	C	0.928480	0.565441	0.500082
C48	C	1.178480	0.815441	0.750082
C49	C	0.574732	-0.026628	0.000125
C50	C	0.824732	0.223372	0.250125
C51	C	1.074732	0.473372	0.500125
C52	C	1.324732	0.723372	0.750125
C53	C	0.574179	-0.080282	0.000129
C54	C	0.824179	0.169718	0.250129
C55	C	1.074179	0.419718	0.500129
C56	C	1.324179	0.669718	0.750129
C57	C	0.045328	0.061504	-0.045114
C58	C	0.295328	0.311504	0.204886
C59	C	0.545328	0.561504	0.454886
C60	C	0.795328	0.811504	0.704886
C61	C	0.246985	0.063571	-0.045128
C62	C	0.496985	0.313571	0.204872
C63	C	0.746985	0.563571	0.454872
C64	C	0.996985	0.813571	0.704872
O65	O	0.273065	0.063814	-0.083588
O66	O	0.523065	0.313814	0.166412
O67	O	0.773065	0.563814	0.416412
O68	O	1.023065	0.813814	0.666412
N69	N	0.272198	0.063836	0.000092
N70	N	0.522198	0.313836	0.250092
N71	N	0.772198	0.563836	0.500092
N72	N	1.022198	0.813836	0.750092
C73	C	0.246993	0.063581	0.045319
C74	C	0.496993	0.313581	0.295319
C75	C	0.746993	0.563581	0.545319
C76	C	0.996993	0.813581	0.795319
O77	O	0.273066	0.063849	0.083781
O78	O	0.523066	0.313849	0.333781
O79	O	0.773066	0.563849	0.583781
O80	O	1.023066	0.813849	0.833781
C81	C	0.045337	0.061510	0.045332
C82	C	0.295337	0.311510	0.295332
C83	C	0.545337	0.561510	0.545332
C84	C	0.795337	0.811510	0.795332
C85	C	0.020127	0.061251	0.000109
C86	C	0.270127	0.311251	0.250109
C87	C	0.520127	0.561251	0.500109
C88	C	0.770127	0.811251	0.750109
C89	C	0.020117	0.061244	-0.090333
C90	C	0.270117	0.311244	0.159667
C91	C	0.520117	0.561244	0.409667
C92	C	0.770117	0.811244	0.659667
C93	C	-0.030295	0.060730	-0.090329
C94	C	0.219705	0.310730	0.159671
C95	C	0.469705	0.560730	0.409671
C96	C	0.719705	0.810730	0.659671
C97	C	-0.055496	0.060476	-0.045106
C98	C	0.194504	0.310476	0.204894
C99	C	0.444504	0.560476	0.454894
C100	C	0.694504	0.810476	0.704894
C101	C	-0.030285	0.060736	0.000113
C102	C	0.219715	0.310736	0.250113
C103	C	0.469715	0.560736	0.500113
C104	C	0.719715	0.810736	0.750113
C105	C	0.020134	0.061252	0.090558
C106	C	0.270134	0.311252	0.340558
C107	C	0.520134	0.561252	0.590558
C108	C	0.770134	0.811252	0.840558
C109	C	-0.030283	0.060733	0.090558
C110	C	0.219717	0.310733	0.340558
C111	C	0.469717	0.560733	0.590558
C112	C	0.719717	0.810733	0.840558
C113	C	-0.055493	0.060473	0.045335
C114	C	0.194507	0.310473	0.295335
C115	C	0.444507	0.560473	0.545335
C116	C	0.694507	0.810473	0.795335
C117	C	-0.105898	0.059969	0.045340
C118	C	0.144102	0.309969	0.295340
C119	C	0.394102	0.559969	0.545340
C120	C	0.644102	0.809969	0.795340
N121	N	-0.131110	0.059704	0.000120
N122	N	0.118890	0.309704	0.250120
N123	N	0.368890	0.559704	0.500120
N124	N	0.618890	0.809704	0.750120
C125	C	-0.105909	0.059958	-0.045103
C126	C	0.144091	0.309958	0.204897
C127	C	0.394091	0.559958	0.454897
C128	C	0.644091	0.809958	0.704897
C129	C	0.352866	0.064669	0.045309
C130	C	0.602866	0.314669	0.295309
C131	C	0.852866	0.564669	0.545309
C132	C	1.102866	0.814669	0.795309
C133	C	0.403279	0.065187	0.045306
C134	C	0.653279	0.315187	0.295306
C135	C	0.903279	0.565187	0.545306
C136	C	1.153279	0.815187	0.795306
C137	C	0.403268	0.065177	-0.045141
C138	C	0.653268	0.315177	0.204859
C139	C	0.903268	0.565177	0.454859
C140	C	1.153268	0.815177	0.704859
C141	C	0.352853	0.064662	-0.045138
C142	C	0.602853	0.314662	0.204862
C143	C	0.852853	0.564662	0.454862
C144	C	1.102853	0.814662	0.704862
C145	C	0.327653	0.064404	0.000089
C146	C	0.577653	0.314404	0.250089
C147	C	0.827653	0.564404	0.500089
C148	C	1.077653	0.814404	0.750089
C149	C	-0.211777	0.058878	-0.045091
C150	C	0.038223	0.308878	0.204909
C151	C	0.288223	0.558878	0.454909
C152	C	0.538223	0.808878	0.704909
C153	C	-0.262194	0.058366	-0.045083
C154	C	-0.012194	0.308366	0.204917
C155	C	0.237806	0.558366	0.454917
C156	C	0.487806	0.808366	0.704917
C157	C	-0.262178	0.058374	0.045363
C158	C	-0.012178	0.308374	0.295363
C159	C	0.237822	0.558374	0.545363
C160	C	0.487822	0.808374	0.795363
C161	C	-0.211766	0.058889	0.045356
C162	C	0.038234	0.308889	0.295356
C163	C	0.288234	0.558889	0.545356
C164	C	0.538234	0.808889	0.795356
C165	C	-0.186567	0.059139	0.000124
C166	C	0.063433	0.309139	0.250124
C167	C	0.313433	0.559139	0.500124
C168	C	0.563433	0.809139	0.750124
O169	O	-0.132008	0.059720	0.083780
O170	O	0.117992	0.309720	0.333780
O171	O	0.367992	0.559720	0.583780
O172	O	0.617992	0.809720	0.833780
O173	O	-0.131989	0.059679	-0.083559
O174	O	0.118011	0.309679	0.166441
O175	O	0.368011	0.559679	0.416441
O176	O	0.618011	0.809679	0.666441
C177	C	0.095740	0.062018	-0.045118
C178	C	0.345740	0.312018	0.204882
C179	C	0.595740	0.562018	0.454882
C180	C	0.845740	0.812018	0.704882
C181	C	0.120950	0.062279	0.000101
C182	C	0.370950	0.312279	0.250101
C183	C	0.620950	0.562279	0.500101
C184	C	0.870950	0.812279	0.750101
C185	C	0.095749	0.062025	0.045325
C186	C	0.345749	0.312025	0.295325
C187	C	0.595749	0.562025	0.545325
C188	C	0.845749	0.812025	0.795325
C189	C	0.171364	0.062797	0.000098
C190	C	0.421364	0.312797	0.250098
C191	C	0.671364	0.562797	0.500098
C192	C	0.921364	0.812797	0.750098
C193	C	0.196565	0.063051	-0.045125
C194	C	0.446565	0.313051	0.204875
C195	C	0.696565	0.563051	0.454875
C196	C	0.946565	0.813051	0.704875
C197	C	0.171352	0.062786	-0.090345
C198	C	0.421352	0.312786	0.159655
C199	C	0.671352	0.562786	0.409655
C200	C	0.921352	0.812786	0.659655
C201	C	0.120941	0.062272	-0.090341
C202	C	0.370941	0.312272	0.159659
C203	C	0.620941	0.562272	0.409659
C204	C	0.870941	0.812272	0.659659
C205	C	0.120962	0.062290	0.090545
C206	C	0.370962	0.312290	0.340545
C207	C	0.620962	0.562290	0.590545
C208	C	0.870962	0.812290	0.840545
C209	C	0.171373	0.062805	0.090537
C210	C	0.421373	0.312805	0.340537
C211	C	0.671373	0.562805	0.590537
C212	C	0.921373	0.812805	0.840537
C213	C	0.196574	0.063058	0.045314
C214	C	0.446574	0.313058	0.295314
C215	C	0.696574	0.563058	0.545314
C216	C	0.946574	0.813058	0.795314
C217	C	0.614884	-0.419105	0.000113
C218	C	0.864884	-0.169105	0.250113
C219	C	1.114884	0.080895	0.500113
C220	C	1.364884	0.330895	0.750113
C221	C	0.612833	-0.620765	0.000105
C222	C	0.862833	-0.370765	0.250105
C223	C	1.112833	-0.120765	0.500105
C224	C	1.362833	0.129235	0.750105
O225	O	0.650055	-0.652028	0.000092
O226	O	0.900055	-0.402028	0.250092
O227	O	1.150055	-0.152028	0.500092
O228	O	1.400055	0.097972	0.750092
N229	N	0.568497	-0.639880	0.000096
N230	N	0.818497	-0.389880	0.250096
N231	N	1.068497	-0.139880	0.500096
N232	N	1.318497	0.110120	0.750096
C233	C	0.524670	-0.608576	0.000085
C234	C	0.774670	-0.358576	0.250085
C235	C	1.024670	-0.108576	0.500085
C236	C	1.274670	0.141424	0.750085
O237	O	0.486912	-0.629462	0.000072
O238	O	0.736912	-0.379462	0.250072
O239	O	0.986912	-0.129462	0.500072
O240	O	1.236912	0.120538	0.750072
C241	C	0.526721	-0.406918	0.000089
C242	C	0.776721	-0.156918	0.250089
C243	C	1.026721	0.093082	0.500089
C244	C	1.276721	0.343082	0.750089
C245	C	0.571061	-0.387806	0.000103
C246	C	0.821061	-0.137806	0.250103
C247	C	1.071061	0.112194	0.500103
C248	C	1.321061	0.362194	0.750103
C249	C	0.659220	-0.399993	0.000126
C250	C	0.909220	-0.149993	0.250126
C251	C	1.159220	0.100007	0.500126
C252	C	1.409220	0.350007	0.750126
C253	C	0.659732	-0.349581	0.000131
C254	C	0.909732	-0.099581	0.250131
C255	C	1.159732	0.150419	0.500131
C256	C	1.409732	0.400419	0.750131
C257	C	0.615909	-0.318282	0.000122
C258	C	0.865909	-0.068282	0.250122
C259	C	1.115909	0.181718	0.500122
C260	C	1.365909	0.431718	0.750122
C261	C	0.571573	-0.337394	0.000108
C262	C	0.821573	-0.087394	0.250108
C263	C	1.071573	0.162606	0.500108
C264	C	1.321573	0.412606	0.750108
C265	C	0.482895	-0.375616	0.000074
C266	C	0.732895	-0.125616	0.250074
C267	C	0.982895	0.124384	0.500074
C268	C	1.232895	0.374384	0.750074
C269	C	0.483412	-0.325199	0.000074
C270	C	0.733412	-0.075199	0.250074
C271	C	0.983412	0.174801	0.500074
C272	C	1.233412	0.424801	0.750074
C273	C	0.527751	-0.306087	0.000089
C274	C	0.777751	-0.056087	0.250089
C275	C	1.027751	0.193913	0.500089
C276	C	1.277751	0.443913	0.750089
C277	C	0.528262	-0.255683	0.000103
C278	C	0.778262	-0.005683	0.250103
C279	C	1.028262	0.244317	0.500103
C280	C	1.278262	0.494317	0.750103
N281	N	0.572598	-0.236568	0.000112
N282	N	0.822598	0.013432	0.250112
N283	N	1.072598	0.263432	0.500112
N284	N	1.322598	0.513432	0.750112
C285	C	0.616422	-0.267867	0.000122
C286	C	0.866422	-0.017867	0.250122
C287	C	1.116422	0.232133	0.500122
C288	C	1.366422	0.482133	0.750122
C289	C	0.523596	-0.714450	0.000084
C290	C	0.773596	-0.464450	0.250084
C291	C	1.023596	-0.214450	0.500084
C292	C	1.273596	0.035550	0.750084
C293	C	0.523083	-0.764865	0.000084
C294	C	0.773083	-0.514865	0.250084
C295	C	1.023083	-0.264865	0.500084
C296	C	1.273083	-0.014865	0.750084
C297	C	0.611246	-0.777049	0.000103
C298	C	0.861246	-0.527049	0.250103
C299	C	1.111246	-0.277049	0.500103
C300	C	1.361246	-0.027049	0.750103
C301	C	0.611759	-0.726634	0.000107
C302	C	0.861759	-0.476634	0.250107
C303	C	1.111759	-0.226634	0.500107
C304	C	1.361759	0.023366	0.750107
C305	C	0.567932	-0.695335	0.000093
C306	C	0.817932	-0.445335	0.250093
C307	C	1.067932	-0.195335	0.500093
C308	C	1.317932	0.054665	0.750093
C309	C	0.617494	-0.161998	0.000132
C310	C	0.867494	0.088002	0.250132
C311	C	1.117494	0.338002	0.500132
C312	C	1.367494	0.588002	0.750132
C313	C	0.618003	-0.111582	0.000138
C314	C	0.868003	0.138418	0.250138
C315	C	1.118003	0.388418	0.500138
C316	C	1.368003	0.638418	0.750138
C317	C	0.529839	-0.099401	0.000117
C318	C	0.779839	0.150599	0.250117
C319	C	1.029839	0.400599	0.500117
C320	C	1.279839	0.650599	0.750117
C321	C	0.529331	-0.149814	0.000113
C322	C	0.779331	0.100186	0.250113
C323	C	1.029331	0.350186	0.500113
C324	C	1.279331	0.600186	0.750113
C325	C	0.573162	-0.181112	0.000118
C326	C	0.823162	0.068888	0.250118
C327	C	1.073162	0.318888	0.500118
C328	C	1.323162	0.568888	0.750118
O329	O	0.491060	-0.224392	0.000111
O330	O	0.741060	0.025608	0.250111
O331	O	0.991060	0.275608	0.500111
O332	O	1.241060	0.525608	0.750111
O333	O	0.654174	-0.246972	0.000124
O334	O	0.904174	0.003028	0.250124
O335	O	1.154174	0.253028	0.500124
O336	O	1.404174	0.503028	0.750124
C337	C	0.614372	-0.469517	0.000108
C338	C	0.864372	-0.219517	0.250108
C339	C	1.114372	0.030483	0.500108
C340	C	1.364372	0.280483	0.750108
C341	C	0.570036	-0.488630	0.000094
C342	C	0.820036	-0.238630	0.250094
C343	C	1.070036	0.011370	0.500094
C344	C	1.320036	0.261370	0.750094
C345	C	0.526213	-0.457331	0.000085
C346	C	0.776213	-0.207331	0.250085
C347	C	1.026213	0.042669	0.500085
C348	C	1.276213	0.292669	0.750085
C349	C	0.569523	-0.539044	0.000094
C350	C	0.819523	-0.289044	0.250094
C351	C	1.069523	-0.039044	0.500094
C352	C	1.319523	0.210956	0.750094
C353	C	0.613346	-0.570343	0.000103
C354	C	0.863346	-0.320343	0.250103
C355	C	1.113346	-0.070343	0.500103
C356	C	1.363346	0.179657	0.750103
C357	C	0.657683	-0.551228	0.000113
C358	C	0.907683	-0.301228	0.250113
C359	C	1.157683	-0.051228	0.500113
C360	C	1.407683	0.198772	0.750113
C361	C	0.658195	-0.500817	0.000117
C362	C	0.908195	-0.250817	0.250117
C363	C	1.158195	-0.000817	0.500117
C364	C	1.408195	0.249183	0.750117
C365	C	0.481876	-0.476446	0.000075
C366	C	0.731876	-0.226446	0.250075
C367	C	0.981876	0.023554	0.500075
C368	C	1.231876	0.273554	0.750075
C369	C	0.481368	-0.526858	0.000071
C370	C	0.731368	-0.276858	0.250071
C371	C	0.981368	-0.026858	0.500071
C372	C	1.231368	0.223142	0.750071
C373	C	0.525191	-0.558157	0.000081
C374	C	0.775191	-0.308157	0.250081
C375	C	1.025191	-0.058157	0.500081
C376	C	1.275191	0.191843	0.750081
C377	C	0.658949	0.057570	0.000132
C378	C	0.908949	0.307570	0.250132
C379	C	1.158949	0.557570	0.500132
C380	C	1.408949	0.807570	0.750132
C381	C	0.712605	0.058113	0.000140
C382	C	0.962605	0.308113	0.250140
C383	C	1.212605	0.558113	0.500140
C384	C	1.462605	0.808113	0.750140
C385	C	0.566353	0.150181	0.000100
C386	C	0.816353	0.400181	0.250100
C387	C	1.066353	0.650181	0.500100
C388	C	1.316353	0.900181	0.750100
C389	C	0.566906	0.203836	0.000093
C390	C	0.816906	0.453836	0.250093
C391	C	1.066906	0.703836	0.500093
C392	C	1.316906	0.953836	0.750093
N393	N	0.570524	0.061794	0.129360
N394	N	0.820524	0.311794	0.379360
N395	N	1.070524	0.561794	0.629360
N396	N	1.320524	0.811794	0.879360
N397	N	0.570565	0.061756	-0.129134
N398	N	0.820565	0.311756	0.120866
N399	N	1.070565	0.561756	0.370866
N400	N	1.320565	0.811756	0.620866
C401	C	0.603656	0.028663	0.473998
C402	C	0.853656	0.278663	0.723998
C403	C	1.103656	0.528663	0.973998
C404	C	1.353656	0.778663	1.223998
C405	C	0.603668	0.028656	0.682876
C406	C	0.853668	0.278656	0.932876
C407	C	1.103668	0.528656	1.182876
C408	C	1.353668	0.778656	1.432876
O409	O	0.631819	0.000489	0.709889
O410	O	0.881819	0.250489	0.959889
O411	O	1.131819	0.500489	1.209889
O412	O	1.381819	0.750489	1.459889
N413	N	0.570555	0.061759	0.708988
N414	N	0.820555	0.311759	0.958988
N415	N	1.070555	0.561759	1.208988
N416	N	1.320555	0.811759	1.458988
C417	C	0.537434	0.094864	0.682877
C418	C	0.787434	0.344864	0.932877
C419	C	1.037434	0.594864	1.182877
C420	C	1.287434	0.844864	1.432877
O421	O	0.509266	0.123016	0.709879
O422	O	0.759266	0.373016	0.959879
O423	O	1.009266	0.623016	1.209879
O424	O	1.259266	0.873016	1.459879
C425	C	0.537421	0.094869	0.474000
C426	C	0.787421	0.344869	0.724000
C427	C	1.037421	0.594869	0.974000
C428	C	1.287421	0.844869	1.224000
C429	C	0.570539	0.061767	0.447891
C430	C	0.820539	0.311767	0.697891
C431	C	1.070539	0.561767	0.947891
C432	C	1.320539	0.811767	1.197891
C433	C	0.636772	-0.004437	0.447889
C434	C	0.886772	0.245563	0.697889
C435	C	1.136772	0.495563	0.947889
C436	C	1.386772	0.745563	1.197889
C437	C	0.636771	-0.004433	0.395673
C438	C	0.886771	0.245567	0.645673
C439	C	1.136771	0.495567	0.895673
C440	C	1.386771	0.745567	1.145673
C441	C	0.603654	0.028671	0.369565
C442	C	0.853654	0.278671	0.619565
C443	C	1.103654	0.528671	0.869565
C444	C	1.353654	0.778671	1.119565
C445	C	0.570538	0.061771	0.395675
C446	C	0.820538	0.311771	0.645675
C447	C	1.070538	0.561771	0.895675
C448	C	1.320538	0.811771	1.145675
C449	C	0.504298	0.127971	0.447890
C450	C	0.754298	0.377971	0.697890
C451	C	1.004298	0.627971	0.947890
C452	C	1.254298	0.877971	1.197890
C453	C	0.504297	0.127968	0.395668
C454	C	0.754297	0.377968	0.645668
C455	C	1.004297	0.627968	0.895668
C456	C	1.254297	0.877968	1.145668
C457	C	0.537415	0.094867	0.369559
C458	C	0.787415	0.344867	0.619559
C459	C	1.037415	0.594867	0.869559
C460	C	1.287415	0.844867	1.119559
C461	C	0.537419	0.094878	0.317351
C462	C	0.787419	0.344878	0.567351
C463	C	1.037419	0.594878	0.817351
C464	C	1.287419	0.844878	1.067351
N465	N	0.570533	0.061775	0.291239
N466	N	0.820533	0.311775	0.541239
N467	N	1.070533	0.561775	0.791239
N468	N	1.320533	0.811775	1.041239
C469	C	0.603650	0.028671	0.317347
C470	C	0.853650	0.278671	0.567347
C471	C	1.103650	0.528671	0.817347
C472	C	1.353650	0.778671	1.067347
C473	C	0.537444	0.094860	0.792540
C474	C	0.787444	0.344860	1.042540
C475	C	1.037444	0.594860	1.292540
C476	C	1.287444	0.844860	1.542540
C477	C	0.537448	0.094859	0.844759
C478	C	0.787448	0.344859	1.094759
C479	C	1.037448	0.594859	1.344759
C480	C	1.287448	0.844859	1.594759
C481	C	0.603681	0.028650	0.844754
C482	C	0.853681	0.278650	1.094754
C483	C	1.103681	0.528650	1.344754
C484	C	1.353681	0.778650	1.594754
C485	C	0.603679	0.028653	0.792534
C486	C	0.853679	0.278653	1.042534
C487	C	1.103679	0.528653	1.292534
C488	C	1.353679	0.778653	1.542534
C489	C	0.570557	0.061757	0.766428
C490	C	0.820557	0.311757	1.016428
C491	C	1.070557	0.561757	1.266428
C492	C	1.320557	0.811757	1.516428
C493	C	0.603644	0.028683	0.207689
C494	C	0.853644	0.278683	0.457689
C495	C	1.103644	0.528683	0.707689
C496	C	1.353644	0.778683	0.957689
C497	C	0.603641	0.028691	0.155468
C498	C	0.853641	0.278691	0.405468
C499	C	1.103641	0.528691	0.655468
C500	C	1.353641	0.778691	0.905468
C501	C	0.537406	0.094898	0.155477
C502	C	0.787406	0.344898	0.405477
C503	C	1.037406	0.594898	0.655477
C504	C	1.287406	0.844898	0.905477
C505	C	0.537411	0.094891	0.207693
C506	C	0.787411	0.344891	0.457693
C507	C	1.037411	0.594891	0.707693
C508	C	1.287411	0.844891	0.957693
C509	C	0.570532	0.061780	0.233798
C510	C	0.820532	0.311780	0.483798
C511	C	1.070532	0.561780	0.733798
C512	C	1.320532	0.811780	0.983798
O513	O	0.509280	0.123026	0.290305
O514	O	0.759280	0.373026	0.540305
O515	O	1.009280	0.623026	0.790305
O516	O	1.259280	0.873026	1.040305
O517	O	0.631806	0.000516	0.290335
O518	O	0.881806	0.250516	0.540335
O519	O	1.131806	0.500516	0.790335
O520	O	1.381806	0.750516	1.040335
C521	C	0.603658	0.028659	0.526214
C522	C	0.853658	0.278659	0.776214
C523	C	1.103658	0.528659	1.026214
C524	C	1.353658	0.778659	1.276214
C525	C	0.570542	0.061759	0.552324
C526	C	0.820542	0.311759	0.802324
C527	C	1.070542	0.561759	1.052324
C528	C	1.320542	0.811759	1.302324
C529	C	0.537425	0.094862	0.526216
C530	C	0.787425	0.344862	0.776216
C531	C	1.037425	0.594862	1.026216
C532	C	1.287425	0.844862	1.276216
C533	C	0.570546	0.061758	0.604542
C534	C	0.820546	0.311758	0.854542
C535	C	1.070546	0.561758	1.104542
C536	C	1.320546	0.811758	1.354542
C537	C	0.603663	0.028655	0.630650
C538	C	0.853663	0.278655	0.880650
C539	C	1.103663	0.528655	1.130650
C540	C	1.353663	0.778655	1.380650
C541	C	0.636777	-0.004448	0.604538
C542	C	0.886777	0.245552	0.854538
C543	C	1.136777	0.495552	1.104538
C544	C	1.386777	0.745552	1.354538
C545	C	0.636775	-0.004444	0.552322
C546	C	0.886775	0.245556	0.802322
C547	C	1.136775	0.495556	1.052322
C548	C	1.386775	0.745556	1.302322
C549	C	0.504312	0.127965	0.552328
C550	C	0.754312	0.377965	0.802328
C551	C	1.004312	0.627965	1.052328
C552	C	1.254312	0.877965	1.302328
C553	C	0.504316	0.127959	0.604545
C554	C	0.754316	0.377959	0.854545
C555	C	1.004316	0.627959	1.104545
C556	C	1.254316	0.877959	1.354545
C557	C	0.537433	0.094855	0.630652
C558	C	0.787433	0.344855	0.880652
C559	C	1.037433	0.594855	1.130652
C560	C	1.287433	0.844855	1.380652
H561	H	-0.282718	0.058156	-0.081911
H562	H	-0.032718	0.308156	0.168089
H563	H	0.217282	0.558156	0.418089
H564	H	0.467282	0.808156	0.668089
H565	H	-0.282706	0.058170	0.082183
H566	H	-0.032706	0.308170	0.332183
H567	H	0.217294	0.558170	0.582183
H568	H	0.467294	0.808170	0.832183
H569	H	0.477329	0.154925	0.469141
H570	H	0.727329	0.404925	0.719141
H571	H	0.977329	0.654925	0.969141
H572	H	1.227329	0.904925	1.219141
H573	H	0.493226	-0.165375	0.000115
H574	H	0.743226	0.084625	0.250115
H575	H	0.993226	0.334625	0.500115
H576	H	1.243226	0.584625	0.750115
H577	H	0.663744	-0.031401	0.625803
H578	H	0.913744	0.218599	0.875803
H579	H	1.163744	0.468599	1.125803
H580	H	1.413744	0.718599	1.375803
H581	H	0.663743	-0.031399	0.531067
H582	H	0.913743	0.218601	0.781067
H583	H	1.163743	0.468601	1.031067
H584	H	1.413743	0.718601	1.281067
H585	H	0.477348	0.154919	0.625799
H586	H	0.727348	0.404919	0.875799
H587	H	0.977348	0.654919	1.125799
H588	H	1.227348	0.904919	1.375799
H589	H	0.494160	-0.073909	0.000111
H590	H	0.744160	0.176091	0.250111
H591	H	0.994160	0.426091	0.500111
H592	H	1.244160	0.676091	0.750111
H593	H	-0.050798	0.060527	0.127387
H594	H	0.199202	0.310527	0.377387
H595	H	0.449202	0.560527	0.627387
H596	H	0.699202	0.810527	0.877387
H597	H	0.445259	-0.542414	0.000064
H598	H	0.695259	-0.292414	0.250064
H599	H	0.945259	-0.042414	0.500064
H600	H	1.195259	0.207586	0.750064
H601	H	0.654110	-0.096024	0.000151
H602	H	0.904110	0.153976	0.250151
H603	H	1.154110	0.403976	0.500151
H604	H	1.404110	0.653976	0.750151
H605	H	0.447722	-0.299717	0.000062
H606	H	0.697722	-0.049717	0.250062
H607	H	0.947722	0.200283	0.500062
H608	H	1.197722	0.450283	0.750062
H609	H	0.040631	0.061449	-0.127161
H610	H	0.290631	0.311449	0.122839
H611	H	0.540631	0.561449	0.372839
H612	H	0.790631	0.811449	0.622839
H613	H	0.510484	0.121819	0.866013
H614	H	0.760484	0.371819	1.116013
H615	H	1.010484	0.621819	1.366013
H616	H	1.260484	0.871819	1.616013
H617	H	0.100419	0.062060	-0.127166
H618	H	0.350419	0.312060	0.122834
H619	H	0.600419	0.562060	0.372834
H620	H	0.850419	0.812060	0.622834
H621	H	0.191895	0.063020	0.127366
H622	H	0.441895	0.313020	0.377366
H623	H	0.691895	0.563020	0.627366
H624	H	0.941895	0.813020	0.877366
H625	H	0.332329	0.064450	-0.081962
H626	H	0.582329	0.314450	0.168038
H627	H	0.832329	0.564450	0.418038
H628	H	1.082329	0.814450	0.668038
H629	H	-0.050816	0.060516	-0.127155
H630	H	0.199184	0.310516	0.122845
H631	H	0.449184	0.560516	0.372845
H632	H	0.699184	0.810516	0.622845
H633	H	-0.191240	0.059110	0.082180
H634	H	0.058760	0.309110	0.332180
H635	H	0.308760	0.559110	0.582180
H636	H	0.558760	0.809110	0.832180
H637	H	0.510471	0.121817	0.771288
H638	H	0.760471	0.371817	1.021288
H639	H	1.010471	0.621817	1.271288
H640	H	1.260471	0.871817	1.521288
H641	H	0.423795	0.065385	-0.081964
H642	H	0.673795	0.315385	0.168036
H643	H	0.923795	0.565385	0.418036
H644	H	1.173795	0.815385	0.668036
H645	H	0.647864	-0.711077	0.000118
H646	H	0.897864	-0.461077	0.250118
H647	H	1.147864	-0.211077	0.500118
H648	H	1.397864	0.038923	0.750118
H649	H	-0.191266	0.059083	-0.081923
H650	H	0.058734	0.309083	0.168077
H651	H	0.308734	0.559083	0.418077
H652	H	0.558734	0.809083	0.668077
H653	H	0.694301	-0.485261	0.000129
H654	H	0.944301	-0.235261	0.250129
H655	H	1.194301	0.014739	0.500129
H656	H	1.444301	0.264739	0.750129
H657	H	0.693365	-0.576721	0.000122
H658	H	0.943365	-0.326721	0.250122
H659	H	1.193365	-0.076721	0.500122
H660	H	1.443365	0.173279	0.750122
H661	H	0.191879	0.062995	-0.127167
H662	H	0.441879	0.312995	0.122833
H663	H	0.691879	0.562995	0.372833
H664	H	0.941879	0.812995	0.622833
H665	H	0.100448	0.062081	0.127372
H666	H	0.350448	0.312081	0.377372
H667	H	0.600448	0.562081	0.627372
H668	H	0.850448	0.812081	0.877372
H669	H	0.423800	0.065407	0.082131
H670	H	0.673800	0.315407	0.332131
H671	H	0.923800	0.565407	0.582131
H672	H	1.173800	0.815407	0.832131
H673	H	0.653186	-0.187476	0.000135
H674	H	0.903186	0.062524	0.250135
H675	H	1.153186	0.312524	0.500135
H676	H	1.403186	0.562524	0.750135
H677	H	0.695838	-0.334025	0.000141
H678	H	0.945838	-0.084025	0.250141
H679	H	1.195838	0.165975	0.500141
H680	H	1.445838	0.415975	0.750141
H681	H	0.486977	-0.780421	0.000081
H682	H	0.736977	-0.530421	0.250081
H683	H	0.986977	-0.280421	0.500081
H684	H	1.236977	-0.030421	0.750081
H685	H	0.663740	-0.031396	0.469141
H686	H	0.913740	0.218604	0.719141
H687	H	1.163740	0.468604	0.969141
H688	H	1.413740	0.718604	1.219141
H689	H	0.694908	-0.425472	0.000132
H690	H	0.944908	-0.175472	0.250132
H691	H	1.194908	0.074528	0.500132
H692	H	1.444908	0.324528	0.750132
H693	H	0.446189	-0.450966	0.000067
H694	H	0.696189	-0.200966	0.250067
H695	H	0.946189	0.049034	0.500067
H696	H	1.196189	0.299034	0.750067
H697	H	0.332353	0.064458	0.082140
H698	H	0.582353	0.314458	0.332140
H699	H	0.832353	0.564458	0.582140
H700	H	1.082353	0.814458	0.832140
H701	H	0.477323	0.154925	0.374414
H702	H	0.727323	0.404925	0.624414
H703	H	0.977323	0.654925	0.874414
H704	H	1.227323	0.904925	1.124414
H705	H	0.510447	0.121851	0.228952
H706	H	0.760447	0.371851	0.478952
H707	H	1.010447	0.621851	0.728952
H708	H	1.260447	0.871851	0.978952
H709	H	0.630612	0.001735	0.134211
H710	H	0.880612	0.251735	0.384211
H711	H	1.130612	0.501735	0.634211
H712	H	1.380612	0.751735	0.884211
H713	H	0.646929	-0.802542	0.000111
H714	H	0.896929	-0.552542	0.250111
H715	H	1.146929	-0.302542	0.500111
H716	H	1.396929	-0.052542	0.750111
H717	H	0.040652	0.061462	0.127384
H718	H	0.290652	0.311462	0.377384
H719	H	0.540652	0.561462	0.627384
H720	H	0.790652	0.811462	0.877384
H721	H	0.487905	-0.688970	0.000073
H722	H	0.737905	-0.438970	0.250073
H723	H	0.987905	-0.188970	0.500073
H724	H	1.237905	0.061030	0.750073
H725	H	0.446789	-0.391168	0.000060
H726	H	0.696789	-0.141168	0.250060
H727	H	0.946789	0.108832	0.500060
H728	H	1.196789	0.358832	0.750060
H729	H	0.630614	0.001719	0.228937
H730	H	0.880614	0.251719	0.478937
H731	H	1.130614	0.501719	0.728937
H732	H	1.380614	0.751719	0.978937
H733	H	0.510444	0.121852	0.134212
H734	H	0.760444	0.371852	0.384212
H735	H	1.010444	0.621852	0.634212
H736	H	1.260444	0.871852	0.884212
H737	H	0.663737	-0.031388	0.374418
H738	H	0.913737	0.218612	0.624418
H739	H	1.163737	0.468612	0.874418
H740	H	1.413737	0.718612	1.124418
H741	H	0.630647	0.001699	0.771280
H742	H	0.880647	0.251699	1.021280
H743	H	1.130647	0.501699	1.271280
H744	H	1.380647	0.751699	1.521280
H745	H	0.630647	0.001697	0.866020
H746	H	0.880647	0.251697	1.116020
H747	H	1.130647	0.501697	1.366020
H748	H	1.380647	0.751697	1.616020
H749	H	0.477343	0.154922	0.531076
H750	H	0.727343	0.404922	0.781076
H751	H	0.977343	0.654922	1.031076
H752	H	1.227343	0.904922	1.281076
