data_functionalizedCrystal
_audit_creation_method	'MofGen! by Chris Wilmer'
_symmetry_space_group_name_H-M	'P1'
_symmetry_Int_Tables_number	1
_symmetry_cell_setting	triclinic
loop_
_symmetry_equiv_pos_as_xyz
  x,y,z
_cell_length_a	18.050589
_cell_length_b	13.033808
_cell_length_c	13.033454
_cell_angle_alpha	105.145795
_cell_angle_beta	82.784202
_cell_angle_gamma	97.222326
loop_
_atom_site_label
_atom_site_type_symbol
_atom_site_fract_x
_atom_site_fract_y
_atom_site_fract_z
Zn1	Zn	-0.120134	1.547437	-0.394628
Zn2	Zn	-0.258350	1.569836	-0.217048
Zn3	Zn	-0.148186	1.392368	-0.239565
Zn4	Zn	-0.258314	1.369774	-0.417118
O5	O	-0.196246	1.469854	-0.317090
O6	O	-0.126745	1.699032	-0.352236
O7	O	-0.255492	1.565125	-0.071410
O8	O	-0.040532	1.413020	-0.260145
O9	O	-0.228291	1.715488	-0.221769
O10	O	-0.019922	1.526948	-0.374070
O11	O	-0.174554	1.434740	-0.087953
O12	O	-0.174519	1.240748	-0.281953
O13	O	-0.228230	1.374511	-0.562760
O14	O	-0.255430	1.224147	-0.412401
O15	O	-0.126710	1.505039	-0.546236
O16	O	-0.362279	1.543216	-0.243576
O17	O	-0.362252	1.396231	-0.390567
C18	C	-0.389210	1.469728	-0.317088
C19	C	-0.471750	1.469766	-0.317111
C20	C	-0.218015	1.193911	-0.352061
C21	C	-0.227344	1.075858	-0.367047
C22	C	-0.174337	1.434756	-0.594112
C23	C	-0.165000	1.419800	-0.712163
C24	C	-0.671210	1.389909	-0.397011
C25	C	-0.730339	1.376320	-0.303376
C26	C	-0.622871	1.469869	-0.317111
C27	C	-0.710819	1.483509	-0.410750
C28	C	-0.768847	1.469965	-0.317121
C29	C	-0.680921	1.456236	-0.223432
C30	C	-0.661388	1.563461	-0.330866
C31	C	-0.720497	1.549918	-0.237160
C32	C	-0.538778	1.469811	-0.317108
C33	C	-0.852938	1.470025	-0.317114
C34	C	-0.002525	1.470006	-0.317111
C35	C	0.080028	1.470071	-0.317119
C36	C	-0.201030	0.909386	-0.324777
C37	C	-0.191389	1.031400	-0.309284
C38	C	-0.174393	1.746874	-0.281982
C39	C	-0.165080	1.864923	-0.267021
C40	C	-0.200884	1.477643	-0.756608
C41	C	-0.191235	1.462186	-0.878619
C42	C	-0.218012	1.504876	-0.041137
C43	C	-0.227123	1.520038	0.076939
H44	H	-0.649579	1.322212	-0.464505
H45	H	-0.265263	1.023598	-0.427966
H46	H	-0.760321	1.297216	-0.291755
Cl47	Cl	-0.259583	0.828703	-0.418813
H48	H	-0.264988	1.581012	-0.870788
H49	H	-0.127168	0.917189	-0.206102
Cl50	Cl	-0.660303	1.438341	-0.101158
Cl51	Cl	-0.615094	1.685554	-0.348883
H52	H	-0.127132	1.358839	-0.764439
H53	H	-0.742005	1.617587	-0.169526
H54	H	-0.153364	1.401221	-0.930892
H55	H	-0.724275	1.495008	-0.489936
Cl56	Cl	-0.259339	1.571782	-0.675904
Cl57	Cl	-0.132851	1.112081	-0.215221
