data_functionalizedCrystal
_audit_creation_method	'MofGen! by Chris Wilmer'
_symmetry_space_group_name_H-M	'P1'
_symmetry_Int_Tables_number	1
_symmetry_cell_setting	triclinic
loop_
_symmetry_equiv_pos_as_xyz
  x,y,z
_cell_length_a	10.723024
_cell_length_b	10.065875
_cell_length_c	10.723024
_cell_angle_alpha	98.874314
_cell_angle_beta	95.532131
_cell_angle_gamma	98.831087
loop_
_atom_site_label
_atom_site_type_symbol
_atom_site_fract_x
_atom_site_fract_y
_atom_site_fract_z
O1	O	1.675288	0.113481	-0.156842
O2	O	1.312136	0.113485	-0.173595
O3	O	1.502088	0.113478	0.016357
O4	O	1.485336	0.113488	-0.346794
O5	O	1.465868	-0.113509	-0.020011
O6	O	1.275917	-0.113502	-0.209963
O7	O	1.639068	-0.113506	-0.193210
Zn8	Zn	1.451742	-0.149543	-0.207361
Zn9	Zn	1.499463	0.149522	-0.159444
O10	O	1.449117	-0.113499	-0.383162
C11	C	1.247527	-0.000008	-0.190560
C12	C	1.108973	-0.000006	-0.186912
N13	N	1.419182	-0.353648	-0.240061
C14	C	0.917216	-0.000007	-0.073605
C15	C	1.060419	-0.000009	-0.077372
C16	C	1.488127	-0.421429	-0.170814
C17	C	1.463078	-0.578595	-0.195991
C18	C	1.703678	-0.000010	-0.176245
C19	C	1.842234	-0.000003	-0.179892
C20	C	1.482759	-0.000014	0.044673
C21	C	1.479112	-0.000009	0.183228
N22	N	1.532032	0.353627	-0.126734
C23	C	1.468446	-0.000004	-0.411477
C24	C	1.472094	0.000000	-0.550031
C25	C	1.585400	-0.000009	0.258210
C26	C	1.581633	-0.000004	0.401415
H27	H	0.875390	-0.000030	0.020178
Br28	Br	1.617102	-0.324233	-0.040614
Br29	Br	1.001600	0.000016	-0.338580
Br30	Br	1.320419	-0.000017	0.342590
H31	H	1.124852	-0.000003	0.013619
H32	H	0.884055	-0.000009	-0.273678
Br33	Br	1.333769	-0.675787	-0.325871
H34	H	1.609603	-0.588055	-0.048799
Br35	Br	1.289878	-0.450845	-0.369936
H36	H	1.679184	-0.000018	0.216387
H37	H	1.672623	-0.000009	0.465846
H38	H	1.385328	0.000001	0.225052
