data_functionalizedCrystal
_audit_creation_method	'MofGen! by Chris Wilmer'
_symmetry_space_group_name_H-M	'P1'
_symmetry_Int_Tables_number	1
_symmetry_cell_setting	triclinic
loop_
_symmetry_equiv_pos_as_xyz
  x,y,z
_cell_length_a	15.995350
_cell_length_b	16.109301
_cell_length_c	15.186229
_cell_angle_alpha	90.005167
_cell_angle_beta	89.999711
_cell_angle_gamma	83.476928
loop_
_atom_site_label
_atom_site_type_symbol
_atom_site_fract_x
_atom_site_fract_y
_atom_site_fract_z
O1	O	-1.110955	-0.107165	-0.073157
O2	O	-0.867176	-0.120399	-0.073175
O3	O	-0.995762	0.007247	-0.073157
O4	O	-0.982369	-0.234811	-0.073176
O5	O	-0.995754	0.007249	0.073301
O6	O	-0.867168	-0.120397	0.073282
O7	O	-1.110946	-0.107164	0.073300
Zn8	Zn	-0.989056	-0.113780	0.096544
Zn9	Zn	-0.989067	-0.113783	-0.096419
O10	O	-0.982360	-0.234810	0.073282
C11	C	-0.995216	0.038223	0.000072
C12	C	-0.993589	0.130519	0.000074
C13	C	-0.835977	-0.119851	0.000051
C14	C	-0.743027	-0.118211	0.000044
C15	C	-1.142145	-0.107712	0.000072
C16	C	-1.235095	-0.109352	0.000073
C17	C	-0.405281	-0.112320	0.000063
C18	C	-0.452740	-0.021413	0.000397
C19	C	-0.549430	-0.023054	0.000061
C20	C	-0.572841	-0.115242	0.000054
C21	C	-0.531747	-0.160082	-0.083580
C22	C	-0.435112	-0.157798	-0.083644
C23	C	-0.434762	-0.159674	0.082906
C24	C	-0.531708	-0.159653	0.084005
C25	C	-0.667538	-0.116898	0.000046
C26	C	-0.310584	-0.110667	0.000065
C27	C	-0.982907	-0.265786	0.000051
C28	C	-0.984534	-0.358081	0.000044
N29	N	-0.989054	-0.113778	0.228237
C30	C	-1.066107	0.352771	0.000065
C31	C	-1.064573	0.439492	0.000058
C32	C	-0.912009	0.419659	0.000050
C33	C	-0.913545	0.332940	0.000051
C34	C	-0.990597	0.299499	0.000063
C35	C	-0.987526	0.472939	0.000055
C36	C	-0.985861	0.566965	0.000047
C37	C	-0.992262	0.205466	0.000069
N38	N	-0.989075	-0.113778	-0.228112
C39	C	-1.046011	-0.057275	0.453968
C40	C	-1.046014	-0.057273	0.546158
C41	C	-0.932112	-0.170283	0.546150
C42	C	-0.932106	-0.170281	0.453962
C43	C	-0.989060	-0.113778	0.407874
C44	C	-0.989069	-0.113778	0.592251
C45	C	-0.989071	-0.113777	0.692208
C46	C	-0.989057	-0.113778	0.307911
H47	H	-0.577865	0.012192	0.060014
H48	H	-0.852051	0.289563	0.000046
N49	N	-0.428221	0.026723	0.079847
H50	H	-0.386108	-0.009926	0.116396
H51	H	-0.402297	0.077839	0.059830
N52	N	-1.107452	0.003658	0.595872
H53	H	-1.097840	0.062675	0.579836
H54	H	-1.166838	-0.006038	0.579796
N55	N	-0.426788	0.026515	-0.078584
H56	H	-0.384424	-0.010404	-0.114581
H57	H	-0.477891	0.044654	-0.115875
N58	N	-0.828907	0.455728	0.000040
H59	H	-0.839391	0.518748	0.000043
H60	H	-0.795865	0.436243	0.054333
N61	N	-0.870685	-0.231224	0.595860
H62	H	-0.879331	-0.222654	0.661256
H63	H	-0.880337	-0.290210	0.579737
N64	N	-1.107436	0.003665	0.404256
H65	H	-1.143514	0.039460	0.447450
H66	H	-1.075391	0.040439	0.366013
N67	N	-0.870670	-0.231218	0.404238
H68	H	-0.834594	-0.267016	0.447422
H69	H	-0.902707	-0.267991	0.365977
H70	H	-0.577301	0.012429	-0.059991
H71	H	-0.402845	-0.224541	-0.087444
N72	N	-0.410864	-0.114482	-0.166442
H73	H	-0.427955	-0.146194	-0.219643
H74	H	-0.440428	-0.055664	-0.167769
N75	N	-0.550438	-0.249793	-0.087722
H76	H	-0.585809	-0.262261	-0.035298
H77	H	-0.582087	-0.259007	-0.143778
N78	N	-1.146018	0.496949	0.000073
H79	H	-1.133357	0.556961	0.000068
H80	H	-1.179602	0.486115	-0.054216
N81	N	-1.149210	0.316704	0.000071
H82	H	-1.138728	0.253683	0.000076
H83	H	-1.182247	0.336201	0.054367
N84	N	-0.569331	-0.118838	-0.166031
H85	H	-0.631937	-0.122529	-0.166991
H86	H	-0.558698	-0.058232	-0.166807
N87	N	-0.407573	-0.120310	0.166880
H88	H	-0.375864	-0.071377	0.152069
H89	H	-0.458837	-0.100283	0.203169
H90	H	-0.547054	-0.226879	0.089052
N91	N	-0.567892	-0.116301	0.165967
H92	H	-0.610751	-0.068094	0.148800
H93	H	-0.595880	-0.157250	0.203058
N94	N	-0.392673	-0.248457	0.083654
H95	H	-0.354690	-0.257995	0.030622
H96	H	-0.358230	-0.258386	0.139175
