data_functionalizedCrystal
_audit_creation_method	'MofGen! by Chris Wilmer'
_symmetry_space_group_name_H-M	'P1'
_symmetry_Int_Tables_number	1
_symmetry_cell_setting	triclinic
loop_
_symmetry_equiv_pos_as_xyz
  x,y,z
_cell_length_a	14.044220
_cell_length_b	14.044220
_cell_length_c	12.503572
_cell_angle_alpha	86.156832
_cell_angle_beta	93.835250
_cell_angle_gamma	93.188878
loop_
_atom_site_label
_atom_site_type_symbol
_atom_site_fract_x
_atom_site_fract_y
_atom_site_fract_z
O1	O	1.282200	0.225116	0.089210
O2	O	1.615533	0.558450	0.422543
O3	O	1.948867	0.891783	0.755877
O4	O	1.005530	0.216809	0.089237
O5	O	1.338863	0.550142	0.422570
O6	O	1.672197	0.883476	0.755904
O7	O	1.139712	0.082627	0.089213
O8	O	1.473045	0.415961	0.422547
O9	O	1.806378	0.749294	0.755880
O10	O	1.148019	0.359298	0.089234
O11	O	1.481352	0.692631	0.422567
O12	O	1.814685	1.025964	0.755900
O13	O	1.129622	0.092737	-0.089427
O14	O	1.462955	0.426070	0.243907
O15	O	1.796289	0.759404	0.577240
O16	O	0.995440	0.226918	-0.089403
O17	O	1.328774	0.560252	0.243930
O18	O	1.662107	0.893585	0.577264
O19	O	1.272110	0.235226	-0.089430
O20	O	1.605444	0.568559	0.243903
O21	O	1.938777	0.901892	0.577237
Cu22	Cu	1.132854	0.231995	-0.105728
Cu23	Cu	1.466187	0.565328	0.227605
Cu24	Cu	1.799521	0.898662	0.560939
Cu25	Cu	1.144786	0.220040	0.105535
Cu26	Cu	1.478120	0.553373	0.438868
Cu27	Cu	1.811453	0.886706	0.772202
O28	O	1.137929	0.369407	-0.089406
O29	O	1.471262	0.702741	0.243927
O30	O	1.804595	1.036074	0.577260
C31	C	0.964864	0.218228	-0.000080
C32	C	1.298197	0.551561	0.333254
C33	C	1.631530	0.884895	0.666587
C34	C	0.858721	0.207383	-0.000070
C35	C	1.192055	0.540716	0.333264
C36	C	1.525388	0.874049	0.666597
C37	C	0.664382	0.187558	-0.000092
C38	C	0.997716	0.520891	0.333241
C39	C	1.331049	0.854224	0.666574
C40	C	0.613253	0.264472	-0.000091
C41	C	0.946586	0.597805	0.333242
C42	C	1.279919	0.931139	0.666575
C43	C	0.505116	0.253441	-0.000104
C44	C	0.838449	0.586775	0.333229
C45	C	1.171782	0.920108	0.666563
C46	C	0.772529	0.198587	-0.000080
C47	C	1.105863	0.531921	0.333254
C48	C	1.439196	0.865254	0.666587
C49	C	1.131031	0.052060	-0.000107
C50	C	1.464365	0.385394	0.333227
C51	C	1.797698	0.718727	0.666560
C52	C	1.120187	-0.054082	-0.000107
C53	C	1.453520	0.279251	0.333226
C54	C	1.786853	0.612584	0.666560
C55	C	1.100361	-0.248421	-0.000090
C56	C	1.433695	0.084912	0.333244
C57	C	1.767028	0.418246	0.666577
C58	C	1.177275	-0.299551	-0.000094
C59	C	1.510609	0.033783	0.333239
C60	C	1.843942	0.367116	0.666573
C61	C	1.166244	-0.407687	-0.000084
C62	C	1.499578	-0.074354	0.333249
C63	C	1.832911	0.258979	0.666582
C64	C	1.111391	-0.140274	-0.000099
C65	C	1.444724	0.193059	0.333234
C66	C	1.778058	0.526392	0.666567
C67	C	1.312777	0.233807	-0.000111
C68	C	1.646110	0.567140	0.333222
C69	C	1.979444	0.900473	0.666556
C70	C	1.418920	0.244651	-0.000114
C71	C	1.752253	0.577985	0.333219
C72	C	2.085586	0.911318	0.666553
C73	C	1.146609	0.399974	-0.000084
C74	C	1.479943	0.733308	0.333249
C75	C	1.813276	1.066641	0.666583
C76	C	1.157454	0.506117	-0.000077
C77	C	1.490788	0.839450	0.333257
C78	C	1.824121	1.172783	0.666590
N79	N	1.124469	0.240404	-0.254319
N80	N	1.457802	0.573737	0.079015
N81	N	1.791135	0.907071	0.412348
C82	C	1.112134	0.252782	-0.473432
C83	C	1.445467	0.586115	-0.140098
C84	C	1.778800	0.919449	0.193235
C85	C	1.165511	0.199249	-0.526768
C86	C	1.498844	0.532582	-0.193435
C87	C	1.832178	0.865915	0.139898
C88	C	1.158648	0.206136	-0.648690
C89	C	1.491981	0.539469	-0.315357
C90	C	1.825314	0.872802	0.017976
C91	C	1.118996	0.245896	-0.351499
C92	C	1.452329	0.579229	-0.018165
C93	C	1.785662	0.912563	0.315168
N94	N	1.153179	0.211624	0.254126
N95	N	1.486512	0.544957	0.587459
N96	N	1.819846	0.878290	0.920792
H97	H	0.626945	0.113431	-0.000104
H98	H	0.960278	0.446764	0.333230
H99	H	1.293612	0.780098	0.666563
H100	H	1.216364	0.148245	-0.480864
H101	H	1.549697	0.481579	-0.147531
H102	H	1.883030	0.814912	0.185802
O103	O	1.265676	-0.254794	0.000028
O104	O	1.599010	0.078539	0.333361
O105	O	1.932343	0.411872	0.666695
C106	C	1.382118	-0.151975	0.092571
C107	C	1.715451	0.181359	0.425904
C108	C	2.048784	0.514692	0.759238
C109	C	1.281981	-0.202594	0.092559
C110	C	1.615314	0.130740	0.425892
C111	C	1.948647	0.464073	0.759226
H112	H	1.395339	-0.109774	0.167385
H113	H	1.728673	0.223559	0.500719
H114	H	2.062006	0.556892	0.834052
H115	H	1.386909	-0.101194	0.017854
H116	H	1.720243	0.232139	0.351187
H117	H	2.053576	0.565473	0.684520
H118	H	1.438269	-0.207546	0.092512
H119	H	1.771603	0.125787	0.425846
H120	H	2.104936	0.459120	0.759179
H121	H	1.225771	-0.147090	0.092655
H122	H	1.559104	0.186243	0.425989
H123	H	1.892437	0.519576	0.759322
H124	H	1.277270	-0.253392	0.167270
H125	H	1.610603	0.079941	0.500603
H126	H	1.943937	0.413275	0.833936
H127	H	1.061285	0.303783	-0.519330
H128	H	1.394619	0.637117	-0.185997
H129	H	1.727952	0.970450	0.147337
O130	O	1.011983	-0.293194	0.000058
O131	O	1.345317	0.040139	0.333391
O132	O	1.678650	0.373473	0.666724
C133	C	0.906014	-0.406482	0.092640
C134	C	1.239347	-0.073149	0.425973
C135	C	1.572681	0.260184	0.759307
C136	C	1.006142	-0.355847	0.092600
C137	C	1.339475	-0.022514	0.425933
C138	C	1.672808	0.310820	0.759266
H139	H	0.901252	-0.457134	0.167463
H140	H	1.234585	-0.123800	0.500797
H141	H	1.567918	0.209533	0.834130
H142	H	0.892787	-0.448826	0.017932
H143	H	1.226121	-0.115493	0.351265
H144	H	1.559454	0.217841	0.684599
H145	H	0.849848	-0.350913	0.092585
H146	H	1.183181	-0.017579	0.425918
H147	H	1.516514	0.315754	0.759251
H148	H	1.062371	-0.411353	0.092693
H149	H	1.395704	-0.078020	0.426026
H150	H	1.729037	0.255314	0.759360
H151	H	1.019286	-0.313485	0.167301
H152	H	1.352620	0.019848	0.500635
H153	H	1.685953	0.353182	0.833968
O154	O	0.658066	0.352840	-0.000004
O155	O	0.991399	0.686174	0.333330
O156	O	1.324732	1.019507	0.666663
C157	C	0.808269	0.444549	0.000018
C158	C	1.141603	0.777883	0.333351
C159	C	1.474936	1.111216	0.666684
C160	C	0.757636	0.344422	-0.000075
C161	C	1.090970	0.677755	0.333259
C162	C	1.424303	1.011089	0.666592
H163	H	0.888779	0.437778	-0.000063
H164	H	1.222112	0.771111	0.333271
H165	H	1.555445	1.104445	0.666604
H166	H	0.791012	0.480760	0.074810
H167	H	1.124346	0.814093	0.408143
H168	H	1.457679	1.147426	0.741477
H169	H	0.782485	0.489247	-0.074711
H170	H	1.115819	0.822580	0.258622
H171	H	1.449152	1.155913	0.591955
H172	H	0.783391	0.299648	0.074603
H173	H	1.116724	0.632981	0.407937
H174	H	1.450058	0.966315	0.741270
H175	H	0.774892	0.308287	-0.074917
H176	H	1.108225	0.641620	0.258417
H177	H	1.441559	0.974953	0.591750
