data_functionalizedCrystal
_audit_creation_method	'MofGen! by Chris Wilmer'
_symmetry_space_group_name_H-M	'P1'
_symmetry_Int_Tables_number	1
_symmetry_cell_setting	triclinic
loop_
_symmetry_equiv_pos_as_xyz
  x,y,z
_cell_length_a	12.837943
_cell_length_b	15.944551
_cell_length_c	11.295483
_cell_angle_alpha	94.094426
_cell_angle_beta	85.461227
_cell_angle_gamma	89.163839
loop_
_atom_site_label
_atom_site_type_symbol
_atom_site_fract_x
_atom_site_fract_y
_atom_site_fract_z
O1	O	1.382450	0.213265	-0.099009
O2	O	1.882450	0.713265	0.400991
O3	O	1.080644	0.202478	-0.099016
O4	O	1.580644	0.702478	0.400984
O5	O	1.239788	0.086257	-0.099002
O6	O	1.739788	0.586257	0.400998
O7	O	1.223306	0.329487	-0.099023
O8	O	1.723306	0.829487	0.400977
O9	O	1.225810	0.096448	0.099048
O10	O	1.725810	0.596448	0.599048
O11	O	1.066666	0.212669	0.099034
O12	O	1.566666	0.712669	0.599034
O13	O	1.368472	0.223456	0.099040
O14	O	1.868472	0.723456	0.599040
Cu15	Cu	1.216293	0.218993	0.117121
Cu16	Cu	1.716293	0.718993	0.617121
Cu17	Cu	1.232823	0.206941	-0.117096
Cu18	Cu	1.732823	0.706941	0.382904
O19	O	1.209328	0.339677	0.099026
O20	O	1.709328	0.839677	0.599026
C21	C	1.035034	0.203930	0.000008
C22	C	1.535034	0.703930	0.500008
C23	C	0.919957	0.193062	0.000006
C24	C	1.419957	0.693062	0.500006
C25	C	0.679007	0.323714	0.000011
C26	C	1.179007	0.823714	0.500011
C27	C	0.570881	0.313507	0.000010
C28	C	1.070881	0.813507	0.500010
C29	C	0.595575	0.162440	0.000011
C30	C	1.095575	0.662440	0.500011
C31	C	0.703701	0.172648	0.000012
C32	C	1.203701	0.672648	0.500012
C33	C	0.745413	0.253287	0.000011
C34	C	1.245413	0.753287	0.500011
C35	C	0.853542	0.263494	0.000003
C36	C	1.353542	0.763494	0.500003
C37	C	0.878234	0.112428	0.000013
C38	C	1.378234	0.612428	0.500013
C39	C	0.770107	0.102221	0.000011
C40	C	1.270107	0.602221	0.500011
C41	C	1.232115	0.060004	0.000023
C42	C	1.732115	0.560004	0.500023
C43	C	1.230063	-0.033407	0.000024
C44	C	1.730063	0.466593	0.500024
C45	C	1.126515	-0.256548	0.000005
C46	C	1.626515	0.243452	0.500005
C47	C	1.167708	-0.308694	0.097657
C48	C	1.667708	0.191306	0.597657
C49	C	1.226352	-0.204430	0.000015
C50	C	1.726352	0.295570	0.500015
C51	C	1.181513	-0.318722	-0.097604
C52	C	1.681513	0.181278	0.402396
C53	C	1.222761	-0.369631	0.000001
C54	C	1.722761	0.130369	0.500001
C55	C	1.267567	-0.255341	0.097747
C56	C	1.767567	0.244659	0.597747
C57	C	1.281364	-0.265369	-0.097602
C58	C	1.781364	0.234631	0.402398
C59	C	1.322627	-0.317491	0.000073
C60	C	1.822627	0.182509	0.500073
C61	C	1.228418	-0.109262	0.000024
C62	C	1.728418	0.390738	0.500024
C63	C	1.220702	-0.464796	0.000000
C64	C	1.720702	0.035204	0.500000
C65	C	1.414082	0.222005	0.000014
C66	C	1.914082	0.722005	0.500014
C67	C	1.529160	0.232872	0.000008
C68	C	2.029160	0.732872	0.500008
C69	C	1.217002	0.365931	-0.000001
C70	C	1.717002	0.865931	0.499999
C71	C	1.219054	0.459340	-0.000010
C72	C	1.719054	0.959340	0.499990
N73	N	1.204674	0.227469	0.281856
N74	N	1.704674	0.727469	0.781856
N75	N	1.244451	0.198459	-0.281831
N76	N	1.744451	0.698459	0.218169
C77	C	1.328092	0.137394	0.531156
C78	C	1.828092	0.637394	1.031156
C79	C	1.319318	0.143806	0.655819
C80	C	1.819318	0.643806	1.155819
C81	C	1.178349	0.246701	0.655847
C82	C	1.678349	0.746701	1.155847
C83	C	1.187123	0.240289	0.531184
C84	C	1.687123	0.740289	1.031184
C85	C	1.261997	0.185634	0.468843
C86	C	1.761997	0.685634	0.968843
C87	C	1.270775	0.179227	0.344178
C88	C	1.770775	0.679227	0.844178
C89	C	1.129802	0.282117	0.344208
C90	C	1.629802	0.782117	0.844208
C91	C	1.121028	0.288530	0.468871
C92	C	1.621028	0.788530	0.968871
H93	H	0.887502	0.329155	0.000004
H94	H	1.387502	0.829155	0.500004
H95	H	0.712969	0.389374	0.000008
H96	H	1.212969	0.889374	0.500008
H97	H	0.561586	0.096792	0.000111
H98	H	1.061586	0.596792	0.500111
H99	H	1.060064	0.333026	0.519643
H100	H	1.560064	0.833026	1.019643
H101	H	0.736129	0.036567	0.000026
H102	H	1.236129	0.536567	0.500026
H103	H	1.043639	-0.229864	0.000101
H104	H	1.543639	0.270136	0.500101
C105	C	1.132326	-0.356164	-0.209129
C106	C	1.632326	0.143836	0.290871
H107	H	1.181764	-0.392509	-0.255115
H108	H	1.681764	0.107491	0.244885
H109	H	1.112459	-0.312013	-0.255414
H110	H	1.612459	0.187987	0.244586
H111	H	1.072409	-0.387083	-0.185650
H112	H	1.572409	0.112917	0.314350
H113	H	1.303925	-0.227723	0.180394
H114	H	1.803925	0.272277	0.680394
H115	H	1.373138	0.104523	0.706551
H116	H	1.873138	0.604523	1.206551
H117	H	0.932315	0.055081	0.000004
H118	H	1.432315	0.555081	0.500004
H119	H	1.075986	0.321401	0.293458
H120	H	1.575986	0.821401	0.793458
H121	H	1.119654	-0.327932	0.180211
H122	H	1.619654	0.172068	0.680211
H123	H	1.117381	0.291194	0.706621
H124	H	1.617381	0.791194	1.206621
C125	C	1.434663	-0.353328	0.000149
C126	C	1.934663	0.146672	0.500149
H127	H	1.465055	-0.331420	0.069578
H128	H	1.965055	0.168580	0.569578
H129	H	1.475239	-0.337782	-0.068559
H130	H	1.975239	0.162218	0.431441
H131	H	1.432804	-0.412899	-0.000499
H132	H	1.932804	0.087101	0.499501
H133	H	0.516815	0.370856	0.000014
H134	H	1.016815	0.870856	0.500014
H135	H	1.329382	-0.246112	-0.180161
H136	H	1.829382	0.253888	0.319839
H137	H	1.331744	0.134727	0.293421
H138	H	1.831744	0.634727	0.793421
H139	H	1.389064	0.092898	0.480398
H140	H	1.889064	0.592898	0.980398
