data_functionalizedCrystal
_audit_creation_method	'MofGen! by Chris Wilmer'
_symmetry_space_group_name_H-M	'P1'
_symmetry_Int_Tables_number	1
_symmetry_cell_setting	triclinic
loop_
_symmetry_equiv_pos_as_xyz
  x,y,z
_cell_length_a	19.188930
_cell_length_b	15.944551
_cell_length_c	14.421503
_cell_angle_alpha	90.003141
_cell_angle_beta	89.999163
_cell_angle_gamma	96.678240
loop_
_atom_site_label
_atom_site_type_symbol
_atom_site_fract_x
_atom_site_fract_y
_atom_site_fract_z
O1	O	0.090038	-1.114192	-0.077026
O2	O	0.590038	-0.614192	0.422974
O3	O	0.101140	-0.869601	-0.077050
O4	O	0.601140	-0.369601	0.422950
O5	O	-0.006048	-0.998955	-0.077019
O6	O	0.493952	-0.498955	0.422981
O7	O	0.197227	-0.984838	-0.077057
O8	O	0.697227	-0.484838	0.422943
O9	O	-0.006032	-0.998934	0.077204
O10	O	0.493968	-0.498934	0.577204
O11	O	0.101156	-0.869580	0.077173
O12	O	0.601156	-0.369580	0.577173
O13	O	0.090054	-1.114171	0.077198
O14	O	0.590054	-0.614171	0.577198
Cu15	Cu	0.095607	-0.991873	0.091267
Cu16	Cu	0.595607	-0.491873	0.591267
Cu17	Cu	0.095588	-0.991899	-0.091120
Cu18	Cu	0.595588	-0.491899	0.408880
O19	O	0.197243	-0.984817	0.077167
O20	O	0.697243	-0.484817	0.577167
C21	C	-0.032052	-0.998487	0.000095
C22	C	0.467948	-0.498487	0.500095
C23	C	-0.109560	-0.997115	0.000103
C24	C	0.390440	-0.497115	0.500103
C25	C	0.100687	-0.838298	0.000059
C26	C	0.600687	-0.338298	0.500059
C27	C	0.099306	-0.745057	0.000050
C28	C	0.599306	-0.245057	0.500050
C29	C	0.090507	-1.145474	0.000087
C30	C	0.590507	-0.645474	0.500087
C31	C	0.091889	-1.238715	0.000089
C32	C	0.591889	-0.738715	0.500089
C33	C	-0.154288	-1.073016	0.000115
C34	C	0.345712	-0.573016	0.500115
C35	C	-0.227115	-1.071726	0.000100
C36	C	0.272885	-0.571726	0.500100
C37	C	-0.255211	-0.994532	0.000092
C38	C	0.244789	-0.494532	0.500092
C39	C	-0.210474	-0.918622	0.000075
C40	C	0.289526	-0.418622	0.500075
C41	C	-0.137648	-0.919913	0.000080
C42	C	0.362352	-0.419913	0.500080
N43	N	-0.363364	-0.935519	0.052571
N44	N	0.136636	-0.435519	0.552571
N45	N	-0.432545	-0.934298	0.052568
N46	N	0.067455	-0.434298	0.552568
C47	C	-0.474630	-0.990637	0.000073
C48	C	0.025370	-0.490637	0.500073
N49	N	-0.444921	-1.048256	-0.052407
N50	N	0.055079	-0.548256	0.447593
N51	N	-0.375733	-1.049480	-0.052400
N52	N	0.124267	-0.549480	0.447600
C53	C	-0.334178	-0.993123	0.000085
C54	C	0.165822	-0.493123	0.500085
C55	C	-0.598326	-1.065145	0.000067
C56	C	-0.098326	-0.565145	0.500067
C57	C	-0.671154	-1.063852	0.000046
C58	C	-0.171154	-0.563852	0.500046
C59	C	-0.654511	-0.910745	0.000030
C60	C	-0.154511	-0.410745	0.500030
C61	C	-0.581685	-0.912040	0.000041
C62	C	-0.081685	-0.412040	0.500041
C63	C	-0.553597	-0.989242	0.000064
C64	C	-0.053597	-0.489242	0.500064
C65	C	0.223247	-0.985285	0.000050
C66	C	0.723247	-0.485285	0.500050
C67	C	0.300755	-0.986657	0.000036
C68	C	0.800755	-0.486657	0.500036
C69	C	0.029563	-0.530462	0.000081
C70	C	0.529563	-0.030462	0.500081
C71	C	0.061941	-0.469331	-0.075965
C72	C	0.561941	0.030669	0.424035
C73	C	0.096806	-0.574341	0.000062
C74	C	0.596806	-0.074341	0.500062
C75	C	0.061973	-0.469332	0.076087
C76	C	0.561973	0.030668	0.576087
C77	C	0.094386	-0.409437	0.000077
C78	C	0.594386	0.090563	0.500077
C79	C	0.129203	-0.514438	-0.076047
C80	C	0.629203	-0.014438	0.423953
C81	C	0.129225	-0.514446	0.076073
C82	C	0.629225	-0.014446	0.576073
C83	C	0.161652	-0.453332	0.000008
C84	C	0.661652	0.046668	0.500008
C85	C	0.098198	-0.669338	0.000052
C86	C	0.598198	-0.169338	0.500052
C87	C	0.093000	-0.314441	0.000080
C88	C	0.593000	0.185559	0.500080
N89	N	0.095619	-0.991862	0.219549
N90	N	0.595619	-0.491862	0.719549
N91	N	0.095569	-0.991917	-0.219401
N92	N	0.595569	-0.491917	0.280599
C93	C	0.145161	-0.932038	0.469188
C94	C	0.645161	-0.432038	0.969188
C95	C	0.158716	-1.007887	0.530995
C96	C	0.658716	-0.507887	1.030995
C97	C	0.095603	-0.991882	0.408710
C98	C	0.595603	-0.491882	0.908710
C99	C	0.082064	-0.916052	0.530997
C100	C	0.582064	-0.416052	1.030997
C101	C	0.095588	-0.991895	0.591431
C102	C	0.595588	-0.491895	1.091431
C103	C	0.109189	-1.067770	0.469157
C104	C	0.609189	-0.567770	0.969157
C105	C	0.032510	-0.975885	0.469153
C106	C	0.532510	-0.475885	0.969153
C107	C	0.046038	-1.051789	0.530932
C108	C	0.546038	-0.551789	1.030932
C109	C	0.095613	-0.991874	0.303449
C110	C	0.595613	-0.491874	0.803449
C111	C	0.095578	-0.991913	0.696690
C112	C	0.595578	-0.491913	1.196690
H113	H	-0.131424	-1.135880	0.000131
H114	H	0.368576	-0.635880	0.500131
H115	H	-0.707571	-1.125662	0.000051
H116	H	-0.207571	-0.625662	0.500051
H117	H	-0.545266	-0.850233	0.000037
H118	H	-0.045266	-0.350233	0.500037
O119	O	-0.037009	-0.570490	0.000172
O120	O	0.462991	-0.070490	0.500172
C121	C	-0.047601	-0.620858	0.080426
C122	C	0.452399	-0.120858	0.580426
H123	H	-0.008678	-0.595543	0.136284
H124	H	0.491322	-0.095543	0.636284
H125	H	-0.103395	-0.619022	0.106850
H126	H	0.396605	-0.119022	0.606850
H127	H	-0.039296	-0.688736	0.063040
H128	H	0.460704	-0.188736	0.563040
H129	H	0.033493	-0.449336	-0.140247
H130	H	0.533493	0.050664	0.359753
O131	O	-0.270475	-1.145537	0.000156
O132	O	0.229525	-0.645537	0.500156
C133	C	-0.230067	-1.213953	0.000150
C134	C	0.269933	-0.713953	0.500150
H135	H	-0.175714	-1.192429	0.029345
H136	H	0.324286	-0.692429	0.529345
H137	H	-0.256931	-1.267107	0.044936
H138	H	0.243069	-0.767107	0.544936
H139	H	-0.224881	-1.237646	-0.073833
H140	H	0.275119	-0.737646	0.426167
H141	H	-0.677386	-0.847892	0.000019
H142	H	-0.177386	-0.347892	0.500019
O143	O	-0.571067	-1.140154	-0.000090
O144	O	-0.071067	-0.640154	0.499910
C145	C	-0.593931	-1.186423	-0.079954
C146	C	-0.093931	-0.686423	0.420046
H147	H	-0.609081	-1.141282	-0.135783
H148	H	-0.109081	-0.641282	0.364217
H149	H	-0.549809	-1.221994	-0.106759
H150	H	-0.049809	-0.721994	0.393241
H151	H	-0.641391	-1.233407	-0.061900
H152	H	-0.141391	-0.733407	0.438100
O153	O	-0.237846	-0.843688	-0.000056
O154	O	0.262154	-0.343688	0.499944
C155	C	-0.279458	-0.838365	-0.079943
C156	C	0.220542	-0.338365	0.420057
H157	H	-0.297591	-0.904640	-0.106563
H158	H	0.202409	-0.404640	0.393437
H159	H	-0.327149	-0.805056	-0.061985
H160	H	0.172851	-0.305056	0.438015
H161	H	-0.247286	-0.801094	-0.135878
H162	H	0.252714	-0.301094	0.364122
O163	O	-0.094296	-0.846102	0.000115
O164	O	0.405704	-0.346102	0.500115
C165	C	-0.134706	-0.777688	0.000075
C166	C	0.365294	-0.277688	0.500075
H167	H	-0.189060	-0.799203	0.029268
H168	H	0.310940	-0.299203	0.529268
H169	H	-0.107848	-0.724516	0.044846
H170	H	0.392152	-0.224516	0.544846
H171	H	-0.139886	-0.754025	-0.073918
H172	H	0.360114	-0.254025	0.426082
O173	O	0.163050	-0.538308	-0.152806
O174	O	0.663050	-0.038308	0.347194
C175	C	0.163932	-0.626602	-0.151895
C176	C	0.663932	-0.126602	0.348105
H177	H	0.119117	-0.656962	-0.106822
H178	H	0.619117	-0.156962	0.393178
H179	H	0.157323	-0.652085	-0.225621
H180	H	0.657323	-0.152085	0.274379
H181	H	0.216066	-0.642157	-0.122506
H182	H	0.716066	-0.142157	0.377494
O183	O	0.068441	-0.839582	0.563557
O184	O	0.568441	-0.339582	1.063557
C185	C	0.067974	-0.840894	0.661312
C186	C	0.567974	-0.340894	1.161312
H187	H	0.099910	-0.892213	0.687053
H188	H	0.599910	-0.392213	1.187053
H189	H	0.091996	-0.776961	0.688815
H190	H	0.591996	-0.276961	1.188815
H191	H	0.011641	-0.854567	0.687114
H192	H	0.511641	-0.354567	1.187114
O193	O	0.228307	-0.413555	-0.000214
O194	O	0.728307	0.086445	0.499786
C195	C	0.263485	-0.436563	-0.080487
C196	C	0.763485	0.063437	0.419513
H197	H	0.223396	-0.458623	-0.136262
H198	H	0.723396	0.041377	0.363738
H199	H	0.299510	-0.379741	-0.107031
H200	H	0.799510	0.120259	0.392969
H201	H	0.295996	-0.489928	-0.063077
H202	H	0.795996	0.010072	0.436923
H203	H	0.157649	-0.534462	0.140358
H204	H	0.657649	-0.034462	0.640358
H205	H	0.033526	-0.449343	0.140376
H206	H	0.533526	0.050657	0.640376
O207	O	0.195287	-0.871814	0.436878
O208	O	0.695287	-0.371814	0.936878
C209	C	0.261713	-0.889004	0.468410
C210	C	0.761713	-0.389004	0.968410
H211	H	0.259746	-0.958996	0.485742
H212	H	0.759746	-0.458996	0.985742
H213	H	0.302440	-0.872006	0.411878
H214	H	0.802440	-0.372006	0.911878
H215	H	0.276667	-0.849911	0.533104
H216	H	0.776667	-0.349911	1.033104
H217	H	0.212066	-1.021430	0.558159
H218	H	0.712066	-0.521430	1.058159
O219	O	0.122989	-1.144219	0.436739
O220	O	0.622989	-0.644219	0.936739
C221	C	0.122867	-1.143275	0.338979
C222	C	0.622867	-0.643275	0.838979
H223	H	0.133792	-1.075366	0.313410
H224	H	0.633792	-0.575366	0.813410
H225	H	0.165264	-1.181481	0.311999
H226	H	0.665264	-0.681481	0.811999
H227	H	0.069448	-1.172213	0.312477
H228	H	0.569448	-0.672213	0.812477
H229	H	0.004119	-1.102458	0.557872
H230	H	0.504119	-0.602458	1.057872
H231	H	-0.020823	-0.962318	0.441967
H232	H	0.479177	-0.462318	0.941967
