data_functionalizedCrystal
_audit_creation_method	'MofGen! by Chris Wilmer'
_symmetry_space_group_name_H-M	'P1'
_symmetry_Int_Tables_number	1
_symmetry_cell_setting	triclinic
loop_
_symmetry_equiv_pos_as_xyz
  x,y,z
_cell_length_a	18.215407
_cell_length_b	13.897447
_cell_length_c	18.215399
_cell_angle_alpha	90.025056
_cell_angle_beta	90.017368
_cell_angle_gamma	90.016973
loop_
_atom_site_label
_atom_site_type_symbol
_atom_site_fract_x
_atom_site_fract_y
_atom_site_fract_z
Zn1	Zn	1.125099	-0.384091	0.416082
Zn2	Zn	1.375099	-0.134091	0.666082
Zn3	Zn	1.625099	0.115909	0.916082
Zn4	Zn	1.875099	0.365909	1.166082
Zn5	Zn	1.125019	-0.545400	0.293022
Zn6	Zn	1.375019	-0.295400	0.543022
Zn7	Zn	1.625019	-0.045400	0.793022
Zn8	Zn	1.875019	0.204600	1.043022
Zn9	Zn	1.002032	-0.384114	0.293035
Zn10	Zn	1.252032	-0.134114	0.543035
Zn11	Zn	1.502032	0.115886	0.793035
Zn12	Zn	1.752032	0.365886	1.043035
Zn13	Zn	1.002009	-0.545338	0.416052
Zn14	Zn	1.252009	-0.295338	0.666052
Zn15	Zn	1.502009	-0.045338	0.916052
Zn16	Zn	1.752009	0.204662	1.166052
O17	O	1.063540	-0.464736	0.354548
O18	O	1.313540	-0.214736	0.604548
O19	O	1.563540	0.035264	0.854548
O20	O	1.813540	0.285264	1.104548
O21	O	1.228073	-0.405505	0.399765
O22	O	1.478073	-0.155505	0.649765
O23	O	1.728073	0.094495	0.899765
O24	O	1.978073	0.344495	1.149765
O25	O	1.108681	-0.524041	0.190040
O26	O	1.358681	-0.274041	0.440040
O27	O	1.608681	-0.024041	0.690040
O28	O	1.858681	0.225959	0.940040
O29	O	1.018400	-0.249129	0.309375
O30	O	1.268400	0.000871	0.559375
O31	O	1.518400	0.250871	0.809375
O32	O	1.768400	0.500871	1.059375
O33	O	1.228014	-0.524019	0.309354
O34	O	1.478014	-0.274019	0.559354
O35	O	1.728014	-0.024019	0.809354
O36	O	1.978014	0.225981	1.059354
O37	O	1.108817	-0.249112	0.399778
O38	O	1.358817	0.000888	0.649778
O39	O	1.608817	0.250888	0.899778
O40	O	1.858817	0.500888	1.149778
O41	O	1.018322	-0.405544	0.190049
O42	O	1.268322	-0.155544	0.440049
O43	O	1.518322	0.094456	0.690049
O44	O	1.768322	0.344456	0.940049
O45	O	0.899045	-0.405484	0.309346
O46	O	1.149045	-0.155484	0.559346
O47	O	1.399045	0.094516	0.809346
O48	O	1.649045	0.344516	1.059346
O49	O	1.018361	-0.523913	0.519041
O50	O	1.268361	-0.273913	0.769041
O51	O	1.518361	-0.023913	1.019041
O52	O	1.768361	0.226087	1.269041
O53	O	0.899028	-0.523935	0.399727
O54	O	1.149028	-0.273935	0.649727
O55	O	1.399028	-0.023935	0.899727
O56	O	1.649028	0.226065	1.149727
O57	O	1.108795	-0.405445	0.519063
O58	O	1.358795	-0.155445	0.769063
O59	O	1.608795	0.094555	1.019063
O60	O	1.858795	0.344555	1.269063
O61	O	1.108659	-0.680374	0.309325
O62	O	1.358659	-0.430374	0.559325
O63	O	1.608659	-0.180374	0.809325
O64	O	1.858659	0.069626	1.059325
O65	O	1.018284	-0.680328	0.399714
O66	O	1.268284	-0.430328	0.649714
O67	O	1.518284	-0.180328	0.899714
O68	O	1.768284	0.069672	1.149714
C69	C	0.872334	-0.464706	0.354535
C70	C	1.122334	-0.214706	0.604535
C71	C	1.372334	0.035294	0.854535
C72	C	1.622334	0.285294	1.104535
C73	C	0.790535	-0.464717	0.354547
C74	C	1.040535	-0.214717	0.604547
C75	C	1.290535	0.035283	0.854547
C76	C	1.540535	0.285283	1.104547
C77	C	0.602370	-0.403134	0.401699
C78	C	0.852370	-0.153134	0.651699
C79	C	1.102370	0.096866	0.901699
C80	C	1.352370	0.346866	1.151699
C81	C	0.525512	-0.403142	0.401701
C82	C	0.775512	-0.153142	0.651701
C83	C	1.025512	0.096858	0.901701
C84	C	1.275512	0.346858	1.151701
C85	C	0.525461	-0.526365	0.307410
C86	C	0.775461	-0.276365	0.557410
C87	C	1.025461	-0.026365	0.807410
C88	C	1.275461	0.223635	1.057410
C89	C	0.602319	-0.526351	0.307404
C90	C	0.852319	-0.276351	0.557404
C91	C	1.102319	-0.026351	0.807404
C92	C	1.352319	0.223649	1.057404
C93	C	0.640771	-0.464737	0.354553
C94	C	0.890771	-0.214737	0.604553
C95	C	1.140771	0.035263	0.854553
C96	C	1.390771	0.285263	1.104553
C97	C	0.487055	-0.464759	0.354561
C98	C	0.737055	-0.214759	0.604561
C99	C	0.987055	0.035241	0.854561
C100	C	1.237055	0.285241	1.104561
C101	C	0.403722	-0.464768	0.354563
C102	C	0.653722	-0.214768	0.604563
C103	C	0.903722	0.035232	0.854563
C104	C	1.153722	0.285232	1.104563
C105	C	0.724110	-0.464726	0.354550
C106	C	0.974110	-0.214726	0.604550
C107	C	1.224110	0.035274	0.854550
C108	C	1.474110	0.285274	1.104550
C109	C	1.063480	-0.715350	0.354531
C110	C	1.313480	-0.465350	0.604531
C111	C	1.563480	-0.215350	0.854531
C112	C	1.813480	0.034650	1.104531
C113	C	1.063522	-0.822564	0.354548
C114	C	1.313522	-0.572564	0.604548
C115	C	1.563522	-0.322564	0.854548
C116	C	1.813522	-0.072564	1.104548
C117	C	1.063557	-0.909634	0.354565
C118	C	1.313557	-0.659634	0.604565
C119	C	1.563557	-0.409634	0.854565
C120	C	1.813557	-0.159634	1.104565
C121	C	1.063609	-1.018866	0.354584
C122	C	1.313609	-0.768866	0.604584
C123	C	1.563609	-0.518866	0.854584
C124	C	1.813609	-0.268866	1.104584
C125	C	1.255493	-0.464766	0.354561
C126	C	1.505493	-0.214766	0.604561
C127	C	1.755493	0.035234	0.854561
C128	C	2.005493	0.285234	1.104561
C129	C	1.337292	-0.464779	0.354567
C130	C	1.587292	-0.214779	0.604567
C131	C	1.837292	0.035221	0.854567
C132	C	2.087292	0.285221	1.104567
C133	C	1.063585	-0.464669	0.546501
C134	C	1.313585	-0.214669	0.796501
C135	C	1.563585	0.035331	1.046501
C136	C	1.813585	0.285331	1.296501
C137	C	1.063604	-0.464641	0.628300
C138	C	1.313604	-0.214641	0.878300
C139	C	1.563604	0.035359	1.128300
C140	C	1.813604	0.285359	1.378300
C141	C	1.063620	-0.213143	0.354581
C142	C	1.313620	0.036857	0.604581
C143	C	1.563620	0.286857	0.854581
C144	C	1.813620	0.536857	1.104581
C145	C	1.063654	-0.105929	0.354595
C146	C	1.313654	0.144071	0.604595
C147	C	1.563654	0.394071	0.854595
C148	C	1.813654	0.644071	1.104595
C149	C	1.063538	-0.464732	0.163342
C150	C	1.313538	-0.214732	0.413342
C151	C	1.563538	0.035268	0.663342
C152	C	1.813538	0.285268	0.913342
C153	C	1.063661	-0.464489	0.081543
C154	C	1.313661	-0.214489	0.331543
C155	C	1.563661	0.035511	0.581543
C156	C	1.813661	0.285511	0.831543
C157	C	1.110710	-0.402897	0.816507
C158	C	1.360710	-0.152897	1.066507
C159	C	1.610710	0.097103	1.316507
C160	C	1.860710	0.347103	1.566507
C161	C	1.110718	-0.402869	0.893365
C162	C	1.360718	-0.152869	1.143365
C163	C	1.610718	0.097131	1.393365
C164	C	1.860718	0.347131	1.643365
C165	C	1.016550	-0.526236	0.893331
C166	C	1.266550	-0.276236	1.143331
C167	C	1.516550	-0.026236	1.393331
C168	C	1.766550	0.223764	1.643331
C169	C	1.016538	-0.526258	0.816474
C170	C	1.266538	-0.276258	1.066474
C171	C	1.516538	-0.026258	1.316474
C172	C	1.766538	0.223742	1.566474
C173	C	1.063622	-0.464590	0.778063
C174	C	1.313622	-0.214590	1.028063
C175	C	1.563622	0.035410	1.278063
C176	C	1.813622	0.285410	1.528063
C177	C	1.063643	-0.464540	0.931780
C178	C	1.313643	-0.214540	1.181780
C179	C	1.563643	0.035460	1.431780
C180	C	1.813643	0.285460	1.681780
C181	C	1.063652	-0.464510	1.015113
C182	C	1.313652	-0.214510	1.265113
C183	C	1.563652	0.035490	1.515113
C184	C	1.813652	0.285490	1.765113
C185	C	1.063612	-0.464619	0.694724
C186	C	1.313612	-0.214619	0.944724
C187	C	1.563612	0.035381	1.194724
C188	C	1.813612	0.285381	1.444724
H189	H	0.633676	-0.352960	0.440088
H190	H	0.883676	-0.102960	0.690088
H191	H	1.133676	0.147040	0.940088
H192	H	1.383676	0.397040	1.190088
Cl193	Cl	0.477240	-0.325693	0.460972
Cl194	Cl	0.727240	-0.075693	0.710972
Cl195	Cl	0.977240	0.174307	0.960972
Cl196	Cl	1.227240	0.424307	1.210972
Cl197	Cl	1.169898	-0.325368	0.768222
Cl198	Cl	1.419898	-0.075368	1.018222
Cl199	Cl	1.669898	0.174632	1.268222
Cl200	Cl	1.919898	0.424632	1.518222
H201	H	1.149061	-0.352630	0.924662
H202	H	1.399061	-0.102630	1.174662
H203	H	1.649061	0.147370	1.424662
H204	H	1.899061	0.397370	1.674662
Cl205	Cl	0.957366	-0.603762	0.941624
Cl206	Cl	1.207366	-0.353762	1.191624
Cl207	Cl	1.457366	-0.103762	1.441624
Cl208	Cl	1.707366	0.146238	1.691624
H209	H	0.494144	-0.576530	0.269024
H210	H	0.744144	-0.326530	0.519024
H211	H	0.994144	-0.076530	0.769024
H212	H	1.244144	0.173470	1.019024
Cl213	Cl	0.650598	-0.603792	0.248123
Cl214	Cl	0.900598	-0.353792	0.498123
Cl215	Cl	1.150598	-0.103792	0.748123
Cl216	Cl	1.400598	0.146208	0.998123
Cl217	Cl	0.957333	-0.603816	0.768142
Cl218	Cl	1.207333	-0.353816	1.018142
Cl219	Cl	1.457333	-0.103816	1.268142
Cl220	Cl	1.707333	0.146184	1.518142
