data_functionalizedCrystal
_audit_creation_method	'MofGen! by Chris Wilmer'
_symmetry_space_group_name_H-M	'P1'
_symmetry_Int_Tables_number	1
_symmetry_cell_setting	triclinic
loop_
_symmetry_equiv_pos_as_xyz
  x,y,z
_cell_length_a	12.594516
_cell_length_b	17.077404
_cell_length_c	17.077396
_cell_angle_alpha	89.978543
_cell_angle_beta	90.023145
_cell_angle_gamma	89.984843
loop_
_atom_site_label
_atom_site_type_symbol
_atom_site_fract_x
_atom_site_fract_y
_atom_site_fract_z
Zn1	Zn	-0.423768	-1.200092	0.443913
Zn2	Zn	-0.601768	-1.200015	0.312659
Zn3	Zn	-0.423801	-1.068824	0.312656
Zn4	Zn	-0.601702	-1.068807	0.443878
O5	O	-0.512760	-1.134434	0.378277
O6	O	-0.447393	-1.309929	0.426517
O7	O	-0.578203	-1.182586	0.202812
O8	O	-0.274851	-1.086276	0.330081
O9	O	-0.578170	-1.309872	0.330086
O10	O	-0.274826	-1.182718	0.426515
O11	O	-0.447451	-1.086201	0.202810
O12	O	-0.447387	-0.958975	0.330047
O13	O	-0.578056	-1.086248	0.553730
O14	O	-0.578089	-0.958963	0.426456
O15	O	-0.447329	-1.182702	0.553755
O16	O	-0.750705	-1.182571	0.330052
O17	O	-0.750656	-1.086173	0.426458
C18	C	-0.512735	-0.930487	0.378248
C19	C	-0.512750	-0.843237	0.378254
C20	C	-0.789301	-1.134383	0.378269
C21	C	-0.907606	-1.134433	0.378292
C22	C	-0.580908	-0.802261	0.428372
C23	C	-0.580909	-0.720280	0.428382
C24	C	-0.512755	-0.679277	0.378269
C25	C	-0.444589	-0.720259	0.328149
C26	C	-0.444584	-0.802238	0.328144
C27	C	-0.444605	-0.549389	0.328162
C28	C	-0.444611	-0.467404	0.328166
C29	C	-0.580930	-0.467431	0.428400
C30	C	-0.580925	-0.549410	0.428395
C31	C	-0.512760	-0.590386	0.378274
C32	C	-0.976871	-1.081997	0.430690
C33	C	-1.047731	-1.062873	0.359062
C34	C	-1.047545	-1.153628	0.449933
C35	C	-0.976908	-1.115271	0.306625
C36	C	-0.976716	-1.206059	0.397544
C37	C	-1.047543	-1.186963	0.325867
C38	C	-0.235139	-1.134507	0.378301
C39	C	-0.116833	-1.134539	0.378312
C40	C	-0.512681	-1.134482	0.583021
C41	C	-0.512648	-1.134502	0.670271
C42	C	-0.512779	-0.339179	0.378297
C43	C	-0.512770	-0.426428	0.378284
C44	C	-0.512761	-1.134432	0.174329
C45	C	-0.512495	-1.134564	0.087079
C46	C	-0.444572	-1.184728	0.711275
C47	C	-0.444537	-1.184737	0.793256
C48	C	-0.512583	-1.134524	0.834230
C49	C	-0.580662	-1.084293	0.793220
C50	C	-0.580691	-1.084281	0.711241
C51	C	-0.580598	-1.084325	0.964090
C52	C	-0.580570	-1.084339	1.046075
C53	C	-0.444444	-1.184782	1.046105
C54	C	-0.444473	-1.184769	0.964126
C55	C	-0.512553	-1.134538	0.923121
H56	H	-0.636411	-0.835640	0.469177
H57	H	-0.636428	-0.582793	0.469197
H58	H	-1.078948	-1.002349	0.342794
N59	N	-0.374992	-1.236046	0.835129
N60	N	-0.314248	-1.280879	0.798536
H61	H	-0.265129	-1.317119	0.828107
H62	H	-0.389089	-0.582749	0.287355
N63	N	-0.650525	-0.678408	0.479567
N64	N	-0.613173	-0.632688	0.529637
H65	H	-0.662342	-0.603112	0.565787
N66	N	-0.937949	-1.026266	0.486196
N67	N	-0.960760	-0.955396	0.478915
H68	H	-0.933271	-0.916034	0.518112
H69	H	-0.636114	-1.043374	0.677856
H70	H	-0.635977	-1.043449	1.079434
N71	N	-0.650564	-0.425568	0.479586
N72	N	-0.650565	-0.352373	0.479583
H73	H	-0.699748	-0.322803	0.515727
N74	N	-0.374881	-1.236078	1.087985
N75	N	-0.276669	-1.230898	1.078833
H76	H	-0.227543	-1.267127	1.108413
N77	N	-0.650159	-1.033029	0.922205
N78	N	-0.718005	-1.060629	0.876464
H79	H	-0.767137	-1.024406	0.846882
H80	H	-0.389102	-0.434022	0.287370
H81	H	-1.078574	-1.169821	0.510510
N82	N	-0.937526	-1.281958	0.418003
N83	N	-0.839733	-1.294176	0.420694
H84	H	-0.812050	-1.347779	0.435152
N85	N	-0.375064	-1.236030	0.669437
N86	N	-0.314286	-1.280869	0.706062
H87	H	-0.265190	-1.317102	0.676517
N88	N	-0.650163	-1.032987	0.835059
N89	N	-0.710928	-0.988137	0.798435
H90	H	-0.760011	-0.951895	0.827982
N91	N	-0.374955	-0.678377	0.276972
N92	N	-0.307181	-0.632656	0.304679
H93	H	-0.258000	-0.603078	0.268533
N94	N	-0.938145	-1.094847	0.230617
N95	N	-0.880908	-1.035673	0.222083
H96	H	-0.853531	-1.021241	0.168404
N97	N	-0.374945	-0.844084	0.276952
N98	N	-0.314093	-0.807468	0.232215
H99	H	-0.264902	-0.837020	0.196063
H100	H	-1.078379	-1.231351	0.281513
H101	H	-0.389070	-1.225661	0.930767
