data_functionalizedCrystal
_audit_creation_method	'MofGen! by Chris Wilmer'
_symmetry_space_group_name_H-M	'P1'
_symmetry_Int_Tables_number	1
_symmetry_cell_setting	triclinic
loop_
_symmetry_equiv_pos_as_xyz
  x,y,z
_cell_length_a	16.959455
_cell_length_b	16.959453
_cell_length_c	16.959434
_cell_angle_alpha	89.910094
_cell_angle_beta	89.934817
_cell_angle_gamma	90.017008
loop_
_atom_site_label
_atom_site_type_symbol
_atom_site_fract_x
_atom_site_fract_y
_atom_site_fract_z
Zn1	Zn	1.208734	-0.314270	-0.447033
Zn2	Zn	1.708734	0.185730	0.052967
Zn3	Zn	1.208553	-0.446598	-0.314853
Zn4	Zn	1.708553	0.053402	0.185147
Zn5	Zn	1.076459	-0.314430	-0.314857
Zn6	Zn	1.576459	0.185570	0.185143
Zn7	Zn	1.076527	-0.446403	-0.446978
Zn8	Zn	1.576527	0.053597	0.053022
O9	O	1.142568	-0.380425	-0.380930
O10	O	1.642568	0.119575	0.119070
O11	O	1.319321	-0.331837	-0.429521
O12	O	1.819321	0.168163	0.070479
O13	O	1.190927	-0.429214	-0.204242
O14	O	1.690927	0.070786	0.295758
O15	O	1.094053	-0.203798	-0.332415
O16	O	1.594053	0.296202	0.167585
O17	O	1.319188	-0.429058	-0.332408
O18	O	1.819188	0.070942	0.167592
O19	O	1.191235	-0.203680	-0.429525
O20	O	1.691235	0.296320	0.070475
O21	O	1.093877	-0.332111	-0.204245
O22	O	1.593877	0.167889	0.295755
O23	O	0.965857	-0.331923	-0.332361
O24	O	1.465857	0.168077	0.167639
O25	O	1.094169	-0.428727	-0.557596
O26	O	1.594169	0.071273	-0.057596
O27	O	0.965907	-0.428882	-0.429430
O28	O	1.465907	0.071118	0.070570
O29	O	1.191301	-0.331649	-0.557637
O30	O	1.691301	0.168351	-0.057637
O31	O	1.190993	-0.557183	-0.332354
O32	O	1.690993	-0.057183	0.167646
O33	O	1.093994	-0.557040	-0.429426
O34	O	1.593994	-0.057040	0.070574
C35	C	0.937202	-0.380399	-0.380890
C36	C	1.437202	0.119601	0.119110
C37	C	0.849346	-0.380407	-0.380892
C38	C	1.349346	0.119593	0.119108
C39	C	1.142503	-0.585792	-0.380901
C40	C	1.642503	-0.085792	0.119099
C41	C	1.142547	-0.673648	-0.380915
C42	C	1.642547	-0.173648	0.119085
C43	C	0.477790	-0.430998	-0.330338
C44	C	0.977790	0.069002	0.169662
C45	C	0.477950	-0.329918	-0.431619
C46	C	0.977950	0.170082	0.068381
C47	C	0.560496	-0.329905	-0.431599
C48	C	1.060496	0.170095	0.068401
C49	C	0.601693	-0.380440	-0.380949
C50	C	1.101693	0.119560	0.119051
C51	C	0.560344	-0.430988	-0.330319
C52	C	1.060344	0.069012	0.169681
C53	C	0.601851	-0.279363	-0.482235
C54	C	1.101851	0.220637	0.017765
C55	C	0.684402	-0.279349	-0.482218
C56	C	1.184402	0.220651	0.017782
C57	C	0.725600	-0.329881	-0.431564
C58	C	1.225600	0.170119	0.068436
C59	C	0.684246	-0.380430	-0.380930
C60	C	1.184246	0.119570	0.119070
C61	C	0.725443	-0.430965	-0.330280
C62	C	1.225443	0.069035	0.169720
C63	C	0.684091	-0.481512	-0.279642
C64	C	1.184091	0.018488	0.220358
C65	C	0.601542	-0.481520	-0.279664
C66	C	1.101542	0.018480	0.220336
C67	C	0.808149	-0.329872	-0.431542
C68	C	1.308149	0.170128	0.068458
C69	C	0.807997	-0.430956	-0.330261
C70	C	1.307997	0.069044	0.169739
C71	C	1.193236	-1.045003	-0.431591
C72	C	1.693236	-0.545003	0.068409
C73	C	1.092122	-1.045244	-0.330387
C74	C	1.592122	-0.545244	0.169613
C75	C	1.092093	-0.962698	-0.330369
C76	C	1.592093	-0.462698	0.169631
C77	C	1.142635	-0.921301	-0.380963
C78	C	1.642635	-0.421301	0.119037
C79	C	1.193206	-0.962450	-0.431576
C80	C	1.693206	-0.462450	0.068424
C81	C	1.041516	-0.921542	-0.279763
C82	C	1.541516	-0.421542	0.220237
C83	C	1.041484	-0.838992	-0.279743
C84	C	1.541484	-0.338992	0.220257
C85	C	1.092031	-0.797593	-0.330334
C86	C	1.592031	-0.297593	0.169666
C87	C	1.142605	-0.838747	-0.380948
C88	C	1.642605	-0.338747	0.119052
C89	C	1.193148	-0.797351	-0.431543
C90	C	1.693148	-0.297351	0.068457
C91	C	1.243726	-0.838503	-0.482153
C92	C	1.743726	-0.338503	0.017847
C93	C	1.243753	-0.921052	-0.482167
C94	C	1.743753	-0.421052	0.017833
C95	C	1.092004	-0.715045	-0.330321
C96	C	1.592004	-0.215045	0.169679
C97	C	1.193118	-0.714797	-0.431528
C98	C	1.693118	-0.214797	0.068472
C99	C	1.348737	-0.380452	-0.380971
C100	C	1.848737	0.119548	0.119029
C101	C	1.436593	-0.380463	-0.380988
C102	C	1.936593	0.119537	0.119012
C103	C	1.142763	-0.380148	-0.587099
C104	C	1.642763	0.119852	-0.087099
C105	C	1.142845	-0.380030	-0.674956
C106	C	1.642845	0.119970	-0.174956
C107	C	1.142656	-0.174257	-0.380976
C108	C	1.642656	0.325743	0.119024
C109	C	1.142694	-0.086400	-0.380996
C110	C	1.642694	0.413600	0.119004
C111	C	1.142420	-0.380644	-0.175563
C112	C	1.642420	0.119356	0.324437
C113	C	1.142491	-0.380540	-0.087707
C114	C	1.642491	0.119460	0.412293
C115	C	1.092319	-0.431396	-0.046190
C116	C	1.592319	0.068604	0.453810
C117	C	1.192733	-0.329583	-0.046671
C118	C	1.692733	0.170417	0.453329
C119	C	1.192804	-0.329479	0.035875
C120	C	1.692804	0.170521	0.535875
C121	C	1.142633	-0.380335	0.077392
C122	C	1.642633	0.119665	0.577392
C123	C	1.092390	-0.431295	0.036364
C124	C	1.592390	0.068705	0.536364
C125	C	1.243052	-0.278525	0.076909
C126	C	1.743052	0.221475	0.576909
C127	C	1.243125	-0.278420	0.159460
C128	C	1.743125	0.221580	0.659460
C129	C	1.192949	-0.329273	0.200979
C130	C	1.692949	0.170727	0.700979
C131	C	1.142704	-0.380234	0.159945
C132	C	1.642704	0.119766	0.659945
C133	C	1.092532	-0.431091	0.201463
C134	C	1.592532	0.068909	0.701463
C135	C	1.042282	-0.482049	0.160431
C136	C	1.542282	0.017951	0.660431
C137	C	1.042214	-0.482148	0.077883
C138	C	1.542214	0.017852	0.577883
C139	C	1.193017	-0.329174	0.283527
C140	C	1.693017	0.170826	0.783527
C141	C	1.092603	-0.430990	0.284016
C142	C	1.592603	0.069010	0.784016
H143	H	0.841533	-0.472106	-0.289013
H144	H	1.341533	0.027894	0.210987
C145	C	0.729418	-0.537098	-0.223928
C146	C	1.229418	-0.037098	0.276072
N147	N	0.763562	-0.578962	-0.181964
N148	N	1.263562	-0.078962	0.318036
H149	H	1.001306	-0.523638	0.044467
H150	H	1.501306	-0.023638	0.544467
H151	H	1.233585	-0.288182	-0.080479
H152	H	1.733585	0.211818	0.419521
C153	C	1.037407	-0.486936	0.329678
C154	C	1.537407	0.013064	0.829678
N155	N	0.995834	-0.529074	0.364071
N156	N	1.495834	-0.029074	0.864071
H157	H	1.001436	-0.523459	0.194245
H158	H	1.501436	-0.023459	0.694245
C159	C	1.298392	-0.222357	0.204587
C160	C	1.798392	0.277643	0.704587
N161	N	1.340016	-0.180127	0.238578
N162	N	1.840016	0.319873	0.738578
H163	H	1.000365	-0.955254	-0.238574
H164	H	1.500365	-0.455254	0.261426
C165	C	0.432631	-0.274320	-0.487318
C166	C	0.932631	0.225680	0.012682
N167	N	0.398493	-0.232435	-0.529267
N168	N	0.898493	0.267565	-0.029267
H169	H	0.567866	-0.522672	-0.238437
H170	H	1.067866	-0.022672	0.261563
H171	H	1.233932	-0.287686	0.316931
H172	H	1.733932	0.212314	0.816931
H173	H	1.283903	-0.237126	0.043100
H174	H	1.783903	0.262874	0.543100
H175	H	1.284875	-0.804789	-0.523351
H176	H	1.784875	-0.304789	-0.023351
C177	C	1.036373	-0.669781	-0.274652
C178	C	1.536373	-0.169781	0.225348
N179	N	0.994470	-0.635689	-0.232716
N180	N	1.494470	-0.135689	0.267284
H181	H	0.841814	-0.288720	-0.472772
H182	H	1.341814	0.211280	0.027228
C183	C	1.248870	-1.090271	-0.487260
C184	C	1.748870	-0.590271	0.012740
N185	N	1.290773	-1.124368	-0.529191
N186	N	1.790773	-0.624368	-0.029191
C187	C	1.037041	-0.487442	-0.091325
C188	C	1.537041	0.012558	0.408675
N189	N	0.995404	-0.529654	-0.125321
N190	N	1.495404	-0.029654	0.374679
H191	H	1.284931	-0.954566	-0.523371
H192	H	1.784931	-0.454566	-0.023371
C193	C	0.432302	-0.486596	-0.274639
C194	C	0.932302	0.013404	0.225361
N195	N	0.398040	-0.528474	-0.232686
N196	N	0.898040	-0.028474	0.267314
H197	H	0.568302	-0.238225	-0.523476
H198	H	1.068302	0.261775	-0.023476
C199	C	0.729882	-0.223739	-0.537913
C200	C	1.229882	0.276261	-0.037913
N201	N	0.764138	-0.181850	-0.579859
N202	N	1.264138	0.318150	-0.079859
H203	H	1.234279	-0.681097	-0.472725
H204	H	1.734279	-0.181097	0.027275
H205	H	1.050969	-1.078954	-0.289199
H206	H	1.550969	-0.578954	0.210801
C207	C	0.985840	-0.793731	-0.224078
C208	C	1.485840	-0.293731	0.275922
N209	N	0.943927	-0.759640	-0.182152
N210	N	1.443927	-0.259640	0.317848
