data_functionalizedCrystal
_audit_creation_method	'MofGen! by Chris Wilmer'
_symmetry_space_group_name_H-M	'P1'
_symmetry_Int_Tables_number	1
_symmetry_cell_setting	triclinic
loop_
_symmetry_equiv_pos_as_xyz
  x,y,z
_cell_length_a	6.817900
_cell_length_b	14.125469
_cell_length_c	17.078481
_cell_angle_alpha	96.555960
_cell_angle_beta	99.306161
_cell_angle_gamma	100.398878
loop_
_atom_site_label
_atom_site_type_symbol
_atom_site_fract_x
_atom_site_fract_y
_atom_site_fract_z
V1	V	-3.964070	-0.132890	-0.247056
O2	O	-3.968820	0.006617	-0.242668
O3	O	-3.900585	-0.263720	-0.245063
O4	O	-3.895367	-0.130744	-0.354944
O5	O	-3.974075	-0.127280	-0.132027
V6	V	-4.452283	-0.116215	-0.233334
O7	O	-4.215039	-0.169467	-0.277155
O8	O	-4.651511	-0.079638	-0.203235
O9	O	-4.292561	0.014615	-0.235327
O10	O	-4.564929	-0.255722	-0.237722
O11	O	-4.559675	-0.121825	-0.348363
O12	O	-4.297779	-0.118361	-0.125446
C13	C	-3.742573	-0.295617	-0.241087
C14	C	-3.771818	-0.402572	-0.240177
C15	C	-3.735916	-0.125992	-0.381250
C16	C	-3.760927	-0.125103	-0.469447
C17	C	-3.953456	-0.129488	-0.514913
C18	C	-3.976945	-0.128653	-0.597783
C19	C	-3.807905	-0.123439	-0.635186
C20	C	-3.615360	-0.119050	-0.589714
C21	C	-3.591871	-0.119879	-0.506845
C22	C	-3.858766	-0.120440	-0.882596
C23	C	-3.882272	-0.119614	-0.965472
C24	C	-4.243856	-0.129215	-0.973535
C25	C	-4.220351	-0.130049	-0.890664
C26	C	-4.027808	-0.125656	-0.845199
N27	N	-3.831911	-0.122588	-0.719893
N28	N	-4.003802	-0.126500	-0.760493
C29	C	-3.825428	-0.598399	-0.238522
C30	C	-4.010291	-0.650718	-0.241871
C31	C	-4.040122	-0.759683	-0.240950
C32	C	-3.795589	-0.489424	-0.239443
C33	C	-4.113915	0.046507	-0.239301
C34	C	-4.063907	0.153461	-0.240216
C35	C	-4.120573	-0.123116	-0.099136
C36	C	-4.074800	-0.124000	-0.010938
H37	H	-4.091114	-0.133741	-0.484466
C38	C	-3.662263	-0.117673	-0.752020
C39	C	-3.647182	-0.115780	-0.832648
H40	H	-3.531644	-0.114839	-0.721188
H41	H	-3.750627	-0.176090	-0.747260
H42	H	-3.714714	-0.063362	-0.732926
H43	H	-3.594744	-0.170096	-0.851743
H44	H	-3.558786	-0.057357	-0.837412
H45	H	-3.744607	-0.115366	-0.995923
H46	H	-3.689576	-0.635440	-0.234962
H47	H	-4.133717	-0.132218	-0.634797
H48	H	-3.477724	-0.114799	-0.620174
H49	H	-4.358006	-0.134294	-0.860216
H50	H	-3.435088	-0.116284	-0.469824
H51	H	-4.146154	-0.613674	-0.245428
H52	H	-4.400618	-0.132791	-1.010561
