data_functionalizedCrystal
_audit_creation_method	'MofGen! by Chris Wilmer'
_symmetry_space_group_name_H-M	'P1'
_symmetry_Int_Tables_number	1
_symmetry_cell_setting	triclinic
loop_
_symmetry_equiv_pos_as_xyz
  x,y,z
_cell_length_a	10.723024
_cell_length_b	15.995300
_cell_length_c	9.798715
_cell_angle_alpha	89.994961
_cell_angle_beta	90.001312
_cell_angle_gamma	96.030162
loop_
_atom_site_label
_atom_site_type_symbol
_atom_site_fract_x
_atom_site_fract_y
_atom_site_fract_z
O1	O	0.160540	-1.111933	0.113535
O2	O	0.180468	-0.868266	0.113526
O3	O	-0.011145	-0.995720	0.113529
O4	O	0.352153	-0.984479	0.113532
O5	O	-0.011147	-0.995711	-0.113454
O6	O	0.180466	-0.868257	-0.113456
O7	O	0.160539	-1.111924	-0.113447
Zn8	Zn	0.170502	-0.990089	-0.149490
Zn9	Zn	0.170504	-0.990101	0.149569
O10	O	0.352152	-0.984470	-0.113450
C11	C	-0.057635	-0.994898	0.000040
C12	C	-0.196157	-0.992450	0.000047
C13	C	0.179654	-0.837062	0.000034
C14	C	0.177218	-0.744095	0.000030
C15	C	0.161352	-1.143129	0.000048
C16	C	0.163789	-1.236095	0.000060
C17	C	0.398642	-0.985293	0.000042
C18	C	0.537164	-0.987740	0.000043
C19	C	0.613076	-0.916424	0.000042
C20	C	0.756246	-0.918952	0.000044
C21	C	0.172718	-0.573886	0.000041
C22	C	0.309150	-0.527204	0.000039
C23	C	0.306661	-0.430502	0.000558
C24	C	0.168289	-0.406304	0.000050
C25	C	0.100601	-0.447053	0.129411
C26	C	0.104053	-0.543706	0.129516
C27	C	0.102031	-0.543964	-0.128614
C28	C	0.102044	-0.447019	-0.130311
C29	C	0.165779	-0.311594	0.000059
C30	C	0.175224	-0.668596	0.000041
N31	N	0.170500	-0.990087	-0.353590
C32	C	0.251302	-0.936584	-0.421401
C33	C	0.251301	-0.936595	-0.578564
N34	N	0.170496	-0.990109	0.353668
H35	H	0.572073	-0.853496	0.000046
H36	H	0.146948	-0.564718	-0.226694
H37	H	0.821474	-0.857899	0.000033
O38	O	0.162461	-0.565847	0.245214
C39	C	0.285626	-0.525179	0.248455
H40	H	0.317299	-0.507579	0.140205
H41	H	0.287876	-0.465862	0.313290
C42	C	0.335441	-0.606274	0.443594
C43	C	0.374346	-0.584664	0.310639
H44	H	0.390168	-0.642964	0.481958
H45	H	0.252461	-0.633671	0.441415
H46	H	0.337317	-0.556837	0.497606
H47	H	0.372455	-0.634099	0.256626
H48	H	0.457328	-0.557276	0.312811
H49	H	0.363978	-0.546006	-0.092712
H50	H	0.738622	-1.053506	0.000042
H51	H	0.101326	-1.035906	-0.411885
H52	H	0.359848	-0.402340	-0.092153
H53	H	0.003869	-0.575404	0.135043
O54	O	0.087816	-1.044614	-0.576689
C55	C	0.011079	-0.999065	-0.494163
H56	H	0.061098	-0.933923	-0.472862
H57	H	-0.081072	-0.992638	-0.549254
C58	C	-0.077266	-1.125997	-0.384532
C59	C	-0.015827	-1.045991	-0.358361
H60	H	-0.093869	-1.154944	-0.300765
H61	H	-0.025571	-1.156686	-0.440135
H62	H	-0.154052	-1.120630	-0.430445
H63	H	0.060963	-1.051359	-0.312465
H64	H	-0.067511	-1.015304	-0.302747
H65	H	0.578166	-1.050668	0.000095
O66	O	0.161114	-0.414626	-0.244354
C67	C	0.261952	-0.355439	-0.206511
H68	H	0.244549	-0.330556	-0.099932
H69	H	0.352624	-0.386813	-0.206656
C70	C	0.294501	-0.312578	-0.439853
C71	C	0.273121	-0.282011	-0.308955
H72	H	0.301396	-0.267285	-0.503047
H73	H	0.226568	-0.352455	-0.465350
H74	H	0.370060	-0.338723	-0.439954
H75	H	0.197556	-0.255876	-0.308852
H76	H	0.341042	-0.242127	-0.283461
O77	O	0.373926	-0.551111	0.110194
C78	C	0.496121	-0.508851	0.108716
H79	H	0.521894	-0.488201	0.000072
H80	H	0.499887	-0.451282	0.177770
C81	C	0.558042	-0.593713	0.294020
C82	C	0.589701	-0.568357	0.160579
H83	H	0.615767	-0.630417	0.326017
H84	H	0.475716	-0.622183	0.295020
H85	H	0.561180	-0.545733	0.351548
H86	H	0.586547	-0.616335	0.103051
H87	H	0.672029	-0.539896	0.159571
H88	H	-0.001072	-0.432370	0.133858
O89	O	0.370008	-0.397587	0.111687
C90	C	0.471407	-0.340302	0.068935
H91	H	0.498308	-0.355701	-0.040063
H92	H	0.442943	-0.273651	0.072975
C93	C	0.551244	-0.328050	0.297890
C94	C	0.584291	-0.346967	0.164021
H95	H	0.620875	-0.332158	0.356546
H96	H	0.482928	-0.366642	0.326695
H97	H	0.527522	-0.272509	0.301237
H98	H	0.607996	-0.402511	0.160673
H99	H	0.652614	-0.308386	0.135218
H100	H	0.147007	-0.418938	0.226046
H101	H	0.001160	-0.431102	-0.138505
H102	H	0.001442	-0.575167	-0.129859
H103	H	0.320487	-0.890771	-0.363108
H104	H	0.320474	-0.890785	-0.636878
