data_functionalizedCrystal
_audit_creation_method	'MofGen! by Chris Wilmer'
_symmetry_space_group_name_H-M	'P1'
_symmetry_Int_Tables_number	1
_symmetry_cell_setting	triclinic
loop_
_symmetry_equiv_pos_as_xyz
  x,y,z
_cell_length_a	16.992694
_cell_length_b	14.853567
_cell_length_c	16.053802
_cell_angle_alpha	92.572962
_cell_angle_beta	87.249047
_cell_angle_gamma	87.151577
loop_
_atom_site_label
_atom_site_type_symbol
_atom_site_fract_x
_atom_site_fract_y
_atom_site_fract_z
O1	O	1.043898	0.187626	-0.069313
O2	O	1.543898	0.687626	0.430687
O3	O	0.815612	0.185528	-0.069338
O4	O	1.315612	0.685528	0.430662
O5	O	0.935853	0.055778	-0.069327
O6	O	1.435853	0.555778	0.430673
O7	O	0.923657	0.317376	-0.069323
O8	O	1.423657	0.817376	0.430677
O9	O	0.929234	0.062888	0.069531
O10	O	1.429234	0.562888	0.569531
O11	O	0.808993	0.192638	0.069521
O12	O	1.308993	0.692638	0.569521
O13	O	1.037280	0.194737	0.069545
O14	O	1.537280	0.694737	0.569545
Zn15	Zn	0.922086	0.194816	0.091580
Zn16	Zn	1.422086	0.694816	0.591580
Zn17	Zn	0.930806	0.185448	-0.091372
Zn18	Zn	1.430806	0.685448	0.408628
O19	O	0.917038	0.324487	0.069535
O20	O	1.417038	0.824487	0.569535
C21	C	0.783087	0.186385	0.000088
C22	C	1.283087	0.686385	0.500088
C23	C	0.696035	0.178334	0.000078
C24	C	1.196035	0.678334	0.500078
C25	C	0.645879	0.256009	0.000080
C26	C	1.145879	0.756009	0.500080
C27	C	0.564083	0.248440	0.000092
C28	C	1.064083	0.748440	0.500092
C29	C	0.532446	0.163195	0.000095
C30	C	1.032446	0.663195	0.500095
C31	C	0.582608	0.085513	0.000096
C32	C	1.082608	0.585513	0.500096
C33	C	0.664401	0.093084	0.000091
C34	C	1.164401	0.593084	0.500091
C35	C	0.288813	0.131819	0.000117
C36	C	0.788813	0.631819	0.500117
C37	C	0.207013	0.124255	0.000120
C38	C	0.707013	0.624255	0.500120
C39	C	0.188494	0.287183	0.000117
C40	C	0.688494	0.787183	0.500117
C41	C	0.270290	0.294745	0.000107
C42	C	0.770290	0.794745	0.500107
C43	C	0.320445	0.217064	0.000112
C44	C	0.820445	0.717064	0.500112
N45	N	0.448838	0.155456	0.000104
N46	N	0.948838	0.655456	0.500104
N47	N	0.404051	0.224804	0.000109
N48	N	0.904051	0.724804	0.500109
C49	C	0.931991	0.025705	0.000099
C50	C	1.431991	0.525705	0.500099
C51	C	0.930335	-0.074496	0.000092
C52	C	1.430335	0.425504	0.500092
C53	C	0.851909	-0.492567	0.000099
C54	C	1.351909	0.007433	0.500099
C55	C	0.994758	-0.503761	0.000115
C56	C	1.494758	-0.003761	0.500115
C57	C	0.996315	-0.409617	0.000110
C58	C	1.496315	0.090383	0.500110
C59	C	0.925668	-0.356944	0.000101
C60	C	1.425668	0.143056	0.500101
C61	C	0.853464	-0.398414	0.000097
C62	C	1.353464	0.101586	0.500097
C63	C	1.068518	-0.368139	0.000123
C64	C	1.568518	0.131861	0.500123
C65	C	1.070078	-0.273990	0.000119
C66	C	1.570078	0.226010	0.500119
C67	C	0.999430	-0.221316	0.000104
C68	C	1.499430	0.278684	0.500104
C69	C	0.927223	-0.262792	0.000099
C70	C	1.427223	0.237208	0.500099
C71	C	0.856576	-0.210118	0.000090
C72	C	1.356576	0.289882	0.500090
C73	C	0.784368	-0.251593	0.000079
C74	C	1.284368	0.248407	0.500079
C75	C	0.782816	-0.345740	0.000082
C76	C	1.282816	0.154260	0.500082
C77	C	1.000983	-0.127169	0.000101
C78	C	1.500983	0.372831	0.500101
C79	C	0.858131	-0.115966	0.000088
C80	C	1.358131	0.384034	0.500088
C81	C	1.069804	0.193880	0.000118
C82	C	1.569804	0.693880	0.500118
C83	C	1.156857	0.201930	0.000122
C84	C	1.656857	0.701930	0.500122
C85	C	0.920900	0.354559	0.000106
C86	C	1.420900	0.854559	0.500106
C87	C	0.922556	0.454760	0.000108
C88	C	1.422556	0.954760	0.500108
N89	N	0.916140	0.201210	0.216440
N90	N	1.416140	0.701210	0.716440
N91	N	0.936757	0.179048	-0.216232
N92	N	1.436757	0.679048	0.283768
C93	C	0.967322	0.146023	0.260138
C94	C	1.467322	0.646023	0.760138
C95	C	0.963170	0.150505	0.347544
C96	C	1.463170	0.650505	0.847544
C97	C	0.907840	0.210178	0.391251
C98	C	1.407840	0.710178	0.891251
C99	C	0.856653	0.265367	0.347546
C100	C	1.356653	0.765367	0.847546
C101	C	0.860801	0.260880	0.260141
C102	C	1.360801	0.760880	0.760141
C103	C	0.889719	0.229750	0.652659
C104	C	1.389719	0.729750	1.152659
C105	C	0.885576	0.234235	0.740070
C106	C	1.385576	0.734235	1.240070
C107	C	0.992092	0.119371	0.740062
C108	C	1.492092	0.619371	1.240062
C109	C	0.996239	0.114894	0.652655
C110	C	1.496239	0.614894	1.152655
C111	C	0.945049	0.170079	0.608958
C112	C	1.445049	0.670079	1.108958
N113	N	0.903597	0.214762	0.480594
N114	N	1.403597	0.714762	0.980594
N115	N	0.949289	0.165490	0.519617
N116	N	1.449289	0.665490	1.019617
H117	H	0.556842	0.016105	0.000111
H118	H	1.056842	0.516105	0.500111
H119	H	0.705238	0.029832	0.000089
H120	H	1.205238	0.529832	0.500089
H121	H	0.523249	0.311692	0.000092
H122	H	1.023249	0.811692	0.500092
Br123	Br	0.762248	-0.044488	0.000066
Br124	Br	1.262248	0.455512	0.500066
H125	H	0.147649	0.350426	0.000115
H126	H	0.647649	0.850426	0.500115
H127	H	1.059773	-0.093404	0.000115
H128	H	1.559773	0.406596	0.500115
H129	H	0.724028	-0.379517	0.000074
H130	H	1.224028	0.120483	0.500074
H131	H	0.793119	-0.526340	0.000087
H132	H	1.293119	-0.026340	0.500087
Br133	Br	0.791332	0.335773	0.200836
Br134	Br	1.291332	0.835773	0.700836
H135	H	1.004845	0.105567	0.383123
H136	H	1.504845	0.605567	0.883123
Br137	Br	0.164076	0.008558	0.000143
Br138	Br	0.664076	0.508558	0.500143
H139	H	0.329640	0.068566	0.000122
H140	H	0.829640	0.568566	0.500122
Br141	Br	0.688494	-0.180097	0.000078
Br142	Br	1.188494	0.319903	0.500078
Br143	Br	1.090631	-0.575244	0.000145
Br144	Br	1.590631	-0.075244	0.500145
H145	H	1.126034	-0.411032	0.000138
H146	H	1.626034	0.088968	0.500138
Br147	Br	1.168072	-0.217712	0.000121
Br148	Br	1.668072	0.282288	0.500121
H149	H	0.671631	0.325425	0.000077
H150	H	1.171631	0.825425	0.500077
H151	H	1.012380	0.097435	0.224558
H152	H	1.512380	0.597435	0.724558
Br153	Br	1.071333	0.033912	0.593338
Br154	Br	1.571333	0.533912	1.093338
H155	H	0.296043	0.364160	0.000094
H156	H	0.796043	0.864160	0.500094
H157	H	0.840517	0.282831	0.775651
H158	H	1.340517	0.782831	1.275651
Br159	Br	1.061559	0.044479	0.799367
Br160	Br	1.561559	0.544479	1.299367
Br161	Br	0.820251	0.304644	0.593361
Br162	Br	1.320251	0.804644	1.093361
H163	H	0.811598	0.313950	0.383137
H164	H	1.311598	0.813950	0.883137
