data_functionalizedCrystal
_audit_creation_method	'MofGen! by Chris Wilmer'
_symmetry_space_group_name_H-M	'P1'
_symmetry_Int_Tables_number	1
_symmetry_cell_setting	triclinic
loop_
_symmetry_equiv_pos_as_xyz
  x,y,z
_cell_length_a	12.811445
_cell_length_b	10.654545
_cell_length_c	11.892095
_cell_angle_alpha	93.929293
_cell_angle_beta	80.666316
_cell_angle_gamma	84.264733
loop_
_atom_site_label
_atom_site_type_symbol
_atom_site_fract_x
_atom_site_fract_y
_atom_site_fract_z
O1	O	1.410794	0.148905	-0.238613
O2	O	1.103111	0.169971	-0.207076
O3	O	1.264026	-0.023399	-0.223569
O4	O	1.249879	0.342275	-0.222120
O5	O	1.250609	-0.007301	-0.034186
O6	O	1.089694	0.186070	-0.017693
O7	O	1.397377	0.165003	-0.049231
Zn8	Zn	1.241405	0.178092	-0.003393
Zn9	Zn	1.259083	0.156882	-0.252913
O10	O	1.236462	0.358374	-0.032738
C11	C	1.057005	0.177332	-0.108346
C12	C	0.939614	0.175266	-0.096313
C13	C	0.733646	0.153854	-0.280189
C14	C	0.623346	0.151913	-0.268888
C15	C	0.608711	0.169450	-0.062412
C16	C	0.719011	0.171391	-0.073713
C17	C	0.781475	0.163591	-0.182605
C18	C	0.891778	0.165524	-0.193905
C19	C	0.877140	0.183070	0.012571
C20	C	0.766840	0.181128	0.023871
C21	C	1.256279	-0.062134	-0.128773
C22	C	1.253170	-0.201534	-0.128461
C23	C	1.267811	-0.219094	-0.334933
C24	C	1.273674	-0.293363	-0.438019
C25	C	1.270754	-0.424341	-0.437721
C26	C	1.261966	-0.481052	-0.334326
C27	C	1.256102	-0.406783	-0.231239
C28	C	1.259027	-0.275803	-0.231549
C29	C	1.241455	-0.389222	-0.024769
C30	C	1.244382	-0.258245	-0.025065
C31	C	1.232667	-0.445933	0.078627
C32	C	1.226810	-0.371665	0.181715
C33	C	1.229732	-0.240679	0.181412
C34	C	1.238519	-0.183976	0.078021
C35	C	1.443483	0.157642	-0.147963
C36	C	1.560875	0.159708	-0.160003
C37	C	1.244210	0.397108	-0.127536
C38	C	1.247318	0.536508	-0.127855
N39	N	1.229349	0.192567	0.166897
N40	N	1.271148	0.142398	-0.423204
C41	C	1.355043	0.041606	0.390661
C42	C	1.346623	0.051733	0.509866
C43	C	1.204085	0.222940	0.524514
C44	C	1.212505	0.212813	0.405309
C45	C	1.287987	0.122145	0.338386
C46	C	1.296411	0.112025	0.219179
C47	C	1.153869	0.283225	0.233829
C48	C	1.145449	0.293352	0.353034
H49	H	0.715967	0.187483	0.112528
C50	C	1.420386	-0.036870	0.567364
N51	N	1.475946	-0.103612	0.610671
C52	C	0.539981	0.178041	0.057360
N53	N	0.488213	0.184511	0.147573
C54	C	1.258726	-0.625128	-0.334001
N55	N	1.256281	-0.733647	-0.333755
H56	H	1.240904	-0.077328	0.077764
C57	C	1.229436	-0.590010	0.078953
N58	N	1.227000	-0.698531	0.079202
C59	C	1.283350	-0.230973	-0.551751
N60	N	1.290641	-0.183984	-0.637413
H61	H	0.916094	0.190997	0.092031
C62	C	0.570739	0.141193	-0.376238
N63	N	0.531116	0.133117	-0.457100
C64	C	1.062415	0.393073	0.426663
N65	N	0.999872	0.468185	0.482119
H66	H	1.219648	-0.417848	0.265892
C67	C	1.271054	-0.075019	-0.335274
N68	N	1.273503	0.033498	-0.335534
H69	H	1.275519	-0.484811	-0.521662
H70	H	1.099271	0.348808	0.191254
H71	H	1.224941	-0.180213	0.265360
H72	H	1.357875	0.038202	0.164691
C73	C	0.802359	0.145269	-0.399969
N74	N	0.854112	0.138804	-0.490190
H75	H	1.142622	0.296752	0.579018
C76	C	0.960486	0.156946	-0.313687
N77	N	1.012234	0.150490	-0.403911
C78	C	1.438077	-0.058123	0.317044
N79	N	1.500620	-0.133242	0.261596
