data_functionalizedCrystal
_audit_creation_method	'MofGen! by Chris Wilmer'
_symmetry_space_group_name_H-M	'P1'
_symmetry_Int_Tables_number	1
_symmetry_cell_setting	triclinic
loop_
_symmetry_equiv_pos_as_xyz
  x,y,z
_cell_length_a	10.540539
_cell_length_b	23.532407
_cell_length_c	9.616153
_cell_angle_alpha	89.993077
_cell_angle_beta	89.995174
_cell_angle_gamma	83.687085
loop_
_atom_site_label
_atom_site_type_symbol
_atom_site_fract_x
_atom_site_fract_y
_atom_site_fract_z
O1	O	1.683259	0.080251	-0.115596
O2	O	1.313597	0.087813	-0.115615
O3	O	1.509575	0.001174	-0.115579
O4	O	1.487281	0.166890	-0.115631
O5	O	1.509548	0.001176	0.115712
O6	O	1.313571	0.087814	0.115677
O7	O	1.683232	0.080253	0.115695
Zn8	Zn	1.498397	0.084034	0.152408
Zn9	Zn	1.498432	0.084032	-0.152328
O10	O	1.487254	0.166892	0.115660
C11	C	1.266300	0.087246	0.000029
C12	C	1.125407	0.085550	0.000023
C13	C	0.944114	0.020541	0.000583
C14	C	1.090676	0.022261	0.000047
C15	C	1.062750	0.116006	-0.132060
C16	C	0.916277	0.113846	-0.132156
C17	C	0.915716	0.115136	0.130865
C18	C	1.062678	0.115719	0.132597
C19	C	1.508994	-0.020045	0.000070
C20	C	1.507287	-0.083273	0.000080
C21	C	1.612557	-0.481681	0.000010
C22	C	1.610971	-0.541092	-0.000001
O23	O	1.708557	-0.577192	-0.000048
N24	N	1.494462	-0.564488	-0.000006
C25	C	1.379532	-0.528469	-0.000014
O26	O	1.280287	-0.553824	-0.000021
C27	C	1.381119	-0.469060	-0.000014
C28	C	1.497635	-0.445667	0.000005
C29	C	1.729064	-0.458288	0.000027
C30	C	1.730649	-0.398882	0.000040
C31	C	1.615727	-0.362868	0.000036
C32	C	1.499220	-0.386261	0.000019
C33	C	1.266190	-0.433042	-0.000032
C34	C	1.267787	-0.373629	-0.000032
C35	C	1.384303	-0.350237	-0.000013
C36	C	1.385883	-0.290840	0.000028
N37	N	1.502392	-0.267444	0.000032
C38	C	1.617314	-0.303458	0.000037
C39	C	1.376208	-0.653234	-0.000018
C40	C	1.374620	-0.712642	-0.000009
C41	C	1.606059	-0.725261	0.000002
C42	C	1.607646	-0.665851	0.000002
C43	C	1.492717	-0.629838	-0.000013
C44	C	1.620634	-0.178700	0.000066
C45	C	1.622209	-0.119287	0.000085
C46	C	1.390770	-0.106674	0.000067
C47	C	1.389194	-0.166081	0.000055
C48	C	1.504137	-0.202093	0.000050
O49	O	1.288349	-0.254705	0.000068
O50	O	1.716543	-0.278095	0.000025
C51	C	1.730530	0.080819	0.000049
C52	C	1.871422	0.082516	0.000045
C53	C	1.487835	0.188111	0.000008
C54	C	1.489542	0.251339	-0.000012
N55	N	1.498382	0.084035	0.360383
N56	N	1.498457	0.084026	-0.360302
C57	C	1.393237	0.130226	0.580734
C58	C	1.393459	0.130399	0.419567
C59	C	1.630662	0.097553	0.418834
C60	C	1.630087	0.097880	0.580052
C61	C	1.472575	0.024176	0.580312
C62	C	1.469515	0.024564	0.419085
H63	H	1.104360	0.093469	0.230311
H64	H	0.914735	-0.004357	-0.093599
H65	H	1.372213	0.014318	0.380883
Cl66	Cl	1.580242	-0.031067	0.356917
Cl67	Cl	0.868041	0.083512	0.285441
H68	H	0.866815	0.159363	-0.138165
H69	H	1.282612	-0.623914	-0.000019
H70	H	1.378260	0.011310	0.621049
H71	H	1.171310	-0.452077	-0.000056
H72	H	1.549315	-0.010211	0.618442
Cl73	Cl	1.877134	-0.369483	0.000024
Cl74	Cl	1.123294	-0.328359	-0.000054
H75	H	1.085389	0.161861	0.140557
Cl76	Cl	1.768697	-0.089884	0.000106
H77	H	1.714231	-0.208014	0.000056
Cl78	Cl	1.157672	-0.014740	0.146229
H79	H	1.133224	-0.001874	-0.094785
Cl80	Cl	1.873557	-0.503553	0.000035
H81	H	1.653008	0.141545	0.617628
H82	H	0.866988	0.160849	0.131743
H83	H	1.702524	-0.646810	0.000017
Cl84	Cl	0.873875	0.079089	-0.284568
Cl85	Cl	1.750534	-0.770546	-0.000003
H86	H	1.279741	-0.731682	-0.000000
Cl87	Cl	1.754427	0.047891	0.640275
Cl88	Cl	0.901222	-0.018061	0.146833
H89	H	1.294317	-0.185128	0.000078
Cl90	Cl	1.754380	0.047019	0.359651
Cl91	Cl	1.246305	-0.061389	0.000058
H92	H	1.295109	0.122265	0.380050
H93	H	1.409455	0.174378	0.621220
Cl94	Cl	1.094944	0.187759	-0.139706
H95	H	1.106044	0.094848	-0.230346
Cl96	Cl	1.240899	0.117854	0.640618
Cl97	Cl	1.418794	0.198961	0.359972
Cl98	Cl	1.666920	0.164207	0.356461
