data_functionalizedCrystal
_audit_creation_method	'MofGen! by Chris Wilmer'
_symmetry_space_group_name_H-M	'P1'
_symmetry_Int_Tables_number	1
_symmetry_cell_setting	triclinic
loop_
_symmetry_equiv_pos_as_xyz
  x,y,z
_cell_length_a	17.077404
_cell_length_b	18.050589
_cell_length_c	17.077396
_cell_angle_alpha	90.024642
_cell_angle_beta	90.019501
_cell_angle_gamma	90.028446
loop_
_atom_site_label
_atom_site_type_symbol
_atom_site_fract_x
_atom_site_fract_y
_atom_site_fract_z
Zn1	Zn	1.200026	-0.295655	0.443864
Zn2	Zn	1.199920	-0.419852	0.312606
Zn3	Zn	1.068757	-0.295681	0.312612
Zn4	Zn	1.068713	-0.419808	0.443830
O5	O	1.134354	-0.357749	0.378228
O6	O	1.309858	-0.312138	0.426464
O7	O	1.182496	-0.403410	0.202760
O8	O	1.086233	-0.191753	0.330039
O9	O	1.309781	-0.403385	0.330030
O10	O	1.182675	-0.191734	0.426469
O11	O	1.086131	-0.312182	0.202764
O12	O	0.958905	-0.312139	0.330006
O13	O	1.086157	-0.403310	0.553681
O14	O	0.958872	-0.403335	0.426412
O15	O	1.182632	-0.312095	0.553706
O16	O	1.182453	-0.523771	0.329997
O17	O	1.086056	-0.523739	0.426407
C18	C	0.930406	-0.357736	0.378206
C19	C	0.843156	-0.357748	0.378216
C20	C	0.802170	-0.405305	0.428333
C21	C	0.720189	-0.405307	0.428346
C22	C	0.679197	-0.357754	0.378236
C23	C	0.720189	-0.310192	0.328116
C24	C	0.802168	-0.310187	0.328108
C25	C	0.549319	-0.310206	0.328135
C26	C	0.467335	-0.310212	0.328142
C27	C	0.467340	-0.405326	0.428373
C28	C	0.549319	-0.405321	0.428365
C29	C	0.590306	-0.357760	0.378244
C30	C	1.134259	-0.550701	0.378215
C31	C	1.134291	-0.633247	0.378236
C32	C	1.081921	-0.832707	0.430645
C33	C	1.062786	-0.882149	0.359016
C34	C	1.134368	-0.784377	0.378246
C35	C	1.153541	-0.882017	0.449883
C36	C	1.134441	-0.930362	0.378262
C37	C	1.115195	-0.832732	0.306579
C38	C	1.205984	-0.832596	0.397495
C39	C	1.186876	-0.882016	0.325816
C40	C	1.134324	-0.700279	0.378238
C41	C	1.134485	-1.014459	0.378262
C42	C	1.339098	-0.357763	0.378250
C43	C	1.426348	-0.357769	0.378260
C44	C	1.134402	-0.357694	0.582972
C45	C	1.134422	-0.357671	0.670222
C46	C	1.134471	-0.164043	0.378258
C47	C	1.134520	-0.081498	0.378271
C48	C	1.134352	-0.357750	0.174280
C49	C	1.134484	-0.357564	0.087031
C50	C	1.184658	-0.310172	0.711226
C51	C	1.184667	-0.310147	0.793207
C52	C	1.134444	-0.357626	0.834182
C53	C	1.084202	-0.405128	0.793172
C54	C	1.084190	-0.405148	0.711193
C55	C	1.084234	-0.405083	0.964042
C56	C	1.084248	-0.405064	1.046026
C57	C	1.184712	-0.310082	1.046056
C58	C	1.184699	-0.310102	0.964077
C59	C	1.134458	-0.357605	0.923073
H60	H	0.582693	-0.444047	0.469164
H61	H	0.835538	-0.271457	0.287301
H62	H	0.433965	-0.444050	0.469186
H63	H	1.098937	-0.811172	0.245986
O64	O	1.238873	-0.258900	0.919879
H65	H	1.225449	-0.200606	0.935611
H66	H	1.043307	-0.443783	0.826540
O67	O	1.030005	-0.456378	0.666960
H68	H	0.990083	-0.423135	0.629618
O69	O	1.286143	-0.803742	0.419086
H70	H	1.309581	-0.769931	0.370134
O71	O	0.846383	-0.456591	0.482384
H72	H	0.804106	-0.489654	0.517242
O73	O	1.245666	-0.910520	0.267065
H74	H	1.304875	-0.889785	0.282574
H75	H	0.686822	-0.444033	0.469156
H76	H	0.433961	-0.271482	0.287347
O77	O	0.593531	-0.258916	0.274070
H78	H	0.551256	-0.225858	0.239217
O79	O	0.675969	-0.258922	0.274055
H80	H	0.638635	-0.221186	0.309248
O81	O	1.023093	-0.804012	0.489256
H82	H	0.963720	-0.823859	0.473091
O83	O	0.982608	-0.910982	0.337444
H84	H	0.939145	-0.891239	0.381014
H85	H	1.169729	-0.903667	0.510460
O86	O	1.238828	-0.258962	0.667033
H87	H	1.273756	-0.225924	0.709322
H88	H	1.225577	-0.271470	0.826589
H89	H	1.225619	-0.271402	1.079446
O90	O	1.030073	-0.456264	1.090226
H91	H	0.995125	-0.489290	1.047942
O92	O	1.030042	-0.456312	0.919811
H93	H	0.995124	-0.489328	0.962074
