data_functionalizedCrystal
_audit_creation_method	'MofGen! by Chris Wilmer'
_symmetry_space_group_name_H-M	'P1'
_symmetry_Int_Tables_number	1
_symmetry_cell_setting	triclinic
loop_
_symmetry_equiv_pos_as_xyz
  x,y,z
_cell_length_a	16.109301
_cell_length_b	16.109301
_cell_length_c	9.730223
_cell_angle_alpha	89.997247
_cell_angle_beta	90.002516
_cell_angle_gamma	83.461481
loop_
_atom_site_label
_atom_site_type_symbol
_atom_site_fract_x
_atom_site_fract_y
_atom_site_fract_z
O1	O	1.103127	0.106864	-0.114207
O2	O	0.861065	0.120163	-0.114230
O3	O	0.988746	-0.007518	-0.114204
O4	O	0.975446	0.234544	-0.114233
O5	O	0.988744	-0.007515	0.114376
O6	O	0.861064	0.120166	0.114350
O7	O	1.103126	0.106867	0.114373
Zn8	Zn	0.982094	0.113517	0.150653
Zn9	Zn	0.982096	0.113513	-0.150511
O10	O	0.975445	0.234547	0.114347
C11	C	0.830090	0.119626	0.000057
C12	C	0.737794	0.118011	0.000049
C13	C	0.988206	-0.038491	0.000087
C14	C	0.986591	-0.130786	0.000088
C15	C	0.515522	0.190018	0.000057
C16	C	0.428801	0.188494	0.000066
C17	C	0.448676	0.037006	0.000078
C18	C	0.535394	0.038530	0.000079
C19	C	0.568815	0.115039	0.000061
C20	C	0.395376	0.111990	0.000069
C21	C	0.301350	0.110337	0.000079
C22	C	0.662847	0.116693	0.000054
C23	C	1.058599	-0.353059	0.000073
C24	C	1.057075	-0.439779	0.000062
C25	C	0.905586	-0.419905	0.000053
C26	C	0.907111	-0.333186	0.000055
C27	C	0.983620	-0.299766	0.000072
C28	C	0.980571	-0.473205	0.000059
C29	C	0.978918	-0.567231	0.000046
C30	C	0.985273	-0.205734	0.000082
C31	C	1.134101	0.107404	0.000082
C32	C	1.226397	0.109019	0.000081
C33	C	0.975984	0.265521	0.000053
C34	C	0.977600	0.357816	0.000042
N35	N	0.982099	0.113519	0.356190
N36	N	0.982098	0.113504	-0.356047
C37	C	1.038650	0.057001	0.428127
C38	C	1.038648	0.056991	0.572010
C39	C	0.925541	0.170024	0.572006
C40	C	0.925540	0.170030	0.428125
C41	C	1.103955	-0.008255	0.428131
C42	C	1.103953	-0.008265	0.572014
H43	H	0.542730	0.252317	0.000053
C44	C	0.593125	-0.042971	0.000013
C45	C	0.545298	-0.110300	-0.000020
C46	C	0.598450	-0.185387	-0.000094
H47	H	0.627387	-0.045641	0.079703
H48	H	0.627354	-0.045568	-0.079729
H49	H	0.511083	-0.107704	0.079713
H50	H	0.511038	-0.107657	-0.079705
H51	H	0.632678	-0.187984	-0.079836
H52	H	0.632709	-0.188049	0.079598
H53	H	0.566007	-0.231079	-0.000129
H54	H	1.118130	-0.483168	0.000060
H55	H	1.167719	0.005407	0.611069
C56	C	0.822607	-0.456354	0.000120
C57	C	0.837318	-0.543705	0.000160
C58	C	0.760896	-0.577308	0.000245
H59	H	0.791669	-0.438150	-0.079569
H60	H	0.791731	-0.438107	0.079863
H61	H	0.868181	-0.561944	-0.079575
H62	H	0.868243	-0.561932	0.079843
H63	H	0.730020	-0.559061	0.079988
H64	H	0.729963	-0.559098	-0.079445
H65	H	0.770866	-0.636578	0.000285
C66	C	1.184196	0.018170	0.368833
C67	C	1.193994	0.099093	0.413526
C68	C	1.267908	0.123466	0.358956
H69	H	1.181530	0.017351	0.271327
H70	H	1.230361	-0.019368	0.399030
H71	H	1.147841	0.136620	0.383321
H72	H	1.196675	0.099933	0.511025
H73	H	1.314073	0.085929	0.389153
H74	H	1.265235	0.122643	0.261451
H75	H	1.274569	0.178371	0.389282
C76	C	0.825610	-0.275456	0.000124
C77	C	0.758280	-0.323283	0.000156
C78	C	0.683194	-0.270131	0.000232
H79	H	0.822939	-0.241193	-0.079566
H80	H	0.823013	-0.241228	0.079866
H81	H	0.760876	-0.357496	-0.079578
H82	H	0.760924	-0.357544	0.079840
H83	H	0.680597	-0.235903	0.079974
H84	H	0.680531	-0.235871	-0.079459
H85	H	0.637502	-0.302573	0.000267
C86	C	1.141748	-0.316934	0.000002
C87	C	1.207084	-0.382171	-0.000040
C88	C	1.283694	-0.348928	-0.000132
H89	H	1.145617	-0.283533	0.079690
H90	H	1.145531	-0.283540	-0.079742
H91	H	1.203302	-0.415551	0.079696
H92	H	1.203242	-0.415578	-0.079722
H93	H	1.287477	-0.315534	-0.079876
H94	H	1.287554	-0.315527	0.079557
H95	H	1.328033	-0.393186	-0.000173
H96	H	0.385413	0.249550	0.000065
C97	C	0.864097	0.231479	0.350269
C98	C	0.814583	0.280980	0.444066
C99	C	0.757977	0.337605	0.372396
H100	H	0.829424	0.201654	0.294134
H101	H	0.893964	0.266152	0.294172
H102	H	0.784717	0.246311	0.500139
H103	H	0.849232	0.310824	0.500204
H104	H	0.787844	0.372277	0.316299
H105	H	0.723310	0.307772	0.316264
H106	H	0.724380	0.371202	0.436026
H107	H	0.879491	0.216033	0.630591
H108	H	1.090333	-0.072036	0.389083
C109	C	1.077795	-0.088639	0.631261
C110	C	1.060454	-0.141870	0.523848
C111	C	1.036378	-0.215924	0.578376
H112	H	1.029244	-0.076122	0.686201
H113	H	1.121791	-0.115290	0.686159
H114	H	1.016463	-0.115224	0.468973
H115	H	1.108994	-0.154410	0.468899
H116	H	1.080374	-0.242575	0.633273
H117	H	0.987829	-0.203399	0.633315
H118	H	1.024617	-0.252053	0.505505
H119	H	0.421454	-0.025285	0.000101
