data_functionalizedCrystal
_audit_creation_method	'MofGen! by Chris Wilmer'
_symmetry_space_group_name_H-M	'P1'
_symmetry_Int_Tables_number	1
_symmetry_cell_setting	triclinic
loop_
_symmetry_equiv_pos_as_xyz
  x,y,z
_cell_length_a	25.639239
_cell_length_b	13.032831
_cell_length_c	25.639233
_cell_angle_alpha	97.183139
_cell_angle_beta	89.981253
_cell_angle_gamma	97.157241
loop_
_atom_site_label
_atom_site_type_symbol
_atom_site_fract_x
_atom_site_fract_y
_atom_site_fract_z
Zn1	Zn	-0.309887	-1.597375	-0.396930
Zn2	Zn	-0.397296	-1.597222	-0.309484
Zn3	Zn	-0.298764	-1.422645	-0.298425
Zn4	Zn	-0.386164	-1.422535	-0.385809
O5	O	-0.348028	-1.509944	-0.347662
O6	O	-0.330795	-1.743586	-0.394612
O7	O	-0.384229	-1.574046	-0.234851
O8	O	-0.227082	-1.445933	-0.311518
O9	O	-0.395014	-1.743474	-0.330367
O10	O	-0.235253	-1.574306	-0.383889
O11	O	-0.311839	-1.445785	-0.226726
O12	O	-0.301045	-1.276398	-0.300734
O13	O	-0.376042	-1.445746	-0.460450
O14	O	-0.365257	-1.276318	-0.364934
O15	O	-0.320001	-1.574200	-0.468621
O16	O	-0.468977	-1.573939	-0.319583
O17	O	-0.460799	-1.445598	-0.375658
C18	C	-0.330737	-1.238442	-0.330428
C19	C	-0.323352	-1.122292	-0.323068
C20	C	-0.483859	-1.509768	-0.347627
C21	C	-0.541975	-1.509789	-0.347635
C22	C	-0.348021	-1.509978	-0.484037
C23	C	-0.348018	-1.509992	-0.542152
C24	C	-0.906604	-1.576946	-0.318532
C25	C	-0.961211	-1.576986	-0.318541
O26	O	-0.993064	-1.633903	-0.293758
N27	N	-0.984278	-1.510128	-0.347708
C28	C	-0.952736	-1.443232	-0.376872
O29	O	-0.977371	-1.386368	-0.401682
C30	C	-0.898131	-1.443197	-0.376865
C31	C	-0.875066	-1.510053	-0.347692
C32	C	-0.883539	-1.643797	-0.289361
C33	C	-0.828936	-1.643755	-0.289351
C34	C	-0.797398	-1.576862	-0.318511
C35	C	-0.820463	-1.510011	-0.347682
C36	C	-0.866590	-1.376308	-0.406031
C37	C	-0.811981	-1.376279	-0.406022
C38	C	-0.788916	-1.443135	-0.376849
C39	C	-0.734322	-1.443076	-0.376831
N40	N	-0.711254	-1.509934	-0.347664
C41	C	-0.742792	-1.576827	-0.318504
C42	C	-1.067412	-1.443311	-0.376885
C43	C	-1.122016	-1.443339	-0.376889
C44	C	-1.130487	-1.577095	-0.318559
C45	C	-1.075882	-1.577061	-0.318552
C46	C	-1.044345	-1.510169	-0.347718
C47	C	-0.628121	-1.576733	-0.318485
C48	C	-0.573513	-1.576682	-0.318475
C49	C	-0.565047	-1.442930	-0.376807
C50	C	-0.619650	-1.442977	-0.376815
C51	C	-0.651187	-1.509887	-0.347652
O52	O	-0.702436	-1.386191	-0.401603
O53	O	-0.718151	-1.633691	-0.293704
C54	C	-0.211668	-1.510149	-0.347710
C55	C	-0.153559	-1.510236	-0.347731
C56	C	-0.365387	-1.782507	-0.364964
C57	C	-0.372784	-1.898656	-0.372337
C58	C	-0.351882	-1.070496	-0.351503
C59	C	-0.344250	-0.950449	-0.343897
C60	C	-0.318743	-1.576963	-0.906781
C61	C	-0.318730	-1.576976	-0.961386
O62	O	-0.293896	-1.633832	-0.993244
N63	N	-0.347903	-1.510107	-0.984442
C64	C	-0.377087	-1.443214	-0.952890
O65	O	-0.401899	-1.386338	-0.977515
C66	C	-0.377097	-1.443197	-0.898285
C67	C	-0.347926	-1.510077	-0.875233
C68	C	-0.289575	-1.643837	-0.883728
C69	C	-0.289589	-1.643825	-0.829126
C70	C	-0.318772	-1.576939	-0.797578
C71	C	-0.347941	-1.510065	-0.820631
C72	C	-0.406278	-1.376299	-0.866733
C73	C	-0.406285	-1.376287	-0.812125
C74	C	-0.377115	-1.443167	-0.789073
C75	C	-0.377139	-1.443168	-0.734482
N76	N	-0.347966	-1.510036	-0.711425
C77	C	-0.318783	-1.576922	-0.742974
C78	C	-0.377062	-1.443255	-1.067563
C79	C	-0.377055	-1.443276	-1.122166
C80	C	-0.318697	-1.577037	-1.130659
C81	C	-0.318707	-1.577020	-1.076055
C82	C	-0.347889	-1.510123	-1.044507
C83	C	-0.318816	-1.576893	-0.628307
C84	C	-0.318835	-1.576878	-0.573700
C85	C	-0.377190	-1.443114	-0.565212
C86	C	-0.377174	-1.443132	-0.619814
C87	C	-0.347982	-1.510025	-0.651360
O88	O	-0.401958	-1.386337	-0.702590
O89	O	-0.293969	-1.633779	-0.718341
C90	C	-0.348001	-1.509971	-0.211821
C91	C	-0.347869	-1.510159	-0.153719
H92	H	-0.554736	-1.631123	-0.294717
H93	H	-0.381955	-1.115026	-0.381482
H94	H	-0.402858	-0.943181	-0.402318
Cl95	Cl	-0.252890	-1.727947	-0.923380
Cl96	Cl	-0.799950	-1.727822	-0.252683
Cl97	Cl	-0.667759	-1.660847	-0.281822
Cl98	Cl	-0.282115	-1.660983	-0.667956
Cl99	Cl	-1.027770	-1.359201	-0.413549
Cl100	Cl	-0.297810	-0.881711	-0.297615
H101	H	-0.293275	-1.077762	-0.293093
Cl102	Cl	-0.413874	-1.359030	-0.525542
Cl103	Cl	-0.282161	-1.660964	-0.544724
Cl104	Cl	-0.282033	-1.661098	-1.047080
Cl105	Cl	-0.923178	-1.727903	-0.252698
Cl106	Cl	-1.046892	-1.661112	-0.281877
Cl107	Cl	-0.895573	-1.292267	-0.442715
Cl108	Cl	-0.252911	-1.727900	-0.800154
Cl109	Cl	-0.772338	-1.292183	-0.442690
H110	H	-1.140790	-1.388889	-0.400639
H111	H	-0.294933	-1.631497	-1.156356
Cl112	Cl	-0.413737	-1.359211	-1.151141
H113	H	-1.156176	-1.631567	-0.294818
Cl114	Cl	-0.413756	-1.359156	-1.027908
Cl115	Cl	-0.442954	-1.292219	-0.895700
H116	H	-0.638430	-1.388541	-0.400572
Cl117	Cl	-0.525389	-1.358846	-0.413467
H118	H	-0.430043	-1.321799	-0.786440
H119	H	-0.400932	-1.388683	-0.638585
