data_functionalizedCrystal
_audit_creation_method	'MofGen! by Chris Wilmer'
_symmetry_space_group_name_H-M	'P1'
_symmetry_Int_Tables_number	1
_symmetry_cell_setting	triclinic
loop_
_symmetry_equiv_pos_as_xyz
  x,y,z
_cell_length_a	14.519709
_cell_length_b	14.519731
_cell_length_c	13.596369
_cell_angle_alpha	89.998627
_cell_angle_beta	89.999684
_cell_angle_gamma	83.684499
loop_
_atom_site_label
_atom_site_type_symbol
_atom_site_fract_x
_atom_site_fract_y
_atom_site_fract_z
O1	O	1.223879	0.120884	-0.081666
O2	O	1.557213	0.454217	0.251668
O3	O	1.890546	0.787551	0.585001
O4	O	0.955404	0.135120	-0.081696
O5	O	1.288737	0.468454	0.251637
O6	O	1.622070	0.801787	0.584971
O7	O	1.096749	-0.006235	-0.081671
O8	O	1.430083	0.327098	0.251662
O9	O	1.763416	0.660432	0.584996
O10	O	1.082533	0.262239	-0.081690
O11	O	1.415867	0.595573	0.251643
O12	O	1.749200	0.928906	0.584976
O13	O	1.096732	-0.006227	0.081912
O14	O	1.430065	0.327106	0.415245
O15	O	1.763399	0.660439	0.748579
O16	O	0.955386	0.135128	0.081887
O17	O	1.288719	0.468461	0.415220
O18	O	1.622053	0.801795	0.748554
O19	O	1.223862	0.120892	0.081917
O20	O	1.557195	0.454225	0.415251
O21	O	1.890529	0.787558	0.748584
Zn22	Zn	1.089621	0.128011	0.107874
Zn23	Zn	1.422955	0.461345	0.441208
Zn24	Zn	1.756288	0.794678	0.774541
Zn25	Zn	1.089644	0.128001	-0.107653
Zn26	Zn	1.422978	0.461334	0.225680
Zn27	Zn	1.756311	0.794668	0.559014
O28	O	1.082516	0.262247	0.081892
O29	O	1.415849	0.595580	0.415226
O30	O	1.749183	0.928914	0.748559
C31	C	0.921035	0.134461	0.000092
C32	C	1.254368	0.467794	0.333425
C33	C	1.587702	0.801127	0.666758
C34	C	0.818654	0.132473	0.000080
C35	C	1.151987	0.465806	0.333414
C36	C	1.485320	0.799139	0.666747
C37	C	0.443757	0.125153	0.000126
C38	C	0.777091	0.458486	0.333459
C39	C	1.110424	0.791820	0.666792
C40	C	0.548065	0.127186	0.000113
C41	C	0.881399	0.460519	0.333446
C42	C	1.214732	0.793852	0.666780
C43	C	0.631202	0.128813	0.000102
C44	C	0.964535	0.462146	0.333436
C45	C	1.297869	0.795479	0.666769
C46	C	0.735517	0.130846	0.000091
C47	C	1.068850	0.464179	0.333424
C48	C	1.402183	0.797512	0.666758
C49	C	1.096075	-0.040591	0.000121
C50	C	1.429408	0.292743	0.333454
C51	C	1.762741	0.626076	0.666787
C52	C	1.094079	-0.142971	0.000121
C53	C	1.427412	0.190363	0.333454
C54	C	1.760745	0.523696	0.666788
C55	C	1.092457	-0.226115	0.000119
C56	C	1.425790	0.107218	0.333452
C57	C	1.759123	0.440552	0.666785
C58	C	1.090430	-0.330424	0.000111
C59	C	1.423763	0.002910	0.333444
C60	C	1.757097	0.336243	0.666777
C61	C	1.088822	-0.413563	0.000104
C62	C	1.422155	-0.080229	0.333438
C63	C	1.755488	0.253104	0.666771
C64	C	1.086795	-0.517878	0.000098
C65	C	1.420129	-0.184545	0.333432
C66	C	1.753462	0.148789	0.666765
C67	C	1.258230	0.121551	0.000128
C68	C	1.591564	0.454885	0.333461
C69	C	1.924897	0.788218	0.666794
C70	C	1.360612	0.123539	0.000132
C71	C	1.693945	0.456873	0.333466
C72	C	2.027279	0.790206	0.666799
C73	C	1.083191	0.296603	0.000099
C74	C	1.416524	0.629936	0.333432
C75	C	1.749858	0.963269	0.666765
C76	C	1.085187	0.398983	0.000092
C77	C	1.418520	0.732316	0.333425
C78	C	1.751854	1.065649	0.666759
N79	N	1.089612	0.128018	0.254966
N80	N	1.422946	0.461351	0.588300
N81	N	1.756279	0.794684	0.921633
N82	N	1.089660	0.127987	-0.254745
N83	N	1.422994	0.461320	0.078588
N84	N	1.756327	0.794654	0.411922
C85	C	1.089617	0.128020	0.343964
C86	C	1.422950	0.461353	0.677298
C87	C	1.756284	0.794686	1.010631
C88	C	1.089626	0.128013	0.455616
C89	C	1.422959	0.461347	0.788949
C90	C	1.756293	0.794680	1.122282
C91	C	1.089638	0.128003	0.544606
C92	C	1.422971	0.461336	0.877939
C93	C	1.756305	0.794670	1.211273
C94	C	1.089648	0.127997	0.656265
C95	C	1.422982	0.461331	0.989598
C96	C	1.756315	0.794664	1.322931
