data_functionalizedCrystal
_audit_creation_method	'MofGen! by Chris Wilmer'
_symmetry_space_group_name_H-M	'P1'
_symmetry_Int_Tables_number	1
_symmetry_cell_setting	triclinic
loop_
_symmetry_equiv_pos_as_xyz
  x,y,z
_cell_length_a	16.992694
_cell_length_b	10.489741
_cell_length_c	15.455313
_cell_angle_alpha	92.692689
_cell_angle_beta	87.142206
_cell_angle_gamma	87.603699
loop_
_atom_site_label
_atom_site_type_symbol
_atom_site_fract_x
_atom_site_fract_y
_atom_site_fract_z
O1	O	1.045321	0.265388	-0.072021
O2	O	0.817021	0.262418	-0.072047
O3	O	0.936366	0.078758	-0.072028
O4	O	0.925976	0.449049	-0.072040
O5	O	0.929541	0.089214	0.072233
O6	O	0.810196	0.272874	0.072214
O7	O	1.038496	0.275845	0.072240
Cu8	Cu	0.923723	0.275314	0.085399
Cu9	Cu	0.931794	0.262948	-0.085206
O10	O	0.919151	0.459505	0.072221
C11	C	0.784374	0.263826	0.000081
C12	C	0.697266	0.252430	0.000071
C13	C	0.647647	0.362380	0.000068
C14	C	0.565799	0.351666	0.000081
C15	C	0.533573	0.231001	0.000089
C16	C	0.583198	0.121044	0.000095
C17	C	0.665044	0.131759	0.000089
C18	C	0.289723	0.186590	0.000114
C19	C	0.207871	0.175882	0.000117
C20	C	0.190477	0.406505	0.000105
C21	C	0.272325	0.417210	0.000094
C22	C	0.321944	0.307253	0.000104
N23	N	0.449911	0.220047	0.000099
N24	N	0.405603	0.318209	0.000100
C25	C	0.932168	0.036386	0.000102
C26	C	0.929821	-0.105448	0.000100
C27	C	0.853885	-0.180195	0.000085
C28	C	0.886392	-0.264041	0.071217
C29	C	0.893138	-0.274324	-0.071013
C30	C	0.962356	-0.187422	0.071291
C31	C	0.969095	-0.197700	-0.071003
C32	C	1.001656	-0.281512	0.000146
C33	C	1.071143	0.274436	0.000111
C34	C	1.158251	0.285832	0.000115
C35	C	0.923349	0.501877	0.000090
C36	C	0.925697	0.643710	0.000086
N37	N	0.918052	0.284011	0.205394
N38	N	0.937472	0.254242	-0.205201
C39	C	0.968772	0.206019	0.250796
C40	C	0.964490	0.212608	0.341603
C41	C	0.909492	0.297199	0.387007
C42	C	0.858766	0.375195	0.341598
C43	C	0.863045	0.368597	0.250793
C44	C	0.891025	0.325640	0.658585
C45	C	0.886752	0.332234	0.749397
C46	C	0.992475	0.169646	0.749396
C47	C	0.996751	0.163062	0.658589
C48	C	0.946023	0.241053	0.613188
N49	N	0.905116	0.303939	0.479826
N50	N	0.950396	0.234305	0.520370
H51	H	0.705444	0.042227	0.000090
H52	H	1.005790	0.149100	0.378569
H53	H	0.863844	-0.312443	-0.131155
N54	N	1.044283	0.089994	0.795785
N55	N	1.040459	0.095891	0.876861
H56	H	1.077049	0.039632	0.909625
N57	N	0.830552	0.418626	0.795769
N58	N	0.758507	0.408656	0.785644
H59	H	0.718817	0.469664	0.818395
H60	H	0.791448	-0.135971	0.000150
H61	H	0.849721	0.389146	0.621627
H62	H	0.673878	0.460638	0.000060
N63	N	0.842510	-0.300979	0.146647
N64	N	0.771633	-0.265059	0.159312
H65	H	0.740637	-0.291142	0.212581
H66	H	1.041535	0.094182	0.621623
H67	H	0.813982	0.444065	0.378571
N68	N	0.999057	-0.139757	0.146812
N69	N	1.006759	-0.022395	0.159021
H70	H	1.032677	0.011273	0.212357
N71	N	0.811227	0.448269	0.204426
N72	N	0.762123	0.523790	0.244973
H73	H	0.725522	0.580058	0.212228
H74	H	0.525401	0.441198	0.000077
H75	H	1.013560	0.137142	0.213834
N76	N	1.080048	-0.336679	0.000208
N77	N	1.122876	-0.309805	0.061339
H78	H	1.178241	-0.348766	0.061387
N79	N	0.305229	0.540476	0.000074
N80	N	0.260916	0.638637	0.000066
H81	H	0.284153	0.725696	0.000046
N82	N	1.012934	-0.160728	-0.146445
N83	N	0.990551	-0.190391	-0.220250
H84	H	1.021507	-0.164280	-0.273538
H85	H	0.150069	0.496026	0.000099
H86	H	0.330113	0.097055	0.000123
N87	N	0.174962	0.052612	0.000141
N88	N	0.187052	-0.018983	0.060959
H89	H	0.163809	-0.106038	0.060975
N90	N	0.550269	-0.002203	0.000113
N91	N	0.477193	-0.011756	0.000117
H92	H	0.453937	-0.098802	0.000128
