data_functionalizedCrystal
_audit_creation_method	'MofGen! by Chris Wilmer'
_symmetry_space_group_name_H-M	'P1'
_symmetry_Int_Tables_number	1
_symmetry_cell_setting	triclinic
loop_
_symmetry_equiv_pos_as_xyz
  x,y,z
_cell_length_a	11.792254
_cell_length_b	23.532407
_cell_length_c	10.868271
_cell_angle_alpha	90.006064
_cell_angle_beta	90.004308
_cell_angle_gamma	83.523637
loop_
_atom_site_label
_atom_site_type_symbol
_atom_site_fract_x
_atom_site_fract_y
_atom_site_fract_z
O1	O	1.505062	0.078086	0.102335
O2	O	1.174534	0.086123	0.102339
O3	O	1.349765	-0.000768	0.102314
O4	O	1.329831	0.164977	0.102360
O5	O	1.349750	-0.000765	-0.102330
O6	O	1.174518	0.086126	-0.102306
O7	O	1.505047	0.078089	-0.102310
Zn8	Zn	1.339780	0.082108	-0.134799
Zn9	Zn	1.339801	0.082104	0.134829
O10	O	1.329815	0.164980	-0.102285
C11	C	1.132247	0.085618	0.000017
C12	C	1.006270	0.084103	0.000017
C13	C	0.903963	0.082872	0.000022
C14	C	0.775612	0.081332	0.000023
C15	C	1.349250	-0.021986	-0.000011
C16	C	1.347724	-0.085212	-0.000021
C17	C	1.441849	-0.483755	0.000046
C18	C	1.440432	-0.543163	0.000055
O19	O	1.527687	-0.579389	0.000099
N20	N	1.336257	-0.566409	0.000055
C21	C	1.233493	-0.530243	0.000059
O22	O	1.144754	-0.555471	0.000061
C23	C	1.234912	-0.470836	0.000058
C24	C	1.339093	-0.447593	0.000046
C25	C	1.546023	-0.460512	0.000034
C26	C	1.547440	-0.401107	0.000022
C27	C	1.444684	-0.364946	0.000022
C28	C	1.340511	-0.388189	0.000034
C29	C	1.132149	-0.434671	0.000071
C30	C	1.133577	-0.375260	0.000071
C31	C	1.237759	-0.352017	0.000058
C32	C	1.239172	-0.292622	0.000022
N33	N	1.343347	-0.269376	0.000022
C34	C	1.446103	-0.305538	0.000022
C35	C	1.230521	-0.655003	0.000062
C36	C	1.229101	-0.714410	0.000054
C37	C	1.436040	-0.727326	0.000052
C38	C	1.437459	-0.667918	0.000052
C39	C	1.334696	-0.631757	0.000062
C40	C	1.449071	-0.180784	-0.000004
C41	C	1.450480	-0.121373	-0.000020
C42	C	1.243541	-0.108462	-0.000012
C43	C	1.242132	-0.167867	-0.000002
C44	C	1.344907	-0.204027	0.000006
O45	O	1.151962	-0.256362	-0.000017
O46	O	1.534827	-0.280302	0.000036
C47	C	1.547333	0.078594	0.000015
C48	C	1.673311	0.080109	0.000023
C49	C	1.330331	0.186197	0.000043
C50	C	1.331857	0.249423	0.000061
N51	N	1.339774	0.082110	-0.318814
C52	C	1.339783	0.082110	-0.430151
C53	C	1.339798	0.082105	-0.569829
N54	N	1.339816	0.082097	0.318843
H55	H	1.535320	-0.102453	-0.000034
H56	H	1.159880	-0.079009	-0.000017
H57	H	1.522293	-0.648999	0.000042
H58	H	1.157299	-0.186792	-0.000026
Cl59	Cl	1.101319	-0.609549	0.000061
Cl60	Cl	1.004380	-0.329803	0.000085
Cl61	Cl	1.678418	-0.371897	0.000041
Cl62	Cl	1.578276	-0.226233	0.000005
Cl63	Cl	1.675220	-0.505962	0.000032
H64	H	1.519709	-0.756780	0.000057
Cl65	Cl	1.001169	-0.463874	0.000095
Cl66	Cl	1.098124	-0.743621	0.000047
