data_functionalizedCrystal
_audit_creation_method	'MofGen! by Chris Wilmer'
_symmetry_space_group_name_H-M	'P1'
_symmetry_Int_Tables_number	1
_symmetry_cell_setting	triclinic
loop_
_symmetry_equiv_pos_as_xyz
  x,y,z
_cell_length_a	12.837942
_cell_length_b	11.026660
_cell_length_c	10.065875
_cell_angle_alpha	79.302224
_cell_angle_beta	99.723749
_cell_angle_gamma	101.706887
loop_
_atom_site_label
_atom_site_type_symbol
_atom_site_fract_x
_atom_site_fract_y
_atom_site_fract_z
O1	O	0.431456	1.677802	-0.113507
O2	O	0.380939	1.318657	-0.113507
O3	O	0.253810	1.490265	-0.113498
O4	O	0.558585	1.506195	-0.113515
O5	O	0.278176	1.457556	0.113489
O6	O	0.405306	1.285948	0.113481
O7	O	0.455822	1.645093	0.113480
Zn8	Zn	0.434433	1.460327	0.149519
Zn9	Zn	0.402329	1.503423	-0.149546
O10	O	0.582952	1.473486	0.113472
C11	C	0.226368	1.468530	-0.000006
C12	C	0.108296	1.452483	-0.000008
C13	C	0.383803	1.256014	-0.000013
C14	C	0.356021	1.118088	-0.000013
C15	C	0.452958	1.707737	-0.000017
C16	C	0.480739	1.845664	-0.000026
C17	C	-0.096667	1.645404	-0.000037
C18	C	-0.207605	1.630332	-0.000039
C19	C	-0.224522	1.407271	-0.000024
C20	C	-0.113583	1.422342	-0.000022
C21	C	-0.049659	1.541412	-0.000026
C22	C	0.061282	1.556481	-0.000014
C23	C	0.044363	1.333423	-0.000009
C24	C	-0.066576	1.318351	-0.000012
C25	C	0.610393	1.495221	-0.000024
C26	C	0.728464	1.511269	-0.000031
N27	N	0.456344	1.430925	0.353624
C28	C	0.432733	2.053151	-0.000018
C29	C	0.404016	1.910598	-0.000020
N30	N	0.380411	1.532834	-0.353650
C31	C	0.409944	1.493184	0.421405
C32	C	0.426817	1.470566	0.578572
H33	H	0.113329	1.653433	-0.000012
Br34	Br	0.513844	1.353795	0.675763
Br35	Br	0.543367	1.314159	0.450820
Br36	Br	0.293676	1.649915	0.549163
Br37	Br	-0.153340	1.156767	-0.000024
H38	H	-0.276589	1.310331	-0.000036
Br39	Br	-0.271400	1.771470	-0.000062
Br40	Br	-0.009903	1.806987	0.000000
Br41	Br	0.108166	1.192279	0.000029
Br42	Br	0.577636	2.136375	-0.000017
H43	H	0.317072	1.860667	-0.000051
Br44	Br	0.322587	1.609595	0.324210
Br45	Br	0.625650	1.928877	-0.000007
H46	H	0.269083	2.068152	-0.000043
