data_functionalizedCrystal
_audit_creation_method	'MofGen! by Chris Wilmer'
_symmetry_space_group_name_H-M	'P1'
_symmetry_Int_Tables_number	1
_symmetry_cell_setting	triclinic
loop_
_symmetry_equiv_pos_as_xyz
  x,y,z
_cell_length_a	17.699097
_cell_length_b	16.974813
_cell_length_c	16.776229
_cell_angle_alpha	86.338786
_cell_angle_beta	89.989262
_cell_angle_gamma	83.341721
loop_
_atom_site_label
_atom_site_type_symbol
_atom_site_fract_x
_atom_site_fract_y
_atom_site_fract_z
O1	O	1.004145	0.100042	-0.072807
O2	O	0.783777	0.113040	-0.073632
O3	O	0.900104	-0.008574	-0.065790
O4	O	0.887818	0.221656	-0.080649
O5	O	0.900088	-0.008582	0.066787
O6	O	0.783762	0.113033	0.058945
O7	O	1.004129	0.100035	0.059770
Zn8	Zn	0.893943	0.106533	0.080407
Zn9	Zn	0.893963	0.106542	-0.094269
O10	O	0.887802	0.221649	0.051928
C11	C	0.755572	0.112569	-0.007312
C12	C	0.671554	0.111166	-0.007216
C13	C	0.155837	0.102573	-0.078961
C14	C	0.234782	0.103886	-0.079042
C15	C	0.274241	0.104539	-0.006813
C16	C	0.234750	0.103872	0.065501
C17	C	0.155808	0.102554	0.065581
C18	C	0.553118	0.109187	0.065179
C19	C	0.632066	0.110507	0.065093
C20	C	0.632093	0.110519	-0.079444
C21	C	0.553150	0.109200	-0.079364
C22	C	0.513668	0.108529	-0.007050
C23	C	0.428067	0.107105	-0.006963
C24	C	0.359839	0.105969	-0.006900
C25	C	0.899628	-0.038035	0.002398
C26	C	0.898226	-0.125810	0.008058
C27	C	0.897578	-0.167038	-0.061550
C28	C	0.896256	-0.249511	-0.056229
C29	C	0.895587	-0.290754	0.018700
C30	C	0.896234	-0.249520	0.088313
C31	C	0.897550	-0.167048	0.082992
C32	C	0.891643	-0.537409	0.042365
C33	C	0.890328	-0.619887	0.047681
C34	C	0.890349	-0.619872	-0.096862
C35	C	0.891670	-0.537399	-0.102177
C36	C	0.892313	-0.496171	-0.032564
N37	N	0.894238	-0.375055	0.024141
N38	N	0.893656	-0.411871	-0.038005
C39	C	1.032334	0.100506	-0.006552
C40	C	1.116353	0.101908	-0.006653
C41	C	0.888278	0.251110	-0.016261
C42	C	0.889680	0.338885	-0.021927
N43	N	0.893935	0.106525	0.199619
N44	N	0.893978	0.106543	-0.213480
C45	C	0.945460	0.052697	0.244807
C46	C	0.945464	0.052696	0.328259
C47	C	0.893946	0.106528	0.366521
C48	C	0.842415	0.160360	0.321327
C49	C	0.842408	0.160356	0.237877
C50	C	0.842443	0.160375	0.657874
C51	C	0.842455	0.160376	0.741330
C52	C	0.945498	0.052715	0.748256
C53	C	0.945491	0.052711	0.664805
C54	C	0.893958	0.106540	0.619619
C55	C	0.893953	0.106539	0.529130
C56	C	0.893954	0.106534	0.457008
H57	H	0.266884	0.104399	0.124311
H58	H	0.123716	0.102047	-0.137779
H59	H	0.520983	0.108629	0.124063
O60	O	0.895552	-0.289450	-0.123911
C61	C	0.829664	-0.305615	-0.246423
C62	C	0.830362	-0.260315	-0.169807
H63	H	0.776955	-0.282088	-0.283543
H64	H	0.882846	-0.296692	-0.282664
H65	H	0.828651	-0.371649	-0.229750
H66	H	0.831348	-0.194267	-0.186409
H67	H	0.777183	-0.269305	-0.133586
H68	H	0.987415	0.008863	0.213659
H69	H	0.800465	0.204189	0.352485
H70	H	0.889824	-0.653448	-0.153537
H71	H	0.892181	-0.503854	0.099049
O72	O	0.889822	-0.660001	0.120459
C73	C	0.953869	-0.762218	0.210912
C74	C	0.954534	-0.716842	0.128479
H75	H	1.006174	-0.808195	0.217416
H76	H	0.954607	-0.718620	0.259780
H77	H	0.900294	-0.793468	0.216545
H78	H	1.008099	-0.685589	0.122768
H79	H	0.953756	-0.760476	0.079651
O80	O	0.898115	-0.126881	-0.134297
C81	C	0.834021	-0.024734	-0.224792
C82	C	0.833339	-0.070130	-0.142370
H83	H	0.781646	0.021148	-0.231352
H84	H	0.887538	0.006608	-0.230462
H85	H	0.833359	-0.068397	-0.273606
H86	H	0.833972	-0.026520	-0.093507
H87	H	0.779825	-0.101485	-0.136769
O88	O	0.892280	-0.497454	-0.175028
C89	C	0.892205	-0.506151	-0.317833
C90	C	0.891491	-0.551483	-0.235381
H91	H	0.891584	-0.549816	-0.366650
H92	H	0.839868	-0.460224	-0.324461
H93	H	0.945752	-0.474851	-0.323424
H94	H	0.837980	-0.582831	-0.229734
H95	H	0.943864	-0.597365	-0.228789
O96	O	0.995597	0.000386	0.372032
C97	C	1.097794	-0.106415	0.370096
C98	C	1.041065	-0.047205	0.320427
H99	H	1.134559	-0.144919	0.328395
H100	H	1.135614	-0.072352	0.406926
H101	H	1.065163	-0.145846	0.411750
H102	H	1.073634	-0.007759	0.278728
H103	H	1.003247	-0.081318	0.283650
H104	H	0.895685	-0.283107	0.149323
O105	O	0.898204	-0.127122	0.150689
C106	C	0.897974	-0.135827	0.294616
C107	C	0.897261	-0.181143	0.218012
H108	H	0.897196	-0.179481	0.349067
H109	H	0.951537	-0.104565	0.296276
H110	H	0.845655	-0.089868	0.295211
H111	H	0.949543	-0.227140	0.217366
H112	H	0.843663	-0.212350	0.216382
O113	O	0.995564	0.000342	0.627767
C114	C	1.097799	-0.106420	0.643444
C115	C	1.041123	-0.047164	0.685491
H116	H	1.134659	-0.144833	0.690095
H117	H	1.065201	-0.145936	0.606963
H118	H	1.135532	-0.072317	0.602135
H119	H	1.003376	-0.081203	0.726839
H120	H	1.073769	-0.007649	0.721922
O121	O	0.792330	0.212724	0.194097
C122	C	0.690092	0.319482	0.196031
C123	C	0.746780	0.260232	0.245706
H124	H	0.653239	0.357896	0.237737
H125	H	0.722680	0.358995	0.154417
H126	H	0.652353	0.285372	0.159158
H127	H	0.784533	0.294277	0.282626
H128	H	0.714145	0.220719	0.287269
H129	H	0.266928	0.104422	-0.137923
O130	O	0.792330	0.212697	0.778374
C131	C	0.690140	0.319507	0.762702
C132	C	0.746849	0.260290	0.720648
H133	H	0.653364	0.358012	0.716048
H134	H	0.652328	0.285451	0.803965
H135	H	0.722787	0.358937	0.799233
H136	H	0.714264	0.220845	0.684075
H137	H	0.784660	0.294395	0.679432
O138	O	0.792497	0.212706	0.613900
C139	C	0.776268	0.320760	0.512755
C140	C	0.832914	0.261519	0.562490
H141	H	0.808922	0.360251	0.471190
H142	H	0.738494	0.286723	0.475842
H143	H	0.739443	0.359200	0.554462
H144	H	0.869789	0.223064	0.520842
H145	H	0.870634	0.295604	0.599412
O146	O	0.514943	0.108532	-0.149596
C147	C	0.523299	0.108722	-0.292974
C148	C	0.566662	0.109467	-0.213492
H149	H	0.565092	0.109495	-0.344656
H150	H	0.493347	0.052778	-0.293031
H151	H	0.479337	0.163405	-0.300075
H152	H	0.610660	0.054822	-0.206340
H153	H	0.596561	0.165447	-0.213471
H154	H	0.664250	0.111062	-0.138326
H155	H	0.664191	0.111039	0.123914
O156	O	0.117562	0.101947	0.135891
C157	C	0.125868	0.102023	0.279253
C158	C	0.169270	0.102736	0.199681
H159	H	0.167658	0.102644	0.330849
H160	H	0.081942	0.156731	0.279391
H161	H	0.095871	0.046102	0.286426
H162	H	0.199313	0.158619	0.192457
H163	H	0.213154	0.047991	0.199579
H164	H	0.987457	0.008883	0.785056
