data_functionalizedCrystal
_audit_creation_method	'MofGen! by Chris Wilmer'
_symmetry_space_group_name_H-M	'P1'
_symmetry_Int_Tables_number	1
_symmetry_cell_setting	triclinic
loop_
_symmetry_equiv_pos_as_xyz
  x,y,z
_cell_length_a	6.394989
_cell_length_b	8.634740
_cell_length_c	7.681481
_cell_angle_alpha	96.618670
_cell_angle_beta	95.906187
_cell_angle_gamma	86.465991
loop_
_atom_site_label
_atom_site_type_symbol
_atom_site_fract_x
_atom_site_fract_y
_atom_site_fract_z
O1	O	-0.700591	2.045098	-0.146410
O2	O	-0.643262	1.595031	-0.146414
O3	O	-0.369148	1.826453	-0.146413
O4	O	-0.974705	1.813676	-0.146410
O5	O	-0.335320	1.854935	0.146445
O6	O	-0.609433	1.623514	0.146444
O7	O	-0.666763	2.073580	0.146448
Zn8	Zn	-0.632727	1.853069	0.192944
Zn9	Zn	-0.677298	1.815542	-0.192909
O10	O	-0.940877	1.842159	0.146447
C11	C	-0.613360	1.551570	0.000015
C12	C	-0.574637	1.379634	0.000013
N13	N	-0.602310	1.878692	0.456278
C14	C	-0.273905	1.838167	0.000009
C15	C	-0.036116	1.830447	0.000008
C16	C	-0.696665	2.117041	0.000016
C17	C	-0.735389	2.288976	0.000006
N18	N	-0.707701	1.789932	-0.456243
H19	H	-0.902638	1.342898	0.000023
H20	H	-0.815271	1.699326	0.468559
H21	H	-0.494750	1.969315	0.531484
H22	H	-0.407381	1.325701	-0.000038
