data_functionalizedCrystal
_audit_creation_method	'MofGen! by Chris Wilmer'
_symmetry_space_group_name_H-M	'P1'
_symmetry_Int_Tables_number	1
_symmetry_cell_setting	triclinic
loop_
_symmetry_equiv_pos_as_xyz
  x,y,z
_cell_length_a	15.944551
_cell_length_b	16.992695
_cell_length_c	16.053802
_cell_angle_alpha	87.258926
_cell_angle_beta	87.414388
_cell_angle_gamma	92.916520
loop_
_atom_site_label
_atom_site_type_symbol
_atom_site_fract_x
_atom_site_fract_y
_atom_site_fract_z
O1	O	1.124632	-0.097822	-0.069512
O2	O	1.624632	0.402178	0.430488
O3	O	0.880918	-0.110291	-0.069496
O4	O	1.380918	0.389709	0.430504
O5	O	1.001798	0.010086	-0.069497
O6	O	1.501798	0.510086	0.430503
O7	O	1.003753	-0.218199	-0.069511
O8	O	1.503753	0.281801	0.430489
O9	O	0.995143	0.003487	0.069362
O10	O	1.495143	0.503487	0.569362
O11	O	0.874263	-0.116889	0.069363
O12	O	1.374263	0.383111	0.569363
O13	O	1.117977	-0.104421	0.069347
O14	O	1.617977	0.395579	0.569347
Zn15	Zn	0.995063	-0.111703	0.091402
Zn16	Zn	1.495063	0.388297	0.591402
Zn17	Zn	1.003832	-0.103009	-0.091551
Zn18	Zn	1.503832	0.396991	0.408449
O19	O	0.997097	-0.224797	0.069348
O20	O	1.497097	0.275203	0.569348
C21	C	0.995957	0.035999	-0.000068
C22	C	1.495957	0.535999	0.499932
C23	C	0.988456	0.123044	-0.000067
C24	C	1.488456	0.623044	0.499933
C25	C	0.846262	-0.113073	-0.000064
C26	C	1.346262	0.386927	0.499936
C27	C	0.752911	-0.111521	-0.000058
C28	C	1.252911	0.388479	0.499942
C29	C	1.152633	-0.101639	-0.000086
C30	C	1.652633	0.398361	0.499914
C31	C	1.245984	-0.103190	-0.000098
C32	C	1.745984	0.396810	0.499902
C33	C	1.466093	-0.181515	-0.000084
C34	C	1.966093	0.318485	0.499916
C35	C	1.527955	-0.141890	-0.068546
C36	C	2.027955	0.358110	0.431454
C37	C	1.416898	-0.105998	-0.000086
C38	C	1.916898	0.394002	0.499914
C39	C	1.521370	-0.148378	0.068358
C40	C	2.021370	0.351622	0.568358
C41	C	1.581992	-0.108716	-0.000071
C42	C	2.081992	0.391284	0.499929
C43	C	1.477533	-0.066350	-0.068605
C44	C	1.977533	0.433650	0.431395
C45	C	1.470939	-0.072851	0.068361
C46	C	1.970939	0.427149	0.568361
C47	C	1.532781	-0.033171	-0.000118
C48	C	2.032781	0.466829	0.499882
C49	C	1.321791	-0.104434	-0.000096
C50	C	1.821791	0.395566	0.499904
C51	C	1.677097	-0.110273	-0.000068
C52	C	2.177097	0.389727	0.499932
C53	C	1.002939	-0.250711	-0.000083
C54	C	1.502939	0.249289	0.499917
C55	C	1.010439	-0.337755	-0.000089
C56	C	1.510439	0.162245	0.499911
N57	N	0.989085	-0.117636	0.216262
N58	N	1.489085	0.382364	0.716262
C59	C	1.060822	0.173281	-0.000071
C60	C	1.560822	0.673281	0.499929
C61	C	1.053770	0.255068	-0.000079
C62	C	1.553770	0.755068	0.499921
C63	C	0.974352	0.286617	-0.000076
C64	C	1.474352	0.786617	0.499924
C65	C	0.901982	0.236373	-0.000075
C66	C	1.401982	0.736373	0.499925
C67	C	0.909034	0.154588	-0.000074
C68	C	1.409034	0.654588	0.499926
C69	C	0.945121	0.530216	-0.000086
C70	C	1.445121	1.030216	0.499914
C71	C	0.938074	0.612008	-0.000085
C72	C	1.438074	1.112008	0.499915
C73	C	1.089863	0.630697	-0.000090
C74	C	1.589863	1.130697	0.499910
C75	C	1.096908	0.548909	-0.000084
C76	C	1.596908	1.048909	0.499916
C77	C	1.024538	0.498673	-0.000087
C78	C	1.524538	0.998673	0.499913
N79	N	0.967142	0.370216	-0.000081
N80	N	1.467142	0.870216	0.499919
N81	N	1.031749	0.415076	-0.000088
N82	N	1.531749	0.915076	0.499912
N83	N	1.009816	-0.097070	-0.216411
N84	N	1.509816	0.402930	0.283589
C85	C	1.040541	-0.066433	0.259956
C86	C	1.540541	0.433567	0.759956
C87	C	1.036367	-0.070591	0.347362
C88	C	1.536367	0.429409	0.847362
C89	C	0.980741	-0.125955	0.391074
C90	C	1.480741	0.374045	0.891074
C91	C	0.929280	-0.177160	0.347375
C92	C	1.429280	0.322840	0.847375
C93	C	0.933450	-0.172998	0.259970
C94	C	1.433450	0.327002	0.759970
C95	C	0.962525	-0.144112	0.652484
C96	C	1.462525	0.355888	1.152484
C97	C	0.958361	-0.148272	0.739895
C98	C	1.458361	0.351728	1.239895
C99	C	1.065447	-0.041702	0.739877
C100	C	1.565447	0.458298	1.239877
C101	C	1.069616	-0.037548	0.652470
C102	C	1.569616	0.462452	1.152470
C103	C	1.018151	-0.088750	0.608778
C104	C	1.518151	0.411250	1.108778
N105	N	0.976476	-0.130208	0.480418
N106	N	1.476476	0.369792	0.980418
N107	N	1.022413	-0.084493	0.519436
N108	N	1.522413	0.415507	1.019436
H109	H	1.436994	-0.244195	-0.000155
H110	H	1.936994	0.255805	0.499845
H111	H	1.114911	0.007534	0.616882
H112	H	1.614911	0.507534	1.116882
H113	H	0.913061	-0.193359	0.775482
H114	H	1.413061	0.306641	1.275482
H115	H	1.107346	-0.000015	0.775459
H116	H	1.607346	0.499985	1.275459
H117	H	1.561728	0.029570	-0.000148
H118	H	2.061728	0.529570	0.499852
N119	N	0.907015	-0.199330	0.605366
N120	N	1.407015	0.300670	1.105366
H121	H	0.871146	-0.235034	0.646322
H122	H	1.371146	0.264966	1.146322
H123	H	0.943219	-0.232290	0.569079
H124	H	1.443219	0.267710	1.069079
N125	N	1.146482	0.139259	-0.000072
N126	N	1.646482	0.639259	0.499928
H127	H	1.139972	0.079825	-0.000066
H128	H	1.639972	0.579825	0.499934
H129	H	1.175917	0.155198	0.051405
H130	H	1.675917	0.655198	0.551405
N131	N	1.131820	0.309253	-0.000078
N132	N	1.631820	0.809253	0.499922
H133	H	1.183200	0.276856	-0.000072
H134	H	1.683200	0.776856	0.499928
H135	H	1.129725	0.341149	0.051399
H136	H	1.629725	0.841149	0.551399
N137	N	0.869276	-0.236869	0.394516
N138	N	1.369276	0.263131	0.894516
H139	H	0.874443	-0.231739	0.456518
H140	H	1.374443	0.268261	0.956518
H141	H	0.883437	-0.291773	0.379223
H142	H	1.383437	0.208227	0.879223
N143	N	1.547144	-0.194346	0.145023
N144	N	2.047144	0.305654	0.645023
H145	H	1.495314	-0.214603	0.179547
H146	H	1.995314	0.285397	0.679547
H147	H	1.583078	-0.158816	0.179270
H148	H	2.083078	0.341184	0.679270
H149	H	1.161579	0.523229	-0.000086
H150	H	1.661579	1.023229	0.499914
H151	H	1.148782	0.671608	-0.000089
H152	H	1.648782	1.171608	0.499911
H153	H	0.891548	-0.214691	0.224395
H154	H	1.391548	0.285309	0.724395
H155	H	1.552986	-0.171082	-0.126427
H156	H	2.052986	0.328918	0.373573
H157	H	1.458182	-0.031685	-0.126551
H158	H	1.958182	0.468315	0.373449
H159	H	0.873398	0.637690	-0.000070
H160	H	1.373398	1.137690	0.499930
H161	H	0.886192	0.489324	-0.000088
H162	H	1.386192	0.989324	0.499912
H163	H	1.445892	-0.043689	0.126247
H164	H	1.945892	0.456311	0.626247
H165	H	0.837318	0.262067	-0.000078
H166	H	1.337318	0.762067	0.499922
H167	H	0.850107	0.113685	-0.000071
H168	H	1.350107	0.613685	0.499929
H169	H	1.085841	-0.021353	0.224371
H170	H	1.585841	0.478647	0.724371
H171	H	1.078266	-0.028898	0.382937
H172	H	1.578266	0.471102	0.882937
