data_functionalizedCrystal
_audit_creation_method	'MofGen! by Chris Wilmer'
_symmetry_space_group_name_H-M	'P1'
_symmetry_Int_Tables_number	1
_symmetry_cell_setting	triclinic
loop_
_symmetry_equiv_pos_as_xyz
  x,y,z
_cell_length_a	14.421503
_cell_length_b	14.519709
_cell_length_c	14.519709
_cell_angle_alpha	83.680145
_cell_angle_beta	90.010234
_cell_angle_gamma	89.988844
loop_
_atom_site_label
_atom_site_type_symbol
_atom_site_fract_x
_atom_site_fract_y
_atom_site_fract_z
O1	O	-0.076993	-1.223853	-0.120899
O2	O	-0.077022	-0.955376	-0.135135
O3	O	-0.076998	-1.096733	0.006221
O4	O	-0.077016	-1.082497	-0.262256
O5	O	0.077225	-1.096749	0.006241
O6	O	0.077202	-0.955393	-0.135116
O7	O	0.077230	-1.223870	-0.120879
Cu8	Cu	0.091298	-1.089633	-0.127996
Cu9	Cu	-0.091089	-1.089613	-0.128019
O10	O	0.077207	-1.082513	-0.262236
C11	C	0.000087	-0.921025	-0.134462
C12	C	0.000076	-0.818643	-0.132474
N13	N	-0.219370	-1.089600	-0.128029
C14	C	0.000114	-1.096078	0.040591
C15	C	0.000114	-1.094090	0.142972
C16	C	-0.469029	-1.024113	-0.193260
C17	C	-0.530831	-1.006291	-0.109831
C18	C	-0.408532	-1.089618	-0.128010
C19	C	-0.530824	-1.107414	-0.211421
C20	C	-0.591253	-1.089632	-0.127999
C21	C	-0.468973	-1.071754	-0.044538
C22	C	-0.468961	-1.172913	-0.146183
C23	C	-0.530734	-1.155127	-0.062694
C24	C	-0.303271	-1.089607	-0.128017
C25	C	-0.696512	-1.089644	-0.127982
N26	N	0.219579	-1.089653	-0.127979
C27	C	0.000120	-1.258221	-0.121553
C28	C	0.000125	-1.360602	-0.123541
C29	C	0.000119	-0.443748	-0.125154
C30	C	0.000106	-0.548056	-0.127187
C31	C	0.000096	-0.631192	-0.128814
C32	C	0.000086	-0.735507	-0.130847
C33	C	0.000093	-1.083168	-0.296605
C34	C	0.000087	-1.085156	-0.398987
C35	C	0.000089	-1.086770	0.517868
C36	C	0.000096	-1.088803	0.413560
C37	C	0.000102	-1.090430	0.330423
C38	C	0.000108	-1.092463	0.226109
H39	H	-0.441934	-0.968675	-0.248382
C40	C	-0.567556	-0.911148	-0.089048
H41	H	-0.603777	-0.918502	-0.034084
H42	H	-0.604746	-0.885100	-0.139312
H43	H	-0.516792	-0.871146	-0.080912
H44	H	-0.557657	-1.210532	-0.007448
H45	H	-0.557976	-1.122471	-0.281968
C46	C	-0.432432	-1.051308	0.050781
H47	H	-0.366559	-1.051395	0.050184
H48	H	-0.454052	-1.097569	0.097156
H49	H	-0.454131	-0.992330	0.063795
C50	C	-0.432209	-1.268030	-0.167000
H51	H	-0.453348	-1.280576	-0.226324
H52	H	-0.454254	-1.314689	-0.121251
H53	H	-0.366342	-1.267496	-0.166290
