data_functionalizedCrystal
_audit_creation_method	'MofGen! by Chris Wilmer'
_symmetry_space_group_name_H-M	'P1'
_symmetry_Int_Tables_number	1
_symmetry_cell_setting	triclinic
loop_
_symmetry_equiv_pos_as_xyz
  x,y,z
_cell_length_a	14.971482
_cell_length_b	15.995343
_cell_length_c	14.048226
_cell_angle_alpha	89.988845
_cell_angle_beta	89.994098
_cell_angle_gamma	83.550896
loop_
_atom_site_label
_atom_site_type_symbol
_atom_site_fract_x
_atom_site_fract_y
_atom_site_fract_z
O1	O	1.186821	0.109102	-0.079159
O2	O	0.926405	0.122172	-0.079164
O3	O	1.063735	-0.006244	-0.079144
O4	O	1.049491	0.237518	-0.079179
O5	O	1.063719	-0.006252	0.079178
O6	O	0.926389	0.122164	0.079157
O7	O	1.186805	0.109094	0.079163
Zn8	Zn	1.056594	0.115628	0.104297
Zn9	Zn	1.056616	0.115638	-0.104298
O10	O	1.049474	0.237510	0.079142
C11	C	0.893073	0.121584	-0.000004
C12	C	0.793778	0.119834	-0.000006
C13	C	0.747125	0.119006	0.086296
C14	C	0.653829	0.117348	0.086298
C15	C	0.607186	0.116525	-0.000004
C16	C	0.653845	0.117351	-0.086313
C17	C	0.747141	0.119003	-0.086313
C18	C	0.459387	0.113910	-0.086306
C19	C	0.366085	0.112260	-0.086306
C20	C	0.366075	0.112256	0.086305
C21	C	0.459371	0.113908	0.086304
C22	C	0.506024	0.114735	-0.000005
C23	C	1.063140	-0.037443	0.000020
C24	C	1.061378	-0.130396	0.000027
C25	C	1.058180	-0.300585	0.000005
C26	C	0.959048	-0.324029	0.000001
C27	C	0.957183	-0.420709	-0.000369
C28	C	1.055030	-0.468148	-0.000015
C29	C	1.104884	-0.438996	-0.090241
C30	C	1.106060	-0.342202	-0.090306
C31	C	1.107493	-0.342314	0.089741
C32	C	1.103833	-0.438812	0.090916
C33	C	1.053255	-0.562848	-0.000030
C34	C	1.059958	-0.205886	0.000013
C35	C	1.220137	0.109682	0.000001
C36	C	1.319432	0.111432	-0.000004
C37	C	1.050070	0.268710	-0.000023
C38	C	1.051832	0.361662	-0.000037
N39	N	1.056586	0.115621	0.246657
N40	N	1.056631	0.115639	-0.246659
C41	C	1.117415	0.058782	0.296485
C42	C	1.117421	0.058781	0.396142
C43	C	1.056601	0.115625	0.445971
C44	C	0.995766	0.172466	0.396137
C45	C	0.995756	0.172462	0.296481
C46	C	0.995792	0.172473	0.603851
C47	C	0.995802	0.172478	0.703514
C48	C	1.117456	0.058792	0.703512
C49	C	1.117447	0.058787	0.603857
C50	C	1.056612	0.115630	0.554029
H51	H	0.328111	0.111591	-0.156581
H52	H	0.946241	0.218747	0.436713
H53	H	0.918150	-0.439774	0.064290
Cl54	Cl	0.518035	0.114949	-0.194811
H55	H	0.946222	0.218745	0.255912
Cl56	Cl	1.220145	-0.320564	0.091093
H57	H	1.166952	0.012498	0.436711
Cl58	Cl	1.059192	-0.298732	0.195366
Cl59	Cl	0.919310	0.243933	0.541215
Cl60	Cl	0.899706	-0.280854	0.099881
H61	H	0.946276	0.218765	0.744079
H62	H	1.175231	-0.471691	0.096637
H63	H	1.166974	0.012505	0.563286
Cl64	Cl	1.193934	-0.012666	0.766156
Cl65	Cl	0.595181	0.116322	0.194797
Cl66	Cl	0.805752	0.120046	0.194797
Cl67	Cl	1.193882	-0.012679	0.233854
H68	H	0.328086	0.111583	0.156581
H69	H	1.176897	-0.470770	-0.093343
Cl70	Cl	0.897241	-0.449227	-0.100822
H71	H	0.615862	0.116675	-0.156581
H72	H	1.178757	-0.327556	-0.094150
Cl73	Cl	1.047783	-0.467533	0.193978
H74	H	0.497344	0.114583	0.156579
Cl75	Cl	0.900698	-0.279328	-0.099749
Cl76	Cl	0.805791	0.120040	-0.194812
H77	H	1.071951	-0.315441	-0.158011
H78	H	1.070691	-0.459111	-0.157647
