data_functionalizedCrystal
_audit_creation_method	'MofGen! by Chris Wilmer'
_symmetry_space_group_name_H-M	'P1'
_symmetry_Int_Tables_number	1
_symmetry_cell_setting	triclinic
loop_
_symmetry_equiv_pos_as_xyz
  x,y,z
_cell_length_a	14.908783
_cell_length_b	12.759400
_cell_length_c	14.908854
_cell_angle_alpha	86.675560
_cell_angle_beta	90.167510
_cell_angle_gamma	93.304272
loop_
_atom_site_label
_atom_site_type_symbol
_atom_site_fract_x
_atom_site_fract_y
_atom_site_fract_z
Zn1	Zn	1.345365	-0.288449	-0.587862
Zn2	Zn	1.353960	-0.473683	-0.437509
Zn3	Zn	1.203675	-0.308688	-0.428830
Zn4	Zn	1.194990	-0.474765	-0.579134
O5	O	1.274497	-0.386396	-0.508334
O6	O	1.472332	-0.304098	-0.575202
O7	O	1.341256	-0.459814	-0.310532
O8	O	1.222508	-0.158978	-0.449946
O9	O	1.478647	-0.440189	-0.464738
O10	O	1.326607	-0.144108	-0.566786
O11	O	1.230842	-0.338592	-0.304155
O12	O	1.076696	-0.339641	-0.441484
O13	O	1.207706	-0.442032	-0.706118
O14	O	1.070315	-0.461657	-0.551911
O15	O	1.318186	-0.305146	-0.712530
O16	O	1.332835	-0.620851	-0.456275
O17	O	1.216040	-0.621646	-0.560327
C18	C	1.040880	-0.402963	-0.494809
C19	C	0.940936	-0.410075	-0.489045
C20	C	0.746543	-0.281899	-0.593414
C21	C	0.652637	-0.288577	-0.588001
C22	C	0.659216	-0.430103	-0.472801
C23	C	0.753122	-0.423425	-0.478214
C24	C	0.796782	-0.349322	-0.538524
C25	C	0.890690	-0.342649	-0.543941
C26	C	0.897267	-0.484169	-0.428737
C27	C	0.803361	-0.490847	-0.423324
C28	C	1.274451	-0.659368	-0.508317
C29	C	1.274512	-0.776138	-0.508344
C30	C	1.328685	-0.823177	-0.569228
C31	C	1.328725	-0.932897	-0.569253
C32	C	1.220418	-0.948530	-0.447501
C33	C	1.220373	-0.838812	-0.447482
C34	C	1.382823	-0.760503	-0.630091
C35	C	1.437001	-0.807541	-0.690979
C36	C	1.437042	-0.917261	-0.691003
C37	C	1.382904	-0.979943	-0.630139
C38	C	1.509027	-0.369765	-0.521911
C39	C	1.608970	-0.362678	-0.527697
C40	C	1.261019	-0.371452	-0.742861
C41	C	1.255275	-0.365084	-0.842803
C42	C	1.274567	-0.112355	-0.508372
C43	C	1.274597	0.004424	-0.508388
C44	C	1.359476	-0.479341	-1.037247
C45	C	1.354082	-0.473360	-1.131151
C46	C	1.239098	-0.347138	-1.124518
C47	C	1.244492	-0.353118	-1.030614
C48	C	1.304682	-0.419223	-0.986982
C49	C	1.310071	-0.425208	-0.893075
C50	C	1.195092	-0.298981	-0.886444
C51	C	1.189698	-0.293000	-0.980349
C52	C	1.287976	-0.401202	-0.274721
C53	C	1.293894	-0.407262	-0.174790
H54	H	0.623652	-0.490423	-0.423690
H55	H	0.611736	-0.233672	-0.632696
C56	C	0.995588	-0.193033	-0.562721
C57	C	0.938686	-0.261197	-0.610230
H58	H	1.025219	-0.142750	-0.603648
H59	H	0.961196	-0.157880	-0.521496
H60	H	1.038947	-0.232244	-0.530811
H61	H	0.895322	-0.221987	-0.642135
H62	H	0.973080	-0.296353	-0.651471
C63	C	0.928676	-0.662753	-0.386355
C64	C	0.952491	-0.558289	-0.368396
H65	H	0.962774	-0.708510	-0.349109
H66	H	0.866508	-0.677323	-0.374496
H67	H	0.940611	-0.673275	-0.447638
H68	H	0.940550	-0.547764	-0.307114
H69	H	1.014674	-0.543714	-0.380248
H70	H	1.140695	-0.239177	-1.015887
H71	H	1.190099	-0.293312	-1.160060
H72	H	0.767800	-0.551177	-0.374219
C73	C	1.100257	-1.081422	-0.427933
C74	C	1.160920	-1.017428	-0.380598
H75	H	1.063532	-1.123960	-0.386626
H76	H	1.063565	-1.038585	-0.465071
H77	H	1.132538	-1.125134	-0.464195
H78	H	1.128639	-0.973711	-0.344341
H79	H	1.197617	-1.060270	-0.343445
C80	C	1.441732	-0.594818	-0.696346
C81	C	1.382776	-0.639899	-0.630069
H82	H	1.441697	-0.520363	-0.696333
H83	H	1.500660	-0.616463	-0.684199
H84	H	1.422809	-0.617044	-0.753458
H85	H	1.401702	-0.617679	-0.572956
H86	H	1.323836	-0.618244	-0.642210
C87	C	1.152297	-0.252102	-0.739552
C88	C	1.134856	-0.232894	-0.831190
H89	H	1.115111	-0.211302	-0.705442
H90	H	1.140007	-0.324601	-0.723398
H91	H	1.213599	-0.233412	-0.727666
H92	H	1.073555	-0.251591	-0.843077
H93	H	1.147140	-0.160379	-0.847349
H94	H	1.481073	-0.756501	-0.740537
H95	H	1.481148	-0.955556	-0.740588
C96	C	1.441916	-1.128604	-0.696473
C97	C	1.382939	-1.100549	-0.630174
H98	H	1.441940	-1.203060	-0.696489
H99	H	1.422975	-1.101177	-0.753565
H100	H	1.500834	-1.100614	-0.684316
H101	H	1.324019	-1.128533	-0.642335
H102	H	1.401876	-1.127988	-0.573069
C103	C	1.113320	-0.865277	-0.327138
C104	C	1.160824	-0.787099	-0.380560
H105	H	1.076557	-0.833349	-0.285823
H106	H	1.076668	-0.908036	-0.364301
H107	H	1.154522	-0.907455	-0.295047
H108	H	1.119621	-0.744925	-0.412656
H109	H	1.197478	-0.744322	-0.343392
H110	H	1.359085	-0.479029	-0.857552
C111	C	1.472578	-0.603522	-1.053231
C112	C	1.425626	-0.552009	-0.989280
H113	H	1.513418	-0.648382	-1.023617
H114	H	1.431286	-0.644149	-1.087583
H115	H	1.504884	-0.552966	-1.091854
H116	H	1.393314	-0.602565	-0.950660
H117	H	1.466923	-0.511380	-0.954912
C118	C	1.396877	-0.520227	-1.278044
C119	C	1.414316	-0.539438	-1.186405
H120	H	1.434072	-0.561016	-1.312154
H121	H	1.335585	-0.538920	-1.289933
H122	H	1.409164	-0.447717	-1.294194
H123	H	1.402023	-0.611948	-1.170253
H124	H	1.475622	-0.520752	-1.174511
C125	C	0.730612	-0.142689	-0.706752
C126	C	0.794541	-0.200455	-0.659710
H127	H	0.760245	-0.092407	-0.747678
H128	H	0.692017	-0.188945	-0.738964
H129	H	0.696228	-0.107526	-0.665516
H130	H	0.828921	-0.235626	-0.700946
H131	H	0.833152	-0.154193	-0.627497
