data_functionalizedCrystal
_audit_creation_method	'MofGen! by Chris Wilmer'
_symmetry_space_group_name_H-M	'P1'
_symmetry_Int_Tables_number	1
_symmetry_cell_setting	triclinic
loop_
_symmetry_equiv_pos_as_xyz
  x,y,z
_cell_length_a	14.853569
_cell_length_b	14.853559
_cell_length_c	11.295483
_cell_angle_alpha	94.102887
_cell_angle_beta	85.890837
_cell_angle_gamma	83.633509
loop_
_atom_site_label
_atom_site_type_symbol
_atom_site_fract_x
_atom_site_fract_y
_atom_site_fract_z
O1	O	1.202422	0.111651	-0.098964
O2	O	0.939963	0.125670	-0.098978
O3	O	1.078207	-0.012569	-0.098970
O4	O	1.064178	0.249891	-0.098973
O5	O	1.066065	-0.000446	0.099080
O6	O	0.927821	0.137794	0.099072
O7	O	1.190279	0.123774	0.099086
Cu8	Cu	1.057941	0.131891	0.117162
Cu9	Cu	1.072301	0.117554	-0.117055
O10	O	1.052035	0.262014	0.099077
C11	C	0.900303	0.131096	0.000045
C12	C	0.800220	0.129192	0.000040
C13	C	0.763846	0.046180	0.000036
C14	C	0.742551	0.210414	0.000048
C15	C	0.648517	0.208628	0.000049
C16	C	0.612143	0.125617	0.000046
C17	C	0.669803	0.044391	0.000041
C18	C	0.590849	0.289852	0.000066
C19	C	0.496808	0.288069	0.000069
C20	C	0.460433	0.205056	0.000057
C21	C	0.518100	0.123828	0.000051
C22	C	0.481726	0.040816	0.000048
C23	C	0.539392	-0.040414	0.000033
C24	C	0.633428	-0.038621	0.000030
C25	C	0.366397	0.203264	0.000060
C26	C	0.387683	0.039028	0.000053
C27	C	1.071502	-0.040097	0.000053
C28	C	1.069601	-0.140181	0.000046
C29	C	1.068156	-0.569965	-0.107911
C30	C	1.054918	-0.556742	0.108010
C31	C	1.056711	-0.462709	0.108012
C32	C	1.064226	-0.422299	0.000050
C33	C	1.069947	-0.475922	-0.107914
C34	C	1.050981	-0.409077	0.215973
C35	C	1.052773	-0.315038	0.215978
C36	C	1.060295	-0.274627	0.108015
C37	C	1.066017	-0.328257	0.000047
C38	C	1.073531	-0.287847	-0.107915
C39	C	1.079260	-0.341476	-0.215883
C40	C	1.077468	-0.435512	-0.215877
C41	C	1.062087	-0.180591	0.108008
C42	C	1.075322	-0.193805	-0.107917
C43	C	1.229939	0.118348	0.000060
C44	C	1.330023	0.120253	0.000057
C45	C	1.058741	0.289541	0.000052
C46	C	1.060642	0.389625	0.000051
N47	N	1.047848	0.141974	0.281898
N48	N	1.082401	0.107463	-0.281791
C49	C	1.155058	0.034827	0.531194
C50	C	1.147437	0.042454	0.655857
C51	C	1.024981	0.164849	0.655890
C52	C	1.032602	0.157222	0.531227
C53	C	1.097644	0.092210	0.468883
C54	C	1.105269	0.084589	0.344218
C55	C	0.982809	0.206979	0.344253
C56	C	0.975188	0.214605	0.468916
H57	H	0.772172	0.277999	0.000059
C58	C	1.011497	-0.233354	-0.341139
C59	C	1.087509	-0.297053	-0.334557
H60	H	1.016591	-0.205925	-0.414399
H61	H	0.958008	-0.262965	-0.336656
H62	H	1.008352	-0.187964	-0.276834
H63	H	1.090650	-0.342447	-0.398857
H64	H	1.141013	-0.267441	-0.339052
C65	C	0.455954	0.421273	-0.101742
C66	C	0.433428	0.377353	0.000069
H67	H	0.416821	0.476390	-0.101747
H68	H	0.517157	0.434215	-0.101729
H69	H	0.449146	0.383004	-0.170799
H70	H	0.440243	0.415620	0.069126
H71	H	0.372210	0.364414	0.000066
H72	H	0.620471	0.357436	0.000076
C73	C	0.288049	-0.052041	0.101859
C74	C	0.347702	-0.052222	0.000046
H75	H	0.263363	-0.108373	0.101848
H76	H	0.320066	-0.043714	0.170907
H77	H	0.240251	-0.003920	0.101857
H78	H	0.395504	-0.100339	0.000052
H79	H	0.315684	-0.060559	-0.069019
C80	C	0.325528	0.336471	-0.101732
C81	C	0.303009	0.292540	0.000073
H82	H	0.286390	0.391586	-0.101727
H83	H	0.386730	0.349417	-0.101720
H84	H	0.318720	0.298205	-0.170793
H85	H	0.309824	0.330803	0.069134
H86	H	0.241793	0.279597	0.000071
C87	C	1.225536	-0.035634	0.356712
C88	C	1.176757	0.013126	0.275686
H89	H	1.269665	-0.079758	0.314403
H90	H	1.255039	0.004923	0.405323
H91	H	1.184985	-0.065149	0.405346
H92	H	1.217308	0.042646	0.227057
H93	H	1.147253	-0.027438	0.227054
H94	H	1.082132	-0.479184	-0.303779
H95	H	1.208024	-0.018102	0.480433
H96	H	1.072824	-0.613634	-0.195817
H97	H	0.509764	-0.108002	0.000023
C98	C	0.757781	-0.138108	-0.101779
C99	C	0.696818	-0.127899	0.000026
H100	H	0.796920	-0.193221	-0.101771
H101	H	0.724887	-0.139628	-0.170831
H102	H	0.792890	-0.088405	-0.101763
H103	H	0.661704	-0.177600	0.000007
H104	H	0.729716	-0.126388	0.069097
C105	C	1.042009	-0.534229	0.321439
C106	C	1.046654	-0.601157	0.226679
H107	H	1.036902	-0.561652	0.394702
H108	H	1.095513	-0.504642	0.316953
H109	H	0.990451	-0.491010	0.316938
H110	H	1.098216	-0.644373	0.231175
H111	H	0.993144	-0.630758	0.231168
C112	C	0.888182	-0.053316	-0.101792
C113	C	0.827229	-0.043103	0.000023
H114	H	0.927316	-0.108433	-0.101794
H115	H	0.855280	-0.054827	-0.170838
H116	H	0.923299	-0.003617	-0.101780
H117	H	0.792107	-0.092798	0.000006
H118	H	0.860135	-0.041600	0.069087
H119	H	1.194188	-0.004274	0.706587
C120	C	1.039524	-0.311426	0.429413
C121	C	1.046493	-0.256096	0.334654
H122	H	1.035656	-0.275036	0.502676
H123	H	0.986567	-0.341558	0.424928
H124	H	1.091631	-0.355199	0.424907
H125	H	0.994382	-0.212327	0.339154
H126	H	1.099456	-0.225949	0.339140
C127	C	1.007530	-0.085712	-0.233184
C128	C	1.083551	-0.149400	-0.226605
H129	H	1.012606	-0.058299	-0.306458
H130	H	0.954045	-0.115326	-0.228666
H131	H	1.004394	-0.040308	-0.168898
H132	H	1.086683	-0.194808	-0.290887
H133	H	1.137051	-0.119784	-0.231135
C134	C	0.978970	-0.057126	0.233237
C135	C	1.055783	-0.121636	0.226670
H136	H	0.975076	-0.020733	0.306501
H137	H	0.983715	-0.019612	0.168942
H138	H	0.926022	-0.087286	0.228742
H139	H	1.108731	-0.091476	0.231157
H140	H	1.051045	-0.159154	0.290983
H141	H	1.044859	-0.441986	0.303869
C142	C	0.866629	0.219835	0.694331
C143	C	0.953482	0.236291	0.724441
H144	H	0.822488	0.263935	0.736661
H145	H	0.862952	0.223524	0.611181
H146	H	0.855540	0.160887	0.714749
H147	H	0.964574	0.295236	0.704015
H148	H	0.957162	0.232610	0.807609
C149	C	0.816839	0.269615	0.507346
C150	C	0.903695	0.286060	0.537456
H151	H	0.772703	0.313726	0.549666
H152	H	0.813166	0.273294	0.424194
H153	H	0.805737	0.210674	0.527778
H154	H	0.914799	0.344999	0.517015
H155	H	0.907370	0.282389	0.620626
H156	H	0.936061	0.253707	0.293505
