data_functionalizedCrystal
_audit_creation_method	'MofGen! by Chris Wilmer'
_symmetry_space_group_name_H-M	'P1'
_symmetry_Int_Tables_number	1
_symmetry_cell_setting	triclinic
loop_
_symmetry_equiv_pos_as_xyz
  x,y,z
_cell_length_a	19.377625
_cell_length_b	23.196402
_cell_length_c	23.196402
_cell_angle_alpha	119.998738
_cell_angle_beta	104.488002
_cell_angle_gamma	52.470927
loop_
_atom_site_label
_atom_site_type_symbol
_atom_site_fract_x
_atom_site_fract_y
_atom_site_fract_z
Zr1	Zr	0.686741	0.630948	0.219160
O2	O	0.572938	0.751214	0.287422
O3	O	0.721618	0.510685	0.198235
O4	O	0.721626	0.630947	0.318502
O5	O	0.572934	0.630952	0.072285
O6	O	0.838927	0.630942	0.343018
O7	O	0.572929	0.630952	0.167155
O8	O	0.838911	0.415815	0.127882
O9	O	0.572950	0.846078	0.287421
O10	O	0.824044	0.560145	0.207606
O11	O	0.736508	0.560149	0.118510
O12	O	0.736519	0.701742	0.260109
O13	O	0.648983	0.701745	0.171012
Zr14	Zr	0.873829	0.630939	0.106954
Zr15	Zr	0.873821	0.630940	0.258260
Zr16	Zr	0.686749	0.630947	0.067854
Zr17	Zr	0.686760	0.782245	0.219158
Zr18	Zr	0.873810	0.479641	0.106955
O19	O	0.838953	0.751201	0.127878
O20	O	0.838942	0.751203	0.343017
O21	O	0.572949	0.751213	0.072283
O22	O	0.987633	0.510672	0.038692
O23	O	0.987622	0.510673	0.253830
O24	O	0.721629	0.510683	-0.016903
O25	O	0.987637	0.630935	0.253829
O26	O	0.838944	0.630940	0.007611
O27	O	0.721644	0.630945	-0.016905
O28	O	0.987641	0.630934	0.158959
O29	O	0.721653	0.846072	0.318500
O30	O	0.838917	0.415814	0.007614
O31	O	0.987621	0.415808	0.038693
O32	O	0.987615	0.415809	0.158962
O33	O	0.572956	0.846077	0.167152
O34	O	0.721660	0.846071	0.198231
O35	O	0.824052	0.560145	0.066005
O36	O	0.911588	0.560141	0.155101
O37	O	0.824062	0.701737	0.207604
O38	O	0.736526	0.701741	0.118508
C39	C	0.780262	0.441693	0.163059
C40	C	0.780254	0.377464	0.163060
C41	C	0.844879	0.295032	0.124306
C42	C	0.844885	0.234672	0.124301
C43	C	0.780272	0.256748	0.163062
C44	C	0.715636	0.339193	0.201817
C45	C	0.715626	0.399551	0.201816
C46	C	0.760148	0.201162	0.222647
C47	C	0.760163	0.140803	0.222650
C48	C	0.780295	0.070586	0.163063
C49	C	0.800432	0.060726	0.103474
C50	C	0.800422	0.121084	0.103473
C51	C	0.780274	0.191306	0.163066
C52	C	0.844931	-0.077299	0.124301
C53	C	0.844931	-0.137658	0.124294
C54	C	0.715685	-0.033134	0.201817
C55	C	0.715682	0.027223	0.201817
C56	C	0.780309	0.005135	0.163061
C57	C	0.546277	0.630953	0.114149
C58	C	0.466856	0.630956	0.097550
C59	C	0.205631	0.630937	0.304242
C60	C	0.131007	0.630934	0.288623
C61	C	0.131033	0.630933	0.184101
C62	C	0.205656	0.630940	0.199712
C63	C	0.242950	0.630941	0.259783
C64	C	0.242975	0.630945	0.155253
C65	C	0.317593	0.630947	0.170862
C66	C	0.354894	0.630946	0.230929
C67	C	0.317568	0.630944	0.275392
C68	C	0.205683	0.630938	0.095180
C69	C	0.243002	0.630942	0.050722
C70	C	0.317619	0.630951	0.066332
C71	C	0.354919	0.630949	0.126400
C72	C	0.354944	0.630953	0.021870
C73	C	0.429563	0.630955	0.037479
C74	C	0.429538	0.630952	0.142008
C75	C	1.014294	0.630933	0.211965
C76	C	1.093714	0.630930	0.228564
C77	C	0.780275	0.630944	0.352318
C78	C	0.780272	0.630945	0.416552
C79	C	0.780309	0.820193	0.163055
C80	C	0.780317	0.884423	0.163054
C81	C	0.715651	0.630959	0.865888
C82	C	0.715652	0.630953	0.805530
C83	C	0.780273	0.630951	0.788854
C84	C	0.844912	0.630934	0.832534
C85	C	0.844914	0.630932	0.892887
C86	C	0.800418	0.678454	0.721197
C87	C	0.800410	0.678461	0.660846
C88	C	0.780272	0.630954	0.602705
C89	C	0.760123	0.583451	0.604922
C90	C	0.760125	0.583449	0.665275
C91	C	0.780279	0.630953	0.723413
C92	C	0.715642	0.630959	0.493584
C93	C	0.715649	0.630948	0.433224
C94	C	0.844906	0.630937	0.460233
C95	C	0.844902	0.630940	0.520588
C96	C	0.780266	0.630955	0.537261
C97	C	0.780290	0.630943	0.973795
C98	C	0.780278	0.630947	0.909560
C99	C	1.014270	0.441683	0.211967
C100	C	1.093683	0.377450	0.228567
C101	C	0.780271	0.441692	-0.026202
C102	C	0.780267	0.377462	-0.090435
C103	C	1.014280	0.441682	0.022706
C104	C	1.093696	0.377449	-0.024928
C105	C	0.546290	0.820204	0.303408
C106	C	0.466875	0.884438	0.351042
C107	C	0.546300	0.820203	0.114147
C108	C	0.466888	0.884436	0.097547
C109	C	0.780299	0.820194	0.352316
C110	C	0.780304	0.884424	0.416549
C111	C	1.085279	0.347288	0.263775
C112	C	1.159888	0.286942	0.279385
C113	C	1.242900	0.256756	0.259782
C114	C	1.251302	0.286925	0.224572
C115	C	1.176694	0.347273	0.208967
C116	C	0.825961	0.347297	-0.148013
C117	C	0.825953	0.286954	-0.208373
C118	C	0.780256	0.256774	-0.211153
C119	C	0.734556	0.286945	-0.153570
C120	C	0.734559	0.347291	-0.093212
C121	C	1.176691	0.347282	-0.000789
C122	C	1.251318	0.286936	-0.045539
C123	C	1.242947	0.256754	-0.114428
C124	C	1.159943	0.286927	-0.138568
C125	C	1.085318	0.347275	-0.093818
C126	C	0.383879	0.914611	0.326902
C127	C	0.309253	0.974976	0.371652
C128	C	0.317623	1.005161	0.440541
C129	C	0.400627	0.974985	0.464682
C130	C	0.475252	0.914626	0.419932
C131	C	0.475292	0.914605	0.062345
C132	C	0.400682	0.974967	0.046752
C133	C	0.317670	1.005155	0.066357
C134	C	0.309268	0.974984	0.101564
C135	C	0.383876	0.914627	0.117161
C136	C	0.826010	0.914585	0.419308
C137	C	0.826032	0.974928	0.479660
C138	C	0.780341	1.005113	0.537250
C139	C	0.734633	0.974946	0.534489
C140	C	0.734617	0.914600	0.474140
H141	H	0.897511	0.167543	0.092741
H142	H	0.697352	0.371843	-0.046332
H143	H	0.407541	0.999522	0.018083
C144	C	1.185975	0.379900	0.073980
C145	C	1.274638	0.340541	0.085529
C146	C	1.283233	0.370542	0.154397
H147	H	1.158830	0.369970	0.093390
H148	H	1.158817	0.436884	0.093451
H149	H	1.301786	0.283570	0.066066
H150	H	1.301802	0.350468	0.066135
H151	H	1.256074	0.427526	0.173867
H152	H	1.256083	0.360610	0.173800
H153	H	1.343390	0.343847	0.162242
H154	H	1.153141	0.262343	-0.194663
H155	H	0.780260	0.207637	-0.260304
H156	H	0.897525	0.630935	0.556151
C157	C	0.645544	0.489042	0.244019
C158	C	0.649701	0.505893	0.311298
C159	C	0.585163	0.588327	0.350197
H160	H	0.589710	0.500717	0.230278
H161	H	0.654791	0.521858	0.238516
H162	H	0.640448	0.473088	0.316798
H163	H	0.705520	0.494237	0.325059
H164	H	0.594410	0.621142	0.344694
H165	H	0.529334	0.599994	0.336451
H166	H	0.587980	0.599772	0.395851
C167	C	0.246023	0.630900	0.369482
C168	C	0.197381	0.630881	0.405075
C169	C	0.234572	0.630835	0.465169
H170	H	0.245913	0.678172	0.395350
H171	H	0.304358	0.583597	0.360231
H172	H	0.139062	0.678180	0.414328
H173	H	0.197488	0.583613	0.379226
H174	H	0.292907	0.583532	0.455918
H175	H	0.234460	0.678108	0.491031
H176	H	0.201579	0.630815	0.489323
H177	H	0.897529	0.630931	0.818953
C178	C	0.645473	0.116682	0.243971
C179	C	0.588901	0.123100	0.277930
C180	C	0.524217	0.205499	0.316775
H181	H	0.613458	0.142482	0.215899
H182	H	0.671990	0.142420	0.275370
H183	H	0.562386	0.097373	0.246535
H184	H	0.620890	0.097317	0.306013
H185	H	0.550733	0.231237	0.348174
H186	H	0.492208	0.231292	0.288698
H187	H	0.485829	0.209865	0.339825
C188	C	0.470133	0.631004	0.207215
C189	C	0.543455	0.631028	0.211372
C190	C	0.580866	0.631088	0.271432
H191	H	0.487209	0.583735	0.208672
H192	H	0.428696	0.678310	0.243682
H193	H	0.584884	0.583726	0.174915
H194	H	0.526402	0.678293	0.209927
H195	H	0.539429	0.678394	0.307899
H196	H	0.597937	0.583818	0.272883
H197	H	0.630614	0.631111	0.274263
C198	C	0.915170	-0.101226	0.082335
C199	C	0.962087	-0.069648	0.123966
C200	C	1.026805	-0.091685	0.085332
H201	H	0.888725	-0.079862	0.050966
H202	H	0.953704	-0.158967	0.059265
H203	H	0.923559	-0.011919	0.147025
H204	H	0.988551	-0.091007	0.155335
H205	H	1.065339	-0.149426	0.062262
H206	H	1.000353	-0.070320	0.053964
H207	H	1.058651	-0.070269	0.113573
C208	C	0.374870	0.881703	0.155278
C209	C	0.415039	0.797727	0.116505
C210	C	0.406762	0.767371	0.151599
H211	H	0.314783	0.908233	0.164727
H212	H	0.402112	0.891534	0.195936
H213	H	0.387795	0.787903	0.075859
H214	H	0.475128	0.771177	0.107054
H215	H	0.434004	0.777202	0.192257
H216	H	0.346674	0.793907	0.161047
H217	H	0.434022	0.710390	0.125300
C218	C	0.738419	0.151562	0.287413
C219	C	0.798489	0.158730	0.333483
C220	C	0.778479	0.168657	0.393156
H221	H	0.741323	0.105594	0.278985
H222	H	0.681192	0.199415	0.305076
H223	H	0.855702	0.110882	0.315824
H224	H	0.795594	0.204697	0.341931
H225	H	0.721252	0.216510	0.410819
H226	H	0.781383	0.122688	0.384721
H227	H	0.819228	0.173530	0.424424
H228	H	1.303719	0.207614	-0.150858
H229	H	1.017693	0.371865	0.279750
C230	C	0.565437	0.881689	0.040956
C231	C	0.610934	0.797719	-0.001038
C232	C	0.693972	0.767379	-0.020761
H233	H	0.596552	0.891491	0.079282
H234	H	0.559784	0.908260	0.017725
H235	H	0.616591	0.771157	0.022193
H236	H	0.579845	0.787895	-0.039374
H237	H	0.688319	0.793949	-0.043992
H238	H	0.725079	0.777186	0.017569
H239	H	0.724849	0.710404	-0.049260
C240	C	0.685052	0.254024	-0.156718
C241	C	0.694867	0.194697	-0.221898
C242	C	0.649298	0.164333	-0.224821
H243	H	0.624907	0.297254	-0.144253
H244	H	0.707642	0.230424	-0.126958
H245	H	0.672273	0.218297	-0.251649
H246	H	0.755001	0.151452	-0.234376
H247	H	0.671888	0.140733	-0.195061
H248	H	0.589156	0.207569	-0.212354
H249	H	0.655958	0.124072	-0.269043
C250	C	1.341447	0.254285	-0.019352
C251	C	1.386948	0.269000	-0.042297
C252	C	1.469968	0.238951	-0.018175
H253	H	1.372576	0.197298	-0.034857
H254	H	1.335766	0.280921	0.028086
H255	H	1.392633	0.242361	-0.089725
H256	H	1.355845	0.325980	-0.026793
H257	H	1.464287	0.265587	0.029263
H258	H	1.501089	0.181965	-0.033682
H259	H	1.500848	0.248937	-0.033735
H260	H	0.816815	0.113053	0.054954
H261	H	1.017743	0.371829	-0.113483
H262	H	0.256926	1.054301	0.053653
H263	H	0.241670	0.999572	0.117524
C264	C	0.645377	0.631016	0.758211
C265	C	0.588760	0.631048	0.785738
C266	C	0.524006	0.631119	0.742173
H267	H	0.671799	0.583748	0.716550
H268	H	0.613420	0.678323	0.751656
H269	H	0.620713	0.583745	0.792284
H270	H	0.562316	0.678312	0.827393
H271	H	0.492049	0.678426	0.735619
H272	H	0.550436	0.583850	0.700515
H273	H	0.485579	0.631148	0.760847
H274	H	0.377047	0.890037	0.270811
H275	H	0.241675	0.999535	0.351984
H276	H	0.863217	0.890018	0.372421
C277	C	0.090382	0.630894	0.336797
C278	C	0.017064	0.630871	0.310266
C279	C	-0.020374	0.630822	0.354618
H280	H	0.073298	0.678165	0.378382
H281	H	0.131807	0.583590	0.343286
H282	H	-0.024353	0.678170	0.303785
H283	H	0.034125	0.583603	0.268686
H284	H	0.021051	0.583518	0.361107
H285	H	-0.037454	0.678094	0.396201
H286	H	-0.070120	0.630799	0.336620
H287	H	0.780361	1.054251	0.586386
C288	C	0.914905	0.271165	0.082170
C289	C	0.875546	0.302772	0.036019
C290	C	0.940023	0.280811	-0.002804
H291	H	0.953425	0.213440	0.059026
H292	H	0.946813	0.292568	0.110288
H293	H	0.843652	0.281365	0.007905
H294	H	0.837031	0.360495	0.059145
H295	H	0.971932	0.302214	0.025313
H296	H	0.978539	0.223087	-0.025944
H297	H	0.913327	0.302260	-0.034118
C298	C	0.236491	1.070661	0.489015
C299	C	0.162019	1.090602	0.453122
C300	C	0.087262	1.150926	0.497750
H301	H	0.236358	1.117816	0.516337
H302	H	0.236424	1.050891	0.516309
H303	H	0.162086	1.110375	0.425840
H304	H	0.162124	1.043466	0.425802
H305	H	0.087195	1.131156	0.525043
H306	H	0.087138	1.198076	0.525069
H307	H	0.036725	1.164459	0.473403
H308	H	0.697394	0.890050	0.471901
H309	H	0.407432	0.999570	0.520776
H310	H	0.324575	0.630944	-0.027043
C311	C	0.822180	-0.015406	0.038706
C312	C	0.762103	0.006824	-0.007364
C313	C	0.782121	-0.063288	-0.067035
H314	H	0.819289	-0.049996	0.047136
H315	H	0.879403	-0.043449	0.021042
H316	H	0.704894	0.034855	0.010297
H317	H	0.764985	0.041404	-0.015813
H318	H	0.839345	-0.091331	-0.084699
H319	H	0.779230	-0.097873	-0.058599
H320	H	0.741368	-0.048214	-0.098303
H321	H	0.863251	0.999484	0.481895
H322	H	0.415656	0.630944	0.243635
C323	C	0.875583	0.379991	-0.145152
C324	C	0.915567	0.340670	-0.208507
C325	C	0.961270	0.370777	-0.205907
H326	H	0.918889	0.370113	-0.114154
H327	H	0.836149	0.436971	-0.131419
H328	H	0.954998	0.283704	-0.222232
H329	H	0.872280	0.350545	-0.239515
H330	H	0.921835	0.427757	-0.192174
H331	H	1.004572	0.360897	-0.174907
H332	H	0.988398	0.344108	-0.248893
C333	C	1.150571	0.254265	0.317581
C334	C	1.061902	0.293598	0.331382
C335	C	1.053284	0.263511	0.366557
H336	H	1.177698	0.264149	0.358282
H337	H	1.177735	0.197286	0.291371
H338	H	1.034749	0.350564	0.357592
H339	H	1.034757	0.283718	0.290693
H340	H	1.080448	0.206531	0.340347
H341	H	1.080415	0.273397	0.407255
H342	H	0.993122	0.290188	0.375920
C343	C	1.323795	0.191200	0.276756
C344	C	1.298656	0.171235	0.311770
C345	C	1.373148	0.110839	0.327410
H346	H	1.357615	0.210891	0.303630
H347	H	1.357552	0.144073	0.236735
H348	H	1.264913	0.218353	0.351786
H349	H	1.264846	0.151531	0.284908
H350	H	1.406905	0.063712	0.287388
H351	H	1.406963	0.130536	0.354282
H352	H	1.356102	0.097279	0.351163
C353	C	0.685157	1.007579	0.597029
C354	C	0.718573	0.943589	0.611657
C355	C	0.673022	0.973627	0.669270
H356	H	0.625027	1.031120	0.589837
H357	H	0.691734	1.047813	0.633386
H358	H	0.711988	0.903369	0.575308
H359	H	0.778697	0.920041	0.618862
H360	H	0.679599	1.013862	0.705627
H361	H	0.612895	0.997168	0.662072
H362	H	0.695694	0.930217	0.679205
C363	C	0.202648	0.630778	-0.014566
C364	C	0.263923	0.561013	-0.068170
C365	C	0.226777	0.560832	-0.128324
H366	H	0.185654	0.678010	-0.016041
H367	H	0.152883	0.630731	-0.017539
H368	H	0.313672	0.561067	-0.065199
H369	H	0.280923	0.513769	-0.066718
H370	H	0.177012	0.560786	-0.131296
H371	H	0.209783	0.608068	-0.129792
H372	H	0.268343	0.513495	-0.164701
H373	H	0.542828	0.890059	0.439595
H374	H	0.897555	-0.204781	0.092731
H375	H	0.743744	0.258338	0.271172
C376	C	0.645420	-0.009217	0.243741
C377	C	0.598554	-0.040830	0.202057
C378	C	0.533783	-0.018800	0.240632
H379	H	0.606856	0.048511	0.266796
H380	H	0.671843	-0.030573	0.275124
H381	H	0.572131	-0.019470	0.170686
H382	H	0.637093	-0.098557	0.179002
H383	H	0.560207	-0.040156	0.272015
H384	H	0.495226	0.038928	0.263686
H385	H	0.501982	-0.040252	0.212356
C386	C	0.645443	0.363060	0.243782
C387	C	0.598567	0.331438	0.202144
C388	C	0.533894	0.353405	0.240774
H389	H	0.606868	0.420784	0.266866
H390	H	0.671952	0.341671	0.275142
H391	H	0.572058	0.352830	0.170797
H392	H	0.637118	0.273715	0.179060
H393	H	0.560403	0.332016	0.272134
H394	H	0.495326	0.411130	0.263856
H395	H	0.502086	0.331947	0.212530
C396	C	0.358233	0.630826	0.340545
C397	C	0.444204	0.561080	0.326695
C398	C	0.481695	0.560950	0.386694
H399	H	0.325428	0.630787	0.364844
H400	H	0.358166	0.678088	0.366337
H401	H	0.444266	0.513830	0.300914
H402	H	0.477031	0.561105	0.302406
H403	H	0.481628	0.608212	0.412486
H404	H	0.448884	0.560913	0.410988
H405	H	0.540033	0.513632	0.377305
H406	H	0.459948	0.630958	0.001275
C407	C	0.090549	0.631063	0.118908
C408	C	0.065599	0.700818	0.117038
C409	C	0.028312	0.700964	0.056991
H410	H	0.040727	0.631102	0.115911
H411	H	0.132013	0.583807	0.082438
H412	H	0.024138	0.748062	0.153499
H413	H	0.115405	0.700794	0.120025
H414	H	0.069776	0.653707	0.020520
H415	H	-0.021506	0.701001	0.053999
H416	H	0.011386	0.748287	0.055711
C417	C	0.645533	0.631003	0.884119
C418	C	0.659353	0.631016	0.946328
C419	C	0.594774	0.631064	0.963149
H420	H	0.648146	0.583734	0.851207
H421	H	0.589734	0.678309	0.886255
H422	H	0.715137	0.583715	0.944189
H423	H	0.656731	0.678282	0.979254
H424	H	0.538974	0.678370	0.965284
H425	H	0.597392	0.583795	0.930233
H426	H	0.604137	0.631081	1.005362
C427	C	0.738428	0.531725	0.667617
C428	C	0.798529	0.449620	0.624456
C429	C	0.778581	0.401944	0.626601
H430	H	0.681220	0.548322	0.654096
H431	H	0.741353	0.538473	0.711873
H432	H	0.795597	0.442876	0.580208
H433	H	0.855742	0.432998	0.637966
H434	H	0.781506	0.408692	0.670857
H435	H	0.721372	0.418547	0.613081
H436	H	0.819361	0.346230	0.597322
H437	H	0.743721	0.544768	0.557582
C438	C	0.645562	0.630791	0.511591
C439	C	0.649714	0.561020	0.462906
C440	C	0.585181	0.560829	0.479474
H441	H	0.589728	0.678019	0.513670
H442	H	0.654817	0.630748	0.553774
H443	H	0.640453	0.561071	0.420734
H444	H	0.705535	0.513780	0.460819
H445	H	0.594436	0.560785	0.521658
H446	H	0.529351	0.608060	0.481554
H447	H	0.587995	0.513486	0.446448
H448	H	0.144926	0.630931	0.082473
H449	H	0.663024	0.630953	0.397661
C450	C	0.915169	0.630892	0.442240
C451	C	0.971779	0.630866	0.493403
C452	C	1.036527	0.630810	0.476843
H453	H	0.888740	0.678163	0.436804
H454	H	0.947133	0.583588	0.401737
H455	H	0.939821	0.678165	0.533894
H456	H	0.998230	0.583599	0.498846
H457	H	1.068490	0.583505	0.436341
H458	H	1.010090	0.678081	0.471407
H459	H	1.074949	0.630784	0.511551
H460	H	0.816812	0.717144	0.659047
H461	H	0.816815	0.717145	0.768536
H462	H	0.897542	0.630922	0.928448
C463	C	0.875418	0.254289	-0.270936
C464	C	0.817106	0.268999	-0.319931
C465	C	0.862639	0.238931	-0.377566
H466	H	0.918653	0.197302	-0.287069
H467	H	0.902615	0.280917	-0.260663
H468	H	0.789924	0.242369	-0.330203
H469	H	0.773870	0.325980	-0.303819
H470	H	0.889836	0.265559	-0.367294
H471	H	0.905873	0.181945	-0.393693
H472	H	0.823081	0.248914	-0.410814
H473	H	1.318901	0.262338	0.208614
H474	H	1.183549	0.371824	0.180294
