data_functionalizedCrystal
_audit_creation_method	'MofGen! by Chris Wilmer'
_symmetry_space_group_name_H-M	'P1'
_symmetry_Int_Tables_number	1
_symmetry_cell_setting	triclinic
loop_
_symmetry_equiv_pos_as_xyz
  x,y,z
_cell_length_a	17.640112
_cell_length_b	18.050589
_cell_length_c	17.639477
_cell_angle_alpha	101.240153
_cell_angle_beta	65.723826
_cell_angle_gamma	101.252307
loop_
_atom_site_label
_atom_site_type_symbol
_atom_site_fract_x
_atom_site_fract_y
_atom_site_fract_z
Zn1	Zn	1.165542	-0.033819	0.211677
Zn2	Zn	1.665542	0.466181	0.711677
Zn3	Zn	1.193281	-0.178915	0.073906
Zn4	Zn	1.693281	0.321085	0.573906
Zn5	Zn	1.055593	-0.075644	0.101705
Zn6	Zn	1.555593	0.424356	0.601705
Zn7	Zn	1.027704	-0.178901	0.239467
Zn8	Zn	1.527704	0.321099	0.739467
O9	O	1.110530	-0.116820	0.156689
O10	O	1.610530	0.383180	0.656689
O11	O	1.284530	-0.035568	0.170137
O12	O	1.784530	0.464432	0.670137
O13	O	1.198297	-0.182726	-0.037718
O14	O	1.698297	0.317274	0.462282
O15	O	1.070240	0.033842	0.116297
O16	O	1.570240	0.533842	0.616297
O17	O	1.304910	-0.142170	0.068917
O18	O	1.804910	0.357830	0.568917
O19	O	1.151019	0.064570	0.197093
O20	O	1.651019	0.564570	0.697093
O21	O	1.097138	-0.106853	-0.017294
O22	O	1.597138	0.393147	0.482706
O23	O	0.936584	-0.106839	0.143244
O24	O	1.436584	0.393161	0.643244
O25	O	1.022708	-0.142146	0.351092
O26	O	1.522708	0.357854	0.851092
O27	O	0.916095	-0.182702	0.244457
O28	O	1.416095	0.317298	0.744457
O29	O	1.123976	-0.035554	0.330675
O30	O	1.623976	0.464446	0.830675
O31	O	1.171255	-0.282851	0.095864
O32	O	1.671255	0.217149	0.595864
O33	O	1.049606	-0.282840	0.217501
O34	O	1.549606	0.217160	0.717501
C35	C	0.896441	-0.149308	0.199883
C36	C	1.396441	0.350692	0.699883
C37	C	0.804849	-0.163221	0.218381
C38	C	1.304849	0.336779	0.718381
C39	C	0.556758	-0.011107	0.016166
C40	C	1.056758	0.488893	0.516166
C41	C	0.470691	-0.024194	0.033559
C42	C	0.970691	0.475806	0.533559
C43	C	0.449446	-0.103348	0.138771
C44	C	0.949446	0.396652	0.638771
C45	C	0.535512	-0.090264	0.121389
C46	C	1.035512	0.409736	0.621389
C47	C	0.589162	-0.044144	0.060086
C48	C	1.089162	0.455856	0.560086
C49	C	0.567916	-0.123302	0.165309
C50	C	1.067916	0.376698	0.665309
C51	C	0.653976	-0.110222	0.147925
C52	C	1.153976	0.389778	0.647925
C53	C	0.707631	-0.064106	0.086623
C54	C	1.207631	0.435894	0.586623
C55	C	0.675221	-0.031064	0.042702
C56	C	1.175221	0.468936	0.542702
C57	C	0.514266	-0.169426	0.226608
C58	C	1.014266	0.330574	0.726608
C59	C	0.546670	-0.202464	0.270527
C60	C	1.046670	0.297536	0.770527
C61	C	0.632730	-0.189380	0.253148
C62	C	1.132730	0.310620	0.753148
C63	C	0.686386	-0.143263	0.191846
C64	C	1.186386	0.356737	0.691846
C65	C	0.665140	-0.222421	0.297069
C66	C	1.165140	0.277579	0.797069
C67	C	0.751200	-0.209342	0.279685
C68	C	1.251200	0.290658	0.779685
C69	C	0.772445	-0.130184	0.174462
C70	C	1.272445	0.369816	0.674462
C71	C	1.110433	-0.309789	0.156695
C72	C	1.610433	0.190211	0.656695
C73	C	1.110462	-0.392326	0.156710
C74	C	1.610462	0.107674	0.656710
C75	C	1.044367	-0.591793	0.222826
C76	C	1.544367	-0.091793	0.722826
C77	C	1.039478	-0.655680	0.151685
C78	C	1.539478	-0.155680	0.651685
C79	C	1.110540	-0.543443	0.156705
C80	C	1.610540	-0.043443	0.656705
C81	C	1.115468	-0.626630	0.227846
C82	C	1.615468	-0.126630	0.727846
C83	C	1.110614	-0.689414	0.156706
C84	C	1.610614	-0.189414	0.656706
C85	C	1.105620	-0.606255	0.085532
C86	C	1.605620	-0.106255	0.585532
C87	C	1.181635	-0.577188	0.161737
C88	C	1.681635	-0.077188	0.661737
C89	C	1.176785	-0.641056	0.090538
C90	C	1.676785	-0.141056	0.590538
C91	C	1.110496	-0.459353	0.156705
C92	C	1.610496	0.040647	0.656705
C93	C	1.110660	-0.773503	0.156697
C94	C	1.610660	-0.273503	0.656697
C95	C	1.325454	-0.084205	0.113326
C96	C	1.825454	0.415795	0.613326
C97	C	1.417043	-0.070307	0.094848
C98	C	1.917043	0.429693	0.594848
C99	C	1.067137	-0.084183	0.371618
C100	C	1.567137	0.415817	0.871618
C101	C	1.048646	-0.070275	0.463208
C102	C	1.548646	0.429725	0.963208
C103	C	1.110646	0.076909	0.156696
C104	C	1.610646	0.576909	0.656696
C105	C	1.110695	0.159465	0.156699
C106	C	1.610695	0.659465	0.656699
C107	C	1.153801	-0.149269	-0.057414
C108	C	1.653801	0.350731	0.442586
C109	C	1.172453	-0.162943	-0.149036
C110	C	1.672453	0.337057	0.350964
C111	C	1.251183	-0.222049	0.711242
C112	C	1.751183	0.277951	1.211242
C113	C	1.233797	-0.208974	0.797307
C114	C	1.733797	0.291026	1.297307
C115	C	1.128467	-0.129972	0.818572
C116	C	1.628467	0.370028	1.318572
C117	C	1.145841	-0.143044	0.732508
C118	C	1.645841	0.356956	1.232508
C119	C	1.207201	-0.189083	0.678849
C120	C	1.707201	0.310917	1.178849
C121	C	1.101859	-0.110077	0.700115
C122	C	1.601859	0.389923	1.200115
C123	C	1.119235	-0.123145	0.614057
C124	C	1.619235	0.376855	1.114057
C125	C	1.180594	-0.169179	0.560393
C126	C	1.680594	0.330821	1.060393
C127	C	1.224577	-0.202150	0.592791
C128	C	1.724577	0.297850	1.092791
C129	C	1.040503	-0.064035	0.753774
C130	C	1.540503	0.435965	1.253774
C131	C	0.996521	-0.031068	0.721381
C132	C	1.496521	0.468932	1.221381
C133	C	1.013893	-0.044140	0.635323
C134	C	1.513893	0.455860	1.135323
C135	C	1.075252	-0.090174	0.581659
C136	C	1.575252	0.409826	1.081659
C137	C	0.969909	-0.011169	0.602925
C138	C	1.469909	0.488831	1.102925
C139	C	0.987286	-0.024236	0.516867
C140	C	1.487286	0.475764	1.016867
C141	C	1.092628	-0.103242	0.495601
C142	C	1.592628	0.396758	0.995601
H143	H	0.777583	-0.236243	0.315450
H144	H	1.277583	0.263757	0.815450
H145	H	0.718904	0.006505	-0.007205
H146	H	1.218904	0.506505	0.492795
Cl147	Cl	0.946706	-0.708174	0.145102
Cl148	Cl	1.446706	-0.208174	0.645102
H149	H	1.142601	-0.140723	0.451907
H150	H	1.642601	0.359277	0.951907
Cl151	Cl	1.202443	-0.185605	0.452204
Cl152	Cl	1.702443	0.314395	0.952204
Cl153	Cl	1.301706	-0.260040	0.525330
Cl154	Cl	1.801706	0.239960	1.025330
H155	H	1.232788	-0.662555	0.034568
H156	H	1.732788	-0.162555	0.534568
Cl157	Cl	1.099122	-0.591856	-0.007360
Cl158	Cl	1.599122	-0.091856	0.492640
Cl159	Cl	0.892784	0.046715	0.670389
Cl160	Cl	1.392784	0.546715	1.170389
H161	H	0.946564	0.006419	0.765081
H162	H	1.446564	0.506419	1.265081
Cl163	Cl	1.289103	-0.250417	0.838024
Cl164	Cl	1.789103	0.249583	1.338024
Cl165	Cl	1.328312	-0.279939	0.643780
Cl166	Cl	1.828312	0.220061	1.143780
H167	H	0.502978	-0.240018	0.320438
H168	H	1.002978	0.259982	0.820438
H169	H	1.078510	-0.092486	0.862272
H170	H	1.578510	0.407514	1.362272
Cl171	Cl	1.274374	-0.524665	0.168358
Cl172	Cl	1.774374	-0.024665	0.668358
Cl173	Cl	0.957887	-0.558419	0.309077
Cl174	Cl	1.457887	-0.058419	0.809077
H175	H	0.405754	-0.140902	0.188682
H176	H	0.905754	0.359098	0.688682
Cl177	Cl	0.839896	-0.072197	0.097399
Cl178	Cl	1.339896	0.427803	0.597399
Cl179	Cl	0.815823	-0.047666	0.064763
Cl180	Cl	1.315823	0.452334	0.564763
Cl181	Cl	1.121860	-0.641197	0.320730
Cl182	Cl	1.621860	-0.141197	0.820730
Cl183	Cl	1.018664	-0.047602	0.861961
Cl184	Cl	1.518664	0.452398	1.361961
Cl185	Cl	0.429959	0.017338	-0.021667
Cl186	Cl	0.929959	0.517338	0.478333
H187	H	0.951474	0.002612	0.490492
H188	H	1.451474	0.502612	0.990492
H189	H	0.600440	0.026462	-0.033741
H190	H	1.100440	0.526462	0.466259
Cl191	Cl	0.406078	-0.185880	0.248451
Cl192	Cl	0.906078	0.314120	0.748451
H193	H	0.621448	-0.259979	0.346976
H194	H	1.121448	0.240021	0.846976
