data_functionalizedCrystal
_audit_creation_method	'MofGen! by Chris Wilmer'
_symmetry_space_group_name_H-M	'P1'
_symmetry_Int_Tables_number	1
_symmetry_cell_setting	triclinic
loop_
_symmetry_equiv_pos_as_xyz
  x,y,z
_cell_length_a	14.044191
_cell_length_b	17.038272
_cell_length_c	13.101039
_cell_angle_alpha	93.604737
_cell_angle_beta	86.337551
_cell_angle_gamma	92.151666
loop_
_atom_site_label
_atom_site_type_symbol
_atom_site_fract_x
_atom_site_fract_y
_atom_site_fract_z
O1	O	1.277888	0.185616	-0.085166
O2	O	1.611221	0.518949	0.248167
O3	O	1.944555	0.852283	0.581500
O4	O	1.001367	0.178769	-0.085179
O5	O	1.334700	0.512103	0.248154
O6	O	1.668034	0.845436	0.581488
O7	O	1.137984	0.068263	-0.085165
O8	O	1.471317	0.401596	0.248169
O9	O	1.804650	0.734929	0.581502
O10	O	1.141271	0.296123	-0.085181
O11	O	1.474605	0.629456	0.248153
O12	O	1.807938	0.962789	0.581486
O13	O	1.128183	0.076206	0.085264
O14	O	1.461516	0.409539	0.418598
O15	O	1.794849	0.742872	0.751931
O16	O	0.991566	0.186712	0.085250
O17	O	1.324899	0.520046	0.418583
O18	O	1.658233	0.853379	0.751916
O19	O	1.268087	0.193559	0.085263
O20	O	1.601420	0.526892	0.418596
O21	O	1.934754	0.860226	0.751929
Zn22	Zn	1.128270	0.191397	0.112315
Zn23	Zn	1.461604	0.524730	0.445649
Zn24	Zn	1.794937	0.858063	0.778982
Zn25	Zn	1.141184	0.180931	-0.112232
Zn26	Zn	1.474517	0.514265	0.221101
Zn27	Zn	1.807850	0.847598	0.554435
O28	O	1.131470	0.304066	0.085248
O29	O	1.464804	0.637399	0.418581
O30	O	1.798137	0.970732	0.751915
C31	C	0.960911	0.179746	0.000034
C32	C	1.294244	0.513079	0.333367
C33	C	1.627577	0.846412	0.666700
C34	C	0.854965	0.170812	0.000029
C35	C	1.188298	0.504145	0.333362
C36	C	1.521631	0.837479	0.666696
C37	C	0.608470	0.217839	0.000036
C38	C	0.941803	0.551172	0.333369
C39	C	1.275137	0.884506	0.666703
C40	C	0.660990	0.154492	0.000039
C41	C	0.994324	0.487826	0.333372
C42	C	1.327657	0.821159	0.666705
C43	C	0.768928	0.163575	0.000033
C44	C	1.102261	0.496908	0.333367
C45	C	1.435594	0.830241	0.666700
C46	C	0.500523	0.208758	0.000041
C47	C	0.833856	0.542091	0.333375
C48	C	1.167190	0.875424	0.666708
C49	C	1.130094	0.042897	0.000050
C50	C	1.463427	0.376230	0.333383
C51	C	1.796760	0.709563	0.666716
C52	C	1.121174	-0.044520	0.000049
C53	C	1.454508	0.288813	0.333382
C54	C	1.787841	0.622146	0.666715
C55	C	1.203063	-0.088904	0.000054
C56	C	1.536396	0.244429	0.333387
C57	C	1.869729	0.577763	0.666720
C58	C	1.194677	-0.171042	0.000044
C59	C	1.528010	0.162292	0.333377
C60	C	1.861344	0.495625	0.666710
C61	C	1.104402	-0.208794	0.000036
C62	C	1.437735	0.124539	0.333369
C63	C	1.771069	0.457872	0.666703
C64	C	1.022508	-0.164405	0.000028
C65	C	1.355841	0.168928	0.333361
C66	C	1.689174	0.502262	0.666695
C67	C	1.030895	-0.082269	0.000031
C68	C	1.364228	0.251064	0.333364
C69	C	1.697561	0.584398	0.666697
C70	C	1.074773	-0.456626	0.000021
C71	C	1.408106	-0.123293	0.333354
C72	C	1.741439	0.210040	0.666687
C73	C	1.066392	-0.538768	0.000021
C74	C	1.399725	-0.205435	0.333354
C75	C	1.733058	0.127898	0.666687
C76	C	1.238562	-0.545400	0.000035
C77	C	1.571896	-0.212066	0.333368
C78	C	1.905229	0.121267	0.666701
C79	C	1.246941	-0.463261	0.000043
C80	C	1.580274	-0.129928	0.333377
C81	C	1.913608	0.203405	0.666710
C82	C	1.165047	-0.418879	0.000030
C83	C	1.498380	-0.085546	0.333363
C84	C	1.831714	0.247787	0.666697
C85	C	1.095828	-0.292752	0.000029
C86	C	1.429161	0.040581	0.333362
C87	C	1.762495	0.373915	0.666695
C88	C	1.173622	-0.334923	0.000030
C89	C	1.506955	-0.001590	0.333363
C90	C	1.840289	0.331743	0.666697
C91	C	1.308543	0.192582	0.000048
C92	C	1.641877	0.525916	0.333381
C93	C	1.975210	0.859249	0.666714
C94	C	1.414490	0.201516	0.000046
C95	C	1.747823	0.534849	0.333379
C96	C	2.081157	0.868183	0.666712
C97	C	1.139361	0.329431	0.000032
C98	C	1.472694	0.662765	0.333365
C99	C	1.806027	0.996098	0.666698
C100	C	1.148280	0.416848	0.000026
C101	C	1.481613	0.750182	0.333359
C102	C	1.814947	1.083515	0.666692
N103	N	1.119464	0.198539	0.265563
N104	N	1.452798	0.531872	0.598896
N105	N	1.786131	0.865206	0.932230
N106	N	1.149997	0.173783	-0.265479
N107	N	1.483330	0.507117	0.067854
N108	N	1.816663	0.840450	0.401187
C109	C	1.107484	0.208264	0.474604
C110	C	1.440817	0.541597	0.807938
C111	C	1.774151	0.874930	1.141271
C112	C	1.161974	0.164061	0.525486
C113	C	1.495307	0.497395	0.858819
C114	C	1.828641	0.830728	1.192152
C115	C	1.155308	0.169472	0.641804
C116	C	1.488641	0.502805	0.975137
C117	C	1.821975	0.836139	1.308470
C118	C	1.114149	0.202854	0.358276
C119	C	1.447482	0.536187	0.691609
C120	C	1.780816	0.869520	1.024943
H121	H	0.644567	0.278888	0.000029
H122	H	0.977900	0.612221	0.333362
H123	H	1.311234	0.945554	0.666695
H124	H	1.055832	0.250168	0.518396
H125	H	1.389165	0.583501	0.851729
H126	H	1.722498	0.916835	1.185063
Br127	Br	1.325584	-0.037676	0.000079
Br128	Br	1.658917	0.295657	0.333412
Br129	Br	1.992251	0.628991	0.666746
H130	H	0.624896	0.093435	-0.000029
H131	H	0.958229	0.426769	0.333304
H132	H	1.291562	0.760102	0.666637
Br133	Br	1.305817	-0.231274	0.000050
Br134	Br	1.639150	0.102059	0.333383
Br135	Br	1.972483	0.435393	0.666717
H136	H	1.247125	-0.304183	0.000014
H137	H	1.580458	0.029150	0.333347
H138	H	1.913792	0.362484	0.666680
H139	H	1.320452	-0.432529	0.000050
H140	H	1.653786	-0.099196	0.333383
H141	H	1.987119	0.234137	0.666717
H142	H	1.213631	0.122155	0.481689
H143	H	1.546964	0.455489	0.815022
H144	H	1.880298	0.788822	1.148356
H145	H	1.305235	-0.581544	0.000043
H146	H	1.638569	-0.248211	0.333377
H147	H	1.971902	0.085123	0.666710
Br148	Br	0.963630	-0.396404	-0.000004
Br149	Br	1.296964	-0.063071	0.333329
Br150	Br	1.630297	0.270262	0.666663
Br151	Br	0.899991	-0.215640	0.000000
Br152	Br	1.233324	0.117693	0.333334
Br153	Br	1.566657	0.451026	0.666667
Br154	Br	0.943867	-0.590003	0.000021
Br155	Br	1.277200	-0.256670	0.333354
Br156	Br	1.610533	0.076664	0.666688
H157	H	1.022325	-0.323499	0.000025
H158	H	1.355659	0.009834	0.333358
H159	H	1.688992	0.343167	0.666691
Br160	Br	0.919757	-0.022033	0.000016
Br161	Br	1.253090	0.311300	0.333349
Br162	Br	1.586423	0.644634	0.666683
