data_functionalizedCrystal
_audit_creation_method	'MofGen! by Chris Wilmer'
_symmetry_space_group_name_H-M	'P1'
_symmetry_Int_Tables_number	1
_symmetry_cell_setting	triclinic
loop_
_symmetry_equiv_pos_as_xyz
  x,y,z
_cell_length_a	25.639242
_cell_length_b	14.908520
_cell_length_c	14.908308
_cell_angle_alpha	83.639235
_cell_angle_beta	93.269512
_cell_angle_gamma	86.683242
loop_
_atom_site_label
_atom_site_type_symbol
_atom_site_fract_x
_atom_site_fract_y
_atom_site_fract_z
Zn1	Zn	0.768447	0.389992	-0.532783
Zn2	Zn	0.768387	0.532637	-0.390154
Zn3	Zn	0.686369	0.381281	-0.381418
Zn4	Zn	0.675643	0.541296	-0.541436
O5	O	0.724712	0.461301	-0.461448
O6	O	0.841602	0.408935	-0.513898
O7	O	0.761972	0.505290	-0.262335
O8	O	0.701771	0.255773	-0.394220
O9	O	0.841558	0.513736	-0.409108
O10	O	0.762073	0.262172	-0.505427
O11	O	0.701713	0.394090	-0.255918
O12	O	0.611783	0.402486	-0.402610
O13	O	0.683490	0.528494	-0.666948
O14	O	0.603903	0.520048	-0.520175
O15	O	0.751672	0.417331	-0.660590
O16	O	0.751571	0.660449	-0.417499
O17	O	0.683432	0.666811	-0.528646
C18	C	0.716344	0.696474	-0.474979
C19	C	0.712812	0.797083	-0.480798
C20	C	0.588872	0.461262	-0.461384
C21	C	0.530758	0.461268	-0.461380
C22	C	0.716391	0.474850	-0.697529
C23	C	0.712845	0.480624	-0.798132
C24	C	0.166296	0.522609	-0.522615
C25	C	0.111691	0.522616	-0.522629
O26	O	0.079972	0.574723	-0.574639
N27	N	0.088470	0.461330	-0.461508
C28	C	0.119856	0.400027	-0.400375
O29	O	0.095091	0.347899	-0.348389
C30	C	0.174460	0.400017	-0.400365
C31	C	0.197679	0.461313	-0.461484
C32	C	0.189515	0.583900	-0.583729
C33	C	0.244116	0.583894	-0.583713
C34	C	0.275498	0.522598	-0.522583
C35	C	0.252280	0.461308	-0.461468
C36	C	0.205846	0.338711	-0.339237
C37	C	0.260453	0.338706	-0.339233
C38	C	0.283672	0.400002	-0.400352
C39	C	0.338264	0.400007	-0.400322
N40	N	0.361485	0.461293	-0.461443
C41	C	0.330102	0.522588	-0.522573
C42	C	0.005184	0.400052	-0.400401
C43	C	-0.049419	0.400065	-0.400405
C44	C	-0.057581	0.522653	-0.522661
C45	C	-0.002977	0.522643	-0.522651
C46	C	0.028405	0.461338	-0.461522
C47	C	0.444769	0.522573	-0.522534
C48	C	0.499376	0.522564	-0.522510
C49	C	0.507533	0.399974	-0.400258
C50	C	0.452931	0.399985	-0.400279
C51	C	0.421550	0.461288	-0.461424
O52	O	0.370015	0.347924	-0.348341
O53	O	0.354875	0.574700	-0.574558
C54	C	0.861081	0.461341	-0.461512
C55	C	0.919194	0.461359	-0.461539
C56	C	0.733125	0.225212	-0.447884
C57	C	0.736710	0.124604	-0.442103
C58	C	0.777192	0.979460	-0.376088
C59	C	0.773874	1.073991	-0.381553
C60	C	0.702862	1.080680	-0.497195
C61	C	0.706180	0.986148	-0.491731
C62	C	0.743345	0.935541	-0.431174
C63	C	0.746660	0.841008	-0.425706
C64	C	0.675651	0.847699	-0.541352
C65	C	0.672333	0.942230	-0.546817
C66	C	0.777180	0.375698	-0.980558
C67	C	0.773850	0.381120	-1.075084
C68	C	0.702853	0.496884	-1.081712
C69	C	0.706183	0.491462	-0.987186
C70	C	0.743348	0.430868	-0.936612
C71	C	0.746680	0.425452	-0.842085
C72	C	0.675682	0.541210	-0.848714
C73	C	0.672352	0.546632	-0.943240
C74	C	0.733032	0.447740	-0.226282
C75	C	0.736688	0.441712	-0.125664
H76	H	0.518277	0.572482	-0.572282
F77	F	0.639678	0.599937	-0.801938
H78	H	0.801436	1.109745	-0.336698
F79	F	0.038579	0.334803	-0.335328
F80	F	0.632783	0.996099	-0.611265
F81	F	0.639621	0.800951	-0.599973
H82	H	0.776942	0.376114	-0.800909
H83	H	0.672607	1.121901	-0.546503
F84	F	0.816737	0.311220	-0.926732
F85	F	0.809857	0.322400	-1.121851
F86	F	0.663300	0.561360	-1.135550
H87	H	0.419225	0.572489	-0.572327
F88	F	0.268819	0.649131	-0.648768
F89	F	0.816739	0.925597	-0.311629
F90	F	0.786212	0.787149	-0.361254
F91	F	0.156122	0.649144	-0.648799
F92	F	0.021729	0.587881	-0.587703
F93	F	0.632800	0.611115	-0.997073
H94	H	-0.083142	0.572561	-0.572440
F95	F	0.181147	0.273466	-0.274189
F96	F	0.293849	0.273454	-0.274170
F97	F	-0.074123	0.334836	-0.335344
H98	H	0.434026	0.350075	-0.350509
F99	F	0.540942	0.334742	-0.335202
