data_functionalizedCrystal
_audit_creation_method	'MofGen! by Chris Wilmer'
_symmetry_space_group_name_H-M	'P1'
_symmetry_Int_Tables_number	1
_symmetry_cell_setting	triclinic
loop_
_symmetry_equiv_pos_as_xyz
  x,y,z
_cell_length_a	12.759395
_cell_length_b	18.050589
_cell_length_c	12.759387
_cell_angle_alpha	90.029785
_cell_angle_beta	89.979491
_cell_angle_gamma	89.963765
loop_
_atom_site_label
_atom_site_type_symbol
_atom_site_fract_x
_atom_site_fract_y
_atom_site_fract_z
Zn1	Zn	1.606123	0.295590	-0.594012
Zn2	Zn	1.605952	0.419799	-0.418336
Zn3	Zn	1.430421	0.295630	-0.418349
Zn4	Zn	1.430352	0.419746	-0.593975
O5	O	1.518212	0.357691	-0.506168
O6	O	1.753121	0.312072	-0.570719
O7	O	1.582625	0.403367	-0.271317
O8	O	1.453828	0.191700	-0.441673
O9	O	1.752996	0.403327	-0.441650
O10	O	1.582916	0.191671	-0.570732
O11	O	1.453663	0.312141	-0.271326
O12	O	1.283391	0.312089	-0.441636
O13	O	1.453711	0.403237	-0.741001
O14	O	1.283340	0.403277	-0.570668
O15	O	1.582849	0.312020	-0.741029
O16	O	1.582558	0.523716	-0.441614
O17	O	1.453545	0.523678	-0.570655
C18	C	1.245244	0.357682	-0.506150
C19	C	1.128468	0.357696	-0.506167
C20	C	1.518054	0.550643	-0.506152
C21	C	1.518083	0.633189	-0.506180
C22	C	1.128453	0.452803	-0.640310
C23	C	1.073586	0.500362	-0.707385
C24	C	0.963864	0.500371	-0.707398
C25	C	0.909008	0.452814	-0.640331
C26	C	0.963876	0.405255	-0.573257
C27	C	1.073600	0.405253	-0.573249
C28	C	0.963890	0.310146	-0.439120
C29	C	1.073612	0.310139	-0.439101
C30	C	0.909034	0.262589	-0.372054
C31	C	0.963902	0.215032	-0.304972
C32	C	1.073630	0.215026	-0.304961
C33	C	1.128479	0.262580	-0.372026
C34	C	1.447963	0.832646	-0.576329
C35	C	1.422339	0.882094	-0.480460
C36	C	1.518162	0.784319	-0.506194
C37	C	1.543814	0.881953	-0.602074
C38	C	1.518236	0.930305	-0.506217
C39	C	1.492488	0.832681	-0.410275
C40	C	1.614008	0.832535	-0.531954
C41	C	1.588420	0.881961	-0.436019
C42	C	1.518116	0.700221	-0.506183
C43	C	1.518282	1.014401	-0.506217
C44	C	1.792245	0.357701	-0.506187
C45	C	1.909022	0.357705	-0.506195
C46	C	1.518359	1.163986	-0.506209
C47	C	1.518319	1.081440	-0.506230
C48	C	1.518291	0.357618	-0.780202
C49	C	1.518325	0.357587	-0.896979
C50	C	1.652806	0.262609	-0.897027
C51	C	1.720061	0.215109	-0.951912
C52	C	1.720086	0.215082	-1.061634
C53	C	1.652847	0.262559	-1.116473
C54	C	1.585592	0.310059	-1.061588
C55	C	1.585576	0.310082	-0.951864
C56	C	1.451108	0.405032	-1.061540
C57	C	1.451086	0.405064	-0.951818
C58	C	1.383869	0.452509	-1.116379
C59	C	1.316618	0.500013	-1.061494
C60	C	1.316596	0.500039	-0.951765
C61	C	1.383831	0.452564	-0.896933
C62	C	1.518193	0.357710	-0.233201
C63	C	1.518363	0.357532	-0.116425
H64	H	1.217795	0.452806	-0.640299
C65	C	0.903503	0.552685	-0.781180
C66	C	0.782813	0.552689	-0.781188
C67	C	0.722451	0.605002	-0.854970
C68	C	0.782779	0.657310	-0.928743
C69	C	0.903476	0.657307	-0.928738
C70	C	0.963838	0.604995	-0.854956
H71	H	0.738148	0.513966	-0.726575
H72	H	0.633103	0.605003	-0.854974
H73	H	0.738096	0.696034	-0.983361
H74	H	0.948141	0.696030	-0.983351
H75	H	1.053186	0.604993	-0.854952
C76	C	0.903561	0.162721	-0.231212
C77	C	0.963906	0.110406	-0.157428
C78	C	0.903560	0.058093	-0.083667
C79	C	0.782870	0.058094	-0.083690
C80	C	0.722519	0.110410	-0.157477
C81	C	0.782864	0.162724	-0.231238
H82	H	1.053254	0.110404	-0.157408
H83	H	0.948237	0.019365	-0.029045
H84	H	0.738199	0.019368	-0.029088
H85	H	0.633171	0.110413	-0.157497
H86	H	0.738187	0.201452	-0.285860
H87	H	0.819667	0.452820	-0.640357
H88	H	1.118262	0.539081	-0.761991
H89	H	0.819693	0.262596	-0.372073
C90	C	1.133980	0.162708	-0.231177
C91	C	1.209346	0.194805	-0.148597
C92	C	1.269691	0.142486	-0.074811
C93	C	1.254670	0.058069	-0.083605
C94	C	1.179301	0.025968	-0.166188
C95	C	1.118956	0.078287	-0.239974
H96	H	1.220468	0.257299	-0.142084
H97	H	1.325484	0.166250	-0.013678
H98	H	1.299341	0.019340	-0.028984
H99	H	1.168179	-0.036526	-0.172700
H100	H	1.063163	0.054523	-0.301107
H101	H	1.217821	0.262581	-0.372021
C102	C	1.242616	0.552294	-0.891395
C103	C	1.242587	0.552331	-0.770705
C104	C	1.168607	0.604587	-0.710340
C105	C	1.094656	0.656806	-0.770665
C106	C	1.094682	0.656771	-0.891362
C107	C	1.168662	0.604515	-0.951727
H108	H	1.297332	0.513673	-0.726043
H109	H	1.168588	0.604613	-0.620992
H110	H	1.039891	0.695489	-0.725979
H111	H	1.039937	0.695428	-0.936024
H112	H	1.168681	0.604489	-1.041075
H113	H	1.388521	0.810991	-0.635555
C114	C	1.242666	0.552232	-1.121821
C115	C	1.288150	0.610516	-1.197252
C116	C	1.214200	0.662737	-1.257587
C117	C	1.094767	0.656673	-1.242489
C118	C	1.049276	0.598387	-1.167054
C119	C	1.123226	0.546166	-1.106720
H120	H	1.376568	0.615007	-1.208432
H121	H	1.247876	0.705884	-1.313429
H122	H	1.040024	0.695330	-1.287152
H123	H	0.960859	0.593896	-1.155875
H124	H	1.089551	0.503019	-1.050878
C125	C	1.723430	0.803099	-0.561419
C126	C	1.771594	0.822467	-0.668632
C127	C	1.881016	0.793029	-0.698111
C128	C	1.942275	0.744222	-0.620379
C129	C	1.894112	0.724851	-0.513159
C130	C	1.784689	0.754289	-0.483679
H131	H	1.726246	0.858599	-0.726181
H132	H	1.916670	0.807369	-0.777483
H133	H	2.023276	0.722430	-0.642201
H134	H	1.939460	0.688719	-0.455610
H135	H	1.749036	0.739949	-0.404308
H136	H	1.341321	0.903879	-0.458693
H137	H	1.565482	0.903596	-0.683150
H138	H	1.470726	0.811127	-0.329177
C139	C	1.668651	0.911048	-0.355820
C140	C	1.656859	0.891434	-0.238968
C141	C	1.737080	0.920528	-0.158765
C142	C	1.829094	0.969236	-0.195413
C143	C	1.840890	0.988853	-0.312271
C144	C	1.760669	0.959759	-0.392474
H145	H	1.588741	0.855375	-0.211834
H146	H	1.728347	0.906006	-0.072259
H147	H	1.888478	0.990773	-0.136042
H148	H	1.909008	1.024912	-0.339405
H149	H	1.769402	0.974281	-0.478979
C150	C	1.794026	0.162890	-0.891589
C151	C	1.794012	0.162919	-0.770898
C152	C	1.867976	0.110700	-0.710580
C153	C	1.941955	0.058452	-0.770951
C154	C	1.941972	0.058422	-0.891648
C155	C	1.868008	0.110641	-0.951967
H156	H	1.739246	0.201597	-0.726202
H157	H	1.867963	0.110722	-0.621232
H158	H	1.996708	0.019796	-0.726300
H159	H	1.996738	0.019743	-0.936345
H160	H	1.868021	0.110618	-1.041315
H161	H	1.652801	0.262634	-0.807686
H162	H	1.774844	0.176399	-1.106321
H163	H	1.652865	0.262526	-1.205814
H164	H	1.383891	0.452480	-1.205720
H165	H	1.383824	0.452583	-0.807592
