data_functionalizedCrystal
_audit_creation_method	'MofGen! by Chris Wilmer'
_symmetry_space_group_name_H-M	'P1'
_symmetry_Int_Tables_number	1
_symmetry_cell_setting	triclinic
loop_
_symmetry_equiv_pos_as_xyz
  x,y,z
_cell_length_a	19.805407
_cell_length_b	19.805405
_cell_length_c	19.805399
_cell_angle_alpha	90.029301
_cell_angle_beta	90.019573
_cell_angle_gamma	90.026410
loop_
_atom_site_label
_atom_site_type_symbol
_atom_site_fract_x
_atom_site_fract_y
_atom_site_fract_z
Zn1	Zn	1.034736	-0.269479	0.382712
Zn2	Zn	1.534736	0.230521	0.882712
Zn3	Zn	1.034651	-0.382667	0.269520
Zn4	Zn	1.534651	0.117333	0.769520
Zn5	Zn	0.921550	-0.269498	0.269536
Zn6	Zn	1.421550	0.230502	0.769536
Zn7	Zn	0.921514	-0.382631	0.382667
Zn8	Zn	1.421514	0.117369	0.882667
O9	O	0.978113	-0.326069	0.326109
O10	O	1.478113	0.173931	0.826109
O11	O	1.129441	-0.284501	0.367708
O12	O	1.629441	0.215499	0.867708
O13	O	1.019627	-0.367678	0.174805
O14	O	1.519627	0.132322	0.674805
O15	O	0.936616	-0.174778	0.284575
O16	O	1.436616	0.325222	0.784575
O17	O	1.129378	-0.367660	0.284547
O18	O	1.629378	0.132340	0.784547
O19	O	1.019772	-0.174765	0.367724
O20	O	1.519772	0.325235	0.867724
O21	O	0.936533	-0.284533	0.174817
O22	O	1.436533	0.215467	0.674817
O23	O	0.826829	-0.284498	0.284531
O24	O	1.326829	0.215502	0.784531
O25	O	0.936553	-0.367598	0.477389
O26	O	1.436553	0.132402	0.977389
O27	O	0.826802	-0.367617	0.367648
O28	O	1.326802	0.132383	0.867648
O29	O	1.019737	-0.284466	0.477422
O30	O	1.519737	0.215534	0.977422
O31	O	1.019592	-0.477379	0.284503
O32	O	1.519592	0.022621	0.784503
O33	O	0.936471	-0.477353	0.367632
O34	O	1.436471	0.022647	0.867632
C35	C	0.802257	-0.326056	0.326087
C36	C	1.302257	0.173944	0.826087
C37	C	0.727025	-0.326067	0.326093
C38	C	1.227025	0.173933	0.826093
C39	C	0.691684	-0.369412	0.369302
C40	C	1.191684	0.130588	0.869302
C41	C	0.620996	-0.369413	0.369312
C42	C	1.120996	0.130587	0.869312
C43	C	0.585649	-0.326072	0.326109
C44	C	1.085649	0.173928	0.826109
C45	C	0.620994	-0.282722	0.282898
C46	C	1.120994	0.217278	0.782898
C47	C	0.691681	-0.282718	0.282892
C48	C	1.191681	0.217282	0.782892
C49	C	0.335921	-0.282737	0.282920
C50	C	0.835921	0.217263	0.782920
C51	C	0.265229	-0.282746	0.282928
C52	C	0.765229	0.217254	0.782928
C53	C	0.265235	-0.369432	0.369340
C54	C	0.765235	0.130568	0.869340
C55	C	0.335922	-0.369428	0.369334
C56	C	0.835922	0.130572	0.869334
C57	C	0.371262	-0.326076	0.326126
C58	C	0.871262	0.173924	0.826126
C59	C	0.447910	-0.326074	0.326117
C60	C	0.947910	0.173926	0.826117
C61	C	0.509002	-0.326076	0.326114
C62	C	1.009002	0.173924	0.826114
C63	C	0.978036	-0.501925	0.326076
C64	C	1.478036	-0.001925	0.826076
C65	C	0.978066	-0.577157	0.326084
C66	C	1.478066	-0.077157	0.826084
C67	C	1.021389	-0.612492	0.282845
C68	C	1.521389	-0.112492	0.782845
C69	C	1.021418	-0.683181	0.282860
C70	C	1.521418	-0.183181	0.782860
C71	C	0.978119	-0.718532	0.326111
C72	C	1.478119	-0.218532	0.826111
C73	C	0.934794	-0.683192	0.369356
C74	C	1.434794	-0.183192	0.869356
C75	C	0.934769	-0.612505	0.369344
C76	C	1.434769	-0.112505	0.869344
C77	C	0.934894	-0.968265	0.369406
C78	C	1.434894	-0.468265	0.869406
C79	C	0.934921	-1.038957	0.369413
C80	C	1.434921	-0.538957	0.869413
C81	C	1.021542	-1.038941	0.282922
C82	C	1.521542	-0.538941	0.782922
C83	C	1.021517	-0.968254	0.282910
C84	C	1.521517	-0.468254	0.782910
C85	C	0.978195	-0.932920	0.326157
C86	C	1.478195	-0.432920	0.826157
C87	C	0.978166	-0.856271	0.326141
C88	C	1.478166	-0.356271	0.826141
C89	C	0.978145	-0.795179	0.326124
C90	C	1.478145	-0.295179	0.826124
C91	C	1.154655	-0.326082	0.326131
C92	C	1.654655	0.173918	0.826131
C93	C	1.229887	-0.326088	0.326140
C94	C	1.729887	0.173912	0.826140
C95	C	0.978151	-0.326026	0.502651
C96	C	1.478151	0.173974	1.002651
C97	C	0.978167	-0.326008	0.577883
C98	C	1.478167	0.173992	1.077883
C99	C	0.978207	-0.149526	0.326156
C100	C	1.478207	0.350474	0.826156
C101	C	0.978248	-0.074294	0.326177
C102	C	1.478248	0.425706	0.826177
C103	C	0.978114	-0.326062	0.150253
C104	C	1.478114	0.173938	0.650253
C105	C	0.978229	-0.325890	0.075021
C106	C	1.478229	0.174110	0.575021
C107	C	1.021481	-0.282719	0.613246
C108	C	1.521481	0.217281	1.113246
C109	C	1.021488	-0.282699	0.683934
C110	C	1.521488	0.217301	1.183934
C111	C	0.978184	-0.325973	0.719259
C112	C	1.478184	0.174027	1.219259
C113	C	0.934864	-0.369264	0.683892
C114	C	1.434864	0.130736	1.183892
C115	C	0.934854	-0.369279	0.613204
C116	C	1.434854	0.130721	1.113204
C117	C	0.934902	-0.369201	0.968965
C118	C	1.434902	0.130799	1.468965
C119	C	0.934917	-0.369183	1.039657
C120	C	1.434917	0.130817	1.539657
C121	C	1.021536	-0.282620	1.039695
C122	C	1.521536	0.217380	1.539695
C123	C	1.021527	-0.282636	0.969008
C124	C	1.521527	0.217364	1.469008
C125	C	0.978205	-0.325924	0.933647
C126	C	1.478205	0.174076	1.433647
C127	C	0.978197	-0.325944	0.856998
C128	C	1.478197	0.174056	1.356998
C129	C	0.978194	-0.325957	0.795906
C130	C	1.478194	0.174043	1.295906
H131	H	0.236452	-0.247448	0.247747
H132	H	0.736452	0.252552	0.747747
H133	H	0.364686	-0.247442	0.247733
H134	H	0.864686	0.252558	0.747733
H135	H	0.592225	-0.404709	0.404496
H136	H	1.092225	0.095291	0.904496
H137	H	1.056792	-0.247400	0.940250
H138	H	1.556792	0.252600	1.440250
O139	O	1.063521	-0.717401	0.240791
O140	O	1.563521	-0.217401	0.740791
C141	C	1.101740	-0.671041	0.202622
C142	C	1.601740	-0.171041	0.702622
H143	H	1.073998	-0.620678	0.200245
H144	H	1.573998	-0.120678	0.700245
H145	H	1.153130	-0.663462	0.227451
H146	H	1.653130	-0.163462	0.727451
C147	C	1.145617	-0.760526	0.133517
C148	C	1.645617	-0.260526	0.633517
C149	C	1.111541	-0.698671	0.130593
C150	C	1.611541	-0.198671	0.630593
H151	H	1.151666	-0.777570	0.089087
H152	H	1.651666	-0.277570	0.589087
H153	H	1.119871	-0.791760	0.159233
H154	H	1.619871	-0.291760	0.659233
H155	H	1.188438	-0.754202	0.154211
H156	H	1.688438	-0.254202	0.654211
H157	H	1.068718	-0.704997	0.109907
H158	H	1.568718	-0.204997	0.609907
H159	H	1.137281	-0.667438	0.104872
H160	H	1.637281	-0.167438	0.604872
O161	O	0.892911	-0.411199	1.074078
O162	O	1.392911	0.088801	1.574078
C163	C	0.902203	-0.401891	1.144050
C164	C	1.402203	0.098109	1.644050
H165	H	0.954453	-0.379728	1.153715
H166	H	1.454453	0.120272	1.653715
H167	H	0.862081	-0.365838	1.164117
H168	H	1.362081	0.134162	1.664117
C169	C	0.831796	-0.497588	1.168451
C170	C	1.331796	0.002412	1.668451
C171	C	0.895973	-0.470371	1.180322
C172	C	1.395973	0.029629	1.680322
H173	H	0.827950	-0.539829	1.190827
H174	H	1.327950	-0.039829	1.690827
H175	H	0.825533	-0.503858	1.121309
H176	H	1.325533	-0.003858	1.621309
H177	H	0.798369	-0.467537	1.185173
H178	H	1.298369	0.032463	1.685173
H179	H	0.929399	-0.500418	1.163593
H180	H	1.429399	-0.000418	1.663593
H181	H	0.902241	-0.464108	1.227462
H182	H	1.402241	0.035892	1.727462
O183	O	0.892700	-0.411228	0.718173
O184	O	1.392700	0.088772	1.218173
C185	C	0.825247	-0.396446	0.700879
C186	C	1.325247	0.103554	1.200879
H187	H	0.821855	-0.342377	0.681465
H188	H	1.321855	0.157623	1.181465
H189	H	0.807529	-0.432740	0.659833
H190	H	1.307529	0.067260	1.159833
C191	C	0.784245	-0.470716	0.787506
C192	C	1.284245	0.029284	1.287506
C193	C	0.780079	-0.404306	0.763666
C194	C	1.280079	0.095694	1.263666
H195	H	0.756382	-0.475568	0.826235
H196	H	1.256382	0.024432	1.326235
H197	H	0.829690	-0.480678	0.799156
H198	H	1.329690	0.019322	1.299156
H199	H	0.769482	-0.500954	0.753295
H200	H	1.269482	-0.000954	1.253295
H201	H	0.794850	-0.374070	0.797874
H202	H	1.294850	0.125930	1.297874
H203	H	0.734636	-0.394339	0.752024
H204	H	1.234636	0.105661	1.252024
H205	H	0.364698	-0.404723	0.404512
H206	H	0.864698	0.095277	0.904512
H207	H	0.592209	-0.247430	0.247724
H208	H	1.092209	0.252570	0.747724
H209	H	0.720458	-0.404707	0.404481
H210	H	1.220458	0.095293	0.904481
O211	O	0.892792	-0.411305	0.934726
O212	O	1.392792	0.088695	1.434726
C213	C	0.854558	-0.449478	0.981065
C214	C	1.354558	0.050522	1.481065
H215	H	0.882298	-0.451826	1.031452
H216	H	1.382298	0.048174	1.531452
H217	H	0.803177	-0.424670	0.988593
H218	H	1.303177	0.075330	1.488593
C219	C	0.810661	-0.518629	0.891563
C220	C	1.310661	-0.018629	1.391563
C221	C	0.844733	-0.521519	0.953448
C222	C	1.344733	-0.021519	1.453448
H223	H	0.804597	-0.563067	0.874527
H224	H	1.304597	-0.063067	1.374527
H225	H	0.836417	-0.492910	0.860343
H226	H	1.336417	0.007090	1.360343
H227	H	0.767846	-0.497953	0.897845
H228	H	1.267846	0.002047	1.397845
H229	H	0.887550	-0.542187	0.947163
H230	H	1.387550	-0.042187	1.447163
H231	H	0.818984	-0.547243	0.984666
H232	H	1.318984	-0.047243	1.484666
H233	H	1.056809	-0.247370	1.068495
H234	H	1.556809	0.252630	1.568495
O235	O	1.063622	-1.073370	0.240990
O236	O	1.563622	-0.573370	0.740990
C237	C	1.054359	-1.143341	0.250268
C238	C	1.554359	-0.643341	0.750268
H239	H	1.032152	-1.152977	0.302479
H240	H	1.532152	-0.652977	0.802479
H241	H	1.018360	-1.163469	0.210083
H242	H	1.518360	-0.663469	0.710083
C243	C	1.150143	-1.167735	0.180032
C244	C	1.650143	-0.667735	0.680032
C245	C	1.122873	-1.179570	0.244160
C246	C	1.622873	-0.679570	0.744160
H247	H	1.192404	-1.190083	0.176261
H248	H	1.692404	-0.690083	0.676261
H249	H	1.156382	-1.120594	0.173779
H250	H	1.656382	-0.620594	0.673779
H251	H	1.120137	-1.184508	0.146551
H252	H	1.620137	-0.684508	0.646551
H253	H	1.152874	-1.162789	0.277639
H254	H	1.652874	-0.662789	0.777639
H255	H	1.116640	-1.226709	0.250418
H256	H	1.616640	-0.726709	0.750418
O257	O	0.892859	-0.411433	0.578877
O258	O	1.392859	0.088567	1.078877
C259	C	0.907612	-0.478888	0.596146
C260	C	1.407612	0.021112	1.096146
H261	H	0.961683	-0.482299	0.615594
H262	H	1.461683	0.017701	1.115594
H263	H	0.871317	-0.496574	0.637159
H264	H	1.371317	0.003426	1.137159
C265	C	0.833305	-0.519882	0.509449
C266	C	1.333305	-0.019882	1.009449
C267	C	0.899718	-0.524073	0.533330
C268	C	1.399718	-0.024073	1.033330
H269	H	0.828432	-0.547756	0.470702
H270	H	1.328432	-0.047756	0.970702
H271	H	0.823363	-0.474437	0.497816
H272	H	1.323363	0.025563	0.997816
H273	H	0.803067	-0.534620	0.543632
H274	H	1.303067	-0.034620	1.043632
H275	H	0.929954	-0.509328	0.499150
H276	H	1.429954	-0.009328	0.999150
H277	H	0.909665	-0.569517	0.544956
H278	H	1.409665	-0.069517	1.044956
H279	H	0.899492	-0.583735	0.404555
H280	H	1.399492	-0.083735	0.904555
H281	H	0.236454	-0.404729	0.404524
H282	H	0.736454	0.095271	0.904524
O283	O	1.063631	-0.240629	0.718180
O284	O	1.563631	0.259371	1.218180
C285	C	1.101842	-0.202430	0.671844
C286	C	1.601842	0.297570	1.171844
H287	H	1.104161	-0.230167	0.621449
H288	H	1.604161	0.269833	1.121449
H289	H	1.077087	-0.151022	0.664334
H290	H	1.577087	0.348978	1.164334
C291	C	1.171041	-0.158613	0.761345
C292	C	1.671041	0.341387	1.261345
C293	C	1.173894	-0.192683	0.699450
C294	C	1.673894	0.307317	1.199450
H295	H	1.215485	-0.152597	0.778374
H296	H	1.715485	0.347403	1.278374
H297	H	1.145296	-0.184346	0.792563
H298	H	1.645296	0.315654	1.292563
H299	H	1.150409	-0.115777	0.755078
H300	H	1.650409	0.384223	1.255078
H301	H	1.194518	-0.235521	0.705719
H302	H	1.694518	0.264479	1.205719
H303	H	1.199644	-0.166957	0.668234
H304	H	1.699644	0.333043	1.168234
O305	O	0.725909	-0.240595	0.240851
O306	O	1.225909	0.259405	0.740851
C307	C	0.679555	-0.202331	0.202730
C308	C	1.179555	0.297669	0.702730
H309	H	0.629154	-0.230054	0.200341
H310	H	1.129154	0.269946	0.700341
H311	H	0.672070	-0.150957	0.227608
H312	H	1.172070	0.349043	0.727608
C313	C	0.769019	-0.158434	0.133642
C314	C	1.269019	0.341566	0.633642
C315	C	0.707117	-0.192486	0.130703
C316	C	1.207117	0.307514	0.630703
H317	H	0.786022	-0.152358	0.089213
H318	H	1.286022	0.347642	0.589213
H319	H	0.800249	-0.184210	0.159326
H320	H	1.300249	0.315790	0.659326
H321	H	0.762773	-0.115626	0.154376
H322	H	1.262773	0.384374	0.654376
H323	H	0.713366	-0.235296	0.109976
H324	H	1.213366	0.264704	0.609976
H325	H	0.675889	-0.166716	0.105013
H326	H	1.175889	0.333284	0.605013
O327	O	1.063352	-0.578124	0.240757
O328	O	1.563352	-0.078124	0.740757
C329	C	1.024830	-0.537284	0.197007
C330	C	1.524830	-0.037284	0.697007
H331	H	0.971531	-0.558633	0.192779
H332	H	1.471531	-0.058633	0.692779
H333	H	1.022467	-0.483699	0.217923
H334	H	1.522467	0.016301	0.717923
C335	C	1.123402	-0.510000	0.131869
C336	C	1.623402	-0.010000	0.631869
C337	C	1.057942	-0.536224	0.126671
C338	C	1.557942	-0.036224	0.626671
H339	H	1.143828	-0.509343	0.088483
H340	H	1.643828	-0.009343	0.588483
H341	H	1.149356	-0.537512	0.161345
H342	H	1.649356	-0.037512	0.661345
H343	H	1.121424	-0.465348	0.149301
H344	H	1.621424	0.034652	0.649301
H345	H	1.059921	-0.580877	0.109247
H346	H	1.559921	-0.080877	0.609247
H347	H	1.031989	-0.508719	0.097190
H348	H	1.531989	-0.008719	0.597190
H349	H	1.056773	-0.939473	0.247688
H350	H	1.556773	-0.439473	0.747688
O351	O	0.892739	-0.934052	0.411426
O352	O	1.392739	-0.434052	0.911426
C353	C	0.854537	-0.980415	0.449607
C354	C	1.354537	-0.480415	0.949607
H355	H	0.852238	-1.030824	0.421889
H356	H	1.352238	-0.530824	0.921889
H357	H	0.879286	-0.987875	0.501042
H358	H	1.379286	-0.487875	1.001042
C359	C	0.785303	-0.890974	0.493321
C360	C	1.285303	-0.390974	0.993321
C361	C	0.782475	-0.952885	0.459275
C362	C	1.282475	-0.452885	0.959275
H363	H	0.740853	-0.873991	0.499288
H364	H	1.240853	-0.373991	0.999288
H365	H	0.811042	-0.859737	0.467600
H366	H	1.311042	-0.359737	0.967600
H367	H	0.805931	-0.897199	0.536180
H368	H	1.305931	-0.397199	1.036180
H369	H	0.761855	-0.946658	0.416414
H370	H	1.261855	-0.446658	0.916414
H371	H	0.756731	-0.984120	0.484989
H372	H	1.256731	-0.484120	0.984989
O373	O	0.892885	-1.073404	0.411372
O374	O	1.392885	-0.573404	0.911372
C375	C	0.902210	-1.143370	0.402117
C376	C	1.402210	-0.643370	0.902117
H377	H	0.924405	-1.153038	0.349901
H378	H	1.424405	-0.653038	0.849901
H379	H	0.938244	-1.163375	0.442295
H380	H	1.438244	-0.663375	0.942295
C381	C	0.806477	-1.167844	0.472401
C382	C	1.306477	-0.667844	0.972401
C383	C	0.833732	-1.179718	0.408266
C384	C	1.333732	-0.679718	0.908266
H385	H	0.764238	-1.190266	0.476197
H386	H	1.264238	-0.690266	0.976197
H387	H	0.800196	-1.120706	0.478638
H388	H	1.300196	-0.620706	0.978638
H389	H	0.836512	-1.184514	0.505876
H390	H	1.336512	-0.684514	1.005876
H391	H	0.803702	-1.163040	0.374793
H392	H	1.303702	-0.663040	0.874793
H393	H	0.840007	-1.226854	0.402023
H394	H	1.340007	-0.726854	0.902023
O395	O	0.892807	-0.717501	0.411469
O396	O	1.392807	-0.217501	0.911469
C397	C	0.907543	-0.700159	0.478938
C398	C	1.407543	-0.200159	0.978938
H399	H	0.961607	-0.680681	0.482403
H400	H	1.461607	-0.180681	0.982403
H401	H	0.871230	-0.659146	0.496592
H402	H	1.371230	-0.159146	0.996592
C403	C	0.833261	-0.786853	0.519857
C404	C	1.333261	-0.286853	1.019857
C405	C	0.899665	-0.762935	0.524113
C406	C	1.399665	-0.262935	1.024113
H407	H	0.828399	-0.825575	0.547724
H408	H	1.328399	-0.325575	1.047724
H409	H	0.823331	-0.798535	0.474402
H410	H	1.323331	-0.298535	0.974402
H411	H	0.803008	-0.752670	0.534567
H412	H	1.303008	-0.252670	1.034567
H413	H	0.929916	-0.797115	0.509395
H414	H	1.429916	-0.297115	1.009395
H415	H	0.909600	-0.751260	0.569567
H416	H	1.409600	-0.251260	1.069567
O417	O	1.063453	-0.240646	0.578861
O418	O	1.563453	0.259354	1.078861
C419	C	1.024933	-0.196925	0.537992
C420	C	1.524933	0.303075	1.037992
H421	H	0.973627	-0.220798	0.527383
H422	H	1.473627	0.279202	1.027383
H423	H	1.017523	-0.146761	0.565251
H424	H	1.517523	0.353239	1.065251
C425	C	1.125187	-0.155359	0.483890
C426	C	1.625187	0.344641	0.983890
C427	C	1.062173	-0.184683	0.470855
C428	C	1.562173	0.315317	0.970855
H429	H	1.148159	-0.147805	0.442478
H430	H	1.648159	0.352195	0.942478
H431	H	1.151139	-0.184813	0.511426
H432	H	1.651139	0.315187	1.011426
H433	H	1.119003	-0.113559	0.506607
H434	H	1.619003	0.386441	1.006607
H435	H	1.068358	-0.226486	0.448146
H436	H	1.568358	0.273514	0.948146
H437	H	1.036223	-0.155236	0.443313
H438	H	1.536223	0.344764	0.943313
