data_functionalizedCrystal
_audit_creation_method	'MofGen! by Chris Wilmer'
_symmetry_space_group_name_H-M	'P1'
_symmetry_Int_Tables_number	1
_symmetry_cell_setting	triclinic
loop_
_symmetry_equiv_pos_as_xyz
  x,y,z
_cell_length_a	16.974959
_cell_length_b	16.974800
_cell_length_c	15.455313
_cell_angle_alpha	89.026089
_cell_angle_beta	83.692525
_cell_angle_gamma	83.162696
loop_
_atom_site_label
_atom_site_type_symbol
_atom_site_fract_x
_atom_site_fract_y
_atom_site_fract_z
O1	O	-0.101131	-1.048632	0.008597
O2	O	0.232203	-0.715299	0.341930
O3	O	0.565536	-0.381966	0.675264
O4	O	-0.113246	-0.819147	-0.006671
O5	O	0.220087	-0.485813	0.326663
O6	O	0.553420	-0.152480	0.659996
O7	O	0.008284	-0.940666	-0.006650
O8	O	0.341617	-0.607333	0.326683
O9	O	0.674951	-0.273999	0.660017
O10	O	-0.222661	-0.927113	0.008577
O11	O	0.110672	-0.593780	0.341910
O12	O	0.444006	-0.260447	0.675243
O13	O	0.001363	-0.933717	0.137609
O14	O	0.334696	-0.600384	0.470942
O15	O	0.668030	-0.267050	0.804276
O16	O	-0.120167	-0.812198	0.137588
O17	O	0.213166	-0.478865	0.470922
O18	O	0.546500	-0.145531	0.804255
O19	O	-0.108052	-1.041684	0.152856
O20	O	0.225282	-0.708350	0.486189
O21	O	0.558615	-0.375017	0.819523
Cu22	Cu	-0.114741	-0.926306	0.158394
Cu23	Cu	0.218592	-0.592973	0.491728
Cu24	Cu	0.551925	-0.259640	0.825061
Cu25	Cu	-0.106557	-0.934524	-0.012209
Cu26	Cu	0.226777	-0.601191	0.321125
Cu27	Cu	0.560110	-0.267857	0.654458
O28	O	-0.229582	-0.920165	0.152835
O29	O	0.103751	-0.586831	0.486169
O30	O	0.437085	-0.253498	0.819502
C31	C	-0.116119	-0.786316	0.063356
C32	C	0.217214	-0.452982	0.396689
C33	C	0.550548	-0.119649	0.730023
C34	C	-0.114359	-0.698842	0.057089
C35	C	0.218975	-0.365508	0.390423
C36	C	0.552308	-0.032175	0.723756
C37	C	0.034381	-0.936802	0.063380
C38	C	0.367715	-0.603469	0.396713
C39	C	0.701048	-0.270135	0.730046
C40	C	0.122454	-0.935633	0.057122
C41	C	0.455788	-0.602299	0.390456
C42	C	0.789121	-0.268966	0.723789
C43	C	-0.105179	-1.074515	0.082828
C44	C	0.228155	-0.741182	0.416161
C45	C	0.561488	-0.407848	0.749494
C46	C	-0.106939	-1.161989	0.089089
C47	C	0.226394	-0.828656	0.422422
C48	C	0.559728	-0.495322	0.755755
C49	C	-0.255679	-0.924028	0.082804
C50	C	0.077654	-0.590695	0.416137
C51	C	0.410987	-0.257362	0.749471
C52	C	-0.343752	-0.925198	0.089056
C53	C	-0.010418	-0.591865	0.422389
C54	C	0.322915	-0.258532	0.755722
C55	C	0.618628	-0.929532	0.013369
C56	C	0.951961	-0.596198	0.346702
C57	C	1.285295	-0.262865	0.680036
C58	C	0.535872	-0.930622	0.019265
C59	C	0.869206	-0.597289	0.352599
C60	C	1.202539	-0.263956	0.685932
C61	C	0.490738	-0.927373	0.100849
C62	C	0.824071	-0.594040	0.434182
C63	C	1.157404	-0.260707	0.767516
C64	C	0.528364	-0.923042	0.176541
C65	C	0.861697	-0.589708	0.509875
C66	C	1.195030	-0.256375	0.843208
C67	C	0.611119	-0.921957	0.170645
C68	C	0.944452	-0.588624	0.503978
C69	C	1.277785	-0.255290	0.837311
C70	C	0.242835	-0.930216	0.126918
C71	C	0.576168	-0.596883	0.460251
C72	C	0.909502	-0.263550	0.793585
C73	C	0.160074	-0.931299	0.132809
C74	C	0.493408	-0.597966	0.466142
C75	C	0.826741	-0.264632	0.799476
C76	C	0.167589	-0.938881	-0.024468
C77	C	0.500922	-0.605547	0.308866
C78	C	0.834256	-0.272214	0.642199
C79	C	0.250344	-0.937791	-0.030358
C80	C	0.583678	-0.604458	0.302976
C81	C	0.917011	-0.271124	0.636309
C82	C	0.287964	-0.933464	0.045335
C83	C	0.621297	-0.600130	0.378668
C84	C	0.954630	-0.266797	0.712002
N85	N	0.406148	-0.928485	0.106878
N86	N	0.739481	-0.595152	0.440211
N87	N	1.072815	-0.261819	0.773545
N88	N	0.372553	-0.932357	0.039305
N89	N	0.705886	-0.599024	0.372639
N90	N	1.039220	-0.265691	0.705972
N91	N	-0.120498	-0.920532	0.278387
N92	N	0.212836	-0.587199	0.611721
N93	N	0.546169	-0.253865	0.945054
C94	C	-0.117302	-0.653963	0.132783
C95	C	0.216031	-0.320630	0.466116
C96	C	0.549364	0.012704	0.799449
C97	C	-0.115636	-0.571774	0.126896
C98	C	0.217698	-0.238440	0.460229
C99	C	0.551031	0.094893	0.793563
C100	C	-0.111031	-0.534464	0.045316
C101	C	0.222302	-0.201130	0.378649
C102	C	0.555636	0.132203	0.711982
C103	C	-0.108085	-0.579348	-0.030383
C104	C	0.225249	-0.246015	0.302950
C105	C	0.558582	0.087318	0.636283
C106	C	-0.109746	-0.661537	-0.024496
C107	C	0.223588	-0.328204	0.308837
C108	C	0.556921	0.005130	0.642170
C109	C	-0.105654	-0.289063	0.019276
C110	C	0.227680	0.044271	0.352610
C111	C	0.561013	0.377604	0.685943
C112	C	-0.103995	-0.206868	0.013395
C113	C	0.229338	0.126466	0.346729
C114	C	0.562671	0.459799	0.680062
C115	C	-0.111545	-0.199299	0.170675
C116	C	0.221789	0.134035	0.504009
C117	C	0.555122	0.467368	0.837342
C118	C	-0.113210	-0.281489	0.176555
C119	C	0.220123	0.051845	0.509889
C120	C	0.553456	0.385178	0.843222
C121	C	-0.110260	-0.326367	0.100856
C122	C	0.223074	0.006966	0.434189
C123	C	0.556407	0.340300	0.767523
N124	N	-0.109330	-0.450452	0.039297
N125	N	0.224003	-0.117119	0.372630
N126	N	0.557337	0.216214	0.705964
N127	N	-0.111955	-0.410377	0.106875
N128	N	0.221378	-0.077044	0.440209
N129	N	0.554712	0.256289	0.773542
N130	N	-0.100794	-0.940305	-0.132202
N131	N	0.232539	-0.606971	0.201131
N132	N	0.565873	-0.273638	0.534465
C133	C	-0.068886	-0.972175	0.323793
C134	C	0.264447	-0.638842	0.657126
C135	C	0.597780	-0.305509	0.990460
C136	C	-0.073247	-0.967816	0.414600
C137	C	0.260086	-0.634482	0.747933
C138	C	0.593420	-0.301149	1.081267
C139	C	-0.129223	-0.911816	0.460001
C140	C	0.204110	-0.578483	0.793334
C141	C	0.537443	-0.245149	1.126667
C142	C	-0.180837	-0.860167	0.414589
C143	C	0.152497	-0.526834	0.747922
C144	C	0.485830	-0.193501	1.081255
C145	C	-0.176472	-0.864524	0.323783
C146	C	0.156862	-0.531190	0.657116
C147	C	0.490195	-0.197857	0.990449
C148	C	-0.148043	-0.893012	0.731580
C149	C	0.185291	-0.559679	1.064913
C150	C	0.518624	-0.226346	1.398247
C151	C	-0.152405	-0.888661	0.822393
C152	C	0.180928	-0.555328	1.155726
C153	C	0.514261	-0.221995	1.489059
C154	C	-0.044814	-0.996309	0.822398
C155	C	0.288519	-0.662976	1.155731
C156	C	0.621853	-0.329643	1.489064
C157	C	-0.040457	-1.000664	0.731590
C158	C	0.292876	-0.667331	1.064924
C159	C	0.626209	-0.333997	1.398257
C160	C	-0.092068	-0.949012	0.686186
C161	C	0.241265	-0.615679	1.019519
C162	C	0.574599	-0.282346	1.352852
N163	N	-0.133683	-0.907360	0.552820
N164	N	0.199650	-0.574027	0.886154
N165	N	0.532983	-0.240693	1.219487
N166	N	-0.087603	-0.953465	0.593367
N167	N	0.245730	-0.620132	0.926700
N168	N	0.579063	-0.286798	1.260034
H169	H	0.655370	-0.932170	-0.053066
H170	H	0.988704	-0.598837	0.280267
H171	H	1.322037	-0.265503	0.613601
C172	C	0.011960	-1.053116	0.872349
C173	C	0.345294	-0.719782	1.205682
C174	C	0.678627	-0.386449	1.539016
N175	N	0.054728	-1.095902	0.909972
N176	N	0.388061	-0.762568	1.243306
N177	N	0.721395	-0.429235	1.576639
H178	H	0.505246	-0.934153	-0.042367
H179	H	0.838580	-0.600819	0.290967
H180	H	1.171913	-0.267486	0.624300
C181	C	-0.118271	-0.322524	0.266300
C182	C	0.215062	0.010809	0.599633
C183	C	0.548395	0.344143	0.932967
N184	N	-0.122085	-0.353431	0.333897
N185	N	0.211249	-0.020098	0.667230
N186	N	0.544582	0.313235	1.000564
C187	C	0.110428	-0.927732	0.222562
C188	C	0.443762	-0.594399	0.555895
C189	C	0.777095	-0.261065	0.889228
N190	N	0.073035	-0.925046	0.290160
N191	N	0.406368	-0.591713	0.623493
N192	N	0.739702	-0.258379	0.956827
H193	H	0.273455	-0.926694	0.188553
H194	H	0.606788	-0.593360	0.521886
H195	H	0.940121	-0.260027	0.855219
C196	C	-0.242404	-0.798559	0.464532
C197	C	0.090929	-0.465226	0.797865
C198	C	0.424263	-0.131893	1.131198
N199	N	-0.288777	-0.752155	0.502148
N200	N	0.044556	-0.418821	0.835481
N201	N	0.377889	-0.085488	1.168814
C202	C	0.478712	-0.919464	0.266284
C203	C	0.812045	-0.586131	0.599618
C204	C	1.145379	-0.252797	0.932951
N205	N	0.441314	-0.916764	0.333880
N206	N	0.774648	-0.583431	0.667214
N207	N	1.107981	-0.250098	1.000547
H208	H	0.287089	-0.940442	-0.096791
H209	H	0.620422	-0.607109	0.236542
H210	H	0.953755	-0.273775	0.569875
C211	C	-0.114782	-0.149927	0.253938
C212	C	0.218551	0.183406	0.587272
C213	C	0.551885	0.516739	0.920605
N214	N	-0.117216	-0.112741	0.316655
N215	N	0.216117	0.220592	0.649989
N216	N	0.549450	0.553926	0.983322
H217	H	0.641747	-0.918428	0.232277
H218	H	0.975081	-0.585094	0.565610
H219	H	1.308414	-0.251761	0.898943
H220	H	-0.100248	-0.176492	-0.053041
H221	H	0.233086	0.156841	0.280293
H222	H	0.566419	0.490174	0.613626
H223	H	-0.104330	-0.548965	-0.096808
H224	H	0.229003	-0.215631	0.236525
H225	H	0.562337	0.117702	0.569858
C226	C	-0.204920	-0.836295	0.681661
C227	C	0.128414	-0.502962	1.014995
C228	C	0.461747	-0.169629	1.348328
N229	N	-0.247799	-0.793610	0.644065
N230	N	0.085534	-0.460276	0.977398
N231	N	0.418867	-0.126943	1.310731
H232	H	-0.121059	-0.684334	0.199215
H233	H	0.212275	-0.351000	0.532548
H234	H	0.545608	-0.017667	0.865881
H235	H	-0.103248	-0.325593	-0.042364
H236	H	0.230085	0.007740	0.290970
H237	H	0.563418	0.341073	0.624303
H238	H	-0.118020	-0.535239	0.188533
H239	H	0.215314	-0.201905	0.521866
H240	H	0.548647	0.131428	0.855200
C241	C	0.021125	-1.062264	0.681656
C242	C	0.354458	-0.728931	1.014989
C243	C	0.687792	-0.395597	1.348322
N244	N	0.067509	-1.108662	0.644045
N245	N	0.400843	-0.775329	0.977378
N246	N	0.734176	-0.441996	1.310712
C247	C	-0.106509	-0.710903	-0.107765
C248	C	0.226824	-0.377570	0.225568
C249	C	0.560157	-0.044236	0.558902
N250	N	-0.104069	-0.748085	-0.170486
N251	N	0.229264	-0.414752	0.162847
N252	N	0.562598	-0.081418	0.496181
H253	H	-0.218498	-0.822469	0.286814
H254	H	0.114835	-0.489136	0.620148
H255	H	0.448168	-0.155803	0.953481
H256	H	-0.023308	-1.017779	0.286834
H257	H	0.310025	-0.684446	0.620168
H258	H	0.643359	-0.351113	0.953501
H259	H	-0.031221	-1.009867	0.451569
H260	H	0.302113	-0.676534	0.784902
H261	H	0.635446	-0.343201	1.118235
H262	H	0.136950	-0.942405	-0.086092
H263	H	0.470284	-0.609071	0.247241
H264	H	0.803617	-0.275738	0.580574
H265	H	-0.197991	-0.843057	0.859354
H266	H	0.135342	-0.509724	1.192687
H267	H	0.468675	-0.176391	1.526020
