data_functionalizedCrystal
_audit_creation_method	'MofGen! by Chris Wilmer'
_symmetry_space_group_name_H-M	'P1'
_symmetry_Int_Tables_number	1
_symmetry_cell_setting	triclinic
loop_
_symmetry_equiv_pos_as_xyz
  x,y,z
_cell_length_a	12.759401
_cell_length_b	12.759400
_cell_length_c	12.759393
_cell_angle_alpha	89.969510
_cell_angle_beta	89.979062
_cell_angle_gamma	90.016209
loop_
_atom_site_label
_atom_site_type_symbol
_atom_site_fract_x
_atom_site_fract_y
_atom_site_fract_z
Zn1	Zn	1.606266	-0.418173	-0.594020
Zn2	Zn	1.606158	-0.593888	-0.418340
Zn3	Zn	1.430565	-0.418229	-0.418355
Zn4	Zn	1.430557	-0.593815	-0.593978
O5	O	1.518387	-0.506026	-0.506173
O6	O	1.753273	-0.441489	-0.570727
O7	O	1.582823	-0.570641	-0.271321
O8	O	1.453921	-0.271200	-0.441682
O9	O	1.753193	-0.570587	-0.441656
O10	O	1.583008	-0.271159	-0.570742
O11	O	1.453816	-0.441584	-0.271332
O12	O	1.283543	-0.441513	-0.441640
O13	O	1.453908	-0.570461	-0.741004
O14	O	1.283537	-0.570516	-0.570669
O15	O	1.583000	-0.441418	-0.741036
O16	O	1.582815	-0.740900	-0.441615
O17	O	1.453802	-0.740846	-0.570655
C18	C	1.245419	-0.506013	-0.506152
C19	C	1.128643	-0.506033	-0.506168
C20	C	1.073805	-0.573307	-0.573248
C21	C	0.964081	-0.573311	-0.573269
C22	C	0.964042	-0.438764	-0.439122
C23	C	1.073764	-0.438756	-0.439107
C24	C	1.518324	-0.778994	-0.506151
C25	C	1.518394	-0.895770	-0.506177
C26	C	1.585645	-0.950625	-0.439060
C27	C	1.585710	-1.060349	-0.439093
C28	C	1.451262	-1.060353	-0.573362
C29	C	1.451204	-0.950631	-0.573334
C30	C	1.652835	-0.895764	-0.371904
C31	C	1.720091	-0.950619	-0.304781
C32	C	1.720156	-1.060343	-0.304813
C33	C	1.652964	-1.115212	-0.371969
C34	C	1.792420	-0.506040	-0.506195
C35	C	1.909197	-0.506046	-0.506204
C36	C	1.518465	-0.505925	-0.780207
C37	C	1.518499	-0.505882	-0.896984
C38	C	1.518478	-0.231993	-0.506218
C39	C	1.518517	-0.115216	-0.506238
C40	C	1.585722	-0.438679	-0.951864
C41	C	1.585740	-0.438633	-1.061588
C42	C	1.451308	-0.573004	-1.061542
C43	C	1.451285	-0.573044	-0.951820
C44	C	1.518369	-0.506051	-0.233206
C45	C	1.518539	-0.505798	-0.116430
H46	H	0.919437	-0.628090	-0.627893
H47	H	1.118484	-0.628086	-0.627857
H48	H	1.396587	-0.627687	-1.106203
O49	O	1.386025	-1.113812	-0.638487
C50	C	1.400515	-1.222418	-0.624136
H51	H	1.434975	-1.237437	-0.543091
H52	H	1.456448	-1.253463	-0.686511
C53	C	1.251915	-1.260386	-0.733223
C54	C	1.294230	-1.278832	-0.633678
H55	H	1.186355	-1.295186	-0.739113
H56	H	1.242154	-1.187216	-0.742895
H57	H	1.298535	-1.286256	-0.785191
H58	H	1.247617	-1.252950	-0.581713
H59	H	1.303981	-1.351999	-0.623997
H60	H	1.640449	-0.383989	-0.907219
H61	H	0.919346	-0.383991	-0.384521
H62	H	1.396442	-0.905968	-0.627988
H63	H	1.118414	-0.383967	-0.384482
H64	H	1.396536	-0.627768	-0.907136
O65	O	1.785261	-0.897163	-0.239586
C66	C	1.770804	-0.788556	-0.253965
H67	H	1.689699	-0.773611	-0.288299
H68	H	1.833076	-0.757319	-0.309958
C69	C	1.880068	-0.750659	-0.105484
C70	C	1.780449	-0.732303	-0.147646
H71	H	1.886022	-0.715958	-0.039903
H72	H	1.889812	-0.823830	-0.095799
H73	H	1.931950	-0.724628	-0.152155
H74	H	1.728570	-0.758346	-0.100981
H75	H	1.770697	-0.659135	-0.157321
O76	O	1.785521	-1.113469	-0.239519
C77	C	1.844828	-1.041514	-0.180263
H78	H	1.801751	-0.963341	-0.176569
H79	H	1.924596	-1.029745	-0.218799
C80	C	1.912954	-1.180426	-0.073007
C81	C	1.860042	-1.084415	-0.068462
H82	H	1.922344	-1.206890	-0.004044
H83	H	1.873002	-1.228905	-0.112930
H84	H	1.979422	-1.170606	-0.105125
H85	H	1.793571	-1.094239	-0.036357
H86	H	1.899984	-1.035939	-0.028530
O87	O	1.651143	-0.373321	-1.114735
C88	C	1.710437	-0.314035	-1.042802
H89	H	1.714043	-0.357100	-0.964583
H90	H	1.671993	-0.234243	-1.031136
C91	C	1.817840	-0.245994	-1.181715
C92	C	1.822277	-0.298892	-1.085648
H93	H	1.886827	-0.236648	-1.208145
H94	H	1.777890	-0.285932	-1.230179
H95	H	1.785799	-0.179506	-1.171980
H96	H	1.854305	-0.365383	-1.095386
H97	H	1.862235	-0.258964	-1.037187
H98	H	1.652787	-0.806421	-0.371867
H99	H	1.653031	-1.204557	-0.371998
