data_functionalizedCrystal
_audit_creation_method	'MofGen! by Chris Wilmer'
_symmetry_space_group_name_H-M	'P1'
_symmetry_Int_Tables_number	1
_symmetry_cell_setting	triclinic
loop_
_symmetry_equiv_pos_as_xyz
  x,y,z
_cell_length_a	12.837943
_cell_length_b	13.339070
_cell_length_c	11.295483
_cell_angle_alpha	95.212346
_cell_angle_beta	85.461227
_cell_angle_gamma	105.229117
loop_
_atom_site_label
_atom_site_type_symbol
_atom_site_fract_x
_atom_site_fract_y
_atom_site_fract_z
O1	O	1.458416	0.264173	-0.098995
O2	O	1.152768	0.250811	-0.099002
O3	O	1.270513	0.106847	-0.098996
O4	O	1.340670	0.408137	-0.099001
O5	O	1.260165	0.119470	0.099055
O6	O	1.142420	0.263434	0.099048
O7	O	1.448068	0.276796	0.099056
Cu8	Cu	1.294299	0.271267	0.117135
Cu9	Cu	1.306537	0.256339	-0.117082
O10	O	1.330322	0.420760	0.099049
C11	C	1.107675	0.252608	0.000022
C12	C	0.988726	0.239146	0.000019
C13	C	0.794315	0.400986	0.000033
C14	C	0.682553	0.388342	0.000031
C15	C	0.653436	0.201215	0.000022
C16	C	0.765199	0.213859	0.000024
C17	C	0.835635	0.313748	0.000028
C18	C	0.947400	0.326391	0.000021
C19	C	0.918281	0.139265	0.000020
C20	C	0.806518	0.126621	0.000018
C21	C	1.253488	0.074327	0.000027
C22	C	1.218164	-0.041381	0.000022
C23	C	1.492830	-0.379696	0.000029
C24	C	1.526022	-0.270983	0.000041
C25	C	1.449060	-0.213577	0.000036
C26	C	1.338901	-0.264895	0.000019
C27	C	1.305705	-0.373618	0.000017
C28	C	1.261935	-0.207499	0.000024
C29	C	1.151776	-0.258817	0.000007
C30	C	1.118585	-0.367530	0.000004
C31	C	1.195547	-0.424936	0.000009
C32	C	1.295131	-0.098776	0.000026
C33	C	1.108006	-0.092698	0.000014
C34	C	1.074814	-0.201411	0.000002
C35	C	1.493161	0.274998	0.000029
C36	C	1.612110	0.288460	0.000024
C37	C	1.347347	0.453280	0.000023
C38	C	1.382672	0.568987	0.000021
N39	N	1.285699	0.281767	0.281871
N40	N	1.315142	0.245832	-0.281818
C41	C	1.377032	0.170190	0.531166
C42	C	1.370543	0.178133	0.655829
C43	C	1.266225	0.305590	0.655863
C44	C	1.272714	0.297647	0.531200
C45	C	1.328121	0.229946	0.468856
C46	C	1.334616	0.222009	0.344190
C47	C	1.230293	0.349460	0.344227
C48	C	1.223804	0.357403	0.468890
H49	H	0.749154	0.045295	0.000029
H50	H	1.476092	-0.125058	0.000046
C51	C	0.963091	0.044486	-0.000230
C52	C	0.932463	-0.021510	-0.102141
C53	C	0.973734	-0.108821	-0.102426
H54	H	0.935217	0.008245	0.068751
H55	H	1.039748	0.066270	-0.000296
H56	H	0.855822	-0.043295	-0.102065
H57	H	0.960335	0.014699	-0.171139
H58	H	1.050390	-0.087037	-0.102492
H59	H	0.945857	-0.145053	-0.033441
H60	H	0.952967	-0.153605	-0.171576
C61	C	0.637903	0.483184	-0.000029
C62	C	0.723515	0.573361	-0.000055
C63	C	0.682427	0.660752	-0.000125
H64	H	0.591320	0.486686	0.069015
H65	H	0.598554	0.477799	-0.069123
H66	H	0.762847	0.578746	0.069032
H67	H	0.770106	0.569894	-0.069094
H68	H	0.643078	0.655366	-0.069220
H69	H	0.635844	0.664243	0.068920
H70	H	0.740508	0.721946	-0.000154
H71	H	1.384823	-0.057004	0.000040
H72	H	1.410369	0.129473	0.706558
H73	H	0.596064	0.119897	0.000117
H74	H	1.028886	-0.409309	-0.000001
H75	H	1.615714	-0.229207	0.000056
H76	H	1.555480	-0.426445	0.000043
H77	H	1.168527	-0.513460	-0.000005
C78	C	1.394769	0.148408	0.276713
C79	C	1.436186	0.097754	0.357971
C80	C	1.491591	0.029931	0.295859
H81	H	1.452523	0.186923	0.228067
H82	H	1.346492	0.098228	0.228116
H83	H	1.484460	0.147927	0.406547
H84	H	1.378456	0.059220	0.406619
H85	H	1.443314	-0.020248	0.247263
H86	H	1.549339	0.068454	0.247216
H87	H	1.519691	-0.004452	0.350983
H88	H	0.985120	-0.243210	-0.000011
C89	C	1.205858	0.378933	0.723510
C90	C	1.097795	0.349948	0.693229
C91	C	1.042145	0.417474	0.755537
H92	H	1.238329	0.448237	0.703148
H93	H	1.208924	0.375079	0.806688
H94	H	1.094735	0.353812	0.610070
H95	H	1.065294	0.280655	0.713594
H96	H	1.045210	0.413621	0.838715
H97	H	1.074625	0.486774	0.735170
H98	H	0.968817	0.397812	0.735008
H99	H	1.178689	0.412521	0.519665
H100	H	1.190470	0.398120	0.293480
H101	H	1.004748	0.407725	0.000026
H102	H	1.045336	-0.045958	0.000015
H103	H	1.422155	0.115073	0.480404
H104	H	0.851666	0.482319	0.000035
