data_functionalizedCrystal
_audit_creation_method	'MofGen! by Chris Wilmer'
_symmetry_space_group_name_H-M	'P1'
_symmetry_Int_Tables_number	1
_symmetry_cell_setting	triclinic
loop_
_symmetry_equiv_pos_as_xyz
  x,y,z
_cell_length_a	12.759401
_cell_length_b	18.050590
_cell_length_c	12.759393
_cell_angle_alpha	89.964042
_cell_angle_beta	89.981991
_cell_angle_gamma	90.018196
loop_
_atom_site_label
_atom_site_type_symbol
_atom_site_fract_x
_atom_site_fract_y
_atom_site_fract_z
Zn1	Zn	1.606216	-0.295621	-0.593968
Zn2	Zn	1.606102	-0.419832	-0.418276
Zn3	Zn	1.430521	-0.295659	-0.418306
Zn4	Zn	1.430494	-0.419773	-0.593915
O5	O	1.518333	-0.357721	-0.506116
O6	O	1.753222	-0.312107	-0.570672
O7	O	1.582774	-0.403401	-0.271259
O8	O	1.453886	-0.191730	-0.441643
O9	O	1.753138	-0.403364	-0.441591
O10	O	1.582968	-0.191702	-0.570701
O11	O	1.453776	-0.312172	-0.271281
O12	O	1.283497	-0.312115	-0.441591
O13	O	1.453841	-0.403264	-0.740943
O14	O	1.283477	-0.403301	-0.570611
O15	O	1.582942	-0.312050	-0.740982
O16	O	1.582748	-0.523749	-0.441540
O17	O	1.453730	-0.523706	-0.570581
C18	C	1.245366	-0.357706	-0.506099
C19	C	1.128589	-0.357717	-0.506117
C20	C	0.963982	-0.310190	-0.439065
C21	C	1.073706	-0.310175	-0.439054
C22	C	1.073743	-0.405273	-0.573201
C23	C	0.964021	-0.405284	-0.573216
C24	C	0.909104	-0.262650	-0.371991
C25	C	0.963943	-0.215093	-0.304907
C26	C	1.073667	-0.215078	-0.304897
C27	C	1.128552	-0.262619	-0.371970
C28	C	1.518252	-0.550674	-0.506074
C29	C	1.518314	-0.633219	-0.506092
C30	C	1.588620	-0.832666	-0.436017
C31	C	1.614285	-0.881990	-0.531903
C32	C	1.518374	-0.784350	-0.506134
C33	C	1.492815	-0.882107	-0.410290
C34	C	1.518433	-0.930335	-0.506166
C35	C	1.544088	-0.832586	-0.602071
C36	C	1.422573	-0.832699	-0.480392
C37	C	1.448203	-0.882001	-0.576345
C38	C	1.518342	-0.700251	-0.506114
C39	C	1.518465	-1.014431	-0.506196
C40	C	1.792366	-0.357737	-0.506134
C41	C	1.909143	-0.357744	-0.506142
C42	C	1.518401	-0.357646	-0.780150
C43	C	1.518431	-0.357614	-0.896926
C44	C	1.518443	-0.164016	-0.506181
C45	C	1.518490	-0.081470	-0.506209
C46	C	1.451290	-0.310102	-0.951806
C47	C	1.451321	-0.310080	-1.061530
C48	C	1.585644	-0.405083	-1.061485
C49	C	1.585606	-0.405108	-0.951763
C50	C	1.384114	-0.262607	-0.896969
C51	C	1.316968	-0.215091	-0.951849
C52	C	1.317000	-0.215069	-1.061573
C53	C	1.384177	-0.262563	-1.116418
C54	C	1.518326	-0.357743	-0.233149
C55	C	1.518500	-0.357566	-0.116373
H56	H	0.919248	-0.176382	-0.250306
C57	C	1.384071	-0.262628	-0.776271
N58	N	1.384040	-0.262645	-0.685360
H59	H	1.262269	-0.176427	-0.907187
H60	H	1.648045	-0.811004	-0.376782
C61	C	1.243140	-0.162801	-1.121938
N62	N	1.187510	-0.123427	-1.167402
H63	H	1.217897	-0.262595	-0.371966
H64	H	1.341555	-0.811030	-0.458571
H65	H	0.819761	-0.262659	-0.371990
C66	C	1.573461	-0.803328	-0.711619
N67	N	1.595589	-0.781288	-0.794128
C68	C	1.367981	-0.911081	-0.656559
N69	N	1.307561	-0.932984	-0.716979
H70	H	1.695327	-0.903644	-0.553696
H71	H	1.118439	-0.443979	-0.627808
H72	H	1.118313	-0.176349	-0.250283
H73	H	0.919370	-0.444005	-0.627839
C74	C	1.463572	-0.911488	-0.300771
N75	N	1.441554	-0.933615	-0.218280
H76	H	1.640339	-0.443749	-1.106149
C77	C	1.384207	-0.262537	-1.237118
N78	N	1.384232	-0.262514	-1.328029
C79	C	1.659458	-0.457379	-0.891392
N80	N	1.715079	-0.496754	-0.845921
