data_functionalizedCrystal
_audit_creation_method	'MofGen! by Chris Wilmer'
_symmetry_space_group_name_H-M	'P1'
_symmetry_Int_Tables_number	1
_symmetry_cell_setting	triclinic
loop_
_symmetry_equiv_pos_as_xyz
  x,y,z
_cell_length_a	13.185407
_cell_length_b	13.339070
_cell_length_c	11.804365
_cell_angle_alpha	105.112168
_cell_angle_beta	82.231191
_cell_angle_gamma	83.801389
loop_
_atom_site_label
_atom_site_type_symbol
_atom_site_fract_x
_atom_site_fract_y
_atom_site_fract_z
O1	O	1.387935	-0.267892	-0.098999
O2	O	1.099104	-0.173157	-0.099006
O3	O	1.210371	-0.358763	-0.099000
O4	O	1.276669	-0.082286	-0.099006
O5	O	1.181067	-0.309938	0.099054
O6	O	1.069800	-0.124332	0.099048
O7	O	1.358632	-0.219067	0.099055
Cu8	Cu	1.211540	-0.167242	0.117135
Cu9	Cu	1.246195	-0.224983	-0.117087
O10	O	1.247365	-0.033462	0.099049
C11	C	1.046730	-0.139140	0.000020
C12	C	0.934326	-0.110534	0.000017
C13	C	0.562462	-0.383545	0.000028
C14	C	0.668070	-0.410423	0.000038
C15	C	0.734639	-0.335454	0.000032
C16	C	0.695590	-0.233601	0.000017
C17	C	0.589970	-0.206718	0.000016
C18	C	0.762147	-0.158626	0.000021
C19	C	0.723098	-0.056773	0.000006
C20	C	0.617489	-0.029895	0.000004
C21	C	0.550920	-0.104865	0.000010
C22	C	0.867767	-0.185509	0.000022
C23	C	0.895275	-0.008681	0.000011
C24	C	0.789668	0.018197	0.000000
C25	C	1.184520	-0.368991	0.000025
C26	C	1.151140	-0.472206	0.000020
C27	C	1.410694	-0.907661	0.000026
C28	C	1.442058	-0.810685	0.000038
C29	C	1.369331	-0.726061	0.000033
C30	C	1.265234	-0.738422	0.000017
C31	C	1.233865	-0.835405	0.000014
C32	C	1.192503	-0.653805	0.000021
C33	C	1.088406	-0.666165	0.000005
C34	C	1.057042	-0.763140	0.000002
C35	C	1.129769	-0.847764	0.000007
C36	C	1.223872	-0.556822	0.000024
C37	C	1.047044	-0.484565	0.000012
C38	C	1.015679	-0.581541	-0.000000
C39	C	1.411006	-0.253085	0.000026
C40	C	1.523412	-0.281693	0.000021
C41	C	1.273216	-0.023234	0.000021
C42	C	1.306597	0.079979	0.000019
N43	N	1.187173	-0.126632	0.281875
N44	N	1.270568	-0.265602	-0.281826
C45	C	1.329078	-0.363137	0.655831
C46	C	1.347509	-0.393862	0.531171
C47	C	1.307426	-0.327057	0.468841
C48	C	1.248910	-0.229523	0.531183
C49	C	1.230483	-0.198791	0.655856
C50	C	1.208832	-0.162711	0.468865
C51	C	1.150315	-0.065176	0.531208
C52	C	1.131891	-0.034451	0.655869
C53	C	1.171974	-0.101255	0.718199
C54	C	1.227258	-0.193442	0.344193
C55	C	1.128664	-0.029096	0.344217
C56	C	1.110232	0.001628	0.468878
H57	H	0.899550	-0.268439	0.000033
F58	F	1.488079	-0.997720	0.000051
H59	H	1.361715	-0.417518	0.706589
H60	H	1.096027	0.025304	0.293469
F61	F	0.438520	-0.076267	-0.000016
F62	F	0.575932	0.078509	0.000001
F63	F	1.402716	-0.622852	0.000042
F64	F	1.552844	-0.797541	0.000036
F65	F	1.096409	-0.951009	-0.000118
F66	F	0.491609	-0.463318	0.000045
F67	F	0.748096	0.126593	-0.000016
F68	F	0.946250	-0.776288	-0.000000
F69	F	0.904893	-0.594710	-0.000020
F70	F	0.709620	-0.518817	0.000059
F71	F	0.969635	-0.394504	0.000013
H72	H	0.820629	-0.357344	0.000040
F73	F	1.289534	-0.297242	0.277857
F74	F	0.966117	0.071115	0.000013
H75	H	1.308628	-0.546768	0.000038
H76	H	1.084253	0.044973	0.706629
F77	F	1.327042	-0.359760	0.336165
H78	H	1.062587	0.081044	0.519653
F79	F	1.152352	-0.068558	0.850879
F80	F	1.409785	-0.497660	0.464825
