data_functionalizedCrystal
_audit_creation_method	'MofGen! by Chris Wilmer'
_symmetry_space_group_name_H-M	'P1'
_symmetry_Int_Tables_number	1
_symmetry_cell_setting	triclinic
loop_
_symmetry_equiv_pos_as_xyz
  x,y,z
_cell_length_a	16.974800
_cell_length_b	13.448316
_cell_length_c	16.974939
_cell_angle_alpha	86.357462
_cell_angle_beta	96.836278
_cell_angle_gamma	93.650053
loop_
_atom_site_label
_atom_site_type_symbol
_atom_site_fract_x
_atom_site_fract_y
_atom_site_fract_z
O1	O	1.049047	0.009853	-0.100718
O2	O	0.818828	-0.007650	-0.113566
O3	O	0.940346	-0.007623	0.007965
O4	O	0.927529	0.009826	-0.222249
O5	O	0.940331	0.157759	0.007972
O6	O	0.818813	0.157732	-0.113559
O7	O	1.049032	0.175235	-0.100710
Cu8	Cu	0.933921	0.181584	-0.107134
Cu9	Cu	0.933939	-0.013999	-0.107143
O10	O	0.927514	0.175208	-0.222241
C11	C	0.789363	0.072630	-0.113076
C12	C	0.701587	0.065446	-0.111617
C13	C	0.660347	0.152222	-0.110925
C14	C	0.577875	0.145474	-0.109541
C15	C	0.536643	0.051948	-0.108854
C16	C	0.577890	-0.034835	-0.109544
C17	C	0.660362	-0.028086	-0.110922
C18	C	0.289991	0.022096	-0.104728
C19	C	0.207513	0.015354	-0.103352
C20	C	0.207504	0.195664	-0.103347
C21	C	0.289976	0.202405	-0.104730
C22	C	0.331216	0.115621	-0.105416
N23	N	0.452343	0.045048	-0.107442
N24	N	0.415516	0.122522	-0.106822
C25	C	0.939848	0.072661	0.037425
C26	C	0.938376	0.065490	0.125197
C27	C	1.078498	0.094953	-0.101201
C28	C	1.166273	0.102130	-0.102660
N29	N	0.933914	0.319147	-0.107127
N30	N	0.933952	-0.151563	-0.107143
C31	C	0.987739	0.371203	-0.053335
C32	C	0.987744	0.475306	-0.053335
C33	C	0.933927	0.527353	-0.107130
C34	C	0.880097	0.475290	-0.160925
C35	C	0.880089	0.371188	-0.160921
C36	C	0.880119	0.692272	-0.160930
C37	C	0.880127	0.796382	-0.160935
C38	C	0.987774	0.796391	-0.053344
C39	C	0.987766	0.692289	-0.053340
C40	C	0.933936	0.640233	-0.107136
C41	C	0.930164	0.015344	0.619269
C42	C	0.931539	0.022101	0.536797
C43	C	0.932212	0.115630	0.495580
C44	C	0.931518	0.202406	0.536841
C45	C	0.930149	0.195648	0.619313
C46	C	0.936312	0.145509	0.248930
C47	C	0.937679	0.152260	0.166452
C48	C	0.937702	-0.028046	0.166413
C49	C	0.936328	-0.034796	0.248886
C50	C	0.935638	0.051981	0.290140
N51	N	0.933615	0.122539	0.411280
N52	N	0.934240	0.045071	0.374440
C53	C	0.928008	0.094928	0.748298
C54	C	0.929467	0.102114	0.660524
H55	H	0.544302	0.216136	-0.108965
O56	O	0.537896	-0.125721	-0.108740
C57	C	0.567092	-0.183698	-0.040647
H58	H	0.596065	-0.132429	0.006820
H59	H	0.612930	-0.234911	-0.056923
C60	C	0.462342	-0.310073	-0.066698
C61	C	0.497921	-0.247103	-0.008396
H62	H	0.419676	-0.349188	-0.046805
H63	H	0.442673	-0.271015	-0.112576
H64	H	0.500548	-0.352741	-0.080257
H65	H	0.459718	-0.204428	0.005154
H66	H	0.517582	-0.286155	0.037485
H67	H	0.938204	0.228424	0.132893
H68	H	0.935751	0.216169	0.282510
O69	O	1.040115	0.525724	-0.001060
C70	C	1.087607	0.457462	0.046427
H71	H	1.088448	0.385918	0.014013
H72	H	1.062010	0.439635	0.105159
C73	C	1.171891	0.591492	0.102561
C74	C	1.172930	0.503624	0.062746
H75	H	1.224521	0.619968	0.112631
H76	H	1.139893	0.637482	0.070570
H77	H	1.150557	0.576625	0.151499
H78	H	1.194254	0.518495	0.013804
H79	H	1.204933	0.457637	0.094729
H80	H	0.836282	0.649892	-0.204734
H81	H	0.323542	0.278563	-0.105286
H82	H	0.693938	-0.098749	-0.111487
O83	O	1.039893	0.320547	-0.001013
C84	C	0.997568	0.253078	0.047755
H85	H	0.935681	0.235022	0.016200
H86	H	0.992222	0.288129	0.106163
C87	C	1.118167	0.178598	0.103509
C88	C	1.042158	0.156414	0.064750
H89	H	1.145673	0.118972	0.113996
H90	H	1.146684	0.224055	0.070656
H91	H	1.113701	0.207809	0.152178
H92	H	1.046625	0.127215	0.016078
H93	H	1.013644	0.110950	0.097596
H94	H	0.323559	-0.048570	-0.105283
O95	O	1.040033	0.846828	-0.000976
C96	C	1.027258	0.814108	0.077291
H97	H	0.996772	0.736089	0.077179
H98	H	0.987938	0.867586	0.101727
C99	C	1.145041	0.907342	0.130065
C100	C	1.107604	0.811514	0.129929
H101	H	1.194601	0.905746	0.162536
H102	H	1.153647	0.929390	0.077336
H103	H	1.112266	0.951897	0.150426
H104	H	1.140374	0.766964	0.109558
H105	H	1.099005	0.789459	0.182656
O106	O	0.827764	0.846783	-0.213210
C107	C	0.780254	0.778518	-0.260695
H108	H	0.779399	0.701640	-0.228281
H109	H	0.805845	0.774214	-0.319429
C110	C	0.695995	0.908034	-0.316822
C111	C	0.694939	0.813613	-0.277008
H112	H	0.643370	0.929684	-0.326889
H113	H	0.728005	0.954027	-0.284833
H114	H	0.717324	0.904435	-0.365763
H115	H	0.673620	0.817217	-0.228065
H116	H	0.662924	0.767622	-0.308989
H117	H	0.932071	0.278560	0.503277
O118	O	0.827708	0.525788	-0.213101
C119	C	0.749453	0.493030	-0.200299
H120	H	0.749134	0.459313	-0.136993
H121	H	0.726175	0.434250	-0.244136
C122	C	0.696237	0.623606	-0.290366
C123	C	0.695845	0.582202	-0.212611
H124	H	0.663167	0.678610	-0.297963
H125	H	0.748959	0.645674	-0.298993
H126	H	0.676840	0.574614	-0.326887
H127	H	0.715250	0.631190	-0.176091
H128	H	0.643124	0.560144	-0.203977
O129	O	0.935606	-0.125722	0.288809
C130	C	0.867510	-0.183734	0.259644
H131	H	0.845651	-0.154784	0.196772
H132	H	0.818818	-0.178448	0.299765
C133	C	0.915275	-0.328906	0.335737
C134	C	0.888432	-0.293355	0.258514
H135	H	0.928179	-0.396526	0.335043
H136	H	0.961151	-0.289821	0.355389
H137	H	0.874694	-0.324492	0.369163
H138	H	0.929016	-0.297757	0.225093
H139	H	0.842563	-0.332442	0.238857
O140	O	0.167561	0.280060	-0.102711
C141	C	0.221642	0.364052	-0.103589
H142	H	0.277130	0.344176	-0.129595
H143	H	0.238776	0.388068	-0.040331
C144	C	0.114461	0.474621	-0.122928
C145	C	0.182611	0.450211	-0.154875
H146	H	0.090385	0.527770	-0.154561
H147	H	0.078026	0.418035	-0.122333
H148	H	0.128750	0.494629	-0.070214
H149	H	0.168320	0.430192	-0.207584
H150	H	0.219043	0.506796	-0.155480
H151	H	0.932108	-0.048556	0.503211
H152	H	1.031591	0.649913	-0.009539
H153	H	0.929581	0.266306	0.652902
H154	H	0.938264	-0.098695	0.132815
H155	H	0.929608	-0.060818	0.652820
H156	H	0.173945	-0.060810	-0.102795
H157	H	0.693911	0.228381	-0.111490
H158	H	0.836258	0.328805	-0.204723
