data_functionalizedCrystal
_audit_creation_method	'MofGen! by Chris Wilmer'
_symmetry_space_group_name_H-M	'P1'
_symmetry_Int_Tables_number	1
_symmetry_cell_setting	triclinic
loop_
_symmetry_equiv_pos_as_xyz
  x,y,z
_cell_length_a	18.760487
_cell_length_b	14.628931
_cell_length_c	14.628931
_cell_angle_alpha	60.000000
_cell_angle_beta	90.035214
_cell_angle_gamma	60.020388
loop_
_atom_site_label
_atom_site_type_symbol
_atom_site_fract_x
_atom_site_fract_y
_atom_site_fract_z
Zr1	Zr	0.686684	1.000577	-0.119420
O2	O	0.572868	1.191282	-0.265471
O3	O	0.721575	0.809871	-0.074648
O4	O	0.721575	1.000576	-0.265353
O5	O	0.572868	1.000578	0.075666
O6	O	0.838878	1.000576	-0.265261
O7	O	0.572868	1.000577	-0.074765
O8	O	0.838877	0.659440	0.075877
O9	O	0.572868	1.341714	-0.265471
O10	O	0.823997	0.888311	-0.055484
O11	O	0.736455	0.888312	0.056713
O12	O	0.736456	1.112842	-0.167819
O13	O	0.648914	1.112843	-0.055622
Zr14	Zr	0.873769	1.000577	0.120649
Zr15	Zr	0.873769	1.000577	-0.119273
Zr16	Zr	0.686684	1.000578	0.120501
Zr17	Zr	0.686685	1.240498	-0.119421
Zr18	Zr	0.873768	0.760656	0.120649
O19	O	0.838878	1.191283	0.075876
O20	O	0.838878	1.191282	-0.265261
O21	O	0.572868	1.191283	0.075666
O22	O	0.987585	0.809872	0.266699
O23	O	0.987585	0.809871	-0.074438
O24	O	0.721574	0.809872	0.266489
O25	O	0.987585	1.000577	-0.074438
O26	O	0.838878	1.000578	0.266582
O27	O	0.721575	1.000578	0.266489
O28	O	0.987585	1.000577	0.075994
O29	O	0.721576	1.341714	-0.265354
O30	O	0.838877	0.659440	0.266582
O31	O	0.987584	0.659440	0.266699
O32	O	0.987585	0.659440	0.075994
O33	O	0.572868	1.341715	-0.074766
O34	O	0.721575	1.341715	-0.074648
O35	O	0.823997	0.888312	0.169047
O36	O	0.911539	0.888311	0.056851
O37	O	0.823998	1.112843	-0.055484
O38	O	0.736456	1.112843	0.056712
C39	C	0.780226	0.700472	0.000615
C40	C	0.780226	0.598619	0.000615
C41	C	0.546212	1.000578	0.000430
C42	C	0.466790	1.000578	0.000367
C43	C	0.823653	0.553209	-0.055042
C44	C	0.823654	0.447939	-0.055043
C45	C	0.085277	1.117785	-0.057829
C46	C	0.176676	0.883370	0.059451
C47	C	0.251299	0.883368	0.059355
C48	C	0.242913	1.000576	0.000665
C49	C	0.159905	1.117786	-0.057929
C50	C	0.334311	0.766160	0.117938
C51	C	0.408940	0.766154	0.117843
C52	C	0.400555	0.883363	0.059159
C53	C	0.317540	1.000578	0.000564
C54	C	0.309154	1.117786	-0.058126
C55	C	0.226141	1.235002	-0.116716
C56	C	0.151520	1.234996	-0.116614
C57	C	0.475176	0.883370	0.059057
C58	C	0.383782	1.117788	-0.058227
C59	C	1.014241	1.000577	0.000799
C60	C	1.093663	1.000577	0.000861
C61	C	0.780227	1.000576	-0.299491
C62	C	0.780227	1.000576	-0.401343
C63	C	0.780227	1.300682	0.000614
C64	C	0.780227	1.402535	0.000614
C65	C	0.736800	1.111958	-0.502478
C66	C	0.736800	1.111961	-0.607750
C67	C	0.780226	1.000578	0.300719
C68	C	0.780226	1.000578	0.402572
C69	C	1.014240	0.700472	0.000799
C70	C	1.093663	0.598618	0.000862
C71	C	0.780226	0.700473	0.300719
C72	C	0.780225	0.598620	0.402572
C73	C	1.014240	0.700472	0.300904
C74	C	1.093662	0.598620	0.402820
C75	C	0.546213	1.300682	-0.299676
C76	C	0.466791	1.402535	-0.401591
C77	C	0.546212	1.300683	0.000429
C78	C	0.466790	1.402536	0.000366
C79	C	0.780227	1.300682	-0.299491
C80	C	0.780227	1.402534	-0.401344
C81	C	1.085264	0.550787	-0.057756
C82	C	1.159883	0.455098	-0.057719
C83	C	1.242899	0.407237	0.000942
C84	C	1.251295	0.455077	0.059562
C85	C	1.176678	0.550771	0.059518
C86	C	1.176663	0.550788	0.392115
C87	C	1.251296	0.455100	0.487866
C88	C	1.242925	0.407238	0.594321
C89	C	1.159915	0.455079	0.605024
C90	C	1.085285	0.550772	0.509274
C91	C	0.383789	1.450378	-0.390887
C92	C	0.309157	1.546096	-0.486638
C93	C	0.317527	1.593962	-0.593093
C94	C	0.400537	1.546115	-0.603796
C95	C	0.475168	1.450406	-0.508045
C96	C	0.475189	1.450377	0.058974
C97	C	0.400570	1.546092	0.058911
C98	C	0.317554	1.593958	0.000246
C99	C	0.309158	1.546112	-0.058369
C100	C	0.383775	1.450406	-0.058312
C101	C	0.823652	0.553211	0.503707
C102	C	0.823653	0.447941	0.608979
H103	H	0.860836	0.592260	-0.102687
Br104	Br	0.885617	0.382869	-0.134479
H105	H	1.183496	0.589743	0.305443
Br106	Br	0.842191	0.841626	-0.452828
H107	H	0.183498	0.787945	0.107230
H108	H	0.743042	0.441586	0.048261
Br109	Br	0.972609	0.615725	-0.137382
H110	H	0.241574	1.585036	-0.477902
Br111	Br	0.216233	1.723856	-0.723031
Br112	Br	0.718264	0.533519	0.080049
H113	H	0.407343	1.585101	-0.690483
Br114	Br	0.587810	1.385481	-0.522594
Br115	Br	0.372361	1.385484	-0.137854
H116	H	0.542778	1.411413	0.106754
Br117	Br	1.148467	0.390189	-0.137278
H118	H	1.017704	0.589704	0.518005
H119	H	0.407424	1.585032	0.106647
H120	H	1.303650	0.329316	0.000970
Br121	Br	1.363967	0.390104	0.139173
Br122	Br	0.885633	0.382850	0.753582
H123	H	0.017685	1.213219	-0.105527
H124	H	0.256803	1.671888	0.000209
H125	H	0.817408	0.905219	-0.392694
Br126	Br	0.372405	1.385433	-0.246424
Br127	Br	0.196486	1.611083	-0.137978
Br128	Br	0.521593	0.607079	0.197358
H129	H	1.318880	0.416158	0.479132
Br130	Br	0.345686	0.607102	0.197576
Br131	Br	0.885613	0.618313	0.518139
H132	H	0.542761	0.787934	0.106770
Br133	Br	0.718261	0.467600	0.454057
Br134	Br	0.372392	1.276865	-0.137872
Br135	Br	0.214771	1.394064	-0.196368
Br136	Br	1.344220	0.277368	0.724259
H137	H	0.743043	0.559567	0.393923
H138	H	0.083926	1.330427	-0.164313
H139	H	0.699626	1.207315	-0.511128
H140	H	1.183528	0.589703	0.107259
Br141	Br	0.674820	1.270908	-0.752354
Br142	Br	1.148570	0.390111	0.749508
