data_functionalizedCrystal
_audit_creation_method	'MofGen! by Chris Wilmer'
_symmetry_space_group_name_H-M	'P1'
_symmetry_Int_Tables_number	1
_symmetry_cell_setting	triclinic
loop_
_symmetry_equiv_pos_as_xyz
  x,y,z
_cell_length_a	19.288864
_cell_length_b	18.366186
_cell_length_c	19.288865
_cell_angle_alpha	90.011479
_cell_angle_beta	83.136245
_cell_angle_gamma	90.022894
loop_
_atom_site_label
_atom_site_type_symbol
_atom_site_fract_x
_atom_site_fract_y
_atom_site_fract_z
O1	O	-0.921353	-0.060791	-0.086649
O2	O	-0.719092	-0.060743	-0.098337
O3	O	-0.826067	-0.060754	0.008637
O4	O	-0.814378	-0.060780	-0.193623
O5	O	-0.826049	0.060345	0.008643
O6	O	-0.719074	0.060357	-0.098332
O7	O	-0.921335	0.060308	-0.086643
Zn8	Zn	-0.820201	0.079559	-0.092487
Zn9	Zn	-0.820225	-0.079994	-0.092494
O10	O	-0.814360	0.060319	-0.193618
C11	C	-0.693207	-0.000187	-0.097959
C12	C	-0.616103	-0.000167	-0.096830
C13	C	-0.825682	-0.000202	0.034516
C14	C	-0.824553	-0.000195	0.111620
N15	N	-0.820190	0.188451	-0.092482
C16	C	-0.947220	-0.000250	-0.087022
C17	C	-1.024324	-0.000274	-0.088151
C18	C	-0.571407	-0.000187	-0.159598
C19	C	-0.498960	-0.000195	-0.158537
C20	C	-0.471212	-0.000198	-0.094705
C21	C	-0.515918	-0.000174	-0.031929
C22	C	-0.588364	-0.000159	-0.032991
C23	C	-0.362956	-0.042642	-0.044527
C24	C	-0.290512	-0.042662	-0.043468
C25	C	-0.247767	-0.000241	-0.091425
C26	C	-0.277473	0.042189	-0.140454
C27	C	-0.349918	0.042205	-0.141517
C28	C	-0.392658	-0.000214	-0.093546
C29	C	-0.124514	-0.000269	-0.153047
C30	C	-0.052066	-0.000272	-0.151984
C31	C	-0.069026	-0.000259	-0.025374
C32	C	-0.141473	-0.000248	-0.026439
C33	C	-0.169212	-0.000256	-0.090278
N34	N	-0.820242	-0.188885	-0.092493
C35	C	-0.867574	0.226546	-0.045137
C36	C	-0.867578	0.302774	-0.045134
C37	C	-0.820206	0.340903	-0.092488
C38	C	-0.772813	0.302799	-0.139836
C39	C	-0.772805	0.226572	-0.139834
C40	C	-0.810907	0.461657	-0.155775
C41	C	-0.810920	0.537882	-0.155779
C42	C	-0.820225	0.576011	-0.092496
C43	C	-0.829533	0.537905	-0.029207
C44	C	-0.829525	0.461679	-0.029204
C45	C	-0.820208	0.423558	-0.092496
C46	C	-0.867617	0.696761	-0.045144
C47	C	-0.867616	0.772990	-0.045140
C48	C	-0.772854	0.773014	-0.139849
C49	C	-0.772851	0.696786	-0.139847
C50	C	-0.820236	0.658664	-0.092495
C51	C	-0.814745	-0.000234	-0.219497
C52	C	-0.815874	-0.000246	-0.296601
C53	C	-0.887321	-0.000207	0.156316
C54	C	-0.886260	-0.000218	0.228763
C55	C	-0.822428	-0.000203	0.256511
C56	C	-0.759652	-0.000196	0.211805
C57	C	-0.760714	-0.000192	0.139359
C58	C	-0.772242	0.042227	0.364800
C59	C	-0.771182	0.042228	0.437245
C60	C	-0.819148	-0.000219	0.479956
C61	C	-0.868186	-0.042657	0.450216
C62	C	-0.869248	-0.042653	0.377771
C63	C	-0.821269	-0.000208	0.335065
C64	C	-0.880770	-0.000244	0.603209
C65	C	-0.879707	-0.000259	0.675657
C66	C	-0.753097	-0.000230	0.658697
C67	C	-0.754162	-0.000221	0.586250
C68	C	-0.818001	-0.000225	0.558511
H69	H	-0.593987	-0.000195	-0.211580
H70	H	-0.734240	0.333848	-0.178392
H71	H	-0.462561	-0.000209	-0.209652
H72	H	-0.906165	0.333797	-0.006578
O73	O	-0.381951	0.087997	-0.194377
H74	H	-0.360868	0.070547	-0.247858
H75	H	-0.803318	0.430619	-0.207311
O76	O	-0.839551	0.420576	0.039051
H77	H	-0.846017	0.459890	0.083059
H78	H	-0.734219	0.195554	-0.178388
O79	O	-0.953964	-0.000224	0.276981
H80	H	-0.956487	0.049133	0.310403
O81	O	-0.189685	-0.000230	0.041263
H82	H	-0.223130	-0.049576	0.043805
O83	O	-0.918702	0.655625	0.005936
H84	H	-0.972825	0.670219	-0.002760
H85	H	-0.906200	0.804008	-0.006582
H86	H	-0.939303	-0.000212	0.133736
H87	H	-0.932751	-0.000250	0.580622
O88	O	-0.947409	-0.000266	0.723871
H89	H	-0.991975	-0.000258	0.692408
O90	O	-0.721749	0.655687	-0.190915
H91	H	-0.730431	0.670291	-0.245042
H92	H	-0.909175	-0.077208	0.353560
H93	H	-0.701123	-0.000221	0.681288
H94	H	-0.266331	-0.077215	-0.003548
O95	O	-0.800896	0.578980	-0.224037
H96	H	-0.794414	0.539663	-0.268041
H97	H	-0.707679	-0.000185	0.234401
H98	H	-0.907244	-0.077221	0.484991
H99	H	-0.906156	0.195509	-0.006579
H100	H	-0.731250	0.076779	0.461452
O101	O	-0.686462	-0.000191	0.538034
H102	H	-0.641896	-0.000174	0.569498
H103	H	-0.242671	0.076733	-0.179506
H104	H	-0.733180	0.076796	0.330029
O105	O	-0.721758	0.814127	-0.190928
H106	H	-0.729725	0.873533	-0.182979
H107	H	-0.709599	-0.000182	0.102967
H108	H	-0.493322	-0.000187	0.020044
O109	O	-0.154442	-0.000263	-0.221897
H110	H	-0.111187	-0.000264	-0.265367
H111	H	-0.046435	-0.000306	0.026600
O112	O	-0.003852	-0.000290	-0.219686
H113	H	-0.035315	-0.000300	-0.264252
O114	O	-0.839565	0.579016	0.039057
H115	H	-0.837997	0.638423	0.028426
O116	O	-0.409059	-0.088403	0.007198
H117	H	-0.376233	-0.117919	0.041459
O118	O	-0.636579	-0.000141	0.034711
H119	H	-0.605117	-0.000147	0.079278
