data_functionalizedCrystal
_audit_creation_method	'MofGen! by Chris Wilmer'
_symmetry_space_group_name_H-M	'P1'
_symmetry_Int_Tables_number	1
_symmetry_cell_setting	triclinic
loop_
_symmetry_equiv_pos_as_xyz
  x,y,z
_cell_length_a	16.120490
_cell_length_b	18.050589
_cell_length_c	16.120256
_cell_angle_alpha	87.122724
_cell_angle_beta	90.129807
_cell_angle_gamma	92.872757
loop_
_atom_site_label
_atom_site_type_symbol
_atom_site_fract_x
_atom_site_fract_y
_atom_site_fract_z
Zn1	Zn	1.247363	0.376321	-0.534558
Zn2	Zn	1.254288	0.494541	-0.395507
Zn3	Zn	1.115355	0.363761	-0.388478
Zn4	Zn	1.108243	0.493854	-0.527480
O5	O	1.181312	0.432119	-0.461506
O6	O	1.364647	0.397547	-0.522016
O7	O	1.241732	0.472224	-0.278208
O8	O	1.132945	0.261507	-0.407877
O9	O	1.369735	0.484403	-0.419856
O10	O	1.229930	0.270734	-0.515201
O11	O	1.139660	0.376140	-0.273044
O12	O	0.998046	0.375474	-0.401013
O13	O	1.120823	0.483231	-0.644785
O14	O	0.992821	0.471053	-0.503137
O15	O	1.223034	0.396880	-0.649986
O16	O	1.234836	0.598370	-0.412992
O17	O	1.127538	0.597865	-0.509953
C18	C	0.965261	0.421826	-0.450545
C19	C	0.872833	0.417442	-0.445876
C20	C	0.659863	0.454857	-0.485728
C21	C	0.703610	0.409444	-0.437349
C22	C	0.797774	0.413895	-0.442095
C23	C	0.565690	0.450406	-0.480983
C24	C	1.181188	0.625065	-0.461486
C25	C	1.181210	0.707613	-0.461510
C26	C	1.122891	0.906816	-0.514219
C27	C	1.106462	0.952035	-0.437314
C28	C	1.181272	0.858746	-0.461524
C29	C	1.197722	0.960611	-0.538440
C30	C	1.181330	1.004735	-0.461545
C31	C	1.164805	0.902874	-0.384576
C32	C	1.256098	0.911450	-0.485756
C33	C	1.239700	0.956645	-0.408799
C34	C	1.181236	0.774646	-0.461513
C35	C	1.181366	1.088833	-0.461547
C36	C	1.398207	0.442452	-0.472510
C37	C	1.490634	0.446856	-0.477199
C38	C	1.170363	0.441380	-0.678402
C39	C	1.165697	0.445327	-0.770830
C40	C	1.181427	1.238420	-0.461544
C41	C	1.181394	1.155874	-0.461558
C42	C	1.205643	0.411519	-0.983811
C43	C	1.157150	0.452500	-0.940050
C44	C	1.161907	0.448507	-0.845887
C45	C	1.200888	0.415511	-1.077982
C46	C	1.192267	0.422843	-0.245456
C47	C	1.197094	0.418695	-0.153037
H48	H	0.693127	0.497076	-0.530705
C49	C	1.115226	0.577447	-0.964914
C50	C	1.096285	0.503922	-0.984929
H51	H	1.077650	0.609192	-0.992617
H52	H	1.170381	0.591555	-0.981946
H53	H	1.110479	0.581459	-0.906603
H54	H	1.101038	0.499908	-1.043239
H55	H	1.041117	0.489810	-0.967901
C56	C	0.717423	0.311318	-0.332803
C57	C	0.658709	0.352446	-0.376619
H58	H	0.689699	0.276131	-0.295315
H59	H	0.752889	0.343841	-0.302612
H60	H	0.749491	0.286079	-0.370768
H61	H	0.626645	0.377690	-0.338654
H62	H	0.623229	0.319918	-0.406812
H63	H	1.073463	0.884939	-0.558712
H64	H	1.319331	0.893461	-0.506269
H65	H	1.043212	0.970027	-0.416836
C66	C	1.259508	0.366074	-0.852981
C67	C	1.266519	0.360120	-0.938925
H68	H	1.297096	0.334348	-0.825266
H69	H	1.204356	0.351946	-0.835958
H70	H	1.272333	0.415967	-0.839433
H71	H	1.253688	0.310228	-0.952474
H72	H	1.321683	0.374244	-0.955955
H73	H	1.289098	0.978378	-0.364191
C74	C	1.146048	0.791420	-0.297540
C75	C	1.145945	0.868949	-0.296747
H76	H	1.134398	0.770476	-0.243320
H77	H	1.199004	0.777225	-0.314819
H78	H	1.104802	0.773978	-0.335012
H79	H	1.187197	0.886391	-0.259280
H80	H	1.092982	0.883150	-0.279457
C81	C	1.155234	0.969478	-0.681295
C82	C	1.216483	0.994656	-0.626239
H83	H	1.166816	0.990491	-0.735499
H84	H	1.102509	0.983995	-0.663729
H85	H	1.154851	0.916871	-0.682005
H86	H	1.216862	1.047264	-0.625525
H87	H	1.269223	0.980144	-0.643810
