data_functionalizedCrystal
_audit_creation_method	'MofGen! by Chris Wilmer'
_symmetry_space_group_name_H-M	'P1'
_symmetry_Int_Tables_number	1
_symmetry_cell_setting	triclinic
loop_
_symmetry_equiv_pos_as_xyz
  x,y,z
_cell_length_a	21.606444
_cell_length_b	14.395555
_cell_length_c	21.606444
_cell_angle_alpha	90.003431
_cell_angle_beta	59.998659
_cell_angle_gamma	60.001476
loop_
_atom_site_label
_atom_site_type_symbol
_atom_site_fract_x
_atom_site_fract_y
_atom_site_fract_z
Zr1	Zr	0.677421	0.894946	-0.081195
O2	O	0.806547	0.746616	-0.180027
O3	O	0.548300	0.940413	-0.050897
O4	O	0.677423	0.940410	-0.180020
O5	O	0.677419	0.746626	0.050950
O6	O	0.677419	1.093284	-0.180014
O7	O	0.677424	0.746618	-0.050904
O8	O	0.446441	1.093289	0.050963
O9	O	0.908397	0.746621	-0.180028
O10	O	0.601404	1.073898	-0.037971
O11	O	0.601404	0.959815	0.038037
O12	O	0.753430	0.959812	-0.113989
O13	O	0.753430	0.845730	-0.037980
Zr14	Zr	0.677406	1.138775	0.081260
Zr15	Zr	0.677413	1.138763	-0.081186
Zr16	Zr	0.677414	0.894959	0.081251
Zr17	Zr	0.839860	0.894955	-0.081196
Zr18	Zr	0.514967	1.138766	0.081260
O19	O	0.806527	1.093309	0.050961
O20	O	0.806537	1.093291	-0.180015
O21	O	0.806537	0.746633	0.050949
O22	O	0.548280	1.287106	0.180092
O23	O	0.548290	1.287088	-0.050884
O24	O	0.548290	0.940430	0.180080
O25	O	0.677407	1.287096	-0.050885
O26	O	0.677403	1.093312	0.180085
O27	O	0.677408	0.940437	0.180079
O28	O	0.677403	1.287103	0.050969
O29	O	0.908391	0.940423	-0.180021
O30	O	0.446435	1.093298	0.180086
O31	O	0.446430	1.287100	0.180093
O32	O	0.446435	1.287090	0.050970
O33	O	0.908392	0.746631	-0.050905
O34	O	0.908386	0.940433	-0.050899
O35	O	0.601397	1.073909	0.114054
O36	O	0.601397	1.187992	0.038045
O37	O	0.753423	1.073906	-0.037972
O38	O	0.753423	0.959824	0.038036
C39	C	0.474226	1.016849	0.000034
C40	C	0.405267	1.016845	0.000034
C41	C	-0.018042	1.076427	-0.039643
C42	C	0.046758	1.076419	-0.039646
C43	C	0.079155	1.016866	0.000030
C44	C	0.046755	0.957307	0.039705
C45	C	-0.018040	0.957309	0.039703
C46	C	0.308066	0.957295	0.039712
C47	C	0.372863	0.957300	0.039713
C48	C	0.372864	1.076405	-0.039637
C49	C	0.308069	1.076407	-0.039639
C50	C	0.275678	1.016844	0.000033
C51	C	0.205415	1.016852	0.000035
C52	C	0.149413	1.016864	0.000033
C53	C	0.677423	0.711883	0.000022
C54	C	0.677426	0.608377	0.000018
C55	C	0.760317	0.485584	-0.041424
C56	C	0.718882	0.454744	-0.071456
C57	C	0.718858	0.454794	0.030045
C58	C	0.635990	0.578900	-0.030056
C59	C	0.635978	0.578947	0.071484
C60	C	0.594482	0.548180	0.041470
C61	C	0.880600	1.016872	0.000031
C62	C	0.949560	1.016876	0.000031
C63	C	0.677422	1.016845	-0.203162
C64	C	0.677425	1.016840	-0.272125
C65	C	0.677404	1.321838	0.000043
C66	C	0.677401	1.425345	0.000047
C67	C	0.756781	0.957288	-0.344204
C68	C	0.756778	0.957298	-0.408998
C69	C	0.677419	1.016854	-0.401713
C70	C	0.598058	1.076413	-0.329626
C71	C	0.598061	1.076409	-0.264833
C72	C	0.598043	1.076431	-0.590929
C73	C	0.598045	1.076428	-0.655730
C74	C	0.756760	0.957320	-0.735095
C75	C	0.756763	0.957316	-0.670301
C76	C	0.677402	1.016880	-0.598221
C77	C	0.677406	1.016870	-0.527963
C78	C	0.677415	1.016857	-0.471969
C79	C	0.677405	1.016876	0.203227
C80	C	0.677402	1.016881	0.272189
C81	C	0.474217	1.321827	0.000044
C82	C	0.405254	1.425329	0.000048
C83	C	0.474218	1.016865	0.203228
C84	C	0.405255	1.016866	0.272191
C85	C	0.474209	1.321842	0.203239
C86	C	0.405243	1.425350	0.272205
C87	C	0.880618	0.711879	-0.203174
C88	C	0.949584	0.608372	-0.272141
C89	C	0.880610	0.711895	0.000021
C90	C	0.949572	0.608392	0.000016
C91	C	0.880609	1.016857	-0.203163
C92	C	0.949572	1.016855	-0.272126
C93	C	0.372872	1.414379	-0.039636
C94	C	0.308083	1.511622	-0.039648
C95	C	0.275673	1.619813	0.000030
C96	C	0.308062	1.630761	0.039716
C97	C	0.372854	1.533519	0.039723
C98	C	0.372866	1.076423	0.344263
C99	C	0.308077	1.076420	0.409067
C100	C	0.275674	1.016866	0.401797
C101	C	0.308070	0.957302	0.329717
C102	C	0.372862	0.957299	0.264915
C103	C	0.372856	1.533518	0.264917
C104	C	0.308064	1.630784	0.329712
C105	C	0.275656	1.619879	0.401795
C106	C	0.308050	1.511700	0.409082
C107	C	0.372845	1.414436	0.344287
C108	C	0.981979	0.500203	-0.264852
C109	C	1.046791	0.402937	-0.329647
C110	C	1.079202	0.413842	-0.401730
C111	C	1.046805	0.522022	-0.409017
C112	C	0.981998	0.619286	-0.344222
C113	C	0.981961	0.619342	0.039695
C114	C	1.046768	0.522100	0.039688
C115	C	1.079181	0.413909	0.000007
C116	C	1.046789	0.402961	-0.039676
C117	C	0.981988	0.500202	-0.039673
C118	C	0.981954	1.076421	-0.264832
C119	C	1.046743	1.076442	-0.329623
C120	C	1.079154	1.016890	-0.401709
C121	C	1.046765	0.957323	-0.409001
C122	C	0.981972	0.957309	-0.344210
H123	H	0.281698	0.908799	0.072018
H124	H	0.281664	1.718863	0.072021
H125	H	0.222896	1.699087	0.454548
Br126	Br	0.090731	1.157232	-0.093499
Br127	Br	0.938004	0.485372	-0.167034
H128	H	0.399224	0.908805	0.206233
Br129	Br	0.777272	0.365539	-0.172169
Br130	Br	0.938037	0.766082	-0.354128
H131	H	0.073142	0.908812	0.072006
H132	H	0.281720	1.502686	-0.071965
Br133	Br	0.490337	1.157257	-0.645838
Br134	Br	0.477594	0.590822	0.099839
H135	H	0.399242	0.908798	0.072021
Br136	Br	0.937990	0.766161	0.093551
H137	H	-0.044415	0.908814	0.072008
H138	H	1.073131	0.531036	0.072005
H139	H	0.399232	1.542419	0.206230
H140	H	0.830409	0.460141	-0.076523
H141	H	1.073158	0.314862	-0.323699
H142	H	0.222916	1.016878	0.454570
H143	H	0.399241	1.124919	0.350197
H144	H	0.222914	1.698984	0.000020
Br145	Br	1.090799	0.536802	-0.506849
H146	H	0.399211	1.542451	0.072043
Br147	Br	0.264113	1.777585	0.319805
H148	H	1.131946	0.334738	0.000012
H149	H	0.600983	0.632255	-0.055509
Br150	Br	1.090784	0.256121	-0.093522
Br151	Br	0.264124	1.157264	0.506880
Br152	Br	0.264085	0.876485	0.319864
Br153	Br	0.264058	1.496919	0.506914
H154	H	0.399206	1.326364	0.350232
H155	H	0.399260	1.326293	-0.071957
H156	H	1.131971	0.334635	-0.454483
Br157	Br	0.938035	0.485321	-0.093523
Br158	Br	0.938040	0.876452	-0.354124
H159	H	0.955576	1.124915	-0.206142
Br160	Br	1.090689	1.157283	-0.319708
H161	H	1.131912	1.016910	-0.454459
H162	H	1.073163	0.908838	-0.467702
H163	H	-0.044419	1.124928	-0.071948
H164	H	0.533422	1.124932	-0.532246
Br165	Br	0.577633	0.668152	0.172179
H166	H	0.281690	1.124906	-0.071944
H167	H	0.399247	1.124900	-0.071943
H168	H	0.753905	0.401292	0.055428
H169	H	0.821397	0.908807	-0.467686
Br170	Br	0.864468	0.876467	-0.680194
Br171	Br	0.864466	0.876482	-0.832923
Br172	Br	0.864488	0.876453	-0.354101
Br173	Br	0.490355	1.157245	-0.319737
Br174	Br	0.490360	1.157251	-0.167008
