data_functionalizedCrystal
_audit_creation_method	'MofGen! by Chris Wilmer'
_symmetry_space_group_name_H-M	'P1'
_symmetry_Int_Tables_number	1
_symmetry_cell_setting	triclinic
loop_
_symmetry_equiv_pos_as_xyz
  x,y,z
_cell_length_a	9.065218
_cell_length_b	14.971486
_cell_length_c	14.048226
_cell_angle_alpha	90.006640
_cell_angle_beta	89.992396
_cell_angle_gamma	95.684993
loop_
_atom_site_label
_atom_site_type_symbol
_atom_site_fract_x
_atom_site_fract_y
_atom_site_fract_z
O1	O	1.957746	-0.131155	-0.079188
O2	O	1.528243	-0.141913	-0.079184
O3	O	1.754506	-0.006420	-0.079179
O4	O	1.731482	-0.266649	-0.079193
O5	O	1.754479	-0.006412	0.079142
O6	O	1.528216	-0.141905	0.079137
O7	O	1.957719	-0.131147	0.079133
Zn8	Zn	1.742963	-0.136525	0.104272
Zn9	Zn	1.742999	-0.136536	-0.104323
O10	O	1.731455	-0.266640	0.079129
C11	C	1.753463	0.026916	-0.000019
C12	C	1.750377	0.126237	-0.000020
C13	C	1.473264	-0.140875	-0.000023
C14	C	1.309483	-0.137784	-0.000021
C15	C	2.012698	-0.132185	-0.000030
C16	C	2.176478	-0.135277	-0.000038
C17	C	1.732498	-0.299977	-0.000034
C18	C	1.735584	-0.399297	-0.000039
N19	N	1.742949	-0.136517	0.246633
C20	C	1.883301	0.182471	-0.000020
C21	C	1.880393	0.275792	-0.000030
C22	C	1.744560	0.312877	-0.000032
C23	C	1.611626	0.256635	-0.000034
C24	C	1.614535	0.163316	-0.000032
C25	C	1.605571	0.451143	-0.000038
C26	C	1.602661	0.544468	-0.000039
C27	C	1.871428	0.563619	-0.000036
C28	C	1.874338	0.470300	-0.000033
C29	C	1.741403	0.414064	-0.000034
N30	N	1.743024	-0.136537	-0.246684
C31	C	1.843170	-0.076546	0.296453
C32	C	1.843180	-0.076545	0.396111
C33	C	1.742975	-0.136521	0.445946
C34	C	1.642743	-0.196495	0.396119
C35	C	1.642727	-0.196490	0.296464
C36	C	1.642786	-0.196502	0.603834
C37	C	1.642803	-0.196508	0.703496
C38	C	1.843238	-0.076557	0.703481
C39	C	1.843222	-0.076552	0.603825
C40	C	1.742992	-0.136527	0.554005
H41	H	1.993912	0.152285	-0.000013
Cl42	Cl	1.516775	-0.271899	0.541206
H43	H	1.497321	0.405358	-0.000041
Cl44	Cl	1.969203	-0.001160	0.541172
Cl45	Cl	1.969172	-0.001151	0.458744
H46	H	1.924848	-0.027723	0.744050
Cl47	Cl	2.038546	0.634315	-0.000040
H48	H	1.984945	0.440109	-0.000025
Cl49	Cl	1.440863	0.303256	-0.000049
Cl50	Cl	1.447424	0.092620	-0.000035
H51	H	1.561204	-0.245345	0.744068
H52	H	1.561147	-0.245325	0.436701
Cl53	Cl	1.969157	-0.001147	0.233813
Cl54	Cl	1.516724	-0.271883	0.233833
H55	H	1.492053	0.574659	-0.000025
Cl56	Cl	2.047505	0.346484	-0.000028
