data_functionalizedCrystal
_audit_creation_method	'MofGen! by Chris Wilmer'
_symmetry_space_group_name_H-M	'P1'
_symmetry_Int_Tables_number	1
_symmetry_cell_setting	triclinic
loop_
_symmetry_equiv_pos_as_xyz
  x,y,z
_cell_length_a	12.759401
_cell_length_b	10.686285
_cell_length_c	12.759393
_cell_angle_alpha	85.601997
_cell_angle_beta	89.981504
_cell_angle_gamma	85.631983
loop_
_atom_site_label
_atom_site_type_symbol
_atom_site_fract_x
_atom_site_fract_y
_atom_site_fract_z
Zn1	Zn	1.638392	-0.502271	-0.561964
Zn2	Zn	1.651790	-0.713314	-0.372831
Zn3	Zn	1.462698	-0.502337	-0.386299
Zn4	Zn	1.476180	-0.713217	-0.548479
O5	O	1.557265	-0.607785	-0.467393
O6	O	1.787191	-0.530279	-0.536882
O7	O	1.626671	-0.685396	-0.227592
O8	O	1.474756	-0.325751	-0.420881
O9	O	1.797034	-0.685332	-0.397927
O10	O	1.603837	-0.325703	-0.549942
O11	O	1.487747	-0.530392	-0.237487
O12	O	1.317465	-0.530298	-0.407805
O13	O	1.497733	-0.685167	-0.697293
O14	O	1.327370	-0.685231	-0.526958
O15	O	1.616910	-0.530185	-0.707200
O16	O	1.639744	-0.889878	-0.384851
O17	O	1.510724	-0.889807	-0.513898
C18	C	1.284296	-0.607762	-0.467380
C19	C	1.167521	-0.607782	-0.467398
C20	C	1.578179	-0.935627	-0.446473
C21	C	1.587222	-1.075879	-0.437558
C22	C	1.117852	-0.688585	-0.529321
C23	C	1.008129	-0.688601	-0.529332
C24	C	0.997753	-0.527008	-0.405486
C25	C	1.107474	-0.526986	-0.405482
C26	C	1.123842	-0.781883	-0.600819
C27	C	1.014119	-0.781899	-0.600829
C28	C	1.831300	-0.607809	-0.467406
C29	C	1.948077	-0.607819	-0.467412
C30	C	1.557331	-0.607658	-0.741435
C31	C	1.557358	-0.607603	-0.858215
C32	C	1.536298	-0.278662	-0.488418
C33	C	1.527363	-0.138410	-0.497378
C34	C	1.619422	-0.526897	-0.918238
C35	C	1.619445	-0.526851	-1.027965
C36	C	1.495336	-0.688230	-1.017635
C37	C	1.495309	-0.688268	-0.907911
C38	C	1.691079	-0.433730	-0.924202
C39	C	1.691101	-0.433684	-1.033929
C40	C	1.557255	-0.607821	-0.194423
C41	C	1.557407	-0.607519	-0.077666
H42	H	1.147909	-0.461181	-0.355066
H43	H	1.469198	-1.084650	-0.555414
H44	H	1.163793	-0.874665	-0.565620
C45	C	1.643757	-0.308251	-1.087934
C46	C	1.637000	-0.290262	-1.208712
C47	C	1.589651	-0.164836	-1.262718
C48	C	1.549059	-0.057400	-1.195946
C49	C	1.555814	-0.075386	-1.075160
C50	C	1.603163	-0.200812	-1.021154
H51	H	1.667050	-0.369795	-1.258148
H52	H	1.584651	-0.151522	-1.352132
H53	H	1.514009	0.035448	-1.235925
H54	H	1.525765	0.004147	-1.025725
H55	H	1.608164	-0.214126	-0.931740
H56	H	1.774146	-0.459858	-1.062039
H57	H	0.948850	-0.461226	-0.355078
H58	H	1.151983	-0.755822	-0.683887
H59	H	1.444767	-0.753982	-0.859044
H60	H	0.977889	-0.747016	-0.680405
C61	C	1.665802	-1.148504	-0.359142
C62	C	1.675040	-1.293456	-0.350023
C63	C	1.753618	-1.366080	-0.271609
C64	C	1.822959	-1.293752	-0.202314
C65	C	1.813723	-1.148792	-0.211431
C66	C	1.735145	-1.076168	-0.289845
H67	H	1.623708	-1.347005	-0.401321
H68	H	1.760454	-1.473390	-0.264861
H69	H	1.881127	-1.347513	-0.144267
H70	H	1.865055	-1.095243	-0.160133
H71	H	1.728309	-0.968858	-0.296594
C72	C	1.427090	-0.776963	-1.072304
C73	C	1.427113	-0.776923	-1.192996
C74	C	1.358865	-0.865659	-1.247662
C75	C	1.290595	-0.954436	-1.181634
C76	C	1.290570	-0.954479	-1.060935
C77	C	1.358817	-0.865743	-1.006269
H78	H	1.477652	-0.711202	-1.241880
H79	H	1.358885	-0.865627	-1.337012
H80	H	1.240075	-1.020124	-1.222101
H81	H	1.240030	-1.020200	-1.012051
H82	H	1.358798	-0.865775	-0.916919
C83	C	0.982300	-0.913878	-0.562774
C84	C	1.067506	-1.020257	-0.532078
C85	C	1.035687	-1.152228	-0.494020
C86	C	0.918661	-1.177822	-0.486659
C87	C	0.833447	-1.071440	-0.517356
C88	C	0.865266	-0.939469	-0.555413
H89	H	1.154143	-1.001314	-0.537526
H90	H	1.098769	-1.230979	-0.471297
H91	H	0.895106	-1.275515	-0.458487
H92	H	0.746810	-1.090383	-0.511907
H93	H	0.802185	-0.860718	-0.578137
C94	C	1.653217	-0.301724	-0.892408
C95	C	1.714143	-0.187373	-0.928881
C96	C	1.676281	-0.055372	-0.897086
C97	C	1.577494	-0.037722	-0.828817
C98	C	1.516562	-0.152077	-0.792339
C99	C	1.554424	-0.284078	-0.824135
H100	H	1.787276	-0.200435	-0.979422
H101	H	1.721387	0.029281	-0.924090
H102	H	1.549466	0.059993	-0.805280
H103	H	1.443429	-0.139014	-0.741799
H104	H	1.509318	-0.368731	-0.797131
H105	H	1.770592	-0.468762	-0.887933
