data_functionalizedCrystal
_audit_creation_method	'MofGen! by Chris Wilmer'
_symmetry_space_group_name_H-M	'P1'
_symmetry_Int_Tables_number	1
_symmetry_cell_setting	triclinic
loop_
_symmetry_equiv_pos_as_xyz
  x,y,z
_cell_length_a	19.077105
_cell_length_b	21.295417
_cell_length_c	19.076919
_cell_angle_alpha	87.732301
_cell_angle_beta	89.923776
_cell_angle_gamma	87.725910
loop_
_atom_site_label
_atom_site_type_symbol
_atom_site_fract_x
_atom_site_fract_y
_atom_site_fract_z
Zn1	Zn	1.058240	-0.304535	0.440394
Zn2	Zn	1.062870	-0.405748	0.322879
Zn3	Zn	0.945459	-0.296102	0.318188
Zn4	Zn	0.940692	-0.405368	0.435631
O5	O	1.001815	-0.352938	0.379273
O6	O	1.157186	-0.321649	0.428761
O7	O	1.051228	-0.387833	0.223925
O8	O	0.960477	-0.209135	0.334428
O9	O	1.160587	-0.396010	0.342424
O10	O	1.043337	-0.215330	0.424212
O11	O	0.964966	-0.307277	0.220479
O12	O	0.846495	-0.306909	0.329811
O13	O	0.952352	-0.395363	0.534594
O14	O	0.842993	-0.387186	0.416096
O15	O	1.038714	-0.321281	0.538093
O16	O	1.046605	-0.493784	0.337806
O17	O	0.956842	-0.493505	0.420645
C18	C	0.819248	-0.346091	0.371928
C19	C	0.741144	-0.343178	0.368802
C20	C	0.702648	-0.383664	0.412187
C21	C	0.629261	-0.380918	0.409254
C22	C	0.594371	-0.337690	0.362931
C23	C	0.632872	-0.297200	0.319544
C24	C	0.706257	-0.299943	0.322482
C25	C	0.375085	-0.324995	0.349340
C26	C	0.301694	-0.322256	0.346404
C27	C	0.298089	-0.405974	0.436115
C28	C	0.371476	-0.408716	0.439045
C29	C	0.409970	-0.368224	0.395661
N30	N	0.519358	-0.334883	0.359930
N31	N	0.484982	-0.371027	0.398666
C32	C	1.001727	-0.516485	0.379234
C33	C	1.001753	-0.586455	0.379243
C34	C	1.044871	-0.622490	0.426025
C35	C	1.044895	-0.688234	0.426043
C36	C	1.001809	-0.717940	0.379267
C37	C	0.958682	-0.681896	0.332482
C38	C	0.958654	-0.616153	0.332470
N39	N	0.998975	-0.818882	0.317559
N40	N	0.999006	-0.881335	0.317573
C41	C	1.001890	-0.916019	0.379302
N42	N	1.004755	-0.885891	0.441020
N43	N	1.004728	-0.823432	0.441005
C44	C	1.001834	-0.789227	0.379276
C45	C	1.045036	-1.023342	0.426108
C46	C	1.045055	-1.089087	0.426127
C47	C	0.958846	-1.082748	0.332560
C48	C	0.958823	-1.017004	0.332547
C49	C	1.001922	-0.987305	0.379320
C50	C	1.185096	-0.359812	0.386647
C51	C	1.263199	-0.362742	0.389789
C52	C	0.994485	-0.359220	0.562552
C53	C	0.991361	-0.361897	0.640655
C54	C	1.001922	-0.188754	0.379328
C55	C	1.001968	-0.118788	0.379352
C56	C	1.009157	-0.346637	0.196708
C57	C	1.012417	-0.343788	0.118611
C58	C	1.034856	-0.324586	0.679171
C59	C	1.031912	-0.327098	0.752557
C60	C	0.985477	-0.366926	0.787425
C61	C	0.941978	-0.404238	0.748904
C62	C	0.944919	-0.401722	0.675520
C63	C	0.971858	-0.378584	1.006706
C64	C	0.968923	-0.381099	1.080095
C65	C	1.058856	-0.303958	1.083742
C66	C	1.061795	-0.301448	1.010356
C67	C	1.018294	-0.338758	0.971842
N68	N	0.982469	-0.369496	0.862437
N69	N	1.021299	-0.336184	0.896831
H70	H	0.266739	-0.438940	0.471437
H71	H	0.904167	-0.436664	0.777300
H72	H	0.931107	-0.413533	1.108483
O73	O	0.747784	-0.256284	0.275681
H74	H	0.711196	-0.225769	0.242969
H75	H	0.923599	-0.706087	0.294399
H76	H	1.094272	-0.273581	1.115109
H77	H	1.099610	-0.269018	0.981971
O78	O	1.084946	-0.281633	0.641565
H79	H	1.054859	-0.247284	0.606869
O80	O	0.587743	-0.424700	0.455912
H81	H	0.624336	-0.455267	0.488561
O82	O	0.595234	-0.250589	0.269570
H83	H	0.560548	-0.218440	0.299737
O84	O	0.416590	-0.281335	0.302525
H85	H	0.402041	-0.231835	0.314098
O86	O	0.912156	-0.577280	0.282002
H87	H	0.882202	-0.608978	0.249473
H88	H	1.080001	-0.717580	0.464146
O89	O	1.091350	-0.590452	0.476470
H90	H	1.128367	-0.560750	0.446473
H91	H	0.399878	-0.443919	0.476765
O92	O	0.924905	-0.418790	0.965167
H93	H	0.892115	-0.446898	1.001744
O94	O	1.091512	-0.991302	0.476558
H95	H	1.121492	-1.027408	0.509100
H96	H	0.273289	-0.287047	0.308687
O97	O	0.897998	-0.441962	0.633981
H98	H	0.930758	-0.474021	0.601794
O99	O	0.740279	-0.430287	0.462153
H100	H	0.701178	-0.457972	0.491834
O101	O	1.091562	-1.127959	0.476588
H102	H	1.121529	-1.096260	0.509103
H103	H	0.923760	-1.106933	0.294479
H104	H	1.067332	-0.296717	0.783913
H105	H	0.923715	-0.987661	0.294450
