data_functionalizedCrystal
_audit_creation_method	'MofGen! by Chris Wilmer'
_symmetry_space_group_name_H-M	'P1'
_symmetry_Int_Tables_number	1
_symmetry_cell_setting	triclinic
loop_
_symmetry_equiv_pos_as_xyz
  x,y,z
_cell_length_a	19.077105
_cell_length_b	21.295417
_cell_length_c	19.076919
_cell_angle_alpha	92.267699
_cell_angle_beta	90.076224
_cell_angle_gamma	87.725910
loop_
_atom_site_label
_atom_site_type_symbol
_atom_site_fract_x
_atom_site_fract_y
_atom_site_fract_z
Zn1	Zn	1.058240	-0.304535	-0.440394
Zn2	Zn	1.558240	0.195465	0.059606
Zn3	Zn	1.062870	-0.405748	-0.322879
Zn4	Zn	1.562870	0.094252	0.177121
Zn5	Zn	0.945459	-0.296102	-0.318188
Zn6	Zn	1.445459	0.203898	0.181812
Zn7	Zn	0.940692	-0.405368	-0.435631
Zn8	Zn	1.440692	0.094632	0.064369
O9	O	1.001815	-0.352938	-0.379273
O10	O	1.501815	0.147062	0.120727
O11	O	1.157186	-0.321649	-0.428761
O12	O	1.657186	0.178351	0.071239
O13	O	1.051228	-0.387833	-0.223925
O14	O	1.551228	0.112167	0.276075
O15	O	0.960477	-0.209135	-0.334428
O16	O	1.460477	0.290865	0.165572
O17	O	1.160587	-0.396010	-0.342424
O18	O	1.660587	0.103990	0.157576
O19	O	1.043337	-0.215330	-0.424212
O20	O	1.543337	0.284670	0.075788
O21	O	0.964966	-0.307277	-0.220479
O22	O	1.464966	0.192723	0.279521
O23	O	0.846495	-0.306909	-0.329811
O24	O	1.346495	0.193091	0.170189
O25	O	0.952352	-0.395363	-0.534594
O26	O	1.452352	0.104637	-0.034594
O27	O	0.842993	-0.387186	-0.416096
O28	O	1.342993	0.112814	0.083904
O29	O	1.038714	-0.321281	-0.538093
O30	O	1.538714	0.178719	-0.038093
O31	O	1.046605	-0.493784	-0.337806
O32	O	1.546605	0.006216	0.162194
O33	O	0.956842	-0.493505	-0.420645
O34	O	1.456842	0.006495	0.079355
C35	C	0.819248	-0.346091	-0.371928
C36	C	1.319248	0.153909	0.128072
C37	C	0.741144	-0.343178	-0.368802
C38	C	1.241144	0.156822	0.131198
C39	C	1.001727	-0.516485	-0.379234
C40	C	1.501727	-0.016485	0.120766
C41	C	1.001753	-0.586455	-0.379243
C42	C	1.501753	-0.086455	0.120757
C43	C	0.702648	-0.383664	-0.412187
C44	C	1.202648	0.116336	0.087813
C45	C	0.629261	-0.380918	-0.409254
C46	C	1.129261	0.119082	0.090746
C47	C	0.594371	-0.337690	-0.362931
C48	C	1.094371	0.162310	0.137069
C49	C	0.632872	-0.297200	-0.319544
C50	C	1.132872	0.202800	0.180456
C51	C	0.706257	-0.299943	-0.322482
C52	C	1.206257	0.200057	0.177518
C53	C	0.375085	-0.324995	-0.349340
C54	C	0.875085	0.175005	0.150660
C55	C	0.301694	-0.322256	-0.346404
C56	C	0.801694	0.177744	0.153596
C57	C	0.298089	-0.405974	-0.436115
C58	C	0.798089	0.094026	0.063885
C59	C	0.371476	-0.408716	-0.439045
C60	C	0.871476	0.091284	0.060955
C61	C	0.409970	-0.368224	-0.395661
C62	C	0.909970	0.131776	0.104339
N63	N	0.519358	-0.334883	-0.359930
N64	N	1.019358	0.165117	0.140070
N65	N	0.484982	-0.371027	-0.398666
N66	N	0.984982	0.128973	0.101334
C67	C	1.044871	-0.622490	-0.426025
C68	C	1.544871	-0.122490	0.073975
C69	C	1.044895	-0.688234	-0.426043
C70	C	1.544895	-0.188234	0.073957
C71	C	1.001809	-0.717940	-0.379267
C72	C	1.501809	-0.217940	0.120733
C73	C	0.958682	-0.681896	-0.332482
C74	C	1.458682	-0.181896	0.167518
C75	C	0.958654	-0.616153	-0.332470
C76	C	1.458654	-0.116153	0.167530
N77	N	0.998975	-0.818882	-0.317559
N78	N	1.498975	-0.318882	0.182441
N79	N	0.999006	-0.881335	-0.317573
N80	N	1.499006	-0.381335	0.182427
C81	C	1.001890	-0.916019	-0.379302
C82	C	1.501890	-0.416019	0.120698
N83	N	1.004755	-0.885891	-0.441020
N84	N	1.504755	-0.385891	0.058980
N85	N	1.004728	-0.823432	-0.441005
N86	N	1.504728	-0.323432	0.058995
C87	C	1.001834	-0.789227	-0.379276
C88	C	1.501834	-0.289227	0.120724
C89	C	1.045036	-1.023342	-0.426108
C90	C	1.545036	-0.523342	0.073892
C91	C	1.045055	-1.089087	-0.426127
C92	C	1.545055	-0.589087	0.073873
C93	C	0.958846	-1.082748	-0.332560
C94	C	1.458846	-0.582748	0.167440
C95	C	0.958823	-1.017004	-0.332547
C96	C	1.458823	-0.517004	0.167453
C97	C	1.001922	-0.987305	-0.379320
C98	C	1.501922	-0.487305	0.120680
C99	C	1.185096	-0.359812	-0.386647
C100	C	1.685096	0.140188	0.113353
C101	C	1.263199	-0.362742	-0.389789
C102	C	1.763199	0.137258	0.110211
C103	C	0.994485	-0.359220	-0.562552
C104	C	1.494485	0.140780	-0.062552
C105	C	0.991361	-0.361897	-0.640655
C106	C	1.491361	0.138103	-0.140655
C107	C	1.001922	-0.188754	-0.379328
C108	C	1.501922	0.311246	0.120672
C109	C	1.001968	-0.118788	-0.379352
C110	C	1.501968	0.381212	0.120648
C111	C	1.034856	-0.324586	-0.679171
C112	C	1.534856	0.175414	-0.179171
C113	C	1.031912	-0.327098	-0.752557
C114	C	1.531912	0.172902	-0.252557
C115	C	0.985477	-0.366926	-0.787425
C116	C	1.485477	0.133074	-0.287425
C117	C	0.941978	-0.404238	-0.748904
C118	C	1.441978	0.095762	-0.248904
C119	C	0.944919	-0.401722	-0.675520
C120	C	1.444919	0.098278	-0.175520
C121	C	0.971858	-0.378584	-1.006706
C122	C	1.471858	0.121416	-0.506706
C123	C	0.968923	-0.381099	-1.080095
C124	C	1.468923	0.118901	-0.580095
C125	C	1.058856	-0.303958	-1.083742
C126	C	1.558856	0.196042	-0.583742
C127	C	1.061795	-0.301448	-1.010356
C128	C	1.561795	0.198552	-0.510356
C129	C	1.018294	-0.338758	-0.971842
C130	C	1.518294	0.161242	-0.471842
N131	N	0.982469	-0.369496	-0.862437
N132	N	1.482469	0.130504	-0.362437
N133	N	1.021299	-0.336184	-0.896831
N134	N	1.521299	0.163816	-0.396831
C135	C	1.009157	-0.346637	-0.196708
C136	C	1.509157	0.153363	0.303292
C137	C	1.012417	-0.343788	-0.118611
C138	C	1.512417	0.156212	0.381389
H139	H	0.731050	-0.418867	-0.449906
H140	H	1.231050	0.081133	0.050094
C141	C	0.897073	-0.442768	-0.633153
C142	C	1.397073	0.057232	-0.133153
N143	N	0.861032	-0.473685	-0.601243
N144	N	1.361032	0.026315	-0.101243
C145	C	0.594490	-0.249646	-0.268591
C146	C	1.094490	0.250354	0.231409
N147	N	0.565582	-0.213829	-0.230210
N148	N	1.065582	0.286171	0.269790
C149	C	1.092285	-0.589826	-0.477473
C150	C	1.592285	-0.089826	0.022527
N151	N	1.128000	-0.565222	-0.516222
N152	N	1.628000	-0.065222	-0.016222
C153	C	0.417420	-0.280455	-0.301611
C154	C	0.917420	0.219545	0.198389
N155	N	0.449308	-0.246907	-0.265658
N156	N	0.949308	0.253093	0.234342
H157	H	1.099610	-0.269018	-0.981971
H158	H	1.599610	0.230982	-0.481971
C159	C	0.911385	-0.977363	-0.281087
C160	C	1.411385	-0.477363	0.218913
N161	N	0.875647	-0.947505	-0.242328
N162	N	1.375647	-0.447505	0.257672
C163	C	0.890892	-0.448043	-0.787263
C164	C	1.390892	0.051957	-0.287263
N165	N	0.852413	-0.481037	-0.816153
N166	N	1.352413	0.018963	-0.316153
C167	C	0.917836	-0.424912	-1.118449
C168	C	1.417836	0.075088	-0.618449
N169	N	0.879360	-0.457911	-1.147337
N170	N	1.379360	0.042089	-0.647337
H171	H	1.080127	-0.999160	-0.464196
H172	H	1.580127	-0.499160	0.035804
C173	C	0.586920	-0.425468	-0.456968
C174	C	1.086920	0.074532	0.043032
N175	N	0.555029	-0.459028	-0.492904
N176	N	1.055029	0.040972	0.007096
H177	H	1.072670	-0.292156	-0.650786
H178	H	1.572670	0.207844	-0.150786
H179	H	1.080167	-1.118427	-0.464226
H180	H	1.580167	-0.618427	0.035774
C181	C	0.911441	-1.115420	-0.281115
C182	C	1.411441	-0.615420	0.218885
N183	N	0.875729	-1.140032	-0.242370
N184	N	1.375729	-0.640032	0.257630
C185	C	1.092333	-0.727881	-0.477506
C186	C	1.592333	-0.227881	0.022494
N187	N	1.128065	-0.757741	-0.516266
N188	N	1.628065	-0.257741	-0.016266
C189	C	0.409849	-0.456274	-0.490000
C190	C	0.909849	0.043726	0.010000
N191	N	0.438752	-0.492098	-0.528378
N192	N	0.938752	0.007902	-0.028378
H193	H	0.266739	-0.438940	-0.471437
H194	H	0.766739	0.061060	0.028563
C195	C	0.263317	-0.274698	-0.295444
C196	C	0.763317	0.225302	0.204556
N197	N	0.234411	-0.238880	-0.257062
N198	N	0.734411	0.261120	0.242938
H199	H	0.936446	-0.408974	-0.975356
H200	H	1.436446	0.091026	-0.475356
C201	C	0.911315	-0.714574	-0.281003
C202	C	1.411315	-0.214574	0.218997
N203	N	0.875646	-0.739187	-0.242219
N204	N	1.375646	-0.239187	0.257781
H205	H	0.737600	-0.266972	-0.287157
H206	H	1.237600	0.233028	0.212843
H207	H	0.923541	-0.586812	-0.294374
H208	H	1.423541	-0.086812	0.205626
C209	C	1.079761	-0.286054	-0.794921
C210	C	1.579761	0.213946	-0.294921
N211	N	1.115803	-0.255138	-0.826829
N212	N	1.615803	0.244862	-0.326829
H213	H	1.094272	-0.273581	-1.115109
H214	H	1.594272	0.226419	-0.615109
