data_functionalizedCrystal
_audit_creation_method	'MofGen! by Chris Wilmer'
_symmetry_space_group_name_H-M	'P1'
_symmetry_Int_Tables_number	1
_symmetry_cell_setting	triclinic
loop_
_symmetry_equiv_pos_as_xyz
  x,y,z
_cell_length_a	10.686285
_cell_length_b	19.077105
_cell_length_c	19.076919
_cell_angle_alpha	90.076224
_cell_angle_beta	88.081200
_cell_angle_gamma	83.162422
loop_
_atom_site_label
_atom_site_type_symbol
_atom_site_fract_x
_atom_site_fract_y
_atom_site_fract_z
Zn1	Zn	-0.610610	1.085506	-0.415453
Zn2	Zn	-0.813548	1.099198	-0.289649
Zn3	Zn	-0.593702	0.971970	-0.293938
Zn4	Zn	-0.812786	0.976985	-0.402433
O5	O	-0.707661	1.033415	-0.350368
O6	O	-0.644924	1.185984	-0.402419
O7	O	-0.777627	1.085952	-0.192163
O8	O	-0.419327	0.979201	-0.317301
O9	O	-0.794022	1.196043	-0.309992
O10	O	-0.431749	1.062616	-0.406578
O11	O	-0.616107	0.992478	-0.195314
O12	O	-0.615369	0.873973	-0.304676
O13	O	-0.792725	0.987750	-0.502215
O14	O	-0.776330	0.877659	-0.384387
O15	O	-0.644186	1.067480	-0.511781
O16	O	-0.990065	1.090815	-0.297367
O17	O	-0.989505	1.001026	-0.380228
C18	C	-0.693933	0.850234	-0.343584
C19	C	-0.688092	0.771869	-0.340697
C20	C	-0.769268	0.736999	-0.380767
C21	C	-0.763763	0.663366	-0.378058
C22	C	-0.677087	0.624605	-0.335276
C23	C	-0.595902	0.659481	-0.295205
C24	C	-0.601402	0.733112	-0.297918
C25	C	-0.651633	0.404183	-0.322724
C26	C	-0.646142	0.330547	-0.320013
C27	C	-0.814001	0.334437	-0.402867
C28	C	-0.819499	0.408069	-0.405573
C29	C	-0.738310	0.442938	-0.365505
N30	N	-0.671460	0.549341	-0.332505
N31	N	-0.743931	0.518201	-0.368280
C32	C	-1.035583	1.047969	-0.336935
C33	C	-1.175875	1.054260	-0.331214
C34	C	-0.378462	1.018822	-0.363870
C35	C	-0.238177	1.012603	-0.369624
C36	C	-0.720257	1.026647	-0.533134
C37	C	-0.725624	1.023763	-0.611017
C38	C	-0.721444	1.217311	-0.357180
C39	C	-0.727318	1.295676	-0.360082
C40	C	-0.650813	1.063917	-0.652589
C41	C	-0.655851	1.061198	-0.725768
C42	C	-0.735707	1.018329	-0.757375
C43	C	-0.810521	0.978171	-0.715799
C44	C	-0.805476	0.980886	-0.642621
C45	C	-0.759083	1.005754	-0.975701
C46	C	-0.764125	1.003043	-1.048885
C47	C	-0.609453	1.086070	-1.058849
C48	C	-0.604420	1.088785	-0.985669
C49	C	-0.679229	1.048624	-0.944099
N50	N	-0.740861	1.015551	-0.832177
N51	N	-0.674067	1.051398	-0.869299
C52	C	-0.695027	1.040193	-0.168319
C53	C	-0.689314	1.043197	-0.090456
H54	H	-0.829866	0.634977	-0.410686
O55	O	-0.903522	0.445783	-0.447184
C56	C	-0.838089	0.483504	-0.497026
H57	H	-0.741502	0.491194	-0.476723
H58	H	-0.825819	0.452601	-0.548480
C59	C	-1.032293	0.546619	-0.534324
C60	C	-0.913666	0.556069	-0.509386
H61	H	-1.078914	0.591380	-0.541952
H62	H	-1.076378	0.521204	-0.500747
H63	H	-1.022051	0.520864	-0.577200
H64	H	-0.923909	0.581816	-0.466507
H65	H	-0.869585	0.581490	-0.542956
O66	O	-0.892727	0.300450	-0.441770
C67	C	-0.869314	0.227152	-0.430191
H68	H	-0.769522	0.213607	-0.410951
H69	H	-0.939939	0.210952	-0.388978
C70	C	-1.005704	0.203899	-0.522837
C71	C	-0.883133	0.187262	-0.499212
H72	H	-1.014234	0.179292	-0.565411
H73	H	-1.021482	0.253281	-0.530637
H74	H	-1.064545	0.190399	-0.488487
H75	H	-0.824297	0.200771	-0.533558
H76	H	-0.867345	0.137881	-0.491420
O77	O	-0.561824	0.292998	-0.278440
C78	C	-0.491363	0.339564	-0.243643
H79	H	-0.492965	0.390803	-0.274457
H80	H	-0.534340	0.351403	-0.188783
C81	C	-0.352209	0.242287	-0.200269
C82	C	-0.354167	0.305218	-0.238118
H83	H	-0.267581	0.221101	-0.196857
H84	H	-0.399682	0.210915	-0.223710
H85	H	-0.388029	0.252162	-0.154556
H86	H	-0.318362	0.295342	-0.283832
H87	H	-0.306685	0.336589	-0.214685
H88	H	-1.229869	1.094733	-0.293946
O89	O	-0.572953	0.438132	-0.283758
C90	C	-0.644732	0.485565	-0.237051
H91	H	-0.742968	0.499948	-0.258164
H92	H	-0.652763	0.459706	-0.183506
C93	C	-0.458935	0.535214	-0.203911
C94	C	-0.579587	0.552885	-0.229846
H95	H	-0.418749	0.576739	-0.199463
H96	H	-0.410574	0.503256	-0.235377
H97	H	-0.465645	0.513664	-0.159293
H98	H	-0.572875	0.574426	-0.274467
H99	H	-0.627945	0.584848	-0.198388
H100	H	-0.525323	0.627916	-0.260374
H101	H	-0.585790	1.098828	-0.626860
O102	O	-0.522502	0.766880	-0.258921
C103	C	-0.444801	0.716881	-0.220589
H104	H	-0.492398	0.666780	-0.214067
H105	H	-0.350204	0.703850	-0.249970
C106	C	-0.364955	0.809081	-0.155852
C107	C	-0.423420	0.747548	-0.147836
H108	H	-0.351760	0.827998	-0.110975
H109	H	-0.417299	0.842767	-0.181679
H110	H	-0.286130	0.798214	-0.180338
H111	H	-0.502249	0.758418	-0.123358
H112	H	-0.371088	0.713865	-0.122003
H113	H	-1.184190	0.972128	-0.406885
O114	O	-0.853595	0.774688	-0.422222
C115	C	-0.935413	0.822379	-0.380494
H116	H	-0.937597	0.802563	-0.324168
H117	H	-0.900388	0.876537	-0.381771
C118	C	-1.066467	0.852420	-0.478455
C119	C	-1.069157	0.828078	-0.409275
H120	H	-1.148965	0.855939	-0.496209
H121	H	-1.011342	0.820292	-0.506569
H122	H	-1.037274	0.897550	-0.479510
H123	H	-1.098334	0.782946	-0.408222
H124	H	-1.124290	0.860199	-0.381161
H125	H	-0.594935	1.093898	-0.759613
H126	H	-0.539397	1.123696	-0.959940
O127	O	-0.841727	0.961336	-1.079476
C128	C	-0.906698	0.926483	-1.027094
H129	H	-0.851223	0.923681	-0.976960
H130	H	-1.003954	0.956837	-1.016335
C131	C	-0.989363	0.854636	-1.113707
C132	C	-0.921222	0.851190	-1.052133
H133	H	-0.998328	0.808193	-1.129153
H134	H	-0.945595	0.878118	-1.148999
H135	H	-1.070402	0.879934	-1.104733
H136	H	-0.840179	0.825900	-1.061111
H137	H	-0.964976	0.827701	-1.016844
O138	O	-0.831822	0.966846	-0.935257
C139	C	-0.913465	1.012160	-0.891081
H140	H	-0.872207	1.064023	-0.883911
H141	H	-1.009516	1.023010	-0.915740
C142	C	-0.979306	0.913244	-0.828008
C143	C	-0.928626	0.976942	-0.819197
H144	H	-0.988664	0.891520	-0.783668
H145	H	-0.924306	0.882715	-0.857772
H146	H	-1.059343	0.922295	-0.848560
H147	H	-0.848584	0.967889	-0.798654
H148	H	-0.983614	1.007469	-0.789429
H149	H	-0.548546	1.118766	-1.092703
H150	H	-0.875537	0.943263	-0.741539
H151	H	-0.866381	0.948181	-0.608774
