data_functionalizedCrystal
_audit_creation_method	'MofGen! by Chris Wilmer'
_symmetry_space_group_name_H-M	'P1'
_symmetry_Int_Tables_number	1
_symmetry_cell_setting	triclinic
loop_
_symmetry_equiv_pos_as_xyz
  x,y,z
_cell_length_a	14.446369
_cell_length_b	14.446369
_cell_length_c	14.446369
_cell_angle_alpha	119.993691
_cell_angle_beta	89.997863
_cell_angle_gamma	59.996157
loop_
_atom_site_label
_atom_site_type_symbol
_atom_site_fract_x
_atom_site_fract_y
_atom_site_fract_z
Zr1	Zr	0.891731	1.013175	0.121425
O2	O	0.743918	1.206284	0.269224
O3	O	0.937049	0.820060	0.076118
O4	O	0.937048	1.013154	0.269219
O5	O	0.743915	1.013208	-0.076201
O6	O	1.089385	1.013146	0.269214
O7	O	0.743920	1.013189	0.076123
O8	O	1.089388	0.667735	-0.076210
O9	O	0.743912	1.358619	0.269222
O10	O	1.070058	0.899487	0.056789
O11	O	0.956366	0.899507	-0.056884
O12	O	0.956364	1.126852	0.170468
O13	O	0.842673	1.126872	0.056795
Zr14	Zr	1.134683	1.013192	-0.121523
Zr15	Zr	1.134691	1.013162	0.121416
Zr16	Zr	0.891723	1.013205	-0.121514
Zr17	Zr	0.891721	1.256132	0.121422
Zr18	Zr	1.134693	0.770235	-0.121520
O19	O	1.089365	1.206307	-0.076216
O20	O	1.089376	1.206265	0.269211
O21	O	0.743907	1.206326	-0.076203
O22	O	1.282496	0.820083	-0.269322
O23	O	1.282507	0.820041	0.076105
O24	O	0.937038	0.820102	-0.269309
O25	O	1.282499	1.013159	0.076103
O26	O	1.089366	1.013213	-0.269317
O27	O	0.937029	1.013221	-0.269312
O28	O	1.282494	1.013178	-0.076221
O29	O	0.937033	1.358608	0.269215
O30	O	1.089381	0.667759	-0.269313
O31	O	1.282502	0.667748	-0.269320
O32	O	1.282509	0.667724	-0.076217
O33	O	0.743905	1.358643	0.076119
O34	O	0.937026	1.358632	0.076111
O35	O	1.070050	0.899515	-0.170566
O36	O	1.183741	0.899495	-0.056893
O37	O	1.070048	1.126859	0.056786
O38	O	0.956356	1.126880	-0.056887
C39	C	0.709301	1.013200	-0.000038
C40	C	0.606158	1.013206	-0.000034
C41	C	1.013220	0.709281	-0.000046
C42	C	1.013225	0.606139	-0.000044
C43	C	0.387785	1.156590	0.071302
C44	C	0.495017	1.156686	0.071703
C45	C	0.602839	0.941968	0.052263
C46	C	0.495070	0.942878	0.052786
C47	C	0.496428	0.939947	-0.123758
C48	C	0.602397	0.942649	-0.123563
C49	C	1.084564	0.459811	0.072000
C50	C	1.084968	0.566735	0.071692
C51	C	1.065526	0.479294	-0.123566
C52	C	1.066046	0.371915	-0.123176
C53	C	0.889484	0.546878	0.050420
C54	C	0.889682	0.655352	0.052925
C55	C	1.317113	1.013167	-0.000060
C56	C	1.420256	1.013161	-0.000064
C57	C	1.013217	1.013146	0.303830
C58	C	1.013221	1.013133	0.406964
C59	C	1.013194	1.317086	-0.000053
C60	C	1.013189	1.420228	-0.000054
C61	C	1.085289	0.869739	0.481943
C62	C	1.084973	0.869650	0.374618
C63	C	0.889690	1.084362	0.481525
C64	C	0.890089	1.083445	0.588380
C65	C	1.063696	1.086388	0.589947
C66	C	1.066192	1.083693	0.481279
C67	C	1.013205	1.013204	0.696063
C68	C	1.013226	1.013165	0.592904
C69	C	1.317126	0.709264	-0.000057
C70	C	1.420274	0.606117	-0.000059
C71	C	1.013210	0.709319	-0.303924
C72	C	1.013211	0.606190	-0.407057
C73	C	1.317116	0.709302	-0.303936
C74	C	1.420260	0.606167	-0.407072
C75	C	0.709298	1.317065	0.303838
C76	C	0.606154	1.420200	0.406974
C77	C	0.709288	1.317103	-0.000041
C78	C	0.606140	1.420250	-0.000039
C79	C	1.013204	1.317048	0.303826
C80	C	1.013203	1.420177	0.406959
C81	C	1.638646	0.459801	-0.071387
C82	C	1.531410	0.566729	-0.071795
C83	C	1.423606	0.479265	-0.052352
C84	C	1.531379	0.371882	-0.052868
C85	C	1.530004	0.546839	0.123674
C86	C	1.424031	0.655316	0.123472
C87	C	0.941166	0.459885	-0.482033
C88	C	0.941469	0.566798	-0.374709
C89	C	1.136747	0.479335	-0.481611
C90	C	1.136361	0.371968	-0.588465
C91	C	0.962746	0.546950	-0.590047
C92	C	0.960237	0.655412	-0.481380
C93	C	1.495245	0.459848	-0.625422
C94	C	1.387910	0.566785	-0.518197
C95	C	1.494809	0.479315	-0.410384
C96	C	1.601674	0.371924	-0.518146
C97	C	1.603281	0.546868	-0.516809
C98	C	1.494603	0.655354	-0.410847
H99	H	0.493254	1.212863	0.036896
F100	F	0.821959	0.508564	-0.478974
H101	H	1.421471	0.440717	-0.142512
H102	H	0.492571	1.212905	0.162948
H103	H	0.845781	0.586416	0.139989
H104	H	1.019159	1.188370	0.506794
F105	F	1.595376	0.598561	0.180772
F106	F	1.427405	0.773624	-0.411542
H107	H	1.424549	0.745800	0.162536
H108	H	1.007267	0.687538	-0.506903
H109	H	0.604975	0.991432	0.142422
F110	F	1.185029	0.253290	-0.175993
F111	F	1.530405	0.508380	-0.308093
F112	F	0.814323	0.697351	-0.008543
H113	H	0.848997	1.034896	0.429926
H114	H	1.177441	0.440769	-0.430007
F115	F	1.316975	0.683567	-0.520321
F116	F	1.533477	0.683544	-0.025888
H117	H	1.049898	0.656072	0.162650
F118	F	1.038946	0.508474	0.191196
F119	F	1.709171	0.508472	-0.025773
F120	F	1.203871	0.796593	0.303669
H121	H	1.607408	0.586429	-0.566836
F122	F	0.838598	0.773640	0.171860
H123	H	0.836055	0.522098	-0.001811
F124	F	1.204497	0.796145	0.478883
F125	F	1.039957	0.796523	0.480590
F126	F	1.601307	0.253318	-0.583934
F127	F	0.987234	0.517822	-0.304404
F128	F	0.837277	1.017285	0.588033
H129	H	1.176773	0.281212	-0.588191
H130	H	0.601875	0.994591	-0.162632
H131	H	1.175277	0.370150	0.037297
F132	F	1.039150	0.796210	0.304353
H133	H	1.680260	0.341955	-0.491496
H134	H	1.492917	0.497080	-0.679387
F135	F	0.822567	0.683584	-0.303771
F136	F	1.427343	0.428936	-0.407579
F137	F	1.000854	0.508380	-0.196786
H138	H	1.014983	0.522166	-0.668260
F139	F	1.317586	0.517843	-0.521386
H140	H	1.155694	0.440737	-0.164257
H141	H	0.975856	0.370217	-0.480997
H142	H	0.833473	1.188674	0.666958
F143	F	0.315920	1.229801	0.189849
F144	F	1.210359	0.332811	-0.691174
F145	F	1.209971	0.508409	-0.517207
H146	H	1.520130	0.687469	-0.331699
F147	F	0.845643	0.598679	-0.595427
F148	F	0.841268	0.773669	-0.414185
F149	F	1.493883	0.342665	-0.697277
H150	H	1.681503	0.522065	-0.489368
F151	F	0.816455	1.222257	0.517118
F152	F	1.494131	0.514432	0.193505
F153	F	0.317252	1.230182	0.025687
F154	F	0.429261	1.009038	0.171759
H155	H	0.523870	0.834290	-0.177183
F156	F	0.529908	0.805336	-0.010749
H157	H	1.176224	0.529269	0.036683
H158	H	0.446401	0.985846	-0.167446
F159	F	0.705143	0.804074	-0.012405
F160	F	0.705851	0.805814	-0.198907
F161	F	0.995417	1.224491	0.692174
H162	H	1.017417	0.341969	-0.179779
H163	H	1.153289	1.040484	0.594060
H164	H	1.157205	1.031747	0.429860
H165	H	1.533866	0.529273	-0.163043
F166	F	1.710505	0.342615	-0.189936
H167	H	1.581728	0.281135	-0.143889
F168	F	1.496549	0.332716	0.010684
F169	F	1.320567	0.697301	0.198823
F170	F	1.321305	0.508335	0.012313
