data_functionalizedCrystal
_audit_creation_method	'MofGen! by Chris Wilmer'
_symmetry_space_group_name_H-M	'P1'
_symmetry_Int_Tables_number	1
_symmetry_cell_setting	triclinic
loop_
_symmetry_equiv_pos_as_xyz
  x,y,z
_cell_length_a	17.077404
_cell_length_b	19.076808
_cell_length_c	17.077396
_cell_angle_alpha	87.669711
_cell_angle_beta	89.982756
_cell_angle_gamma	92.323651
loop_
_atom_site_label
_atom_site_type_symbol
_atom_site_fract_x
_atom_site_fract_y
_atom_site_fract_z
Zn1	Zn	1.187469	-0.280207	-0.431272
Zn2	Zn	1.182101	-0.397919	-0.294725
Zn3	Zn	1.056204	-0.280234	-0.300018
Zn4	Zn	1.050890	-0.397876	-0.425950
O5	O	1.119166	-0.339059	-0.362991
O6	O	1.296603	-0.295829	-0.413170
O7	O	1.165378	-0.382337	-0.185579
O8	O	1.078087	-0.181733	-0.321872
O9	O	1.292659	-0.382312	-0.312850
O10	O	1.174526	-0.181714	-0.418303
O11	O	1.072882	-0.295874	-0.189468
O12	O	0.945653	-0.295832	-0.316712
O13	O	1.069030	-0.382238	-0.536504
O14	O	0.941749	-0.382263	-0.409234
O15	O	1.169374	-0.295787	-0.540414
O16	O	1.160225	-0.496410	-0.307690
O17	O	1.063825	-0.496378	-0.404100
C18	C	0.915219	-0.339046	-0.362970
C19	C	0.827968	-0.339058	-0.362979
C20	C	1.110887	-0.521933	-0.354760
C21	C	1.107418	-0.600168	-0.351265
C22	C	0.784963	-0.384130	-0.411071
C23	C	0.702982	-0.384132	-0.411084
C24	C	0.664009	-0.339064	-0.362999
C25	C	0.707020	-0.293986	-0.314905
C26	C	0.788999	-0.293982	-0.314897
C27	C	0.536150	-0.294000	-0.314923
C28	C	0.454165	-0.294005	-0.314930
C29	C	0.450132	-0.384150	-0.411110
C30	C	0.532112	-0.384146	-0.411102
C31	C	0.575117	-0.339069	-0.363006
C32	C	1.155961	-0.636852	-0.399870
C33	C	1.152697	-0.710361	-0.396588
C34	C	1.100894	-0.747185	-0.344696
C35	C	1.052346	-0.710496	-0.296088
C36	C	1.055606	-0.636988	-0.299375
C37	C	1.085761	-0.967039	-0.329480
C38	C	1.082506	-1.040552	-0.326195
C39	C	1.182857	-1.040412	-0.426696
C40	C	1.186115	-0.966902	-0.429975
C41	C	1.137564	-0.930220	-0.381371
N42	N	1.097559	-0.822324	-0.341337
N43	N	1.140896	-0.855083	-0.384734
C44	C	1.323910	-0.339072	-0.363013
C45	C	1.411159	-0.339078	-0.363022
C46	C	1.119208	-0.339004	-0.567738
C47	C	1.119226	-0.338981	-0.654989
C48	C	1.127498	-0.155471	-0.371272
C49	C	1.131049	-0.077236	-0.374800
C50	C	1.071079	-0.293954	-0.698004
C51	C	1.071092	-0.293938	-0.779985
C52	C	1.119257	-0.338946	-0.818950
C53	C	1.167406	-0.383978	-0.775929
C54	C	1.167388	-0.383997	-0.693949
C55	C	1.167442	-0.383934	-0.946801
C56	C	1.167462	-0.383914	-1.028787
C57	C	1.071146	-0.293875	-1.032837
C58	C	1.071128	-0.293894	-0.950857
C59	C	1.119278	-0.338925	-0.907842
C60	C	1.119172	-0.339062	-0.159043
C61	C	1.119315	-0.338887	-0.071802
H62	H	0.816689	-0.420832	-0.450225
H63	H	0.675282	-0.257288	-0.275757
H64	H	0.563841	-0.420848	-0.450252
C65	C	0.836305	-0.244400	-0.261990
N66	N	0.871935	-0.207052	-0.222140
H67	H	1.031912	-0.257242	-0.919135
H68	H	1.198148	-0.606874	-0.442123
H69	H	1.040318	-1.070532	-0.283937
H70	H	1.046230	-0.937177	-0.289903
H71	H	0.422435	-0.257298	-0.275785
H72	H	0.667971	-0.420835	-0.450245
H73	H	1.016076	-0.607120	-0.259797
C74	C	1.206109	-0.750710	-0.450047
N75	N	1.246345	-0.781101	-0.490313
H76	H	1.031862	-0.257300	-0.666285
C77	C	1.220203	-0.433646	-0.818786
N78	N	1.259906	-0.471113	-0.851062
H79	H	0.415113	-0.420851	-0.450274
H80	H	1.228298	-0.936922	-0.472230
H81	H	1.206600	-0.420657	-0.658928
C82	C	1.236254	-1.080769	-0.480162
N83	N	1.276472	-1.111166	-0.520438
H84	H	1.010163	-0.740484	-0.253840
C85	C	1.018135	-0.244398	-0.827298
N86	N	0.978248	-0.207080	-0.862934
H87	H	1.031942	-0.257209	-1.067864
H88	H	1.206682	-0.420563	-1.060510
H89	H	1.206659	-0.420597	-0.911781
H90	H	0.571163	-0.257287	-0.275766
