data_functionalizedCrystal
_audit_creation_method	'MofGen! by Chris Wilmer'
_symmetry_space_group_name_H-M	'P1'
_symmetry_Int_Tables_number	1
_symmetry_cell_setting	triclinic
loop_
_symmetry_equiv_pos_as_xyz
  x,y,z
_cell_length_a	8.559649
_cell_length_b	19.288864
_cell_length_c	7.681187
_cell_angle_alpha	95.712044
_cell_angle_beta	94.908718
_cell_angle_gamma	103.542544
loop_
_atom_site_label
_atom_site_type_symbol
_atom_site_fract_x
_atom_site_fract_y
_atom_site_fract_z
O1	O	0.214598	-0.903560	0.146981
O2	O	0.241485	-0.699907	0.146858
O3	O	-0.004688	-0.819675	0.146929
O4	O	0.460772	-0.783791	0.146911
O5	O	-0.034975	-0.834457	-0.145933
O6	O	0.211199	-0.714689	-0.146003
O7	O	0.184312	-0.918341	-0.145881
Zn8	Zn	0.192947	-0.818862	-0.192440
Zn9	Zn	0.232850	-0.799386	0.193418
O10	O	0.430486	-0.798573	-0.145951
C11	C	0.225475	-0.681467	0.000412
C12	C	0.222872	-0.604501	0.000366
C13	C	-0.079380	-0.829785	0.000503
C14	C	-0.256817	-0.837880	0.000517
N15	N	0.165713	-0.832159	-0.455778
C16	C	0.505178	-0.788463	0.000479
C17	C	0.682616	-0.780368	0.000476
C18	C	0.200323	-0.936781	0.000569
C19	C	0.202927	-1.013747	0.000627
C20	C	0.367322	-0.552295	0.000388
C21	C	0.364883	-0.479973	0.000408
C22	C	0.217989	-0.459860	0.000441
C23	C	0.073519	-0.512078	0.000409
C24	C	0.075961	-0.584398	0.000371
C25	C	0.113129	-0.352419	0.103107
C26	C	0.110695	-0.280099	0.103155
C27	C	0.210453	-0.236802	0.000547
C28	C	0.312674	-0.265829	-0.102085
C29	C	0.315116	-0.338149	-0.102122
C30	C	0.215326	-0.381443	0.000480
C31	C	0.352268	-0.106176	0.000588
C32	C	0.349822	-0.033854	0.000597
C33	C	0.058456	-0.065960	0.000615
C34	C	0.060905	-0.138280	0.000589
C35	C	0.207816	-0.158383	0.000584
N36	N	0.260072	-0.786096	0.456755
H37	H	-0.233492	-0.724937	0.000437
F38	F	-0.077790	-0.639963	0.000348
H39	H	-0.340720	-0.893315	0.000536
H40	H	0.398342	-0.361781	-0.185695
H41	H	0.486949	-0.568656	0.000387
F42	F	0.518632	-0.424402	0.000427
H43	H	0.393906	-0.230578	-0.185639
H44	H	0.031892	-0.387667	0.186672
H45	H	0.471889	-0.122545	0.000558
F46	F	0.503573	0.021709	0.000611
H47	H	0.069441	-0.879170	0.469013
F48	F	-0.097882	-0.044560	0.000633
H49	H	-0.046080	-0.495696	0.000459
F50	F	-0.092840	-0.193844	0.000574
H51	H	0.027468	-0.256470	0.186731
F52	F	0.385930	-0.724650	0.555066
