data_functionalizedCrystal
_audit_creation_method	'MofGen! by Chris Wilmer'
_symmetry_space_group_name_H-M	'P1'
_symmetry_Int_Tables_number	1
_symmetry_cell_setting	triclinic
loop_
_symmetry_equiv_pos_as_xyz
  x,y,z
_cell_length_a	13.897449
_cell_length_b	19.077068
_cell_length_c	13.897441
_cell_angle_alpha	87.736015
_cell_angle_beta	90.020733
_cell_angle_gamma	92.328280
loop_
_atom_site_label
_atom_site_type_symbol
_atom_site_fract_x
_atom_site_fract_y
_atom_site_fract_z
Zn1	Zn	-1.459212	0.280154	-0.560773
Zn2	Zn	-1.125879	0.613488	-0.227439
Zn3	Zn	-0.792546	0.946821	0.105894
Zn4	Zn	-1.452598	0.397865	-0.405941
Zn5	Zn	-1.119264	0.731198	-0.072607
Zn6	Zn	-0.785931	1.064531	0.260726
Zn7	Zn	-1.297899	0.280188	-0.399493
Zn8	Zn	-0.964566	0.613521	-0.066159
Zn9	Zn	-0.631233	0.946855	0.267174
Zn10	Zn	-1.291377	0.397818	-0.567191
Zn11	Zn	-0.958044	0.731152	-0.233858
Zn12	Zn	-0.624710	1.064485	0.099476
O13	O	-1.375272	0.339006	-0.483349
O14	O	-1.041938	0.672340	-0.150016
O15	O	-0.708605	1.005673	0.183317
O16	O	-1.593316	0.295774	-0.540246
O17	O	-1.259983	0.629108	-0.206913
O18	O	-0.926649	0.962441	0.126420
O19	O	-1.432038	0.382288	-0.270106
O20	O	-1.098705	0.715621	0.063228
O21	O	-0.765371	1.048955	0.396561
O22	O	-1.324796	0.181693	-0.415502
O23	O	-0.991462	0.515026	-0.082169
O24	O	-0.658129	0.848359	0.251164
O25	O	-1.588456	0.382255	-0.426492
O26	O	-1.255123	0.715589	-0.093159
O27	O	-0.921790	1.048922	0.240175
O28	O	-1.443312	0.181668	-0.533994
O29	O	-1.109978	0.515001	-0.200660
O30	O	-0.776645	0.848335	0.132673
O31	O	-1.318382	0.295831	-0.265368
O32	O	-0.985049	0.629165	0.067965
O33	O	-0.651715	0.962498	0.401298
O34	O	-1.162053	0.295787	-0.421726
O35	O	-0.828720	0.629120	-0.088392
O36	O	-0.495386	0.962453	0.244941
O37	O	-1.313679	0.382177	-0.701319
O38	O	-0.980346	0.715510	-0.367986
O39	O	-0.647013	1.048843	-0.034653
O40	O	-1.157261	0.382209	-0.544933
O41	O	-0.823928	0.715542	-0.211600
O42	O	-0.490594	1.048876	0.121734
O43	O	-1.436987	0.295729	-0.696604
O44	O	-1.103654	0.629063	-0.363270
O45	O	-0.770320	0.962396	-0.029937
O46	O	-1.425714	0.496349	-0.432716
O47	O	-1.092380	0.829683	-0.099382
O48	O	-0.759047	1.163016	0.233951
O49	O	-1.307266	0.496315	-0.551185
O50	O	-0.973932	0.829649	-0.217852
O51	O	-0.640599	1.162982	0.115481
C52	C	-1.124658	0.338997	-0.483327
C53	C	-0.791325	0.672330	-0.149993
C54	C	-0.457991	1.005664	0.183340
C55	C	-1.017443	0.339010	-0.483341
C56	C	-0.684110	0.672343	-0.150008
C57	C	-0.350777	1.005677	0.183326
C58	C	-1.365090	0.521870	-0.493368
C59	C	-1.031757	0.855203	-0.160034
C60	C	-0.698424	1.188537	0.173299
C61	C	-1.360823	0.600100	-0.497686
C62	C	-1.027490	0.933433	-0.164352
C63	C	-0.694156	1.266767	0.168981
C64	C	-1.626864	0.339016	-0.483372
C65	C	-1.293531	0.672350	-0.150039
C66	C	-0.960197	1.005683	0.183294
C67	C	-1.734078	0.339021	-0.483382
C68	C	-1.400744	0.672354	-0.150049
C69	C	-1.067411	1.005687	0.183284
C70	C	-0.821148	0.339012	-0.483366
C71	C	-0.487815	0.672346	-0.150033
C72	C	-0.154481	1.005679	0.183300
C73	C	-0.930381	0.339009	-0.483349
C74	C	-0.597047	0.672342	-0.150016
C75	C	-0.263714	1.005676	0.183317
C76	C	-1.375344	0.338944	-0.734939
C77	C	-1.042010	0.672277	-0.401606
C78	C	-0.708677	1.005611	-0.068272
C79	C	-1.375374	0.338918	-0.842151
C80	C	-1.042041	0.672251	-0.508818
C81	C	-0.708707	1.005584	-0.175485
C82	C	-1.385519	0.155429	-0.473313
C83	C	-1.052186	0.488762	-0.139979
C84	C	-0.718852	0.822095	0.193354
C85	C	-1.389886	0.077199	-0.469036
C86	C	-1.056553	0.410532	-0.135703
C87	C	-0.723219	0.743865	0.197631
C88	C	-1.420536	0.636847	-0.438085
C89	C	-1.087202	0.970180	-0.104751
C90	C	-0.753869	1.303513	0.228582
C91	C	-1.416528	0.710352	-0.442152
C92	C	-1.083194	1.043685	-0.108819
C93	C	-0.749861	1.377019	0.224515
C94	C	-1.352801	0.747109	-0.505816
C95	C	-1.019468	1.080442	-0.172483
C96	C	-0.686135	1.413776	0.160851
C97	C	-1.293086	0.710357	-0.565423
C98	C	-0.959753	1.043690	-0.232090
C99	C	-0.626420	1.377024	0.101243
C100	C	-1.297100	0.636853	-0.561360
C101	C	-0.963767	0.970186	-0.228027
C102	C	-0.630433	1.303520	0.105306
C103	C	-1.334184	0.966943	-0.524580
C104	C	-1.000851	1.300276	-0.191247
C105	C	-0.667518	1.633609	0.142086
C106	C	-1.330173	1.040452	-0.528637
C107	C	-0.996840	1.373785	-0.195304
C108	C	-0.663507	1.707119	0.138030
C109	C	-1.453616	1.040442	-0.405366
C110	C	-1.120283	1.373775	-0.072033
C111	C	-0.786950	1.707108	0.261300
C112	C	-1.457620	0.966936	-0.401305
C113	C	-1.124287	1.300270	-0.067972
C114	C	-0.790953	1.633603	0.265362
C115	C	-1.397909	0.930191	-0.460916
C116	C	-1.064575	1.263524	-0.127583
C117	C	-0.731242	1.596858	0.205751
N118	N	-1.348701	0.822243	-0.509973
N119	N	-1.015368	1.155577	-0.176639
N120	N	-0.682034	1.488910	0.156694
N121	N	-1.402015	0.855058	-0.456763
N122	N	-1.068681	1.188391	-0.123430
N123	N	-0.735348	1.521725	0.209903
C124	C	-1.375403	0.338870	-1.038444
C125	C	-1.042070	0.672203	-0.705111
C126	C	-0.708736	1.005537	-0.371777
C127	C	-1.375384	0.338898	-0.929213
C128	C	-1.042051	0.672232	-0.595880
C129	C	-0.708717	1.005565	-0.262546
C130	C	-1.375258	0.339018	-0.232736
C131	C	-1.041925	0.672351	0.100598
C132	C	-0.708592	1.005684	0.433931
C133	C	-1.375426	0.338846	-0.125513
C134	C	-1.042092	0.672179	0.207821
C135	C	-0.708759	1.005512	0.541154
H136	H	-1.472424	0.606924	-0.386239
H137	H	-1.139091	0.940257	-0.052905
H138	H	-0.805757	1.273591	0.280428
C139	C	-1.231412	0.596432	-0.626927
C140	C	-0.898078	0.929765	-0.293594
C141	C	-0.564745	1.263099	0.039740
N142	N	-1.181936	0.565988	-0.676316
N143	N	-0.848602	0.899321	-0.342983
N144	N	-0.515269	1.232654	-0.009650
C145	C	-1.482211	0.750770	-0.376580
C146	C	-1.148877	1.084104	-0.043246
C147	C	-0.815544	1.417437	0.290087
N148	N	-1.531685	0.781213	-0.327186
N149	N	-1.198351	1.114546	0.006148
N150	N	-0.865018	1.447879	0.339481
C151	C	-1.527699	0.926509	-0.331245
C152	C	-1.194366	1.259843	0.002089
C153	C	-0.861032	1.593176	0.335422
N154	N	-1.580472	0.896059	-0.278463
N155	N	-1.247139	1.229393	0.054870
N156	N	-0.913805	1.562726	0.388204
H157	H	-1.285563	0.937030	-0.573116
H158	H	-0.952230	1.270364	-0.239783
H159	H	-0.618896	1.603697	0.093550
H160	H	-1.502231	1.070368	-0.356836
H161	H	-1.168898	1.403701	-0.023502
H162	H	-0.835565	1.737035	0.309831
C163	C	-1.260073	1.080883	-0.598681
C164	C	-0.926739	1.414216	-0.265348
C165	C	-0.593406	1.747550	0.067985
N166	N	-1.207277	1.111336	-0.651437
N167	N	-0.873943	1.444669	-0.318104
N168	N	-0.540610	1.778003	0.015230
C169	C	-1.222984	0.750792	-0.635451
C170	C	-0.889650	1.084126	-0.302118
C171	C	-0.556317	1.417459	0.031215
N172	N	-1.170176	0.781248	-0.688194
N173	N	-0.836843	1.114581	-0.354860
N174	N	-0.503510	1.447914	-0.021527
