data_functionalizedCrystal
_audit_creation_method	'MofGen! by Chris Wilmer'
_symmetry_space_group_name_H-M	'P1'
_symmetry_Int_Tables_number	1
_symmetry_cell_setting	triclinic
loop_
_symmetry_equiv_pos_as_xyz
  x,y,z
_cell_length_a	10.540539
_cell_length_b	12.837943
_cell_length_c	11.295483
_cell_angle_alpha	85.461227
_cell_angle_beta	94.138588
_cell_angle_gamma	89.677216
loop_
_atom_site_label
_atom_site_type_symbol
_atom_site_fract_x
_atom_site_fract_y
_atom_site_fract_z
O1	O	0.322576	1.384822	-0.098993
O2	O	0.306260	1.082896	-0.099000
O3	O	0.130469	1.240747	-0.098995
O4	O	0.498368	1.226971	-0.098998
O5	O	0.145882	1.226883	0.099055
O6	O	0.321674	1.069032	0.099050
O7	O	0.337990	1.370958	0.099057
Cu8	Cu	0.331239	1.218729	0.117137
Cu9	Cu	0.313011	1.235125	-0.117080
O10	O	0.513782	1.213106	0.099052
C11	C	0.308455	1.037303	0.000024
C12	C	0.292017	0.922104	0.000021
C13	C	0.489637	0.682608	0.000036
C14	C	0.474197	0.574368	0.000034
C15	C	0.245700	0.597381	0.000023
C16	C	0.261140	0.705621	0.000025
C17	C	0.383112	0.748230	0.000030
C18	C	0.398549	0.856473	0.000023
C19	C	0.170054	0.879484	0.000021
C20	C	0.154615	0.771244	0.000019
C21	C	0.090759	1.232782	0.000028
C22	C	-0.050529	1.229692	0.000022
C23	C	-0.247004	1.111280	-0.000426
C24	C	-0.100007	1.114382	0.000020
C25	C	-0.097288	1.277266	0.113119
C26	C	-0.244258	1.273324	0.113215
C27	C	-0.262047	1.291436	-0.112006
C28	C	-0.115064	1.292603	-0.113501
C29	C	0.553491	1.221072	0.000026
C30	C	0.694779	1.224163	0.000025
C31	C	0.335795	1.416551	0.000031
C32	C	0.352233	1.531750	0.000026
N33	N	0.344061	1.207204	0.281873
N34	N	0.300181	1.246658	-0.281816
C35	C	0.207816	1.329620	0.531167
C36	C	0.217515	1.320918	0.655830
C37	C	0.373150	1.181093	0.655866
C38	C	0.363451	1.189795	0.531202
C39	C	0.280783	1.264062	0.468857
C40	C	0.271091	1.272769	0.344192
C41	C	0.426719	1.132940	0.344229
C42	C	0.436418	1.124238	0.468892
H43	H	0.497865	0.891163	0.000029
H44	H	-0.275919	1.060270	0.080222
H45	H	0.203782	1.333243	0.293431
H46	H	0.140514	1.390098	0.480405
H47	H	0.158097	1.374300	0.706559
H48	H	0.560942	0.520940	0.000042
Br49	Br	-0.010910	0.713407	0.000020
H50	H	0.440447	1.120620	0.706643
Br51	Br	0.080181	0.539534	0.000038
H52	H	0.083313	0.932927	0.000008
Br53	Br	0.548599	1.023447	0.553511
Br54	Br	0.525762	1.043974	0.259655
H55	H	-0.068510	1.076394	-0.081053
H56	H	-0.300181	1.374776	-0.112764
Br57	Br	0.655162	0.740442	0.000020
Br58	Br	-0.043985	1.417916	0.120139
H59	H	-0.286920	1.071408	-0.081530
H60	H	-0.056761	1.064727	0.081226
H61	H	-0.270383	1.226395	0.197755
Br62	Br	-0.022433	1.203201	0.253400
Br63	Br	-0.060179	1.433522	-0.124893
H64	H	-0.282716	1.355894	0.118347
H65	H	-0.304371	1.260117	-0.197726
H66	H	-0.085178	1.257857	-0.197168
