data_functionalizedCrystal
_audit_creation_method	'MofGen! by Chris Wilmer'
_symmetry_space_group_name_H-M	'P1'
_symmetry_Int_Tables_number	1
_symmetry_cell_setting	triclinic
loop_
_symmetry_equiv_pos_as_xyz
  x,y,z
_cell_length_a	19.805407
_cell_length_b	18.101395
_cell_length_c	19.805399
_cell_angle_alpha	89.973474
_cell_angle_beta	89.983114
_cell_angle_gamma	90.031104
loop_
_atom_site_label
_atom_site_type_symbol
_atom_site_fract_x
_atom_site_fract_y
_atom_site_fract_z
Zn1	Zn	1.034696	-0.294836	-0.382731
Zn2	Zn	1.368029	0.038497	-0.049398
Zn3	Zn	1.701362	0.371830	0.283935
Zn4	Zn	1.034607	-0.418683	-0.269548
Zn5	Zn	1.367940	-0.085350	0.063786
Zn6	Zn	1.701273	0.247984	0.397119
Zn7	Zn	0.921516	-0.294860	-0.269556
Zn8	Zn	1.254849	0.038473	0.063778
Zn9	Zn	1.588182	0.371807	0.397111
Zn10	Zn	0.921465	-0.418641	-0.382695
Zn11	Zn	1.254798	-0.085307	-0.049361
Zn12	Zn	1.588131	0.248026	0.283972
O13	O	0.978071	-0.356755	-0.326132
O14	O	1.311404	-0.023422	0.007201
O15	O	1.644737	0.309912	0.340534
O16	O	1.129400	-0.311273	-0.367729
O17	O	1.462734	0.022060	-0.034396
O18	O	1.796067	0.355394	0.298937
O19	O	1.019589	-0.402285	-0.174832
O20	O	1.352922	-0.068952	0.158501
O21	O	1.686256	0.264381	0.491834
O22	O	0.936588	-0.191224	-0.284587
O23	O	1.269921	0.142109	0.048746
O24	O	1.603255	0.475443	0.382079
O25	O	1.129335	-0.402263	-0.284574
O26	O	1.462668	-0.068929	0.048759
O27	O	1.796002	0.264404	0.382093
O28	O	1.019741	-0.191207	-0.367737
O29	O	1.353074	0.142127	-0.034404
O30	O	1.686407	0.475460	0.298930
O31	O	0.936501	-0.311313	-0.174838
O32	O	1.269835	0.022020	0.158495
O33	O	1.603168	0.355354	0.491829
O34	O	0.826792	-0.311272	-0.284552
O35	O	1.160126	0.022062	0.048781
O36	O	1.493459	0.355395	0.382115
O37	O	0.936501	-0.402190	-0.477416
O38	O	1.269834	-0.068857	-0.144083
O39	O	1.603167	0.264476	0.189251
O40	O	0.826755	-0.402213	-0.367674
O41	O	1.160088	-0.068880	-0.034341
O42	O	1.493421	0.264454	0.298992
O43	O	1.019691	-0.311232	-0.477443
O44	O	1.353025	0.022102	-0.144110
O45	O	1.686358	0.355435	0.189224
O46	O	1.019539	-0.522310	-0.284538
O47	O	1.352873	-0.188977	0.048795
O48	O	1.686206	0.144356	0.382128
O49	O	0.936414	-0.522279	-0.367667
O50	O	1.269748	-0.188946	-0.034333
O51	O	1.603081	0.144387	0.299000
C52	C	0.802215	-0.356741	-0.326110
C53	C	1.135548	-0.023408	0.007223
C54	C	1.468881	0.309926	0.340556
C55	C	0.726983	-0.356753	-0.326117
C56	C	1.060316	-0.023419	0.007216
C57	C	1.393649	0.309914	0.340549
C58	C	0.691637	-0.404177	-0.369329
C59	C	1.024970	-0.070844	-0.035996
C60	C	1.358303	0.262490	0.297338
C61	C	0.620948	-0.404178	-0.369339
C62	C	0.954281	-0.070845	-0.036005
C63	C	1.287615	0.262488	0.297328
C64	C	0.585607	-0.356758	-0.326132
C65	C	0.918940	-0.023425	0.007201
C66	C	1.252274	0.309908	0.340534
C67	C	0.620958	-0.309329	-0.282919
C68	C	0.954291	0.024004	0.050415
C69	C	1.287625	0.357338	0.383748
C70	C	0.691645	-0.309324	-0.282913
C71	C	1.024978	0.024009	0.050420
C72	C	1.358312	0.357342	0.383754
C73	C	0.335885	-0.309345	-0.282941
C74	C	0.669218	0.023988	0.050392
C75	C	1.002551	0.357321	0.383726
C76	C	0.265193	-0.309355	-0.282948
C77	C	0.598526	0.023978	0.050385
C78	C	0.931859	0.357312	0.383718
C79	C	0.265188	-0.404199	-0.369367
C80	C	0.598521	-0.070866	-0.036033
C81	C	0.931854	0.262467	0.297300
C82	C	0.335875	-0.404195	-0.369361
C83	C	0.669208	-0.070861	-0.036028
C84	C	1.002542	0.262472	0.297306
C85	C	0.371220	-0.356763	-0.326150
C86	C	0.704553	-0.023429	0.007183
C87	C	1.037886	0.309904	0.340517
C88	C	0.447868	-0.356761	-0.326141
C89	C	0.781201	-0.023428	0.007192
C90	C	1.114535	0.309906	0.340526
C91	C	0.508960	-0.356763	-0.326137
C92	C	0.842293	-0.023430	0.007196
C93	C	1.175627	0.309903	0.340529
C94	C	0.977980	-0.549166	-0.326112
C95	C	1.311313	-0.215832	0.007221
C96	C	1.644647	0.117501	0.340554
C97	C	0.978003	-0.631480	-0.326127
C98	C	1.311337	-0.298146	0.007207
C99	C	1.644670	0.035187	0.340540
C100	C	0.978152	-0.930571	-0.326163
C101	C	1.311485	-0.597237	0.007170
C102	C	1.644818	-0.263904	0.340504
C103	C	0.925973	-0.899257	-0.378595
C104	C	1.259306	-0.565923	-0.045262
C105	C	1.592640	-0.232590	0.288072
C106	C	0.925725	-0.813639	-0.378431
C107	C	1.259058	-0.480305	-0.045098
C108	C	1.592392	-0.146972	0.288236
C109	C	0.978078	-0.782188	-0.326146
C110	C	1.311411	-0.448855	0.007188
C111	C	1.644745	-0.115521	0.340521
C112	C	0.958771	-0.813338	-0.254811
C113	C	1.292104	-0.480005	0.078522
C114	C	1.625437	-0.146672	0.411856
C115	C	0.958434	-0.898984	-0.255125
C116	C	1.291768	-0.565650	0.078209
C117	C	1.625101	-0.232317	0.411542
C118	C	1.049752	-0.898915	-0.344438
C119	C	1.383085	-0.565581	-0.011104
C120	C	1.716419	-0.232248	0.322229
C121	C	1.049331	-0.813264	-0.346002
C122	C	1.382664	-0.479930	-0.012669
C123	C	1.715998	-0.146597	0.320665
C124	C	0.978038	-0.698329	-0.326131
C125	C	1.311371	-0.364995	0.007202
C126	C	1.644704	-0.031662	0.340535
C127	C	0.978191	-1.014430	-0.326173
C128	C	1.311524	-0.681097	0.007161
C129	C	1.644857	-0.347763	0.340494
C130	C	1.154613	-0.356770	-0.326155
C131	C	1.487947	-0.023437	0.007179
C132	C	1.821280	0.309897	0.340512
C133	C	1.229845	-0.356776	-0.326164
C134	C	1.563179	-0.023443	0.007169
C135	C	1.896512	0.309891	0.340502
C136	C	0.978100	-0.356704	-0.502675
C137	C	1.311434	-0.023370	-0.169342
C138	C	1.644767	0.309963	0.163992
C139	C	0.978113	-0.356682	-0.577907
C140	C	1.311446	-0.023348	-0.244574
C141	C	1.644780	0.309985	0.088759
C142	C	0.978180	-0.163593	-0.326167
C143	C	1.311513	0.169740	0.007166
C144	C	1.644847	0.503074	0.340500
C145	C	0.978227	-0.081279	-0.326182
C146	C	1.311560	0.252054	0.007151
C147	C	1.644893	0.585388	0.340485
C148	C	0.934862	-0.309308	-0.613254
C149	C	1.268195	0.024025	-0.279921
C150	C	1.601528	0.357359	0.053413
C151	C	0.934871	-0.309294	-0.683942
C152	C	1.268204	0.024040	-0.350609
C153	C	1.601538	0.357373	-0.017276
C154	C	0.978135	-0.356650	-0.719283
C155	C	1.311469	-0.023316	-0.385950
C156	C	1.644802	0.310017	-0.052616
C157	C	1.021389	-0.404029	-0.683931
C158	C	1.354722	-0.070695	-0.350598
C159	C	1.688055	0.262638	-0.017265
C160	C	1.021375	-0.404046	-0.613244
C161	C	1.354709	-0.070713	-0.279911
C162	C	1.688042	0.262620	0.053423
C163	C	1.021442	-0.403959	-0.969005
C164	C	1.354776	-0.070626	-0.635671
C165	C	1.688109	0.262707	-0.302338
C166	C	1.021454	-0.403937	-1.039697
C167	C	1.354787	-0.070603	-0.706363
C168	C	1.688120	0.262730	-0.373030
C169	C	0.934938	-0.309207	-1.039703
C170	C	1.268271	0.024127	-0.706370
C171	C	1.601605	0.357460	-0.373036
C172	C	0.934925	-0.309224	-0.969016
C173	C	1.268258	0.024109	-0.635682
C174	C	1.601591	0.357442	-0.302349
C175	C	0.978175	-0.356606	-0.933670
C176	C	1.311508	-0.023272	-0.600337
C177	C	1.644842	0.310061	-0.267004
C178	C	0.978163	-0.356622	-0.857022
C179	C	1.311497	-0.023288	-0.523689
C180	C	1.644830	0.310045	-0.190355
C181	C	0.978151	-0.356631	-0.795930
C182	C	1.311484	-0.023297	-0.462597
C183	C	1.644818	0.310036	-0.129263
C184	C	0.978080	-0.356753	-0.150276
C185	C	1.311413	-0.023419	0.183057
C186	C	1.644747	0.309914	0.516390
C187	C	0.978198	-0.356566	-0.075045
C188	C	1.311532	-0.023233	0.258289
C189	C	1.644865	0.310101	0.591622
H190	H	0.364646	-0.442811	-0.404542
H191	H	0.697979	-0.109478	-0.071208
H192	H	1.031313	0.223855	0.262125
H193	H	0.899634	-0.270741	-0.584485
H194	H	1.232968	0.062592	-0.251151
H195	H	1.566301	0.395926	0.082182
H196	H	0.364654	-0.270729	-0.247751
H197	H	0.697987	0.062605	0.085583
H198	H	1.031321	0.395938	0.418916
H199	H	0.899649	-0.270720	-0.712719
H200	H	1.232982	0.062613	-0.379385
H201	H	1.566316	0.395947	-0.046052
H202	H	0.994790	-0.919700	-0.214727
H203	H	1.328124	-0.586367	0.118607
H204	H	1.661457	-0.253034	0.451940
H205	H	0.720406	-0.442794	-0.404510
H206	H	1.053740	-0.109461	-0.071177
H207	H	1.387073	0.223872	0.262156
O208	O	1.101316	-0.925730	-0.293922
O209	O	1.434649	-0.592396	0.039411
O210	O	1.767983	-0.259063	0.372745
H211	H	1.140944	-0.957828	-0.320538
H212	H	1.474277	-0.624495	0.012796
H213	H	1.807611	-0.291161	0.346129
H214	H	0.937804	-0.792575	-0.431325
H215	H	1.271138	-0.459242	-0.097992
H216	H	1.604471	-0.125909	0.235342
H217	H	0.995580	-0.792968	-0.214680
H218	H	1.328913	-0.459634	0.118654
H219	H	1.662246	-0.126301	0.451987
H220	H	0.937932	-0.919805	-0.431660
H221	H	1.271266	-0.586472	-0.098327
H222	H	1.604599	-0.253138	0.235007
H223	H	0.236402	-0.442818	-0.404554
H224	H	0.569735	-0.109485	-0.071220
H225	H	0.903068	0.223849	0.262113
H226	H	0.236420	-0.270735	-0.247765
H227	H	0.569753	0.062598	0.085569
H228	H	0.903086	0.395931	0.418902
O229	O	0.890174	-0.785022	-0.233932
O230	O	1.223507	-0.451689	0.099401
O231	O	1.556840	-0.118356	0.432735
H232	H	0.869722	-0.748773	-0.274242
H233	H	1.203055	-0.415440	0.059091
H234	H	1.536389	-0.082107	0.392425
O235	O	1.068033	-0.455136	-0.575119
O236	O	1.401367	-0.121803	-0.241786
O237	O	1.734700	0.211531	0.091547
H238	H	1.056400	-0.513255	-0.588677
H239	H	1.389734	-0.179921	-0.255344
H240	H	1.723067	0.153412	0.077989
O241	O	0.582845	-0.258199	-0.236298
O242	O	0.916178	0.075134	0.097035
O243	O	1.249512	0.408467	0.430368
H244	H	0.527753	-0.266181	-0.243549
H245	H	0.861087	0.067152	0.089784
H246	H	1.194420	0.400485	0.423117
O247	O	0.582822	-0.455470	-0.415815
O248	O	0.916156	-0.122137	-0.082482
O249	O	1.249489	0.211197	0.250852
H250	H	0.619273	-0.488501	-0.445804
H251	H	0.952606	-0.155167	-0.112471
H252	H	1.285939	0.178166	0.220862
H253	H	0.899697	-0.270659	-0.940245
H254	H	1.233030	0.062674	-0.606912
H255	H	1.566363	0.396007	-0.273578
H256	H	0.720423	-0.270703	-0.247729
H257	H	1.053756	0.062631	0.085604
H258	H	1.387090	0.395964	0.418938
O259	O	1.068051	-0.455106	-0.722051
O260	O	1.401384	-0.121773	-0.388717
O261	O	1.734717	0.211560	-0.055384
H262	H	1.056400	-0.513231	-0.708476
H263	H	1.389733	-0.179898	-0.375142
H264	H	1.723066	0.153435	-0.041809
O265	O	0.888291	-0.258094	-1.077824
O266	O	1.221625	0.075240	-0.744491
O267	O	1.554958	0.408573	-0.411157
H268	H	0.895564	-0.266036	-1.132915
H269	H	1.228898	0.067298	-0.799581
H270	H	1.562231	0.400631	-0.466248
H271	H	1.056652	-0.442548	-0.940235
H272	H	1.389985	-0.109215	-0.606902
H273	H	1.723319	0.224118	-0.273568
H274	H	1.056687	-0.442503	-1.068469
H275	H	1.390020	-0.109169	-0.735136
H276	H	1.723353	0.224164	-0.401802
H277	H	0.872653	-0.793215	-0.366326
H278	H	1.205986	-0.459882	-0.032992
H279	H	1.539320	-0.126549	0.300341
O280	O	0.856095	-0.927834	-0.362763
O281	O	1.189428	-0.594501	-0.029429
O282	O	1.522762	-0.261167	0.303904
H283	H	0.858365	-0.964242	-0.317712
H284	H	1.191699	-0.630909	0.015622
H285	H	1.525032	-0.297575	0.348955
O286	O	1.103563	-0.784916	-0.299110
O287	O	1.436897	-0.451582	0.034223
O288	O	1.770230	-0.118249	0.367557
H289	H	1.128313	-0.832283	-0.273546
H290	H	1.461646	-0.498949	0.059788
H291	H	1.794980	-0.165616	0.393121
H292	H	0.906095	-0.919026	-0.239644
H293	H	1.239428	-0.585693	0.093689
H294	H	1.572761	-0.252360	0.427022
H295	H	1.067356	-0.920463	-0.395569
H296	H	1.400689	-0.587130	-0.062235
H297	H	1.734022	-0.253797	0.271098
O298	O	1.068633	-0.786282	-0.415535
O299	O	1.401966	-0.452949	-0.082202
O300	O	1.735299	-0.119616	0.251131
H301	H	1.027656	-0.750884	-0.435873
H302	H	1.360989	-0.417550	-0.102539
H303	H	1.694322	-0.084217	0.230794
