data_functionalizedCrystal
_audit_creation_method	'MofGen! by Chris Wilmer'
_symmetry_space_group_name_H-M	'P1'
_symmetry_Int_Tables_number	1
_symmetry_cell_setting	triclinic
loop_
_symmetry_equiv_pos_as_xyz
  x,y,z
_cell_length_a	9.065218
_cell_length_b	15.625429
_cell_length_c	14.750779
_cell_angle_alpha	120.092833
_cell_angle_beta	77.167641
_cell_angle_gamma	84.604571
loop_
_atom_site_label
_atom_site_type_symbol
_atom_site_fract_x
_atom_site_fract_y
_atom_site_fract_z
O1	O	1.902726	0.165407	0.137396
O2	O	1.471574	0.177247	0.141518
O3	O	1.718596	0.028134	0.089615
O4	O	1.655704	0.314520	0.189300
O5	O	1.788426	-0.014014	-0.084707
O6	O	1.541404	0.135099	-0.032803
O7	O	1.972555	0.123260	-0.036925
Zn8	Zn	1.768066	0.122487	-0.062541
Zn9	Zn	1.676063	0.178019	0.167135
O10	O	1.725533	0.272372	0.014979
C11	C	1.451682	0.155035	0.053962
C12	C	1.288375	0.151633	0.052778
C13	C	1.757587	-0.029622	-0.010312
C14	C	1.769715	-0.138924	-0.048352
C15	C	1.619257	-0.383542	0.301614
C16	C	1.630660	-0.486255	0.265837
C17	C	1.706784	-0.532188	0.075804
C18	C	1.695395	-0.429477	0.111565
C19	C	1.651629	-0.355161	0.224471
C20	C	1.727766	-0.401097	0.034422
C21	C	1.716370	-0.298394	0.070180
C22	C	1.672602	-0.224072	0.183081
C23	C	1.640233	-0.252459	0.260229
C24	C	1.771521	-0.475413	-0.078483
C25	C	1.803893	-0.447033	-0.155626
C26	C	1.792508	-0.344329	-0.119869
C27	C	1.748740	-0.270008	-0.006968
C28	C	1.824877	-0.315943	-0.197016
C29	C	1.813481	-0.213240	-0.161258
C30	C	1.737344	-0.167305	0.028791
C31	C	1.992447	0.145472	0.050634
C32	C	2.155751	0.148875	0.051825
C33	C	1.686541	0.330129	0.114908
C34	C	1.674410	0.439433	0.152955
N35	N	1.830867	0.084588	-0.219289
C36	C	1.437888	0.321714	-0.488568
C37	C	1.481904	0.295163	-0.598308
C38	C	1.700677	0.163174	-0.644215
C39	C	1.656674	0.189710	-0.534477
C40	C	1.525279	0.268982	-0.456660
C41	C	1.744066	0.136978	-0.502569
C42	C	1.700071	0.163516	-0.392840
C43	C	1.568684	0.242786	-0.315017
C44	C	1.481284	0.295520	-0.346931
C45	C	1.875466	0.057711	-0.580386
C46	C	1.962858	0.004979	-0.548479
C47	C	1.918857	0.031512	-0.438749
C48	C	1.787470	0.110782	-0.360926
C49	C	2.006257	-0.021222	-0.406835
C50	C	1.962262	0.005316	-0.297105
C51	C	1.743475	0.137320	-0.251196
N52	N	1.613275	0.215911	0.323880
H53	H	1.701719	-0.106793	0.120730
H54	H	1.330884	0.386258	-0.425207
C55	C	1.228362	0.344840	-0.216785
C56	C	1.336840	0.382651	-0.261390
H57	H	1.139190	0.398629	-0.163983
H58	H	1.274121	0.317245	-0.182078
H59	H	1.198188	0.293013	-0.274046
H60	H	1.367022	0.434473	-0.204130
H61	H	1.291073	0.410262	-0.296097
C62	C	1.261195	0.428297	-0.541907
C63	C	1.385816	0.353121	-0.633384
H64	H	1.201871	0.464070	-0.563566
H65	H	1.300484	0.474635	-0.486582
H66	H	1.196698	0.397165	-0.513547
H67	H	1.450319	0.384254	-0.661739
H68	H	1.346526	0.306777	-0.688728
C69	C	2.057630	-0.052164	-0.762564
C70	C	1.923837	0.028540	-0.701004
H71	H	2.087494	-0.070167	-0.837025
H72	H	2.036175	-0.109259	-0.759709
H73	H	2.139965	-0.031791	-0.732714
H74	H	1.841498	0.008164	-0.730848
H75	H	1.945284	0.085646	-0.703864
H76	H	1.860496	-0.376464	-0.288944
H77	H	1.636471	0.201864	-0.187836
C78	C	2.086340	-0.172798	-0.641278
C79	C	2.107271	-0.082163	-0.634024
H80	H	2.175496	-0.226596	-0.694087
H81	H	1.996702	-0.188737	-0.663311
H82	H	2.072651	-0.164528	-0.571355
H83	H	2.120949	-0.090430	-0.703945
H84	H	2.196935	-0.066221	-0.611996
H85	H	1.807663	0.098632	-0.707584
C86	C	2.129767	-0.198998	-0.499644
C87	C	2.150679	-0.108356	-0.492380
H88	H	2.218932	-0.252790	-0.552453
H89	H	2.040135	-0.214945	-0.521684
H90	H	2.116077	-0.190733	-0.429724
H91	H	2.164358	-0.116619	-0.562299
H92	H	2.240337	-0.092407	-0.470346
C93	C	1.829810	-0.076195	-0.190818
C94	C	1.849065	-0.182035	-0.246050
H95	H	1.851765	-0.056932	-0.243168
H96	H	1.899203	-0.056677	-0.148269
H97	H	1.725391	-0.043198	-0.143572
H98	H	1.953487	-0.215032	-0.293291
H99	H	1.779670	-0.201564	-0.288618
C100	C	2.116353	0.015748	-0.180524
C101	C	2.058450	-0.052618	-0.262059
H102	H	2.175786	-0.020011	-0.158904
H103	H	2.031808	0.066715	-0.118461
H104	H	2.180759	0.046893	-0.208921
H105	H	1.994035	-0.083757	-0.233659
H106	H	2.143007	-0.103602	-0.324134
H107	H	1.604608	-0.191946	0.352168
C108	C	1.548890	-0.079514	0.186035
C109	C	1.660070	-0.111177	0.222394
H110	H	1.541162	-0.009819	0.210301
H111	H	1.450522	-0.087524	0.215388
H112	H	1.579604	-0.119715	0.107753
H113	H	1.629350	-0.070980	0.300677
H114	H	1.758459	-0.103158	0.193046
H115	H	1.604282	-0.509354	0.328665
C116	C	1.545152	-0.348439	0.485891
C117	C	1.571155	-0.301844	0.425723
H118	H	1.515447	-0.298000	0.562506
H119	H	1.638079	-0.396189	0.465648
H120	H	1.464271	-0.382714	0.470335
H121	H	1.652043	-0.267575	0.441273
H122	H	1.478216	-0.254075	0.445975
C123	C	1.758080	-0.710023	-0.063398
C124	C	1.754907	-0.613882	-0.048300
H125	H	1.787806	-0.760455	-0.140017
H126	H	1.657406	-0.710675	-0.027885
H127	H	1.831204	-0.724144	-0.032547
H128	H	1.681775	-0.599757	-0.079144
H129	H	1.855596	-0.613228	-0.083827
C130	C	1.641723	0.301961	-0.150439
C131	C	1.520318	0.271960	-0.194398
H132	H	1.611863	0.319965	-0.075976
H133	H	1.663163	0.359056	-0.153296
H134	H	1.732473	0.247197	-0.192223
H135	H	1.429570	0.326727	-0.152618
H136	H	1.498858	0.214858	-0.191533
H137	H	1.839521	-0.507553	-0.247555
H138	H	1.780782	-0.559038	-0.107594
