data_functionalizedCrystal
_audit_creation_method	'MofGen! by Chris Wilmer'
_symmetry_space_group_name_H-M	'P1'
_symmetry_Int_Tables_number	1
_symmetry_cell_setting	triclinic
loop_
_symmetry_equiv_pos_as_xyz
  x,y,z
_cell_length_a	17.699077
_cell_length_b	15.995292
_cell_length_c	16.176319
_cell_angle_alpha	89.996390
_cell_angle_beta	89.993140
_cell_angle_gamma	83.374596
loop_
_atom_site_label
_atom_site_type_symbol
_atom_site_fract_x
_atom_site_fract_y
_atom_site_fract_z
O1	O	1.004238	0.105864	-0.068730
O2	O	1.504238	0.605864	0.431270
O3	O	0.783879	0.119646	-0.068733
O4	O	1.283879	0.619646	0.431267
O5	O	0.900105	-0.009148	-0.068733
O6	O	1.400105	0.490852	0.431267
O7	O	0.888012	0.234659	-0.068730
O8	O	1.388012	0.734659	0.431270
O9	O	0.900089	-0.009156	0.068761
O10	O	1.400089	0.490844	0.568761
O11	O	0.783863	0.119638	0.068760
O12	O	1.283863	0.619638	0.568760
O13	O	1.004222	0.105856	0.068763
O14	O	1.504222	0.605856	0.568763
Cu15	Cu	0.894041	0.112746	0.081316
Cu16	Cu	1.394041	0.612746	0.581316
Cu17	Cu	0.894060	0.112756	-0.081286
Cu18	Cu	1.394060	0.612756	0.418714
O19	O	0.887996	0.234650	0.068763
O20	O	1.387996	0.734650	0.568763
C21	C	0.755673	0.119149	0.000013
C22	C	1.255673	0.619149	0.500013
C23	C	0.671653	0.117670	0.000012
C24	C	1.171653	0.617670	0.500012
C25	C	0.632176	0.116969	0.074960
C26	C	1.132176	0.616969	0.574960
C27	C	0.553231	0.115566	0.074961
C28	C	1.053231	0.615566	0.574961
C29	C	0.513764	0.114870	0.000012
C30	C	1.013764	0.614870	0.500012
C31	C	0.553247	0.115569	-0.074942
C32	C	1.053247	0.615569	0.425058
C33	C	0.632191	0.116966	-0.074942
C34	C	1.132191	0.616966	0.425058
C35	C	0.234876	0.109934	-0.074943
C36	C	0.734876	0.609934	0.425057
C37	C	0.155926	0.108540	-0.074938
C38	C	0.655926	0.608540	0.425062
C39	C	0.155915	0.108534	0.074959
C40	C	0.655915	0.608534	0.574959
C41	C	0.234859	0.109931	0.074959
C42	C	0.734859	0.609931	0.574959
C43	C	0.274336	0.110625	0.000006
C44	C	0.774336	0.610625	0.500006
C45	C	0.359937	0.112145	0.000005
C46	C	0.859937	0.612145	0.500005
C47	C	0.428164	0.113356	0.000012
C48	C	0.928164	0.613356	0.500012
C49	C	0.899605	-0.040347	0.000012
C50	C	1.399605	0.459653	0.500012
C51	C	0.898129	-0.133297	0.000006
C52	C	1.398129	0.366703	0.500006
C53	C	0.892704	-0.471024	0.000013
C54	C	1.392704	0.028976	0.500013
C55	C	0.976593	-0.447884	0.000322
C56	C	1.476593	0.052116	0.500322
C57	C	0.978188	-0.351212	0.000009
C58	C	1.478188	0.148788	0.500009
C59	C	0.895396	-0.303474	0.000010
C60	C	1.395396	0.196526	0.500010
C61	C	0.853465	-0.332484	-0.078503
C62	C	1.353465	0.167516	0.421497
C63	C	0.852455	-0.429272	-0.078566
C64	C	1.352455	0.070728	0.421434
C65	C	0.850724	-0.429135	0.077789
C66	C	1.350724	0.070865	0.577789
C67	C	0.853832	-0.332649	0.078824
C68	C	1.353832	0.167351	0.578824
C69	C	0.896913	-0.208781	0.000005
C70	C	1.396913	0.291219	0.500005
C71	C	0.891185	-0.565717	0.000012
C72	C	1.391185	-0.065717	0.500012
C73	C	1.032427	0.106353	0.000016
C74	C	1.532427	0.606353	0.500016
C75	C	1.116448	0.107832	0.000012
C76	C	1.616448	0.607832	0.500012
C77	C	0.888496	0.265849	0.000017
C78	C	1.388496	0.765849	0.500017
C79	C	0.889972	0.358799	0.000017
C80	C	1.389972	0.858799	0.500017
N81	N	0.894033	0.112739	0.195681
N82	N	1.394033	0.612739	0.695681
N83	N	0.894074	0.112757	-0.195651
N84	N	1.394074	0.612757	0.304349
C85	C	0.945513	0.055732	0.238946
C86	C	1.445513	0.555732	0.738946
C87	C	0.945517	0.055731	0.325493
C88	C	1.445517	0.555731	0.825493
C89	C	0.894044	0.112742	0.368774
C90	C	1.394044	0.612742	0.868774
C91	C	0.842558	0.169751	0.325503
C92	C	1.342558	0.669751	0.825503
C93	C	0.842551	0.169748	0.238958
C94	C	1.342551	0.669748	0.738958
C95	C	0.842584	0.169767	0.674532
C96	C	1.342584	0.669767	1.174532
C97	C	0.842596	0.169768	0.761083
C98	C	1.342596	0.669768	1.261083
C99	C	0.945550	0.055751	0.761066
C100	C	1.445550	0.555751	1.261066
C101	C	0.945543	0.055747	0.674521
C102	C	1.445543	0.555747	1.174521
C103	C	0.894055	0.112753	0.631258
C104	C	1.394055	0.612753	1.131258
C105	C	0.894051	0.112752	0.537414
C106	C	1.394051	0.612752	1.037414
C107	C	0.894051	0.112747	0.462616
C108	C	1.394051	0.612747	0.962616
H109	H	1.011028	-0.332258	0.056289
H110	H	1.511028	0.167742	0.556289
H111	H	0.664332	0.117539	-0.135973
H112	H	1.164332	0.617539	0.364027
H113	H	0.987472	0.009330	0.796300
H114	H	1.487472	0.509330	1.296300
O115	O	0.768931	-0.447497	0.078500
O116	O	1.268931	0.052503	0.578500
H117	H	0.757857	-0.482309	0.135776
H118	H	1.257857	0.017691	0.635776
O119	O	1.001029	-0.005761	0.192264
O120	O	1.501029	0.494239	0.692264
H121	H	1.036820	-0.045408	0.236893
H122	H	1.536820	0.454592	0.736893
O123	O	0.674736	0.117724	0.155802
O124	O	1.174736	0.617724	0.655802
H125	H	0.736262	0.118822	0.143213
H126	H	1.236262	0.618822	0.643213
H127	H	0.521094	0.114981	0.135991
H128	H	1.021094	0.614981	0.635991
H129	H	0.800643	0.216168	0.360748
H130	H	1.300643	0.716168	0.860748
O131	O	0.510687	0.114807	-0.155783
O132	O	1.010687	0.614807	0.344217
H133	H	0.519089	0.172119	-0.191730
H134	H	1.019089	0.672119	0.308270
H135	H	0.800630	0.216167	0.203733
H136	H	1.300630	0.716167	0.703733
O137	O	0.770983	-0.448377	-0.083296
O138	O	1.270983	0.051623	0.416704
H139	H	0.757598	-0.484963	-0.027951
H140	H	1.257598	0.015037	0.472049
H141	H	0.800677	0.216195	0.796321
H142	H	1.300677	0.716195	1.296321
O143	O	0.277427	0.110700	0.155795
O144	O	0.777427	0.610700	0.655795
H145	H	0.236713	0.109976	0.207913
H146	H	0.736713	0.609976	0.707913
O147	O	1.019409	-0.485060	0.074912
O148	O	1.519409	0.014940	0.574912
H149	H	1.069389	-0.528331	0.054247
H150	H	1.569389	-0.028331	0.554247
O151	O	1.001053	-0.005750	0.627836
O152	O	1.501053	0.494250	1.127836
H153	H	1.060054	0.004824	0.644430
H154	H	1.560054	0.504824	1.144430
O155	O	0.113294	0.108170	0.155806
O156	O	0.613294	0.608170	0.655806
H157	H	0.051753	0.107217	0.143220
H158	H	0.551753	0.607217	0.643220
O159	O	0.113356	0.107761	-0.155778
O160	O	0.613356	0.607761	0.344222
H161	H	0.154071	0.108462	-0.207899
H162	H	0.654071	0.608462	0.292101
O163	O	0.277449	0.110692	-0.155782
O164	O	0.777449	0.610692	0.344218
H165	H	0.236739	0.109984	-0.207895
H166	H	0.736739	0.609984	0.292105
H167	H	0.884365	-0.314150	0.136908
H168	H	1.384365	0.185850	0.636908
O169	O	0.885527	-0.466629	0.156620
O170	O	1.385527	0.033371	0.656620
H171	H	0.880796	-0.535213	0.157751
H172	H	1.380796	-0.035213	0.657751
H173	H	1.008755	-0.476965	-0.055667
H174	H	1.508755	0.023035	0.444333
H175	H	0.792542	-0.300490	-0.081422
H176	H	1.292542	0.199510	0.418578
O177	O	1.001056	-0.005739	0.372160
O178	O	1.501056	0.494261	0.872160
H179	H	1.036858	-0.045370	0.327524
H180	H	1.536858	0.454630	0.827524
H181	H	0.882596	-0.312480	-0.136933
H182	H	1.382596	0.187520	0.363067
H183	H	0.881508	-0.456145	-0.137257
H184	H	1.381508	0.043855	0.362743
O185	O	0.787057	0.231255	0.627875
O186	O	1.287057	0.731255	1.127875
H187	H	0.796695	0.296516	0.644473
H188	H	1.296695	0.796516	1.144473
O189	O	1.021949	-0.326904	-0.074677
O190	O	1.521949	0.173096	0.425323
H191	H	1.042048	-0.384231	-0.110716
H192	H	1.542048	0.115769	0.389284
O193	O	0.773792	-0.288798	0.085130
O194	O	1.273792	0.211202	0.585130
H195	H	0.762331	-0.245339	0.031945
H196	H	1.262331	0.254661	0.531945
