data_functionalizedCrystal
_audit_creation_method	'MofGen! by Chris Wilmer'
_symmetry_space_group_name_H-M	'P1'
_symmetry_Int_Tables_number	1
_symmetry_cell_setting	triclinic
loop_
_symmetry_equiv_pos_as_xyz
  x,y,z
_cell_length_a	14.908571
_cell_length_b	21.295417
_cell_length_c	14.908308
_cell_angle_alpha	86.738273
_cell_angle_beta	89.824947
_cell_angle_gamma	86.725606
loop_
_atom_site_label
_atom_site_type_symbol
_atom_site_fract_x
_atom_site_fract_y
_atom_site_fract_z
Zn1	Zn	1.345222	-0.328502	0.587537
Zn2	Zn	1.353780	-0.428069	0.437164
Zn3	Zn	1.203540	-0.316412	0.428537
Zn4	Zn	1.194808	-0.427321	0.578816
O5	O	1.274337	-0.375076	0.508014
O6	O	1.472182	-0.347083	0.574851
O7	O	1.341086	-0.408510	0.310196
O8	O	1.222407	-0.229931	0.449668
O9	O	1.478469	-0.420234	0.464372
O10	O	1.326500	-0.238814	0.566485
O11	O	1.230705	-0.326476	0.303857
O12	O	1.076557	-0.325751	0.441211
O13	O	1.207525	-0.418959	0.705797
O14	O	1.070141	-0.407236	0.551621
O15	O	1.318033	-0.346358	0.712205
O16	O	1.332619	-0.516054	0.455915
O17	O	1.215823	-0.515505	0.559986
C18	C	1.040724	-0.365101	0.494534
C19	C	0.940782	-0.360849	0.488788
C20	C	1.274225	-0.538621	0.507961
C21	C	1.274258	-0.608591	0.507974
C22	C	0.746357	-0.437829	0.592807
C23	C	0.652453	-0.433836	0.587412
C24	C	0.659066	-0.348869	0.472608
C25	C	0.752971	-0.352861	0.478003
C26	C	0.796613	-0.397344	0.538104
C27	C	0.890520	-0.401339	0.543494
C28	C	0.897131	-0.316368	0.428695
C29	C	0.803226	-0.312376	0.423300
C30	C	1.328424	-0.646026	0.568840
C31	C	1.328454	-0.711771	0.568864
C32	C	1.274329	-0.740078	0.508007
C33	C	1.220152	-0.702634	0.447136
C34	C	1.220117	-0.636891	0.447120
N35	N	1.272081	-0.840068	0.428926
N36	N	1.272120	-0.902521	0.428945
C37	C	1.274432	-0.938158	0.508053
N38	N	1.276721	-0.908983	0.587146
N39	N	1.276686	-0.846523	0.587127
C40	C	1.274361	-0.811365	0.508018
C41	C	1.328634	-1.046881	0.568950
C42	C	1.328658	-1.112627	0.568975
C43	C	1.220361	-1.103489	0.447240
C44	C	1.220332	-1.037745	0.447222
C45	C	1.274473	-1.009445	0.508076
C46	C	1.508863	-0.385091	0.521547
C47	C	1.608804	-0.389358	0.527313
C48	C	1.260850	-0.383924	0.742538
C49	C	1.255103	-0.387694	0.842478
C50	C	1.274473	-0.210894	0.508087
C51	C	1.274531	-0.140930	0.508118
C52	C	1.287824	-0.366219	0.274405
C53	C	1.293745	-0.362279	0.174475
C54	C	1.359373	-0.319165	1.036950
C55	C	1.353975	-0.322705	1.130853
C56	C	1.238907	-0.398313	1.124188
C57	C	1.244304	-0.394772	1.030285
C58	C	1.304540	-0.355197	0.986670
C59	C	1.309941	-0.351661	0.892765
C60	C	1.194869	-0.427264	0.886102
C61	C	1.189471	-0.430805	0.980005
H62	H	0.926052	-0.437559	0.592429
H63	H	0.767680	-0.276158	0.374370
H64	H	1.176007	-0.606410	0.397555
O65	O	0.788613	-0.481055	0.651259
C66	C	0.772149	-0.564940	0.764514
C67	C	0.724182	-0.516006	0.698371
H68	H	0.720079	-0.593220	0.802608
H69	H	0.813402	-0.539768	0.814190
H70	H	0.818492	-0.598091	0.725657
H71	H	0.677794	-0.482842	0.737152
H72	H	0.682986	-0.541220	0.648695
H73	H	1.150222	-0.456606	0.845154
O74	O	1.131038	-0.469234	1.022520
C75	C	1.071684	-0.508167	1.164226
C76	C	1.137913	-0.464629	1.116196
H77	H	1.077206	-0.504449	1.239970
H78	H	1.088497	-0.558917	1.146724
H79	H	1.000264	-0.493331	1.141530
H80	H	1.209356	-0.479408	1.138866
H81	H	1.121022	-0.413889	1.133698
O82	O	0.603587	-0.473076	0.640642
C83	C	0.490571	-0.481741	0.755886
C84	C	0.545868	-0.437230	0.695668
H85	H	0.443879	-0.452777	0.800376
H86	H	0.537852	-0.514207	0.799830
H87	H	0.449001	-0.511196	0.711977
H88	H	0.587444	-0.407735	0.739506
H89	H	0.498539	-0.404806	0.651717
H90	H	1.372507	-0.622986	0.618393
O91	O	0.616521	-0.305696	0.414284
C92	C	0.474774	-0.261819	0.355216
C93	C	0.522843	-0.310763	0.421273
H94	H	0.399027	-0.265889	0.360857
H95	H	0.497289	-0.270811	0.283703
H96	H	0.492427	-0.212485	0.372229
H97	H	0.505214	-0.360116	0.404341
H98	H	0.500324	-0.301715	0.492766
H99	H	1.189865	-0.430532	1.159716
H100	H	0.938060	-0.283403	0.384150
O101	O	1.368425	-0.313269	0.850253
C102	C	1.427691	-0.274267	0.708544
C103	C	1.361438	-0.317787	0.756571
H104	H	1.422050	-0.277895	0.632794
H105	H	1.499150	-0.289103	0.731117
H106	H	1.410875	-0.223544	0.726174
H107	H	1.378171	-0.368522	0.738964
H108	H	1.289997	-0.302897	0.733995
O109	O	1.381014	-0.748082	0.628116
C110	C	1.415700	-0.775795	0.783613
C111	C	1.356136	-0.734625	0.716608
H112	H	1.395596	-0.764939	0.855173
H113	H	1.489128	-0.765327	0.772144
H114	H	1.406433	-0.827639	0.773118
H115	H	1.365325	-0.682768	0.727062
H116	H	1.282731	-0.745147	0.728094
O117	O	1.167524	-0.730200	0.388141
C118	C	1.046845	-0.798841	0.368962
C119	C	1.106404	-0.767676	0.435870
H120	H	0.997402	-0.829137	0.407525
H121	H	1.090832	-0.829637	0.324381
H122	H	1.008166	-0.760778	0.325437
H123	H	1.145093	-0.805697	0.479454
H124	H	1.062369	-0.736866	0.480389
O125	O	1.381364	-1.148901	0.628135
C126	C	1.488754	-1.151024	0.748893
C127	C	1.429121	-1.109868	0.681931
H128	H	1.527367	-1.119482	0.792417
H129	H	1.538242	-1.182223	0.710412
H130	H	1.444744	-1.181840	0.793466
H131	H	1.473060	-1.079014	0.637341
H132	H	1.379627	-1.078710	0.720468
H133	H	1.372716	-1.023839	0.618504
O134	O	1.167850	-1.001311	0.388053
C135	C	1.162803	-0.922063	0.265902
C136	C	1.222347	-0.963278	0.332875
H137	H	1.206841	-0.891313	0.221261
H138	H	1.113383	-0.890807	0.304374
H139	H	1.124099	-0.953598	0.222448
H140	H	1.261108	-0.931792	0.376346
H141	H	1.271710	-0.994539	0.294348
H142	H	1.176285	-1.126536	0.397694
H143	H	1.408424	-0.286945	1.001438
H144	H	1.398624	-0.293362	1.171788
