data_functionalizedCrystal
_audit_creation_method	'MofGen! by Chris Wilmer'
_symmetry_space_group_name_H-M	'P1'
_symmetry_Int_Tables_number	1
_symmetry_cell_setting	triclinic
loop_
_symmetry_equiv_pos_as_xyz
  x,y,z
_cell_length_a	27.731994
_cell_length_b	10.268362
_cell_length_c	11.792241
_cell_angle_alpha	89.994572
_cell_angle_beta	96.593025
_cell_angle_gamma	89.998499
loop_
_atom_site_label
_atom_site_type_symbol
_atom_site_fract_x
_atom_site_fract_y
_atom_site_fract_z
O1	O	0.641726	0.108115	-0.134748
O2	O	0.501048	0.108159	-0.155345
O3	O	0.574801	0.108127	0.020235
O4	O	0.567973	0.108147	-0.310328
O5	O	0.574795	-0.108474	0.020242
O6	O	0.501042	-0.108442	-0.155338
O7	O	0.641720	-0.108485	-0.134741
Cu8	Cu	0.571380	-0.128241	-0.145039
Cu9	Cu	0.571388	0.127914	-0.145047
O10	O	0.567967	-0.108453	-0.310321
C11	C	0.483035	-0.000136	-0.154919
C12	C	0.429372	-0.000120	-0.153645
N13	N	0.571378	-0.308407	-0.145032
C14	C	0.571385	-0.574077	-0.145045
C15	C	0.571380	-0.426240	-0.145041
C16	C	0.096603	-0.118240	-0.145622
C17	C	-0.105083	-0.118255	-0.140782
O18	O	-0.131163	-0.218668	-0.140104
N19	N	-0.130298	-0.000186	-0.140184
C20	C	-0.105088	0.117895	-0.140790
O21	O	-0.131161	0.218320	-0.140159
C22	C	0.096598	0.117909	-0.145622
C23	C	0.121810	-0.000168	-0.146231
C24	C	0.121815	-0.236307	-0.146230
C25	C	0.172233	-0.236302	-0.147446
C26	C	0.197440	-0.118230	-0.148055
C27	C	0.172228	-0.000163	-0.147447
C28	C	0.121808	0.235989	-0.146219
C29	C	0.172233	0.235982	-0.147424
C30	C	0.197444	0.117905	-0.148033
C31	C	0.247853	0.117914	-0.149272
N32	N	0.273067	-0.000155	-0.149869
C33	C	0.247861	-0.118227	-0.149261
C34	C	-0.210976	0.117880	-0.138255
C35	C	-0.261397	0.117877	-0.137049
C36	C	-0.261389	-0.118274	-0.137039
C37	C	-0.210967	-0.118269	-0.138253
C38	C	-0.185761	-0.000189	-0.138852
C39	C	0.353743	-0.118207	-0.151816
C40	C	0.404165	-0.118192	-0.153037
C41	C	0.404153	0.117958	-0.153041
C42	C	0.353735	0.117943	-0.151826
C43	C	0.328531	-0.000150	-0.151209
O44	O	0.273964	0.218274	-0.149938
O45	O	0.273945	-0.218636	-0.149866
C46	C	0.046185	-0.118245	-0.144406
C47	C	0.020973	-0.000178	-0.143798
C48	C	0.046180	0.117894	-0.144407
C49	C	-0.029448	-0.000181	-0.142592
C50	C	-0.054655	-0.118253	-0.141984
C51	C	-0.029440	-0.236321	-0.142581
C52	C	0.020978	-0.236317	-0.143797
C53	C	0.020965	0.235963	-0.143810
C54	C	-0.029453	0.235949	-0.142595
C55	C	-0.054660	0.117877	-0.141986
C56	C	0.659733	-0.000188	-0.135167
C57	C	0.713397	-0.000195	-0.136440
C58	C	0.574369	-0.000173	0.062515
C59	C	0.573085	-0.000171	0.188487
N60	N	0.571394	0.308080	-0.145045
C61	C	0.568399	-0.000151	-0.352601
C62	C	0.569683	-0.000144	-0.478573
C63	C	0.570725	-0.000149	0.419123
C64	C	0.572036	-0.000161	0.290780
H65	H	0.424690	-0.214348	-0.153536
C66	C	-0.312919	0.254875	-0.038106
C67	C	-0.289108	0.247668	-0.136395
H68	H	-0.330028	0.335002	-0.037704
H69	H	-0.289735	0.249963	0.027617
H70	H	-0.335150	0.184554	-0.037585
H71	H	-0.266875	0.317983	-0.136913
H72	H	-0.312296	0.252592	-0.202136
H73	H	0.333227	-0.214370	-0.151324
C74	C	-0.106732	-0.341160	-0.140701
C75	C	-0.057153	-0.366109	-0.141901
H76	H	-0.123840	-0.421282	-0.140269
H77	H	-0.118508	-0.292656	-0.206711
H78	H	-0.111470	-0.292637	-0.074297
H79	H	-0.052415	-0.414624	-0.208311
H80	H	-0.045373	-0.414633	-0.075885
H81	H	0.192756	-0.332452	-0.147935
H82	H	0.041483	0.332114	-0.144302
H83	H	0.101297	-0.332460	-0.145731
C84	C	-0.091338	0.372992	-0.238825
C85	C	-0.057162	0.365753	-0.141929
H86	H	-0.108439	0.453130	-0.238408
H87	H	-0.113568	0.302690	-0.238281
H88	H	-0.075181	0.368089	-0.305501
H89	H	-0.073319	0.370647	-0.075253
H90	H	-0.034928	0.436075	-0.142463
C91	C	-0.256328	-0.351710	-0.137139
C92	C	-0.289101	-0.248063	-0.136364
H93	H	-0.273439	-0.431830	-0.136723
H94	H	-0.233148	-0.346800	-0.071409
H95	H	-0.240177	-0.346801	-0.203823
H96	H	-0.305250	-0.252967	-0.069675
H97	H	-0.312290	-0.252976	-0.202101
C98	C	-0.216060	0.351303	-0.138154
C99	C	-0.183274	0.247686	-0.138926
H100	H	-0.198959	0.431438	-0.138578
H101	H	-0.232209	0.346382	-0.071479
H102	H	-0.239242	0.346370	-0.203893
H103	H	-0.160094	0.252614	-0.073181
H104	H	-0.167116	0.252610	-0.205607
C105	C	0.234110	0.372999	-0.051187
C106	C	0.199937	0.365785	-0.148087
H107	H	0.251210	0.453138	-0.051598
H108	H	0.256343	0.302698	-0.051732
H109	H	0.217952	0.368074	0.015486
H110	H	0.216096	0.370700	-0.214761
H111	H	0.177701	0.436105	-0.147553
H112	H	0.101289	0.332139	-0.145722
C113	C	0.291839	0.254944	-0.248065
C114	C	0.326016	0.247730	-0.151170
H115	H	0.274732	0.335074	-0.247655
H116	H	0.269614	0.184632	-0.247514
H117	H	0.307996	0.250042	-0.314742
H118	H	0.309860	0.252622	-0.084493
H119	H	0.348245	0.318062	-0.151711
C120	C	0.481447	0.222793	-0.154885
C121	C	0.431867	0.247739	-0.153701
H122	H	0.498557	0.302916	-0.155278
H123	H	0.486191	0.174302	-0.221290
H124	H	0.493218	0.174259	-0.088876
H125	H	0.420095	0.296265	-0.219715
H126	H	0.427120	0.296250	-0.087289
H127	H	0.041501	-0.332467	-0.144293
H128	H	-0.190443	-0.214418	-0.138750
