data_functionalizedCrystal
_audit_creation_method	'MofGen! by Chris Wilmer'
_symmetry_space_group_name_H-M	'P1'
_symmetry_Int_Tables_number	1
_symmetry_cell_setting	triclinic
loop_
_symmetry_equiv_pos_as_xyz
  x,y,z
_cell_length_a	10.654541
_cell_length_b	17.038272
_cell_length_c	9.730217
_cell_angle_alpha	89.996329
_cell_angle_beta	89.999932
_cell_angle_gamma	87.797742
loop_
_atom_site_label
_atom_site_type_symbol
_atom_site_fract_x
_atom_site_fract_y
_atom_site_fract_z
O1	O	1.678040	0.109868	-0.114249
O2	O	1.313533	0.120338	-0.114261
O3	O	1.493620	0.001275	-0.114245
O4	O	1.497953	0.228930	-0.114266
O5	O	1.493614	0.001274	0.114336
O6	O	1.313527	0.120337	0.114319
O7	O	1.678034	0.109867	0.114331
Zn8	Zn	1.495780	0.115102	0.150617
Zn9	Zn	1.495788	0.115103	-0.150547
O10	O	1.497947	0.228929	0.114314
C11	C	1.266661	0.119569	0.000027
C12	C	1.127004	0.117270	0.000023
C13	C	1.112253	0.259642	-0.000008
C14	C	1.039268	0.329744	-0.000029
C15	C	0.908049	0.327580	-0.000030
C16	C	0.849813	0.255304	-0.000006
C17	C	0.922798	0.185202	0.000015
C18	C	1.054019	0.187374	0.000012
C19	C	0.937548	0.042832	0.000055
C20	C	1.068768	0.044995	0.000047
C21	C	0.879312	-0.029443	0.000079
C22	C	0.952297	-0.099548	0.000090
C23	C	1.083524	-0.097380	0.000090
C24	C	1.141753	-0.025108	0.000067
C25	C	1.489677	-0.027875	0.000045
C26	C	1.477920	-0.114734	0.000044
C27	C	1.585864	-0.164246	0.000049
C28	C	1.574809	-0.245858	0.000036
C29	C	1.455809	-0.277957	0.000027
C30	C	1.347857	-0.228439	0.000018
C31	C	1.358913	-0.146828	0.000022
C32	C	1.416751	-0.523933	0.000007
C33	C	1.405704	-0.605550	0.000008
C34	C	1.632657	-0.622963	0.000023
C35	C	1.643703	-0.541350	0.000035
C36	C	1.535750	-0.491839	0.000018
C37	C	1.444507	-0.361377	0.000018
C38	C	1.547054	-0.408420	0.000018
C39	C	1.724907	0.110635	0.000039
C40	C	1.864564	0.112934	0.000034
C41	C	1.501891	0.258080	0.000021
C42	C	1.513648	0.344939	0.000013
N43	N	1.495784	0.115100	0.356153
N44	N	1.495793	0.115098	-0.356084
C45	C	1.655323	0.009701	0.356159
C46	C	1.735102	-0.042996	0.428101
C47	C	1.735115	-0.042997	0.571981
C48	C	1.655338	0.009704	0.643922
C49	C	1.575559	0.062402	0.571979
C50	C	1.575558	0.062398	0.428096
C51	C	1.416015	0.167796	0.571973
C52	C	1.416007	0.167801	0.428094
C53	C	1.336238	0.220496	0.643914
C54	C	1.256464	0.273199	0.571971
C55	C	1.256455	0.273198	0.428083
C56	C	1.336228	0.220498	0.356151
H57	H	0.772466	-0.031201	0.000086
H58	H	1.086699	0.388590	-0.000044
H59	H	1.328848	-0.483630	-0.000006
H60	H	1.800072	-0.085910	0.630557
C61	C	1.261631	-0.687236	-0.117506
C62	C	1.274894	-0.640840	-0.000007
H63	H	1.180882	-0.709027	-0.117505
H64	H	1.270653	-0.655758	-0.197203
H65	H	1.324354	-0.728396	-0.117481
H66	H	1.212176	-0.599676	-0.000037
H67	H	1.265858	-0.672320	0.079711
H68	H	0.848624	0.384663	-0.000037
H69	H	1.347616	-0.387521	0.000014
C70	C	1.185590	0.320000	0.207525
C71	C	1.168758	0.331124	0.349006
H72	H	1.131442	0.355760	0.158713
H73	H	1.270343	0.328992	0.183946
H74	H	1.166377	0.267706	0.183962
H75	H	1.187980	0.383417	0.372571
H76	H	1.083985	0.322139	0.372594
H77	H	1.271013	-0.106516	0.000017
H78	H	1.643943	-0.382282	-0.000005
H79	H	1.250964	-0.254580	0.000003
C80	C	1.775389	0.026182	0.150050
C81	C	1.655321	0.009705	0.198004
H82	H	1.775388	0.026179	0.052411
H83	H	1.797897	0.076280	0.182592
H84	H	1.834308	-0.012749	0.182609
H85	H	1.596403	0.048639	0.165453
H86	H	1.632797	-0.040400	0.165448
C87	C	0.657821	0.290954	-0.117507
C88	C	0.705575	0.252923	0.000003
H89	H	0.568774	0.289478	-0.117503
H90	H	0.682055	0.344021	-0.117509
H91	H	0.690233	0.265143	-0.197206
H92	H	0.673170	0.278737	0.079702
H93	H	0.681328	0.199846	0.000016
C94	C	1.087280	0.289167	0.733786
C95	C	1.168781	0.331120	0.651054
H96	H	1.033155	0.324927	0.782618
H97	H	1.038609	0.256351	0.677655
H98	H	1.134806	0.257780	0.797210
H99	H	1.121255	0.362503	0.587622
H100	H	1.217457	0.363950	0.707189
C101	C	1.239648	-0.177548	-0.117391
C102	C	1.163750	-0.174439	0.000112
H103	H	1.289177	-0.225120	-0.117371
H104	H	1.188148	-0.175443	-0.197086
H105	H	1.293107	-0.134195	-0.117393
H106	H	1.110283	-0.217789	0.000108
H107	H	1.215254	-0.176551	0.079827
C108	C	1.751113	-0.149268	0.266211
C109	C	1.822830	-0.100880	0.348980
H110	H	1.805285	-0.184987	0.217351
H111	H	1.695860	-0.177756	0.322320
H112	H	1.703571	-0.117873	0.202811
H113	H	1.870365	-0.132275	0.412387
H114	H	1.878105	-0.072390	0.292866
H115	H	0.904870	-0.158388	0.000108
H116	H	1.336233	0.220495	0.238996
C117	C	1.333738	-0.060753	0.117582
C118	C	1.285990	-0.022725	0.000066
H119	H	1.422785	-0.059283	0.117576
H120	H	1.301330	-0.034943	0.197268
H121	H	1.309496	-0.113826	0.117585
H122	H	1.310225	0.030350	0.000068
H123	H	1.318411	-0.048533	-0.079640
C124	C	1.622141	-0.064161	0.850031
C125	C	1.655346	0.009697	0.802077
H126	H	1.622153	-0.064165	0.947670
H127	H	1.540695	-0.075326	0.817490
H128	H	1.681072	-0.103082	0.817471
H129	H	1.596409	0.048618	0.834628
H130	H	1.736804	0.020871	0.834632
H131	H	1.219098	0.261412	-0.000037
C132	C	1.800249	-0.254873	0.000084
C133	C	1.693466	-0.300282	0.000057
H134	H	1.873504	-0.288474	0.000106
H135	H	1.799853	-0.222679	-0.079622
H136	H	1.799818	-0.222680	0.079801
H137	H	1.693892	-0.332470	-0.079666
H138	H	1.693863	-0.332490	0.079771
H139	H	1.682766	-0.138118	0.000065
H140	H	1.740605	-0.515222	0.000042
H141	H	1.336246	0.220491	0.761068
H142	H	1.720546	-0.663284	0.000034
