data_functionalizedCrystal
_audit_creation_method	'MofGen! by Chris Wilmer'
_symmetry_space_group_name_H-M	'P1'
_symmetry_Int_Tables_number	1
_symmetry_cell_setting	triclinic
loop_
_symmetry_equiv_pos_as_xyz
  x,y,z
_cell_length_a	16.992694
_cell_length_b	10.723024
_cell_length_c	15.455313
_cell_angle_alpha	92.691723
_cell_angle_beta	87.142206
_cell_angle_gamma	87.568046
loop_
_atom_site_label
_atom_site_type_symbol
_atom_site_fract_x
_atom_site_fract_y
_atom_site_fract_z
O1	O	1.045219	0.259622	-0.072018
O2	O	1.545219	0.759622	0.427982
O3	O	0.816920	0.256716	-0.072044
O4	O	1.316920	0.756716	0.427956
O5	O	0.936335	0.077046	-0.072027
O6	O	1.436335	0.577046	0.427973
O7	O	0.925803	0.439291	-0.072035
O8	O	1.425803	0.939291	0.427965
O9	O	0.929506	0.087275	0.072234
O10	O	1.429506	0.587275	0.572234
O11	O	0.810091	0.266945	0.072217
O12	O	1.310091	0.766945	0.572217
O13	O	1.038390	0.269851	0.072243
O14	O	1.538390	0.769851	0.572243
Cu15	Cu	0.923617	0.269332	0.085402
Cu16	Cu	1.423617	0.769332	0.585402
Cu17	Cu	0.931693	0.257235	-0.085203
Cu18	Cu	1.431693	0.757235	0.414797
O19	O	0.918974	0.449520	0.072226
O20	O	1.418974	0.949520	0.572226
C21	C	0.784273	0.258094	0.000083
C22	C	1.284273	0.758094	0.500083
C23	C	0.697169	0.246945	0.000074
C24	C	1.197169	0.746945	0.500074
C25	C	0.647507	0.354505	0.000072
C26	C	1.147507	0.854505	0.500072
C27	C	0.565663	0.344024	0.000084
C28	C	1.065663	0.844024	0.500084
C29	C	0.533484	0.225982	0.000092
C30	C	1.033484	0.725982	0.500092
C31	C	0.583152	0.118414	0.000096
C32	C	1.083152	0.618414	0.500096
C33	C	0.664993	0.128896	0.000090
C34	C	1.164993	0.628896	0.500090
C35	C	0.289651	0.182535	0.000116
C36	C	0.789651	0.682535	0.500116
C37	C	0.207803	0.172061	0.000119
C38	C	0.707803	0.672061	0.500119
C39	C	0.190320	0.397673	0.000109
C40	C	0.690320	0.897673	0.500109
C41	C	0.272165	0.408144	0.000098
C42	C	0.772165	0.908144	0.500098
C43	C	0.321825	0.300577	0.000107
C44	C	0.821825	0.800577	0.500107
N45	N	0.449827	0.215266	0.000102
N46	N	0.949827	0.715266	0.500102
N47	N	0.405480	0.311295	0.000103
N48	N	0.905480	0.811295	0.500103
C49	C	0.932154	0.035595	0.000102
C50	C	1.432154	0.535595	0.500102
C51	C	0.929861	-0.103157	0.000099
C52	C	1.429861	0.396843	0.500099
C53	C	0.996680	-0.172386	0.000105
C54	C	1.496680	0.327614	0.500105
C55	C	0.994312	-0.315793	0.000102
C56	C	1.494312	0.184207	0.500102
C57	C	1.071037	0.268473	0.000114
C58	C	1.571037	0.768473	0.500114
C59	C	1.158141	0.279621	0.000118
C60	C	1.658141	0.779621	0.500118
C61	C	0.923155	0.490971	0.000095
C62	C	1.423155	0.990971	0.500095
C63	C	0.925449	0.629723	0.000093
C64	C	1.425449	1.129723	0.500093
N65	N	0.917942	0.277840	0.205397
N66	N	1.417942	0.777840	0.705397
N67	N	0.937374	0.248717	-0.205198
N68	N	1.437374	0.748717	0.294802
C69	C	0.968692	0.201542	0.250798
C70	C	1.468692	0.701542	0.750798
C71	C	0.964408	0.207989	0.341605
C72	C	1.464408	0.707989	0.841605
C73	C	0.909377	0.290741	0.387010
C74	C	1.409377	0.790741	0.887010
C75	C	0.858622	0.367042	0.341602
C76	C	1.358622	0.867042	0.841602
C77	C	0.862903	0.360588	0.250797
C78	C	1.362903	0.860588	0.750797
C79	C	0.890899	0.318564	0.658589
C80	C	1.390899	0.818564	1.158589
C81	C	0.886624	0.325015	0.749401
C82	C	1.386624	0.825015	1.249401
C83	C	0.992409	0.165960	0.749398
C84	C	1.492409	0.665960	1.249398
C85	C	0.996689	0.159518	0.658590
C86	C	1.496689	0.659518	1.158590
C87	C	0.945931	0.235815	0.613191
C88	C	1.445931	0.735815	1.113191
N89	N	0.904999	0.297335	0.479830
N90	N	1.404999	0.797335	0.979830
N91	N	0.950306	0.229213	0.520373
N92	N	1.450306	0.729213	1.020373
H93	H	0.298359	0.504266	0.000082
H94	H	0.798359	1.004266	0.500082
H95	H	0.525232	0.431612	0.000082
H96	H	1.025232	0.931612	0.500082
H97	H	1.033733	0.103841	0.786370
H98	H	1.533733	0.603841	1.286370
H99	H	0.330075	0.094946	0.000124
H100	H	0.830075	0.594946	0.500124
O101	O	0.718561	0.012886	0.000098
O102	O	1.218561	0.512886	0.500098
H103	H	0.759050	0.008093	-0.058696
H104	H	1.259050	0.508093	0.441304
O105	O	0.799268	0.456305	0.390568
O106	O	1.299268	0.956305	0.890568
H107	H	0.804823	0.447988	0.461339
H108	H	1.304823	0.947988	0.961339
O109	O	0.851758	-0.165267	0.000098
O110	O	1.351758	0.334733	0.500098
H111	H	0.850192	-0.228478	-0.058698
H112	H	1.350192	0.271522	0.441302
O113	O	0.173094	0.044736	0.000141
O114	O	0.673094	0.544736	0.500141
H115	H	0.139006	0.030381	-0.058657
H116	H	0.639006	0.530381	0.441343
H117	H	1.041499	0.092135	0.621624
H118	H	1.541499	0.592135	1.121624
O119	O	0.136759	0.513688	0.000107
O120	O	0.636759	1.013688	0.500107
H121	H	0.145509	0.573960	0.058900
H122	H	0.645509	1.073960	0.558900
H123	H	1.055640	-0.125486	0.000117
H124	H	1.555640	0.374514	0.500117
H125	H	0.868243	-0.310778	0.000093
H126	H	1.368243	0.189222	0.500093
O127	O	0.808170	0.442886	0.201821
O128	O	1.308170	0.942886	0.701821
H129	H	0.769190	0.501523	0.248647
H130	H	1.269190	1.001523	0.748647
O131	O	1.070090	-0.394601	0.000111
O132	O	1.570090	0.105399	0.500111
H133	H	1.056339	-0.494871	0.000102
H134	H	1.556339	0.005129	0.500102
O135	O	1.028044	0.112282	0.201827
O136	O	1.528044	0.612282	0.701827
H137	H	1.062607	0.060301	0.248657
H138	H	1.562607	0.560301	0.748657
O139	O	0.827263	0.414263	0.798383
O140	O	1.327263	0.914263	1.298383
H141	H	0.766844	0.390943	0.780978
H142	H	1.266844	0.890943	1.280978
H143	H	0.556944	0.022302	0.000115
H144	H	1.056944	0.522302	0.500115
O145	O	1.019159	0.125721	0.390577
O146	O	1.519159	0.625721	0.890577
H147	H	1.058156	0.067114	0.343749
H148	H	1.558156	0.567114	0.843749
O149	O	0.836163	0.400863	0.609626
O150	O	1.336163	0.900863	1.109626
H151	H	0.797187	0.459499	0.656457
H152	H	1.297187	0.959499	1.156457
O153	O	0.682213	0.481825	0.000062
O154	O	1.182213	0.981825	0.500062
H155	H	0.716312	0.496160	0.058854
H156	H	1.216312	0.996160	0.558854
