data_functionalizedCrystal
_audit_creation_method	'MofGen! by Chris Wilmer'
_symmetry_space_group_name_H-M	'P1'
_symmetry_Int_Tables_number	1
_symmetry_cell_setting	triclinic
loop_
_symmetry_equiv_pos_as_xyz
  x,y,z
_cell_length_a	10.489741
_cell_length_b	12.837943
_cell_length_c	11.892095
_cell_angle_alpha	94.305320
_cell_angle_beta	86.063851
_cell_angle_gamma	89.684057
loop_
_atom_site_label
_atom_site_type_symbol
_atom_site_fract_x
_atom_site_fract_y
_atom_site_fract_z
O1	O	1.717543	0.139818	-0.093925
O2	O	1.347863	0.153557	-0.093941
O3	O	1.524506	-0.004276	-0.093934
O4	O	1.540900	0.297652	-0.093932
O5	O	1.509775	0.008863	0.094073
O6	O	1.333133	0.166697	0.094066
O7	O	1.702812	0.152957	0.094082
Zn8	Zn	1.515634	0.161913	0.123924
Zn9	Zn	1.535042	0.144601	-0.123783
O10	O	1.526170	0.310791	0.094075
C11	C	1.292852	0.159089	0.000060
C12	C	1.150881	0.155984	0.000053
C13	C	1.511603	-0.036369	0.000066
C14	C	1.495085	-0.151570	0.000058
N15	N	1.502397	0.173727	0.292978
C16	C	1.071668	0.055559	0.000063
C17	C	0.992034	0.096521	-0.092632
C18	C	0.977548	0.109499	0.092728
C19	C	1.073123	0.196981	-0.092718
C20	C	1.058638	0.209952	0.092725
C21	C	0.979041	0.250985	0.000008
C22	C	1.757824	0.147425	0.000079
C23	C	1.899795	0.150530	0.000078
C24	C	1.539073	0.342883	0.000072
C25	C	1.555591	0.458084	0.000073
C26	C	1.357018	0.697558	0.000044
C27	C	1.372532	0.805799	0.000044
C28	C	1.602133	0.782810	0.000067
C29	C	1.586619	0.674569	0.000066
C30	C	1.464057	0.631947	0.000056
C31	C	1.448544	0.523704	0.000064
C32	C	1.678144	0.500716	0.000079
C33	C	1.693658	0.608958	0.000079
N34	N	1.548287	0.132779	-0.292837
C35	C	1.640385	0.050511	0.529631
C36	C	1.631143	0.058776	0.647972
C37	C	1.474666	0.198519	0.648004
C38	C	1.483908	0.190253	0.529663
C39	C	1.566771	0.116248	0.470480
C40	C	1.576019	0.107988	0.352137
C41	C	1.419536	0.247725	0.352171
C42	C	1.410294	0.255990	0.470512
H43	H	0.962476	0.048552	-0.171000
H44	H	1.707865	-0.009741	0.481444
H45	H	1.257222	0.662856	0.000056
O46	O	1.097857	0.273435	0.196537
H47	H	1.011181	0.302134	0.248715
H48	H	1.342824	0.316242	0.518712
H49	H	0.938733	0.333624	-0.000041
O50	O	1.340121	0.318629	0.288376
H51	H	1.360459	0.300446	0.196142
H52	H	1.691084	0.005245	0.696130
O53	O	0.922179	0.060461	0.196545
H54	H	0.959423	-0.020651	0.196340
O55	O	1.128309	0.245923	-0.196660
H56	H	1.182571	0.316678	-0.170719
H57	H	1.701911	0.817538	0.000146
H58	H	1.112265	-0.027005	-0.000054
H59	H	1.348747	0.489004	0.000066
H60	H	1.285369	0.859217	0.000033
H61	H	1.793444	0.643676	0.000092
O62	O	1.793608	0.429952	0.000089
H63	H	1.762235	0.347522	0.000081
H64	H	1.643494	0.047732	0.303951
O65	O	1.385296	0.278335	0.711844
H66	H	1.391246	0.273037	0.804071
