data_functionalizedCrystal
_audit_creation_method	'MofGen! by Chris Wilmer'
_symmetry_space_group_name_H-M	'P1'
_symmetry_Int_Tables_number	1
_symmetry_cell_setting	triclinic
loop_
_symmetry_equiv_pos_as_xyz
  x,y,z
_cell_length_a	16.992695
_cell_length_b	16.992695
_cell_length_c	16.053942
_cell_angle_alpha	92.735587
_cell_angle_beta	87.253752
_cell_angle_gamma	90.668223
loop_
_atom_site_label
_atom_site_type_symbol
_atom_site_fract_x
_atom_site_fract_y
_atom_site_fract_z
O1	O	1.053953	0.163818	-0.069396
O2	O	0.825553	0.161986	-0.069405
O3	O	0.938837	0.048702	-0.069394
O4	O	0.940669	0.277102	-0.069407
O5	O	0.932619	0.054898	0.069462
O6	O	0.819335	0.168182	0.069451
O7	O	1.047735	0.170014	0.069460
Zn8	Zn	0.932548	0.170082	0.091501
Zn9	Zn	0.940740	0.161918	-0.091447
O10	O	0.934451	0.283298	0.069449
C11	C	0.793084	0.162728	0.000022
C12	C	0.705600	0.155700	0.000019
C13	C	0.933372	0.022440	0.000034
C14	C	0.926344	-0.065045	0.000033
C15	C	0.994161	-0.111035	0.000037
C16	C	0.987553	-0.193236	0.000029
C17	C	0.913125	-0.229445	0.000023
C18	C	0.845303	-0.183448	0.000017
C19	C	0.851912	-0.101249	0.000019
C20	C	0.885732	-0.474760	0.000010
C21	C	0.879127	-0.556965	0.000011
C22	C	1.021378	-0.566748	0.000021
C23	C	1.027981	-0.484546	0.000028
C24	C	0.960158	-0.438557	0.000018
N25	N	0.906369	-0.313467	0.000017
N26	N	0.966916	-0.354536	0.000017
C27	C	1.080204	0.169272	0.000031
C28	C	1.167689	0.176300	0.000029
C29	C	1.213680	0.108482	0.000030
C30	C	1.295880	0.115091	0.000033
C31	C	1.332089	0.189519	0.000028
C32	C	1.286092	0.257342	0.000030
C33	C	1.203892	0.250732	0.000033
C34	C	1.577403	0.216913	0.000023
C35	C	1.659609	0.223517	0.000018
C36	C	1.669392	0.081266	0.000022
C37	C	1.587190	0.074663	0.000020
C38	C	1.541200	0.142486	0.000026
N39	N	1.416111	0.196276	0.000028
N40	N	1.457179	0.135729	0.000032
C41	C	0.939916	0.309560	0.000019
C42	C	0.946945	0.397044	0.000014
N43	N	0.946332	0.156342	-0.216304
C44	C	0.975265	0.127559	-0.739921
C45	C	0.971332	0.131465	-0.652516
C46	C	0.919100	0.183469	-0.608834
C47	C	0.870792	0.231564	-0.652560
C48	C	0.874721	0.227653	-0.739963
C49	C	0.901953	0.200527	-0.347433
C50	C	0.898029	0.204435	-0.260024
C51	C	0.998568	0.104335	-0.259986
C52	C	1.002497	0.100432	-0.347391
C53	C	0.954186	0.148525	-0.391110
N54	N	0.915080	0.187464	-0.519492
N55	N	0.958202	0.144525	-0.480450
N56	N	0.926962	0.175652	0.216359
H57	H	1.054768	-0.081560	0.000047
C58	C	1.051697	0.051431	-0.211894
H59	H	1.041874	0.061200	-0.153584
H60	H	1.105392	0.062754	-0.226207
H61	H	1.040590	-0.002310	-0.226214
H62	H	0.830505	-0.437325	0.000002
H63	H	1.010663	0.092303	-0.616919
H64	H	1.076595	-0.604201	0.000028
C65	C	0.840527	0.261597	-0.211975
H66	H	0.812299	0.289661	-0.250529
H67	H	0.869259	0.297752	-0.177856
H68	H	0.804525	0.232621	-0.177903
H69	H	0.818516	-0.586442	0.000020
H70	H	1.706845	0.026049	0.000019
C71	C	1.109849	-0.444718	0.000040
H72	H	1.104071	-0.389176	0.000051
H73	H	1.140166	-0.462353	-0.048377
H74	H	1.135812	-0.458045	0.048473
C75	C	1.346467	0.040491	0.000032
H76	H	1.313130	-0.004781	0.000026
H77	H	1.376570	0.042270	0.048454
H78	H	1.380903	0.037954	-0.048396
H79	H	1.557716	0.014056	0.000024
H80	H	0.862618	0.239687	-0.383023
C81	C	1.153303	0.325332	0.000024
H82	H	1.186639	0.370605	0.000013
H83	H	1.118867	0.327873	0.048446
H84	H	1.123201	0.323546	-0.048404
H85	H	0.796688	-0.063804	0.000016
C86	C	0.763434	-0.223275	0.000013
H87	H	0.769209	-0.278817	0.000021
H88	H	0.737460	-0.209952	-0.048409
H89	H	0.733128	-0.205633	0.048441
H90	H	1.184205	0.047875	0.000028
H91	H	1.689086	0.284129	0.000026
H92	H	1.042777	-0.230679	0.000033
C93	C	1.526825	0.291516	0.000022
H94	H	1.560165	0.336786	0.000010
H95	H	1.492391	0.294059	0.048446
H96	H	1.496721	0.289734	-0.048404
C97	C	1.032719	0.070354	-0.787964
H98	H	1.060917	0.042266	-0.749404
H99	H	1.068740	0.099277	-0.822059
H100	H	1.003940	0.034211	-0.822058
C101	C	1.325919	0.339210	0.000023
H102	H	1.381461	0.333435	0.000012
H103	H	1.308274	0.369514	0.048443
H104	H	1.312600	0.365186	-0.048407
C105	C	1.059947	0.043224	-0.395436
H106	H	1.088147	0.015134	-0.356879
H107	H	1.095966	0.072149	-0.429531
H108	H	1.031166	0.007082	-0.429530
H109	H	0.828259	0.273903	-0.616989
C110	C	0.821592	0.280559	-0.788056
H111	H	0.789927	0.312096	-0.749523
H112	H	0.788639	0.248582	-0.822155
H113	H	0.853437	0.313651	-0.822150
