data_functionalizedCrystal
_audit_creation_method	'MofGen! by Chris Wilmer'
_symmetry_space_group_name_H-M	'P1'
_symmetry_Int_Tables_number	1
_symmetry_cell_setting	triclinic
loop_
_symmetry_equiv_pos_as_xyz
  x,y,z
_cell_length_a	6.817900
_cell_length_b	9.514088
_cell_length_c	11.102250
_cell_angle_alpha	88.636713
_cell_angle_beta	108.605052
_cell_angle_gamma	118.843545
loop_
_atom_site_label
_atom_site_type_symbol
_atom_site_fract_x
_atom_site_fract_y
_atom_site_fract_z
V1	V	-4.243925	-0.500750	-0.178093
O2	O	-4.200435	-0.491211	0.006240
O3	O	-4.219798	-0.497332	-0.350899
O4	O	-4.278447	-0.719141	-0.176371
O5	O	-4.141381	-0.267866	-0.169496
V6	V	-4.713663	-0.472894	-0.155924
O7	O	-4.535422	-0.561854	-0.226721
O8	O	-4.872363	-0.411791	-0.107296
O9	O	-4.514583	-0.476312	0.016881
O10	O	-4.874549	-0.482434	-0.340257
O11	O	-4.933604	-0.705778	-0.164521
O12	O	-4.455934	-0.254503	-0.157647
C13	C	-4.068021	-0.489434	-0.392993
C14	C	-4.130134	-0.488096	-0.534271
C15	C	-4.118605	-0.339113	-0.714570
C16	C	-4.060248	-0.340383	-0.581826
C17	C	-4.258366	-0.634548	-0.619466
C18	C	-4.316706	-0.633277	-0.752207
C19	C	-4.004231	-0.169279	-0.692837
C20	C	-3.945874	-0.170548	-0.560094
C21	C	-4.142831	-0.772372	-0.170364
C22	C	-4.252501	-0.950908	-0.170099
C23	C	-4.329701	-0.484206	0.058969
C24	C	-4.246831	-0.485555	0.200245
C25	C	-4.254889	-0.201264	-0.163658
C26	C	-4.124457	-0.022727	-0.163916
H27	H	-4.421090	-0.752522	-0.821561
H28	H	-4.134275	-0.122540	-0.732427
C29	C	-4.334129	-0.794764	-0.567592
C30	C	-4.255640	-0.764540	-0.433112
C31	C	-4.325424	-0.912095	-0.385286
H32	H	-4.265365	-0.849984	-0.592778
H33	H	-4.503496	-0.860131	-0.601174
H34	H	-4.086306	-0.699199	-0.399543
H35	H	-4.324394	-0.709343	-0.407891
H36	H	-4.494791	-0.977463	-0.418868
H37	H	-4.256656	-0.967305	-0.410481
H38	H	-4.272199	-0.891610	-0.294038
H39	H	-3.930938	-0.947630	-0.158836
C40	C	-4.510650	-1.051281	-0.177080
C41	C	-4.643035	-1.169751	-0.287231
C42	C	-4.880837	-1.262259	-0.293696
H43	H	-4.576602	-0.982494	-0.181067
H44	H	-4.516206	-1.102486	-0.102759
H45	H	-4.637491	-1.118549	-0.361533
H46	H	-4.577157	-1.238574	-0.283268
H47	H	-4.886393	-1.313464	-0.219375
H48	H	-4.946765	-1.193460	-0.297679
H49	H	-4.970685	-1.342661	-0.368426
C50	C	-3.776534	-0.073663	-0.723344
C51	C	-3.835538	-0.072601	-0.856140
C52	C	-3.625856	0.015480	-0.884289
H53	H	-3.680665	-0.123025	-0.696228
H54	H	-3.690155	0.034747	-0.679487
H55	H	-3.921879	-0.180991	-0.899982
H56	H	-3.931375	-0.023227	-0.883287
H57	H	-3.539477	0.123890	-0.840431
H58	H	-3.530002	-0.033891	-0.857166
H59	H	-3.665862	0.016225	-0.974390
C60	C	-4.056511	-0.091986	-0.507704
C61	C	-3.967743	0.068510	-0.531652
C62	C	-4.069597	0.140934	-0.483414
H63	H	-4.016943	-0.092667	-0.417620
H64	H	-4.225402	-0.151040	-0.548842
H65	H	-3.798890	0.127548	-0.490510
H66	H	-4.007307	0.069237	-0.621726
H67	H	-4.238489	0.081881	-0.524553
H68	H	-4.030023	0.140242	-0.393333
H69	H	-4.009401	0.249833	-0.499667
H70	H	-3.744839	-0.111884	-0.507021
