data_functionalizedCrystal
_audit_creation_method	'MofGen! by Chris Wilmer'
_symmetry_space_group_name_H-M	'P1'
_symmetry_Int_Tables_number	1
_symmetry_cell_setting	triclinic
loop_
_symmetry_equiv_pos_as_xyz
  x,y,z
_cell_length_a	17.077404
_cell_length_b	14.908178
_cell_length_c	17.077396
_cell_angle_alpha	86.673435
_cell_angle_beta	89.981638
_cell_angle_gamma	93.311930
loop_
_atom_site_label
_atom_site_type_symbol
_atom_site_fract_x
_atom_site_fract_y
_atom_site_fract_z
Zn1	Zn	1.182045	-0.359235	-0.425771
Zn2	Zn	1.682045	0.140765	0.074229
Zn3	Zn	1.174388	-0.510118	-0.286925
Zn4	Zn	1.674388	-0.010118	0.213075
Zn5	Zn	1.050776	-0.359261	-0.294520
Zn6	Zn	1.550776	0.140739	0.205480
Zn7	Zn	1.043184	-0.510059	-0.418154
Zn8	Zn	1.543184	-0.010059	0.081846
O9	O	1.112598	-0.434668	-0.356342
O10	O	1.612598	0.065332	0.143658
O11	O	1.290876	-0.379264	-0.407362
O12	O	1.790876	0.120736	0.092638
O13	O	1.157963	-0.490142	-0.178083
O14	O	1.657963	0.009858	0.321917
O15	O	1.074571	-0.233003	-0.318297
O16	O	1.574571	0.266997	0.181703
O17	O	1.285250	-0.490117	-0.305352
O18	O	1.785250	0.009883	0.194648
O19	O	1.171014	-0.232984	-0.414727
O20	O	1.671014	0.267016	0.085273
O21	O	1.067146	-0.379308	-0.183664
O22	O	1.567146	0.120692	0.316336
O23	O	0.939922	-0.379250	-0.310911
O24	O	1.439922	0.120750	0.189089
O25	O	1.061631	-0.490016	-0.529013
O26	O	1.561631	0.009984	-0.029013
O27	O	0.934345	-0.490041	-0.401745
O28	O	1.434345	0.009959	0.098255
O29	O	1.163652	-0.379207	-0.534609
O30	O	1.663652	0.120793	-0.034609
O31	O	1.150602	-0.636365	-0.297966
O32	O	1.650602	-0.136365	0.202034
O33	O	1.054206	-0.636321	-0.394379
O34	O	1.554206	-0.136321	0.105621
C35	C	0.908652	-0.434643	-0.356326
C36	C	1.408652	0.065357	0.143674
C37	C	0.821401	-0.434653	-0.356337
C38	C	1.321401	0.065347	0.143663
C39	C	0.783336	-0.377035	-0.409525
C40	C	1.283336	0.122965	0.090475
C41	C	0.701355	-0.377041	-0.409528
C42	C	1.201355	0.122959	0.090472
C43	C	0.657441	-0.434670	-0.356346
C44	C	1.157441	0.065330	0.143654
C45	C	0.695512	-0.492291	-0.303153
C46	C	1.195512	0.007709	0.196847
C47	C	0.777491	-0.492280	-0.303146
C48	C	1.277491	0.007720	0.196854
C49	C	0.524641	-0.492312	-0.303171
C50	C	1.024641	0.007688	0.196829
C51	C	0.442656	-0.492324	-0.303178
C52	C	0.942656	0.007676	0.196822
C53	C	0.448505	-0.377072	-0.409553
C54	C	0.948505	0.122928	0.090447
C55	C	0.530484	-0.377061	-0.409546
C56	C	1.030484	0.122939	0.090454
C57	C	0.568549	-0.434684	-0.356353
C58	C	1.068549	0.065316	0.143647
C59	C	1.100771	-0.669079	-0.344539
C60	C	1.600771	-0.169079	0.155461
C61	C	1.095783	-0.769361	-0.339516
C62	C	1.595783	-0.269361	0.160484
C63	C	1.186760	-0.957632	-0.430596
C64	C	1.686760	-0.457632	0.069404
C65	C	1.182076	-1.051856	-0.425879
C66	C	1.682076	-0.551856	0.074121
C67	C	1.081727	-1.052034	-0.325369
C68	C	1.581727	-0.552034	0.174631
C69	C	1.086411	-0.957810	-0.330086
C70	C	1.586411	-0.457810	0.169914
C71	C	1.138930	-0.910612	-0.382700
C72	C	1.638930	-0.410612	0.117300
C73	C	1.143617	-0.816387	-0.387413
C74	C	1.643617	-0.316387	0.112587
C75	C	1.043266	-0.816567	-0.286907
C76	C	1.543266	-0.316567	0.213093
C77	C	1.038582	-0.910791	-0.282190
C78	C	1.538582	-0.410791	0.217810
C79	C	1.317341	-0.434695	-0.356359
C80	C	1.817341	0.065305	0.143641
C81	C	1.404590	-0.434706	-0.356366
C82	C	1.904590	0.065294	0.143634
C83	C	1.112649	-0.434602	-0.561090
C84	C	1.612649	0.065398	-0.061090
C85	C	1.112671	-0.434573	-0.648341
C86	C	1.612671	0.065427	-0.148341
C87	C	1.124493	-0.199342	-0.368209
C88	C	1.624493	0.300658	0.131791
C89	C	1.129562	-0.099060	-0.373266
C90	C	1.629562	0.400940	0.126734
C91	C	1.165795	-0.376870	-0.692247
C92	C	1.665795	0.123130	-0.192247
C93	C	1.165806	-0.376840	-0.774229
C94	C	1.665806	0.123160	-0.274229
C95	C	1.112696	-0.434519	-0.812304
C96	C	1.612696	0.065481	-0.312304
C97	C	1.059566	-0.492224	-0.768392
C98	C	1.559566	0.007776	-0.268392
C99	C	1.059552	-0.492249	-0.686412
C100	C	1.559552	0.007751	-0.186412
C101	C	1.059600	-0.492170	-0.939265
C102	C	1.559600	0.007830	-0.439265
C103	C	1.059615	-0.492147	-1.021251
C104	C	1.559615	0.007853	-0.521251
C105	C	1.165854	-0.376761	-1.027082
C106	C	1.665854	0.123239	-0.527082
C107	C	1.165840	-0.376786	-0.945102
C108	C	1.665840	0.123214	-0.445102
C109	C	1.112711	-0.434493	-0.901196
C110	C	1.612711	0.065507	-0.401196
C111	C	1.112596	-0.434669	-0.152395
C112	C	1.612596	0.065331	0.347605
C113	C	1.112739	-0.434443	-0.065156
C114	C	1.612739	0.065557	0.434844
H115	H	0.670366	-0.330124	-0.452840
H116	H	1.170366	0.169876	0.047160
H117	H	1.038966	-1.090479	-0.282536
H118	H	1.538966	-0.590479	0.217464
H119	H	0.819085	-0.330108	-0.452833
H120	H	1.319085	0.169892	0.047167
H121	H	0.566237	-0.330139	-0.452856
H122	H	1.066237	0.169861	0.047144
H123	H	0.417508	-0.330152	-0.452863
H124	H	0.917508	0.169848	0.047137
H125	H	0.995820	-0.949232	-0.239355
H126	H	1.495820	-0.449232	0.260645
H127	H	1.016285	-0.539228	-0.650665
H128	H	1.516285	-0.039228	-0.150665
H129	H	1.004322	-0.778273	-0.247905
H130	H	1.504322	-0.278273	0.252095
C131	C	1.218789	-1.080717	-0.557390
C132	C	1.718789	-0.580717	-0.057390
C133	C	1.234650	-1.103541	-0.478527
C134	C	1.734650	-0.603541	0.021473
H135	H	1.251250	-1.112623	-0.589894
H136	H	1.751250	-0.612623	-0.089894
H137	H	1.165276	-1.096204	-0.568043
H138	H	1.665276	-0.596204	-0.068043
H139	H	1.229097	-1.017844	-0.567719
H140	H	1.729097	-0.517844	-0.067719
H141	H	1.224336	-1.166413	-0.468197
H142	H	1.724336	-0.666413	0.031803
H143	H	1.288176	-1.088060	-0.467870
H144	H	1.788176	-0.588060	0.032130
C145	C	0.616161	-0.504691	-0.196924
C146	C	1.116161	-0.004691	0.303076
C147	C	0.566481	-0.555654	-0.244701
C148	C	1.066481	-0.055654	0.255299
H149	H	0.641987	-0.543798	-0.160827
H150	H	1.141987	-0.043798	0.339173
H151	H	0.654044	-0.470376	-0.228593
H152	H	1.154044	0.029624	0.271407
H153	H	0.586142	-0.465345	-0.168939
H154	H	1.086142	0.034655	0.331061
H155	H	0.596502	-0.594994	-0.272690
H156	H	1.096502	-0.094994	0.227310
H157	H	0.528593	-0.589984	-0.213027
H158	H	1.028593	-0.089984	0.286973
C159	C	1.270802	-0.262807	-0.706254
C160	C	1.770802	0.237193	-0.206254
C161	C	1.224175	-0.313465	-0.650400
C162	C	1.724175	0.186535	-0.150400
H163	H	1.306839	-0.223658	-0.680420
H164	H	1.806839	0.276342	-0.180420
H165	H	1.298846	-0.302110	-0.736249
H166	H	1.798846	0.197890	-0.236249
H167	H	1.238341	-0.228287	-0.739967
H168	H	1.738341	0.271713	-0.239967
H169	H	1.256636	-0.347991	-0.616690
H170	H	1.756636	0.152009	-0.116690
H171	H	1.196129	-0.274157	-0.620392
H172	H	1.696129	0.225843	-0.120392
C173	C	0.445104	-0.606235	-0.198021
C174	C	0.945104	-0.106235	0.301979
C175	C	0.394383	-0.555667	-0.244718
C176	C	0.894383	-0.055667	0.255282
H177	H	0.415301	-0.645336	-0.161928
H178	H	0.915301	-0.145336	0.338072
H179	H	0.475353	-0.640794	-0.230424
H180	H	0.975353	-0.140794	0.269576
H181	H	0.479049	-0.566866	-0.170032
H182	H	0.979049	-0.066866	0.329968
H183	H	0.360442	-0.595036	-0.272711
H184	H	0.860442	-0.095036	0.227289
H185	H	0.364121	-0.521105	-0.212311
H186	H	0.864121	-0.021105	0.287689
H187	H	0.808483	-0.539199	-0.259835
H188	H	1.308483	-0.039199	0.240165
H189	H	1.016366	-0.539112	-1.052249
H190	H	1.516366	-0.039112	-0.552249
H191	H	0.659750	-0.539210	-0.259848
H192	H	1.159750	-0.039210	0.240152
H193	H	1.209091	-0.329824	-0.914104
H194	H	1.709091	0.170176	-0.414104
H195	H	1.016325	-0.539147	-0.903520
H196	H	1.516325	-0.039147	-0.403520
H197	H	1.209067	-0.329855	-0.809974
H198	H	1.709067	0.170145	-0.309974
C199	C	1.183205	-0.787228	-0.521832
C200	C	1.683205	-0.287228	-0.021832
C201	C	1.201338	-0.764500	-0.445250
C202	C	1.701338	-0.264500	0.054750
H203	H	1.218836	-0.755192	-0.557539
H204	H	1.718836	-0.255192	-0.057539
H205	H	1.187265	-0.850066	-0.525872
H206	H	1.687265	-0.350066	-0.025872
H207	H	1.131218	-0.771825	-0.534024
H208	H	1.631218	-0.271825	-0.034024
H209	H	1.253323	-0.779910	-0.433055
H210	H	1.753323	-0.279910	0.066945
H211	H	1.197286	-0.701649	-0.441207
H212	H	1.697286	-0.201649	0.058793
C213	C	1.213034	-0.325456	-1.155339
C214	C	1.713034	0.174544	-0.655339
C215	C	1.224243	-0.313312	-1.075341
C216	C	1.724243	0.186688	-0.575341
H217	H	1.249076	-0.286281	-1.185133
H218	H	1.749076	0.213719	-0.685133
H219	H	1.221468	-0.386062	-1.165722
H220	H	1.721468	0.113938	-0.665722
H221	H	1.160956	-0.312246	-1.169417
H222	H	1.660956	0.187754	-0.669417
H223	H	1.276319	-0.326529	-1.061262
H224	H	1.776319	0.173471	-0.561262
H225	H	1.215815	-0.252692	-1.064953
H226	H	1.715815	0.247308	-0.564953
C227	C	1.042540	-0.613558	-0.854458
C228	C	1.542540	-0.113558	-0.354458
C229	C	1.001185	-0.555627	-0.810241
C230	C	1.501185	-0.055627	-0.310241
H231	H	1.006496	-0.652705	-0.880289
H232	H	1.506496	-0.152705	-0.380289
H233	H	1.074173	-0.579189	-0.892338
H234	H	1.574173	-0.079189	-0.392338
H235	H	1.074986	-0.648080	-0.820732
H236	H	1.574986	-0.148080	-0.320732
H237	H	0.968742	-0.521100	-0.843969
H238	H	1.468742	-0.021100	-0.343969
H239	H	0.969538	-0.590000	-0.772358
H240	H	1.469538	-0.090000	-0.272358
H241	H	1.229528	-0.919203	-0.473431
H242	H	1.729528	-0.419203	0.026569
