data_functionalizedCrystal
_audit_creation_method	'MofGen! by Chris Wilmer'
_symmetry_space_group_name_H-M	'P1'
_symmetry_Int_Tables_number	1
_symmetry_cell_setting	triclinic
loop_
_symmetry_equiv_pos_as_xyz
  x,y,z
_cell_length_a	16.959455
_cell_length_b	16.120484
_cell_length_c	16.959447
_cell_angle_alpha	92.866538
_cell_angle_beta	89.985678
_cell_angle_gamma	92.922454
loop_
_atom_site_label
_atom_site_type_symbol
_atom_site_fract_x
_atom_site_fract_y
_atom_site_fract_z
Zn1	Zn	1.192394	-0.331957	-0.462851
Zn2	Zn	1.185600	-0.471386	-0.337369
Zn3	Zn	1.060221	-0.331984	-0.330690
Zn4	Zn	1.053474	-0.471323	-0.469504
O5	O	1.122922	-0.401662	-0.400103
O6	O	1.302103	-0.350468	-0.446216
O7	O	1.168949	-0.452931	-0.225874
O8	O	1.083421	-0.215315	-0.342642
O9	O	1.297112	-0.452905	-0.354025
O10	O	1.180528	-0.215296	-0.439740
O11	O	1.076833	-0.350513	-0.220967
O12	O	0.948716	-0.350452	-0.349093
O13	O	1.071921	-0.452799	-0.579231
O14	O	0.943759	-0.452824	-0.451079
O15	O	1.173985	-0.350408	-0.574343
O16	O	1.162407	-0.588043	-0.360476
O17	O	1.065334	-0.587997	-0.457556
C18	C	0.917557	-0.401635	-0.400084
C19	C	0.829700	-0.401643	-0.400095
C20	C	1.112422	-0.618270	-0.410480
C21	C	1.108003	-0.710935	-0.414945
C22	C	0.460783	-0.348314	-0.347103
C23	C	0.455662	-0.455080	-0.453153
C24	C	0.538208	-0.455068	-0.453147
C25	C	0.582046	-0.401679	-0.400118
C26	C	0.543337	-0.348302	-0.347094
C27	C	0.576923	-0.508450	-0.506165
C28	C	0.659474	-0.508441	-0.506161
C29	C	0.703314	-0.455047	-0.453135
C30	C	0.664600	-0.401667	-0.400109
C31	C	0.708437	-0.348278	-0.347080
C32	C	0.669725	-0.294893	-0.294058
C33	C	0.587176	-0.294908	-0.294068
C34	C	0.785863	-0.455032	-0.453125
C35	C	0.790991	-0.348266	-0.347071
C36	C	1.099938	-0.880596	-0.423114
C37	C	1.146048	-0.921888	-0.377106
C38	C	1.141561	-1.016293	-0.381651
C39	C	1.104424	-0.786182	-0.418570
C40	C	1.329089	-0.401691	-0.400123
C41	C	1.416945	-0.401703	-0.400132
C42	C	1.122959	-0.401593	-0.606268
C43	C	1.122974	-0.401564	-0.694124
C44	C	1.133485	-0.184209	-0.389704
C45	C	1.137986	-0.091544	-0.385272
C46	C	1.069933	-0.454787	-1.068143
C47	C	1.176213	-0.348166	-1.063048
C48	C	1.176191	-0.348183	-0.980503
C49	C	1.123040	-0.401504	-0.941774
C50	C	1.069911	-0.454808	-0.985590
C51	C	1.229324	-0.294887	-0.936681
C52	C	1.229305	-0.294903	-0.854130
C53	C	1.176150	-0.348221	-0.815400
C54	C	1.123018	-0.401525	-0.859221
C55	C	1.069867	-0.454846	-0.820492
C56	C	1.016731	-0.508148	-0.864312
C57	C	1.016755	-0.508125	-0.946860
C58	C	1.176125	-0.348243	-0.732853
C59	C	1.069845	-0.454867	-0.737940
C60	C	1.122935	-0.401671	-0.194738
C61	C	1.123084	-0.401466	-0.106872
H62	H	0.705428	-0.251427	-0.250878
H63	H	1.272602	-0.251481	-0.968220
H64	H	1.272571	-0.251501	-0.818459
N65	N	0.410885	-0.509624	-0.507306
N66	N	0.362250	-0.562722	-0.481959
H67	H	0.330622	-0.601247	-0.520207
N68	N	0.699001	-0.562975	-0.560324
N69	N	0.659850	-0.610641	-0.607664
H70	H	0.687767	-0.649156	-0.645919
N71	N	0.532134	-0.562980	-0.560321
N72	N	0.458430	-0.562976	-0.560323
H73	H	0.426793	-0.601488	-0.598574
H74	H	0.817378	-0.498500	-0.496292
N75	N	0.547620	-0.240386	-0.239917
N76	N	0.473915	-0.240409	-0.239931
H77	H	0.445975	-0.201906	-0.201686
H78	H	0.973458	-0.551565	-0.832769
N79	N	1.199780	-0.877287	-0.323398
N80	N	1.203384	-0.799549	-0.319724
H81	H	1.241324	-0.768044	-0.281788
H82	H	1.057096	-0.916143	-0.465913
N83	N	1.015539	-0.509333	-0.698395
N84	N	0.968103	-0.556912	-0.737530
H85	H	0.929748	-0.595379	-0.709602
N86	N	0.962487	-0.562560	-0.991632
N87	N	0.962518	-0.562534	-1.065334
H88	H	0.924193	-0.600979	-1.096959
N89	N	0.421233	-0.293784	-0.292954
N90	N	0.347529	-0.293794	-0.292969
H91	H	0.319594	-0.255282	-0.254727
N92	N	1.015658	-0.509219	-1.112909
N93	N	1.015676	-0.509192	-1.186612
H94	H	0.977344	-0.547635	-1.218230
N95	N	1.230384	-0.293793	-0.688091
N96	N	1.205141	-0.240671	-0.639496
H97	H	1.243462	-0.202210	-0.607883
N98	N	1.230491	-0.293704	-1.102620
N99	N	1.205268	-0.240571	-1.146151
H100	H	1.243602	-0.202104	-1.174105
N101	N	0.835756	-0.293715	-0.292904
N102	N	0.801180	-0.246056	-0.245574
H103	H	0.832794	-0.207527	-0.207319
