data_functionalizedCrystal
_audit_creation_method	'MofGen! by Chris Wilmer'
_symmetry_space_group_name_H-M	'P1'
_symmetry_Int_Tables_number	1
_symmetry_cell_setting	triclinic
loop_
_symmetry_equiv_pos_as_xyz
  x,y,z
_cell_length_a	15.995343
_cell_length_b	15.995292
_cell_length_c	16.176319
_cell_angle_alpha	89.996390
_cell_angle_beta	89.996905
_cell_angle_gamma	83.478900
loop_
_atom_site_label
_atom_site_type_symbol
_atom_site_fract_x
_atom_site_fract_y
_atom_site_fract_z
O1	O	1.110970	0.107901	-0.068658
O2	O	0.867191	0.121235	-0.068677
O3	O	0.995770	-0.007323	-0.068668
O4	O	0.982392	0.236459	-0.068666
O5	O	0.995752	-0.007331	0.068825
O6	O	0.867174	0.121227	0.068816
O7	O	1.110953	0.107892	0.068836
Cu8	Cu	0.989062	0.114559	0.081380
Cu9	Cu	0.989083	0.114569	-0.081221
O10	O	0.982374	0.236451	0.068827
C11	C	0.835988	0.120681	0.000067
C12	C	0.743037	0.119032	0.000060
C13	C	0.572852	0.116038	0.000071
C14	C	0.549525	0.023238	0.000070
C15	C	0.452848	0.021493	0.000387
C16	C	0.405292	0.113089	0.000081
C17	C	0.434364	0.159746	0.078440
C18	C	0.531156	0.160846	0.078501
C19	C	0.531087	0.162215	-0.077860
C20	C	0.434593	0.158789	-0.078885
C21	C	0.310595	0.111428	0.000089
C22	C	0.667549	0.117702	0.000068
C23	C	0.995217	-0.038523	0.000077
C24	C	0.993584	-0.131476	0.000070
C25	C	0.987583	-0.469214	0.000077
C26	C	1.080388	-0.445904	0.000392
C27	C	1.082152	-0.349229	0.000079
C28	C	0.990561	-0.301658	0.000074
C29	C	0.944173	-0.330753	-0.078442
C30	C	0.943056	-0.427544	-0.078505
C31	C	0.941141	-0.427410	0.077850
C32	C	0.944580	-0.330918	0.078885
C33	C	0.992239	-0.206962	0.000070
C34	C	0.985902	-0.563910	0.000076
C35	C	1.142156	0.108447	0.000090
C36	C	1.235107	0.110096	0.000092
C37	C	0.982927	0.267650	0.000080
C38	C	0.984560	0.360603	0.000081
N39	N	0.989053	0.114552	0.195745
N40	N	0.989098	0.114569	-0.195587
C41	C	1.046005	0.057649	0.239014
C42	C	1.046009	0.057648	0.325561
C43	C	0.989065	0.114554	0.368838
C44	C	0.932107	0.171460	0.325564
C45	C	0.932099	0.171456	0.239018
C46	C	0.932136	0.171475	0.674592
C47	C	0.932149	0.171476	0.761144
C48	C	1.046045	0.057668	0.761134
C49	C	1.046038	0.057664	0.674589
C50	C	0.989077	0.114566	0.631322
C51	C	0.989072	0.114565	0.537478
C52	C	0.989073	0.114560	0.462681
H53	H	0.402504	0.227158	0.081135
O54	O	0.586640	-0.024434	-0.074338
H55	H	0.629777	-0.079653	-0.053448
H56	H	1.115968	-0.474920	-0.055595
H57	H	0.559371	0.132940	-0.137272
H58	H	0.976401	-0.310690	-0.136870
H59	H	0.414272	0.127727	0.136976
O60	O	0.979639	-0.464833	0.156686
H61	H	1.032310	-0.513652	0.141312
O62	O	0.856023	-0.287248	0.085163
H63	H	0.825404	-0.309324	0.141423
H64	H	1.118482	-0.330208	0.056362
H65	H	0.885775	0.217818	0.796379
H66	H	0.416050	0.124812	-0.136856
O67	O	0.989313	-0.306323	0.155829
H68	H	0.956434	-0.327223	0.211253
O69	O	0.587907	-0.023644	0.074393
H70	H	0.623522	0.018863	0.111334
H71	H	0.872829	-0.441399	0.078376
H72	H	1.118711	-0.330822	-0.056298
O73	O	0.390951	0.247333	-0.085465
H74	H	0.347506	0.260211	-0.032315
H75	H	1.092379	0.011313	0.203783
H76	H	0.885758	0.217808	0.639371
O77	O	0.870674	0.232823	0.192336
H78	H	0.881325	0.298109	0.208923
H79	H	0.545715	0.228899	0.081852
O80	O	0.986041	-0.463124	-0.156020
H81	H	1.007387	-0.411167	-0.193130
H82	H	0.875011	-0.442092	-0.082066
O83	O	1.107450	-0.003709	0.372232
H84	H	1.147058	-0.043268	0.327598
O85	O	0.549609	0.252699	-0.078868
H86	H	0.584465	0.264759	-0.136183
O87	O	1.107451	-0.003717	0.627909
H88	H	1.147048	-0.043293	0.672536
H89	H	1.116152	-0.473906	0.056699
O90	O	0.854898	-0.288537	-0.082329
H91	H	0.842615	-0.246266	-0.028213
O92	O	1.107478	-0.003717	0.807799
H93	H	1.097913	0.005835	0.875250
H94	H	0.557941	0.128906	0.137298
H95	H	0.885738	0.217791	0.360805
H96	H	0.434411	-0.014866	0.056886
O97	O	0.427666	-0.026906	-0.073987
H98	H	0.484590	-0.049274	-0.110505
