data_functionalizedCrystal
_audit_creation_method	'MofGen! by Chris Wilmer'
_symmetry_space_group_name_H-M	'P1'
_symmetry_Int_Tables_number	1
_symmetry_cell_setting	triclinic
loop_
_symmetry_equiv_pos_as_xyz
  x,y,z
_cell_length_a	12.759401
_cell_length_b	21.395362
_cell_length_c	21.395355
_cell_angle_alpha	89.979451
_cell_angle_beta	89.977260
_cell_angle_gamma	90.031316
loop_
_atom_site_label
_atom_site_type_symbol
_atom_site_fract_x
_atom_site_fract_y
_atom_site_fract_z
Zn1	Zn	1.606175	-0.249486	-0.354222
Zn2	Zn	1.939508	0.083848	-0.020889
Zn3	Zn	2.272841	0.417181	0.312444
Zn4	Zn	1.606014	-0.354245	-0.249441
Zn5	Zn	1.939347	-0.020912	0.083892
Zn6	Zn	2.272681	0.312421	0.417226
Zn7	Zn	1.430468	-0.249489	-0.249462
Zn8	Zn	1.763801	0.083845	0.083871
Zn9	Zn	2.097135	0.417178	0.417204
Zn10	Zn	1.430419	-0.354232	-0.354185
Zn11	Zn	1.763752	-0.020899	-0.020851
Zn12	Zn	2.097086	0.312435	0.312482
O13	O	1.518269	-0.301863	-0.301828
O14	O	1.851602	0.031470	0.031506
O15	O	2.184936	0.364804	0.364839
O16	O	1.753174	-0.263387	-0.340330
O17	O	2.086508	0.069947	-0.006996
O18	O	2.419841	0.403280	0.326337
O19	O	1.582681	-0.340356	-0.161766
O20	O	1.916014	-0.007023	0.171567
O21	O	2.249347	0.326311	0.504901
O22	O	1.453864	-0.161810	-0.263384
O23	O	1.787197	0.171523	0.069950
O24	O	2.120530	0.504856	0.403283
O25	O	1.753056	-0.340353	-0.263347
O26	O	2.086390	-0.007020	0.069986
O27	O	2.419723	0.326313	0.403319
O28	O	1.582955	-0.161808	-0.340350
O29	O	1.916288	0.171525	-0.007017
O30	O	2.249621	0.504859	0.326316
O31	O	1.453708	-0.263392	-0.161782
O32	O	1.787041	0.069942	0.171552
O33	O	2.120374	0.403275	0.504885
O34	O	1.283441	-0.263379	-0.263347
O35	O	1.616774	0.069955	0.069986
O36	O	1.950107	0.403288	0.403320
O37	O	1.453780	-0.340330	-0.441867
O38	O	1.787114	-0.006997	-0.108534
O39	O	2.120447	0.326336	0.224799
O40	O	1.283405	-0.340333	-0.340286
O41	O	1.616738	-0.007000	-0.006953
O42	O	1.950071	0.326333	0.326381
O43	O	1.582907	-0.263374	-0.441895
O44	O	1.916241	0.069960	-0.108562
O45	O	2.249574	0.403293	0.224771
O46	O	1.582633	-0.441922	-0.263311
O47	O	1.915967	-0.108588	0.070022
O48	O	2.249300	0.224745	0.403356
O49	O	1.453624	-0.441912	-0.340265
O50	O	1.786958	-0.108578	-0.006932
O51	O	2.120291	0.224755	0.326401
C52	C	1.245302	-0.301855	-0.301815
C53	C	1.578635	0.031478	0.031518
C54	C	1.911968	0.364811	0.364852
C55	C	1.128525	-0.301867	-0.301825
C56	C	1.461858	0.031466	0.031509
C57	C	1.795192	0.364800	0.364842
C58	C	1.073672	-0.341998	-0.341824
C59	C	1.407005	-0.008665	-0.008490
C60	C	1.740339	0.324668	0.324843
C61	C	0.963948	-0.342001	-0.341836
C62	C	1.297281	-0.008667	-0.008503
C63	C	1.630614	0.324666	0.324831
C64	C	0.963940	-0.261739	-0.261845
C65	C	1.297273	0.071594	0.071488
C66	C	1.630606	0.404928	0.404822
C67	C	1.073662	-0.261734	-0.261836
C68	C	1.406995	0.071600	0.071497
C69	C	1.740328	0.404933	0.404830
C70	C	1.518135	-0.464651	-0.301795
C71	C	1.851468	-0.131317	0.031538
C72	C	2.184801	0.202016	0.364871
C73	C	1.518173	-0.534292	-0.301803
C74	C	1.851507	-0.200958	0.031531
C75	C	2.184840	0.132375	0.364864
C76	C	1.585352	-0.566947	-0.341908
C77	C	1.918686	-0.233614	-0.008574
C78	C	2.252019	0.099720	0.324759
C79	C	1.585389	-0.632382	-0.341923
C80	C	1.918723	-0.299049	-0.008590
C81	C	2.252056	0.034284	0.324744
C82	C	1.518258	-0.665160	-0.301822
C83	C	1.851592	-0.331827	0.031511
C84	C	2.184925	0.001507	0.364845
C85	C	1.451066	-0.632497	-0.261714
C86	C	1.784399	-0.299164	0.071619
C87	C	2.117733	0.034170	0.404953
C88	C	1.451024	-0.567063	-0.261704
C89	C	1.784357	-0.233730	0.071629
C90	C	2.117690	0.099604	0.404962
C91	C	1.510080	-0.768861	-0.245383
C92	C	1.843414	-0.435527	0.087950
C93	C	2.176747	-0.102194	0.421283
C94	C	1.510130	-0.834293	-0.245392
C95	C	1.843463	-0.500960	0.087941
C96	C	2.176797	-0.167627	0.421275
C97	C	1.518383	-0.866981	-0.301852
C98	C	1.851716	-0.533647	0.031481
C99	C	2.185050	-0.200314	0.364814
C100	C	1.526608	-0.834227	-0.358306
C101	C	1.859941	-0.500894	-0.024972
C102	C	2.193275	-0.167560	0.308361
C103	C	1.526566	-0.768793	-0.358296
C104	C	1.859899	-0.435460	-0.024963
C105	C	2.193232	-0.102126	0.308371
C106	C	1.518296	-0.736112	-0.301828
C107	C	1.851630	-0.402779	0.031505
C108	C	2.184963	-0.069446	0.364838
C109	C	1.585606	-0.970588	-0.341977
C110	C	1.918939	-0.637255	-0.008644
C111	C	2.252272	-0.303922	0.324689
C112	C	1.585635	-1.036025	-0.341994
C113	C	1.918969	-0.702692	-0.008660
C114	C	2.252302	-0.369358	0.324673
C115	C	1.451317	-1.036139	-0.261779
C116	C	1.784651	-0.702805	0.071554
C117	C	2.117984	-0.369472	0.404887
C118	C	1.451282	-0.970703	-0.261769
C119	C	1.784616	-0.637370	0.071565
C120	C	2.117949	-0.304037	0.404898
C121	C	1.518432	-0.937932	-0.301867
C122	C	1.851765	-0.604599	0.031467
C123	C	2.185099	-0.271265	0.364800
C124	C	1.792302	-0.301871	-0.301840
C125	C	2.125636	0.031462	0.031493
C126	C	2.458969	0.364796	0.364826
C127	C	1.909079	-0.301875	-0.301846
C128	C	2.242412	0.031459	0.031487
C129	C	2.575746	0.364792	0.364821
C130	C	1.518356	-0.301850	-0.465251
C131	C	1.851690	0.031483	-0.131918
C132	C	2.185023	0.364816	0.201416
C133	C	1.518393	-0.301845	-0.534892
C134	C	1.851727	0.031488	-0.201559
C135	C	2.185060	0.364822	0.131774
C136	C	1.518432	-0.138440	-0.301874
C137	C	1.851766	0.194894	0.031460
C138	C	2.185099	0.528227	0.364793
C139	C	1.518502	-0.068798	-0.301893
C140	C	1.851835	0.264535	0.031440
C141	C	2.185169	0.597868	0.364774
C142	C	1.585627	-0.261772	-0.567621
C143	C	1.918960	0.071562	-0.234287
C144	C	2.252294	0.404895	0.099046
C145	C	1.585625	-0.261745	-0.633056
C146	C	1.918959	0.071589	-0.299723
C147	C	2.252292	0.404922	0.033610
C148	C	1.518402	-0.301802	-0.665761
C149	C	1.851735	0.031531	-0.332427
C150	C	2.185068	0.364865	0.000906
C151	C	1.451155	-0.341878	-0.633024
C152	C	1.784488	-0.008545	-0.299691
C153	C	2.117822	0.324789	0.033643
C154	C	1.451151	-0.341899	-0.567590
C155	C	1.784484	-0.008566	-0.234257
C156	C	2.117818	0.324767	0.099077
C157	C	1.510059	-0.358218	-0.769424
C158	C	1.843393	-0.024884	-0.436091
C159	C	2.176726	0.308449	-0.102758
C160	C	1.510071	-0.358197	-0.834857
C161	C	1.843404	-0.024864	-0.501524
C162	C	2.176737	0.308469	-0.168191
C163	C	1.518408	-0.301736	-0.867581
C164	C	1.851741	0.031597	-0.534248
C165	C	2.185075	0.364931	-0.200915
C166	C	1.526756	-0.245293	-0.834865
C167	C	1.860089	0.088040	-0.501531
C168	C	2.193423	0.421374	-0.168198
C169	C	1.526752	-0.245314	-0.769430
C170	C	1.860085	0.088019	-0.436097
C171	C	2.193419	0.421352	-0.102764
C172	C	1.518398	-0.301783	-0.736713
C173	C	1.851731	0.031550	-0.403380
C174	C	2.185065	0.364884	-0.070046
C175	C	1.585644	-0.261630	-0.971263
C176	C	1.918977	0.071703	-0.637929
C177	C	2.252310	0.405036	-0.304596
C178	C	1.585635	-0.261602	-1.036699
C179	C	1.918968	0.071731	-0.703366
C180	C	2.252302	0.405064	-0.370033
C181	C	1.451170	-0.341741	-1.036666
C182	C	1.784503	-0.008408	-0.703333
C183	C	2.117837	0.324926	-0.369999
C184	C	1.451173	-0.341763	-0.971231
C185	C	1.784507	-0.008430	-0.637897
C186	C	2.117840	0.324903	-0.304564
C187	C	1.518416	-0.301709	-0.938533
C188	C	1.851749	0.031624	-0.605199
C189	C	2.185082	0.364958	-0.271866
C190	C	1.518243	-0.301830	-0.139040
C191	C	1.851576	0.031503	0.194293
C192	C	2.184909	0.364836	0.527627
C193	C	1.518409	-0.301659	-0.069399
C194	C	1.851742	0.031674	0.263934
C195	C	2.185076	0.365007	0.597268
H196	H	0.919257	-0.229065	-0.229287
H197	H	1.252590	0.104269	0.104046
H198	H	1.585923	0.437602	0.437380
H199	H	1.640391	-0.229012	-0.944639
H200	H	1.973724	0.104321	-0.611305
H201	H	2.307057	0.437655	-0.277972
H202	H	1.396418	-0.374491	-0.659656
H203	H	1.729751	-0.041158	-0.326323
H204	H	2.063084	0.292176	0.007010
H205	H	1.396651	-1.062826	-0.229132
H206	H	1.729985	-0.729492	0.104201
H207	H	2.063318	-0.396159	0.437535
H208	H	1.396431	-0.374399	-0.944583
H209	H	1.729764	-0.041066	-0.611249
H210	H	2.063097	0.292268	-0.277916
C211	C	1.134004	-0.217588	-0.217834
C212	C	1.467338	0.115745	0.115499
C213	C	1.800671	0.449078	0.448832
H214	H	1.085617	-0.193693	-0.194014
H215	H	1.418950	0.139640	0.139320
H216	H	1.752284	0.472973	0.472653
H217	H	1.176850	-0.190324	-0.241850
H218	H	1.510184	0.143009	0.091484
H219	H	1.843517	0.476343	0.424817
H220	H	1.176763	-0.241518	-0.190485
H221	H	1.510096	0.091816	0.142848
H222	H	1.843430	0.425149	0.476181
H223	H	1.533546	-0.199357	-0.742795
H224	H	1.866880	0.133977	-0.409462
H225	H	2.200213	0.467310	-0.076128
C226	C	1.134023	-0.386141	-0.385808
C227	C	1.467356	-0.052807	-0.052475
C228	C	1.800690	0.280526	0.280858
H229	H	1.207226	-0.380397	-0.380071
H230	H	1.540560	-0.047063	-0.046737
H231	H	1.873893	0.286270	0.286596
H232	H	1.116089	-0.377038	-0.427925
H233	H	1.449422	-0.043705	-0.094592
H234	H	1.782756	0.289629	0.238741
H235	H	1.115995	-0.428226	-0.376555
H236	H	1.449328	-0.094893	-0.043222
H237	H	1.782662	0.238440	0.290111
H238	H	1.533547	-0.199317	-0.861507
H239	H	1.866880	0.134016	-0.528174
H240	H	2.200213	0.467350	-0.194840
C241	C	1.501083	-0.870317	-0.183297
C242	C	1.834416	-0.536983	0.150036
C243	C	2.167749	-0.203650	0.483369
H244	H	1.496142	-0.841479	-0.149671
H245	H	1.829475	-0.508146	0.183662
H246	H	2.162808	-0.174812	0.516995
H247	H	1.561314	-0.895811	-0.177821
H248	H	1.894647	-0.562478	0.155512
H249	H	2.227981	-0.229145	0.488846
H250	H	1.440192	-0.895876	-0.184088
H251	H	1.773525	-0.562542	0.149245
H252	H	2.106858	-0.229209	0.482579
H253	H	1.640086	-0.658975	-0.374589
H254	H	1.973419	-0.325642	-0.041255
H255	H	2.306753	0.007691	0.292078
C256	C	1.377197	-0.385983	-0.531584
C257	C	1.710531	-0.052650	-0.198251
C258	C	2.043864	0.280684	0.135083
H259	H	1.386821	-0.380257	-0.487931
H260	H	1.720154	-0.046923	-0.154597
H261	H	2.053488	0.286410	0.178736
H262	H	1.392527	-0.428078	-0.542311
H263	H	1.725860	-0.094744	-0.208978
H264	H	2.059193	0.238589	0.124356
H265	H	1.306612	-0.376802	-0.542290
H266	H	1.639946	-0.043469	-0.208957
H267	H	1.973279	0.289865	0.124376
C268	C	1.659213	-0.530902	-0.386014
C269	C	1.992547	-0.197569	-0.052681
C270	C	2.325880	0.135765	0.280652
H271	H	1.699225	-0.559726	-0.409904
H272	H	2.032558	-0.226393	-0.076571
H273	H	2.365891	0.106941	0.256763
H274	H	1.704990	-0.505363	-0.362065
H275	H	2.038323	-0.172030	-0.028731
H276	H	2.371656	0.161303	0.304602
H277	H	1.618986	-0.505385	-0.413295
H278	H	1.952319	-0.172052	-0.079961
H279	H	2.285652	0.161282	0.253372
H280	H	1.503280	-0.404156	-0.861490
H281	H	1.836613	-0.070823	-0.528157
H282	H	2.169946	0.262510	-0.194824
H283	H	1.502989	-0.404183	-0.742786
H284	H	1.836322	-0.070850	-0.409452
H285	H	2.169656	0.262483	-0.076119
C286	C	1.535600	-0.732766	-0.420389
C287	C	1.868933	-0.399433	-0.087056
C288	C	2.202266	-0.066099	0.246278
H289	H	1.540514	-0.761601	-0.454019
H290	H	1.873848	-0.428267	-0.120686
H291	H	2.207181	-0.094934	0.212648
H292	H	1.596481	-0.707205	-0.419605
H293	H	1.929815	-0.373871	-0.086272
H294	H	2.263148	-0.040538	0.247062
H295	H	1.475357	-0.707273	-0.425856
H296	H	1.808690	-0.373940	-0.092522
H297	H	2.142023	-0.040607	0.240811
H298	H	1.533330	-0.860840	-0.404281
H299	H	1.866664	-0.527506	-0.070948
H300	H	2.199997	-0.194173	0.262386
C301	C	0.903614	-0.386144	-0.385837
C302	C	1.236947	-0.052810	-0.052503
C303	C	1.570280	0.280523	0.280830
H304	H	0.952006	-0.410045	-0.409647
H305	H	1.285339	-0.076712	-0.076314
H306	H	1.618673	0.256622	0.257020
H307	H	0.860859	-0.362218	-0.413185
H308	H	1.194192	-0.028884	-0.079852
H309	H	1.527525	0.304449	0.253482
H310	H	0.860765	-0.413412	-0.361821
H311	H	1.194098	-0.080078	-0.028487
H312	H	1.527432	0.253255	0.304846
C313	C	1.659433	-0.934538	-0.386102
C314	C	1.992767	-0.601204	-0.052768
C315	C	2.326100	-0.267871	0.280565
H316	H	1.699432	-0.963360	-0.410001
H317	H	2.032765	-0.630027	-0.076668
H318	H	2.366098	-0.296694	0.256666
H319	H	1.705224	-0.908993	-0.362168
H320	H	2.038557	-0.575659	-0.028835
H321	H	2.371890	-0.242326	0.304498
H322	H	1.619176	-0.909027	-0.413372
H323	H	1.952509	-0.575693	-0.080039
H324	H	2.285843	-0.242360	0.253294
C325	C	1.659596	-0.217520	-1.072701
C326	C	1.992930	0.115813	-0.739368
C327	C	2.326263	0.449147	-0.406034
H328	H	1.699647	-0.193674	-1.043853
H329	H	2.032980	0.139659	-0.710520
H330	H	2.366313	0.472992	-0.377186
H331	H	1.619442	-0.190207	-1.098218
H332	H	1.952775	0.143126	-0.764885
H333	H	2.286108	0.476459	-0.431552
H334	H	1.705349	-0.241487	-1.098236
H335	H	2.038682	0.091846	-0.764903
H336	H	2.372015	0.425179	-0.431569
C337	C	1.659537	-1.071946	-0.386112
C338	C	1.992870	-0.738613	-0.052778
C339	C	2.326203	-0.405279	0.280555
H340	H	1.699526	-1.043054	-0.409985
H341	H	2.032859	-0.709721	-0.076652
H342	H	2.366193	-0.376388	0.256682
H343	H	1.619346	-1.097479	-0.413397
H344	H	1.952680	-0.764146	-0.080064
H345	H	2.286013	-0.430813	0.253270
H346	H	1.705348	-1.097459	-0.362166
H347	H	2.038681	-0.764126	-0.028832
H348	H	2.372015	-0.430792	0.304501
C349	C	1.377232	-0.385808	-1.072633
C350	C	1.710565	-0.052474	-0.739299
C351	C	2.043898	0.280859	-0.405966
H352	H	1.386868	-0.380060	-1.116291
H353	H	1.720201	-0.046726	-0.782958
H354	H	2.053535	0.286607	-0.449624
H355	H	1.306647	-0.376645	-1.061895
H356	H	1.639981	-0.043312	-0.728562
H357	H	1.973314	0.290022	-0.395229
H358	H	1.392580	-0.427910	-1.061909
H359	H	1.725913	-0.094577	-0.728576
H360	H	2.059247	0.238757	-0.395243
C361	C	1.377392	-0.934778	-0.217650
C362	C	1.710726	-0.601445	0.115683
C363	C	2.044059	-0.268111	0.449017
H364	H	1.386975	-0.891114	-0.223391
H365	H	1.720308	-0.557780	0.109942
H366	H	2.053641	-0.224447	0.443276
H367	H	1.392805	-0.945513	-0.175562
H368	H	1.726138	-0.612180	0.157772
H369	H	2.059471	-0.278847	0.491105
H370	H	1.306798	-0.945537	-0.226790
H371	H	1.640131	-0.612204	0.106543
H372	H	1.973465	-0.278870	0.439877
C373	C	1.501001	-0.732911	-0.183273
C374	C	1.834334	-0.399577	0.150060
C375	C	2.167668	-0.066244	0.483393
H376	H	1.496124	-0.761787	-0.149654
H377	H	1.829457	-0.428454	0.183679
H378	H	2.162791	-0.095121	0.517012
H379	H	1.440084	-0.707418	-0.184049
H380	H	1.773418	-0.374084	0.149284
H381	H	2.106751	-0.040751	0.482617
H382	H	1.561209	-0.707355	-0.177796
H383	H	1.894542	-0.374022	0.155538
H384	H	2.227875	-0.040689	0.488871
H385	H	1.396405	-0.659189	-0.229065
H386	H	1.729738	-0.325856	0.104268
H387	H	2.063072	0.007478	0.437602
C388	C	1.377130	-0.531141	-0.217583
C389	C	1.710463	-0.197808	0.115750
C390	C	2.043797	0.135526	0.449084
H391	H	1.337156	-0.560031	-0.193699
H392	H	1.670489	-0.226698	0.139634
H393	H	2.003823	0.106635	0.472967
H394	H	1.331320	-0.505625	-0.241520
H395	H	1.664654	-0.172291	0.091813
H396	H	1.997987	0.161042	0.425146
H397	H	1.417336	-0.505610	-0.190298
H398	H	1.750670	-0.172277	0.143036
H399	H	2.084003	0.161056	0.476369
H400	H	1.640380	-0.229155	-0.541002
H401	H	1.973713	0.104178	-0.207669
H402	H	2.307046	0.437511	0.125664
H403	H	1.640373	-0.229109	-0.659709
H404	H	1.973706	0.104224	-0.326376
H405	H	2.307039	0.437558	0.006958
