data_functionalizedCrystal
_audit_creation_method	'MofGen! by Chris Wilmer'
_symmetry_space_group_name_H-M	'P1'
_symmetry_Int_Tables_number	1
_symmetry_cell_setting	triclinic
loop_
_symmetry_equiv_pos_as_xyz
  x,y,z
_cell_length_a	21.395362
_cell_length_b	21.395362
_cell_length_c	21.395356
_cell_angle_alpha	89.970281
_cell_angle_beta	89.957023
_cell_angle_gamma	90.045668
loop_
_atom_site_label
_atom_site_type_symbol
_atom_site_fract_x
_atom_site_fract_y
_atom_site_fract_z
Zn1	Zn	0.957858	-0.249189	-0.354577
Zn2	Zn	1.291191	0.084145	-0.021243
Zn3	Zn	1.624524	0.417478	0.312090
Zn4	Zn	0.957763	-0.353965	-0.249796
Zn5	Zn	1.291097	-0.020632	0.083538
Zn6	Zn	1.624430	0.312701	0.416871
Zn7	Zn	0.853074	-0.249235	-0.249778
Zn8	Zn	1.186408	0.084099	0.083555
Zn9	Zn	1.519741	0.417432	0.416889
Zn10	Zn	0.853043	-0.353962	-0.354500
Zn11	Zn	1.186377	-0.020628	-0.021167
Zn12	Zn	1.519710	0.312705	0.312166
O13	O	0.905435	-0.301588	-0.302163
O14	O	1.238768	0.031746	0.031171
O15	O	1.572101	0.365079	0.364504
O16	O	1.045523	-0.263070	-0.340717
O17	O	1.378856	0.070263	-0.007383
O18	O	1.712190	0.403597	0.325950
O19	O	0.943850	-0.340094	-0.162115
O20	O	1.277183	-0.006760	0.171218
O21	O	1.610516	0.326573	0.504551
O22	O	0.867026	-0.161551	-0.263704
O23	O	1.200360	0.171783	0.069629
O24	O	1.533693	0.505116	0.402962
O25	O	1.045454	-0.340049	-0.263734
O26	O	1.378787	-0.006716	0.069599
O27	O	1.712121	0.326618	0.402932
O28	O	0.944010	-0.161517	-0.340700
O29	O	1.277343	0.171816	-0.007366
O30	O	1.610677	0.505150	0.325967
O31	O	0.866935	-0.263148	-0.162102
O32	O	1.200268	0.070185	0.171231
O33	O	1.533602	0.403518	0.504564
O34	O	0.765392	-0.263145	-0.263630
O35	O	1.098726	0.070189	0.069703
O36	O	1.432059	0.403522	0.403036
O37	O	0.866974	-0.340042	-0.442188
O38	O	1.200307	-0.006709	-0.108855
O39	O	1.533640	0.326624	0.224478
O40	O	0.765370	-0.340087	-0.340569
O41	O	1.098703	-0.006754	-0.007236
O42	O	1.432036	0.326580	0.326097
O43	O	0.943980	-0.263066	-0.442245
O44	O	1.277314	0.070267	-0.108911
O45	O	1.610647	0.403600	0.224422
O46	O	0.943820	-0.441643	-0.263660
O47	O	1.277153	-0.108310	0.069673
O48	O	1.610486	0.225024	0.403006
O49	O	0.866882	-0.441640	-0.340586
O50	O	1.200216	-0.108307	-0.007253
O51	O	1.533549	0.225027	0.326080
C52	C	0.742647	-0.301621	-0.302090
C53	C	1.075980	0.031713	0.031243
C54	C	1.409314	0.365046	0.364577
C55	C	0.673006	-0.301650	-0.302074
C56	C	1.006339	0.031683	0.031260
C57	C	1.339672	0.365017	0.364593
C58	C	0.640297	-0.341767	-0.342076
C59	C	0.973630	-0.008434	-0.008743
C60	C	1.306964	0.324900	0.324591
C61	C	0.574862	-0.341752	-0.342104
C62	C	0.908195	-0.008418	-0.008770
C63	C	1.241528	0.324915	0.324563
C64	C	0.542137	-0.301626	-0.302118
C65	C	0.875471	0.031707	0.031215
C66	C	1.208804	0.365041	0.364548
C67	C	0.574854	-0.261501	-0.262113
C68	C	0.908187	0.071832	0.071220
C69	C	1.241521	0.405166	0.404553
C70	C	0.640288	-0.261513	-0.262091
C71	C	0.973621	0.071820	0.071242
C72	C	1.306955	0.405153	0.404576
C73	C	0.438414	-0.296587	-0.245713
C74	C	0.771747	0.036746	0.087620
C75	C	1.105080	0.370079	0.420953
C76	C	0.372981	-0.296580	-0.245735
C77	C	0.706314	0.036754	0.087599
C78	C	1.039647	0.370087	0.420932
C79	C	0.340317	-0.301585	-0.302188
C80	C	0.673650	0.031748	0.031146
C81	C	1.006983	0.365082	0.364479
C82	C	0.373094	-0.306611	-0.358621
C83	C	0.706427	0.026722	-0.025288
C84	C	1.039761	0.360056	0.308046
C85	C	0.438528	-0.306623	-0.358599
C86	C	0.771861	0.026710	-0.025265
C87	C	1.105195	0.360044	0.308068
C88	C	0.471185	-0.301608	-0.302138
C89	C	0.804518	0.031725	0.031195
C90	C	1.137852	0.365059	0.364528
C91	C	0.236656	-0.341687	-0.342223
C92	C	0.569989	-0.008354	-0.008890
C93	C	0.903322	0.324979	0.324443
C94	C	0.171219	-0.341668	-0.342252
C95	C	0.504552	-0.008334	-0.008919
C96	C	0.837886	0.324999	0.324414
C97	C	0.171212	-0.261420	-0.262256
C98	C	0.504546	0.071913	0.071077
C99	C	0.837879	0.405246	0.404410
C100	C	0.236648	-0.261437	-0.262233
C101	C	0.569981	0.071896	0.071100
C102	C	0.903314	0.405230	0.404434
C103	C	0.269365	-0.301574	-0.302216
C104	C	0.602699	0.031760	0.031118
C105	C	0.936032	0.365093	0.364451
C106	C	0.905355	-0.464375	-0.302130
C107	C	1.238688	-0.131042	0.031203
C108	C	1.572021	0.202291	0.364536
C109	C	0.905378	-0.534017	-0.302138
C110	C	1.238711	-0.200683	0.031196
C111	C	1.572044	0.132650	0.364529
C112	C	0.945440	-0.566655	-0.342258
C113	C	1.278773	-0.233322	-0.008924
C114	C	1.612107	0.100011	0.324409
C115	C	0.945462	-0.632091	-0.342273
C116	C	1.278795	-0.298757	-0.008940
C117	C	1.612129	0.034576	0.324394
C118	C	0.905428	-0.664885	-0.302157
C119	C	1.238762	-0.331551	0.031176
C120	C	1.572095	0.001782	0.364510
C121	C	0.865358	-0.632238	-0.262034
C122	C	1.198691	-0.298905	0.071299
C123	C	1.532025	0.034428	0.404632
C124	C	0.865333	-0.566804	-0.262025
C125	C	1.198666	-0.233471	0.071309
C126	C	1.531999	0.099863	0.404642
C127	C	0.900552	-0.768596	-0.245717
C128	C	1.233885	-0.435262	0.087617
C129	C	1.567219	-0.101929	0.420950
C130	C	0.900582	-0.834028	-0.245725
C131	C	1.233915	-0.500695	0.087608
C132	C	1.567248	-0.167362	0.420941
C133	C	0.905503	-0.866706	-0.302187
C134	C	1.238836	-0.533372	0.031146
C135	C	1.572169	-0.200039	0.364479
C136	C	0.910407	-0.833942	-0.358643
C137	C	1.243740	-0.500608	-0.025309
C138	C	1.577074	-0.167275	0.308024
C139	C	0.910382	-0.768507	-0.358633
C140	C	1.243715	-0.435174	-0.025300
C141	C	1.577048	-0.101841	0.308034
C142	C	0.905451	-0.735837	-0.302163
C143	C	1.238784	-0.402504	0.031170
C144	C	1.572118	-0.069171	0.364503
C145	C	0.945591	-0.970297	-0.342327
C146	C	1.278924	-0.636963	-0.008994
C147	C	1.612258	-0.303630	0.324339
C148	C	0.945609	-1.035733	-0.342344
C149	C	1.278942	-0.702400	-0.009010
C150	C	1.612275	-0.369067	0.324323
C151	C	0.865508	-1.035880	-0.262100
C152	C	1.198841	-0.702546	0.071234
C153	C	1.532175	-0.369213	0.404567
C154	C	0.865487	-0.970444	-0.262089
C155	C	1.198820	-0.637111	0.071245
C156	C	1.532154	-0.303778	0.404578
C157	C	0.905532	-0.937657	-0.302202
C158	C	1.238865	-0.604323	0.031131
C159	C	1.572199	-0.270990	0.364465
C160	C	1.068858	-0.301555	-0.302236
C161	C	1.402191	0.031779	0.031097
C162	C	1.735525	0.365112	0.364431
C163	C	1.138499	-0.301541	-0.302267
C164	C	1.471833	0.031793	0.031066
C165	C	1.805166	0.365126	0.364399
C166	C	0.905484	-0.301549	-0.465586
C167	C	1.238817	0.031785	-0.132253
C168	C	1.572151	0.365118	0.201081
C169	C	0.905505	-0.301532	-0.535227
C170	C	1.238838	0.031801	-0.201894
C171	C	1.572172	0.365134	0.131439
C172	C	0.905532	-0.138164	-0.302209
C173	C	1.238865	0.195169	0.031125
C174	C	1.572199	0.528502	0.364458
C175	C	0.905574	-0.068523	-0.302228
C176	C	1.238907	0.264810	0.031105
C177	C	1.572240	0.598144	0.364438
C178	C	0.865466	-0.261462	-0.567924
C179	C	1.198800	0.071871	-0.234591
C180	C	1.532133	0.405204	0.098743
C181	C	0.865464	-0.261451	-0.633359
C182	C	1.198797	0.071883	-0.300026
C183	C	1.532131	0.405216	0.033307
C184	C	0.905512	-0.301502	-0.666096
C185	C	1.238845	0.031831	-0.332762
C186	C	1.572179	0.365164	0.000571
C187	C	0.945553	-0.341580	-0.633391
C188	C	1.278887	-0.008247	-0.300058
C189	C	1.612220	0.325087	0.033275
C190	C	0.945550	-0.341595	-0.567957
C191	C	1.278883	-0.008262	-0.234624
C192	C	1.612217	0.325072	0.098710
C193	C	0.961964	-0.306413	-0.769801
C194	C	1.295297	0.026921	-0.436468
C195	C	1.628631	0.360254	-0.103134
C196	C	0.961968	-0.306393	-0.835234
C197	C	1.295302	0.026940	-0.501901
C198	C	1.628635	0.360273	-0.168567
C199	C	0.905522	-0.301460	-0.867917
C200	C	1.238856	0.031873	-0.534583
C201	C	1.572189	0.365207	-0.201250
C202	C	0.849070	-0.296533	-0.835158
C203	C	1.182403	0.036800	-0.501825
C204	C	1.515736	0.370134	-0.168491
C205	C	0.849066	-0.296548	-0.769724
C206	C	1.182400	0.036785	-0.436391
C207	C	1.515733	0.370119	-0.103057
C208	C	0.905520	-0.301491	-0.737048
C209	C	1.238853	0.031842	-0.403715
C210	C	1.572186	0.365176	-0.070381
C211	C	0.865478	-0.261376	-0.971566
C212	C	1.198811	0.071958	-0.638232
C213	C	1.532144	0.405291	-0.304899
C214	C	0.865475	-0.261368	-1.037002
C215	C	1.198808	0.071965	-0.703669
C216	C	1.532141	0.405298	-0.370336
C217	C	0.945570	-0.341494	-1.037033
C218	C	1.278903	-0.008161	-0.703700
C219	C	1.612236	0.325172	-0.370366
C220	C	0.945567	-0.341505	-0.971598
C221	C	1.278900	-0.008172	-0.638264
C222	C	1.612234	0.325162	-0.304931
C223	C	0.905522	-0.301442	-0.938868
C224	C	1.238855	0.031891	-0.605535
C225	C	1.572189	0.365225	-0.272201
C226	C	0.905422	-0.301581	-0.139375
C227	C	1.238755	0.031752	0.193958
C228	C	1.572088	0.365086	0.527292
C229	C	0.905522	-0.301421	-0.069734
C230	C	1.238855	0.031912	0.263599
C231	C	1.572189	0.365246	0.596932
H232	H	0.465212	-0.310714	-0.404549
H233	H	0.798546	0.022620	-0.071215
H234	H	1.131879	0.355953	0.262118
H235	H	0.144589	-0.374335	-0.374831
H236	H	0.477922	-0.041001	-0.041497
H237	H	0.811256	0.292332	0.291836
H238	H	0.144569	-0.228746	-0.229702
H239	H	0.477902	0.104587	0.103631
H240	H	0.811236	0.437920	0.436964
C241	C	0.272629	-0.217316	-0.218222
C242	C	0.605962	0.116018	0.115111
C243	C	0.939296	0.449351	0.448444
H244	H	0.243770	-0.193419	-0.194408
H245	H	0.577103	0.139914	0.138926
H246	H	0.910436	0.473247	0.472259
H247	H	0.298210	-0.190052	-0.242228
H248	H	0.631544	0.143281	0.091105
H249	H	0.964877	0.476615	0.424439
H250	H	0.298099	-0.241259	-0.190868
H251	H	0.631432	0.092074	0.142465
H252	H	0.964765	0.425408	0.475798
C253	C	1.024062	-0.311811	-0.871262
C254	C	1.357396	0.021522	-0.537929
C255	C	1.690729	0.354855	-0.204596
H256	H	1.057678	-0.314763	-0.842428
H257	H	1.391012	0.018570	-0.509094
H258	H	1.724345	0.351904	-0.175761
H259	H	1.029597	-0.275897	-0.896801
H260	H	1.362930	0.057437	-0.563468
H261	H	1.696263	0.390770	-0.230135
H262	H	1.023224	-0.348128	-0.896777
H263	H	1.356558	-0.014795	-0.563444
H264	H	1.689891	0.318539	-0.230111
H265	H	0.832908	-1.062580	-0.229440
H266	H	1.166241	-0.729247	0.103893
H267	H	1.499574	-0.395913	0.437226
C268	C	0.989481	-0.530589	-0.386384
C269	C	1.322815	-0.197256	-0.053051
C270	C	1.656148	0.136077	0.280282
H271	H	0.983733	-0.486944	-0.380631
H272	H	1.317066	-0.153610	-0.047298
H273	H	1.650399	0.179723	0.286036
H274	H	0.980296	-0.541298	-0.428471
H275	H	1.313629	-0.207964	-0.095138
H276	H	1.646963	0.125369	0.238195
H277	H	1.031590	-0.541269	-0.377264
H278	H	1.364923	-0.207935	-0.043931
H279	H	1.698256	0.125398	0.289403
C280	C	0.915769	-0.732466	-0.420726
C281	C	1.249103	-0.399133	-0.087393
C282	C	1.582436	-0.065800	0.245940
H283	H	0.915053	-0.688817	-0.412631
H284	H	1.248387	-0.355484	-0.079297
H285	H	1.581720	-0.022151	0.254036
H286	H	0.881677	-0.743211	-0.447041
H287	H	1.215010	-0.409878	-0.113707
H288	H	1.548344	-0.076545	0.219626
H289	H	0.953911	-0.743129	-0.440811
H290	H	1.287244	-0.409795	-0.107477
H291	H	1.620577	-0.076462	0.225856
C292	C	0.989680	-1.071639	-0.386476
C293	C	1.323013	-0.738306	-0.053143
C294	C	1.656346	-0.404972	0.280191
H295	H	0.983956	-1.115306	-0.380743
H296	H	1.317289	-0.781972	-0.047409
H297	H	1.650622	-0.448639	0.285924
H298	H	1.031777	-1.060873	-0.377353
H299	H	1.365110	-0.727540	-0.044020
H300	H	1.698443	-0.394206	0.289313
H301	H	0.980486	-1.060897	-0.428564
H302	H	1.313819	-0.727563	-0.095230
H303	H	1.647152	-0.394230	0.238103
H304	H	0.346299	-0.292491	-0.199783
H305	H	0.679632	0.040842	0.133550
H306	H	1.012965	0.374176	0.466884
H307	H	0.346500	-0.310686	-0.404591
H308	H	0.679834	0.022648	-0.071257
H309	H	1.013167	0.355981	0.262076
H310	H	0.263296	-0.374366	-0.374783
H311	H	0.596629	-0.041033	-0.041449
H312	H	0.929963	0.292301	0.291884
C313	C	0.538860	-0.217364	-0.218131
C314	C	0.872193	0.115969	0.115203
C315	C	1.205527	0.449303	0.448536
H316	H	0.495205	-0.223106	-0.223869
H317	H	0.828538	0.110227	0.109465
H318	H	1.161871	0.443560	0.442798
H319	H	0.549634	-0.175281	-0.227374
H320	H	0.882967	0.158053	0.105959
H321	H	1.216301	0.491386	0.439292
H322	H	0.549530	-0.226483	-0.176010
H323	H	0.882863	0.106850	0.157323
H324	H	1.216196	0.440184	0.490656
H325	H	0.832761	-0.658944	-0.229373
H326	H	1.166094	-0.325610	0.103960
H327	H	1.499427	0.007723	0.437293
C328	C	0.895180	-0.870066	-0.183631
C329	C	1.228513	-0.536732	0.149702
C330	C	1.561847	-0.203399	0.483036
H331	H	0.895905	-0.913715	-0.191722
H332	H	1.229239	-0.580382	0.141611
H333	H	1.562572	-0.247049	0.474945
H334	H	0.857039	-0.859399	-0.163555
H335	H	1.190373	-0.526066	0.169778
H336	H	1.523706	-0.192732	0.503111
H337	H	0.929272	-0.859321	-0.157310
H338	H	1.262605	-0.525987	0.176024
H339	H	1.595938	-0.192654	0.509357
H340	H	0.832861	-0.228818	-0.659986
H341	H	1.166194	0.104515	-0.326653
H342	H	1.499527	0.437849	0.006681
C343	C	0.676272	-0.217386	-0.218086
C344	C	1.009605	0.115947	0.115247
C345	C	1.342938	0.449281	0.448581
H346	H	0.719928	-0.223139	-0.223802
H347	H	1.053261	0.110195	0.109532
H348	H	1.386595	0.443528	0.442865
H349	H	0.665492	-0.226495	-0.175975
H350	H	0.998826	0.106839	0.157358
H351	H	1.332159	0.440172	0.490692
H352	H	0.665602	-0.175296	-0.227343
H353	H	0.998935	0.158037	0.105990
H354	H	1.332268	0.491371	0.439324
C355	C	0.989620	-0.385554	-1.073032
C356	C	1.322954	-0.052221	-0.739699
C357	C	1.656287	0.281112	-0.406365
H358	H	1.013465	-0.409423	-1.044184
H359	H	1.346798	-0.076090	-0.710851
H360	H	1.680131	0.257243	-0.377518
H361	H	1.016935	-0.361579	-1.098587
H362	H	1.350269	-0.028246	-0.765254
H363	H	1.683602	0.305088	-0.431920
H364	H	0.965631	-0.412855	-1.098530
H365	H	1.298965	-0.079522	-0.765196
H366	H	1.632298	0.253811	-0.431863
H367	H	0.465003	-0.292509	-0.199739
H368	H	0.798336	0.040824	0.133594
H369	H	1.131670	0.374158	0.466927
H370	H	0.914415	-0.860546	-0.404619
H371	H	1.247748	-0.527212	-0.071286
H372	H	1.581082	-0.193879	0.262047
C373	C	0.989539	-0.668001	-0.386400
C374	C	1.322872	-0.334667	-0.053067
C375	C	1.656205	-0.001334	0.280266
H376	H	1.013387	-0.639102	-0.410284
H377	H	1.346721	-0.305768	-0.076951
H378	H	1.680054	0.027565	0.256382
H379	H	0.965574	-0.693541	-0.413675
H380	H	1.298908	-0.360208	-0.080342
H381	H	1.632241	-0.026874	0.252991
H382	H	1.016858	-0.693506	-0.362458
H383	H	1.350192	-0.360172	-0.029125
H384	H	1.683525	-0.026839	0.304209
C385	C	0.786974	-0.291139	-0.733692
C386	C	1.120307	0.042194	-0.400358
C387	C	1.453640	0.375528	-0.067025
H388	H	0.753354	-0.288204	-0.762523
H389	H	1.086687	0.045130	-0.429190
H390	H	1.420020	0.378463	-0.095857
H391	H	0.787805	-0.254829	-0.708174
H392	H	1.121138	0.078505	-0.374840
H393	H	1.454472	0.411838	-0.041507
H394	H	0.781450	-0.327061	-0.708155
H395	H	1.114783	0.006272	-0.374822
H396	H	1.448117	0.339605	-0.041488
C397	C	0.821430	-0.217288	-1.072969
C398	C	1.154763	0.116045	-0.739636
C399	C	1.488097	0.449378	-0.406302
H400	H	0.797587	-0.193428	-1.044102
H401	H	1.130920	0.139905	-0.710769
H402	H	1.464253	0.473238	-0.377435
H403	H	0.794114	-0.241252	-1.098468
H404	H	1.127447	0.092081	-0.765135
H405	H	1.460781	0.425415	-0.431801
H406	H	0.845422	-0.189980	-1.098520
H407	H	1.178756	0.143354	-0.765186
H408	H	1.512089	0.476687	-0.431853
H409	H	0.803106	-0.292511	-0.861767
H410	H	1.136439	0.040822	-0.528434
H411	H	1.469773	0.374155	-0.195100
C412	C	0.989632	-0.934225	-0.386453
C413	C	1.322965	-0.600891	-0.053119
C414	C	1.656298	-0.267558	0.280214
H415	H	0.983885	-0.890579	-0.380695
H416	H	1.317219	-0.557246	-0.047361
H417	H	1.650552	-0.223913	0.285972
H418	H	0.980445	-0.944929	-0.428541
H419	H	1.313778	-0.611595	-0.095207
H420	H	1.647111	-0.278262	0.238126
H421	H	1.031740	-0.944907	-0.377334
H422	H	1.365073	-0.611574	-0.044001
H423	H	1.698407	-0.278241	0.289332
H424	H	0.832867	-0.943868	-0.229417
H425	H	1.166200	-0.610535	0.103917
H426	H	1.499534	-0.277202	0.437250
C427	C	0.821427	-0.217316	-0.935557
C428	C	1.154761	0.116018	-0.602224
C429	C	1.488094	0.449351	-0.268891
H430	H	0.827166	-0.223057	-0.891904
H431	H	1.160499	0.110277	-0.558571
H432	H	1.493832	0.443610	-0.225237
H433	H	0.779324	-0.226491	-0.946246
H434	H	1.112658	0.106842	-0.612913
H435	H	1.445991	0.440176	-0.279580
H436	H	0.830626	-0.175212	-0.946302
H437	H	1.163960	0.158122	-0.612969
H438	H	1.497293	0.491455	-0.279636
C439	C	0.989613	-0.385577	-0.935627
C440	C	1.322947	-0.052244	-0.602293
C441	C	1.656280	0.281090	-0.268960
H442	H	0.983872	-0.379853	-0.891968
H443	H	1.317206	-0.046520	-0.558635
H444	H	1.650539	0.286813	-0.225302
H445	H	1.031717	-0.376399	-0.946382
H446	H	1.365051	-0.043066	-0.613048
H447	H	1.698384	0.290268	-0.279715
H448	H	0.980413	-0.427676	-0.946332
H449	H	1.313747	-0.094343	-0.612999
H450	H	1.647080	0.238991	-0.279665
C451	C	0.895139	-0.732657	-0.183605
C452	C	1.228472	-0.399324	0.149729
C453	C	1.561805	-0.065990	0.483062
H454	H	0.892231	-0.761540	-0.149984
H455	H	1.225564	-0.428206	0.183349
H456	H	1.558897	-0.094873	0.516682
H457	H	0.858810	-0.707173	-0.184367
H458	H	1.192144	-0.373840	0.148966
H459	H	1.525477	-0.040506	0.482300
H460	H	0.931044	-0.707093	-0.178140
H461	H	1.264378	-0.373760	0.155193
H462	H	1.597711	-0.040427	0.488526
C463	C	0.821266	-0.530900	-0.217887
C464	C	1.154599	-0.197567	0.115446
C465	C	1.487933	0.135767	0.448780
H466	H	0.797427	-0.559800	-0.193994
H467	H	1.130761	-0.226467	0.139339
H468	H	1.464094	0.106866	0.472672
H469	H	0.793946	-0.505387	-0.241814
H470	H	1.127280	-0.172054	0.091519
H471	H	1.460613	0.161280	0.424852
H472	H	0.845244	-0.505368	-0.190611
H473	H	1.178577	-0.172035	0.142723
H474	H	1.511911	0.161299	0.476056
C475	C	1.024059	-0.311836	-0.733856
C476	C	1.357393	0.021498	-0.400523
C477	C	1.690726	0.354831	-0.067190
H478	H	1.057680	-0.314757	-0.762736
H479	H	1.391013	0.018576	-0.429402
H480	H	1.724346	0.351909	-0.096069
H481	H	1.023227	-0.348159	-0.708317
H482	H	1.356560	-0.014825	-0.374984
H483	H	1.689894	0.318508	-0.041650
H484	H	1.029582	-0.275926	-0.708347
H485	H	1.362916	0.057407	-0.375014
H486	H	1.696249	0.390741	-0.041681
C487	C	0.821416	-0.217398	-0.531925
C488	C	1.154749	0.115935	-0.198591
C489	C	1.488082	0.449268	0.134742
H490	H	0.797566	-0.193535	-0.560773
H491	H	1.130900	0.139798	-0.227440
H492	H	1.464233	0.473132	0.105893
H493	H	0.845399	-0.190101	-0.506423
H494	H	1.178732	0.143232	-0.173089
H495	H	1.512065	0.476566	0.160244
H496	H	0.794095	-0.241379	-0.506374
H497	H	1.127429	0.091955	-0.173041
H498	H	1.460762	0.425288	0.160293
H499	H	0.978161	-0.374191	-0.660049
H500	H	1.311494	-0.040857	-0.326716
H501	H	1.644827	0.292476	0.006617
C502	C	0.989598	-0.385670	-0.531989
C503	C	1.322932	-0.052337	-0.198656
C504	C	1.656265	0.280997	0.134677
H505	H	1.013452	-0.409521	-0.560855
H506	H	1.346785	-0.076188	-0.227522
H507	H	1.680119	0.257146	0.105812
H508	H	0.965615	-0.412978	-0.506435
H509	H	1.298948	-0.079645	-0.173102
H510	H	1.632281	0.253689	0.160231
H511	H	1.016914	-0.361697	-0.506493
H512	H	1.350248	-0.028363	-0.173160
H513	H	1.683581	0.304970	0.160173
H514	H	0.548225	-0.374419	-0.374681
H515	H	0.881559	-0.041086	-0.041347
H516	H	1.214892	0.292247	0.291986
C517	C	0.676283	-0.385909	-0.386062
C518	C	1.009617	-0.052575	-0.052728
C519	C	1.342950	0.280758	0.280605
H520	H	0.647427	-0.409795	-0.409894
H521	H	0.980761	-0.076461	-0.076561
H522	H	1.314094	0.256872	0.256773
H523	H	0.701759	-0.413181	-0.362039
H524	H	1.035092	-0.079848	-0.028706
H525	H	1.368426	0.253485	0.304628
H526	H	0.701859	-0.361976	-0.413400
H527	H	1.035192	-0.028643	-0.080067
H528	H	1.368525	0.304691	0.253266
