data_functionalizedCrystal
_audit_creation_method	'MofGen! by Chris Wilmer'
_symmetry_space_group_name_H-M	'P1'
_symmetry_Int_Tables_number	1
_symmetry_cell_setting	triclinic
loop_
_symmetry_equiv_pos_as_xyz
  x,y,z
_cell_length_a	33.510554
_cell_length_b	33.509711
_cell_length_c	33.506470
_cell_angle_alpha	60.004186
_cell_angle_beta	60.008358
_cell_angle_gamma	59.994760
loop_
_atom_site_label
_atom_site_type_symbol
_atom_site_fract_x
_atom_site_fract_y
_atom_site_fract_z
O1	O	0.055430	-0.583081	0.487524
O2	O	0.555430	-0.083081	0.987524
O3	O	0.020931	-0.453975	0.392819
O4	O	0.520931	0.046025	0.892819
O5	O	0.102693	-0.535652	0.392731
O6	O	0.602693	-0.035652	0.892731
O7	O	-0.026332	-0.501404	0.487613
O8	O	0.473668	-0.001404	0.987613
O9	O	0.129823	-0.508526	0.419767
O10	O	0.629823	-0.008526	0.919767
O11	O	0.048062	-0.426850	0.419856
O12	O	0.548062	0.073150	0.919856
O13	O	0.082561	-0.555956	0.514561
O14	O	0.582561	-0.055956	1.014561
Cu15	Cu	0.067789	-0.488926	0.469677
Cu16	Cu	0.567789	0.011074	0.969677
Cu17	Cu	0.035703	-0.521005	0.437703
Cu18	Cu	0.535703	-0.021005	0.937703
O19	O	0.000799	-0.474279	0.514649
O20	O	0.500799	0.025721	1.014649
N21	N	0.090357	-0.466366	0.492168
N22	N	0.590357	0.033634	0.992168
N23	N	0.013139	-0.543569	0.415212
N24	N	0.513139	-0.043569	0.915212
C25	C	0.143028	-0.279707	0.544737
C26	C	0.643028	0.220293	1.044737
C27	C	0.143165	-0.413746	0.678712
C28	C	0.643165	0.086254	1.178712
C29	C	0.143043	-0.413725	0.544739
C30	C	0.643043	0.086275	1.044739
C31	C	0.277090	-0.413694	0.544637
C32	C	0.777090	0.086306	1.044637
C33	C	0.157791	-0.323929	0.559462
C34	C	0.657791	0.176071	1.059462
C35	C	0.157869	-0.398994	0.634489
C36	C	0.657869	0.101006	1.134489
C37	C	0.232865	-0.398963	0.559407
C38	C	0.732865	0.101037	1.059407
C39	C	0.157801	-0.398982	0.559463
C40	C	0.657801	0.101018	1.059463
C41	C	0.124237	-0.223419	0.525994
C42	C	0.624237	0.276581	1.025994
C43	C	0.124262	-0.432490	0.525997
C44	C	0.624262	0.067510	1.025997
C45	C	0.176583	-0.380217	0.578205
C46	C	0.676583	0.119783	1.078205
C47	C	0.358938	-0.399566	0.501510
C48	C	0.858938	0.100434	1.001510
C49	C	0.410104	-0.416609	0.484423
C50	C	0.910104	0.083391	0.984423
C51	C	0.410135	-0.499402	0.515995
C52	C	0.910135	0.000598	1.015995
C53	C	0.358969	-0.482358	0.533084
C54	C	0.858969	0.017642	1.033084
C55	C	0.136554	-0.197822	0.475693
C56	C	0.636554	0.302178	0.975693
C57	C	0.119469	-0.146653	0.458657
C58	C	0.619469	0.353347	0.958657
C59	C	0.077755	-0.146680	0.542223
C60	C	0.577755	0.353320	1.042223
C61	C	0.094840	-0.197850	0.559260
C62	C	0.594840	0.302150	1.059260
C63	C	0.073954	-0.420144	0.538396
C64	C	0.573954	0.079856	1.038396
C65	C	0.056884	-0.437203	0.521352
C66	C	0.556884	0.062797	1.021352
C67	C	0.140427	-0.478952	0.479524
C68	C	0.640427	0.021048	0.979524
C69	C	0.157498	-0.461894	0.496561
C70	C	0.657498	0.038106	0.996561
C71	C	0.074158	-0.420182	0.760618
C72	C	0.574158	0.079818	1.260618
C73	C	0.057149	-0.437256	0.811786
C74	C	0.557149	0.062744	1.311786
C75	C	0.140732	-0.479014	0.811717
C76	C	0.640732	0.020986	1.311717
C77	C	0.157740	-0.461942	0.760547
C78	C	0.657740	0.038058	1.260547
C79	C	0.124452	-0.432525	0.734999
C80	C	0.624452	0.067475	1.234999
C81	C	0.333372	-0.432439	0.525839
C82	C	0.833372	0.067561	1.025839
C83	C	-0.020612	-0.577650	0.170305
C84	C	0.479388	-0.077650	0.670305
C85	C	-0.020943	-0.788098	0.380897
C86	C	0.479057	-0.288098	0.880897
C87	C	-0.020912	-0.577638	0.380991
C88	C	0.479088	-0.077638	0.880991
C89	C	-0.231336	-0.577418	0.380585
C90	C	0.268664	-0.077418	0.880585
C91	C	-0.129735	-0.611383	0.346870
C92	C	0.370265	-0.111383	0.846870
C93	C	-0.054722	-0.611464	0.347017
C94	C	0.445278	-0.111464	0.847017
C95	C	-0.073450	-0.630202	0.328195
C96	C	0.426550	-0.130202	0.828195
C97	C	-0.087616	-0.712029	0.371239
C98	C	0.412384	-0.212029	0.871239
C99	C	-0.070599	-0.763199	0.388315
C100	C	0.429401	-0.263199	0.888315
C101	C	0.012191	-0.763282	0.356872
C102	C	0.512191	-0.263282	0.856872
C103	C	-0.004828	-0.712113	0.339795
C104	C	0.495172	-0.212113	0.839795
C105	C	-0.155381	-0.623711	0.397158
C106	C	0.344619	-0.123711	0.897158
C107	C	-0.206547	-0.606601	0.414133
C108	C	0.293453	-0.106601	0.914133
C109	C	-0.206417	-0.564839	0.330529
C110	C	0.293583	-0.064839	0.830529
C111	C	-0.155251	-0.581949	0.313554
C112	C	0.344749	-0.081949	0.813554
C113	C	-0.067051	-0.561160	0.334643
C114	C	0.432949	-0.061160	0.834643
C115	C	-0.050026	-0.544131	0.351759
C116	C	0.449974	-0.044131	0.851759
C117	C	-0.008343	-0.627704	0.393612
C118	C	0.491657	-0.127704	0.893612
C119	C	-0.025368	-0.644736	0.376502
C120	C	0.474632	-0.144736	0.876502
C121	C	-0.066922	-0.561168	0.246303
C122	C	0.433078	-0.061168	0.746303
C123	C	-0.049794	-0.544141	0.195134
C124	C	0.450206	-0.044141	0.695134
C125	C	-0.008048	-0.627719	0.195183
C126	C	0.491952	-0.127719	0.695183
C127	C	-0.025175	-0.644745	0.246352
C128	C	0.474825	-0.144745	0.746352
C129	C	-0.054614	-0.611468	0.271911
C130	C	0.445386	-0.111468	0.771911
C131	C	-0.054732	-0.686488	0.346980
C132	C	0.445268	-0.186488	0.846980
C133	C	-0.002117	-0.558258	0.114025
C134	C	0.497883	-0.058258	0.614025
C135	C	-0.002879	-0.844379	0.399940
C136	C	0.497121	-0.344379	0.899940
C137	C	-0.002504	-0.558243	0.399473
C138	C	0.497496	-0.058243	0.899473
C139	C	-0.287615	-0.558285	0.398601
C140	C	0.212385	-0.058285	0.898601
N141	N	0.434975	-0.466279	0.491900
N142	N	0.934975	0.033721	0.991900
O143	O	0.591199	-0.470749	0.375150
O144	O	1.091199	0.029251	0.875150
O145	O	0.591395	-0.565767	0.504116
O146	O	1.091395	-0.065767	1.004116
O147	O	0.591311	-0.565550	0.422329
O148	O	1.091311	-0.065550	0.922329
O149	O	0.591283	-0.470966	0.456937
O150	O	1.091283	0.029034	0.956937
O151	O	0.510024	-0.538522	0.449509
O152	O	1.010024	-0.038522	0.949509
O153	O	0.510108	-0.538739	0.531297
O154	O	1.010108	-0.038739	1.031297
O155	O	0.509913	-0.443721	0.402330
O156	O	1.009913	0.056279	0.902330
Cu157	Cu	0.502588	-0.488762	0.469295
Cu158	Cu	1.002588	0.011238	0.969295
Cu159	Cu	0.598719	-0.520726	0.437151
Cu160	Cu	1.098719	-0.020726	0.937151
O161	O	0.509997	-0.443938	0.484117
O162	O	1.009997	0.056062	0.984117
N163	N	0.666332	-0.543209	0.414541
N164	N	1.166332	-0.043209	0.914541
N165	N	0.090323	-0.121809	0.492157
N166	N	0.590323	0.378191	0.992157
O167	O	-0.026342	0.034503	0.487582
O168	O	0.473658	0.534503	0.987582
O169	O	0.102626	0.034543	0.392540
O170	O	0.602626	0.534543	0.892540
O171	O	0.020797	0.034507	0.392812
O172	O	0.520797	0.534507	0.892812
O173	O	0.055487	0.034539	0.487310
O174	O	0.555487	0.534539	0.987310
O175	O	0.047933	-0.046785	0.419900
O176	O	0.547933	0.453215	0.919900
O177	O	0.129763	-0.046749	0.419628
O178	O	0.629763	0.453251	0.919628
O179	O	0.000794	-0.046789	0.514670
O180	O	0.500794	0.453211	1.014670
Cu181	Cu	0.067756	-0.054192	0.469623
Cu182	Cu	0.567756	0.445808	0.969623
Cu183	Cu	0.035664	0.041946	0.437588
Cu184	Cu	0.535664	0.541946	0.937588
O185	O	0.082623	-0.046753	0.514399
O186	O	0.582623	0.453247	1.014399
N187	N	0.013091	0.109564	0.415054
N188	N	0.513091	0.609564	0.915054
N189	N	0.090671	-0.466416	0.836606
N190	N	0.590671	0.033584	1.336606
O191	O	0.086120	-0.583065	0.992910
O192	O	0.586120	-0.083065	1.492910
O193	O	-0.008880	-0.454051	0.992954
O194	O	0.491120	0.045949	1.492954
O195	O	-0.008658	-0.535864	0.992931
O196	O	0.491342	-0.035864	1.492931
O197	O	0.085897	-0.501252	0.992933
O198	O	0.585897	-0.001252	1.492933
O199	O	0.018407	-0.508749	0.911642
O200	O	0.518407	-0.008749	1.411642
O201	O	0.018185	-0.426936	0.911665
O202	O	0.518185	0.073064	1.411665
O203	O	0.113185	-0.555949	0.911621
O204	O	0.613185	-0.055949	1.411621
Cu205	Cu	0.068156	-0.488967	0.904221
Cu206	Cu	0.568156	0.011033	1.404221
Cu207	Cu	0.036148	-0.521034	1.000355
Cu208	Cu	0.536148	-0.021034	1.500355
O209	O	0.112963	-0.474136	0.911644
O210	O	0.612963	0.025864	1.411644
N211	N	0.013633	-0.543590	1.067970
N212	N	0.513633	-0.043590	1.567970
C213	C	0.031262	-0.424144	0.393290
C214	C	0.531262	0.075856	0.893290
C215	C	0.132513	-0.525291	0.393180
C216	C	0.632513	-0.025291	0.893180
C217	C	0.072229	-0.585787	0.514090
C218	C	0.572229	-0.085787	1.014090
C219	C	-0.029022	-0.484640	0.514200
C220	C	0.470978	0.015360	1.014200
C221	C	0.550775	-0.565338	0.533954
C222	C	1.050775	-0.065338	1.033954
C223	C	0.550672	-0.565070	0.432670
C224	C	1.050672	-0.065070	0.932670
C225	C	0.550530	-0.444149	0.372492
C226	C	1.050530	0.055851	0.872492
C227	C	0.550635	-0.444418	0.473776
C228	C	1.050635	0.055582	0.973776
C229	C	0.132408	-0.005998	0.392963
C230	C	0.632408	0.494002	0.892963
C231	C	0.031106	-0.006142	0.393333
C232	C	0.531106	0.493858	0.893333
C233	C	-0.029021	-0.006147	0.514213
C234	C	0.470979	0.493853	1.014213
C235	C	0.072314	-0.006104	0.513878
C236	C	0.572314	0.493896	1.013878
C237	C	-0.008430	-0.424240	0.952316
C238	C	0.491570	0.075760	1.452316
C239	C	-0.008150	-0.525550	0.952271
C240	C	0.491850	-0.025550	1.452271
C241	C	0.112735	-0.585760	0.952260
C242	C	0.612735	-0.085760	1.452260
C243	C	0.112461	-0.484444	0.952286
C244	C	0.612461	0.015556	1.452286
H245	H	0.016194	-0.427197	0.832639
H246	H	0.516194	0.072803	1.332639
H247	H	0.079744	-0.006095	0.543566
H248	H	0.579744	0.493905	1.043566
H249	H	0.550685	-0.594783	0.425263
H250	H	1.050685	-0.094783	0.925263
H251	H	-0.037843	-0.532946	0.952238
H252	H	0.462157	-0.032946	1.452238
O253	O	-0.044060	-0.380058	0.952308
O254	O	0.455940	0.119942	1.452308
C255	C	-0.086134	-0.380075	0.952325
C256	C	0.413866	0.119925	1.452325
H257	H	-0.075299	-0.409019	0.936927
H258	H	0.424701	0.090981	1.436927
H259	H	-0.112691	-0.388616	0.991325
H260	H	0.387309	0.111384	1.491325
C261	C	-0.124164	-0.293909	0.939371
C262	C	0.375836	0.206091	1.439371
C263	C	-0.110855	-0.329456	0.920455
C264	C	0.389145	0.170544	1.420455
H265	H	-0.139415	-0.262685	0.919714
H266	H	0.360585	0.237315	1.419714
H267	H	-0.095819	-0.293898	0.939361
H268	H	0.404181	0.206102	1.439361
H269	H	-0.146292	-0.301033	0.971871
H270	H	0.353708	0.198967	1.471871
H271	H	-0.088722	-0.322336	0.887957
H272	H	0.411278	0.177664	1.387957
H273	H	-0.139197	-0.329465	0.920457
H274	H	0.360803	0.170535	1.420457
O275	O	0.176684	-0.533999	0.357588
O276	O	0.676684	-0.033999	0.857588
C277	C	0.170244	-0.528511	0.316415
C278	C	0.670244	-0.028511	0.816415
H279	H	0.134439	-0.533891	0.328197
H280	H	0.634439	-0.033891	0.828197
H281	H	0.169154	-0.490301	0.288782
H282	H	0.669154	0.009699	0.788782
C283	C	0.257026	-0.560259	0.278377
C284	C	0.757026	-0.060259	0.778377
C285	C	0.213052	-0.566870	0.292850
C286	C	0.713052	-0.066870	0.792850
H287	H	0.283432	-0.583919	0.263839
H288	H	0.783432	-0.083919	0.763839
H289	H	0.261365	-0.563954	0.306115
H290	H	0.761365	-0.063954	0.806115
H291	H	0.256110	-0.528416	0.255352
H292	H	0.756110	-0.028416	0.755352
H293	H	0.213965	-0.598710	0.315878
H294	H	0.713965	-0.098710	0.815878
H295	H	0.208714	-0.563181	0.265114
H296	H	0.708714	-0.063181	0.765114
H297	H	0.079602	-0.622875	0.543835
H298	H	0.579602	-0.122875	1.043835
H299	H	0.142562	-0.622811	0.952240
H300	H	0.642562	-0.122811	1.452240
H301	H	0.550467	-0.414317	0.335455
H302	H	1.050467	0.085683	0.835455
H303	H	0.142166	-0.477036	0.952281
H304	H	0.642166	0.022964	1.452281
O305	O	-0.130570	-0.652372	0.429499
O306	O	0.369430	-0.152372	0.929499
C307	C	-0.100975	-0.697878	0.422161
C308	C	0.399025	-0.197878	0.922161
H309	H	-0.116363	-0.704896	0.403548
H310	H	0.383637	-0.204896	0.903548
H311	H	-0.062179	-0.697466	0.398066
H312	H	0.437821	-0.197466	0.898066
C313	C	-0.081369	-0.730046	0.494696
C314	C	0.418631	-0.230046	0.994696
C315	C	-0.100271	-0.738667	0.471840
C316	C	0.399729	-0.238667	0.971840
H317	H	-0.080932	-0.755207	0.525340
H318	H	0.419068	-0.255207	1.025340
H319	H	-0.101306	-0.699387	0.499639
H320	H	0.398694	-0.199387	0.999639
H321	H	-0.049040	-0.729701	0.474612
H322	H	0.450960	-0.229701	0.974612
H323	H	-0.132601	-0.739006	0.491921
H324	H	0.367399	-0.239006	0.991921
H325	H	-0.080339	-0.769328	0.466901
H326	H	0.419661	-0.269328	0.966901
H327	H	0.550629	-0.414708	0.481180
H328	H	1.050629	0.085292	0.981180
H329	H	0.047048	-0.396226	0.739820
H330	H	0.547048	0.103774	1.239820
O331	O	-0.073210	-0.476027	0.549793
O332	O	0.426790	0.023973	1.049793
C333	C	-0.073234	-0.518061	0.591908
C334	C	0.426766	-0.018061	1.091908
H335	H	-0.044310	-0.551603	0.581128
H336	H	0.455690	-0.051603	1.081128
H337	H	-0.064694	-0.514133	0.618456
H338	H	0.435306	-0.014133	1.118456
C339	C	-0.159391	-0.482777	0.629852
C340	C	0.340609	0.017223	1.129852
C341	C	-0.123869	-0.523975	0.616611
C342	C	0.376131	-0.023975	1.116611
H343	H	-0.190625	-0.486424	0.645092
H344	H	0.309375	0.013576	1.145092
H345	H	-0.159375	-0.454457	0.601479
H346	H	0.340625	0.045543	1.101479
H347	H	-0.152268	-0.479508	0.651973
H348	H	0.347732	0.020492	1.151973
H349	H	-0.130988	-0.527239	0.594486
H350	H	0.369012	-0.027239	1.094486
H351	H	-0.123887	-0.552296	0.644981
H352	H	0.376113	-0.052296	1.144981
O353	O	-0.073208	-0.006091	0.549828
O354	O	0.426792	0.493909	1.049828
C355	C	-0.094838	0.036020	0.562934
C356	C	0.405162	0.536020	1.062934
H357	H	-0.065197	0.050069	0.553001
H358	H	0.434803	0.550069	1.053001
H359	H	-0.121532	0.065492	0.542435
H360	H	0.378468	0.565492	1.042435
C361	C	-0.158854	0.005976	0.630556
C362	C	0.341146	0.505976	1.130556
C363	C	-0.122447	0.023228	0.618361
C364	C	0.377553	0.523228	1.118361
H365	H	-0.175886	-0.001913	0.664746
H366	H	0.324114	0.498087	1.164746
H367	H	-0.144282	-0.022395	0.621726
H368	H	0.355718	0.477605	1.121726
H369	H	-0.181093	0.030539	0.613470
H370	H	0.318907	0.530539	1.113470
H371	H	-0.100205	-0.001337	0.635442
H372	H	0.399795	0.498663	1.135442
H373	H	-0.137016	0.051595	0.627196
H374	H	0.362984	0.551595	1.127196
O375	O	0.176544	-0.005780	0.357339
O376	O	0.676544	0.494220	0.857339
C377	C	0.213582	-0.047785	0.373836
C378	C	0.713582	0.452215	0.873836
H379	H	0.200284	-0.061983	0.415496
H380	H	0.700284	0.438017	0.915496
H381	H	0.222840	-0.077221	0.359848
H382	H	0.722840	0.422779	0.859848
C383	C	0.275830	-0.017290	0.303308
C384	C	0.775830	0.482710	0.803308
C385	C	0.259499	-0.034725	0.354476
C386	C	0.759499	0.465275	0.854476
H387	H	0.304155	-0.009235	0.291365
H388	H	0.804155	0.490765	0.791365
H389	H	0.250877	0.011009	0.292193
H390	H	0.750877	0.511009	0.792193
H391	H	0.283542	-0.041823	0.291658
H392	H	0.783542	0.458177	0.791658
H393	H	0.251782	-0.010191	0.366126
H394	H	0.751782	0.489809	0.866126
H395	H	0.284452	-0.063020	0.365593
H396	H	0.784452	0.436980	0.865593
O397	O	0.173134	-0.507600	0.836459
O398	O	0.673134	-0.007600	1.336459
C399	C	0.221173	-0.514823	0.802875
C400	C	0.721173	-0.014823	1.302875
H401	H	0.221047	-0.509093	0.766410
H402	H	0.721047	-0.009093	1.266410
H403	H	0.235830	-0.487587	0.797428
H404	H	0.735830	0.012413	1.297428
C405	C	0.254174	-0.574282	0.867597
C406	C	0.754174	-0.074282	1.367597
C407	C	0.254020	-0.567248	0.822810
C408	C	0.754020	-0.067248	1.322810
H409	H	0.274437	-0.606619	0.879894
H410	H	0.774437	-0.106619	1.379894
H411	H	0.221810	-0.569414	0.890223
H412	H	0.721810	-0.069414	1.390223
H413	H	0.266387	-0.551581	0.863051
H414	H	0.766387	-0.051581	1.363051
H415	H	0.241801	-0.589944	0.827358
H416	H	0.741801	-0.089944	1.327358
H417	H	0.286383	-0.572121	0.800185
H418	H	0.786383	-0.072121	1.300185
O419	O	0.206594	-0.473990	0.735642
O420	O	0.706594	0.026010	1.235642
C421	C	0.218938	-0.499733	0.706033
C422	C	0.718938	0.000267	1.206033
H423	H	0.190101	-0.517057	0.721472
H424	H	0.690101	-0.017057	1.221472
H425	H	0.220602	-0.473414	0.667263
H426	H	0.720602	0.026586	1.167263
C427	C	0.304548	-0.518723	0.686248
C428	C	0.804548	-0.018723	1.186248
C429	C	0.269131	-0.540005	0.705212
C430	C	0.769131	-0.040005	1.205212
H431	H	0.335510	-0.543564	0.685739
H432	H	0.835510	-0.043564	1.185739
H433	H	0.296232	-0.501379	0.706194
H434	H	0.796232	-0.001379	1.206194
H435	H	0.305929	-0.496791	0.653941
H436	H	0.805929	0.003209	1.153941
H437	H	0.267747	-0.561932	0.737520
H438	H	0.767747	-0.061932	1.237520
H439	H	0.277448	-0.557355	0.685271
H440	H	0.777448	-0.057355	1.185271
H441	H	0.015920	-0.427139	0.531437
H442	H	0.515920	0.072861	1.031437
O443	O	0.041601	-0.391566	0.566963
O444	O	0.541601	0.108434	1.066963
C445	C	-0.006462	-0.384335	0.574255
C446	C	0.493538	0.115665	1.074255
H447	H	-0.006396	-0.390047	0.543415
H448	H	0.493604	0.109953	1.043415
H449	H	-0.021092	-0.411579	0.610708
H450	H	0.478908	0.088421	1.110708
C451	C	-0.039369	-0.324903	0.612520
C452	C	0.460631	0.175097	1.112520
C453	C	-0.039289	-0.331914	0.574638
C454	C	0.460711	0.168086	1.074638
H455	H	-0.059619	-0.292568	0.612758
H456	H	0.440381	0.207432	1.112758
H457	H	-0.006988	-0.329776	0.607608
H458	H	0.493012	0.170224	1.107608
H459	H	-0.051559	-0.347609	0.642893
H460	H	0.448441	0.152391	1.142893
H461	H	-0.027093	-0.309212	0.544266
H462	H	0.472907	0.190788	1.044266
H463	H	-0.071669	-0.327037	0.579545
H464	H	0.428331	0.172963	1.079545
O465	O	0.022262	-0.006249	0.357956
O466	O	0.522262	0.493751	0.857956
C467	C	0.010764	-0.048361	0.374819
C468	C	0.510764	0.451639	0.874819
H469	H	0.026559	-0.077772	0.405163
H470	H	0.526559	0.422228	0.905163
H471	H	-0.030626	-0.038857	0.389576
H472	H	0.469374	0.461143	0.889576
C473	C	0.013381	-0.031346	0.295045
C474	C	0.513381	0.468654	0.795045
C475	C	0.032784	-0.067470	0.332312
C476	C	0.532784	0.432530	0.832312
H477	H	0.026962	-0.043133	0.268825
H478	H	0.526962	0.456867	0.768825
H479	H	0.021125	-0.002973	0.283684
H480	H	0.521125	0.497027	0.783684
H481	H	-0.021110	-0.023430	0.307349
H482	H	0.478890	0.476570	0.807349
H483	H	0.067273	-0.075381	0.320010
H484	H	0.567273	0.424619	0.820010
H485	H	0.025046	-0.095844	0.343670
H486	H	0.525046	0.404156	0.843670
H487	H	0.198463	-0.471942	0.486461
H488	H	0.698463	0.028058	0.986461
O489	O	0.172739	-0.507444	0.450861
O490	O	0.672739	-0.007444	0.950861
C491	C	0.202295	-0.481593	0.407944
C492	C	0.702295	0.018407	0.907944
H493	H	0.182519	-0.440658	0.400848
H494	H	0.682519	0.059342	0.900848
H495	H	0.238255	-0.492479	0.412567
H496	H	0.738255	0.007521	0.912567
C497	C	0.237006	-0.544224	0.373121
C498	C	0.737006	-0.044224	0.873121
C499	C	0.212715	-0.493947	0.364403
C500	C	0.712715	0.006053	0.864403
H501	H	0.243436	-0.551846	0.346263
H502	H	0.743436	-0.051846	0.846263
H503	H	0.217095	-0.561642	0.402036
H504	H	0.717095	-0.061642	0.902036
H505	H	0.266970	-0.553289	0.376975
H506	H	0.766970	-0.053289	0.876975
H507	H	0.182749	-0.484883	0.360556
H508	H	0.682749	0.015117	0.860556
H509	H	0.232622	-0.476528	0.335487
H510	H	0.732622	0.023472	0.835487
O511	O	0.334163	-0.514305	0.556636
O512	O	0.834163	-0.014305	1.056636
C513	C	0.346659	-0.538269	0.525322
C514	C	0.846659	-0.038269	1.025322
H515	H	0.360688	-0.514960	0.485711
H516	H	0.860688	-0.014960	0.985711
H517	H	0.376381	-0.575189	0.533548
H518	H	0.876381	-0.075189	1.033548
C519	C	0.283977	-0.574688	0.582165
C520	C	0.783977	-0.074688	1.082165
C521	C	0.301204	-0.546058	0.533513
C522	C	0.801204	-0.046058	1.033513
H523	H	0.255940	-0.579495	0.587218
H524	H	0.755940	-0.079495	1.087218
H525	H	0.275559	-0.558545	0.603263
H526	H	0.775559	-0.058545	1.103263
H527	H	0.308750	-0.605452	0.589014
H528	H	0.808750	-0.105452	1.089014
H529	H	0.276434	-0.515293	0.526667
H530	H	0.776434	-0.015293	1.026667
H531	H	0.309617	-0.562196	0.512415
H532	H	0.809617	-0.062196	1.012415
O533	O	0.435075	-0.547874	0.522970
O534	O	0.935075	-0.047874	1.022970
C535	C	0.485718	-0.555869	0.502681
C536	C	0.985718	-0.055869	1.002681
H537	H	0.492679	-0.520649	0.473352
H538	H	0.992679	-0.020649	0.973352
H539	H	0.500269	-0.567660	0.532613
H540	H	1.000269	-0.067660	1.032613
C541	C	0.503428	-0.639507	0.515729
C542	C	1.003428	-0.139507	1.015729
C543	C	0.511978	-0.596251	0.479703
C544	C	1.011978	-0.096251	0.979703
H545	H	0.519628	-0.664418	0.501557
H546	H	1.019628	-0.164418	1.001557
H547	H	0.469310	-0.634122	0.529400
H548	H	0.969310	-0.134122	1.029400
H549	H	0.515554	-0.649327	0.540669
H550	H	1.015554	-0.149327	1.040669
H551	H	0.499847	-0.586428	0.454766
H552	H	0.999847	-0.086428	0.954766
H553	H	0.546096	-0.601635	0.466027
H554	H	1.046096	-0.101635	0.966027
H555	H	0.430920	-0.389838	0.464614
H556	H	0.930920	0.110162	0.964614
O557	O	0.020245	-0.660007	0.422179
O558	O	0.520245	-0.160007	0.922179
C559	C	0.065745	-0.652686	0.399002
C560	C	0.565745	-0.152686	0.899002
H561	H	0.072837	-0.634130	0.357972
H562	H	0.572837	-0.134130	0.857972
H563	H	0.065271	-0.628546	0.414115
H564	H	0.565271	-0.128546	0.914115
C565	C	0.097800	-0.725158	0.459089
C566	C	0.597800	-0.225158	0.959089
C567	C	0.106511	-0.702370	0.408694
C568	C	0.606511	-0.202370	0.908694
H569	H	0.122946	-0.755804	0.465069
H570	H	0.622946	-0.255804	0.965069
H571	H	0.067145	-0.730089	0.474705
H572	H	0.567145	-0.230089	0.974705
H573	H	0.097404	-0.705036	0.471677
H574	H	0.597404	-0.205036	0.971677
H575	H	0.106901	-0.722489	0.396109
H576	H	0.606901	-0.222489	0.896109
H577	H	0.137167	-0.697443	0.393076
H578	H	0.637167	-0.197443	0.893076
O579	O	-0.231156	-0.536308	0.298123
O580	O	0.268844	-0.036308	0.798123
C581	C	-0.218637	-0.562158	0.268544
C582	C	0.281363	-0.062158	0.768544
H583	H	-0.181507	-0.591974	0.268097
H584	H	0.318493	-0.091974	0.768097
H585	H	-0.247450	-0.579487	0.283890
H586	H	0.252550	-0.079487	0.783890
C587	C	-0.261798	-0.490091	0.216655
C588	C	0.238202	0.009909	0.716655
C589	C	-0.216194	-0.526709	0.216103
C590	C	0.283806	-0.026709	0.716103
H591	H	-0.260293	-0.468224	0.184308
H592	H	0.239707	0.031776	0.684308
H593	H	-0.270235	-0.472675	0.236584
H594	H	0.229765	0.027325	0.736584
H595	H	-0.285804	-0.504537	0.229446
H596	H	0.214196	-0.004537	0.729446
H597	H	-0.192190	-0.512262	0.203318
H598	H	0.307810	-0.012262	0.703318
H599	H	-0.207753	-0.544121	0.196170
H600	H	0.292247	-0.044121	0.696170
O601	O	0.334147	-0.351061	0.494452
O602	O	0.834147	0.148939	0.994452
C603	C	0.367687	-0.325701	0.469304
C604	C	0.867687	0.174299	0.969304
H605	H	0.404176	-0.351958	0.475184
H606	H	0.904176	0.148042	0.975184
H607	H	0.373097	-0.309794	0.428600
H608	H	0.873097	0.190206	0.928600
C609	C	0.302913	-0.251769	0.481654
C610	C	0.802913	0.248231	0.981654
C611	C	0.347727	-0.284017	0.488880
C612	C	0.847727	0.215983	0.988880
H613	H	0.290600	-0.226055	0.493728
H614	H	0.790600	0.273945	0.993728
H615	H	0.280316	-0.268853	0.498596
H616	H	0.780316	0.231147	0.998596
H617	H	0.307427	-0.238519	0.447733
H618	H	0.807427	0.261481	0.947733
H619	H	0.343212	-0.297272	0.522801
H620	H	0.843212	0.202728	1.022801
H621	H	0.370323	-0.266934	0.471945
H622	H	0.870323	0.233066	0.971945
H623	H	0.550826	-0.595166	0.570996
H624	H	1.050826	-0.095166	1.070996
H625	H	0.160490	-0.218637	0.448603
H626	H	0.660490	0.281363	0.948603
H627	H	0.129496	-0.125810	0.417697
H628	H	0.629496	0.374190	0.917697
H629	H	0.084809	-0.218687	0.600218
H630	H	0.584809	0.281313	1.100218
O631	O	0.049261	-0.121895	0.574585
O632	O	0.549261	0.378105	1.074585
C633	C	0.075142	-0.134387	0.604126
C634	C	0.575142	0.365613	1.104126
H635	H	0.104939	-0.171531	0.604602
H636	H	0.604939	0.328469	1.104602
H637	H	0.092493	-0.105577	0.588722
H638	H	0.592493	0.394423	1.088722
C639	C	0.003124	-0.091155	0.655974
C640	C	0.503124	0.408845	1.155974
C641	C	0.039719	-0.136777	0.656562
C642	C	0.539719	0.363223	1.156562
H643	H	-0.018726	-0.092627	0.688318
H644	H	0.481274	0.407373	1.188318
H645	H	-0.014312	-0.082737	0.636071
H646	H	0.485688	0.417263	1.136071
H647	H	0.017590	-0.067151	0.643135
H648	H	0.517590	0.432849	1.143135
H649	H	0.025254	-0.160778	0.669394
H650	H	0.525254	0.339222	1.169394
H651	H	0.057152	-0.145200	0.676468
H652	H	0.557152	0.354800	1.176468
O653	O	-0.061845	-0.495270	0.170286
O654	O	0.438155	0.004730	0.670286
C655	C	-0.113088	-0.473980	0.182722
C656	C	0.386912	0.026020	0.682722
H657	H	-0.129591	-0.503091	0.196754
H658	H	0.370409	-0.003091	0.696754
H659	H	-0.128278	-0.457817	0.212424
H660	H	0.371722	0.042183	0.712424
C661	C	-0.105981	-0.397476	0.119992
C662	C	0.394019	0.102524	0.619992
C663	C	-0.126250	-0.433230	0.137223
C664	C	0.373750	0.066770	0.637223
H665	H	-0.114101	-0.372338	0.091927
H666	H	0.385899	0.127662	0.591927
H667	H	-0.071458	-0.411819	0.111615
H668	H	0.428542	0.088181	0.611615
H669	H	-0.118641	-0.384013	0.144748
H670	H	0.381359	0.115987	0.644748
H671	H	-0.113585	-0.446697	0.112468
H672	H	0.386415	0.053303	0.612468
H673	H	-0.160772	-0.418889	0.145594
H674	H	0.339228	0.081111	0.645594
O675	O	-0.095442	-0.528826	0.271113
O676	O	0.404558	-0.028826	0.771113
C677	C	-0.069596	-0.499274	0.258652
C678	C	0.430404	0.000726	0.758652
H679	H	-0.028662	-0.519068	0.244638
H680	H	0.471338	-0.019068	0.744638
H681	H	-0.080443	-0.463322	0.228927
H682	H	0.419557	0.036678	0.728927
C683	C	-0.132284	-0.464508	0.321334
C684	C	0.367716	0.035492	0.821334
C685	C	-0.082008	-0.488821	0.304126
C686	C	0.417992	0.011179	0.804126
H687	H	-0.139941	-0.458058	0.349384
H688	H	0.360059	0.041942	0.849384
H689	H	-0.149698	-0.484416	0.329729
H690	H	0.350302	0.015584	0.829729
H691	H	-0.141317	-0.434551	0.296559
H692	H	0.358683	0.065449	0.796559
H693	H	-0.072977	-0.518780	0.328899
H694	H	0.427023	-0.018780	0.828899
H695	H	-0.064593	-0.468918	0.295737
H696	H	0.435407	0.031082	0.795737
O697	O	0.022507	-0.379942	0.357741
O698	O	0.522507	0.120058	0.857741
C699	C	0.027924	-0.386320	0.316563
C700	C	0.527924	0.113680	0.816563
H701	H	0.052411	-0.425284	0.317007
H702	H	0.552411	0.074716	0.817007
H703	H	-0.009456	-0.379379	0.317535
H704	H	0.490544	0.120621	0.817535
C705	C	0.021183	-0.302171	0.269124
C706	C	0.521183	0.197829	0.769124
C707	C	0.051262	-0.350027	0.269668
C708	C	0.551262	0.149973	0.769668
H709	H	0.035577	-0.279783	0.240197
H710	H	0.535577	0.220217	0.740197
H711	H	0.017532	-0.297874	0.296867
H712	H	0.517532	0.202126	0.796867
H713	H	-0.009965	-0.296395	0.269936
H714	H	0.490035	0.203605	0.769936
H715	H	0.082408	-0.355805	0.268862
H716	H	0.582408	0.144195	0.768862
H717	H	0.054920	-0.354325	0.241923
H718	H	0.554920	0.145675	0.741923
O719	O	0.020483	-0.660092	0.170413
O720	O	0.520483	-0.160092	0.670413
C721	C	-0.005374	-0.689626	0.182858
C722	C	0.494626	-0.189626	0.682858
H723	H	-0.035199	-0.690089	0.219979
H724	H	0.464801	-0.190089	0.719979
H725	H	-0.022687	-0.674225	0.154010
H726	H	0.477313	-0.174225	0.654010
C727	C	0.066691	-0.741500	0.139686
C728	C	0.566691	-0.241500	0.639686
C729	C	0.030061	-0.742071	0.185280
C730	C	0.530061	-0.242071	0.685280
H731	H	0.088548	-0.773850	0.141179
H732	H	0.588548	-0.273850	0.641179
H733	H	0.084111	-0.721601	0.131300
H734	H	0.584111	-0.221601	0.631300
H735	H	0.052257	-0.728663	0.115651
H736	H	0.552257	-0.228663	0.615651
H737	H	0.044495	-0.754902	0.209314
H738	H	0.544495	-0.254902	0.709314
H739	H	0.012645	-0.761973	0.193671
H740	H	0.512645	-0.261973	0.693671
O741	O	-0.061907	-0.495279	0.339721
O742	O	0.438093	0.004721	0.839721
C743	C	-0.018890	-0.482976	0.314028
C744	C	0.481110	0.017024	0.814028
H745	H	0.013222	-0.516726	0.323317
H746	H	0.513222	-0.016726	0.823317
H747	H	-0.011638	-0.468944	0.273062
H748	H	0.488362	0.031056	0.773062
C749	C	-0.064513	-0.401452	0.317343
C750	C	0.435487	0.098548	0.817343
C751	C	-0.025074	-0.442903	0.328755
C752	C	0.474926	0.057097	0.828755
H753	H	-0.068328	-0.376731	0.326425
H754	H	0.431672	0.123269	0.826425
H755	H	-0.093495	-0.409739	0.334651
H756	H	0.406505	0.090261	0.834651
H757	H	-0.058465	-0.389764	0.283205
H758	H	0.441535	0.110236	0.783205
H759	H	-0.031125	-0.454594	0.362893
H760	H	0.468875	0.045406	0.862893
H761	H	0.003908	-0.434617	0.311453
H762	H	0.503908	0.065383	0.811453
O763	O	-0.013329	-0.693616	0.388545
O764	O	0.486671	-0.193616	0.888545
C765	C	0.016220	-0.719333	0.418248
C766	C	0.516220	-0.219333	0.918248
H767	H	0.034825	-0.694957	0.411764
H768	H	0.534825	-0.194957	0.911764
H769	H	-0.007435	-0.730337	0.458307
H770	H	0.492565	-0.230337	0.958307
C771	C	0.032472	-0.795425	0.413302
C772	C	0.532472	-0.295425	0.913302
C773	C	0.055325	-0.765488	0.405335
C774	C	0.555325	-0.265488	0.905335
H775	H	0.056592	-0.823897	0.405339
H776	H	0.556592	-0.323897	0.905339
H777	H	0.012562	-0.778100	0.393292
H778	H	0.512562	-0.278100	0.893292
H779	H	0.012760	-0.804591	0.446684
H780	H	0.512760	-0.304591	0.946684
H781	H	0.075031	-0.756319	0.371952
H782	H	0.575031	-0.256319	0.871952
H783	H	0.075239	-0.782813	0.425339
H784	H	0.575239	-0.282813	0.925339
H785	H	-0.015148	-0.685706	0.267200
H786	H	0.484852	-0.185706	0.767200
H787	H	0.021953	-0.691318	0.320042
H788	H	0.521953	-0.191318	0.820042
O789	O	0.060685	-0.788156	0.349809
O790	O	0.560685	-0.288156	0.849809
C791	C	0.087144	-0.775676	0.299304
C792	C	0.587144	-0.275676	0.799304
H793	H	0.062043	-0.761587	0.278109
H794	H	0.562043	-0.261587	0.778109
H795	H	0.101851	-0.746002	0.287902
H796	H	0.601851	-0.246002	0.787902
C797	C	0.160918	-0.838466	0.314201
C798	C	0.660918	-0.338466	0.814201
C799	C	0.130090	-0.821166	0.288169
C800	C	0.630090	-0.321166	0.788169
H801	H	0.187411	-0.866525	0.307332
H802	H	0.687411	-0.366525	0.807332
H803	H	0.143093	-0.846873	0.348227
H804	H	0.643093	-0.346873	0.848227
H805	H	0.173169	-0.813733	0.304696
H806	H	0.673169	-0.313733	0.804696
H807	H	0.117835	-0.845897	0.297678
H808	H	0.617835	-0.345897	0.797678
H809	H	0.147914	-0.812764	0.254144
H810	H	0.647914	-0.312764	0.754144
H811	H	-0.097376	-0.783993	0.408060
H812	H	0.402624	-0.283993	0.908060
O813	O	-0.136083	-0.687155	0.378139
O814	O	0.363917	-0.187155	0.878139
C815	C	-0.151662	-0.699653	0.355109
C816	C	0.348338	-0.199653	0.855109
H817	H	-0.118956	-0.713760	0.324918
H818	H	0.381044	-0.213760	0.824918
H819	H	-0.168833	-0.729319	0.383135
H820	H	0.331167	-0.229319	0.883135
C821	C	-0.229835	-0.636847	0.369960
C822	C	0.270165	-0.136847	0.869960
C823	C	-0.189665	-0.654170	0.332875
C824	C	0.310335	-0.154170	0.832875
H825	H	-0.253279	-0.608792	0.356247
H826	H	0.246721	-0.108792	0.856247
H827	H	-0.219341	-0.628428	0.385477
H828	H	0.280659	-0.128428	0.885477
H829	H	-0.244139	-0.661573	0.393312
H830	H	0.255861	-0.161573	0.893312
H831	H	-0.175359	-0.629445	0.309528
H832	H	0.324641	-0.129445	0.809528
H833	H	-0.200159	-0.662584	0.317353
H834	H	0.299841	-0.162584	0.817353
O835	O	-0.231444	-0.618660	0.462990
O836	O	0.268556	-0.118660	0.962990
C837	C	-0.218977	-0.669908	0.484254
C838	C	0.281023	-0.169908	0.984254
H839	H	-0.204872	-0.686410	0.455114
H840	H	0.295128	-0.186410	0.955114
H841	H	-0.189320	-0.685090	0.500475
H842	H	0.310680	-0.185090	1.000475
C843	C	-0.281797	-0.662822	0.560727
C844	C	0.218203	-0.162822	1.060727
C845	C	-0.264477	-0.683089	0.524936
C846	C	0.235523	-0.183089	1.024936
H847	H	-0.309862	-0.670954	0.585823
H848	H	0.190138	-0.170954	1.085823
H849	H	-0.290195	-0.628296	0.546401
H850	H	0.209805	-0.128296	1.046401
H851	H	-0.257078	-0.675476	0.574238
H852	H	0.242922	-0.175476	1.074238
H853	H	-0.289192	-0.670431	0.511422
H854	H	0.210808	-0.170431	1.011422
H855	H	-0.256084	-0.717614	0.539260
H856	H	0.243916	-0.217614	1.039260
H857	H	-0.134369	-0.571905	0.272603
H858	H	0.365631	-0.071905	0.772603
H859	H	-0.090949	-0.534065	0.310634
H860	H	0.409051	-0.034065	0.810634
