data_functionalizedCrystal
_audit_creation_method	'MofGen! by Chris Wilmer'
_symmetry_space_group_name_H-M	'P1'
_symmetry_Int_Tables_number	1
_symmetry_cell_setting	triclinic
loop_
_symmetry_equiv_pos_as_xyz
  x,y,z
_cell_length_a	10.723023
_cell_length_b	12.811415
_cell_length_c	9.798715
_cell_angle_alpha	84.565994
_cell_angle_beta	89.996770
_cell_angle_gamma	84.254534
loop_
_atom_site_label
_atom_site_type_symbol
_atom_site_fract_x
_atom_site_fract_y
_atom_site_fract_z
O1	O	1.656454	0.147212	-0.131694
O2	O	1.293232	0.161304	-0.133443
O3	O	1.483981	0.001531	-0.113660
O4	O	1.465706	0.306985	-0.151477
O5	O	1.483966	0.001531	0.113322
O6	O	1.293218	0.161304	0.093539
O7	O	1.656440	0.147211	0.095288
Zn8	Zn	1.474827	0.154257	0.130452
Zn9	Zn	1.474845	0.154258	-0.168607
O10	O	1.465691	0.306984	0.075506
C11	C	1.246730	0.160279	-0.019826
C12	C	1.108191	0.157211	-0.019448
C13	C	1.046418	0.155843	0.098303
C14	C	0.903231	0.152672	0.098696
C15	C	1.482949	-0.037580	0.004670
C16	C	1.479882	-0.154120	0.019089
C17	C	1.474112	-0.373100	-0.201300
C18	C	1.471230	-0.482600	-0.187758
C19	C	1.471228	-0.482621	0.059713
C20	C	1.474110	-0.373121	0.046171
C21	C	1.475553	-0.318365	-0.084339
C22	C	1.478444	-0.208864	-0.097880
C23	C	1.478433	-0.208886	0.149590
C24	C	1.475551	-0.318386	0.163132
C25	C	1.702942	0.148237	-0.018332
C26	C	1.841481	0.151305	-0.018718
C27	C	1.466723	0.346096	-0.042828
C28	C	1.469790	0.462636	-0.057256
N29	N	1.474823	0.154257	0.334552
N30	N	1.474859	0.154251	-0.372706
C31	C	1.554915	0.086877	0.410672
C32	C	1.554935	0.086873	0.567835
H33	H	1.055072	0.156032	-0.119969
C34	C	1.480028	-0.148628	-0.241437
C35	C	1.373781	-0.062207	-0.286146
C36	C	1.375360	-0.001975	-0.429707
C37	C	1.483186	-0.028164	-0.528558
C38	C	1.589441	-0.114590	-0.483850
C39	C	1.587862	-0.174822	-0.340290
H40	H	1.293955	-0.042816	-0.212969
H41	H	1.296703	0.062003	-0.462802
H42	H	1.484355	0.016423	-0.634830
H43	H	1.669268	-0.133980	-0.557028
H44	H	1.666520	-0.238800	-0.307195
H45	H	0.850107	0.151502	0.199508
H46	H	0.894595	0.152487	-0.119537
C47	C	1.647535	0.008944	0.341545
C48	C	1.647268	0.008957	0.184387
C49	C	1.739892	-0.068980	0.115266
C50	C	1.832784	-0.146929	0.203304
C51	C	1.833054	-0.146945	0.360470
C52	C	1.740430	-0.069008	0.429591
H53	H	1.578501	0.066662	0.119209
H54	H	1.739691	-0.068968	-0.001079
H55	H	1.901350	-0.204622	0.152136
H56	H	1.901821	-0.204650	0.425649
H57	H	1.740631	-0.069021	0.545937
H58	H	1.406263	0.211937	0.385734
H59	H	1.099539	0.157013	0.198825
H60	H	1.479612	-0.164309	0.244828
H61	H	1.623509	0.029190	0.633262
H62	H	1.470051	-0.527160	-0.283000
C63	C	1.469610	-0.542888	0.203247
C64	C	1.359378	-0.607024	0.245142
C65	C	1.357749	-0.667303	0.388670
C66	C	1.466353	-0.663445	0.490303
C67	C	1.576594	-0.599305	0.448410
C68	C	1.578222	-0.539027	0.304883
H69	H	1.278976	-0.609883	0.169905
H70	H	1.276141	-0.714783	0.419681
H71	H	1.465148	-0.708067	0.596551
H72	H	1.656996	-0.596447	0.523647
H73	H	1.659830	-0.491547	0.273872
H74	H	1.406290	0.211944	0.561874
H75	H	1.475298	-0.328517	-0.307567
H76	H	1.474371	-0.362983	0.269390
