data_functionalizedCrystal
_audit_creation_method	'MofGen! by Chris Wilmer'
_symmetry_space_group_name_H-M	'P1'
_symmetry_Int_Tables_number	1
_symmetry_cell_setting	triclinic
loop_
_symmetry_equiv_pos_as_xyz
  x,y,z
_cell_length_a	14.971494
_cell_length_b	15.944499
_cell_length_c	14.048226
_cell_angle_alpha	89.990949
_cell_angle_beta	89.995286
_cell_angle_gamma	83.547584
loop_
_atom_site_label
_atom_site_type_symbol
_atom_site_fract_x
_atom_site_fract_y
_atom_site_fract_z
O1	O	0.115141	1.114666	-0.079214
O2	O	0.615141	1.614666	0.420786
O3	O	0.129412	0.870125	-0.079203
O4	O	0.629412	1.370125	0.420797
O5	O	-0.007931	0.998946	-0.079207
O6	O	0.492069	1.498946	0.420793
O7	O	0.252484	0.985845	-0.079210
O8	O	0.752484	1.485845	0.420790
O9	O	-0.007939	0.998931	0.079115
O10	O	0.492061	1.498931	0.579115
O11	O	0.129404	0.870109	0.079118
O12	O	0.629404	1.370109	0.579118
O13	O	0.115133	1.114651	0.079107
O14	O	0.615133	1.614651	0.579107
Zn15	Zn	0.122267	0.992377	0.104250
Zn16	Zn	0.622267	1.492377	0.604250
Zn17	Zn	0.122278	0.992398	-0.104345
Zn18	Zn	0.622278	1.492398	0.395655
O19	O	0.252476	0.985829	0.079111
O20	O	0.752476	1.485829	0.579111
C21	C	0.128824	0.838822	-0.000041
C22	C	0.628824	1.338822	0.499959
C23	C	0.127072	0.745572	-0.000037
C24	C	0.627072	1.245572	0.499963
C25	C	0.206865	0.454114	-0.000052
C26	C	0.706865	0.954114	0.499948
C27	C	0.165391	0.515110	-0.078114
C28	C	0.665391	1.015110	0.421886
C29	C	0.120708	0.409929	-0.000059
C30	C	0.620708	0.909929	0.499941
C31	C	0.165359	0.515081	0.077978
C32	C	0.665359	1.015081	0.577978
C33	C	0.123840	0.574841	-0.000046
C34	C	0.623840	1.074841	0.499954
C35	C	0.079210	0.469697	-0.078185
C36	C	0.579210	0.969697	0.421815
C37	C	0.079191	0.469661	0.077978
C38	C	0.579191	0.969661	0.577978
C39	C	0.037654	0.530640	-0.000103
C40	C	0.537654	1.030640	0.499897
C41	C	0.118907	0.314927	-0.000067
C42	C	0.618907	0.814927	0.499933
C43	C	0.125634	0.669841	-0.000045
C44	C	0.625634	1.169841	0.499955
C45	C	-0.041259	0.998351	-0.000047
C46	C	0.458741	1.498351	0.499953
C47	C	-0.140554	0.996592	-0.000052
C48	C	0.359446	1.496592	0.499948
C49	C	-0.187193	0.995775	-0.086354
C50	C	0.312807	1.495775	0.413646
C51	C	-0.280490	0.994117	-0.086355
C52	C	0.219510	1.494117	0.413645
C53	C	-0.327147	0.993280	-0.000053
C54	C	0.172853	1.493280	0.499947
C55	C	-0.280501	0.994094	0.086256
C56	C	0.219499	1.494094	0.586256
C57	C	-0.187204	0.995747	0.086256
C58	C	0.312796	1.495747	0.586256
C59	C	-0.474959	0.990651	0.086250
C60	C	0.025041	1.490651	0.586250
C61	C	-0.568262	0.989000	0.086250
C62	C	-0.068262	1.489000	0.586250
C63	C	-0.568245	0.989021	-0.086361
C64	C	-0.068245	1.489021	0.413639
C65	C	-0.474949	0.990674	-0.086361
C66	C	0.025051	1.490674	0.413639
C67	C	-0.428309	0.991489	-0.000052
C68	C	0.071691	1.491489	0.499948
C69	C	0.285804	0.986424	-0.000050
C70	C	0.785804	1.486424	0.499950
C71	C	0.385099	0.988184	-0.000052
C72	C	0.885099	1.488184	0.499948
C73	C	0.115721	1.145954	-0.000057
C74	C	0.615721	1.645954	0.499943
C75	C	0.117473	1.239204	-0.000067
C76	C	0.617473	1.739204	0.499933
N77	N	0.122259	0.992370	0.246610
N78	N	0.622259	1.492370	0.746610
N79	N	0.122279	0.992412	-0.246706
N80	N	0.622279	1.492412	0.253294
C81	C	0.061469	1.049430	0.296427
C82	C	0.561469	1.549430	0.796427
C83	C	0.061468	1.049435	0.396085
C84	C	0.561468	1.549435	0.896085
C85	C	0.122263	0.992384	0.445924
C86	C	0.622263	1.492384	0.945924
C87	C	0.183057	0.935318	0.396101
C88	C	0.683057	1.435318	0.896101
C89	C	0.183052	0.935309	0.296445
C90	C	0.683052	1.435309	0.796445
C91	C	0.183063	0.935342	0.603815
C92	C	0.683063	1.435342	1.103815
C93	C	0.183069	0.935352	0.703478
C94	C	0.683069	1.435352	1.203478
C95	C	0.061479	1.049469	0.703455
C96	C	0.561479	1.549469	1.203455
C97	C	0.061475	1.049460	0.603799
C98	C	0.561475	1.549460	1.103799
C99	C	0.122270	0.992394	0.553982
C100	C	0.622270	1.492394	1.053982
H101	H	0.201838	0.535250	-0.144106
H102	H	0.701838	1.035250	0.355894
N103	N	0.030981	0.443205	-0.165699
N104	N	0.530981	0.943205	0.334301
H105	H	0.030097	0.379961	-0.165178
H106	H	0.530097	0.879961	0.334822
H107	H	0.063308	0.460175	-0.224539
H108	H	0.563308	0.960175	0.275461
N109	N	0.248628	0.873788	0.449860
N110	N	0.748628	1.373788	0.949860
H111	H	0.312115	0.883521	0.432502
H112	H	0.812115	1.383521	0.932502
H113	H	0.238219	0.814189	0.432520
H114	H	0.738219	1.314189	0.932520
N115	N	0.301569	0.410045	-0.000143
N116	N	0.801569	0.910045	0.499857
H117	H	0.345745	0.453481	-0.000792
H118	H	0.845745	0.953481	0.499208
H119	H	0.310895	0.373165	-0.058542
H120	H	0.810895	0.873165	0.441458
H121	H	-0.606223	0.988356	-0.156637
H122	H	-0.106223	1.488356	0.343363
N123	N	-0.057143	0.574490	-0.000160
N124	N	0.442857	1.074490	0.499840
H125	H	-0.066679	0.611342	-0.058575
H126	H	0.433321	1.111342	0.441425
H127	H	-0.067020	0.610527	0.058839
H128	H	0.432980	1.110527	0.558839
N129	N	0.248614	0.873762	0.242709
N130	N	0.748614	1.373762	0.742709
H131	H	0.287129	0.837621	0.289402
H132	H	0.787129	1.337621	0.789402
H133	H	0.288173	0.905949	0.201342
H134	H	0.788173	1.405949	0.701342
H135	H	0.042777	0.449502	0.143976
H136	H	0.542777	0.949502	0.643976
H137	H	0.011967	1.095897	0.436645
H138	H	0.511967	1.595897	0.936645
N139	N	0.213638	0.541710	0.165396
N140	N	0.713638	1.041710	0.665396
H141	H	0.171298	0.581730	0.204512
H142	H	0.671298	1.081730	0.704512
H143	H	0.267104	0.570906	0.145402
H144	H	0.767104	1.070906	0.645402
H145	H	-0.149212	0.996461	-0.156631
H146	H	0.350788	1.496461	0.343369
N147	N	0.248636	0.873799	0.550078
N148	N	0.748636	1.373799	1.050078
H149	H	0.214436	0.836571	0.508748
H150	H	0.714436	1.336571	1.008748
H151	H	0.287138	0.837717	0.596830
H152	H	0.787138	1.337717	1.096830
H153	H	-0.318460	0.993455	-0.156631
H154	H	0.181540	1.493455	0.343369
H155	H	-0.436964	0.991361	-0.156636
H156	H	0.063036	1.491361	0.343364
H157	H	-0.436986	0.991297	0.156532
H158	H	0.063014	1.491297	0.656532
N159	N	-0.618594	0.988102	0.179326
N160	N	-0.118594	1.488102	0.679326
H161	H	-0.595117	0.936352	0.217062
H162	H	-0.095117	1.436352	0.717062
H163	H	-0.684760	0.986970	0.166136
H164	H	-0.184760	1.486970	0.666136
N165	N	-0.330820	0.993202	0.179340
N166	N	0.169180	1.493202	0.679340
H167	H	-0.362281	0.940491	0.183195
H168	H	0.137719	1.440491	0.683195
H169	H	-0.376733	1.044587	0.183118
H170	H	0.123267	1.544587	0.683118
N171	N	-0.136895	0.996623	0.179338
N172	N	0.363105	1.496623	0.679338
H173	H	-0.180607	0.995844	0.234011
H174	H	0.319393	1.495844	0.734011
H175	H	-0.105441	1.049339	0.183098
H176	H	0.394559	1.549339	0.683098
N177	N	-0.004098	1.110969	0.242675
N178	N	0.495902	1.610969	0.742675
H179	H	-0.042610	1.147116	0.289359
H180	H	0.457390	1.647116	0.789359
H181	H	-0.043660	1.078772	0.201342
H182	H	0.456340	1.578772	0.701342
N183	N	-0.004089	1.110997	0.550040
N184	N	0.495911	1.610997	1.050040
H185	H	-0.042603	1.147148	0.596718
H186	H	0.457397	1.647148	1.096718
H187	H	-0.043648	1.078797	0.508707
H188	H	0.456352	1.578797	1.008707
N189	N	-0.004092	1.111021	0.757178
N190	N	0.495908	1.611021	1.257178
H191	H	0.005131	1.102370	0.827872
H192	H	0.505131	1.602370	1.327872
H193	H	-0.067553	1.101260	0.739768
H194	H	0.432447	1.601260	1.239768
H195	H	0.232574	0.888895	0.744052
H196	H	0.732574	1.388895	1.244052
