data_functionalizedCrystal
_audit_creation_method	'MofGen! by Chris Wilmer'
_symmetry_space_group_name_H-M	'P1'
_symmetry_Int_Tables_number	1
_symmetry_cell_setting	triclinic
loop_
_symmetry_equiv_pos_as_xyz
  x,y,z
_cell_length_a	14.519731
_cell_length_b	13.596369
_cell_length_c	10.654549
_cell_angle_alpha	90.004993
_cell_angle_beta	84.086815
_cell_angle_gamma	90.005416
loop_
_atom_site_label
_atom_site_type_symbol
_atom_site_fract_x
_atom_site_fract_y
_atom_site_fract_z
O1	O	1.224710	0.081791	0.164753
O2	O	0.956337	0.081793	0.184111
O3	O	1.096694	0.081788	-0.008366
O4	O	1.084353	0.081796	0.357230
O5	O	1.096680	-0.081795	-0.008376
O6	O	0.956322	-0.081790	0.184101
O7	O	1.224696	-0.081792	0.164742
Zn8	Zn	1.090507	-0.107763	0.174420
Zn9	Zn	1.090526	0.107764	0.174434
O10	O	1.084339	-0.081787	0.357220
C11	C	0.921965	0.000001	0.183199
C12	C	0.819571	0.000002	0.180481
C13	C	0.736415	0.000006	0.178272
C14	C	0.632092	0.000006	0.175513
C15	C	0.548942	0.000006	0.173322
C16	C	0.444612	0.000008	0.170563
N17	N	1.090501	-0.254855	0.174410
C18	C	1.090524	-0.656146	0.174435
C19	C	1.090515	-0.544495	0.174432
C20	C	1.090513	-0.455504	0.174424
C21	C	1.090503	-0.343846	0.174419
C22	C	1.259067	0.000002	0.165655
C23	C	1.361462	0.000008	0.168373
C24	C	1.095781	-0.000003	-0.055160
C25	C	1.093070	0.000001	-0.194578
N26	N	1.090539	0.254856	0.174434
C27	C	1.173156	0.000007	-0.405854
C28	C	1.175710	-0.000001	-0.274858
C29	C	1.007870	-0.000000	-0.245300
C30	C	1.005317	0.000001	-0.376294
C31	C	1.085252	0.000006	0.404014
C32	C	1.087963	0.000009	0.543432
H33	H	1.240452	0.000014	-0.471211
O34	O	0.927566	-0.000171	-0.167373
C35	C	0.784856	-0.084875	-0.102091
C36	C	0.875776	-0.084822	-0.190389
H37	H	0.742949	-0.153297	-0.120686
H38	H	0.801256	-0.084934	0.000272
H39	H	0.743021	-0.016382	-0.120551
H40	H	0.917656	-0.153303	-0.172041
H41	H	0.859311	-0.084711	-0.292722
O42	O	1.258546	0.000044	-0.225804
C43	C	1.424751	-0.000010	-0.268954
C44	C	1.331000	-0.000036	-0.324674
H45	H	1.483354	-0.000095	-0.348863
H46	H	1.430211	0.068463	-0.208399
H47	H	1.430090	-0.068455	-0.208334
H48	H	1.325598	0.068364	-0.385351
H49	H	1.325581	-0.068554	-0.385156
O50	O	0.922531	0.000179	-0.425504
C51	C	0.778283	0.084896	-0.440262
C52	C	0.872008	0.084833	-0.384472
H53	H	0.737400	0.153321	-0.407088
H54	H	0.790601	0.084958	-0.547681
H55	H	0.737434	0.016406	-0.407248
H56	H	0.912905	0.153312	-0.417389
H57	H	0.859624	0.084721	-0.277059
