data_functionalizedCrystal
_audit_creation_method	'MofGen! by Chris Wilmer'
_symmetry_space_group_name_H-M	'P1'
_symmetry_Int_Tables_number	1
_symmetry_cell_setting	triclinic
loop_
_symmetry_equiv_pos_as_xyz
  x,y,z
_cell_length_a	15.944499
_cell_length_b	15.021413
_cell_length_c	14.044190
_cell_angle_alpha	90.004310
_cell_angle_beta	88.334693
_cell_angle_gamma	89.995782
loop_
_atom_site_label
_atom_site_type_symbol
_atom_site_fract_x
_atom_site_fract_y
_atom_site_fract_z
O1	O	1.123677	0.074096	0.122009
O2	O	0.880254	0.074087	0.137132
O3	O	0.998308	0.074074	-0.008414
O4	O	1.005622	0.074109	0.267555
O5	O	0.998324	-0.073990	-0.008405
O6	O	0.880270	-0.073977	0.137141
O7	O	1.123692	-0.073968	0.122018
Zn8	Zn	1.001983	-0.097481	0.129581
Zn9	Zn	1.001963	0.097600	0.129569
O10	O	1.005638	-0.073955	0.267564
C11	C	0.848921	0.000054	0.136517
C12	C	0.755533	0.000050	0.134661
C13	C	0.470331	0.000074	0.219219
C14	C	0.528060	0.073073	0.175259
C15	C	0.419392	0.000070	0.127917
C16	C	0.528059	-0.072906	0.175244
C17	C	0.584549	0.000058	0.131236
C18	C	0.475891	0.073129	0.083932
C19	C	0.475885	-0.072916	0.083929
C20	C	0.533591	0.000101	0.039902
C21	C	0.324249	0.000077	0.126008
C22	C	0.679690	0.000058	0.133138
N23	N	1.002004	-0.230618	0.129588
C24	C	1.056603	-0.470284	0.062273
C25	C	0.979323	-0.529619	0.043875
C26	C	1.001983	-0.412225	0.129576
C27	C	1.079240	-0.529633	0.147918
C28	C	1.001970	-0.587649	0.129563
C29	C	0.924662	-0.470253	0.111136
C30	C	1.024632	-0.470262	0.215217
C31	C	0.947300	-0.529570	0.196856
C32	C	1.001992	-0.311168	0.129582
C33	C	1.001953	-0.688705	0.129558
C34	C	1.155026	0.000067	0.122632
C35	C	1.248413	0.000077	0.124489
C36	C	0.995117	0.000039	-0.043723
C37	C	0.985573	0.000031	-0.148948
N38	N	1.001949	0.230738	0.129554
C39	C	1.035811	0.000068	-0.399242
C40	C	0.968139	0.000059	-0.341603
C41	C	0.977841	0.000044	-0.234400
C42	C	1.026110	0.000083	-0.506455
C43	C	1.008829	0.000082	0.302873
C44	C	1.018373	0.000096	0.408098
H45	H	0.551035	-0.134619	0.213880
H46	H	1.101030	0.000061	-0.368078
H47	H	0.902915	0.000062	-0.372769
O48	O	0.892247	-0.560480	0.264855
C49	C	0.873108	-0.647181	0.408194
C50	C	0.935550	-0.612215	0.331267
H51	H	0.908091	-0.689031	0.461896
H52	H	0.841486	-0.588580	0.446300
H53	H	0.823502	-0.689869	0.373289
H54	H	0.985205	-0.569541	0.366096
H55	H	0.967109	-0.670857	0.293167
O56	O	0.956593	-0.560690	-0.042596
C57	C	0.988427	-0.565694	-0.211293
C58	C	1.014266	-0.530467	-0.113421
H59	H	1.035032	-0.541257	-0.268584
H60	H	0.988084	-0.641582	-0.210309
H61	H	0.922990	-0.540270	-0.227450
H62	H	1.079709	-0.555825	-0.097204
H63	H	1.014550	-0.454580	-0.114455
O64	O	0.846742	-0.439127	0.092501
C65	C	0.759315	-0.310134	0.071678
C66	C	0.847602	-0.345267	0.092765
H67	H	0.759977	-0.234245	0.071905
H68	H	0.739864	-0.335043	-0.001114
H69	H	0.712724	-0.335117	0.128706
H70	H	0.894253	-0.320299	0.035798
H71	H	0.866982	-0.320365	0.165586
O72	O	1.047668	-0.439167	0.301559
C73	C	1.155163	-0.434134	0.418547
C74	C	1.129177	-0.469393	0.320742
H75	H	1.221058	-0.458573	0.434096
H76	H	1.154403	-0.358247	0.417944
H77	H	1.109232	-0.459532	0.476043
H78	H	1.175084	-0.444061	0.263192
H79	H	1.129913	-0.545280	0.321426
O80	O	1.157257	-0.560608	0.166350
C81	C	1.303000	-0.565614	0.116206
C82	C	1.214690	-0.530485	0.095227
H83	H	1.349456	-0.541288	0.058705
H84	H	1.322792	-0.540123	0.188641
H85	H	1.302115	-0.641499	0.116774
H86	H	1.215507	-0.454602	0.094609
H87	H	1.194933	-0.556043	0.022807
H88	H	1.102737	-0.444252	0.005324
H89	H	0.442676	0.000154	0.294991
H90	H	0.453015	0.134914	0.045347
O91	O	0.555376	0.146684	0.221448
C92	C	0.516982	0.281380	0.305102
C93	C	0.485911	0.198082	0.252788
H94	H	0.460837	0.322968	0.330438
H95	H	0.554652	0.260265	0.369065
H96	H	0.558472	0.322606	0.254466
H97	H	0.444389	0.156819	0.303349
H98	H	0.448288	0.219258	0.188813
O99	O	0.566507	0.000254	-0.050524
C100	C	0.654017	0.076673	-0.166959
C101	C	0.616812	0.076595	-0.064523
H102	H	0.694683	0.138398	-0.178316
H103	H	0.693929	0.014464	-0.178820
H104	H	0.600925	0.077242	-0.219602
H105	H	0.669850	0.076057	-0.011816
H106	H	0.576879	0.138799	-0.052742
O107	O	0.448471	-0.146644	0.038038
C108	C	0.443869	-0.306943	0.034255
C109	C	0.474952	-0.223512	0.086321
H110	H	0.465281	-0.369113	0.073259
H111	H	0.372429	-0.305940	0.032683
H112	H	0.470937	-0.307537	-0.041773
H113	H	0.447946	-0.222865	0.162371
H114	H	0.546395	-0.224548	0.087816
