data_functionalizedCrystal
_audit_creation_method	'MofGen! by Chris Wilmer'
_symmetry_space_group_name_H-M	'P1'
_symmetry_Int_Tables_number	1
_symmetry_cell_setting	triclinic
loop_
_symmetry_equiv_pos_as_xyz
  x,y,z
_cell_length_a	21.295417
_cell_length_b	13.033286
_cell_length_c	13.032268
_cell_angle_alpha	74.836591
_cell_angle_beta	82.859352
_cell_angle_gamma	82.861304
loop_
_atom_site_label
_atom_site_type_symbol
_atom_site_fract_x
_atom_site_fract_y
_atom_site_fract_z
Zn1	Zn	-0.398973	1.547324	0.393846
Zn2	Zn	0.101027	2.047324	0.893846
Zn3	Zn	-0.492380	1.569745	0.216237
Zn4	Zn	0.007620	2.069745	0.716237
Zn5	Zn	-0.375296	1.392283	0.238859
Zn6	Zn	0.124704	1.892283	0.738859
Zn7	Zn	-0.492355	1.369660	0.416391
Zn8	Zn	0.007645	1.869660	0.916391
O9	O	-0.439751	1.469753	0.316333
O10	O	0.060249	1.969753	0.816333
O11	O	-0.421283	1.698920	0.351384
O12	O	0.078717	2.198920	0.851384
O13	O	-0.466949	1.565055	0.070610
O14	O	0.033051	2.065055	0.570610
O15	O	-0.290356	1.412935	0.259451
O16	O	0.209644	1.912935	0.759451
O17	O	-0.489909	1.715393	0.220895
O18	O	0.010091	2.215393	0.720895
O19	O	-0.307752	1.526843	0.373320
O20	O	0.192248	2.026843	0.873320
O21	O	-0.380929	1.434675	0.087231
O22	O	0.119071	1.934675	0.587231
O23	O	-0.380905	1.240660	0.281312
O24	O	0.119095	1.740660	0.781312
O25	O	-0.489866	1.374376	0.562028
O26	O	0.010134	1.874376	1.062028
O27	O	-0.466907	1.224039	0.411743
O28	O	0.033093	1.724039	0.911743
O29	O	-0.421259	1.504906	0.545465
O30	O	0.078741	2.004906	1.045465
O31	O	-0.580457	1.543118	0.242755
O32	O	-0.080457	2.043118	0.742755
O33	O	-0.580439	1.396116	0.389807
O34	O	-0.080439	1.896116	0.889807
C35	C	-0.421334	1.193813	0.351429
C36	C	0.078666	1.693813	0.851429
C37	C	-0.413473	1.075762	0.366469
C38	C	0.086527	1.575762	0.866469
C39	C	-0.443856	1.031294	0.308511
C40	C	0.056144	1.531294	0.808511
C41	C	-0.435731	0.909282	0.324053
C42	C	0.064269	1.409282	0.824053
C43	C	-0.603289	1.469621	0.316292
C44	C	-0.103289	1.969621	0.816292
C45	C	-0.673261	1.469658	0.316298
C46	C	-0.173261	1.969658	0.816298
C47	C	-0.706125	1.546253	0.239790
C48	C	-0.206125	2.046253	0.739790
C49	C	-0.771872	1.546300	0.239807
C50	C	-0.271872	2.046300	0.739807
C51	C	-0.804751	1.469733	0.316324
C52	C	-0.304751	1.969733	0.816324
C53	C	-0.771880	1.393132	0.392846
C54	C	-0.271880	1.893132	0.892846
C55	C	-0.706135	1.393094	0.392833
C56	C	-0.206135	1.893094	0.892833
N57	N	-0.902360	1.375796	0.336238
N58	N	-0.402360	1.875796	0.836238
N59	N	-0.964815	1.375836	0.336244
N60	N	-0.464815	1.875836	0.836244
C61	C	-1.002838	1.469845	0.316370
C62	C	-0.502838	1.969845	0.816370
N63	N	-0.976044	1.563816	0.296469
N64	N	-0.476044	2.063816	0.796469
N65	N	-0.913583	1.563776	0.296457
N66	N	-0.413583	2.063776	0.796457
C67	C	-0.876041	1.469767	0.316347
C68	C	-0.376041	1.969767	0.816347
C69	C	-1.106993	1.546497	0.239876
C70	C	-0.606993	2.046497	0.739876
C71	C	-1.172742	1.546545	0.239901
C72	C	-0.672742	2.046545	0.739901
C73	C	-1.172747	1.393368	0.392936
C74	C	-0.672747	1.893368	0.892936
C75	C	-1.107000	1.393329	0.392915
C76	C	-0.607000	1.893329	0.892915
C77	C	-1.074126	1.469893	0.316380
C78	C	-0.574126	1.969893	0.816380
C79	C	-0.275577	1.469911	0.316394
C80	C	0.224423	1.969911	0.816394
C81	C	-0.205616	1.469979	0.316420
C82	C	0.294384	1.969979	0.816420
C83	C	-0.458201	1.434616	0.593361
C84	C	0.041799	1.934616	1.093361
C85	C	-0.466064	1.419643	0.711414
C86	C	0.033936	1.919643	1.211414
C87	C	-0.458240	1.746770	0.281101
C88	C	0.041760	2.246770	0.781101
C89	C	-0.466119	1.864818	0.266087
C90	C	0.033881	2.364818	0.766087
C91	C	-0.421331	1.504814	0.040375
C92	C	0.078669	2.004814	0.540375
C93	C	-0.413305	1.519993	-0.077703
C94	C	0.086695	2.019993	0.422297
C95	C	-0.435624	1.477551	0.755851
C96	C	0.064376	1.977551	1.255851
C97	C	-0.443749	1.462077	0.877864
C98	C	0.056251	1.962077	1.377864
H99	H	-0.475886	1.083552	0.247387
H100	H	0.024114	1.583552	0.747387
Br101	Br	-0.359846	1.621742	0.835165
Br102	Br	0.140154	2.121742	1.335165
H103	H	-0.798654	1.330793	0.455149
H104	H	-0.298654	1.830793	0.955149
H105	H	-0.403704	0.857027	0.385188
H106	H	0.096296	1.357027	0.885188
H107	H	-0.498154	0.917071	0.204964
H108	H	0.001846	1.417071	0.704964
Br109	Br	-0.360095	0.988671	0.468364
Br110	Br	0.139905	1.488671	0.968364
Br111	Br	-0.661531	1.289136	0.496675
Br112	Br	-0.161531	1.789136	0.996675
H113	H	-1.199499	1.608924	0.177600
H114	H	-0.699499	2.108924	0.677600
H115	H	-1.199517	1.331030	0.455242
H116	H	-0.699517	1.831030	0.955242
Br117	Br	-0.519523	1.317904	0.798552
Br118	Br	-0.019523	1.817904	1.298552
Br119	Br	-0.661515	1.650173	0.135934
Br120	Br	-0.161515	2.150173	0.635934
H121	H	-0.798635	1.608677	0.177505
H122	H	-0.298635	2.108677	0.677505
H123	H	-1.080226	1.608843	0.177560
H124	H	-0.580226	2.108843	0.677560
Br125	Br	-0.497211	1.360334	0.964999
Br126	Br	0.002789	1.860334	1.464999
H127	H	-0.403545	1.538580	0.703565
H128	H	0.096455	2.038580	1.203565
Br129	Br	-1.062396	1.289370	0.496752
Br130	Br	-0.562396	1.789370	0.996752
