data_functionalizedCrystal
_audit_creation_method	'MofGen! by Chris Wilmer'
_symmetry_space_group_name_H-M	'P1'
_symmetry_Int_Tables_number	1
_symmetry_cell_setting	triclinic
loop_
_symmetry_equiv_pos_as_xyz
  x,y,z
_cell_length_a	10.654541
_cell_length_b	14.853559
_cell_length_c	9.130307
_cell_angle_alpha	89.999355
_cell_angle_beta	89.999672
_cell_angle_gamma	84.057691
loop_
_atom_site_label
_atom_site_type_symbol
_atom_site_fract_x
_atom_site_fract_y
_atom_site_fract_z
O1	O	1.666518	0.126614	-0.121747
O2	O	1.300913	0.138680	-0.121759
O3	O	1.493487	0.001469	-0.121751
O4	O	1.473944	0.263825	-0.121755
O5	O	1.493480	0.001469	0.121848
O6	O	1.300906	0.138680	0.121840
O7	O	1.666511	0.126614	0.121852
Cu8	Cu	1.483708	0.132647	0.144089
Cu9	Cu	1.483716	0.132647	-0.143995
O10	O	1.473937	0.263825	0.121844
C11	C	1.254121	0.137795	0.000039
C12	C	1.114705	0.135146	0.000034
C13	C	1.492600	-0.032124	0.000046
C14	C	1.489952	-0.132223	0.000038
C15	C	1.085023	0.299219	0.000014
C16	C	1.004686	0.380007	-0.000003
C17	C	0.873694	0.377512	-0.000004
C18	C	0.823037	0.294220	0.000015
C19	C	0.903374	0.213432	0.000032
C20	C	1.034368	0.215936	0.000029
C21	C	0.933056	0.049361	0.000063
C22	C	1.064049	0.051854	0.000053
C23	C	0.882400	-0.033931	0.000082
C24	C	0.962737	-0.114722	0.000088
C25	C	1.093737	-0.112223	0.000087
C26	C	1.144386	-0.028935	0.000070
C27	C	1.478723	-0.555458	-0.132749
C28	C	1.478716	-0.555453	0.132832
C29	C	1.481214	-0.461406	0.132834
C30	C	1.482465	-0.414381	0.000042
C31	C	1.481218	-0.461402	-0.132752
C32	C	1.482448	-0.414376	0.265624
C33	C	1.484945	-0.320324	0.265631
C34	C	1.486205	-0.273298	0.132837
C35	C	1.484960	-0.320325	0.000039
C36	C	1.486211	-0.273300	-0.132753
C37	C	1.484974	-0.320326	-0.265553
C38	C	1.482478	-0.414376	-0.265545
C39	C	1.488701	-0.179248	0.132829
C40	C	1.488705	-0.179244	-0.132756
C41	C	1.713304	0.127500	0.000051
C42	C	1.852719	0.130149	0.000046
C43	C	1.474824	0.297419	0.000044
C44	C	1.477472	0.397517	0.000043
N45	N	1.483712	0.132647	0.346712
C46	C	1.654305	0.011182	0.346709
C47	C	1.739610	-0.049548	0.423374
C48	C	1.739622	-0.049547	0.576707
C49	C	1.654318	0.011187	0.653379
C50	C	1.569013	0.071916	0.576714
C51	C	1.569012	0.071911	0.423377
C52	C	1.398415	0.193375	0.576717
C53	C	1.398407	0.193381	0.423383
C54	C	1.313111	0.254110	0.653388
C55	C	1.227810	0.314845	0.576723
C56	C	1.227802	0.314843	0.423381
C57	C	1.313102	0.254110	0.346718
N58	N	1.483720	0.132646	0.653382
H59	H	1.191682	0.301258	-0.000018
H60	H	1.159141	-0.178011	0.000106
H61	H	1.158356	0.364287	0.639159
H62	H	1.654322	0.011176	0.778231
H63	H	1.251044	-0.026893	0.000052
Br64	Br	1.855369	-0.131976	0.319320
H65	H	0.808282	0.443297	-0.000007
Br66	Br	1.490373	-0.115429	0.313042
Br67	Br	1.855383	-0.131974	0.680757
Br68	Br	0.645261	0.290836	0.000046
Br69	Br	1.486614	-0.256509	0.445855
Br70	Br	0.704624	-0.037319	0.000093
Br71	Br	1.313113	0.254107	0.861485
H72	H	1.045945	0.447822	-0.000014
Br73	Br	0.893983	-0.227749	0.000132
H74	H	1.654314	0.011183	0.221856
Br75	Br	1.112014	0.397259	0.319349
H76	H	1.489730	-0.140963	-0.240892
H77	H	1.313108	0.254107	0.221866
H78	H	1.481470	-0.452673	-0.373664
Br79	Br	1.476990	-0.619270	0.313041
Br80	Br	1.477064	-0.619276	-0.312969
H81	H	1.485984	-0.282025	-0.373672
Br82	Br	1.480714	-0.478196	0.445830
