data_functionalizedCrystal
_audit_creation_method	'MofGen! by Chris Wilmer'
_symmetry_space_group_name_H-M	'P1'
_symmetry_Int_Tables_number	1
_symmetry_cell_setting	triclinic
loop_
_symmetry_equiv_pos_as_xyz
  x,y,z
_cell_length_a	14.908520
_cell_length_b	10.685972
_cell_length_c	10.686551
_cell_angle_alpha	98.409768
_cell_angle_beta	89.137942
_cell_angle_gamma	82.077935
loop_
_atom_site_label
_atom_site_type_symbol
_atom_site_fract_x
_atom_site_fract_y
_atom_site_fract_z
Zn1	Zn	-0.202254	-1.980592	-0.881887
Zn2	Zn	-0.365687	-1.951887	-0.681854
Zn3	Zn	-0.227358	-1.750132	-0.655225
Zn4	Zn	-0.365595	-1.756017	-0.877753
O5	O	-0.290224	-1.859657	-0.774180
O6	O	-0.213466	-2.155205	-0.868227
O7	O	-0.357882	-1.910648	-0.501479
O8	O	-0.097777	-1.790253	-0.675878
O9	O	-0.333540	-2.134115	-0.721264
O10	O	-0.079333	-1.959571	-0.842406
O11	O	-0.256252	-1.762419	-0.481914
O12	O	-0.256163	-1.572492	-0.671869
O13	O	-0.333383	-1.800284	-1.055145
O14	O	-0.357725	-1.576816	-0.835360
O15	O	-0.213377	-1.965278	-1.058182
O16	O	-0.491926	-1.916355	-0.717255
O17	O	-0.491858	-1.772450	-0.861181
C18	C	-0.309659	-1.528392	-0.750277
C19	C	-0.317993	-1.386676	-0.740083
C20	C	-0.524624	-1.841963	-0.791689
C21	C	-0.624892	-1.834513	-0.799230
C22	C	-0.813298	-1.970541	-0.663673
C23	C	-0.907508	-1.963545	-0.670755
C24	C	-0.907525	-1.813534	-0.820482
C25	C	-0.813314	-1.820530	-0.813400
C26	C	-0.766204	-1.899034	-0.734991
C27	C	-0.671992	-1.906022	-0.727904
C28	C	-0.672010	-1.756019	-0.877636
C29	C	-0.766220	-1.749023	-0.884718
C30	C	-0.054904	-1.877458	-0.756633
C31	C	0.045375	-1.885043	-0.749155
C32	C	-0.270569	-1.886639	-1.103799
C33	C	-0.262194	-1.898138	-1.244263
C34	C	-0.270707	-1.192216	-0.798171
C35	C	-0.262376	-1.333933	-0.808378
C36	C	-0.309732	-1.832858	-0.445844
C37	C	-0.317839	-1.821626	-0.305379
H38	H	-0.633637	-1.969941	-0.664056
O39	O	-0.190846	-1.417714	-0.896164
H40	H	-0.223936	-1.480597	-0.967713
H41	H	-0.945848	-2.021776	-0.612683
O42	O	-0.389522	-1.302886	-0.652286
H43	H	-0.385072	-1.200991	-0.657785
H44	H	-0.371889	-1.747328	-1.250245
O45	O	-0.190579	-1.996550	-1.317284
H46	H	-0.195004	-1.990430	-1.419850
H47	H	-0.774941	-2.034453	-0.599820
H48	H	-0.945897	-1.749629	-0.884327
H49	H	-0.804590	-1.685111	-0.948559
H50	H	-0.633656	-1.697789	-0.935705
