data_functionalizedCrystal
_audit_creation_method	'MofGen! by Chris Wilmer'
_symmetry_space_group_name_H-M	'P1'
_symmetry_Int_Tables_number	1
_symmetry_cell_setting	triclinic
loop_
_symmetry_equiv_pos_as_xyz
  x,y,z
_cell_length_a	15.500227
_cell_length_b	9.065218
_cell_length_c	17.019370
_cell_angle_alpha	84.203467
_cell_angle_beta	96.696782
_cell_angle_gamma	87.113422
loop_
_atom_site_label
_atom_site_type_symbol
_atom_site_fract_x
_atom_site_fract_y
_atom_site_fract_z
O1	O	0.063571	-1.963337	-0.112469
O2	O	0.563571	-1.463337	0.387531
O3	O	0.062863	-1.533727	-0.121992
O4	O	0.562863	-1.033727	0.378008
O5	O	0.071788	-1.761334	-0.002055
O6	O	0.571788	-1.261334	0.497945
O7	O	0.054645	-1.735730	-0.232407
O8	O	0.554645	-1.235730	0.267593
O9	O	-0.072640	-1.747523	-0.009304
O10	O	0.427360	-1.247523	0.490696
O11	O	-0.081565	-1.519916	-0.129241
O12	O	0.418435	-1.019916	0.370759
O13	O	-0.080857	-1.949525	-0.119719
O14	O	0.419143	-1.449525	0.380281
Cu15	Cu	-0.094399	-1.733459	-0.125142
Cu16	Cu	0.405601	-1.233459	0.374858
Cu17	Cu	0.076404	-1.749793	-0.116569
Cu18	Cu	0.576404	-1.249793	0.383431
O19	O	-0.089783	-1.721918	-0.239656
O20	O	0.410217	-1.221918	0.260344
C21	C	-0.009283	-1.471866	-0.124701
C22	C	0.490717	-0.971866	0.375299
C23	C	-0.009079	-1.308117	-0.121965
C24	C	0.490921	-0.808117	0.378035
N25	N	-0.214532	-1.721982	-0.131171
N26	N	0.285468	-1.221982	0.368829
C27	C	0.001772	-1.753730	0.023826
C28	C	0.501772	-1.253730	0.523826
C29	C	0.008320	-1.751630	0.111743
C30	C	0.508320	-1.251630	0.611743
C31	C	-0.256028	-1.818460	-0.080369
C32	C	0.243972	-1.318460	0.419631
C33	C	-0.346941	-1.809793	-0.084936
C34	C	0.153059	-1.309793	0.415064
C35	C	-0.396357	-1.704654	-0.140310
C36	C	0.103643	-1.204654	0.359690
C37	C	-0.354854	-1.608166	-0.191115
C38	C	0.145146	-1.108166	0.308885
C39	C	-0.263943	-1.616827	-0.186543
C40	C	0.236057	-1.116827	0.313457
C41	C	-0.671048	-1.673455	-0.156766
C42	C	-0.171048	-1.173455	0.343234
C43	C	-0.761966	-1.664804	-0.161336
C44	C	-0.261966	-1.164804	0.338664
C45	C	-0.754046	-1.866431	-0.055156
C46	C	-0.254046	-1.366431	0.444844
C47	C	-0.663134	-1.875088	-0.050592
C48	C	-0.163134	-1.375088	0.449408
C49	C	-0.621639	-1.778595	-0.101394
C50	C	-0.121639	-1.278595	0.398606
C51	C	-0.489284	-1.695796	-0.144982
C52	C	0.010716	-1.195796	0.355018
C53	C	-0.528713	-1.787447	-0.096718
C54	C	-0.028713	-1.287447	0.403282
N55	N	0.196538	-1.761282	-0.110533
N56	N	0.696538	-1.261282	0.389467
C57	C	-0.008710	-2.011387	-0.117009
C58	C	0.491290	-1.511387	0.382991
C59	C	-0.008908	-2.175137	-0.119745
C60	C	0.491092	-1.675137	0.380255
C61	C	-0.019765	-1.729523	-0.265537
C62	C	0.480235	-1.229523	0.234463
C63	C	-0.026307	-1.731624	-0.353454
C64	C	0.473693	-1.231624	0.146546
C65	C	-0.067327	-1.743111	0.149103
C66	C	0.432673	-1.243111	0.649103
C67	C	-0.061166	-1.741148	0.231712
C68	C	0.438834	-1.241148	0.731712
C69	C	0.020642	-1.747693	0.276959
C70	C	0.520642	-1.247693	0.776959
C71	C	0.096295	-1.756217	0.239594
C72	C	0.596295	-1.256217	0.739594
C73	C	0.090134	-1.758190	0.156987
C74	C	0.590134	-1.258190	0.656987
C75	C	0.043184	-1.742121	0.526575
C76	C	0.543184	-1.242121	1.026575
C77	C	0.049340	-1.740142	0.609187
C78	C	0.549340	-1.240142	1.109187
C79	C	-0.108123	-1.725077	0.601299
C80	C	0.391877	-1.225077	1.101299
C81	C	-0.114277	-1.727042	0.518691
C82	C	0.385723	-1.227042	1.018691
C83	C	-0.038624	-1.735573	0.481334
C84	C	0.461376	-1.235573	0.981334
C85	C	0.026941	-1.745682	0.361398
C86	C	0.526941	-1.245682	0.861398
C87	C	-0.044924	-1.737595	0.396897
C88	C	0.455076	-1.237595	0.896897
H89	H	-0.215800	-1.904081	-0.035281
H90	H	0.284200	-1.404081	0.464719
Br91	Br	-0.178359	-1.734216	0.087703
Br92	Br	0.321641	-1.234216	0.587703
Br93	Br	0.137965	-1.754581	0.422812
Br94	Br	0.637965	-1.254581	0.922812
H95	H	0.151734	-1.765128	0.126571
H96	H	0.651734	-1.265128	0.626571
Br97	Br	-0.614739	-1.542506	-0.225711
Br98	Br	-0.114739	-1.042506	0.274289
Br99	Br	-0.421914	-1.465463	-0.266261
Br100	Br	0.078086	-0.965463	0.233739
Br101	Br	-0.829025	-1.522109	-0.236496
Br102	Br	-0.329025	-1.022109	0.263504
H103	H	0.115962	-1.745457	0.646024
H104	H	0.615962	-1.245457	1.146024
H105	H	-0.380726	-1.888352	-0.043568
H106	H	0.119274	-1.388352	0.456432
H107	H	-0.122767	-1.734218	0.262126
H108	H	0.377233	-1.234218	0.762126
Br109	Br	0.207324	-1.765126	0.301002
Br110	Br	0.707324	-1.265126	0.801002
H111	H	-0.111532	-1.732274	0.360053
H112	H	0.388468	-1.232274	0.860053
H113	H	-0.622901	-1.960700	-0.005502
H114	H	-0.122901	-1.460700	0.494498
Br115	Br	-0.225307	-1.718110	0.457286
Br116	Br	0.274693	-1.218110	0.957286
Br117	Br	-0.210789	-1.713499	0.652002
Br118	Br	0.289211	-1.213499	1.152002
H119	H	-0.529526	-1.610192	-0.190070
H120	H	-0.029526	-1.110192	0.309930
H121	H	-0.787839	-1.944990	-0.013794
H122	H	-0.287839	-1.444990	0.486206
H123	H	0.104787	-1.749065	0.496169
H124	H	0.604787	-1.249065	0.996169
H125	H	-0.488476	-1.873046	-0.051629
H126	H	0.011524	-1.373046	0.448371
Br127	Br	-0.207627	-1.485876	-0.255487
Br128	Br	0.292373	-0.985876	0.244513
