data_functionalizedCrystal
_audit_creation_method	'MofGen! by Chris Wilmer'
_symmetry_space_group_name_H-M	'P1'
_symmetry_Int_Tables_number	1
_symmetry_cell_setting	triclinic
loop_
_symmetry_equiv_pos_as_xyz
  x,y,z
_cell_length_a	10.723024
_cell_length_b	14.044220
_cell_length_c	9.798715
_cell_angle_alpha	89.995876
_cell_angle_beta	89.996609
_cell_angle_gamma	88.828373
loop_
_atom_site_label
_atom_site_type_symbol
_atom_site_fract_x
_atom_site_fract_y
_atom_site_fract_z
O1	O	1.670498	0.133040	-0.113486
O2	O	2.170498	0.633040	0.386514
O3	O	1.308619	0.145774	-0.113491
O4	O	1.808619	0.645774	0.386509
O5	O	1.484127	0.001387	-0.113476
O6	O	1.984127	0.501387	0.386524
O7	O	1.494990	0.277427	-0.113502
O8	O	1.994990	0.777427	0.386498
O9	O	1.484112	0.001387	0.113507
O10	O	1.984112	0.501387	0.613507
O11	O	1.308605	0.145774	0.113491
O12	O	1.808605	0.645774	0.613491
O13	O	1.670483	0.133039	0.113496
O14	O	2.170483	0.633039	0.613496
Zn15	Zn	1.489542	0.139407	0.149532
Zn16	Zn	1.989542	0.639407	0.649532
Zn17	Zn	1.489561	0.139407	-0.149527
Zn18	Zn	1.989561	0.639407	0.350473
O19	O	1.494976	0.277427	0.113480
O20	O	1.994976	0.777427	0.613480
C21	C	1.262020	0.144847	-0.000001
C22	C	1.762020	0.644847	0.499999
C23	C	1.123188	0.142075	-0.000002
C24	C	1.623188	0.642075	0.499998
C25	C	1.056288	0.222866	-0.000011
C26	C	1.556288	0.722866	0.499989
C27	C	0.912798	0.220002	-0.000013
C28	C	1.412798	0.720002	0.499987
C29	C	1.479364	-0.033958	0.000016
C30	C	1.979364	0.466042	0.500016
C31	C	1.465180	-0.139276	0.000018
C32	C	1.965180	0.360724	0.500018
C33	C	1.439248	-0.332106	-0.000002
C34	C	1.939248	0.167894	0.499998
C35	C	1.539849	-0.389085	-0.000005
C36	C	2.039849	0.110915	0.499995
C37	C	1.525420	-0.496383	-0.000016
C38	C	2.025420	0.003617	0.499984
C39	C	1.453675	-0.224799	0.000009
C40	C	1.953675	0.275201	0.500009
C41	C	1.717083	0.133966	0.000002
C42	C	2.217083	0.633966	0.500002
C43	C	1.855914	0.136739	-0.000005
C44	C	2.355914	0.636739	0.499995
C45	C	1.499738	0.312772	-0.000015
C46	C	1.999738	0.812772	0.499985
C47	C	1.513923	0.418090	-0.000025
C48	C	2.013923	0.918090	0.499975
N49	N	1.489538	0.139406	0.353631
N50	N	1.989538	0.639406	0.853631
N51	N	1.489573	0.139401	-0.353627
N52	N	1.989573	0.639401	0.146373
C53	C	1.563202	0.078514	0.421415
C54	C	2.063202	0.578514	0.921415
C55	C	1.563222	0.078511	0.578578
C56	C	2.063222	0.578511	1.078578
H57	H	0.913420	0.067571	-0.000006
H58	H	1.413420	0.567571	0.499994
H59	H	1.342291	-0.363906	-0.000007
H60	H	1.842291	0.136094	0.499993
N61	N	1.058355	0.047640	-0.000004
N62	N	1.558355	0.547640	0.499996
H63	H	1.122714	-0.005883	0.000001
H64	H	1.622714	0.494117	0.500001
H65	H	1.004447	0.042852	0.084141
H66	H	1.504447	0.542852	0.584141
H67	H	1.636814	-0.357284	-0.000095
H68	H	2.136814	0.142716	0.499905
N69	N	0.836652	0.311635	-0.000015
N70	N	1.336652	0.811635	0.499985
H71	H	0.782295	0.314364	-0.084156
H72	H	1.282295	0.814364	0.415844
H73	H	0.782366	0.314300	0.084185
H74	H	1.282366	0.814300	0.584185
N75	N	1.406016	0.208453	0.569178
N76	N	1.906016	0.708453	1.069178
H77	H	1.356869	0.249085	0.636021
H78	H	1.856869	0.749085	1.136021
H79	H	1.458680	0.250571	0.509876
H80	H	1.958680	0.750571	1.009876
N81	N	1.646693	0.009435	0.344181
N82	N	2.146693	0.509435	0.844181
H83	H	1.634830	0.019219	0.242857
H84	H	2.134830	0.519219	0.742857
H85	H	1.736577	0.020779	0.369047
H86	H	2.236577	0.520779	0.869047
N87	N	1.646775	0.009458	0.655777
N88	N	2.146775	0.509458	1.155777
H89	H	1.634948	0.019246	0.757105
H90	H	2.134948	0.519246	1.257105
H91	H	1.624635	-0.057901	0.630884
H92	H	2.124635	0.442099	1.130884
N93	N	1.406015	0.208460	0.430870
N94	N	1.906015	0.708460	0.930870
H95	H	1.356851	0.249096	0.364043
H96	H	1.856851	0.749096	0.864043
H97	H	1.346690	0.171844	0.490167
H98	H	1.846690	0.671844	0.990167
N99	N	1.121117	0.317303	-0.000011
N100	N	1.621117	0.817303	0.499989
H101	H	1.214432	0.305962	-0.000008
H102	H	1.714432	0.805962	0.499992
H103	H	1.096086	0.354564	-0.084161
H104	H	1.596086	0.854564	0.415839
