data_functionalizedCrystal
_audit_creation_method	'MofGen! by Chris Wilmer'
_symmetry_space_group_name_H-M	'P1'
_symmetry_Int_Tables_number	1
_symmetry_cell_setting	triclinic
loop_
_symmetry_equiv_pos_as_xyz
  x,y,z
_cell_length_a	16.120530
_cell_length_b	16.120297
_cell_length_c	16.120484
_cell_angle_alpha	95.614431
_cell_angle_beta	90.167327
_cell_angle_gamma	90.128140
loop_
_atom_site_label
_atom_site_type_symbol
_atom_site_fract_x
_atom_site_fract_y
_atom_site_fract_z
Zn1	Zn	1.224987	-0.554813	-0.422264
Zn2	Zn	1.558320	-0.221480	-0.088931
Zn3	Zn	1.891654	0.111853	0.244402
Zn4	Zn	1.224883	-0.422118	-0.554948
Zn5	Zn	1.558216	-0.088785	-0.221615
Zn6	Zn	1.891549	0.244548	0.111718
Zn7	Zn	1.093726	-0.408056	-0.408180
Zn8	Zn	1.427060	-0.074723	-0.074847
Zn9	Zn	1.760393	0.258611	0.258487
Zn10	Zn	1.078880	-0.554051	-0.554181
Zn11	Zn	1.412213	-0.220717	-0.220848
Zn12	Zn	1.745547	0.112616	0.112486
O13	O	1.155619	-0.484760	-0.484893
O14	O	1.488952	-0.151426	-0.151560
O15	O	1.822286	0.181907	0.181773
O16	O	1.341009	-0.543415	-0.446081
O17	O	1.674342	-0.210082	-0.112747
O18	O	2.007676	0.123251	0.220586
O19	O	1.213654	-0.303620	-0.529906
O20	O	1.546987	0.029713	-0.196573
O21	O	1.880321	0.363047	0.136760
O22	O	1.117395	-0.421958	-0.293418
O23	O	1.450729	-0.088624	0.039916
O24	O	1.784062	0.244709	0.373249
O25	O	1.340932	-0.445925	-0.543563
O26	O	1.674266	-0.112591	-0.210230
O27	O	2.007599	0.220742	0.123104
O28	O	1.213832	-0.529780	-0.303765
O29	O	1.547166	-0.196446	0.029568
O30	O	1.880499	0.136887	0.362901
O31	O	1.117294	-0.293289	-0.422076
O32	O	1.450627	0.040045	-0.088743
O33	O	1.783961	0.373378	0.244591
O34	O	0.975721	-0.421218	-0.421332
O35	O	1.309055	-0.087885	-0.087998
O36	O	1.642388	0.245448	0.245335
O37	O	1.092092	-0.670785	-0.542255
O38	O	1.425425	-0.337451	-0.208922
O39	O	1.758758	-0.004118	0.124412
O40	O	0.964814	-0.528480	-0.528598
O41	O	1.298147	-0.195147	-0.195265
O42	O	1.631480	0.138187	0.138069
O43	O	1.199436	-0.671345	-0.445336
O44	O	1.532769	-0.338011	-0.112003
O45	O	1.866103	-0.004678	0.221330
O46	O	1.199258	-0.445185	-0.671477
O47	O	1.532591	-0.111852	-0.338144
O48	O	1.865925	0.221481	-0.004811
O49	O	1.091990	-0.542116	-0.670913
O50	O	1.425324	-0.208782	-0.337580
O51	O	1.758657	0.124551	-0.004247
C52	C	0.940181	-0.473241	-0.473354
C53	C	1.273514	-0.139908	-0.140021
C54	C	1.606847	0.193426	0.193313
C55	C	0.848013	-0.468334	-0.468438
C56	C	1.181346	-0.135001	-0.135105
C57	C	1.514680	0.198333	0.198228
C58	C	0.679262	-0.459381	-0.459445
C59	C	1.012595	-0.126048	-0.126111
C60	C	1.345928	0.207285	0.207222
C61	C	0.632810	-0.510202	-0.510407
C62	C	0.966144	-0.176868	-0.177073
C63	C	1.299477	0.156465	0.156260
C64	C	0.538911	-0.505220	-0.505403
C65	C	0.872245	-0.171887	-0.172069
C66	C	1.205578	0.161446	0.161264
C67	C	0.773169	-0.464361	-0.464448
C68	C	1.106503	-0.131028	-0.131114
C69	C	1.439836	0.202305	0.202219
C70	C	1.144119	-0.702152	-0.495281
C71	C	1.477453	-0.368818	-0.161948
C72	C	1.810786	-0.035485	0.171386
C73	C	1.139219	-0.794791	-0.499708
C74	C	1.472552	-0.461458	-0.166374
C75	C	1.805886	-0.128125	0.166959
C76	C	1.130243	-0.964403	-0.507770
C77	C	1.463576	-0.631069	-0.174436
C78	C	1.796909	-0.297736	0.158897
C79	C	1.181172	-1.005965	-0.461776
C80	C	1.514505	-0.672632	-0.128443
C81	C	1.847839	-0.339298	0.204890
C82	C	1.176177	-1.100342	-0.466262
C83	C	1.509511	-0.767009	-0.132929
C84	C	1.842844	-0.433676	0.200405
C85	C	1.135236	-0.870017	-0.503285
C86	C	1.468569	-0.536683	-0.169952
C87	C	1.801903	-0.203350	0.163382
C88	C	1.371899	-0.496324	-0.496479
C89	C	1.705232	-0.162990	-0.163145
C90	C	2.038565	0.170343	0.170188
C91	C	1.464064	-0.501252	-0.501416
C92	C	1.797398	-0.167918	-0.168082
C93	C	2.130731	0.165415	0.165251
C94	C	1.144023	-0.495113	-0.701438
C95	C	1.477357	-0.161780	-0.368105
C96	C	1.810690	0.171554	-0.034772
C97	C	1.139137	-0.499574	-0.794083
C98	C	1.472470	-0.166241	-0.460749
C99	C	1.805804	0.167093	-0.127416
C100	C	1.167125	-0.268213	-0.474489
C101	C	1.500458	0.065121	-0.141155
C102	C	1.833791	0.398454	0.192178
C103	C	1.172198	-0.175571	-0.469836
C104	C	1.505532	0.157763	-0.136502
C105	C	1.838865	0.491096	0.196831
C106	C	1.130220	-0.507736	-0.963706
C107	C	1.463553	-0.174403	-0.630372
C108	C	1.796887	0.158930	-0.297039
C109	C	1.181166	-0.461804	-1.005249
C110	C	1.514499	-0.128471	-0.671916
C111	C	1.847833	0.204862	-0.338583
C112	C	1.176204	-0.466346	-1.099633
C113	C	1.509538	-0.133012	-0.766300
C114	C	1.842871	0.200321	-0.432967
C115	C	1.135180	-0.503196	-0.869313
C116	C	1.468514	-0.169863	-0.535980
C117	C	1.801847	0.163471	-0.202646
C118	C	1.167282	-0.474385	-0.267505
C119	C	1.500615	-0.141052	0.065828
C120	C	1.833948	0.192282	0.399162
C121	C	1.172251	-0.469964	-0.174867
C122	C	1.505585	-0.136631	0.158466
C123	C	1.838918	0.196703	0.491800
H124	H	0.663563	-0.557453	-0.557794
H125	H	0.996896	-0.224119	-0.224461
H126	H	1.330230	0.109214	0.108873
H127	H	1.082894	-0.999698	-0.550512
H128	H	1.416228	-0.666364	-0.217178
H129	H	1.749561	-0.333031	0.116155
H130	H	0.648511	-0.412135	-0.412060
H131	H	0.981844	-0.078801	-0.078727
H132	H	1.315178	0.254532	0.254606
O133	O	1.237632	-0.963735	-0.410841
O134	O	1.570966	-0.630402	-0.077508
O135	O	1.904299	-0.297069	0.255825
C136	C	1.230097	-0.877538	-0.417626
C137	C	1.563431	-0.544204	-0.084293
C138	C	1.896764	-0.210871	0.249041
H139	H	1.200113	-0.867371	-0.479947
H140	H	1.533446	-0.534037	-0.146614
H141	H	1.866779	-0.200704	0.186719
H142	H	1.189861	-0.848107	-0.364679
H143	H	1.523195	-0.514774	-0.031346
H144	H	1.856528	-0.181440	0.301988
C145	C	1.353552	-0.849358	-0.335829
C146	C	1.686885	-0.516024	-0.002496
C147	C	2.020218	-0.182691	0.330837
C148	C	1.316730	-0.836870	-0.412377
C149	C	1.650064	-0.503537	-0.079044
C150	C	1.983397	-0.170204	0.254290
H151	H	1.406990	-0.824270	-0.332588
H152	H	1.740323	-0.490937	0.000745
H153	H	2.073656	-0.157604	0.334079
H154	H	1.358627	-0.907430	-0.331256
H155	H	1.691960	-0.574097	0.002078
H156	H	2.025294	-0.240763	0.335411
H157	H	1.320013	-0.824832	-0.291715
H158	H	1.653346	-0.491498	0.041618
H159	H	1.986680	-0.158165	0.374951
H160	H	1.350263	-0.861405	-0.456489
H161	H	1.683597	-0.528072	-0.123155
H162	H	2.016930	-0.194738	0.210178
H163	H	1.311663	-0.778801	-0.416958
H164	H	1.644996	-0.445467	-0.083625
H165	H	1.978329	-0.112134	0.249709
O166	O	1.237569	-0.410830	-0.962990
O167	O	1.570902	-0.077497	-0.629656
O168	O	1.904235	0.255836	-0.296323
C169	C	1.230035	-0.417591	-0.876794
C170	C	1.563368	-0.084258	-0.543461
C171	C	1.896702	0.249075	-0.210128
H172	H	1.165187	-0.440869	-0.862933
H173	H	1.498521	-0.107535	-0.529600
H174	H	1.831854	0.225798	-0.196267
H175	H	1.278116	-0.463466	-0.856769
H176	H	1.611450	-0.130133	-0.523435
H177	H	1.944783	0.203200	-0.190102
C178	C	1.324101	-0.302972	-0.845439
C179	C	1.657434	0.030361	-0.512106
C180	C	1.990768	0.363695	-0.178773
C181	C	1.244452	-0.331555	-0.828414
C182	C	1.577785	0.001778	-0.495081
C183	C	1.911118	0.335111	-0.161747
H184	H	1.332997	-0.249903	-0.815595
H185	H	1.666331	0.083431	-0.482261
H186	H	1.999664	0.416764	-0.148928
H187	H	1.329179	-0.298419	-0.903511
H188	H	1.662513	0.034915	-0.570177
H189	H	1.995846	0.368248	-0.236844
H190	H	1.364160	-0.341209	-0.828751
H191	H	1.697493	-0.007876	-0.495418
H192	H	2.030826	0.325458	-0.162084
H193	H	1.204395	-0.293324	-0.845112
H194	H	1.537728	0.040009	-0.511778
H195	H	1.871061	0.373342	-0.178445
H196	H	1.239367	-0.336100	-0.770344
H197	H	1.572700	-0.002767	-0.437011
H198	H	1.906033	0.330566	-0.103677
H199	H	1.082881	-0.550467	-0.999022
H200	H	1.416214	-0.217134	-0.665688
H201	H	1.749547	0.116200	-0.332355
