data_functionalizedCrystal
_audit_creation_method	'MofGen! by Chris Wilmer'
_symmetry_space_group_name_H-M	'P1'
_symmetry_Int_Tables_number	1
_symmetry_cell_setting	triclinic
loop_
_symmetry_equiv_pos_as_xyz
  x,y,z
_cell_length_a	23.096457
_cell_length_b	14.446369
_cell_length_c	14.446369
_cell_angle_alpha	60.003968
_cell_angle_beta	89.999875
_cell_angle_gamma	59.997287
loop_
_atom_site_label
_atom_site_type_symbol
_atom_site_fract_x
_atom_site_fract_y
_atom_site_fract_z
Zr1	Zr	0.557737	1.013247	-0.121494
O2	O	0.465284	1.206355	-0.269288
O3	O	0.586083	0.820132	-0.076189
O4	O	0.586078	1.013240	-0.269297
O5	O	0.465289	1.013256	0.076149
O6	O	0.681358	1.013243	-0.269303
O7	O	0.465289	1.013247	-0.076180
O8	O	0.681367	0.667808	0.076132
O9	O	0.465280	1.358691	-0.269286
O10	O	0.669274	0.899568	-0.056869
O11	O	0.598168	0.899572	0.056816
O12	O	0.598162	1.126932	-0.170544
O13	O	0.527055	1.126936	-0.056858
Zr14	Zr	0.709698	1.013265	0.121444
Zr15	Zr	0.709699	1.013251	-0.121503
Zr16	Zr	0.557737	1.013261	0.121453
Zr17	Zr	0.557731	1.256205	-0.121491
Zr18	Zr	0.709705	0.770307	0.121441
O19	O	0.681353	1.206380	0.076139
O20	O	0.681353	1.206361	-0.269301
O21	O	0.465283	1.206374	0.076151
O22	O	0.802152	0.820157	0.269237
O23	O	0.802152	0.820138	-0.076202
O24	O	0.586083	0.820151	0.269250
O25	O	0.802147	1.013256	-0.076200
O26	O	0.681358	1.013272	0.269247
O27	O	0.586077	1.013270	0.269252
O28	O	0.802147	1.013265	0.076129
O29	O	0.586069	1.358694	-0.269293
O30	O	0.681367	0.667818	0.269243
O31	O	0.802156	0.667821	0.269235
O32	O	0.802156	0.667811	0.076125
O33	O	0.465279	1.358701	-0.076176
O34	O	0.586068	1.358705	-0.076183
O35	O	0.669274	0.899580	0.170493
O36	O	0.740381	0.899576	0.056808
O37	O	0.669268	1.126940	-0.056867
O38	O	0.598161	1.126944	0.056819
C39	C	0.633726	0.709354	-0.000029
C40	C	0.633729	0.606212	-0.000030
C41	C	0.678347	0.459893	-0.072082
C42	C	0.678600	0.566818	-0.071775
C43	C	0.666443	0.479362	0.123492
C44	C	0.666769	0.371983	0.123102
C45	C	0.556333	0.546946	-0.050487
C46	C	0.556457	0.655419	-0.052992
C47	C	0.443638	1.013251	-0.000014
C48	C	0.379126	1.013249	-0.000010
C49	C	0.385940	0.894571	0.059316
C50	C	0.325325	0.894569	0.059321
C51	C	0.257895	1.013252	-0.000023
C52	C	0.251084	1.131946	-0.059351
C53	C	0.311699	1.131945	-0.059345
N54	N	0.135097	1.101592	-0.096602
N55	N	0.077518	1.101585	-0.096606
C56	C	0.075263	1.013264	-0.000043
N57	N	0.132768	0.924930	0.096523
N58	N	0.190354	0.924933	0.096524
C59	C	0.192164	1.013267	-0.000035
C60	C	0.016353	0.894576	0.059294
C61	C	-0.044265	0.894579	0.059302
C62	C	-0.118506	1.131959	-0.059381
C63	C	-0.057888	1.131953	-0.059378
C64	C	0.009539	1.013257	-0.000043
C65	C	0.823798	1.013261	-0.000036
C66	C	0.888310	1.013263	-0.000040
C67	C	0.633718	1.013239	-0.303915
C68	C	0.633718	1.013234	-0.407052
C69	C	0.633710	1.317159	-0.000022
C70	C	0.633707	1.420300	-0.000021
C71	C	0.678792	0.869850	-0.482039
C72	C	0.678597	0.869753	-0.374710
C73	C	0.556454	1.084459	-0.481606
C74	C	0.556701	1.083549	-0.588465
C75	C	0.665284	1.086505	-0.590045
C76	C	0.666848	1.083803	-0.481374
C77	C	0.633718	1.013273	0.303864
C78	C	0.633717	1.013278	0.407001
C79	C	0.823806	0.709359	-0.000040
C80	C	0.888321	0.606219	-0.000045
C81	C	0.633726	0.709370	0.303861
C82	C	0.633728	0.606234	0.406997
C83	C	0.823806	0.709375	0.303849
C84	C	0.888320	0.606241	0.406982
C85	C	0.443630	1.317137	-0.303900
C86	C	0.379115	1.420271	-0.407032
C87	C	0.443629	1.317153	-0.000011
C88	C	0.379115	1.420293	-0.000006
C89	C	0.633710	1.317142	-0.303911
C90	C	0.633707	1.420278	-0.407047
C91	C	0.881500	0.557779	-0.059396
C92	C	0.942113	0.460881	-0.059423
C93	C	1.009544	0.412419	-0.000092
C94	C	1.016363	0.460868	0.059260
C95	C	0.955752	0.557771	0.059280
C96	C	0.955740	0.557806	0.396071
C97	C	1.016364	0.460914	0.492966
C98	C	1.009566	0.412452	0.600770
C99	C	0.942139	0.460897	0.611678
C100	C	0.881517	0.557794	0.514785
C101	C	0.311695	1.468718	-0.396122
C102	C	0.251072	1.565640	-0.493016
C103	C	0.257869	1.614107	-0.600820
C104	C	0.325296	1.565656	-0.611729
C105	C	0.385919	1.468742	-0.514835
C106	C	0.385935	1.468744	0.059335
C107	C	0.325323	1.565668	0.059336
C108	C	0.257891	1.614134	0.000001
C109	C	0.251072	1.565680	-0.059347
C110	C	0.311684	1.468764	-0.059353
C111	C	0.588669	0.459919	0.481980
C112	C	0.588856	0.566839	0.374653
C113	C	0.710996	0.479384	0.481544
C114	C	0.710757	0.372009	0.588402
C115	C	0.602168	0.546978	0.589996
C116	C	0.600597	0.655448	0.481326
H117	H	0.723705	0.281233	0.163504
N118	N	0.192476	1.718624	-0.705315
H119	H	0.192442	1.684897	-0.751958
H120	H	0.192473	1.799014	-0.751877
N121	N	0.332695	1.617917	0.123342
H122	H	0.309214	1.715190	0.068914
H123	H	0.384626	1.572398	0.160920
H124	H	0.208543	1.693049	0.000016
H125	H	0.630013	0.687575	0.506847
H126	H	0.721321	1.040608	-0.594165
N127	N	0.934820	0.408604	0.727960
H128	H	0.908052	0.368381	0.737048
H129	H	0.908064	0.482582	0.736992
N130	N	0.753500	0.341136	-0.026140
H131	H	0.781814	0.367425	-0.072902
H132	H	0.753144	0.273512	-0.029998
H133	H	0.196161	1.605156	-0.107655
H134	H	0.656704	0.813505	-0.320923
H135	H	0.635496	0.501611	0.179512
H136	H	0.723774	1.031859	-0.429960
N137	N	0.934740	0.408636	-0.123434
H138	H	0.958238	0.311357	-0.069017
H139	H	0.958211	0.425600	-0.183169
H140	H	0.306147	1.429262	-0.308351
N141	N	0.304323	1.416511	-0.123359
H142	H	0.252406	1.461925	-0.160940
H143	H	0.327850	1.319233	-0.068876
H144	H	0.531959	0.656185	0.320389
N145	N	0.332623	1.617936	-0.728006
H146	H	0.283985	1.686676	-0.787722
H147	H	0.359420	1.543930	-0.736994
N148	N	1.089086	0.408656	0.481198
H149	H	1.094759	0.482596	0.438373
H150	H	1.094714	0.368421	0.438428
H151	H	0.196176	1.605073	-0.484112
N152	N	0.524089	0.775271	-0.173535
H153	H	0.522384	0.846900	-0.174312
H154	H	0.474413	0.806362	-0.207089
H155	H	0.306145	1.228590	-0.107653
H156	H	0.531627	0.497157	0.479649
H157	H	0.746034	0.501633	0.508773
N158	N	0.626498	0.332270	0.198098
H159	H	0.584955	0.349769	0.151808
H160	H	0.608659	0.384544	0.231255
H161	H	0.656514	0.497130	-0.163274
H162	H	0.610366	0.370254	0.480942
H163	H	0.440836	1.429290	0.107659
N164	N	0.645442	0.514159	0.693593
H165	H	0.665881	0.566949	0.669368
H166	H	0.685267	0.417741	0.742177
N167	N	0.808799	0.610012	0.526554
H168	H	0.781979	0.707292	0.489002
H169	H	0.813755	0.564507	0.609572
N170	N	0.458659	0.766547	0.123314
H171	H	0.464335	0.714659	0.206325
H172	H	0.495987	0.784647	0.114232
N173	N	1.074957	0.307916	0.705269
H174	H	1.060426	0.284553	0.775224
H175	H	1.104106	0.341716	0.705205
N176	N	0.458635	1.416488	-0.526611
H177	H	0.453735	1.461902	-0.609610
H178	H	0.485400	1.319210	-0.489006
N179	N	0.617846	0.517236	0.303380
H180	H	0.630559	0.425744	0.341646
H181	H	0.661574	0.515941	0.294575
H182	H	0.736033	0.281256	0.588125
N183	N	-0.065236	1.259959	-0.123389
H184	H	-0.016606	1.241950	-0.114382
H185	H	-0.092045	1.311795	-0.092233
N186	N	-0.036913	0.766567	0.123287
H187	H	-0.085543	0.784575	0.114286
H188	H	-0.010106	0.714731	0.206273
H189	H	0.746166	0.342057	0.666979
H190	H	1.071274	0.421396	0.107565
H191	H	0.531429	1.032929	-0.588195
N192	N	0.744717	0.428298	0.413193
H193	H	0.710073	0.487113	0.333956
H194	H	0.757888	0.336626	0.450574
N195	N	0.650064	0.795634	-0.480644
H196	H	0.688151	0.716789	-0.477540
H197	H	0.607969	0.854606	-0.551586
N198	N	0.527944	0.599397	0.595463
H199	H	0.514034	0.541567	0.599907
H200	H	0.493849	0.691363	0.525283
N201	N	0.525185	0.775279	0.413247
H202	H	0.512529	0.797610	0.334583
H203	H	0.520539	0.851278	0.407881
H204	H	0.637430	1.188478	-0.506886
N205	N	0.741153	0.428270	0.177383
H206	H	0.761750	0.346633	0.256839
H207	H	0.740465	0.497191	0.180334
H208	H	0.656663	0.656159	-0.162733
H209	H	0.531003	1.034986	-0.430003
N210	N	0.754203	0.517211	-0.025413
H211	H	0.787495	0.425715	-0.005088
H212	H	0.760508	0.515922	0.044497
H213	H	1.058893	0.333513	-0.000117
H214	H	0.632598	1.192175	-0.668241
H215	H	0.528997	0.586486	-0.140056
H216	H	0.961315	0.597198	0.107617
N217	N	0.508688	0.697973	0.009303
H218	H	0.536586	0.685899	0.073027
H219	H	0.489517	0.643236	0.041453
N220	N	0.754353	0.795270	-0.478939
H221	H	0.787579	0.766046	-0.409757
H222	H	0.760037	0.853795	-0.549478
H223	H	0.961289	0.597249	0.308300
H224	H	0.330874	0.797924	0.107632
N225	N	0.512054	0.514101	0.018656
H226	H	0.462401	0.595828	-0.014172
H227	H	0.533984	0.477774	0.099604
N228	N	0.178360	1.259956	-0.123349
H229	H	0.140993	1.241950	-0.114353
H230	H	0.172746	1.311788	-0.206333
H231	H	0.071256	0.797927	0.107632
H232	H	-0.173407	1.228593	-0.107700
H233	H	0.826599	0.597236	-0.107724
H234	H	0.735493	0.813871	-0.320440
H235	H	0.521289	1.188780	-0.667042
H236	H	0.521411	1.189956	-0.508834
