data_functionalizedCrystal
_audit_creation_method	'MofGen! by Chris Wilmer'
_symmetry_space_group_name_H-M	'P1'
_symmetry_Int_Tables_number	1
_symmetry_cell_setting	triclinic
loop_
_symmetry_equiv_pos_as_xyz
  x,y,z
_cell_length_a	12.996460
_cell_length_b	16.109301
_cell_length_c	16.109301
_cell_angle_alpha	83.461481
_cell_angle_beta	90.007591
_cell_angle_gamma	89.998305
loop_
_atom_site_label
_atom_site_type_symbol
_atom_site_fract_x
_atom_site_fract_y
_atom_site_fract_z
O1	O	-0.085505	-1.103127	-0.106869
O2	O	0.247828	-0.769794	0.226464
O3	O	0.581162	-0.436461	0.559797
O4	O	-0.085522	-0.861065	-0.120169
O5	O	0.247812	-0.527732	0.213165
O6	O	0.581145	-0.194399	0.546498
O7	O	-0.085503	-0.988746	0.007512
O8	O	0.247831	-0.655413	0.340845
O9	O	0.581164	-0.322079	0.674179
O10	O	-0.085524	-0.975447	-0.234550
O11	O	0.247809	-0.642113	0.098783
O12	O	0.581142	-0.308780	0.432117
O13	O	0.085631	-0.988744	0.007520
O14	O	0.418965	-0.655411	0.340854
O15	O	0.752298	-0.322077	0.674187
O16	O	0.085612	-0.861063	-0.120160
O17	O	0.418945	-0.527730	0.213173
O18	O	0.752279	-0.194397	0.546506
O19	O	0.085629	-1.103125	-0.106861
O20	O	0.418962	-0.769792	0.226472
O21	O	0.752295	-0.436459	0.559806
Cu22	Cu	0.101246	-0.982094	-0.113510
Cu23	Cu	0.434580	-0.648761	0.219823
Cu24	Cu	0.767913	-0.315427	0.553157
Cu25	Cu	-0.101139	-0.982097	-0.113520
Cu26	Cu	0.232194	-0.648763	0.219814
Cu27	Cu	0.565527	-0.315430	0.553147
O28	O	0.085609	-0.975445	-0.234542
O29	O	0.418943	-0.642111	0.098792
O30	O	0.752276	-0.308778	0.432125
C31	C	0.000043	-0.830090	-0.119626
C32	C	0.333376	-0.496756	0.213708
C33	C	0.666710	-0.163423	0.547041
C34	C	0.000037	-0.737794	-0.118011
C35	C	0.333370	-0.404461	0.215323
C36	C	0.666704	-0.071128	0.548656
N37	N	-0.243486	-0.982099	-0.113521
N38	N	0.089847	-0.648766	0.219813
N39	N	0.423180	-0.315432	0.553146
C40	C	0.000065	-0.988206	0.038491
C41	C	0.333398	-0.654873	0.371824
C42	C	0.666732	-0.321540	0.705158
C43	C	0.000066	-0.986591	0.130786
C44	C	0.333400	-0.653258	0.464120
C45	C	0.666733	-0.319925	0.797453
C46	C	-0.663301	-0.982095	-0.113513
C47	C	-0.329967	-0.648761	0.219821
C48	C	0.003366	-0.315428	0.553154
C49	C	-0.546496	-0.982093	-0.113517
C50	C	-0.213162	-0.648760	0.219816
C51	C	0.120171	-0.315426	0.553149
C52	C	-0.453397	-0.982096	-0.113516
C53	C	-0.120064	-0.648763	0.219817
C54	C	0.213269	-0.315430	0.553150
C55	C	-0.336585	-0.982096	-0.113522
C56	C	-0.003251	-0.648763	0.219812
C57	C	0.330082	-0.315429	0.553145
N58	N	0.243593	-0.982098	-0.113502
N59	N	0.576927	-0.648765	0.219831
N60	N	0.910260	-0.315432	0.553164
C61	C	0.000062	-1.134101	-0.107404
C62	C	0.333395	-0.800768	0.225929
C63	C	0.666728	-0.467435	0.559263
C64	C	0.000061	-1.226397	-0.109019
C65	C	0.333394	-0.893063	0.224314
C66	C	0.666728	-0.559730	0.557648
C67	C	0.000042	-0.515522	-0.190018
C68	C	0.333376	-0.182188	0.143315
C69	C	0.666709	0.151145	0.476648
C70	C	0.000049	-0.428801	-0.188494
C71	C	0.333382	-0.095468	0.144839
C72	C	0.666716	0.237865	0.478172
C73	C	0.000059	-0.448676	-0.037006
C74	C	0.333392	-0.115342	0.296328
C75	C	0.666725	0.217991	0.629661
C76	C	0.000059	-0.535394	-0.038530
C77	C	0.333393	-0.202061	0.294803
C78	C	0.666726	0.131272	0.628136
C79	C	0.000046	-0.568815	-0.115039
C80	C	0.333379	-0.235482	0.218294
C81	C	0.666713	0.097852	0.551627
C82	C	0.000052	-0.395376	-0.111990
C83	C	0.333385	-0.062042	0.221343
C84	C	0.666719	0.271291	0.554676
C85	C	0.000059	-0.301350	-0.110337
C86	C	0.333393	0.031984	0.222996
C87	C	0.666726	0.365317	0.556329
C88	C	0.000041	-0.662847	-0.116693
C89	C	0.333374	-0.329514	0.216641
C90	C	0.666707	0.003820	0.549974
C91	C	0.000040	-0.975984	-0.265521
C92	C	0.333373	-0.642651	0.067813
C93	C	0.666706	-0.309318	0.401146
C94	C	0.000032	-0.977600	-0.357816
C95	C	0.333365	-0.644266	-0.024483
C96	C	0.666698	-0.310933	0.308851
C97	C	0.000055	-1.058599	0.353059
C98	C	0.333388	-0.725266	0.686392
C99	C	0.666722	-0.391932	1.019725
C100	C	0.000046	-1.057075	0.439779
C101	C	0.333380	-0.723742	0.773112
C102	C	0.666713	-0.390408	1.106446
C103	C	0.000040	-0.905586	0.419905
C104	C	0.333373	-0.572253	0.753238
C105	C	0.666707	-0.238919	1.086571
C106	C	0.000041	-0.907111	0.333186
C107	C	0.333374	-0.573778	0.666519
C108	C	0.666708	-0.240444	0.999853
C109	C	0.000054	-0.983620	0.299766
C110	C	0.333387	-0.650287	0.633099
C111	C	0.666721	-0.316953	0.966432
C112	C	0.000044	-0.980571	0.473205
C113	C	0.333377	-0.647238	0.806538
C114	C	0.666711	-0.313904	1.139871
C115	C	0.000035	-0.978918	0.567231
C116	C	0.333368	-0.645585	0.900564
C117	C	0.666701	-0.312251	1.233897
C118	C	0.000061	-0.985273	0.205734
C119	C	0.333395	-0.651940	0.539067
C120	C	0.666728	-0.318607	0.872400
H121	H	0.000048	-0.385413	-0.249550
H122	H	0.333382	-0.052080	0.083783
H123	H	0.666715	0.281254	0.417117
F124	F	0.000032	-0.551087	-0.271446
F125	F	0.333366	-0.217754	0.061888
F126	F	0.666699	0.115579	0.395221
F127	F	0.000068	-0.413100	0.044416
F128	F	0.333402	-0.079766	0.377749
F129	F	0.666735	0.253567	0.711083
H130	H	0.000063	-1.120897	0.325851
H131	H	0.333396	-0.787564	0.659184
H132	H	0.666730	-0.454231	0.992518
F133	F	0.000045	-1.136878	0.496495
F134	F	0.333379	-0.803545	0.829828
F135	F	0.666712	-0.470211	1.163161
H136	H	0.000065	-0.578788	0.022530
H137	H	0.333398	-0.245455	0.355864
H138	H	0.666732	0.087878	0.689197
F139	F	0.000026	-0.824164	0.455481
F140	F	0.333359	-0.490831	0.788814
F141	F	0.666692	-0.157498	1.122148
H142	H	0.000037	-0.846050	0.289792
H143	H	0.333370	-0.512717	0.623126
H144	H	0.666704	-0.179384	0.956459
