data_functionalizedCrystal
_audit_creation_method	'MofGen! by Chris Wilmer'
_symmetry_space_group_name_H-M	'P1'
_symmetry_Int_Tables_number	1
_symmetry_cell_setting	triclinic
loop_
_symmetry_equiv_pos_as_xyz
  x,y,z
_cell_length_a	16.625548
_cell_length_b	18.050589
_cell_length_c	16.625539
_cell_angle_alpha	90.022960
_cell_angle_beta	90.017055
_cell_angle_gamma	90.029289
loop_
_atom_site_label
_atom_site_type_symbol
_atom_site_fract_x
_atom_site_fract_y
_atom_site_fract_z
Zn1	Zn	1.232620	-0.295651	0.455929
Zn2	Zn	1.732620	0.204349	0.955929
Zn3	Zn	1.232518	-0.419844	0.321104
Zn4	Zn	1.732518	0.080156	0.821104
Zn5	Zn	1.097790	-0.295675	0.321109
Zn6	Zn	1.597790	0.204325	0.821109
Zn7	Zn	1.097739	-0.419806	0.455894
Zn8	Zn	1.597739	0.080194	0.955894
O9	O	1.165167	-0.357744	0.388509
O10	O	1.665167	0.142256	0.888509
O11	O	1.345439	-0.312131	0.438056
O12	O	1.845439	0.187869	0.938056
O13	O	1.214625	-0.403399	0.208272
O14	O	1.714625	0.096601	0.708272
O15	O	1.115740	-0.191747	0.339010
O16	O	1.615740	0.308253	0.839010
O17	O	1.345364	-0.403376	0.339001
O18	O	1.845364	0.096624	0.839001
O19	O	1.214799	-0.191729	0.438061
O20	O	1.714799	0.308271	0.938061
O21	O	1.115641	-0.312173	0.208276
O22	O	1.615641	0.187827	0.708276
O23	O	0.984951	-0.312135	0.338976
O24	O	1.484951	0.187865	0.838976
O25	O	1.115652	-0.403310	0.568731
O26	O	1.615652	0.096690	1.068731
O27	O	0.984913	-0.403333	0.438002
O28	O	1.484913	0.096667	0.938002
O29	O	1.214749	-0.312094	0.568757
O30	O	1.714749	0.187906	1.068757
O31	O	1.214575	-0.523764	0.338968
O32	O	1.714575	-0.023764	0.838968
O33	O	1.115554	-0.523735	0.437997
O34	O	1.615554	-0.023735	0.937997
C35	C	0.955676	-0.357733	0.388487
C36	C	1.455676	0.142267	0.888487
C37	C	0.866055	-0.357747	0.388496
C38	C	1.366055	0.142253	0.888496
C39	C	0.537879	-0.357751	0.388531
C40	C	1.037879	0.142249	0.888531
C41	C	0.629188	-0.357748	0.388518
C42	C	1.129188	0.142252	0.888518
C43	C	0.701964	-0.357749	0.388513
C44	C	1.201964	0.142251	0.888513
C45	C	0.793279	-0.357745	0.388502
C46	C	1.293279	0.142255	0.888502
C47	C	1.165070	-0.550696	0.388496
C48	C	1.665070	-0.050696	0.888496
C49	C	1.165102	-0.633242	0.388517
C50	C	1.665102	-0.133242	0.888517
C51	C	1.111307	-0.832704	0.442350
C52	C	1.611307	-0.332704	0.942350
C53	C	1.091655	-0.882144	0.368774
C54	C	1.591655	-0.382144	0.868774
C55	C	1.165181	-0.784372	0.388528
C56	C	1.665181	-0.284372	0.888528
C57	C	1.184872	-0.882014	0.462112
C58	C	1.684872	-0.382014	0.962112
C59	C	1.165256	-0.930357	0.388544
C60	C	1.665256	-0.430357	0.888544
C61	C	1.145490	-0.832725	0.314913
C62	C	1.645490	-0.332725	0.814913
C63	C	1.238742	-0.832590	0.408300
C64	C	1.738742	-0.332590	0.908300
C65	C	1.219118	-0.882008	0.334673
C66	C	1.719118	-0.382008	0.834673
C67	C	1.165136	-0.700274	0.388519
C68	C	1.665136	-0.200274	0.888519
C69	C	1.165301	-1.014454	0.388544
C70	C	1.665301	-0.514454	0.888544
C71	C	1.375476	-0.357755	0.388532
C72	C	1.875476	0.142245	0.888532
C73	C	1.465097	-0.357760	0.388542
C74	C	1.965097	0.142240	0.888542
C75	C	1.165206	-0.357695	0.598818
C76	C	1.665206	0.142305	1.098818
C77	C	1.165223	-0.357674	0.688439
C78	C	1.665223	0.142326	1.188439
C79	C	1.165287	-0.164038	0.388540
C80	C	1.665287	0.335962	0.888540
C81	C	1.165338	-0.081492	0.388553
C82	C	1.665338	0.418508	0.888553
C83	C	1.165174	-0.357739	0.179018
C84	C	1.665174	0.142261	0.679018
C85	C	1.165313	-0.357551	0.089398
C86	C	1.665313	0.142449	0.589398
C87	C	1.165236	-0.357658	0.761222
C88	C	1.665236	0.142342	1.261222
C89	C	1.165255	-0.357630	0.852530
C90	C	1.665255	0.142370	1.352530
C91	C	1.165274	-0.357604	0.925307
C92	C	1.665274	0.142396	1.425307
C93	C	1.165294	-0.357577	1.016621
C94	C	1.665294	0.142423	1.516621
H95	H	1.065680	-0.811054	0.487802
H96	H	1.565680	-0.311054	0.987802
H97	H	1.029481	-0.903926	0.352066
H98	H	1.529481	-0.403926	0.852066
C99	C	1.280706	-0.911078	0.273128
C100	C	1.780706	-0.411078	0.773128
H101	H	1.266613	-0.894111	0.220909
H102	H	1.766613	-0.394111	0.720909
H103	H	1.332778	-0.893361	0.286721
H104	H	1.832778	-0.393361	0.786721
H105	H	1.280707	-0.963705	0.273773
H106	H	1.780707	-0.463705	0.773773
C107	C	1.322712	-0.803159	0.430913
C108	C	1.822712	-0.303159	0.930913
H109	H	1.343356	-0.774211	0.387897
H110	H	1.843356	-0.274211	0.887897
H111	H	1.318822	-0.773437	0.477914
H112	H	1.818822	-0.273437	0.977914
H113	H	1.357768	-0.843678	0.440872
H114	H	1.857768	-0.343678	0.940872
H115	H	1.128793	-0.811164	0.252673
H116	H	1.628793	-0.311164	0.752673
C117	C	1.207336	-0.911261	0.546166
C118	C	1.707336	-0.411261	1.046166
H119	H	1.168978	-0.894370	0.584333
H120	H	1.668978	-0.394370	1.084333
H121	H	1.207686	-0.963882	0.545455
H122	H	1.707686	-0.463882	1.045455
H123	H	1.259199	-0.893558	0.560575
H124	H	1.759199	-0.393558	1.060575
