data_functionalizedCrystal
_audit_creation_method	'MofGen! by Chris Wilmer'
_symmetry_space_group_name_H-M	'P1'
_symmetry_Int_Tables_number	1
_symmetry_cell_setting	triclinic
loop_
_symmetry_equiv_pos_as_xyz
  x,y,z
_cell_length_a	9.065218
_cell_length_b	23.532407
_cell_length_c	8.140239
_cell_angle_alpha	89.991844
_cell_angle_beta	89.997198
_cell_angle_gamma	83.932281
loop_
_atom_site_label
_atom_site_type_symbol
_atom_site_fract_x
_atom_site_fract_y
_atom_site_fract_z
O1	O	1.956283	0.083497	-0.136637
O2	O	1.526661	0.090346	-0.136641
O3	O	1.754427	0.004085	-0.136609
O4	O	1.728517	0.169758	-0.136670
O5	O	1.754415	0.004084	0.136618
O6	O	1.526649	0.090345	0.136586
O7	O	1.956271	0.083496	0.136590
Zn8	Zn	1.741458	0.086921	0.179968
Zn9	Zn	1.741474	0.086922	-0.180020
O10	O	1.728504	0.169757	0.136558
C11	C	1.471701	0.089687	-0.000028
C12	C	1.307955	0.087719	-0.000028
C13	C	1.753761	-0.017136	0.000009
C14	C	1.751778	-0.080368	0.000021
C15	C	1.874123	-0.478573	-0.000068
C16	C	1.872280	-0.537986	-0.000080
O17	O	1.985695	-0.573898	-0.000140
N18	N	1.736873	-0.561607	-0.000080
C19	C	1.603300	-0.525810	-0.000085
O20	O	1.487956	-0.551356	-0.000087
C21	C	1.605144	-0.466397	-0.000084
C22	C	1.740560	-0.442780	-0.000067
C23	C	2.009527	-0.454955	-0.000053
C24	C	2.011370	-0.395546	-0.000037
C25	C	1.877807	-0.359753	-0.000037
C26	C	1.742402	-0.383371	-0.000052
C27	C	1.471573	-0.430601	-0.000100
C28	C	1.473429	-0.371185	-0.000100
C29	C	1.608845	-0.347568	-0.000084
C30	C	1.610682	-0.288169	-0.000035
N31	N	1.746089	-0.264548	-0.000035
C32	C	1.879651	-0.300341	-0.000036
C33	C	1.599437	-0.650581	-0.000089
C34	C	1.597591	-0.709992	-0.000078
C35	C	1.866571	-0.722165	-0.000077
C36	C	1.868416	-0.662752	-0.000076
C37	C	1.734844	-0.626960	-0.000089
C38	C	1.883510	-0.175576	-0.000002
C39	C	1.885340	-0.116160	0.000021
C40	C	1.616360	-0.103993	0.000011
C41	C	1.614529	-0.163403	-0.000003
C42	C	1.748116	-0.199194	-0.000015
O43	O	1.497326	-0.252222	0.000018
O44	O	1.994976	-0.274786	-0.000055
C45	C	2.011231	0.084155	-0.000027
C46	C	2.174977	0.086123	-0.000038
C47	C	1.729170	0.190979	-0.000064
C48	C	1.731154	0.254210	-0.000087
N49	N	1.741457	0.086919	0.425651
N50	N	1.741486	0.086919	-0.425703
H51	H	1.992289	-0.204710	-0.000018
H52	H	1.361303	-0.449820	-0.000123
H53	H	1.364656	-0.342046	-0.000113
H54	H	1.490659	-0.621442	-0.000085
C55	C	2.169506	-0.335795	-0.140499
C56	C	2.160224	-0.369591	-0.000044
H57	H	2.261406	-0.319774	-0.140501
H58	H	2.163186	-0.358715	-0.235759
H59	H	2.090232	-0.305971	-0.140474
H60	H	2.239493	-0.399418	-0.000076
H61	H	2.166559	-0.346670	0.095241
H62	H	1.507618	-0.074840	0.000017
H63	H	1.504263	-0.182633	0.000029
H64	H	1.995617	-0.096935	0.000038
C65	C	2.026553	-0.603015	0.140382
C66	C	2.017269	-0.636797	-0.000072
H67	H	2.118458	-0.586997	0.140382
H68	H	1.947292	-0.573193	0.140365
H69	H	2.020229	-0.625948	0.235653
H70	H	2.023582	-0.613863	-0.095344
H71	H	2.096552	-0.666623	-0.000070
H72	H	1.975325	-0.751318	-0.000084
C73	C	2.163553	-0.528817	-0.140507
C74	C	2.156360	-0.494291	-0.000053
H75	H	2.254214	-0.553095	-0.140500
H76	H	2.082674	-0.551393	-0.140500
H77	H	2.158675	-0.505377	-0.235778
H78	H	2.161227	-0.517731	0.095219
H79	H	2.237261	-0.471713	-0.000045
C80	C	1.331906	-0.691978	-0.000083
C81	C	1.448738	-0.735948	-0.000083
H82	H	1.240009	-0.708001	-0.000103
H83	H	1.338219	-0.669068	0.095199
H84	H	1.338244	-0.669050	-0.095363
H85	H	1.442405	-0.758873	0.095204
H86	H	1.442421	-0.758867	-0.095374
