data_functionalizedCrystal
_audit_creation_method	'MofGen! by Chris Wilmer'
_symmetry_space_group_name_H-M	'P1'
_symmetry_Int_Tables_number	1
_symmetry_cell_setting	triclinic
loop_
_symmetry_equiv_pos_as_xyz
  x,y,z
_cell_length_a	10.489741
_cell_length_b	14.971486
_cell_length_c	14.048226
_cell_angle_alpha	89.997111
_cell_angle_beta	90.002014
_cell_angle_gamma	95.923349
loop_
_atom_site_label
_atom_site_type_symbol
_atom_site_fract_x
_atom_site_fract_y
_atom_site_fract_z
O1	O	1.692594	-0.126193	0.079102
O2	O	1.321261	-0.138038	0.079117
O3	O	1.516880	-0.001972	0.079103
O4	O	1.496975	-0.262259	0.079117
O5	O	1.516862	-0.001973	-0.079219
O6	O	1.321243	-0.138040	-0.079204
O7	O	1.692575	-0.126194	-0.079219
Zn8	Zn	1.506906	-0.132117	-0.104348
Zn9	Zn	1.506930	-0.132115	0.104247
O10	O	1.496956	-0.262260	-0.079204
C11	C	1.273731	-0.137144	-0.000042
C12	C	1.132132	-0.134468	-0.000036
N13	N	1.506899	-0.132117	-0.246709
C14	C	1.515981	0.031357	-0.000058
C15	C	1.513313	0.130669	-0.000057
C16	C	1.064994	-0.047893	-0.000050
C17	C	0.972403	-0.088789	0.078011
C18	C	0.972418	-0.088811	-0.078081
C19	C	1.041406	-0.175400	0.078089
C20	C	1.041431	-0.175410	-0.078073
C21	C	0.948867	-0.216369	0.000007
C22	C	1.740106	-0.127088	-0.000058
C23	C	1.881704	-0.129765	-0.000057
C24	C	1.497856	-0.295589	-0.000042
C25	C	1.500523	-0.394902	-0.000037
C26	C	1.628234	0.187241	-0.000062
C27	C	1.625720	0.280554	-0.000052
C28	C	1.508283	0.317295	-0.000044
C29	C	1.393354	0.260716	-0.000036
C30	C	1.395869	0.167404	-0.000039
C31	C	1.388119	0.455209	-0.000032
C32	C	1.385603	0.548527	-0.000031
C33	C	1.617969	0.568359	-0.000046
C34	C	1.620485	0.475047	-0.000049
C35	C	1.505554	0.418474	-0.000042
C36	C	1.429512	-0.077327	-0.703576
C37	C	1.429507	-0.077324	-0.603919
C38	C	1.506932	-0.132108	-0.554079
C39	C	1.584377	-0.186891	-0.603902
C40	C	1.584388	-0.186889	-0.703558
C41	C	1.584347	-0.186894	-0.396188
C42	C	1.584334	-0.186899	-0.296525
C43	C	1.429466	-0.077330	-0.296549
C44	C	1.429477	-0.077327	-0.396205
C45	C	1.506920	-0.132112	-0.446021
N46	N	1.506948	-0.132108	0.246607
H47	H	1.115507	0.023277	0.000044
O48	O	1.345979	-0.018242	-0.550189
H49	H	1.244070	-0.037019	-0.569321
H50	H	1.366457	-0.032720	-0.744149
H51	H	0.898618	-0.287614	0.000053
O52	O	1.747153	0.435425	-0.000054
H53	H	1.753856	0.393396	-0.064589
H54	H	1.647444	-0.231497	-0.744117
O55	O	1.082000	-0.223898	-0.165485
H56	H	1.187448	-0.226000	-0.164293
O57	O	0.931880	-0.040264	0.165419
H58	H	0.960872	-0.075567	0.230154
O59	O	1.754900	0.147616	-0.000073
H60	H	1.761604	0.105568	0.064451
O61	O	0.931948	-0.040278	-0.165508
H62	H	0.883166	0.018764	-0.143527
O63	O	1.081678	-0.223851	0.165630
H64	H	1.187232	-0.225417	0.164977
H65	H	1.647376	-0.231511	-0.255949
O66	O	1.741927	0.629377	-0.000049
H67	H	1.798099	0.616235	-0.064591
H68	H	1.719300	0.326611	-0.000059
O69	O	1.258944	0.588161	-0.000006
H70	H	1.179447	0.533148	0.000016
O71	O	1.667884	-0.245973	-0.449926
H72	H	1.606813	-0.293618	-0.495342
O73	O	1.264162	0.394186	-0.000035
H74	H	1.182077	0.435409	-0.000042
H75	H	1.647424	-0.231493	-0.563315
H76	H	1.366425	-0.032722	-0.436781
O77	O	1.266689	0.300343	-0.000038
H78	H	1.259993	0.342388	0.064484
H79	H	1.302289	0.121344	-0.000034
O80	O	1.345950	-0.018227	-0.242827
H81	H	1.358963	-0.027419	-0.165157
