data_functionalizedCrystal
_audit_creation_method	'MofGen! by Chris Wilmer'
_symmetry_space_group_name_H-M	'P1'
_symmetry_Int_Tables_number	1
_symmetry_cell_setting	triclinic
loop_
_symmetry_equiv_pos_as_xyz
  x,y,z
_cell_length_a	10.654550
_cell_length_b	12.837942
_cell_length_c	9.730223
_cell_angle_alpha	89.998888
_cell_angle_beta	89.996251
_cell_angle_gamma	89.656921
loop_
_atom_site_label
_atom_site_type_symbol
_atom_site_fract_x
_atom_site_fract_y
_atom_site_fract_z
O1	O	1.683735	0.145718	-0.114403
O2	O	1.319772	0.159602	-0.114381
O3	O	1.493683	0.001699	-0.114383
O4	O	1.509824	0.303621	-0.114401
O5	O	1.493681	0.001703	0.114196
O6	O	1.319770	0.159606	0.114199
O7	O	1.683734	0.145722	0.114177
Zn8	Zn	1.501752	0.152665	0.150480
Zn9	Zn	1.501754	0.152659	-0.150684
O10	O	1.509822	0.303625	0.114179
C11	C	1.272862	0.158585	-0.000089
C12	C	1.133086	0.155535	-0.000080
C13	C	1.063745	0.248505	-0.000105
C14	C	0.932411	0.245633	-0.000129
C15	C	0.939770	0.056812	-0.000107
C16	C	1.071101	0.059685	-0.000074
C17	C	1.059496	0.357520	-0.000124
C18	C	0.928162	0.354648	-0.000148
C19	C	1.488230	-0.036959	-0.000094
C20	C	1.471967	-0.152153	-0.000095
C21	C	1.667472	-0.391705	-0.000136
C22	C	1.652197	-0.499941	-0.000137
C23	C	1.426146	-0.476862	-0.000109
C24	C	1.441420	-0.368626	-0.000108
C25	C	1.562087	-0.326052	-0.000119
C26	C	1.577360	-0.217814	-0.000108
C27	C	1.351309	-0.194737	-0.000090
C28	C	1.336035	-0.302973	-0.000091
C29	C	1.730644	0.146740	-0.000119
C30	C	1.870420	0.149790	-0.000137
C31	C	1.515276	0.342283	-0.000114
C32	C	1.531538	0.457477	-0.000122
N33	N	1.501759	0.152668	0.356016
N34	N	1.501755	0.152648	-0.356221
C35	C	1.578792	0.082772	0.427941
C36	C	1.578787	0.082760	0.571824
C37	C	1.424714	0.222547	0.571844
C38	C	1.424713	0.222554	0.427964
C39	C	1.667748	0.002070	0.427931
C40	C	1.667744	0.002058	0.571814
H41	H	0.886085	0.387595	0.098535
H42	H	1.127554	-0.016021	-0.000033
N43	N	1.616474	-0.097770	0.630938
H44	H	1.591701	-0.145996	0.553679
H45	H	1.682960	-0.132490	0.689372
N46	N	0.872915	-0.046564	-0.000090
H47	H	0.779194	-0.034279	-0.000108
H48	H	0.897494	-0.087298	-0.084815
H49	H	1.761690	0.027339	0.383297
N50	N	0.878805	0.409051	-0.126864
H51	H	0.951508	0.435393	-0.183400
H52	H	0.828071	0.358451	-0.183305
H53	H	1.766195	0.019834	0.610857
H54	H	1.675613	-0.183153	-0.000112
N55	N	1.296008	-0.522790	-0.000112
H56	H	1.302329	-0.601319	-0.000121
H57	H	1.249321	-0.498842	0.084632
H58	H	1.765723	-0.357041	-0.000131
N59	N	1.765858	-0.570759	-0.000137
H60	H	1.764559	-0.616179	-0.084872
H61	H	1.844552	-0.527291	-0.000090
N62	N	1.104526	0.414004	0.126577
H63	H	1.029893	0.437133	0.183101
H64	H	1.159111	0.365718	0.183036
H65	H	1.237791	-0.337651	-0.000087
N66	N	1.237633	-0.123925	-0.000064
H67	H	1.265615	-0.048897	-0.000062
H68	H	1.185603	-0.137800	-0.084796
H69	H	1.098940	0.392230	-0.098814
H70	H	1.361985	0.279446	0.630439
H71	H	1.637603	-0.077675	0.388883
N72	N	1.341605	0.297921	0.350384
H73	H	1.292798	0.342189	0.417798
H74	H	1.395192	0.344171	0.290679
