data_functionalizedCrystal
_audit_creation_method	'MofGen! by Chris Wilmer'
_symmetry_space_group_name_H-M	'P1'
_symmetry_Int_Tables_number	1
_symmetry_cell_setting	triclinic
loop_
_symmetry_equiv_pos_as_xyz
  x,y,z
_cell_length_a	11.169417
_cell_length_b	17.637651
_cell_length_c	11.169409
_cell_angle_alpha	101.252056
_cell_angle_beta	90.019513
_cell_angle_gamma	101.220701
loop_
_atom_site_label
_atom_site_type_symbol
_atom_site_fract_x
_atom_site_fract_y
_atom_site_fract_z
Zn1	Zn	1.738332	-0.314683	0.581808
Zn2	Zn	1.697612	-0.446928	0.340477
Zn3	Zn	1.537602	-0.314732	0.381129
Zn4	Zn	1.497035	-0.446865	0.541142
O5	O	1.617645	-0.380802	0.461139
O6	O	1.900878	-0.332232	0.549801
O7	O	1.676322	-0.429439	0.177905
O8	O	1.598248	-0.204082	0.441781
O9	O	1.870961	-0.429392	0.372496
O10	O	1.745723	-0.204046	0.589220
O11	O	1.558764	-0.332315	0.207772
O12	O	1.364273	-0.332254	0.402349
O13	O	1.529108	-0.429284	0.714501
O14	O	1.334469	-0.429331	0.519910
O15	O	1.706387	-0.332170	0.744378
O16	O	1.636986	-0.557563	0.333064
O17	O	1.489624	-0.557516	0.480492
C18	C	1.305824	-0.380791	0.461129
C19	C	1.172420	-0.380806	0.461147
C20	C	1.554517	-0.586228	0.397980
C21	C	1.527620	-0.674110	0.371000
C22	C	1.822757	-0.962756	0.666478
C23	C	1.797446	-1.045334	0.641106
C24	C	1.643982	-1.045479	0.487430
C25	C	1.669285	-0.962899	0.512785
C26	C	1.758673	-0.921544	0.602312
C27	C	1.605201	-0.921687	0.448619
C28	C	1.630498	-0.839114	0.473977
C29	C	1.719879	-0.797753	0.563502
C30	C	1.783970	-0.838970	0.627670
C31	C	1.515808	-0.963044	0.359099
C32	C	1.451723	-0.921831	0.294932
C33	C	1.477026	-0.839257	0.320284
C34	C	1.566407	-0.797896	0.409809
C35	C	1.412935	-0.798039	0.256116
C36	C	1.438232	-0.715466	0.281474
C37	C	1.591704	-0.715323	0.435167
C38	C	1.930684	-0.380813	0.461150
C39	C	2.064083	-0.380818	0.461155
C40	C	1.617764	-0.380714	0.774209
C41	C	1.617815	-0.380677	0.907620
C42	C	1.681053	-0.174574	0.524571
C43	C	1.708074	-0.086691	0.551602
C44	C	1.617613	-0.380832	0.149305
C45	C	1.617863	-0.380647	0.015962
H46	H	1.664502	-0.681649	0.508060
F47	F	1.746505	-0.709870	0.590788
F48	F	1.879121	-0.794952	0.722942
H49	H	1.895555	-0.929083	0.739371
F50	F	1.865666	-1.089193	0.709403
H51	H	1.571200	-1.079162	0.414541
H52	H	1.378941	-0.955514	0.222043
F53	F	1.489027	-1.050926	0.331972
F54	F	1.317790	-0.842062	0.160854
F55	F	1.370030	-0.671602	0.213177
