data_functionalizedCrystal
_audit_creation_method	'MofGen! by Chris Wilmer'
_symmetry_space_group_name_H-M	'P1'
_symmetry_Int_Tables_number	1
_symmetry_cell_setting	triclinic
loop_
_symmetry_equiv_pos_as_xyz
  x,y,z
_cell_length_a	19.077212
_cell_length_b	12.759400
_cell_length_c	19.076919
_cell_angle_alpha	92.276034
_cell_angle_beta	89.885058
_cell_angle_gamma	92.305448
loop_
_atom_site_label
_atom_site_type_symbol
_atom_site_fract_x
_atom_site_fract_y
_atom_site_fract_z
Zn1	Zn	1.058342	-0.381397	-0.440604
Zn2	Zn	1.063004	-0.549765	-0.323106
Zn3	Zn	0.945557	-0.380844	-0.318380
Zn4	Zn	0.940825	-0.563779	-0.435840
O5	O	1.001932	-0.468946	-0.379483
O6	O	1.157293	-0.398098	-0.428990
O7	O	1.051356	-0.521261	-0.224148
O8	O	0.960548	-0.233895	-0.334608
O9	O	1.160718	-0.521797	-0.342664
O10	O	1.043410	-0.234302	-0.424406
O11	O	0.965068	-0.397155	-0.220676
O12	O	0.846596	-0.410744	-0.329989
O13	O	0.952482	-0.545682	-0.534803
O14	O	0.843119	-0.545146	-0.416287
O15	O	1.038821	-0.411687	-0.538303
O16	O	1.046767	-0.698646	-0.338045
O17	O	0.957002	-0.708942	-0.420870
C18	C	0.819361	-0.479406	-0.372109
C19	C	0.741256	-0.483907	-0.368971
C20	C	0.301797	-0.516148	-0.346498
C21	C	0.375185	-0.511913	-0.349441
C22	C	0.410095	-0.445506	-0.395930
C23	C	0.371613	-0.383322	-0.439475
C24	C	0.298226	-0.387553	-0.436528
C25	C	0.629387	-0.425954	-0.409568
C26	C	0.702779	-0.421731	-0.412513
C27	C	0.706346	-0.550321	-0.322478
C28	C	0.632958	-0.554550	-0.319538
C29	C	0.594482	-0.492362	-0.363080
N30	N	0.485110	-0.441178	-0.398941
N31	N	0.519469	-0.496686	-0.360065
C32	C	1.001895	-0.741915	-0.379470
C33	C	1.001943	-0.858690	-0.379491
C34	C	1.045066	-0.913688	-0.426284
C35	C	1.045098	-1.023411	-0.426303
C36	C	0.958883	-1.023129	-0.332728
C37	C	0.958848	-0.913408	-0.332713
C38	C	1.088161	-0.858969	-0.473062
C39	C	1.131288	-0.913967	-0.519859
C40	C	1.131320	-1.023690	-0.519877
C41	C	1.088225	-1.078416	-0.473099
C42	C	1.185215	-0.458446	-0.386886
C43	C	1.263320	-0.453972	-0.390040
C44	C	0.994604	-0.480309	-0.562762
C45	C	0.991481	-0.485152	-0.640865
C46	C	1.001987	-0.194911	-0.379511
C47	C	1.002010	-0.078134	-0.379524
C48	C	1.034964	-0.417665	-0.679381
C49	C	1.032021	-0.422212	-0.752767
C50	C	0.985598	-0.494250	-0.787635
C51	C	0.942111	-0.561739	-0.749113
C52	C	0.945051	-0.557187	-0.675729
C53	C	0.971983	-0.515340	-1.006915
C54	C	0.969048	-0.519889	-1.080305
C55	C	1.058958	-0.380360	-1.083953
C56	C	1.061896	-0.375819	-1.010567
C57	C	1.018406	-0.443304	-0.972052
N58	N	0.982591	-0.498901	-0.862647
N59	N	1.021410	-0.438647	-0.897041
C60	C	1.009272	-0.457549	-0.196918
C61	C	1.012531	-0.452403	-0.118821
H62	H	0.737681	-0.600949	-0.287029
H63	H	1.072768	-0.359007	-0.650997
O64	O	1.173142	-1.077281	-0.565309
C65	C	1.211437	-1.246431	-0.606779
C66	C	1.164023	-1.185875	-0.555302
H67	H	1.204092	-1.334238	-0.598696
H68	H	1.196783	-1.229142	-0.662942
H69	H	1.268585	-1.220727	-0.596774
H70	H	1.106861	-1.211543	-0.565244
H71	H	1.178737	-1.203167	-0.499157
O72	O	0.916883	-0.859937	-0.287356
C73	C	0.822393	-0.740959	-0.273991
C74	C	0.869863	-0.801479	-0.325432
H75	H	0.784376	-0.693664	-0.304755
H76	H	0.791548	-0.798865	-0.240565
H77	H	0.856152	-0.685486	-0.238561
H78	H	0.836157	-0.856952	-0.360907
H79	H	0.900713	-0.743513	-0.358809
H80	H	1.099700	-0.317160	-0.982182
H81	H	0.904310	-0.620391	-0.777509
H82	H	0.731201	-0.367647	-0.450370
H83	H	0.909635	-0.612131	-0.644370
H84	H	0.598069	-0.375322	-0.445026
H85	H	0.406510	-0.562542	-0.313983
O86	O	1.088192	-0.752389	-0.473159
C87	C	1.135485	-0.595081	-0.524443
C88	C	1.135506	-0.715783	-0.524421
H89	H	1.173746	-0.565448	-0.565874
H90	H	1.080487	-0.569309	-0.536823
H91	H	1.152242	-0.561124	-0.470604
H92	H	1.118781	-0.749827	-0.578245
H93	H	1.190513	-0.741481	-0.512002
O94	O	0.916963	-1.076126	-0.287261
C95	C	0.831482	-1.064267	-0.194413
C96	C	0.878908	-1.004122	-0.245880
H97	H	0.800713	-1.006077	-0.160933
H98	H	0.793396	-1.119742	-0.225129
H99	H	0.865270	-1.111517	-0.159040
H100	H	0.845176	-0.956812	-0.281266
H101	H	0.916998	-0.948710	-0.215120
O102	O	1.101126	-0.314847	-1.121472
C103	C	1.136473	-0.260053	-1.236143
C104	C	1.088668	-0.334299	-1.193738
H105	H	1.126429	-0.275769	-1.294578
H106	H	1.124723	-0.175130	-1.221275
H107	H	1.193703	-0.274346	-1.223962
H108	H	1.031422	-0.320101	-1.205897
H109	H	1.100479	-0.419196	-1.208612
O110	O	0.405632	-0.318905	-0.484616
C111	C	0.517106	-0.255355	-0.529033
C112	C	0.478671	-0.328370	-0.477887
H113	H	0.576164	-0.262966	-0.523599
H114	H	0.500475	-0.278282	-0.585109
H115	H	0.503126	-0.170696	-0.516218
H116	H	0.492631	-0.413051	-0.490637
H117	H	0.495305	-0.305353	-0.421825
O118	O	1.074334	-0.356615	-0.790075
C119	C	1.163798	-0.217708	-0.785948
C120	C	1.115928	-0.291955	-0.743612
H121	H	1.197429	-0.165395	-0.748400
H122	H	1.199200	-0.265919	-0.821770
H123	H	1.130162	-0.166792	-0.819023
H124	H	1.149508	-0.342886	-0.710496
H125	H	1.080523	-0.243681	-0.707834
O126	O	0.929838	-0.580942	-0.969441
C127	C	0.923651	-0.718255	-0.886236
C128	C	0.971467	-0.643997	-0.928621
H129	H	0.957289	-0.769269	-0.853234
H130	H	0.888301	-0.670052	-0.850355
H131	H	0.889959	-0.770470	-0.923787
H132	H	1.005203	-0.591767	-0.891123
H133	H	1.006771	-0.692263	-0.964511
H134	H	1.166370	-0.869404	-0.557948
O135	O	0.267999	-0.580682	-0.301276
C136	C	0.279290	-0.707821	-0.212313
C137	C	0.317652	-0.634766	-0.263485
H138	H	0.319417	-0.751584	-0.181756
H139	H	0.246414	-0.659252	-0.174201
H140	H	0.243631	-0.766768	-0.243141
H141	H	0.353347	-0.575805	-0.232716
H142	H	0.350484	-0.683403	-0.301597
O143	O	0.599160	-0.619074	-0.274312
C144	C	0.610444	-0.746208	-0.185344
C145	C	0.648809	-0.673161	-0.236518
H146	H	0.650568	-0.789973	-0.154785
H147	H	0.577569	-0.697633	-0.147234
H148	H	0.574782	-0.805154	-0.216170
H149	H	0.684506	-0.614201	-0.205750
H150	H	0.681640	-0.721804	-0.274628
O151	O	0.923986	-0.590004	-1.114104
C152	C	0.888957	-0.772060	-1.135207
C153	C	0.940019	-0.692775	-1.096871
H154	H	0.901912	-0.855169	-1.121300
H155	H	0.832866	-0.756042	-1.118481
H156	H	0.894323	-0.763661	-1.194267
H157	H	0.934716	-0.701129	-1.037804
H158	H	0.996090	-0.708817	-1.113655
H159	H	0.266899	-0.336918	-0.471982
H160	H	1.088246	-1.167761	-0.473125
