data_functionalizedCrystal
_audit_creation_method	'MofGen! by Chris Wilmer'
_symmetry_space_group_name_H-M	'P1'
_symmetry_Int_Tables_number	1
_symmetry_cell_setting	triclinic
loop_
_symmetry_equiv_pos_as_xyz
  x,y,z
_cell_length_a	16.704494
_cell_length_b	14.560438
_cell_length_c	14.560438
_cell_angle_alpha	60.000069
_cell_angle_beta	90.000007
_cell_angle_gamma	56.631965
loop_
_atom_site_label
_atom_site_type_symbol
_atom_site_fract_x
_atom_site_fract_y
_atom_site_fract_z
Zr1	Zr	0.815200	0.909256	-0.072490
O2	O	0.680083	1.116775	-0.227094
O3	O	0.856621	0.712776	-0.025099
O4	O	0.856621	0.904380	-0.216699
O5	O	0.680083	0.925168	0.115647
O6	O	0.995877	0.887978	-0.208497
O7	O	0.680082	0.925171	-0.035493
O8	O	0.995877	0.545233	0.134242
O9	O	0.680083	1.267913	-0.227091
O10	O	0.978212	0.777262	0.001238
O11	O	0.874286	0.789501	0.107911
O12	O	0.874286	1.015090	-0.117674
O13	O	0.770361	1.027329	-0.011001
Zr14	Zr	1.037299	0.883092	0.181644
Zr15	Zr	1.037298	0.883096	-0.059408
Zr16	Zr	0.815200	0.909252	0.168562
Zr17	Zr	0.815200	1.150304	-0.072486
Zr18	Zr	1.037298	0.642044	0.181639
O19	O	0.995878	1.079572	0.134252
O20	O	0.995878	1.079578	-0.208493
O21	O	0.680083	1.116769	0.115651
O22	O	1.172416	0.675573	0.336248
O23	O	1.172416	0.675579	-0.006498
O24	O	0.856621	0.712770	0.317647
O25	O	1.172416	0.867180	-0.006494
O26	O	0.995878	0.887968	0.325853
O27	O	0.856621	0.904371	0.317650
O28	O	1.172416	0.867177	0.144647
O29	O	0.856621	1.247119	-0.216693
O30	O	0.995877	0.545229	0.325846
O31	O	1.172416	0.524435	0.336245
O32	O	1.172416	0.524439	0.144640
O33	O	0.680083	1.267909	-0.035487
O34	O	0.856621	1.247115	-0.025089
O35	O	0.978212	0.777258	0.226827
O36	O	1.082138	0.765019	0.120154
O37	O	0.978212	1.002847	0.001242
O38	O	0.874287	1.015086	0.107915
C39	C	0.926249	0.594660	0.054571
C40	C	0.926249	0.492329	0.054569
C41	C	0.648438	0.928897	0.038213
C42	C	0.554152	0.940003	0.032659
C43	C	0.980494	0.437865	-0.001114
C44	C	0.980499	0.341705	-0.001103
C45	C	0.872002	0.354488	0.110274
C46	C	0.872005	0.450638	0.110270
C47	C	0.485484	0.712557	0.146395
C48	C	0.396896	0.722985	0.141180
C49	C	0.288387	0.971287	0.017021
C50	C	0.376975	0.960858	0.022236
C51	C	0.475522	0.831489	0.086924
C52	C	0.564111	0.821062	0.092132
C53	C	0.455602	1.069362	-0.032019
C54	C	0.367014	1.079790	-0.037234
C55	C	1.204060	0.863451	0.070940
C56	C	1.298347	0.852346	0.076494
C57	C	0.926249	0.896180	-0.246943
C58	C	0.926249	0.896181	-0.349276
C59	C	0.926250	1.197688	0.054582
C60	C	0.926250	1.300019	0.054584
C61	C	1.002966	0.887146	-0.392833
C62	C	1.002969	0.887134	-0.488979
C63	C	0.849528	0.905199	-0.498005
C64	C	0.849530	0.905201	-0.401856
C65	C	0.926250	0.896169	0.356096
C66	C	0.926250	0.896167	0.458429
C67	C	1.204060	0.561938	0.070935
C68	C	1.298346	0.448501	0.076486
C69	C	0.926249	0.594655	0.356091
C70	C	0.926249	0.492322	0.458422
C71	C	1.204060	0.561932	0.372454
C72	C	1.298347	0.448494	0.480339
C73	C	0.648438	1.230416	-0.263301
C74	C	0.554152	1.343855	-0.371186
C75	C	0.648439	1.230411	0.038219
C76	C	0.554152	1.343847	0.032667
C77	C	0.926249	1.197693	-0.246937
C78	C	0.926249	1.300026	-0.349268
C79	C	1.288376	0.401621	0.017010
C80	C	1.376959	0.295049	0.022204
C81	C	1.475512	0.235353	0.086880
C82	C	1.485480	0.282243	0.146358
C83	C	1.396898	0.388819	0.141157
C84	C	1.396882	0.388832	0.475321
C85	C	1.485483	0.282257	0.576681
C86	C	1.475546	0.235339	0.683059
C87	C	1.377000	0.295011	0.688074
C88	C	1.288402	0.401591	0.586715
C89	C	0.455617	1.403528	-0.366168
C90	C	0.367016	1.510133	-0.467528
C91	C	0.376953	1.557056	-0.573905
C92	C	0.475499	1.497378	-0.578920
C93	C	0.564097	1.390781	-0.477561
C94	C	0.564123	1.390738	0.092133
C95	C	0.475539	1.497336	0.086913
C96	C	0.376986	1.557035	0.022233
C97	C	0.367018	1.510141	-0.037240
C98	C	0.455601	1.403551	-0.032026
C99	C	0.980496	0.437853	0.568570
C100	C	0.980484	0.341711	0.664716
C101	C	0.871977	0.354512	0.540552
C102	C	0.871983	0.450659	0.444408
H103	H	1.024672	0.297360	-0.046443
H104	H	0.208139	1.076612	-0.035628
H105	H	1.547633	0.148572	0.091106
H106	H	0.644362	1.342138	0.144810
O107	O	1.366197	0.244476	-0.041940
H108	H	1.282783	0.303879	-0.087765
H109	H	0.304865	1.643826	0.017997
O110	O	1.085717	0.877396	-0.336106
H111	H	1.139071	0.871095	-0.382543
H112	H	0.644350	0.715722	0.144811
H113	H	0.405015	0.626138	0.189608
H114	H	0.447506	1.365331	-0.279560
O115	O	0.813485	0.509306	0.325633
H116	H	0.753488	0.622435	0.275419
H117	H	0.483676	1.535499	0.135348
O118	O	1.407665	0.439351	0.205335
H119	H	1.369914	0.549862	0.143695
O120	O	1.591779	0.217841	0.216126
H121	H	1.651692	0.135846	0.209755
O122	O	1.039005	0.282960	0.783516
H123	H	0.984239	0.307878	0.826913
H124	H	0.286765	1.558764	-0.089901
H125	H	0.827838	0.320532	0.155622
H126	H	0.447468	1.365377	-0.080448
H127	H	0.827831	0.494983	0.155618
H128	H	1.024679	0.471777	0.579986
O129	O	0.813482	0.309536	0.525439
H130	H	0.822607	0.233506	0.610800
O131	O	1.571114	0.120372	0.792375
H132	H	1.571058	0.032764	0.843141
H133	H	1.024665	0.471805	-0.046466
O134	O	0.260725	1.219320	-0.107002
H135	H	0.251724	1.276841	-0.198023
O136	O	1.182123	0.465929	0.592131
H137	H	1.139172	0.452528	0.548614
O138	O	1.366289	0.244396	0.802813
H139	H	1.323276	0.205652	0.810060
O140	O	0.591778	0.573034	0.216156
H141	H	0.583822	0.492082	0.256637
O142	O	1.085717	0.877390	-0.535955
H143	H	1.072838	0.878887	-0.611639
O144	O	0.260735	1.574467	-0.462107
H145	H	0.268719	1.523900	-0.371105
H146	H	0.447496	1.166206	-0.080448
O147	O	1.591764	0.217892	0.571260
H148	H	1.583780	0.268409	0.480259
H149	H	1.404992	0.427016	0.388713
H150	H	0.787065	0.912545	-0.540827
O151	O	0.766779	0.914953	-0.354869
H152	H	0.713422	0.921247	-0.407594
H153	H	0.304802	1.643854	-0.656430
O154	O	1.182084	0.466009	-0.052764
H155	H	1.190051	0.415505	-0.093256
H156	H	0.483577	1.535596	-0.665545
O157	O	0.670375	1.326404	-0.482979
H158	H	0.662389	1.376938	-0.573981
