data_functionalizedCrystal
_audit_creation_method	'MofGen! by Chris Wilmer'
_symmetry_space_group_name_H-M	'P1'
_symmetry_Int_Tables_number	1
_symmetry_cell_setting	triclinic
loop_
_symmetry_equiv_pos_as_xyz
  x,y,z
_cell_length_a	10.868271
_cell_length_b	11.026607
_cell_length_c	11.026607
_cell_angle_alpha	71.413983
_cell_angle_beta	90.002960
_cell_angle_gamma	89.996513
loop_
_atom_site_label
_atom_site_type_symbol
_atom_site_fract_x
_atom_site_fract_y
_atom_site_fract_z
O1	O	0.102319	-1.726733	0.533624
O2	O	0.602319	-1.226733	1.033624
O3	O	0.102321	-1.360153	0.472861
O4	O	0.602321	-0.860153	0.972861
O5	O	0.102316	-1.513061	0.319952
O6	O	0.602316	-1.013061	0.819952
O7	O	0.102325	-1.573825	0.686532
O8	O	0.602325	-1.073825	1.186532
O9	O	-0.102329	-1.513044	0.319941
O10	O	0.397671	-1.013044	0.819941
O11	O	-0.102323	-1.360135	0.472850
O12	O	0.397677	-0.860135	0.972850
O13	O	-0.102325	-1.726715	0.533613
O14	O	0.397675	-1.226715	1.033613
Zn15	Zn	-0.134816	-1.543423	0.503230
Zn16	Zn	0.365184	-1.043423	1.003230
Zn17	Zn	0.134812	-1.543446	0.503244
Zn18	Zn	0.634812	-1.043446	1.003244
O19	O	-0.102320	-1.573807	0.686521
O20	O	0.397680	-1.073807	1.186521
C21	C	-0.000001	-1.312485	0.461645
C22	C	0.499999	-0.812485	0.961645
C23	C	-0.000000	-1.170471	0.428228
C24	C	0.500000	-0.670471	0.928228
N25	N	-0.318830	-1.543416	0.503221
N26	N	0.181170	-1.043416	1.003221
C27	C	-0.000005	-1.501843	0.272287
C28	C	0.499995	-1.001843	0.772287
C29	C	-0.000000	-1.468426	0.130273
C30	C	0.500000	-0.968426	0.630273
C31	C	-0.569836	-1.543439	0.503240
C32	C	-0.069836	-1.043439	1.003240
C33	C	-0.430159	-1.543423	0.503232
C34	C	0.069841	-1.043423	1.003232
N35	N	0.318826	-1.543461	0.503245
N36	N	0.818826	-1.043461	1.003245
C37	C	-0.000001	-1.774384	0.544828
C38	C	0.499999	-1.274384	1.044828
C39	C	0.000007	-1.916398	0.578245
C40	C	0.500007	-1.416398	1.078245
C41	C	0.000003	-1.116821	0.520498
C42	C	0.500003	-0.616821	1.020498
C43	C	0.000004	-0.970043	0.485962
C44	C	0.500004	-0.470043	0.985962
C45	C	0.000001	-1.560695	0.076624
C46	C	0.500001	-1.060695	0.576624
C47	C	0.000006	-1.526160	-0.070155
C48	C	0.500006	-1.026160	0.429845
C49	C	0.000003	-1.585026	0.734187
C50	C	0.500003	-1.085026	1.234187
C51	C	0.000007	-1.618443	0.876200
C52	C	0.500007	-1.118443	1.376200
H53	H	-0.000002	-1.179555	0.625061
H54	H	0.499998	-0.679555	1.125061
N55	N	0.000024	-0.999464	0.716766
N56	N	0.500024	-0.499464	1.216766
H57	H	-0.075833	-0.980748	0.760649
H58	H	0.424167	-0.480748	1.260649
H59	H	0.000073	-1.092512	0.721707
H60	H	0.500073	-0.592512	1.221707
H61	H	0.000099	-1.723013	-0.061072
H62	H	0.500099	-1.223013	0.438928
H63	H	0.000008	-1.363863	0.067540
H64	H	0.500008	-0.863863	0.567540
N65	N	-0.000015	-0.886966	0.347445
N66	N	0.499985	-0.386966	0.847445
H67	H	-0.000017	-0.793888	0.342408
H68	H	0.499983	-0.293888	0.842408
H69	H	0.075847	-0.905782	0.303641
H70	H	0.575847	-0.405782	0.803641
H71	H	-0.000007	-1.665258	0.139357
H72	H	0.499993	-1.165258	0.639357
N73	N	-0.000018	-1.087390	0.289718
N74	N	0.499982	-0.587390	0.789718
H75	H	-0.000020	-0.994312	0.284681
H76	H	0.499980	-0.494312	0.784681
H77	H	0.075843	-1.106206	0.245914
H78	H	0.575843	-0.606206	0.745914
N79	N	0.000019	-1.387643	-0.153232
N80	N	0.500019	-0.887643	0.346768
H81	H	0.000023	-1.382605	-0.246309
H82	H	0.500023	-0.882605	0.253691
H83	H	-0.075846	-1.343832	-0.134428
H84	H	0.424154	-0.843832	0.365572
