data_functionalizedCrystal
_audit_creation_method	'MofGen! by Chris Wilmer'
_symmetry_space_group_name_H-M	'P1'
_symmetry_Int_Tables_number	1
_symmetry_cell_setting	triclinic
loop_
_symmetry_equiv_pos_as_xyz
  x,y,z
_cell_length_a	18.101389
_cell_length_b	12.645331
_cell_length_c	12.645330
_cell_angle_alpha	90.016927
_cell_angle_beta	89.986557
_cell_angle_gamma	89.987744
loop_
_atom_site_label
_atom_site_type_symbol
_atom_site_fract_x
_atom_site_fract_y
_atom_site_fract_z
Zn1	Zn	-0.418626	1.620695	-0.422172
Zn2	Zn	0.081374	2.120695	0.077828
Zn3	Zn	-0.294795	1.620587	-0.599425
Zn4	Zn	0.205205	2.120587	-0.099425
Zn5	Zn	-0.294813	1.443420	-0.422173
Zn6	Zn	0.205187	1.943420	0.077827
Zn7	Zn	-0.418610	1.443391	-0.599392
Zn8	Zn	0.081390	1.943391	-0.099392
O9	O	-0.356711	1.532023	-0.510791
O10	O	0.143289	2.032023	-0.010791
O11	O	-0.402199	1.769028	-0.445698
O12	O	0.097801	2.269028	0.054302
O13	O	-0.191165	1.597053	-0.575926
O14	O	0.308835	2.097053	-0.075926
O15	O	-0.311251	1.466993	-0.273826
O16	O	0.188749	1.966993	0.226174
O17	O	-0.311221	1.768949	-0.575925
O18	O	0.188779	2.268949	-0.075925
O19	O	-0.402216	1.597236	-0.273825
O20	O	0.097784	2.097236	0.226175
O21	O	-0.191178	1.466889	-0.445701
O22	O	0.308822	1.966889	0.054299
O23	O	-0.311236	1.295069	-0.445669
O24	O	0.188764	1.795069	0.054331
O25	O	-0.522245	1.466944	-0.575869
O26	O	-0.022245	1.966944	-0.075869
O27	O	-0.402189	1.295048	-0.575870
O28	O	0.097811	1.795048	-0.075870
O29	O	-0.522257	1.597208	-0.445666
O30	O	-0.022257	2.097208	0.054334
O31	O	-0.311205	1.597025	-0.747768
O32	O	0.188795	2.097025	-0.247768
O33	O	-0.402171	1.466839	-0.747743
O34	O	0.097829	1.966839	-0.247743
C35	C	-0.356713	1.256594	-0.510767
C36	C	0.143287	1.756594	-0.010767
C37	C	-0.356731	1.138764	-0.510782
C38	C	0.143269	1.638764	-0.010782
C39	C	-0.413651	0.971222	-0.593141
C40	C	0.086349	1.471222	-0.093141
C41	C	-0.413889	1.093782	-0.592875
C42	C	0.086111	1.593782	-0.092875
C43	C	-0.378053	1.094284	-0.399133
C44	C	0.121947	1.594284	0.100867
C45	C	-0.378454	0.971685	-0.399636
C46	C	0.121546	1.471685	0.100364
C47	C	-0.278309	0.971525	-0.539173
C48	C	0.221691	1.471525	-0.039173
C49	C	-0.278732	1.094131	-0.541615
C50	C	0.221268	1.594131	-0.041615
C51	C	-0.549873	1.532085	-0.510764
C52	C	-0.049873	2.032085	-0.010764
C53	C	-0.632187	1.532111	-0.510752
C54	C	-0.132187	2.032111	-0.010752
C55	C	-0.931278	1.532172	-0.510554
C56	C	-0.431278	2.032172	-0.010554
C57	C	-0.899946	1.449931	-0.592213
C58	C	-0.399946	1.949931	-0.092213
C59	C	-0.814327	1.450154	-0.592592
C60	C	-0.314327	1.950154	-0.092592
C61	C	-0.782896	1.532141	-0.510652
C62	C	-0.282896	2.032141	-0.010652
C63	C	-0.813987	1.643839	-0.540978
C64	C	-0.313987	2.143839	-0.040978
C65	C	-0.899632	1.643381	-0.541514
C66	C	-0.399632	2.143381	-0.041514
C67	C	-0.899700	1.503686	-0.398387
C68	C	-0.399700	2.003686	0.101613
C69	C	-0.814049	1.501201	-0.399035
C70	C	-0.314049	2.001201	0.100965
C71	C	-0.699036	1.532130	-0.510706
C72	C	-0.199036	2.032130	-0.010706
C73	C	-1.015138	1.532191	-0.510502
C74	C	-0.515138	2.032191	-0.010502
C75	C	-0.164300	1.532023	-0.510741
C76	C	0.335700	2.032023	-0.010741
C77	C	-0.081987	1.532203	-0.510454
C78	C	0.418013	2.032203	-0.010454
C79	C	-0.356701	1.531946	-0.786220
C80	C	0.143299	2.031946	-0.286220
C81	C	-0.356721	1.532010	-0.904050
C82	C	0.143279	2.032010	-0.404050
C83	C	-0.356709	1.808528	-0.510815
C84	C	0.143291	2.308528	-0.010815
C85	C	-0.356709	1.926359	-0.510826
C86	C	0.143291	2.426359	-0.010826
C87	C	-0.414124	1.450448	-1.071643
C88	C	0.085876	1.950448	-0.571643
C89	C	-0.413940	1.450031	-0.949084
C90	C	0.086060	1.950031	-0.449084
C91	C	-0.278676	1.501771	-0.948622
C92	C	0.221324	2.001771	-0.448622
C93	C	-0.279025	1.501273	-1.071220
C94	C	0.220975	2.001273	-0.571220
C95	C	-0.376729	1.644309	-1.071147
C96	C	0.123271	2.144309	-0.571147
C97	C	-0.378436	1.643621	-0.948540
C98	C	0.121564	2.143621	-0.448540
C99	C	-0.356738	1.532130	-0.234285
C100	C	0.143262	2.032130	0.265715
C101	C	-0.356749	1.532175	-0.116455
C102	C	0.143251	2.032175	0.383545
H103	H	-0.258929	0.940605	-0.619197
H104	H	0.241071	1.440605	-0.119197
H105	H	-0.792653	1.556729	-0.334964
H106	H	-0.292653	2.056729	0.165036
H107	H	-0.261443	1.420655	-0.918005
H108	H	0.238557	1.920655	-0.418005
H109	H	-0.435768	0.943106	-0.375589
H110	H	0.064232	1.443106	0.124411
H111	H	-0.793628	1.706761	-0.483370
H112	H	-0.293628	2.206761	0.016630
H113	H	-0.471981	1.123125	-0.574117
H114	H	0.028019	1.623125	-0.074117
H115	H	-0.471405	0.940425	-0.574625
H116	H	0.028595	1.440425	-0.074625
H117	H	-0.793306	1.367326	-0.573614
H118	H	-0.293306	1.867326	-0.073614
H119	H	-0.920542	1.366854	-0.573430
H120	H	-0.420542	1.866854	-0.073430
H121	H	-0.919963	1.563587	-0.337547
H122	H	-0.419963	2.063587	0.162453
H123	H	-0.434746	1.125004	-0.374648
H124	H	0.065254	1.625004	0.125352
H125	H	-0.337874	1.123420	-0.336137
H126	H	0.162126	1.623420	0.163863
H127	H	-0.921296	1.423651	-0.370758
H128	H	-0.421296	1.923651	0.129242
H129	H	-0.338881	0.942008	-0.336108
H130	H	0.161119	1.442008	0.163892
H131	H	-0.792546	1.668401	-0.622102
H132	H	-0.292546	2.168401	-0.122102
H133	H	-0.401057	1.367836	-1.102539
H134	H	0.098943	1.867836	-0.602539
H135	H	-0.234819	1.558217	-1.100866
H136	H	0.265181	2.058217	-0.600866
H137	H	-0.234760	1.559410	-0.919452
H138	H	0.265240	2.059410	-0.419452
H139	H	-0.262651	1.123215	-0.623772
H140	H	0.237349	1.623215	-0.123772
H141	H	-0.793728	1.419002	-0.376166
H142	H	-0.293728	1.919002	0.123834
H143	H	-0.921473	1.468553	-0.674847
H144	H	-0.421473	1.968553	-0.174847
H145	H	-0.234029	1.124751	-0.486008
H146	H	0.265971	1.624751	0.013992
H147	H	-0.432671	1.671894	-1.102007
H148	H	0.067329	2.171894	-0.602007
H149	H	-0.235882	0.942511	-0.479215
H150	H	0.264118	1.442511	0.020785
H151	H	-0.262098	1.419303	-1.099906
H152	H	0.237902	1.919303	-0.599906
H153	H	-0.919617	1.667526	-0.623509
H154	H	-0.419617	2.167526	-0.123509
H155	H	-0.793847	1.468962	-0.675733
H156	H	-0.293847	1.968962	-0.175733
H157	H	-0.920359	1.706735	-0.484619
H158	H	-0.420359	2.206735	0.015381
H159	H	-0.471809	1.468949	-0.918946
H160	H	0.028191	1.968949	-0.418946
H161	H	-0.472184	1.469193	-1.101072
H162	H	0.027816	1.969193	-0.601072
H163	H	-0.400703	1.366900	-0.919844
H164	H	0.099297	1.866900	-0.419844
H165	H	-0.435873	1.666425	-0.919407
H166	H	0.064127	2.166425	-0.419407
H167	H	-0.334940	1.705198	-1.100124
H168	H	0.165060	2.205198	-0.600124
H169	H	-0.400527	1.123855	-0.675669
H170	H	0.099473	1.623855	-0.175669
H171	H	-0.400436	0.941731	-0.676209
H172	H	0.099564	1.441731	-0.176209
H173	H	-0.339689	1.707718	-0.917880
H174	H	0.160311	2.207718	-0.417880
