data_functionalizedCrystal
_audit_creation_method	'MofGen! by Chris Wilmer'
_symmetry_space_group_name_H-M	'P1'
_symmetry_Int_Tables_number	1
_symmetry_cell_setting	triclinic
loop_
_symmetry_equiv_pos_as_xyz
  x,y,z
_cell_length_a	10.489694
_cell_length_b	9.565339
_cell_length_c	10.489689
_cell_angle_alpha	90.003690
_cell_angle_beta	84.518886
_cell_angle_gamma	89.997533
loop_
_atom_site_label
_atom_site_type_symbol
_atom_site_fract_x
_atom_site_fract_y
_atom_site_fract_z
O1	O	-1.694054	0.116213	-0.179677
O2	O	-1.322848	0.116222	-0.196633
O3	O	-1.516932	0.116220	-0.002552
O4	O	-1.499970	0.116215	-0.373759
O5	O	-1.516917	-0.116300	-0.002564
O6	O	-1.322832	-0.116298	-0.196645
O7	O	-1.694039	-0.116308	-0.179689
Zn8	Zn	-1.508433	-0.153220	-0.188169
Zn9	Zn	-1.508453	0.153135	-0.188153
O10	O	-1.499954	-0.116305	-0.373771
C11	C	-1.275307	-0.000037	-0.195371
C12	C	-1.133676	-0.000032	-0.191578
C13	C	-1.035979	-0.000030	-0.310593
C14	C	-0.958636	-0.114678	-0.247719
C15	C	-0.958658	0.114568	-0.247679
C16	C	-1.058199	-0.114776	-0.128754
C17	C	-1.058226	0.114574	-0.128731
C18	C	-0.980932	-0.000103	-0.065770
N19	N	-1.508429	-0.362300	-0.188179
C20	C	-1.418643	-0.453502	-0.277905
C21	C	-1.534138	-0.546684	-0.303697
C22	C	-1.392984	-0.546673	-0.162398
C23	C	-1.623982	-0.453430	-0.214029
C24	C	-1.482751	-0.453411	-0.072679
C25	C	-1.598329	-0.546551	-0.098423
C26	C	-0.741576	-0.000042	-0.180972
C27	C	-0.883201	-0.000026	-0.184825
C28	C	-1.515657	-0.000036	0.044975
C29	C	-1.511867	-0.000025	0.186607
N30	N	-1.508468	0.362214	-0.188133
C31	C	-1.628589	-0.000043	0.369015
C32	C	-1.570277	-0.114684	0.276854
C33	C	-1.570261	0.114562	0.276890
C34	C	-1.446737	-0.114789	0.346785
C35	C	-1.446738	0.114561	0.346830
C36	C	-1.388337	-0.000109	0.254697
C37	C	-1.501249	-0.000047	0.578705
C38	C	-1.505100	-0.000053	0.437080
H39	H	-1.101738	0.211506	-0.078523
O40	O	-1.276439	-0.595296	-0.136321
C41	C	-1.194317	-0.481517	-0.119286
H42	H	-1.253890	-0.384739	-0.091084
H43	H	-1.130426	-0.507327	-0.040465
H44	H	-1.132231	-0.460482	-0.212532
H45	H	-1.721650	-0.412645	-0.235932
O46	O	-1.456844	-0.404246	0.043726
C47	C	-1.458322	-0.256864	0.042377
H48	H	-1.518517	-0.218879	-0.035661
H49	H	-1.501377	-0.216505	0.139336
H50	H	-1.356271	-0.216029	0.022367
O51	O	-1.384322	-0.230404	0.383646
C52	C	-1.276633	-0.189492	0.445358
H53	H	-1.291623	-0.078858	0.484350
H54	H	-1.263547	-0.264298	0.527700
H55	H	-1.187652	-0.192239	0.373929
O56	O	-1.267219	-0.000099	0.195454
C57	C	-1.272165	0.001023	0.061609
H58	H	-1.367999	0.045682	0.038327
H59	H	-1.191066	0.068555	0.015121
H60	H	-1.261430	-0.110256	0.023148
O61	O	-1.689191	-0.594934	-0.008009
C62	C	-1.810693	-0.547136	-0.035634
H63	H	-1.807998	-0.521142	-0.141917
H64	H	-1.885048	-0.632159	-0.010614
H65	H	-1.837282	-0.449460	0.023287
H66	H	-1.101518	-0.211800	-0.078547
H67	H	-1.730096	-0.000159	0.418722
O68	O	-1.560259	-0.595415	-0.420192
C69	C	-1.681128	-0.545904	-0.448048
H70	H	-1.706028	-0.447044	-0.390259
H71	H	-1.678362	-0.521316	-0.554615
H72	H	-1.756731	-0.629315	-0.421796
H73	H	-1.622522	-0.211609	0.245870
O74	O	-0.906930	0.230164	-0.307803
C75	C	-0.934445	0.229709	-0.436766
H76	H	-1.022712	0.162580	-0.446854
H77	H	-0.953531	0.341203	-0.468309
H78	H	-0.849343	0.184981	-0.499415
O79	O	-1.328284	-0.404809	-0.368673
C80	C	-1.355855	-0.452368	-0.490269
H81	H	-1.462108	-0.478492	-0.487626
H82	H	-1.330932	-0.367150	-0.564455
H83	H	-1.296822	-0.549915	-0.517053
O84	O	-1.384646	0.230334	0.383808
C85	C	-1.450069	0.350977	0.348549
H86	H	-1.554168	0.323509	0.337389
H87	H	-1.446230	0.434169	0.425914
H88	H	-1.402714	0.392808	0.253837
O89	O	-1.632790	0.230151	0.240144
C90	C	-1.759428	0.229687	0.298882
H91	H	-1.764694	0.162568	0.389031
H92	H	-1.789763	0.341179	0.325516
H93	H	-1.826230	0.184940	0.229597
H94	H	-0.915137	-0.211606	-0.297966
H95	H	-1.060629	-0.000139	-0.414109
H96	H	-0.956521	-0.000167	0.037822
