data_functionalizedCrystal
_audit_creation_method	'MofGen! by Chris Wilmer'
_symmetry_space_group_name_H-M	'P1'
_symmetry_Int_Tables_number	1
_symmetry_cell_setting	triclinic
loop_
_symmetry_equiv_pos_as_xyz
  x,y,z
_cell_length_a	14.519709
_cell_length_b	15.944493
_cell_length_c	12.996460
_cell_angle_alpha	89.999729
_cell_angle_beta	90.000034
_cell_angle_gamma	83.577594
loop_
_atom_site_label
_atom_site_type_symbol
_atom_site_fract_x
_atom_site_fract_y
_atom_site_fract_z
O1	O	1.223651	0.110112	-0.085419
O2	O	1.556984	0.443445	0.247914
O3	O	1.890318	0.776779	0.581248
O4	O	0.955148	0.123079	-0.085449
O5	O	1.288482	0.456412	0.247884
O6	O	1.621815	0.789746	0.581218
O7	O	1.096760	-0.005672	-0.085442
O8	O	1.430093	0.327661	0.247892
O9	O	1.763426	0.660995	0.581225
O10	O	1.082040	0.238863	-0.085426
O11	O	1.415373	0.572196	0.247907
O12	O	1.748706	0.905530	0.581240
O13	O	1.096745	-0.005679	0.085692
O14	O	1.430078	0.327654	0.419025
O15	O	1.763412	0.660988	0.752359
O16	O	0.955134	0.123072	0.085685
O17	O	1.288467	0.456405	0.419018
O18	O	1.621800	0.789739	0.752352
O19	O	1.223636	0.110105	0.085715
O20	O	1.556970	0.443438	0.419048
O21	O	1.890303	0.776772	0.752381
Cu22	Cu	1.089384	0.116588	0.101326
Cu23	Cu	1.422717	0.449921	0.434659
Cu24	Cu	1.756050	0.783254	0.767992
Cu25	Cu	1.089401	0.116596	-0.101060
Cu26	Cu	1.422734	0.449930	0.232274
Cu27	Cu	1.756068	0.783263	0.565607
O28	O	1.082025	0.238856	0.085708
O29	O	1.415358	0.572189	0.419041
O30	O	1.748692	0.905523	0.752374
C31	C	0.920783	0.122471	0.000114
C32	C	1.254116	0.455804	0.333447
C33	C	1.587449	0.789138	0.666781
C34	C	0.818405	0.120660	0.000102
C35	C	1.151738	0.453994	0.333435
C36	C	1.485072	0.787327	0.666769
C37	C	0.443522	0.113994	0.000148
C38	C	0.776856	0.447327	0.333482
C39	C	1.110189	0.780660	0.666815
C40	C	0.547826	0.115845	0.000135
C41	C	0.881160	0.449178	0.333468
C42	C	1.214493	0.782511	0.666802
C43	C	0.630960	0.117327	0.000124
C44	C	0.964294	0.450660	0.333457
C45	C	1.297627	0.783993	0.666791
C46	C	0.735271	0.119178	0.000113
C47	C	1.068604	0.452512	0.333446
C48	C	1.401938	0.785845	0.666780
C49	C	1.096151	-0.036971	0.000121
C50	C	1.429484	0.296362	0.333454
C51	C	1.762817	0.629695	0.666787
C52	C	1.094347	-0.130222	0.000107
C53	C	1.427680	0.203111	0.333441
C54	C	1.761014	0.536444	0.666774
C55	C	1.177703	-0.365861	0.000136
C56	C	1.511036	-0.032528	0.333470
C57	C	1.844369	0.300805	0.666803
C58	C	1.132759	-0.416491	-0.084246
C59	C	1.466093	-0.083158	0.249087
C60	C	1.799426	0.250176	0.582421
C61	C	1.091005	-0.300948	0.000120
C62	C	1.424338	0.032385	0.333453
C63	C	1.757672	0.365718	0.666786
C64	C	1.132725	-0.416474	0.084478
C65	C	1.466058	-0.083141	0.417812
C66	C	1.799391	0.250192	0.751145
C67	C	1.087783	-0.465863	0.000136
C68	C	1.421116	-0.132529	0.333469
C69	C	1.754450	0.200804	0.666803
C70	C	1.046085	-0.350350	-0.084332
C71	C	1.379418	-0.017016	0.249001
C72	C	1.712752	0.316317	0.582334
C73	C	1.046063	-0.350330	0.084468
C74	C	1.379396	-0.016996	0.417801
C75	C	1.712730	0.316337	0.751135
C76	C	1.001056	-0.400926	0.000065
C77	C	1.334389	-0.067593	0.333398
C78	C	1.667723	0.265740	0.666732
C79	C	1.092863	-0.205946	0.000109
C80	C	1.426197	0.127388	0.333443
C81	C	1.759530	0.460721	0.666776
C82	C	1.085918	-0.560862	0.000139
C83	C	1.419251	-0.227529	0.333472
C84	C	1.752584	0.105804	0.666806
C85	C	1.258002	0.110713	0.000150
C86	C	1.591336	0.444046	0.333483
C87	C	1.924669	0.777379	0.666816
C88	C	1.360380	0.112524	0.000155
C89	C	1.693713	0.445857	0.333488
C90	C	2.027047	0.779190	0.666822
C91	C	1.082634	0.270155	0.000143
C92	C	1.415967	0.603488	0.333476
C93	C	1.749301	0.936822	0.666810
C94	C	1.084438	0.363406	0.000149
C95	C	1.417771	0.696740	0.333483
C96	C	1.751104	1.030073	0.666816
N97	N	1.089378	0.116581	0.243673
N98	N	1.422711	0.449915	0.577006
N99	N	1.756045	0.783248	0.910339
N100	N	1.089414	0.116596	-0.243407
N101	N	1.422747	0.449929	0.089926
N102	N	1.756081	0.783263	0.423260
C103	C	1.089400	0.116597	0.663487
C104	C	1.422733	0.449930	0.996820
C105	C	1.756066	0.783264	1.330154
C106	C	1.089391	0.116596	0.546682
C107	C	1.422724	0.449929	0.880015
C108	C	1.756058	0.783262	1.213349
C109	C	1.089389	0.116590	0.453584
C110	C	1.422723	0.449923	0.786917
C111	C	1.756056	0.783256	1.120250
C112	C	1.089380	0.116587	0.336771
C113	C	1.422713	0.449920	0.670104
C114	C	1.756046	0.783254	1.003438
H115	H	1.252382	-0.350125	0.000060
H116	H	1.585715	-0.016791	0.333393
H117	H	1.919049	0.316542	0.666726
Cl118	Cl	1.189296	-0.461098	-0.194375
Cl119	Cl	1.522629	-0.127765	0.138958
Cl120	Cl	1.855962	0.205569	0.472292
H121	H	1.009475	-0.321425	0.155802
H122	H	1.342808	0.011908	0.489136
H123	H	1.676141	0.345242	0.822469
Cl124	Cl	0.989602	-0.305938	-0.194596
Cl125	Cl	1.322935	0.027396	0.138738
Cl126	Cl	1.656268	0.360729	0.472071
H127	H	1.169350	-0.445355	0.155812
H128	H	1.502684	-0.112022	0.489146
H129	H	1.836017	0.221312	0.822479
H130	H	0.926319	-0.416501	0.000011
H131	H	1.259652	-0.083168	0.333344
H132	H	1.592985	0.250166	0.666677
