data_functionalizedCrystal
_audit_creation_method	'MofGen! by Chris Wilmer'
_symmetry_space_group_name_H-M	'P1'
_symmetry_Int_Tables_number	1
_symmetry_cell_setting	triclinic
loop_
_symmetry_equiv_pos_as_xyz
  x,y,z
_cell_length_a	12.759401
_cell_length_b	18.215405
_cell_length_c	12.759393
_cell_angle_alpha	89.963505
_cell_angle_beta	89.979062
_cell_angle_gamma	90.026410
loop_
_atom_site_label
_atom_site_type_symbol
_atom_site_fract_x
_atom_site_fract_y
_atom_site_fract_z
Zn1	Zn	1.606192	-0.292919	-0.593976
Zn2	Zn	1.606052	-0.416003	-0.418278
Zn3	Zn	1.430491	-0.292958	-0.418311
Zn4	Zn	1.430451	-0.415951	-0.593915
O5	O	1.518296	-0.354458	-0.506120
O6	O	1.753194	-0.309251	-0.570681
O7	O	1.582721	-0.399719	-0.271261
O8	O	1.453873	-0.189968	-0.441653
O9	O	1.753091	-0.399681	-0.441596
O10	O	1.582960	-0.189940	-0.570714
O11	O	1.453737	-0.309318	-0.271286
O12	O	1.283465	-0.309268	-0.441594
O13	O	1.453806	-0.399593	-0.740944
O14	O	1.283436	-0.399631	-0.570609
O15	O	1.582922	-0.309201	-0.740989
O16	O	1.582683	-0.518980	-0.441537
O17	O	1.453670	-0.518942	-0.570577
C18	C	1.245329	-0.354449	-0.506099
C19	C	1.128552	-0.354463	-0.506115
C20	C	1.073703	-0.401586	-0.573188
C21	C	0.963979	-0.401589	-0.573209
C22	C	0.963964	-0.307343	-0.439076
C23	C	1.073686	-0.307337	-0.439061
C24	C	1.518186	-0.545664	-0.506070
C25	C	1.518234	-0.627463	-0.506083
C26	C	1.585569	-0.815652	-0.439016
C27	C	1.585616	-0.892511	-0.439041
C28	C	1.451158	-0.892511	-0.573300
C29	C	1.451118	-0.815654	-0.573279
C30	C	1.518321	-0.777226	-0.506131
C31	C	1.518409	-0.930942	-0.506178
C32	C	1.518460	-1.014276	-0.506206
C33	C	1.518272	-0.693887	-0.506104
C34	C	1.792330	-0.354467	-0.506142
C35	C	1.909106	-0.354471	-0.506151
C36	C	1.518375	-0.354387	-0.780154
C37	C	1.518409	-0.354357	-0.896930
C38	C	1.518437	-0.162505	-0.506194
C39	C	1.518496	-0.080706	-0.506225
C40	C	1.585644	-0.307283	-0.951818
C41	C	1.585662	-0.307251	-1.061542
C42	C	1.451206	-0.401374	-1.061482
C43	C	1.451183	-0.401402	-0.951760
C44	C	1.518279	-0.354475	-0.233153
C45	C	1.518449	-0.354298	-0.116377
H46	H	0.919325	-0.439960	-0.627827
C47	C	1.659500	-0.773381	-0.365164
C48	C	1.741929	-0.720469	-0.410755
C49	C	1.815866	-0.678201	-0.336904
C50	C	1.807375	-0.688845	-0.217462
C51	C	1.724943	-0.741760	-0.171866
C52	C	1.651006	-0.784028	-0.245717
H53	H	1.748218	-0.712587	-0.499178
H54	H	1.876887	-0.639030	-0.370658
H55	H	1.862107	-0.657556	-0.162794
H56	H	1.718654	-0.749642	-0.083443
H57	H	1.589984	-0.823199	-0.211962
H58	H	1.396356	-0.784366	-0.627938
C59	C	1.134058	-0.453417	-0.646954
C60	C	1.209433	-0.511155	-0.601273
C61	C	1.269785	-0.562985	-0.675044
C62	C	1.254763	-0.557076	-0.794497
C63	C	1.179384	-0.499335	-0.840185
C64	C	1.119032	-0.447505	-0.766414
H65	H	1.220557	-0.515532	-0.512841
H66	H	1.325585	-0.605729	-0.641222
H67	H	1.299439	-0.595444	-0.849108
H68	H	1.168261	-0.494959	-0.928618
H69	H	1.063232	-0.404761	-0.800236
C70	C	1.659588	-0.934778	-0.365209
C71	C	1.614140	-0.987693	-0.282700
C72	C	1.688116	-1.029959	-0.208866
C73	C	1.807541	-1.019310	-0.217541
C74	C	1.852995	-0.966393	-0.300054
C75	C	1.779019	-0.924127	-0.373888
H76	H	1.525729	-0.995578	-0.276275
H77	H	1.654468	-1.069133	-0.147785
H78	H	1.862303	-1.050599	-0.162885
H79	H	1.941406	-0.958508	-0.306479
H80	H	1.812668	-0.884953	-0.434969
C81	C	0.903607	-0.255512	-0.365309
C82	C	0.782917	-0.255519	-0.365316
C83	C	0.722564	-0.203690	-0.291545
C84	C	0.782900	-0.151853	-0.217768
C85	C	0.903597	-0.151844	-0.217758
C86	C	0.963950	-0.203674	-0.291529
H87	H	0.738247	-0.293894	-0.419933
H88	H	0.633216	-0.203697	-0.291553
H89	H	0.738223	-0.113486	-0.163158
H90	H	0.948268	-0.113470	-0.163141
H91	H	1.053298	-0.203667	-0.291521
H92	H	1.396442	-0.923808	-0.627968
C93	C	1.134026	-0.255500	-0.365271
C94	C	1.118991	-0.171845	-0.374060
C95	C	1.179331	-0.120010	-0.300275
C96	C	1.254706	-0.151828	-0.217701
C97	C	1.269744	-0.235486	-0.208908
C98	C	1.209404	-0.287322	-0.282693
H99	H	1.063192	-0.148288	-0.435189
H100	H	1.168199	-0.058080	-0.306785
H101	H	1.299373	-0.113456	-0.163081
H102	H	1.325544	-0.259044	-0.147779
H103	H	1.220537	-0.349252	-0.276183
H104	H	1.640381	-0.268974	-0.907179
H105	H	1.640410	-0.268917	-1.106226
H106	H	1.396476	-0.439678	-1.106138
H107	H	1.396425	-0.439735	-0.907070
