data_functionalizedCrystal
_audit_creation_method	'MofGen! by Chris Wilmer'
_symmetry_space_group_name_H-M	'P1'
_symmetry_Int_Tables_number	1
_symmetry_cell_setting	triclinic
loop_
_symmetry_equiv_pos_as_xyz
  x,y,z
_cell_length_a	33.428889
_cell_length_b	33.428139
_cell_length_c	33.424847
_cell_angle_alpha	60.004234
_cell_angle_beta	60.008465
_cell_angle_gamma	59.994972
loop_
_atom_site_label
_atom_site_type_symbol
_atom_site_fract_x
_atom_site_fract_y
_atom_site_fract_z
O1	O	0.055565	-0.584504	0.488714
O2	O	0.555565	-0.084504	0.988714
O3	O	0.020982	-0.455083	0.393778
O4	O	0.520982	0.044917	0.893778
O5	O	0.102943	-0.536959	0.393689
O6	O	0.602943	-0.036959	0.893689
O7	O	-0.026396	-0.502628	0.488803
O8	O	0.473604	-0.002628	0.988803
O9	O	0.130140	-0.509767	0.420792
O10	O	0.630140	-0.009767	0.920792
O11	O	0.048179	-0.427891	0.420881
O12	O	0.548179	0.072109	0.920881
O13	O	0.082762	-0.557312	0.515817
O14	O	0.582762	-0.057312	1.015817
Cu15	Cu	0.067954	-0.490119	0.470823
Cu16	Cu	0.567954	0.009881	0.970823
Cu17	Cu	0.035790	-0.522276	0.438771
Cu18	Cu	0.535790	-0.022276	0.938771
O19	O	0.000801	-0.475436	0.515906
O20	O	0.500801	0.024564	1.015906
N21	N	0.090577	-0.467504	0.493370
N22	N	0.590577	0.032496	0.993370
N23	N	0.013171	-0.544895	0.416225
N24	N	0.513171	-0.044895	0.916225
C25	C	0.143377	-0.280390	0.546067
C26	C	0.643377	0.219610	1.046067
C27	C	0.143515	-0.414755	0.680369
C28	C	0.643515	0.085245	1.180369
C29	C	0.143392	-0.414735	0.546069
C30	C	0.643392	0.085265	1.046069
C31	C	0.277766	-0.414702	0.545966
C32	C	0.777766	0.085298	1.045966
C33	C	0.158177	-0.324719	0.560828
C34	C	0.658177	0.175281	1.060828
C35	C	0.158255	-0.399967	0.636038
C36	C	0.658255	0.100033	1.136038
C37	C	0.233434	-0.399936	0.560773
C38	C	0.733434	0.100064	1.060773
C39	C	0.158186	-0.399955	0.560829
C40	C	0.658186	0.100045	1.060829
C41	C	0.124540	-0.223964	0.527278
C42	C	0.624540	0.276036	1.027278
C43	C	0.124565	-0.433545	0.527281
C44	C	0.624565	0.066455	1.027281
C45	C	0.177014	-0.381145	0.579617
C46	C	0.677014	0.118855	1.079617
C47	C	0.359814	-0.400540	0.502735
C48	C	0.859814	0.099460	1.002735
C49	C	0.411105	-0.417624	0.485606
C50	C	0.911105	0.082376	0.985606
C51	C	0.411136	-0.500620	0.517255
C52	C	0.911136	-0.000620	1.017255
C53	C	0.359845	-0.483534	0.534385
C54	C	0.859845	0.016466	1.034385
C55	C	0.136887	-0.198305	0.476855
C56	C	0.636887	0.301695	0.976855
C57	C	0.119761	-0.147011	0.459777
C58	C	0.619761	0.352989	0.959777
C59	C	0.077945	-0.147038	0.543547
C60	C	0.577945	0.352962	1.043547
C61	C	0.095072	-0.198332	0.560625
C62	C	0.595072	0.301668	1.060625
C63	C	0.074134	-0.421169	0.539710
C64	C	0.574134	0.078831	1.039710
C65	C	0.057023	-0.438269	0.522625
C66	C	0.557023	0.061731	1.022625
C67	C	0.140770	-0.480120	0.480694
C68	C	0.640770	0.019880	0.980694
C69	C	0.157883	-0.463020	0.497773
C70	C	0.657883	0.036980	0.997773
C71	C	0.074339	-0.421208	0.762475
C72	C	0.574339	0.078792	1.262475
C73	C	0.057288	-0.438323	0.813768
C74	C	0.557288	0.061677	1.313768
C75	C	0.141075	-0.480183	0.813699
C76	C	0.641075	0.019817	1.313699
C77	C	0.158125	-0.463069	0.762404
C78	C	0.658125	0.036931	1.262404
C79	C	0.124756	-0.433580	0.736794
C80	C	0.624756	0.066420	1.236794
C81	C	0.334186	-0.433494	0.527123
C82	C	0.834186	0.066506	1.027123
C83	C	-0.173769	-0.597444	0.363037
C84	C	0.326231	-0.097444	0.863037
C85	C	-0.039302	-0.597595	0.228856
C86	C	0.460698	-0.097595	0.728856
C87	C	-0.039496	-0.597587	0.363300
C88	C	0.460504	-0.097587	0.863300
C89	C	-0.039512	-0.731889	0.363237
C90	C	0.460488	-0.231889	0.863237
C91	C	-0.129442	-0.612265	0.348329
C92	C	0.370558	-0.112265	0.848329
C93	C	-0.054138	-0.612351	0.273187
C94	C	0.445862	-0.112351	0.773187
C95	C	-0.054257	-0.687554	0.348440
C96	C	0.445743	-0.187554	0.848440
C97	C	-0.054247	-0.612346	0.348477
C98	C	0.445753	-0.112346	0.848477
C99	C	-0.230191	-0.578579	0.381758
C100	C	0.269809	-0.078579	0.881758
C101	C	-0.020722	-0.578803	0.382168
C102	C	0.479278	-0.078803	0.882168
C103	C	-0.073020	-0.631130	0.329609
C104	C	0.426980	-0.131130	0.829609
C105	C	-0.053713	-0.813916	0.406386
C106	C	0.446287	-0.313916	0.906386
C107	C	-0.036654	-0.865210	0.423504
C108	C	0.463346	-0.365210	0.923504
C109	C	0.046338	-0.865293	0.391984
C110	C	0.546338	-0.365293	0.891984
C111	C	0.029278	-0.813999	0.374865
C112	C	0.529278	-0.313999	0.874865
C113	C	-0.255900	-0.590938	0.432169
C114	C	0.244100	-0.090938	0.932169
C115	C	-0.307191	-0.573786	0.449185
C116	C	0.192809	-0.073786	0.949185
C117	C	-0.307060	-0.531922	0.365377
C118	C	0.192940	-0.031922	0.865377
C119	C	-0.255769	-0.549074	0.348360
C120	C	0.244231	-0.049074	0.848360
C121	C	-0.033081	-0.528377	0.369764
C122	C	0.466919	-0.028377	0.869764
C123	C	-0.016014	-0.511306	0.386922
C124	C	0.483986	-0.011306	0.886922
C125	C	0.025770	-0.595083	0.428877
C126	C	0.525770	-0.095083	0.928877
C127	C	0.008703	-0.612156	0.411725
C128	C	0.508703	-0.112156	0.911725
C129	C	-0.032755	-0.528393	0.146761
C130	C	0.467245	-0.028393	0.646761
C131	C	-0.015585	-0.511324	0.095468
C132	C	0.484415	-0.011324	0.595468
C133	C	0.026262	-0.595106	0.095516
C134	C	0.526262	-0.095106	0.595516
C135	C	0.009094	-0.612174	0.146811
C136	C	0.509094	-0.112174	0.646811
C137	C	-0.020417	-0.578816	0.172432
C138	C	0.479583	-0.078816	0.672432
C139	C	-0.020748	-0.788312	0.382068
C140	C	0.479252	-0.288312	0.882068
N141	N	0.436037	-0.467415	0.493101
N142	N	0.936037	0.032585	0.993101
O143	O	0.592642	-0.471896	0.376066
O144	O	1.092642	0.028104	0.876066
O145	O	0.592838	-0.567146	0.505347
O146	O	1.092838	-0.067146	1.005347
O147	O	0.592754	-0.566928	0.423360
O148	O	1.092754	-0.066928	0.923360
O149	O	0.592727	-0.472113	0.458053
O150	O	1.092727	0.027887	0.958053
O151	O	0.511269	-0.539835	0.450606
O152	O	1.011269	-0.039835	0.950606
O153	O	0.511353	-0.540052	0.532594
O154	O	1.011353	-0.040052	1.032594
O155	O	0.511157	-0.444802	0.403312
O156	O	1.011157	0.055198	0.903312
Cu157	Cu	0.503815	-0.489954	0.470441
Cu158	Cu	1.003815	0.010046	0.970441
Cu159	Cu	0.600180	-0.521995	0.438219
Cu160	Cu	1.100180	-0.021995	0.938219
O161	O	0.511242	-0.445020	0.485300
O162	O	1.011242	0.054980	0.985300
N163	N	0.667959	-0.544533	0.415554
N164	N	1.167959	-0.044533	0.915554
N165	N	0.090544	-0.122107	0.493359
N166	N	0.590544	0.377893	0.993359
O167	O	-0.026406	0.034587	0.488773
O168	O	0.473594	0.534587	0.988773
O169	O	0.102877	0.034627	0.393499
O170	O	0.602877	0.534627	0.893499
O171	O	0.020848	0.034591	0.393771
O172	O	0.520848	0.534591	0.893771
O173	O	0.055623	0.034623	0.488500
O174	O	0.555623	0.534623	0.988500
O175	O	0.048051	-0.046899	0.420925
O176	O	0.548051	0.453101	0.920925
O177	O	0.130080	-0.046864	0.420653
O178	O	0.630080	0.453136	0.920653
O179	O	0.000796	-0.046903	0.515927
O180	O	0.500796	0.453097	1.015927
Cu181	Cu	0.067922	-0.054324	0.470769
Cu182	Cu	0.567922	0.445676	0.970769
Cu183	Cu	0.035752	0.042048	0.438656
Cu184	Cu	0.535752	0.542048	0.938656
O185	O	0.082825	-0.046867	0.515655
O186	O	0.582825	0.453133	1.015655
N187	N	0.013123	0.109830	0.416068
N188	N	0.513123	0.609830	0.916068
N189	N	0.090892	-0.467554	0.838649
N190	N	0.590892	0.032446	1.338649
O191	O	0.086330	-0.584488	0.995334
O192	O	0.586330	-0.084488	1.495334
O193	O	-0.008902	-0.455160	0.995379
O194	O	0.491098	0.044840	1.495379
O195	O	-0.008679	-0.537172	0.995355
O196	O	0.491321	-0.037172	1.495355
O197	O	0.086107	-0.502475	0.995358
O198	O	0.586107	-0.002475	1.495358
O199	O	0.018452	-0.509990	0.913868
O200	O	0.518452	-0.009990	1.413868
O201	O	0.018230	-0.427978	0.913891
O202	O	0.518230	0.072022	1.413891
O203	O	0.113461	-0.557306	0.913847
O204	O	0.613461	-0.057306	1.413847
Cu205	Cu	0.068323	-0.490160	0.906429
Cu206	Cu	0.568323	0.009840	1.406429
Cu207	Cu	0.036237	-0.522306	1.002797
Cu208	Cu	0.536237	-0.022306	1.502797
O209	O	0.113239	-0.475293	0.913870
O210	O	0.613239	0.024707	1.413870
N211	N	0.013667	-0.544916	1.070577
N212	N	0.513667	-0.044916	1.570577
C213	C	0.031339	-0.425179	0.394250
C214	C	0.531339	0.074821	0.894250
C215	C	0.132837	-0.526572	0.394139
C216	C	0.632837	-0.026572	0.894139
C217	C	0.072405	-0.587216	0.515344
C218	C	0.572405	-0.087216	1.015344
C219	C	-0.029093	-0.485823	0.515455
C220	C	0.470907	0.014177	1.015455
C221	C	0.552119	-0.566716	0.535258
C222	C	1.052119	-0.066716	1.035258
C223	C	0.552016	-0.566447	0.433726
C224	C	1.052016	-0.066447	0.933726
C225	C	0.551873	-0.445232	0.373402
C226	C	1.051873	0.054768	0.873402
C227	C	0.551980	-0.445502	0.474933
C228	C	1.051980	0.054498	0.974933
C229	C	0.132731	-0.006013	0.393923
C230	C	0.632731	0.493987	0.893923
C231	C	0.031182	-0.006158	0.394293
C232	C	0.531182	0.493842	0.894293
C233	C	-0.029092	-0.006163	0.515469
C234	C	0.470908	0.493837	1.015469
C235	C	0.072491	-0.006119	0.515133
C236	C	0.572491	0.493881	1.015133
C237	C	-0.008451	-0.425276	0.954641
C238	C	0.491549	0.074724	1.454641
C239	C	-0.008170	-0.526833	0.954596
C240	C	0.491830	-0.026833	1.454596
C241	C	0.113010	-0.587190	0.954585
C242	C	0.613010	-0.087190	1.454585
C243	C	0.112735	-0.485627	0.954611
C244	C	0.612735	0.014373	1.454611
H245	H	0.047163	-0.397193	0.741627
H246	H	0.547163	0.102807	1.241627
H247	H	0.551811	-0.415327	0.336274
H248	H	1.051811	0.084673	0.836274
H249	H	0.551974	-0.415718	0.482355
H250	H	1.051974	0.084282	0.982355
H251	H	-0.038348	-0.388133	0.954654
H252	H	0.461652	0.111867	1.454654
C253	C	0.194973	-0.517353	0.954587
C254	C	0.694973	-0.017353	1.454587
C255	C	0.152939	-0.475607	0.954604
C256	C	0.652939	0.024393	1.454604
H257	H	0.219791	-0.511167	0.954585
H258	H	0.719791	-0.011167	1.454585
H259	H	0.206277	-0.525122	0.926169
H260	H	0.706277	-0.025122	1.426169
H261	H	0.187357	-0.544080	0.983002
H262	H	0.687357	-0.044080	1.483002
H263	H	0.160553	-0.448880	0.926188
H264	H	0.660553	0.051120	1.426188
H265	H	0.141633	-0.467832	0.983026
H266	H	0.641633	0.032168	1.483026
H267	H	0.023733	-0.006162	0.364531
H268	H	0.523733	0.493838	0.864531
C269	C	0.510181	-0.619849	0.457065
C270	C	1.010181	-0.119849	0.957065
C271	C	0.552031	-0.606660	0.423711
C272	C	1.052031	-0.106660	0.923711
H273	H	0.510192	-0.644677	0.450883
H274	H	1.010192	-0.144677	0.950883
H275	H	0.481746	-0.592002	0.453439
H276	H	0.981746	-0.092002	0.953439
H277	H	0.510227	-0.631821	0.489494
H278	H	1.010227	-0.131821	0.989494
H279	H	0.551983	-0.594685	0.391282
H280	H	1.051983	-0.094685	0.891282
H281	H	0.580474	-0.634512	0.427332
H282	H	1.080474	-0.134512	0.927332
C283	C	-0.030693	-0.584651	0.954516
C284	C	0.469307	-0.084651	1.454516
C285	C	-0.048354	-0.536834	0.954547
C286	C	0.451646	-0.036834	1.454547
H287	H	-0.055501	-0.590823	0.954483
H288	H	0.444499	-0.090823	1.454483
H289	H	-0.021783	-0.607260	0.982936
H290	H	0.478217	-0.107260	1.482936
H291	H	-0.002821	-0.588294	0.926103
H292	H	0.497179	-0.088294	1.426103
H293	H	-0.076224	-0.533192	0.982962
H294	H	0.423776	-0.033192	1.482962
H295	H	-0.057270	-0.514219	0.926124
H296	H	0.442730	-0.014219	1.426124
H297	H	0.142910	-0.624330	0.954565
H298	H	0.642910	-0.124330	1.454565
C299	C	-0.100879	-0.509337	0.568936
C300	C	0.399121	-0.009337	1.068936
C301	C	-0.079241	-0.475951	0.555775
C302	C	0.420759	0.024049	1.055775
H303	H	-0.131839	-0.503239	0.593826
H304	H	0.368161	-0.003239	1.093826
H305	H	-0.080317	-0.541758	0.580812
H306	H	0.419683	-0.041758	1.080812
H307	H	-0.105161	-0.505650	0.541097
H308	H	0.394839	-0.005650	1.041097
H309	H	-0.074956	-0.479640	0.583613
H310	H	0.425044	0.020360	1.083613
H311	H	-0.099808	-0.443522	0.543901
H312	H	0.400192	0.056478	1.043901
C313	C	0.063180	-0.376367	0.584508
C314	C	0.563180	0.123633	1.084508
C315	C	0.037511	-0.388763	0.572137
C316	C	0.537511	0.111237	1.072137
H317	H	0.040569	-0.356362	0.604529
H318	H	0.540569	0.143638	1.104529
H319	H	0.083166	-0.358961	0.555499
H320	H	0.583166	0.141039	1.055499
H321	H	0.083208	-0.405374	0.601894
H322	H	0.583208	0.094626	1.101894
H323	H	0.017486	-0.359757	0.554748
H324	H	0.517486	0.140243	1.054748
H325	H	0.017516	-0.406170	0.601151
H326	H	0.517516	0.093830	1.101151
C327	C	-0.023817	-0.395210	0.808677
C328	C	0.476183	0.104790	1.308677
C329	C	0.001867	-0.424711	0.841992
C330	C	0.501867	0.075289	1.341992
H331	H	-0.058032	-0.386807	0.826103
H332	H	0.441968	0.113193	1.326103
H333	H	-0.015425	-0.412607	0.788671
H334	H	0.484575	0.087393	1.288671
H335	H	-0.015417	-0.366205	0.788669
H336	H	0.484583	0.133795	1.288669
H337	H	-0.006530	-0.453718	0.861998
H338	H	0.493470	0.046282	1.361998
H339	H	-0.006529	-0.407314	0.862006
H340	H	0.493471	0.092686	1.362006
H341	H	0.552170	-0.596617	0.572390
H342	H	1.052170	-0.096617	1.072390
C343	C	0.191754	-0.575819	0.342530
C344	C	0.691754	-0.075819	0.842530
C345	C	0.182983	-0.536445	0.353817
C346	C	0.682983	-0.036445	0.853817
H347	H	0.222714	-0.581915	0.317639
H348	H	0.722714	-0.081915	0.817639
H349	H	0.166829	-0.568069	0.331292
H350	H	0.666829	-0.068069	0.831292
H351	H	0.191676	-0.604179	0.371004
H352	H	0.691676	-0.104179	0.871004
H353	H	0.183058	-0.508084	0.325344
H354	H	0.683058	-0.008084	0.825344
H355	H	0.207915	-0.544193	0.365054
H356	H	0.707915	-0.044193	0.865054
C357	C	-0.026444	-0.344759	0.371587
C358	C	0.473556	0.155241	0.871587
C359	C	0.021365	-0.374992	0.353993
C360	C	0.521365	0.125008	0.853993
H361	H	-0.032601	-0.313777	0.346733
H362	H	0.467399	0.186223	0.846733
H363	H	-0.030093	-0.340511	0.399426
H364	H	0.469907	0.159489	0.899426
H365	H	-0.049061	-0.359482	0.380529
H366	H	0.450939	0.140518	0.880529
H367	H	0.043983	-0.360271	0.345055
H368	H	0.543983	0.139729	0.845055
H369	H	0.025019	-0.379239	0.326146
H370	H	0.525019	0.120761	0.826146
H371	H	0.169783	-0.005775	0.363939
H372	H	0.669783	0.494225	0.863939
H373	H	0.087072	-0.886205	0.386121
H374	H	0.587072	-0.386205	0.886121
C375	C	-0.109579	-0.006176	0.538423
C376	C	0.390421	0.493824	1.038423
C377	C	-0.079216	-0.006165	0.555844
C378	C	0.420784	0.493835	1.055844
H379	H	-0.140525	-0.006171	0.563348
H380	H	0.359475	0.493829	1.063348
H381	H	-0.094928	-0.034596	0.529533
H382	H	0.405072	0.465404	1.029533
H383	H	-0.113881	0.022239	0.510578
H384	H	0.386119	0.522239	1.010578
H385	H	-0.074911	-0.034581	0.583687
H386	H	0.425089	0.465419	1.083687
H387	H	-0.093871	0.022259	0.564741
H388	H	0.406129	0.522259	1.064741
C389	C	0.130365	-0.006109	0.537640
C390	C	0.630365	0.493891	1.037640
C391	C	0.082545	-0.006121	0.555316
C392	C	0.582545	0.493879	1.055316
H393	H	0.136573	-0.006115	0.562450
H394	H	0.636573	0.493885	1.062450
H395	H	0.133992	0.022314	0.509784
H396	H	0.633992	0.522314	1.009784
H397	H	0.152962	-0.034522	0.528706
H398	H	0.652962	0.465478	1.028706
H399	H	0.059948	0.022294	0.564247
H400	H	0.559948	0.522294	1.064247
H401	H	0.078914	-0.034546	0.583182
H402	H	0.578914	0.465454	1.083182
C403	C	0.040615	-0.637603	0.597606
C404	C	0.540615	-0.137603	1.097606
C405	C	0.082376	-0.637404	0.555600
C406	C	0.582376	-0.137404	1.055600
H407	H	0.046773	-0.668587	0.622459
H408	H	0.546773	-0.168587	1.122459
H409	H	0.013894	-0.631665	0.589975
H410	H	0.513894	-0.131665	1.089975
H411	H	0.032861	-0.612698	0.608878
H412	H	0.532861	-0.112698	1.108878
H413	H	0.090128	-0.662307	0.544327
H414	H	0.590128	-0.162307	1.044327
H415	H	0.109105	-0.643348	0.563232
H416	H	0.609105	-0.143348	1.063232
H417	H	0.168250	-0.504186	0.834549
H418	H	0.668250	-0.004186	1.334549
H419	H	0.199181	-0.473148	0.741498
H420	H	0.699181	0.026852	1.241498
H421	H	0.167905	-0.504126	0.456671
H422	H	0.667905	-0.004126	0.956671
C423	C	-0.019590	-0.442093	0.587303
C424	C	0.480410	0.057907	1.087303
C425	C	0.001589	-0.424676	0.536286
C426	C	0.501589	0.075324	1.036286
H427	H	-0.053812	-0.433704	0.595735
H428	H	0.446188	0.066296	1.095735
H429	H	-0.014173	-0.427688	0.601698
H430	H	0.485827	0.072312	1.101698
H431	H	-0.005155	-0.476701	0.599073
H432	H	0.494845	0.023299	1.099073
H433	H	-0.012843	-0.390067	0.524516
H434	H	0.487157	0.109933	1.024516
H435	H	-0.003832	-0.439078	0.521885
H436	H	0.496168	0.060922	1.021885
C437	C	0.238947	-0.506095	0.454596
C438	C	0.738947	-0.006095	0.954596
C439	C	0.213318	-0.476615	0.484106
C440	C	0.713318	0.023385	0.984106
H441	H	0.273170	-0.514488	0.446160
H442	H	0.773170	-0.014488	0.946160
H443	H	0.230501	-0.488687	0.425616
H444	H	0.730501	0.011313	0.925616
H445	H	0.230558	-0.535107	0.472005
H446	H	0.730558	-0.035107	0.972005
H447	H	0.221704	-0.447601	0.466696
H448	H	0.721704	0.052399	0.966696
H449	H	0.221768	-0.494022	0.513091
H450	H	0.721768	0.005978	1.013091
H451	H	0.432025	-0.541365	0.523165
H452	H	0.932025	-0.041365	1.023165
C453	C	0.344061	-0.543652	0.530068
C454	C	0.844061	-0.043652	1.030068
C455	C	0.331681	-0.519763	0.561190
C456	C	0.831681	-0.019763	1.061190
H457	H	0.326672	-0.566018	0.546615
H458	H	0.826672	-0.066018	1.046615
H459	H	0.378278	-0.560981	0.520908
H460	H	0.878278	-0.060981	1.020908
H461	H	0.335622	-0.520156	0.501579
H462	H	0.835622	-0.020156	1.001579
H463	H	0.340124	-0.543259	0.589677
H464	H	0.840124	-0.043259	1.089677
H465	H	0.297457	-0.502433	0.570357
H466	H	0.797457	-0.002433	1.070357
C467	C	0.405927	-0.333869	0.456033
C468	C	0.905927	0.166131	0.956033
C469	C	0.439280	-0.381401	0.458793
C470	C	0.939280	0.118599	0.958793
H471	H	0.423323	-0.311507	0.439474
H472	H	0.923323	0.188493	0.939474
H473	H	0.385948	-0.332565	0.488167
H474	H	0.885948	0.167435	0.988167
H475	H	0.385897	-0.325297	0.438577
H476	H	0.885897	0.174703	0.938577
H477	H	0.459308	-0.389974	0.476252
H478	H	0.959308	0.110026	0.976252
H479	H	0.459268	-0.382706	0.426652
H480	H	0.959268	0.117294	0.926652
H481	H	0.338923	-0.359792	0.496821
H482	H	0.838923	0.140208	0.996821
H483	H	0.129813	-0.126117	0.418717
H484	H	0.629813	0.373883	0.918717
C485	C	0.143582	-0.214085	0.410741
C486	C	0.643582	0.285915	0.910741
C487	C	0.169276	-0.226479	0.440199
C488	C	0.669276	0.273521	0.940199
H489	H	0.163577	-0.231483	0.388114
H490	H	0.663577	0.268517	0.888114
H491	H	0.135152	-0.179868	0.393355
H492	H	0.635152	0.320132	0.893355
H493	H	0.114593	-0.222508	0.430776
H494	H	0.614593	0.277492	0.930776
H495	H	0.198263	-0.218053	0.420163
H496	H	0.698263	0.281947	0.920163
H497	H	0.177712	-0.260704	0.457586
H498	H	0.677712	0.239296	0.957586
C499	C	0.038342	-0.152217	0.628068
C500	C	0.538342	0.347783	1.128068
C501	C	0.045557	-0.118861	0.580202
C502	C	0.545557	0.381139	1.080202
H503	H	0.018343	-0.134821	0.650697
H504	H	0.518343	0.365179	1.150697
H505	H	0.069098	-0.172213	0.632966
H506	H	0.569098	0.327787	1.132966
H507	H	0.022684	-0.172233	0.633006
H508	H	0.522684	0.327767	1.133006
H509	H	0.061218	-0.098847	0.575263
H510	H	0.561218	0.401153	1.075263
H511	H	0.014795	-0.098857	0.575303
H512	H	0.514795	0.401143	1.075303
H513	H	-0.025639	-0.470264	0.074572
H514	H	0.474361	0.029736	0.574572
C515	C	0.102802	-0.276973	0.624003
C516	C	0.602802	0.223027	1.124003
C517	C	0.081535	-0.226537	0.616052
C518	C	0.581535	0.273463	1.116052
H519	H	0.094451	-0.294384	0.658223
H520	H	0.594451	0.205616	1.158223
H521	H	0.137399	-0.285348	0.609548
H522	H	0.637399	0.214652	1.109548
H523	H	0.090973	-0.285391	0.609638
H524	H	0.590973	0.214609	1.109638
H525	H	0.093368	-0.218117	0.630414
H526	H	0.593368	0.281883	1.130414
H527	H	0.046931	-0.218158	0.630514
H528	H	0.546931	0.281842	1.130514
C529	C	-0.039532	-0.462266	0.162576
C530	C	0.460468	0.037734	0.662576
C531	C	-0.065197	-0.491723	0.174921
C532	C	0.434803	0.008277	0.674921
H533	H	-0.059559	-0.439630	0.179963
H534	H	0.440441	0.060370	0.679963
H535	H	-0.031075	-0.444889	0.128358
H536	H	0.468925	0.055111	0.628358
H537	H	-0.010560	-0.482303	0.171043
H538	H	0.489440	0.017697	0.671043
H539	H	-0.094167	-0.471686	0.166451
H540	H	0.405833	0.028314	0.666451
H541	H	-0.073660	-0.509101	0.209146
H542	H	0.426340	-0.009101	0.709146
C543	C	0.065893	-0.679638	0.100717
C544	C	0.565893	-0.179638	0.600717
C545	C	0.058691	-0.631774	0.067354
C546	C	0.558691	-0.131774	0.567354
H547	H	0.085918	-0.702273	0.083330
H548	H	0.585918	-0.202273	0.583330
H549	H	0.035136	-0.684525	0.120675
H550	H	0.535136	-0.184525	0.620675
H551	H	0.081519	-0.684577	0.120769
H552	H	0.581519	-0.184577	0.620769
H553	H	0.043062	-0.626834	0.047304
H554	H	0.543062	-0.126834	0.547304
H555	H	0.089454	-0.626885	0.047387
H556	H	0.589454	-0.126885	0.547387
H557	H	-0.057039	-0.501216	0.345698
H558	H	0.442961	-0.001216	0.845698
C559	C	-0.020127	-0.679936	0.204455
C560	C	0.479873	-0.179936	0.704455
C561	C	0.022655	-0.667603	0.175029
C562	C	0.522655	-0.167603	0.675029
H563	H	-0.011755	-0.714154	0.221877
H564	H	0.488245	-0.214154	0.721877
H565	H	-0.037485	-0.671511	0.184397
H566	H	0.462515	-0.171511	0.684397
H567	H	-0.040153	-0.662510	0.227053
H568	H	0.459847	-0.162510	0.727053
H569	H	0.042678	-0.685026	0.152428
H570	H	0.542678	-0.185026	0.652428
H571	H	0.040020	-0.676033	0.195088
H572	H	0.540020	-0.176033	0.695088
H573	H	0.049734	-0.622248	0.452940
H574	H	0.549734	-0.122248	0.952940
C575	C	-0.059000	-0.430205	0.343697
C576	C	0.441000	0.069795	0.843697
C577	C	-0.029581	-0.455877	0.373275
C578	C	0.470419	0.044123	0.873275
H579	H	-0.067368	-0.395986	0.335266
H580	H	0.432632	0.104014	0.835266
H581	H	-0.088021	-0.438564	0.361050
H582	H	0.411979	0.061436	0.861050
H583	H	-0.041559	-0.438650	0.314711
H584	H	0.458441	0.061350	0.814711
H585	H	-0.047024	-0.447434	0.402262
H586	H	0.452976	0.052566	0.902262
H587	H	-0.000555	-0.447514	0.355922
H588	H	0.499445	0.052486	0.855922
C589	C	-0.261184	-0.630586	0.516723
C590	C	0.238816	-0.130586	1.016723
C591	C	-0.227785	-0.623368	0.468880
C592	C	0.272215	-0.123368	0.968880
H593	H	-0.243824	-0.650605	0.539385
H594	H	0.256176	-0.150605	1.039385
H595	H	-0.281190	-0.646221	0.521609
H596	H	0.218810	-0.146221	1.021609
H597	H	-0.281182	-0.599827	0.521622
H598	H	0.218818	-0.099827	1.021622
H599	H	-0.207789	-0.654127	0.463980
H600	H	0.292211	-0.154127	0.963980
H601	H	-0.207770	-0.607733	0.463992
H602	H	0.292230	-0.107733	0.963992
C603	C	0.051722	-0.693255	0.454920
C604	C	0.551722	-0.193255	0.954920
C605	C	0.022289	-0.667586	0.425356
C606	C	0.522289	-0.167586	0.925356
H607	H	0.060112	-0.727475	0.463331
H608	H	0.560112	-0.227475	0.963331
H609	H	0.034285	-0.684829	0.483911
H610	H	0.534285	-0.184829	0.983911
H611	H	0.080735	-0.684875	0.437561
H612	H	0.580735	-0.184875	0.937561
H613	H	-0.006726	-0.675963	0.442716
H614	H	0.493274	-0.175963	0.942716
H615	H	0.039726	-0.676016	0.396359
H616	H	0.539726	-0.176016	0.896359
C617	C	0.113026	-0.819241	0.345437
C618	C	0.613026	-0.319241	0.845437
C619	C	0.065516	-0.785858	0.348137
C620	C	0.565516	-0.285858	0.848137
H621	H	0.135397	-0.801867	0.328939
H622	H	0.635397	-0.301867	0.828939
H623	H	0.121622	-0.839248	0.327952
H624	H	0.621622	-0.339248	0.827952
H625	H	0.114280	-0.839244	0.377591
H626	H	0.614280	-0.339244	0.877591
H627	H	0.064261	-0.765858	0.315982
H628	H	0.564261	-0.265858	0.815982
H629	H	0.056917	-0.765842	0.365622
H630	H	0.556917	-0.265842	0.865622
H631	H	-0.063498	-0.886058	0.443304
H632	H	0.436502	-0.386058	0.943304
H633	H	-0.094449	-0.793002	0.412253
H634	H	0.405551	-0.293002	0.912253
H635	H	-0.328125	-0.583847	0.490235
H636	H	0.171875	-0.083847	0.990235
H637	H	-0.234840	-0.539009	0.307312
H638	H	0.265160	-0.039009	0.807312
C639	C	-0.301780	-0.492274	0.280824
C640	C	0.198220	0.007726	0.780824
C641	C	-0.335179	-0.499493	0.328667
C642	C	0.164821	0.000507	0.828667
H643	H	-0.319139	-0.472250	0.258162
H644	H	0.180861	0.027750	0.758162
H645	H	-0.281785	-0.523028	0.275923
H646	H	0.218215	-0.023028	0.775923
H647	H	-0.281770	-0.476639	0.275940
H648	H	0.218230	0.023361	0.775940
H649	H	-0.355187	-0.515131	0.333552
H650	H	0.144813	-0.015131	0.833552
H651	H	-0.355183	-0.468733	0.333570
H652	H	0.144817	0.031267	0.833570
