data_functionalizedCrystal
_audit_creation_method	'MofGen! by Chris Wilmer'
_symmetry_space_group_name_H-M	'P1'
_symmetry_Int_Tables_number	1
_symmetry_cell_setting	triclinic
loop_
_symmetry_equiv_pos_as_xyz
  x,y,z
_cell_length_a	14.044191
_cell_length_b	14.044220
_cell_length_c	8.140239
_cell_angle_alpha	89.995422
_cell_angle_beta	89.999659
_cell_angle_gamma	93.190327
loop_
_atom_site_label
_atom_site_type_symbol
_atom_site_fract_x
_atom_site_fract_y
_atom_site_fract_z
O1	O	1.277170	0.230198	-0.136541
O2	O	1.777170	0.730198	0.363459
O3	O	1.000498	0.221886	-0.136562
O4	O	1.500498	0.721886	0.363438
O5	O	1.134681	0.087706	-0.136536
O6	O	1.634681	0.587706	0.363464
O7	O	1.142987	0.364378	-0.136568
O8	O	1.642987	0.864378	0.363432
O9	O	1.134673	0.087704	0.136691
O10	O	1.634673	0.587704	0.636691
O11	O	1.000489	0.221883	0.136665
O12	O	1.500489	0.721883	0.636665
O13	O	1.277162	0.230196	0.136686
O14	O	1.777162	0.730196	0.636686
Zn15	Zn	1.138824	0.226039	0.180056
Zn16	Zn	1.638824	0.726039	0.680056
Zn17	Zn	1.138835	0.226042	-0.179932
Zn18	Zn	1.638835	0.726042	0.320068
O19	O	1.142978	0.364375	0.136660
O20	O	1.642978	0.864375	0.636660
C21	C	0.964872	0.218248	0.000049
C22	C	1.464872	0.718248	0.500049
C23	C	0.858728	0.207401	0.000042
C24	C	1.358728	0.707401	0.500042
C25	C	0.613270	0.264501	0.000052
C26	C	1.113270	0.764501	0.500052
C27	C	0.664395	0.187585	0.000058
C28	C	1.164395	0.687585	0.500058
C29	C	0.772532	0.198613	0.000049
C30	C	1.272532	0.698613	0.500049
C31	C	0.505123	0.253474	0.000061
C32	C	1.005123	0.753474	0.500061
C33	C	1.131041	0.052083	0.000078
C34	C	1.631041	0.552083	0.500078
C35	C	1.120197	-0.054060	0.000079
C36	C	1.620197	0.445940	0.500079
C37	C	1.100370	-0.248398	0.000054
C38	C	1.600370	0.251602	0.500054
C39	C	1.177285	-0.299526	0.000055
C40	C	1.677285	0.200474	0.500055
C41	C	1.166253	-0.407663	0.000041
C42	C	1.666253	0.092337	0.500041
C43	C	1.111400	-0.140252	0.000068
C44	C	1.611400	0.359748	0.500068
C45	C	1.312788	0.233834	0.000071
C46	C	1.812788	0.733834	0.500071
C47	C	1.418931	0.244681	0.000068
C48	C	1.918931	0.744681	0.500068
C49	C	1.146618	0.399998	0.000042
C50	C	1.646618	0.899998	0.500042
C51	C	1.157463	0.506142	0.000030
C52	C	1.657463	1.006142	0.500030
N53	N	1.138824	0.226037	0.425739
N54	N	1.638824	0.726037	0.925739
N55	N	1.138843	0.226037	-0.425615
N56	N	1.638843	0.726037	0.074385
H57	H	1.251419	-0.262085	-0.000050
H58	H	1.751419	0.237915	0.499950
C59	C	0.950630	-0.272479	0.140508
C60	C	1.450630	0.227521	0.640508
C61	C	1.000294	-0.298930	0.000050
C62	C	1.500294	0.201070	0.500050
H63	H	0.888847	-0.303680	0.140500
H64	H	1.388847	0.196320	0.640500
H65	H	0.984333	-0.290433	0.235766
H66	H	1.484333	0.209567	0.735766
H67	H	0.945017	-0.205384	0.140496
H68	H	1.445017	0.294616	0.640496
H69	H	1.005914	-0.366024	0.000068
H70	H	1.505914	0.133976	0.500068
H71	H	0.966584	-0.280982	-0.095233
H72	H	1.466584	0.219018	0.404767
H73	H	0.626952	0.113452	-0.000049
H74	H	1.126952	0.613452	0.499951
C75	C	0.762704	0.356263	0.000002
C76	C	1.262704	0.856263	0.500002
C77	C	0.663810	0.364573	0.000017
C78	C	1.163810	0.864573	0.500017
H79	H	0.793911	0.418044	-0.000033
H80	H	1.293911	0.918044	0.499967
H81	H	0.780641	0.322572	0.095286
H82	H	1.280641	0.822572	0.595286
H83	H	0.780629	0.322551	-0.095275
H84	H	1.280629	0.822551	0.404725
H85	H	0.645884	0.398280	0.095302
H86	H	1.145884	0.898280	0.595302
H87	H	0.645866	0.398278	-0.095276
H88	H	1.145866	0.898278	0.404724
