data_functionalizedCrystal
_audit_creation_method	'MofGen! by Chris Wilmer'
_symmetry_space_group_name_H-M	'P1'
_symmetry_Int_Tables_number	1
_symmetry_cell_setting	triclinic
loop_
_symmetry_equiv_pos_as_xyz
  x,y,z
_cell_length_a	23.532407
_cell_length_b	23.532407
_cell_length_c	9.730223
_cell_angle_alpha	89.994043
_cell_angle_beta	90.002492
_cell_angle_gamma	82.848712
loop_
_atom_site_label
_atom_site_type_symbol
_atom_site_fract_x
_atom_site_fract_y
_atom_site_fract_z
O1	O	0.755256	0.069133	-0.114217
O2	O	0.589393	0.079136	-0.114241
O3	O	0.677326	-0.008797	-0.114203
O4	O	0.667323	0.157066	-0.114255
O5	O	0.677325	-0.008795	0.114377
O6	O	0.589392	0.079138	0.114339
O7	O	0.755255	0.069135	0.114363
Zn8	Zn	0.672323	0.074137	0.150643
Zn9	Zn	0.672325	0.074134	-0.150521
O10	O	0.667322	0.157068	0.114325
C11	C	0.568176	0.078882	0.000047
C12	C	0.504959	0.078116	0.000039
C13	C	0.677071	-0.030012	0.000091
C14	C	0.676305	-0.093229	0.000101
C15	C	0.238792	0.022921	0.000093
C16	C	0.298192	0.023632	0.000093
O17	O	0.334937	-0.020153	0.000154
N18	N	0.320818	0.075909	0.000067
C19	C	0.284041	0.127477	0.000056
O20	O	0.308740	0.172007	0.000035
C21	C	0.224642	0.126765	0.000066
C22	C	0.202019	0.074485	0.000078
C23	C	0.216169	-0.029354	0.000107
C24	C	0.156772	-0.030066	0.000105
C25	C	0.119999	0.021499	0.000089
C26	C	0.142623	0.073774	0.000076
C27	C	0.187865	0.178333	0.000065
C28	C	0.128463	0.177616	0.000077
C29	C	0.105840	0.125336	0.000088
C30	C	0.046454	0.124627	0.000059
N31	N	0.023828	0.072351	0.000085
C32	C	0.060600	0.020787	0.000100
C33	C	0.408783	0.128968	0.000036
C34	C	0.468181	0.129681	0.000016
C35	C	0.482328	0.025836	0.000056
C36	C	0.422929	0.025124	0.000066
C37	C	0.386157	0.076692	0.000062
C38	C	-0.064136	0.019297	0.000094
C39	C	-0.123538	0.018590	0.000087
C40	C	-0.137680	0.122435	0.000055
C41	C	-0.078284	0.123142	0.000055
C42	C	-0.041512	0.071568	0.000080
O43	O	0.009675	0.168390	0.000003
O44	O	0.035892	-0.023737	0.000138
C45	C	0.723538	-0.492332	0.000032
C46	C	0.722827	-0.551733	0.000022
O47	O	0.766613	-0.588477	-0.000023
N48	N	0.670551	-0.574359	0.000015
C49	C	0.618982	-0.537581	0.000005
O50	O	0.574452	-0.562281	-0.000002
C51	C	0.619695	-0.478182	0.000006
C52	C	0.671974	-0.455559	0.000027
C53	C	0.775814	-0.469709	0.000051
C54	C	0.776525	-0.410313	0.000064
C55	C	0.724961	-0.373540	0.000059
C56	C	0.672685	-0.396163	0.000040
C57	C	0.568127	-0.441406	-0.000014
C58	C	0.568843	-0.382003	-0.000014
C59	C	0.621123	-0.359381	0.000006
C60	C	0.621832	-0.299994	0.000047
N61	N	0.674109	-0.277368	0.000053
C62	C	0.725673	-0.314141	0.000059
C63	C	0.617491	-0.662324	0.000002
C64	C	0.616778	-0.721722	0.000011
C65	C	0.720623	-0.735869	0.000025
C66	C	0.721335	-0.676470	0.000025
C67	C	0.669767	-0.639698	0.000008
C68	C	0.727163	-0.189404	0.000088
C69	C	0.727869	-0.130002	0.000107
C70	C	0.624025	-0.115860	0.000086
C71	C	0.623318	-0.175257	0.000074
C72	C	0.674891	-0.212028	0.000071
O73	O	0.578069	-0.263215	0.000086
O74	O	0.770196	-0.289433	0.000049
C75	C	0.776472	0.069389	0.000073
C76	C	0.839689	0.070155	0.000072
C77	C	0.667577	0.178283	0.000029
C78	C	0.668343	0.241500	0.000009
N79	N	0.672327	0.074139	0.356179
N80	N	0.672326	0.074128	-0.356057
C81	C	0.711273	0.035215	0.428122
C82	C	0.711272	0.035208	0.572005
C83	C	0.633375	0.113054	0.571990
C84	C	0.633374	0.113057	0.428110
C85	C	0.756248	-0.009727	0.428132
C86	C	0.756246	-0.009734	0.572015
H87	H	-0.034204	-0.022699	0.000114
H88	H	0.770443	-0.111587	0.000127
N89	N	0.831433	-0.509369	0.000067
H90	H	0.854259	-0.502118	-0.084658
H91	H	0.854203	-0.502102	0.084868
H92	H	-0.167631	0.164417	0.000035
N93	N	0.492571	0.186072	-0.000011
H94	H	0.516901	0.188687	0.084722
H95	H	0.516870	0.188651	-0.084803
H96	H	0.743002	-0.050907	0.616641
H97	H	0.797403	0.003551	0.383507
H98	H	0.580747	-0.193677	0.000096
N99	N	0.212248	0.234724	0.000046
H100	H	0.198815	0.257295	0.084777
H101	H	0.255454	0.227318	-0.000011
N102	N	0.513226	-0.342336	-0.000025
H103	H	0.490404	-0.349572	-0.084766
H104	H	0.490447	-0.349604	0.084759
N105	N	0.777721	-0.652072	0.000037
H106	H	0.780332	-0.627747	0.084774
H107	H	0.810243	-0.684417	-0.000006
N108	N	0.832914	-0.385919	0.000045
H109	H	0.825549	-0.342710	0.000043
H110	H	0.855467	-0.399398	0.084777
H111	H	-0.059864	0.165712	0.000044
H112	H	0.762610	-0.765821	0.000024
N113	N	0.591363	0.155027	0.649572
H114	H	0.597271	0.149118	0.751637
H115	H	0.597708	0.195399	0.624424
H116	H	0.525555	-0.459814	-0.000039
H117	H	0.098525	0.219610	0.000080
N118	N	0.560388	-0.746113	0.000020
H119	H	0.537813	-0.732673	-0.084714
H120	H	0.567800	-0.789318	0.000070
N121	N	-0.147938	-0.037799	0.000096
H122	H	-0.115626	-0.070355	0.000111
H123	H	-0.172274	-0.040356	0.084833
N124	N	0.132376	-0.086453	0.000130
H125	H	0.164692	-0.119006	0.000146
H126	H	0.108045	-0.089009	0.084875
N127	N	0.814036	0.002359	0.623763
H128	H	0.839824	0.007764	0.543076
H129	H	0.809188	0.038309	0.681465
N130	N	0.782787	-0.229059	0.000084
H131	H	0.816007	-0.205707	0.000101
H132	H	0.784754	-0.254018	0.084819
N133	N	0.744202	-0.067531	0.376399
H134	H	0.738822	-0.093328	0.457093
H135	H	0.708249	-0.062712	0.318691
N136	N	0.561868	-0.622663	-0.000005
H137	H	0.528647	-0.646015	-0.000007
H138	H	0.559899	-0.597715	0.084734
H139	H	0.404515	-0.017447	0.000076
N140	N	0.255826	-0.084975	0.000133
H141	H	0.232471	-0.118194	0.000146
H142	H	0.280775	-0.086947	-0.084608
H143	H	0.601656	0.144747	0.369535
N144	N	0.521997	-0.029782	0.000073
H145	H	0.563057	-0.021394	0.000070
H146	H	0.514708	-0.052578	0.084821
N147	N	0.568412	-0.076191	0.000061
H148	H	0.535183	-0.099532	0.000045
H149	H	0.566443	-0.051240	0.084796
N150	N	0.369123	0.184591	0.000078
H151	H	0.392475	0.217812	0.000077
H152	H	0.344155	0.186576	-0.084639
