data_functionalizedCrystal
_audit_creation_method	'MofGen! by Chris Wilmer'
_symmetry_space_group_name_H-M	'P1'
_symmetry_Int_Tables_number	1
_symmetry_cell_setting	triclinic
loop_
_symmetry_equiv_pos_as_xyz
  x,y,z
_cell_length_a	11.026607
_cell_length_b	17.019294
_cell_length_c	9.482900
_cell_angle_alpha	95.509088
_cell_angle_beta	78.636152
_cell_angle_gamma	95.961137
loop_
_atom_site_label
_atom_site_type_symbol
_atom_site_fract_x
_atom_site_fract_y
_atom_site_fract_z
O1	O	1.634745	0.317407	-0.160633
O2	O	1.280774	0.280174	-0.155973
O3	O	1.465411	0.186481	-0.144236
O4	O	1.450108	0.411100	-0.172370
O5	O	1.427909	0.205610	0.095160
O6	O	1.243272	0.299303	0.083423
O7	O	1.597243	0.336536	0.078763
Cu8	Cu	1.416833	0.319666	0.102952
Cu9	Cu	1.461184	0.297044	-0.180162
O10	O	1.412606	0.430228	0.067026
C11	C	1.216690	0.282870	-0.035416
C12	C	1.081610	0.262394	-0.032853
C13	C	1.445340	0.166842	-0.020884
C14	C	1.441393	0.079824	-0.009994
C15	C	1.008815	0.318931	-0.039935
C16	C	0.869202	0.297769	-0.037286
C17	C	1.459984	0.028520	-0.135372
C18	C	1.456267	-0.053243	-0.125135
C19	C	1.433967	-0.083700	0.010481
C20	C	1.415371	-0.032390	0.135868
C21	C	1.419080	0.049371	0.125630
C22	C	1.421739	-0.330044	0.047921
C23	C	1.418035	-0.411812	0.058149
C24	C	1.458928	-0.432659	-0.202855
C25	C	1.462642	-0.350895	-0.213081
C26	C	1.444040	-0.299593	-0.087694
C27	C	1.430171	-0.167275	0.020947
C28	C	1.447828	-0.216020	-0.098162
C29	C	1.661328	0.333840	-0.041797
C30	C	1.796409	0.354315	-0.044370
C31	C	1.432677	0.449867	-0.056329
C32	C	1.436626	0.536885	-0.067229
N33	N	1.385648	0.335578	0.302079
N34	N	1.492378	0.281127	-0.379288
C35	C	1.451977	0.301732	0.378518
C36	C	1.426039	0.314978	0.544276
H37	H	0.828178	0.233692	-0.029298
H38	H	1.471410	-0.095011	-0.227232
H39	H	1.527962	0.262945	0.321249
H40	H	1.397207	-0.057195	0.246289
H41	H	1.350041	0.353761	0.601542
N42	N	1.593036	0.229744	0.544876
H43	H	1.597297	0.227562	0.437215
H44	H	1.675474	0.252834	0.568493
H45	H	1.309654	0.374358	0.359351
H46	H	1.049849	0.383002	-0.047952
H47	H	1.474071	-0.474438	-0.304938
H48	H	1.040580	0.198321	-0.024865
H49	H	1.478149	0.053312	-0.245805
N50	N	1.486697	-0.318046	-0.359352
H51	H	1.497910	-0.362954	-0.437228
H52	H	1.413872	-0.288814	-0.368756
N53	N	1.401690	-0.274717	0.183154
H54	H	1.387011	-0.306420	0.270615
H55	H	1.477598	-0.236103	0.184055
H56	H	1.465975	-0.191219	-0.208579
N57	N	1.393986	-0.444665	0.204427
H58	H	1.382763	-0.399759	0.282307
H59	H	1.316306	-0.482376	0.214880
H60	H	1.403924	0.091141	0.227727
H61	H	1.412019	-0.192082	0.131366
H62	H	0.837436	0.418390	-0.052385
