data_functionalizedCrystal
_audit_creation_method	'MofGen! by Chris Wilmer'
_symmetry_space_group_name_H-M	'P1'
_symmetry_Int_Tables_number	1
_symmetry_cell_setting	triclinic
loop_
_symmetry_equiv_pos_as_xyz
  x,y,z
_cell_length_a	12.594517
_cell_length_b	12.594516
_cell_length_c	12.594510
_cell_angle_alpha	89.967679
_cell_angle_beta	89.988729
_cell_angle_gamma	90.011939
loop_
_atom_site_label
_atom_site_type_symbol
_atom_site_fract_x
_atom_site_fract_y
_atom_site_fract_z
Zn1	Zn	1.627265	-0.423763	-0.601595
Zn2	Zn	1.627156	-0.601792	-0.423623
Zn3	Zn	1.449269	-0.423815	-0.423655
Zn4	Zn	1.449251	-0.601687	-0.601584
O5	O	1.538235	-0.512764	-0.512614
O6	O	1.776196	-0.447401	-0.577979
O7	O	1.603521	-0.578249	-0.274681
O8	O	1.472934	-0.274862	-0.447277
O9	O	1.776116	-0.578198	-0.447223
O10	O	1.603706	-0.274824	-0.578009
O11	O	1.472829	-0.447490	-0.274705
O12	O	1.300321	-0.447388	-0.447266
O13	O	1.472902	-0.578019	-0.750531
O14	O	1.300308	-0.578070	-0.577989
O15	O	1.603689	-0.447299	-0.750540
O16	O	1.603504	-0.750724	-0.447212
O17	O	1.472797	-0.750647	-0.577959
C18	C	1.261694	-0.512724	-0.512630
C19	C	1.143389	-0.512732	-0.512663
C20	C	1.074159	-0.583949	-0.583626
C21	C	1.003351	-0.486901	-0.609800
C22	C	1.003398	-0.609861	-0.486464
C23	C	1.074138	-0.415632	-0.538888
C24	C	1.074193	-0.538658	-0.415507
C25	C	1.003416	-0.441542	-0.441645
C26	C	1.538166	-0.789305	-0.512604
C27	C	1.538233	-0.907611	-0.512635
C28	C	1.467135	-0.976860	-0.583698
C29	C	1.441202	-1.047734	-0.486580
C30	C	1.564263	-1.047536	-0.609770
C31	C	1.512249	-0.976926	-0.415465
C32	C	1.635355	-0.976721	-0.538721
C33	C	1.609459	-1.047563	-0.441535
C34	C	1.815856	-0.512805	-0.512599
C35	C	1.934161	-0.512823	-0.512592
C36	C	1.538306	-0.512641	-0.790235
C37	C	1.538335	-0.512589	-0.908541
C38	C	1.538334	-0.235143	-0.512648
C39	C	1.538376	-0.116838	-0.512662
C40	C	1.609491	-0.441485	-0.977799
C41	C	1.512415	-0.415425	-1.048605
C42	C	1.635468	-0.538574	-1.048533
C43	C	1.441208	-0.486479	-0.977789
C44	C	1.564326	-0.609673	-0.977711
C45	C	1.467183	-0.583650	-1.048486
C46	C	1.538227	-0.512810	-0.236073
C47	C	1.538403	-0.512562	-0.117768
H48	H	1.105333	-0.560583	-0.333398
C49	C	0.961288	-0.457332	-0.720745
H50	H	0.985498	-0.507972	-0.771109
H51	H	0.986538	-0.388855	-0.739833
H52	H	0.885866	-0.456957	-0.719738
C53	C	1.690645	-0.360216	-0.935869
H54	H	1.672026	-0.291260	-0.960150
H55	H	1.759443	-0.378016	-0.961138
H56	H	1.690515	-0.361225	-0.860446
H57	H	1.490455	-0.333312	-1.079746
H58	H	1.359068	-0.464394	-0.946844
C59	C	1.746213	-0.934588	-0.568538
H60	H	1.764560	-0.958731	-0.637596
H61	H	1.796920	-0.959874	-0.518757
H62	H	1.745550	-0.859166	-0.567678
C63	C	1.116135	-0.665150	-0.664793
H64	H	1.091877	-0.646582	-0.733767
H65	H	1.090876	-0.733943	-0.646886
H66	H	1.191558	-0.664999	-0.663812
C67	C	1.594033	-0.720565	-0.935602
H68	H	1.663081	-0.738934	-0.959779
H69	H	1.544216	-0.771244	-0.960856
H70	H	1.593155	-0.719920	-0.860180
C71	C	0.961405	-0.720768	-0.456575
H72	H	0.985635	-0.771243	-0.507095
H73	H	0.885988	-0.719834	-0.456135
H74	H	0.986701	-0.739655	-0.388065
C75	C	1.385772	-0.934910	-0.664761
H76	H	1.316848	-0.959229	-0.646057
H77	H	1.403535	-0.960124	-0.733579
H78	H	1.386726	-0.859486	-0.664636
H79	H	1.359135	-1.078950	-0.464538
C80	C	1.593933	-1.089435	-0.720724
H81	H	1.543296	-1.065213	-0.771113
H82	H	1.594410	-1.164852	-0.719786
H83	H	1.662391	-1.064065	-0.739731
H84	H	1.406969	-0.643769	-1.079327
C85	C	1.746397	-0.568290	-1.090507
H86	H	1.796839	-0.517710	-1.066290
H87	H	1.745475	-0.568706	-1.165924
H88	H	1.765322	-0.636782	-1.065178
H89	H	1.490195	-0.946038	-0.333307
C90	C	1.690766	-1.089251	-0.360284
H91	H	1.742812	-1.130702	-0.395798
H92	H	1.655475	-1.131790	-0.308926
H93	H	1.724184	-1.030973	-0.326011
C94	C	1.115932	-0.304690	-0.568924
H95	H	1.191361	-0.305344	-0.568804
H96	H	1.091145	-0.254091	-0.518811
H97	H	1.091086	-0.286201	-0.637707
H98	H	0.972550	-0.381286	-0.381603
