data_functionalizedCrystal
_audit_creation_method	'MofGen! by Chris Wilmer'
_symmetry_space_group_name_H-M	'P1'
_symmetry_Int_Tables_number	1
_symmetry_cell_setting	triclinic
loop_
_symmetry_equiv_pos_as_xyz
  x,y,z
_cell_length_a	10.654562
_cell_length_b	9.130313
_cell_length_c	9.065215
_cell_angle_alpha	90.000333
_cell_angle_beta	84.752401
_cell_angle_gamma	90.003070
loop_
_atom_site_label
_atom_site_type_symbol
_atom_site_fract_x
_atom_site_fract_y
_atom_site_fract_z
O1	O	1.668644	0.121893	0.207318
O2	O	1.303246	0.121874	0.227042
O3	O	1.493499	0.121877	0.002496
O4	O	1.478390	0.121889	0.431864
O5	O	1.493497	-0.121721	0.002502
O6	O	1.303243	-0.121725	0.227048
O7	O	1.668642	-0.121706	0.207324
Cu8	Cu	1.485942	-0.143958	0.217187
Cu9	Cu	1.485945	0.144126	0.217179
O10	O	1.478388	-0.121710	0.431870
C11	C	1.256441	0.000072	0.225593
C12	C	1.116981	0.000065	0.221248
C13	C	1.051441	-0.132709	0.219225
C14	C	0.920403	-0.132685	0.215154
C15	C	0.920456	0.132900	0.215137
C16	C	1.051493	0.132874	0.219197
C17	C	1.116930	-0.265518	0.221277
C18	C	1.051390	-0.398303	0.219255
C19	C	0.920351	-0.398279	0.215184
C20	C	0.854853	-0.265469	0.213135
N21	N	1.485949	-0.346581	0.217191
C22	C	1.570216	-0.423231	0.117796
C23	C	1.570212	-0.576568	0.117778
C24	C	1.401672	-0.576590	0.316563
C25	C	1.401670	-0.423256	0.316573
C26	C	1.654495	-0.346556	0.018414
C27	C	1.738769	-0.423206	-0.080988
C28	C	1.738766	-0.576543	-0.081005
C29	C	1.654488	-0.653229	0.018379
C30	C	1.715446	0.000099	0.208773
C31	C	1.854906	0.000115	0.213118
C32	C	1.492047	0.000079	-0.052479
C33	C	1.487708	0.000084	-0.216299
N34	N	1.485948	0.346748	0.217164
C35	C	1.479840	0.000092	0.486845
C36	C	1.484180	0.000097	0.650665
H37	H	0.867116	0.241027	0.213472
H38	H	1.654508	-0.221701	0.018422
H39	H	1.104728	-0.506432	0.220912
H40	H	1.807376	-0.638950	-0.161951
Br41	Br	1.654474	-0.861331	0.018332
Br42	Br	1.294765	-0.265558	0.226818
Br43	Br	1.287304	-0.680662	0.451435
Br44	Br	1.853126	-0.319139	-0.215877
H45	H	0.748153	-0.265460	0.209817
Br46	Br	0.831408	-0.578482	0.212425
Br47	Br	1.287298	-0.319226	0.451461
H48	H	1.104856	0.240991	0.220851
