data_functionalizedCrystal
_audit_creation_method	'MofGen! by Chris Wilmer'
_symmetry_space_group_name_H-M	'P1'
_symmetry_Int_Tables_number	1
_symmetry_cell_setting	triclinic
loop_
_symmetry_equiv_pos_as_xyz
  x,y,z
_cell_length_a	16.992694
_cell_length_b	15.944551
_cell_length_c	16.053934
_cell_angle_alpha	92.575630
_cell_angle_beta	87.253259
_cell_angle_gamma	87.083481
loop_
_atom_site_label
_atom_site_type_symbol
_atom_site_fract_x
_atom_site_fract_y
_atom_site_fract_z
O1	O	1.037105	0.181416	0.069327
O2	O	0.808819	0.179463	0.069352
O3	O	0.929196	0.058583	0.069331
O4	O	0.916728	0.302297	0.069348
O5	O	0.935786	0.051951	-0.069526
O6	O	0.815409	0.172832	-0.069506
O7	O	1.043695	0.174785	-0.069530
Zn8	Zn	0.930598	0.172756	-0.091564
Zn9	Zn	0.921916	0.181493	0.091386
O10	O	0.923318	0.295666	-0.069510
C11	C	0.782901	0.173634	-0.000074
C12	C	0.695856	0.166135	-0.000065
C13	C	0.931974	0.023938	-0.000097
C14	C	0.930422	-0.069412	-0.000098
C15	C	0.645619	0.238500	-0.000061
C16	C	0.563833	0.231447	-0.000073
C17	C	0.532284	0.152029	-0.000083
C18	C	0.582528	0.079658	-0.000089
C19	C	0.664313	0.086711	-0.000083
C20	C	0.288686	0.122797	-0.000107
C21	C	0.206895	0.115749	-0.000111
C22	C	0.188205	0.267539	-0.000095
C23	C	0.269992	0.274585	-0.000084
C24	C	0.320229	0.202214	-0.000095
N25	N	0.448686	0.144818	-0.000092
N26	N	0.403826	0.209425	-0.000092
C27	C	0.852097	-0.289520	-0.000078
C28	C	0.891717	-0.351368	-0.068547
C29	C	0.927614	-0.240326	-0.000091
C30	C	0.885238	-0.344812	0.068356
C31	C	0.924897	-0.405420	-0.000081
C32	C	0.967258	-0.300947	-0.068617
C33	C	0.960766	-0.294382	0.068347
C34	C	1.000442	-0.356210	-0.000138
C35	C	0.929178	-0.145219	-0.000098
C36	C	0.923339	-0.500526	-0.000080
C37	C	1.069613	0.180614	-0.000103
C38	C	1.156658	0.188114	-0.000106
C39	C	0.920540	0.330310	-0.000079
C40	C	0.922092	0.423660	-0.000073
N41	N	0.936529	0.166792	-0.216423
C42	C	0.885299	0.218206	-0.260129
C43	C	0.889471	0.214033	-0.347535
C44	C	0.944870	0.158441	-0.391233
C45	C	0.996106	0.107025	-0.347521
C46	C	0.991938	0.111203	-0.260117
C47	C	0.963058	0.140212	-0.652639
C48	C	0.967221	0.136036	-0.740049
C49	C	0.860586	0.243046	-0.740057
C50	C	0.856419	0.247215	-0.652651
C51	C	0.907658	0.195802	-0.608946
N52	N	0.949134	0.154172	-0.480576
N53	N	0.903397	0.200076	-0.519605
N54	N	0.915991	0.187450	0.216245
H55	H	0.671299	0.303171	-0.000052
F56	F	1.055071	0.047863	-0.394029
F57	F	0.853561	-0.384065	-0.144199
F58	F	0.342141	0.045772	-0.000119
H59	H	1.063181	-0.385163	-0.000184
H60	H	0.847755	0.255899	-0.383120
H61	H	1.001922	-0.281583	-0.126565
H62	H	0.522932	0.290375	-0.000068
H63	H	0.295672	0.339256	-0.000066
F64	F	0.998889	-0.261658	0.144003
F65	F	0.548950	-0.004865	-0.000106
F66	F	1.017588	0.085493	-0.606132
F67	F	1.026188	0.076862	-0.786551
F68	F	0.770170	-0.251484	-0.000154
H69	H	0.818871	0.284904	-0.775649
F70	F	0.717779	0.009690	-0.000091
H71	H	1.033656	0.069337	-0.224533
F72	F	0.826331	0.277372	-0.213630
F73	F	0.134735	0.344555	-0.000085
F74	F	0.839882	-0.370261	0.144010
H75	H	0.811309	0.292483	-0.617073
H76	H	0.181212	0.051074	-0.000118
