data_functionalizedCrystal
_audit_creation_method	'MofGen! by Chris Wilmer'
_symmetry_space_group_name_H-M	'P1'
_symmetry_Int_Tables_number	1
_symmetry_cell_setting	triclinic
loop_
_symmetry_equiv_pos_as_xyz
  x,y,z
_cell_length_a	9.065218
_cell_length_b	8.140239
_cell_length_c	10.654550
_cell_angle_alpha	89.997641
_cell_angle_beta	95.249606
_cell_angle_gamma	90.002802
loop_
_atom_site_label
_atom_site_type_symbol
_atom_site_fract_x
_atom_site_fract_y
_atom_site_fract_z
O1	O	1.959391	0.136613	-0.184157
O2	O	2.459391	0.636613	0.315843
O3	O	1.530024	0.136615	-0.199263
O4	O	2.030024	0.636615	0.300737
O5	O	1.754580	0.136608	-0.009010
O6	O	2.254580	0.636608	0.490990
O7	O	1.734836	0.136620	-0.374410
O8	O	2.234836	0.636620	0.125590
O9	O	1.754567	-0.136619	-0.009008
O10	O	2.254567	0.363381	0.490992
O11	O	1.530011	-0.136612	-0.199261
O12	O	2.030011	0.363388	0.300739
O13	O	1.959379	-0.136614	-0.184155
O14	O	2.459379	0.363386	0.315845
Zn15	Zn	1.744693	-0.179994	-0.191708
Zn16	Zn	2.244693	0.320006	0.308292
Zn17	Zn	1.744710	0.179995	-0.191711
Zn18	Zn	2.244710	0.679995	0.308289
O19	O	1.734823	-0.136607	-0.374408
O20	O	2.234823	0.363393	0.125592
C21	C	1.475039	0.000002	-0.197810
C22	C	1.975039	0.500002	0.302190
C23	C	1.311220	0.000003	-0.193469
C24	C	1.811220	0.500003	0.306531
N25	N	1.744693	-0.425676	-0.191705
N26	N	2.244693	0.074324	0.308295
C27	C	2.014364	0.000003	-0.185608
C28	C	2.514364	0.500003	0.314392
C29	C	2.178183	0.000013	-0.189949
C30	C	2.678183	0.500013	0.310051
C31	C	1.753124	-0.000004	0.037795
C32	C	2.253124	0.499996	0.537795
C33	C	1.748786	0.000002	0.177255
C34	C	2.248786	0.500002	0.677255
N35	N	1.744722	0.425677	-0.191704
N36	N	2.244722	0.925677	0.308296
C37	C	1.736279	0.000008	-0.421213
C38	C	2.236279	0.500008	0.078787
C39	C	1.740616	0.000013	-0.560673
C40	C	2.240616	0.500013	-0.060673
C41	C	1.881001	-0.000003	0.256217
C42	C	2.381001	0.499997	0.756217
C43	C	1.876917	0.000008	0.387254
C44	C	2.376917	0.500008	0.887254
C45	C	1.608391	0.000024	0.360354
C46	C	2.108391	0.500024	0.860354
C47	C	1.612477	0.000024	0.229320
C48	C	2.112477	0.500024	0.729320
C49	C	2.036032	-0.000020	0.271749
C50	C	2.536032	0.499980	0.771749
C51	C	2.031948	-0.000008	0.402786
C52	C	2.531948	0.499992	0.902786
H53	H	1.504815	0.000051	0.165033
H54	H	2.004815	0.500051	0.665033
Cl55	Cl	2.104291	0.182124	0.472978
Cl56	Cl	2.604291	0.682124	0.972978
H57	H	1.497413	0.000043	0.402762
H58	H	1.997413	0.500043	0.902762
Cl59	Cl	2.122118	-0.176540	0.466913
Cl60	Cl	2.622118	0.323460	0.966913
H61	H	2.096676	0.114317	0.242150
H62	H	2.596676	0.614317	0.742150
H63	H	2.085394	-0.117994	0.235927
H64	H	2.585394	0.382006	0.735927
