data_functionalizedCrystal
_audit_creation_method	'MofGen! by Chris Wilmer'
_symmetry_space_group_name_H-M	'P1'
_symmetry_Int_Tables_number	1
_symmetry_cell_setting	triclinic
loop_
_symmetry_equiv_pos_as_xyz
  x,y,z
_cell_length_a	6.817900
_cell_length_b	11.168121
_cell_length_c	16.856723
_cell_angle_alpha	97.926501
_cell_angle_beta	90.699575
_cell_angle_gamma	108.508496
loop_
_atom_site_label
_atom_site_type_symbol
_atom_site_fract_x
_atom_site_fract_y
_atom_site_fract_z
V1	V	3.912253	0.174021	0.247306
O2	O	3.875605	-0.009066	0.242591
O3	O	3.889887	0.345731	0.245621
O4	O	3.802353	0.171035	0.355161
O5	O	3.963745	0.166839	0.132292
V6	V	4.400476	0.152158	0.233548
O7	O	4.163200	0.221979	0.277483
O8	O	4.599726	0.104200	0.203371
O9	O	4.199636	-0.019552	0.235233
O10	O	4.554521	0.335245	0.238263
O11	O	4.466381	0.159340	0.348561
O12	O	4.287170	0.155144	0.125693
C13	C	3.743211	0.387600	0.241721
C14	C	3.805801	0.527973	0.241062
C15	C	3.631552	0.164757	0.381450
C16	C	3.623153	0.163452	0.469622
C17	C	4.108747	0.162811	0.009578
C18	C	4.121333	0.161448	0.099404
V19	V	3.829622	0.172129	-0.124565
O20	O	3.763746	0.165000	-0.239574
O21	O	3.942903	0.169096	-0.016714
O22	O	4.030457	0.343851	-0.126217
O23	O	3.675585	-0.010965	-0.129314
V24	V	3.317827	0.150257	-0.138328
O25	O	3.630359	0.220068	-0.094380
O26	O	3.066886	0.102304	-0.168514
O27	O	3.427756	0.153297	-0.246177
O28	O	3.266305	0.157383	-0.023318
O29	O	3.354465	0.333348	-0.133579
O30	O	3.340202	-0.021458	-0.136675
C31	C	4.009656	-0.061414	0.239131
C32	C	3.926302	-0.201786	0.239794
C33	C	4.220439	0.385722	-0.130105
C34	C	4.303789	0.526101	-0.130742
C35	C	4.005539	0.596656	0.244531
C36	C	4.070233	0.741739	0.243850
C37	C	3.598566	0.159594	-0.272463
C38	C	3.606987	0.160940	-0.360631
C39	C	3.791180	0.168848	0.512771
C40	C	3.782503	0.167500	0.603902
C41	C	3.486879	-0.063325	-0.132781
C42	C	3.424288	-0.203704	-0.132146
C43	C	4.175683	0.594780	-0.127264
C44	C	4.261826	0.739869	-0.127922
H45	H	4.241342	0.800779	0.246810
N46	N	4.168630	0.532289	0.249140
H47	H	4.099297	0.437771	0.248975
H48	H	4.256710	0.545954	0.201364
N49	N	4.116727	0.818067	-0.123983
H50	H	4.012664	0.785871	-0.171545
H51	H	4.041603	0.810064	-0.072722
H52	H	3.463142	0.156329	0.602282
N53	N	3.945927	0.530406	-0.122668
H54	H	3.869037	0.543992	-0.170436
H55	H	3.917136	0.435909	-0.122821
N56	N	3.642707	0.592338	0.236456
H57	H	3.660335	0.658914	0.285420
H58	H	3.658076	0.634579	0.186597
H59	H	3.941454	0.174458	0.482244
N60	N	4.533547	0.590487	-0.135325
H61	H	4.607204	0.524721	-0.137555
H62	H	4.559114	0.632836	-0.185142
N63	N	3.699642	0.720017	0.235867
H64	H	3.631937	0.752225	0.283426
H65	H	3.629731	0.727995	0.184603
N66	N	3.973054	0.173627	0.653026
H67	H	3.939847	0.171798	0.711164
H68	H	4.018910	0.097970	0.632644
N69	N	3.424065	0.156014	0.510034
H70	H	3.378323	0.076613	0.536527
H71	H	3.447479	0.233905	0.551900
N72	N	4.609360	0.718166	-0.135908
H73	H	4.684631	0.726142	-0.187138
H74	H	4.713295	0.750407	-0.088309
