data_functionalizedCrystal
_audit_creation_method	'MofGen! by Chris Wilmer'
_symmetry_space_group_name_H-M	'P1'
_symmetry_Int_Tables_number	1
_symmetry_cell_setting	triclinic
loop_
_symmetry_equiv_pos_as_xyz
  x,y,z
_cell_length_a	15.944493
_cell_length_b	15.021413
_cell_length_c	14.519709
_cell_angle_alpha	89.996924
_cell_angle_beta	83.577594
_cell_angle_gamma	90.006749
loop_
_atom_site_label
_atom_site_type_symbol
_atom_site_fract_x
_atom_site_fract_y
_atom_site_fract_z
O1	O	1.114731	0.074022	0.118675
O2	O	1.448065	0.407355	0.452008
O3	O	1.781398	0.740689	0.785341
O4	O	0.870196	0.074027	0.133395
O5	O	1.203530	0.407360	0.466728
O6	O	1.536863	0.740693	0.800061
O7	O	0.998947	0.074016	-0.008217
O8	O	1.332281	0.407350	0.325117
O9	O	1.665614	0.740683	0.658450
O10	O	0.985980	0.074033	0.260286
O11	O	1.319314	0.407366	0.593619
O12	O	1.652647	0.740699	0.926953
O13	O	0.998927	-0.074048	-0.008196
O14	O	1.332260	0.259285	0.325137
O15	O	1.665594	0.592619	0.658470
O16	O	0.870176	-0.074037	0.133415
O17	O	1.203509	0.259296	0.466748
O18	O	1.536843	0.592629	0.800082
O19	O	1.114711	-0.074042	0.118695
O20	O	1.448044	0.259291	0.452028
O21	O	1.781378	0.592625	0.785361
Zn22	Zn	0.992440	-0.097548	0.126058
Zn23	Zn	1.325773	0.235785	0.459391
Zn24	Zn	1.659107	0.569119	0.792725
Zn25	Zn	0.992467	0.097533	0.126031
Zn26	Zn	1.325801	0.430866	0.459365
Zn27	Zn	1.659134	0.764200	0.792698
O28	O	0.985960	-0.074032	0.260306
O29	O	1.319293	0.259302	0.593639
O30	O	1.652627	0.592635	0.926973
C31	C	0.838891	-0.000005	0.132803
C32	C	1.172224	0.333329	0.466136
C33	C	1.505557	0.666662	0.799470
C34	C	0.745639	-0.000003	0.130999
C35	C	1.078973	0.333330	0.464333
C36	C	1.412306	0.666663	0.797666
N37	N	0.992428	-0.230686	0.126076
N38	N	1.325761	0.102648	0.459409
N39	N	1.659095	0.435981	0.792742
C40	C	0.510000	0.000002	0.214355
C41	C	0.843334	0.333336	0.547688
C42	C	1.176667	0.666669	0.881022
C43	C	0.459367	-0.073008	0.169415
C44	C	0.792700	0.260326	0.502748
C45	C	1.126033	0.593659	0.836081
C46	C	0.574913	-0.000005	0.127657
C47	C	0.908247	0.333328	0.460991
C48	C	1.241580	0.666661	0.794324
C49	C	0.459391	0.072972	0.169374
C50	C	0.792725	0.406305	0.502707
C51	C	1.126058	0.739639	0.836041
C52	C	0.409999	-0.000003	0.124435
C53	C	0.743332	0.333330	0.457769
C54	C	1.076666	0.666663	0.791102
C55	C	0.525508	-0.073075	0.082740
C56	C	0.858841	0.260258	0.416074
C57	C	1.192175	0.593591	0.749407
C58	C	0.525536	0.072970	0.082712
C59	C	0.858869	0.406303	0.416046
C60	C	1.192203	0.739637	0.749379
C61	C	0.474935	-0.000058	0.037708
C62	C	0.808269	0.333275	0.371042
C63	C	1.141602	0.666609	0.704375
C64	C	0.669916	-0.000007	0.129516
C65	C	1.003249	0.333326	0.462849
C66	C	1.336583	0.666659	0.796182
C67	C	0.314999	-0.000008	0.122570
C68	C	0.648333	0.333326	0.455903
C69	C	0.981666	0.666659	0.789237
C70	C	0.932884	-0.470364	0.191526
C71	C	1.266218	-0.137031	0.524859
C72	C	1.599551	0.196302	0.858193
C73	C	1.008813	-0.529699	0.209413
C74	C	1.342146	-0.196366	0.542746
C75	C	1.675479	0.136968	0.876079
C76	C	0.992449	-0.412293	0.126053
C77	C	1.325783	-0.078959	0.459386
C78	C	1.659116	0.254374	0.792719
C79	C	0.916542	-0.529700	0.108186
C80	C	1.249875	-0.196366	0.441520
C81	C	1.583208	0.136967	0.774853
C82	C	0.992463	-0.587717	0.126032
C83	C	1.325797	-0.254383	0.459366
C84	C	1.659130	0.078950	0.792699
C85	C	1.068416	-0.470321	0.143981
C86	C	1.401749	-0.136987	0.477314
C87	C	1.735083	0.196346	0.810647
C88	C	0.976095	-0.470317	0.042718
C89	C	1.309428	-0.136983	0.376052
C90	C	1.642762	0.196350	0.709385
C91	C	1.052078	-0.529624	0.060570
C92	C	1.385412	-0.196291	0.393903
C93	C	1.718745	0.137042	0.727236
C94	C	0.992440	-0.311235	0.126067
C95	C	1.325773	0.022098	0.459400
C96	C	1.659107	0.355431	0.792733
C97	C	0.992481	-0.688772	0.126018
C98	C	1.325815	-0.355439	0.459351
C99	C	1.659148	-0.022105	0.792684
C100	C	1.146017	-0.000009	0.119286
C101	C	1.479350	0.333325	0.452620
C102	C	1.812683	0.666658	0.785953
C103	C	1.239268	-0.000004	0.121090
C104	C	1.572601	0.333329	0.454423
C105	C	1.905935	0.666662	0.787757
C106	C	0.998333	-0.000016	-0.042565
C107	C	1.331666	0.333317	0.290768
C108	C	1.664999	0.666651	0.624102
C109	C	0.996522	-0.000016	-0.144943
C110	C	1.329855	0.333317	0.188391
C111	C	1.663189	0.666650	0.521724
N112	N	0.992486	0.230670	0.126006
N113	N	1.325819	0.564004	0.459340
N114	N	1.659153	0.897337	0.792673
C115	C	0.989855	0.000007	-0.519825
C116	C	1.323189	0.333340	-0.186492
C117	C	1.656522	0.666674	0.146841
C118	C	0.991707	0.000000	-0.415521
C119	C	1.325040	0.333333	-0.082188
C120	C	1.658373	0.666667	0.251145
C121	C	0.993188	-0.000006	-0.332387
C122	C	1.326522	0.333328	0.000946
C123	C	1.659855	0.666661	0.334279
C124	C	0.995040	-0.000011	-0.228077
C125	C	1.328373	0.333323	0.105257
C126	C	1.661707	0.666656	0.438590
C127	C	0.986575	0.000003	0.294655
C128	C	1.319908	0.333336	0.627988
C129	C	1.653241	0.666669	0.961321
C130	C	0.988385	0.000009	0.397032
C131	C	1.321719	0.333342	0.730366
C132	C	1.655052	0.666676	1.063699
H133	H	0.525732	-0.000061	0.289036
H134	H	0.859066	0.333272	0.622369
H135	H	1.192399	0.666605	0.955703
H136	H	0.962226	-0.444213	-0.027724
H137	H	1.295559	-0.110879	0.305609
H138	H	1.628893	0.222454	0.638943
H139	H	1.132630	-0.444348	0.159168
H140	H	1.465963	-0.111015	0.492501
H141	H	1.799297	0.222319	0.825834
H142	H	0.882563	-0.444345	0.246939
H143	H	1.215896	-0.111011	0.580273
H144	H	1.549230	0.222322	0.913606
H145	H	0.554274	-0.134861	0.046157
H146	H	0.887608	0.198473	0.379490
H147	H	1.220941	0.531806	0.712823
H148	H	0.459361	-0.000105	-0.037029
H149	H	0.792694	0.333229	0.296304
H150	H	1.126028	0.666562	0.629638
C151	C	0.420388	0.156352	0.218846
C152	C	0.753722	0.489686	0.552180
C153	C	1.087055	0.823019	0.885513
N154	N	0.391014	0.219151	0.256115
N155	N	0.724348	0.552485	0.589448
N156	N	1.057681	0.885818	0.922781
H157	H	1.102511	-0.555481	0.005189
H158	H	1.435845	-0.222147	0.338522
H159	H	1.769178	0.111186	0.671856
C160	C	0.829810	-0.564932	0.087779
C161	C	1.163144	-0.231599	0.421112
C162	C	1.496477	0.101734	0.754445
N163	N	0.764482	-0.591466	0.072414
N164	N	1.097815	-0.258132	0.405747
N165	N	1.431149	0.075201	0.739080
C166	C	1.027512	-0.564946	0.304605
C167	C	1.360845	-0.231613	0.637939
C168	C	1.694178	0.101720	0.971272
N169	N	1.041589	-0.591495	0.376306
N170	N	1.374922	-0.258161	0.709640
N171	N	1.708256	0.075172	1.042973
H172	H	0.430474	-0.134726	0.206037
H173	H	0.763807	0.198607	0.539370
H174	H	1.097140	0.531940	0.872704
H175	H	0.554438	0.134692	0.046118
H176	H	0.887771	0.468025	0.379451
H177	H	1.221104	0.801359	0.712784
