data_functionalizedCrystal
_audit_creation_method	'MofGen! by Chris Wilmer'
_symmetry_space_group_name_H-M	'P1'
_symmetry_Int_Tables_number	1
_symmetry_cell_setting	triclinic
loop_
_symmetry_equiv_pos_as_xyz
  x,y,z
_cell_length_a	14.044191
_cell_length_b	27.731996
_cell_length_c	13.101039
_cell_angle_alpha	93.327690
_cell_angle_beta	86.337551
_cell_angle_gamma	87.906582
loop_
_atom_site_label
_atom_site_type_symbol
_atom_site_fract_x
_atom_site_fract_y
_atom_site_fract_z
O1	O	1.261209	0.114036	-0.085190
O2	O	1.594543	0.447369	0.248144
O3	O	1.927876	0.780702	0.581477
O4	O	0.985303	0.109829	-0.085202
O5	O	1.318637	0.443163	0.248131
O6	O	1.651970	0.776496	0.581465
O7	O	1.131850	0.041938	-0.085173
O8	O	1.465183	0.375271	0.248160
O9	O	1.798516	0.708605	0.581493
O10	O	1.114663	0.181927	-0.085218
O11	O	1.447996	0.515260	0.248115
O12	O	1.781330	0.848594	0.581448
O13	O	1.121335	0.046818	0.085254
O14	O	1.454668	0.380151	0.418588
O15	O	1.788002	0.713485	0.751921
O16	O	0.974789	0.114709	0.085226
O17	O	1.308122	0.448043	0.418559
O18	O	1.641456	0.781376	0.751893
O19	O	1.250695	0.118916	0.085238
O20	O	1.584028	0.452249	0.418571
O21	O	1.917361	0.785582	0.751905
Zn22	Zn	1.111072	0.117587	0.112291
Zn23	Zn	1.444406	0.450921	0.445624
Zn24	Zn	1.777739	0.784254	0.778958
Zn25	Zn	1.124926	0.111158	-0.112255
Zn26	Zn	1.458259	0.444491	0.221078
Zn27	Zn	1.791592	0.777824	0.554412
O28	O	1.104148	0.186807	0.085209
O29	O	1.437482	0.520140	0.418543
O30	O	1.770815	0.853474	0.751876
C31	C	0.944759	0.110429	0.000011
C32	C	1.278093	0.443763	0.333344
C33	C	1.611426	0.777096	0.666678
C34	C	0.839616	0.104941	0.000007
C35	C	1.172949	0.438274	0.333341
C36	C	1.506283	0.771607	0.666674
C37	C	0.588896	0.133832	0.000008
C38	C	0.922229	0.467166	0.333342
C39	C	1.255562	0.800499	0.666675
C40	C	0.647108	0.094915	0.000019
C41	C	0.980442	0.428248	0.333352
C42	C	1.313775	0.761581	0.666686
C43	C	0.754229	0.100494	0.000012
C44	C	1.087563	0.433828	0.333346
C45	C	1.420896	0.767161	0.666679
C46	C	0.481765	0.128253	0.000015
C47	C	0.815098	0.461587	0.333348
C48	C	1.148431	0.794920	0.666681
C49	C	1.126239	0.026354	0.000044
C50	C	1.459572	0.359688	0.333377
C51	C	1.792906	0.693021	0.666711
C52	C	1.125175	-0.027352	0.000054
C53	C	1.458508	0.305982	0.333388
C54	C	1.791842	0.639315	0.666721
C55	C	1.124218	-0.363044	-0.092896
C56	C	1.457551	-0.029710	0.240437
C57	C	1.790885	0.303623	0.573771
C58	C	1.120180	-0.564892	-0.092914
C59	C	1.453513	-0.231559	0.240419
C60	C	1.786847	0.101775	0.573752
O61	O	1.124492	-0.593251	-0.171923
O62	O	1.457825	-0.259918	0.161410
O63	O	1.791158	0.073415	0.494744
N64	N	1.113947	-0.587473	-0.000015
N65	N	1.447280	-0.254139	0.333318
N66	N	1.780614	0.079194	0.666652
C67	C	1.108717	-0.559588	0.092895
C68	C	1.442050	-0.226254	0.426229
C69	C	1.775383	0.107079	0.759562
O70	O	1.103313	-0.583425	0.171912
O71	O	1.436646	-0.250092	0.505245
O72	O	1.769979	0.083241	0.838578
C73	C	1.112748	-0.357740	0.092913
C74	C	1.446081	-0.024407	0.426246
C75	C	1.779414	0.308926	0.759579
C76	C	1.118991	-0.335163	0.000007
C77	C	1.452324	-0.001829	0.333341
C78	C	1.785657	0.331504	0.666674
C79	C	1.130459	-0.340466	-0.185794
C80	C	1.463793	-0.007132	0.147539
C81	C	1.797126	0.326201	0.480873
C82	C	1.131474	-0.290007	-0.185788
C83	C	1.464807	0.043327	0.147545
C84	C	1.798141	0.376660	0.480878
C85	C	1.126247	-0.262126	-0.092885
C86	C	1.459580	0.071208	0.240448
C87	C	1.792914	0.404541	0.573782
C88	C	1.120005	-0.284704	0.000013
C89	C	1.453339	0.048630	0.333346
C90	C	1.786672	0.381963	0.666679
C91	C	1.107511	-0.329856	0.185822
C92	C	1.440844	0.003477	0.519155
C93	C	1.774177	0.336811	0.852489
C94	C	1.108517	-0.279391	0.185818
C95	C	1.441850	0.053942	0.519151
C96	C	1.775183	0.387275	0.852485
C97	C	1.114760	-0.256814	0.092913
C98	C	1.448093	0.076520	0.426246
C99	C	1.781426	0.409853	0.759579
C100	C	1.115793	-0.206364	0.092921
C101	C	1.449126	0.126970	0.426255
C102	C	1.782459	0.460303	0.759588
N103	N	1.122026	-0.183783	0.000022
N104	N	1.455359	0.149550	0.333356
N105	N	1.788693	0.482884	0.666689
C106	C	1.127253	-0.211664	-0.092881
C107	C	1.460586	0.121669	0.240452
C108	C	1.793920	0.455003	0.573786
C109	C	1.106603	-0.665561	0.092880
C110	C	1.439936	-0.332228	0.426213
C111	C	1.773269	0.001106	0.759547
C112	C	1.105597	-0.716023	0.092876
C113	C	1.438930	-0.382689	0.426209
C114	C	1.772263	-0.049356	0.759543
C115	C	1.117058	-0.721323	-0.092934
C116	C	1.450392	-0.387990	0.240399
C117	C	1.783725	-0.054657	0.573732
C118	C	1.118071	-0.670861	-0.092929
C119	C	1.451405	-0.337527	0.240404
C120	C	1.784738	-0.004194	0.573738
C121	C	1.112836	-0.642980	-0.000019
C122	C	1.446169	-0.309647	0.333314
C123	C	1.779503	0.023686	0.666647
C124	C	1.129384	-0.105696	-0.092863
C125	C	1.462717	0.227637	0.240471
C126	C	1.796051	0.560970	0.573804
C127	C	1.130402	-0.055233	-0.092849
C128	C	1.463735	0.278101	0.240485
C129	C	1.797069	0.611434	0.573818
C130	C	1.118935	-0.049936	0.092961
C131	C	1.452268	0.283397	0.426294
C132	C	1.785602	0.616730	0.759627
C133	C	1.117922	-0.100396	0.092948
C134	C	1.451256	0.232938	0.426281
C135	C	1.784589	0.566271	0.759614
C136	C	1.123144	-0.128275	0.000028
C137	C	1.456477	0.205059	0.333361
C138	C	1.789811	0.538392	0.666694
O139	O	1.111474	-0.177974	0.171889
O140	O	1.444807	0.155359	0.505222
O141	O	1.778140	0.488693	0.838555
O142	O	1.132635	-0.187817	-0.171885
O143	O	1.465969	0.145516	0.161448
O144	O	1.799302	0.478850	0.494781
C145	C	1.123203	-0.413503	-0.092902
C146	C	1.456537	-0.080169	0.240432
C147	C	1.789870	0.253164	0.573765
C148	C	1.116962	-0.436081	-0.000004
C149	C	1.450295	-0.102747	0.333330
C150	C	1.783628	0.230586	0.666663
C151	C	1.111735	-0.408199	0.092900
C152	C	1.445068	-0.074866	0.426233
C153	C	1.778401	0.258467	0.759566
C154	C	1.115956	-0.486542	-0.000008
C155	C	1.449289	-0.153209	0.333326
C156	C	1.782622	0.180124	0.666659
C157	C	1.121183	-0.514423	-0.092911
C158	C	1.454516	-0.181090	0.240422
C159	C	1.787849	0.152243	0.573756
C160	C	1.127416	-0.491843	-0.185810
C161	C	1.460749	-0.158509	0.147523
C162	C	1.794083	0.174824	0.480856
C163	C	1.128430	-0.441384	-0.185805
C164	C	1.461764	-0.108050	0.147528
C165	C	1.795097	0.225283	0.480862
C166	C	1.105502	-0.430780	0.185799
C167	C	1.438835	-0.097447	0.519132
C168	C	1.772168	0.235887	0.852465
C169	C	1.104489	-0.481239	0.185786
C170	C	1.437822	-0.147906	0.519119
C171	C	1.771155	0.185427	0.852452
C172	C	1.109716	-0.509120	0.092882
C173	C	1.443049	-0.175787	0.426216
C174	C	1.776382	0.157546	0.759549
C175	C	1.291239	0.118316	0.000023
C176	C	1.624572	0.451649	0.333356
C177	C	1.957905	0.784982	0.666690
C178	C	1.396383	0.123804	0.000020
C179	C	1.729716	0.457137	0.333353
C180	C	2.063049	0.790471	0.666687
C181	C	1.109759	0.202391	-0.000010
C182	C	1.443092	0.535724	0.333323
C183	C	1.776426	0.869057	0.666656
C184	C	1.110824	0.256096	-0.000027
C185	C	1.444157	0.589430	0.333306
C186	C	1.777490	0.922763	0.666639
N187	N	1.101625	0.121975	0.265538
N188	N	1.434958	0.455309	0.598871
N189	N	1.768291	0.788642	0.932204
N190	N	1.134381	0.106766	-0.265502
N191	N	1.467714	0.440100	0.067832
N192	N	1.801048	0.773433	0.401165
C193	C	1.088770	0.127950	0.474578
C194	C	1.422104	0.461283	0.807911
C195	C	1.755437	0.794616	1.141244
C196	C	1.147232	0.100793	0.525465
C197	C	1.480565	0.434127	0.858798
C198	C	1.813899	0.767460	1.192132
C199	C	1.140080	0.104118	0.641782
C200	C	1.473413	0.437451	0.975115
C201	C	1.806747	0.770784	1.308449
C202	C	1.095921	0.124626	0.358250
C203	C	1.429255	0.457959	0.691584
C204	C	1.762588	0.791293	1.024917
H205	H	0.619507	0.171338	-0.000007
H206	H	0.952840	0.504672	0.333326
H207	H	1.286174	0.838005	0.666660
H208	H	1.202655	0.075048	0.481673
H209	H	1.535988	0.408381	0.815007
H210	H	1.869321	0.741714	1.148340
H211	H	1.135488	-0.036853	-0.168507
H212	H	1.468821	0.296481	0.164827
H213	H	1.802155	0.629814	0.498160
H214	H	1.133631	-0.128389	-0.168527
H215	H	1.466964	0.204944	0.164807
H216	H	1.800298	0.538277	0.498140
H217	H	0.616500	0.057403	-0.000041
H218	H	0.949833	0.390737	0.333292
H219	H	1.283167	0.724070	0.666626
H220	H	1.136554	-0.271629	-0.261442
H221	H	1.469887	0.061705	0.071892
H222	H	1.803221	0.395038	0.405225
H223	H	1.134713	-0.363161	-0.261451
H224	H	1.468046	-0.029828	0.071882
H225	H	1.801379	0.303505	0.405216
H226	H	1.112847	-0.118779	0.168599
H227	H	1.446181	0.214554	0.501932
H228	H	1.779514	0.547887	0.835265
H229	H	1.033353	0.153694	0.518364
H230	H	1.366686	0.487027	0.851697
H231	H	1.700019	0.820361	1.185031
H232	H	1.123153	-0.652482	-0.168581
H233	H	1.456487	-0.319148	0.164752
H234	H	1.789820	0.014185	0.498086
H235	H	1.121315	-0.744033	-0.168580
H236	H	1.454649	-0.410699	0.164754
H237	H	1.787982	-0.077366	0.498087
H238	H	1.100527	-0.734401	0.168529
H239	H	1.433861	-0.401068	0.501862
H240	H	1.767194	-0.067734	0.835196
H241	H	1.102344	-0.642865	0.168543
H242	H	1.435677	-0.309531	0.501876
H243	H	1.769010	0.023802	0.835209
H244	H	1.131676	-0.514552	-0.261456
H245	H	1.465010	-0.181219	0.071878
H246	H	1.798343	0.152114	0.405211
H247	H	1.102428	-0.348230	0.261476
H248	H	1.435762	-0.014897	0.594809
H249	H	1.769095	0.318437	0.928142
H250	H	1.104239	-0.256693	0.261478
H251	H	1.437572	0.076641	0.594812
H252	H	1.770906	0.409974	0.928145
H253	H	1.133514	-0.423006	-0.261458
H254	H	1.466847	-0.089672	0.071875
H255	H	1.800180	0.243661	0.405209
H256	H	1.114684	-0.027227	0.168600
H257	H	1.448017	0.306107	0.501934
H258	H	1.781350	0.639440	0.835267
H259	H	1.099412	-0.499617	0.261446
H260	H	1.432745	-0.166284	0.594780
H261	H	1.766079	0.167049	0.928113
H262	H	1.101246	-0.408084	0.261454
H263	H	1.434580	-0.074751	0.594787
H264	H	1.767913	0.258583	0.928120
