data_functionalizedCrystal
_audit_creation_method	'MofGen! by Chris Wilmer'
_symmetry_space_group_name_H-M	'P1'
_symmetry_Int_Tables_number	1
_symmetry_cell_setting	triclinic
loop_
_symmetry_equiv_pos_as_xyz
  x,y,z
_cell_length_a	10.540539
_cell_length_b	10.540510
_cell_length_c	13.596369
_cell_angle_alpha	89.996501
_cell_angle_beta	89.996748
_cell_angle_gamma	84.519401
loop_
_atom_site_label
_atom_site_type_symbol
_atom_site_fract_x
_atom_site_fract_y
_atom_site_fract_z
O1	O	1.685869	0.178905	-0.081739
O2	O	1.316455	0.195761	-0.081751
O3	O	1.509610	0.002624	-0.081744
O4	O	1.492714	0.372042	-0.081746
O5	O	1.509590	0.002614	0.081839
O6	O	1.316435	0.195751	0.081832
O7	O	1.685850	0.178894	0.081844
Zn8	Zn	1.501139	0.187321	0.107810
Zn9	Zn	1.501165	0.187335	-0.107717
O10	O	1.492695	0.372031	0.081837
C11	C	1.269142	0.194492	0.000039
C12	C	1.128194	0.190710	0.000035
C13	C	0.944783	0.045791	0.000417
C14	C	1.091401	0.049624	0.000038
C15	C	1.066526	0.258612	-0.093376
C16	C	0.919982	0.253797	-0.093444
C17	C	0.919471	0.256655	0.092580
C18	C	1.066453	0.257955	0.093805
C19	C	1.508341	-0.044685	0.000045
C20	C	1.504574	-0.185635	0.000039
C21	C	1.638758	-0.403090	0.000418
C22	C	1.642776	-0.256495	0.000044
C23	C	1.433839	-0.230387	-0.093375
C24	C	1.430800	-0.377148	-0.093448
C25	C	1.427900	-0.376969	0.092576
C26	C	1.434455	-0.230628	0.093806
C27	C	1.733163	0.180164	0.000052
C28	C	1.874110	0.183946	0.000050
C29	C	1.493964	0.419340	0.000046
C30	C	1.497731	0.560290	0.000045
N31	N	1.501131	0.187311	0.254902
N32	N	1.501183	0.187335	-0.254809
C33	C	1.501163	0.187336	0.656193
C34	C	1.501151	0.187333	0.544542
C35	C	1.501148	0.187324	0.455551
C36	C	1.501134	0.187320	0.343893
H37	H	0.872002	0.355263	-0.097684
H38	H	1.090667	0.360814	0.099445
N39	N	1.716534	-0.218847	-0.088801
H40	H	1.746554	-0.297526	-0.127878
H41	H	1.659720	-0.158851	-0.131295
N42	N	1.494870	-0.430423	-0.185929
H43	H	1.570408	-0.492240	-0.167813
H44	H	1.432229	-0.476113	-0.225626
N45	N	1.299077	-0.167604	-0.097996
H46	H	1.255419	-0.197753	-0.158617
H47	H	1.250919	-0.190986	-0.037445
H48	H	0.891785	0.203620	-0.163269
N49	N	1.710098	-0.458676	0.089142
H50	H	1.740536	-0.387576	0.130060
H51	H	1.651635	-0.508154	0.129893
H52	H	1.698122	-0.227155	0.067006
H53	H	1.107412	0.208350	0.162910
N54	N	1.300794	-0.165654	0.101271
H55	H	1.258159	-0.196422	0.162152
H56	H	1.304371	-0.070393	0.105393
N57	N	0.904799	-0.027726	-0.087823
H58	H	0.950637	-0.116358	-0.087029
H59	H	0.809752	-0.033485	-0.085471
H60	H	1.692298	-0.446592	-0.066192
H61	H	1.134012	-0.003803	0.066999
H62	H	0.916196	-0.009950	0.067407
H63	H	1.133160	-0.004171	-0.067038
N64	N	1.096129	0.395849	-0.097999
H65	H	1.149929	0.415373	-0.039445
H66	H	1.144245	0.410355	-0.160610
N67	N	0.856909	0.391641	0.093422
H68	H	0.799459	0.405683	0.034191
H69	H	0.804826	0.406328	0.155437
N70	N	1.498938	-0.189536	-0.185459
H71	H	1.452727	-0.218780	-0.245169
H72	H	1.497548	-0.093604	-0.186438
H73	H	1.109127	0.211451	-0.162894
N74	N	1.485758	-0.433187	0.186363
H75	H	1.519643	-0.363594	0.226936
H76	H	1.418525	-0.473740	0.225093
N77	N	1.502615	-0.192731	0.185352
H78	H	1.578598	-0.146607	0.166178
H79	H	1.442414	-0.134708	0.226791
H80	H	1.324136	-0.399119	0.093202
N81	N	0.877689	0.196175	0.186373
H82	H	0.828925	0.121023	0.169829
H83	H	0.955128	0.166299	0.226903
N84	N	1.293888	-0.407622	-0.099082
H85	H	1.235775	-0.325748	-0.101511
H86	H	1.281407	-0.459230	-0.160312
