data_functionalizedCrystal
_audit_creation_method	'MofGen! by Chris Wilmer'
_symmetry_space_group_name_H-M	'P1'
_symmetry_Int_Tables_number	1
_symmetry_cell_setting	triclinic
loop_
_symmetry_equiv_pos_as_xyz
  x,y,z
_cell_length_a	12.594516
_cell_length_b	17.077404
_cell_length_c	17.077396
_cell_angle_alpha	89.978543
_cell_angle_beta	90.023145
_cell_angle_gamma	89.984843
loop_
_atom_site_label
_atom_site_type_symbol
_atom_site_fract_x
_atom_site_fract_y
_atom_site_fract_z
Zn1	Zn	-0.423768	-1.200092	0.443913
Zn2	Zn	0.076232	-0.700092	0.943913
Zn3	Zn	-0.601768	-1.200015	0.312659
Zn4	Zn	-0.101768	-0.700015	0.812659
Zn5	Zn	-0.423801	-1.068824	0.312656
Zn6	Zn	0.076199	-0.568824	0.812656
Zn7	Zn	-0.601702	-1.068807	0.443878
Zn8	Zn	-0.101702	-0.568807	0.943878
O9	O	-0.512760	-1.134434	0.378277
O10	O	-0.012760	-0.634434	0.878277
O11	O	-0.447393	-1.309929	0.426517
O12	O	0.052607	-0.809929	0.926517
O13	O	-0.578203	-1.182586	0.202812
O14	O	-0.078203	-0.682586	0.702812
O15	O	-0.274851	-1.086276	0.330081
O16	O	0.225149	-0.586276	0.830081
O17	O	-0.578170	-1.309872	0.330086
O18	O	-0.078170	-0.809872	0.830086
O19	O	-0.274826	-1.182718	0.426515
O20	O	0.225174	-0.682718	0.926515
O21	O	-0.447451	-1.086201	0.202810
O22	O	0.052549	-0.586201	0.702810
O23	O	-0.447387	-0.958975	0.330047
O24	O	0.052613	-0.458975	0.830047
O25	O	-0.578056	-1.086248	0.553730
O26	O	-0.078056	-0.586248	1.053730
O27	O	-0.578089	-0.958963	0.426456
O28	O	-0.078089	-0.458963	0.926456
O29	O	-0.447329	-1.182702	0.553755
O30	O	0.052671	-0.682702	1.053755
O31	O	-0.750705	-1.182571	0.330052
O32	O	-0.250705	-0.682571	0.830052
O33	O	-0.750656	-1.086173	0.426458
O34	O	-0.250656	-0.586173	0.926458
C35	C	-0.512735	-0.930487	0.378248
C36	C	-0.012735	-0.430487	0.878248
C37	C	-0.512750	-0.843237	0.378254
C38	C	-0.012750	-0.343237	0.878254
C39	C	-0.789301	-1.134383	0.378269
C40	C	-0.289301	-0.634383	0.878269
C41	C	-0.907606	-1.134433	0.378292
C42	C	-0.407606	-0.634433	0.878292
C43	C	-0.580908	-0.802261	0.428372
C44	C	-0.080908	-0.302261	0.928372
C45	C	-0.580909	-0.720280	0.428382
C46	C	-0.080909	-0.220280	0.928382
C47	C	-0.512755	-0.679277	0.378269
C48	C	-0.012755	-0.179277	0.878269
C49	C	-0.444589	-0.720259	0.328149
C50	C	0.055411	-0.220259	0.828149
C51	C	-0.444584	-0.802238	0.328144
C52	C	0.055416	-0.302238	0.828144
C53	C	-0.444605	-0.549389	0.328162
C54	C	0.055395	-0.049389	0.828162
C55	C	-0.444611	-0.467404	0.328166
C56	C	0.055389	0.032596	0.828166
C57	C	-0.580930	-0.467431	0.428400
C58	C	-0.080930	0.032569	0.928400
C59	C	-0.580925	-0.549410	0.428395
C60	C	-0.080925	-0.049410	0.928395
C61	C	-0.512760	-0.590386	0.378274
C62	C	-0.012760	-0.090386	0.878274
C63	C	-0.976871	-1.081997	0.430690
C64	C	-0.476871	-0.581997	0.930690
C65	C	-1.047731	-1.062873	0.359062
C66	C	-0.547731	-0.562873	0.859062
C67	C	-1.047545	-1.153628	0.449933
C68	C	-0.547545	-0.653628	0.949933
C69	C	-0.976908	-1.115271	0.306625
C70	C	-0.476908	-0.615271	0.806625
C71	C	-0.976716	-1.206059	0.397544
C72	C	-0.476716	-0.706059	0.897544
C73	C	-1.047543	-1.186963	0.325867
C74	C	-0.547543	-0.686963	0.825867
C75	C	-0.235139	-1.134507	0.378301
C76	C	0.264861	-0.634507	0.878301
C77	C	-0.116833	-1.134539	0.378312
C78	C	0.383167	-0.634539	0.878312
C79	C	-0.512681	-1.134482	0.583021
C80	C	-0.012681	-0.634482	1.083021
C81	C	-0.512648	-1.134502	0.670271
C82	C	-0.012648	-0.634502	1.170271
C83	C	-0.512779	-0.339179	0.378297
C84	C	-0.012779	0.160821	0.878297
C85	C	-0.512770	-0.426428	0.378284
C86	C	-0.012770	0.073572	0.878284
C87	C	-0.512761	-1.134432	0.174329
C88	C	-0.012761	-0.634432	0.674329
C89	C	-0.512495	-1.134564	0.087079
C90	C	-0.012495	-0.634564	0.587079
C91	C	-0.444572	-1.184728	0.711275
C92	C	0.055428	-0.684728	1.211275
C93	C	-0.444537	-1.184737	0.793256
C94	C	0.055463	-0.684737	1.293256
C95	C	-0.512583	-1.134524	0.834230
C96	C	-0.012583	-0.634524	1.334230
C97	C	-0.580662	-1.084293	0.793220
C98	C	-0.080662	-0.584293	1.293220
C99	C	-0.580691	-1.084281	0.711241
C100	C	-0.080691	-0.584281	1.211241
C101	C	-0.580598	-1.084325	0.964090
C102	C	-0.080598	-0.584325	1.464090
C103	C	-0.580570	-1.084339	1.046075
C104	C	-0.080570	-0.584339	1.546075
C105	C	-0.444444	-1.184782	1.046105
C106	C	0.055556	-0.684782	1.546105
C107	C	-0.444473	-1.184769	0.964126
C108	C	0.055527	-0.684769	1.464126
C109	C	-0.512553	-1.134538	0.923121
C110	C	-0.012553	-0.634538	1.423121
H111	H	-0.636411	-0.835640	0.469177
H112	H	-0.136411	-0.335640	0.969177
H113	H	-0.636428	-0.582793	0.469197
H114	H	-0.136428	-0.082793	0.969197
H115	H	-1.078948	-1.002349	0.342794
H116	H	-0.578948	-0.502349	0.842794
N117	N	-0.374992	-1.236046	0.835129
N118	N	0.125008	-0.736046	1.335129
N119	N	-0.314248	-1.280879	0.798536
N120	N	0.185752	-0.780879	1.298536
H121	H	-0.265129	-1.317119	0.828107
H122	H	0.234871	-0.817119	1.328107
H123	H	-0.389089	-0.582749	0.287355
H124	H	0.110911	-0.082749	0.787355
N125	N	-0.650525	-0.678408	0.479567
N126	N	-0.150525	-0.178408	0.979567
N127	N	-0.613173	-0.632688	0.529637
N128	N	-0.113173	-0.132688	1.029637
H129	H	-0.662342	-0.603112	0.565787
H130	H	-0.162342	-0.103112	1.065787
N131	N	-0.937949	-1.026266	0.486196
N132	N	-0.437949	-0.526266	0.986196
N133	N	-0.960760	-0.955396	0.478915
N134	N	-0.460760	-0.455396	0.978915
H135	H	-0.933271	-0.916034	0.518112
H136	H	-0.433271	-0.416034	1.018112
H137	H	-0.636114	-1.043374	0.677856
H138	H	-0.136114	-0.543374	1.177856
H139	H	-0.635977	-1.043449	1.079434
H140	H	-0.135977	-0.543449	1.579434
N141	N	-0.650564	-0.425568	0.479586
N142	N	-0.150564	0.074432	0.979586
N143	N	-0.650565	-0.352373	0.479583
N144	N	-0.150565	0.147627	0.979583
H145	H	-0.699748	-0.322803	0.515727
H146	H	-0.199748	0.177197	1.015727
N147	N	-0.374881	-1.236078	1.087985
N148	N	0.125119	-0.736078	1.587985
N149	N	-0.276669	-1.230898	1.078833
N150	N	0.223331	-0.730898	1.578833
H151	H	-0.227543	-1.267127	1.108413
H152	H	0.272457	-0.767127	1.608413
N153	N	-0.650159	-1.033029	0.922205
N154	N	-0.150159	-0.533029	1.422205
N155	N	-0.718005	-1.060629	0.876464
N156	N	-0.218005	-0.560629	1.376464
H157	H	-0.767137	-1.024406	0.846882
H158	H	-0.267137	-0.524406	1.346882
H159	H	-0.389102	-0.434022	0.287370
H160	H	0.110898	0.065978	0.787370
H161	H	-1.078574	-1.169821	0.510510
H162	H	-0.578574	-0.669821	1.010510
N163	N	-0.937526	-1.281958	0.418003
N164	N	-0.437526	-0.781958	0.918003
N165	N	-0.839733	-1.294176	0.420694
N166	N	-0.339733	-0.794176	0.920694
H167	H	-0.812050	-1.347779	0.435152
H168	H	-0.312050	-0.847779	0.935152
N169	N	-0.375064	-1.236030	0.669437
N170	N	0.124936	-0.736030	1.169437
N171	N	-0.314286	-1.280869	0.706062
N172	N	0.185714	-0.780869	1.206062
H173	H	-0.265190	-1.317102	0.676517
H174	H	0.234810	-0.817102	1.176517
N175	N	-0.650163	-1.032987	0.835059
N176	N	-0.150163	-0.532987	1.335059
N177	N	-0.710928	-0.988137	0.798435
N178	N	-0.210928	-0.488137	1.298435
H179	H	-0.760011	-0.951895	0.827982
H180	H	-0.260011	-0.451895	1.327982
N181	N	-0.374955	-0.678377	0.276972
N182	N	0.125045	-0.178377	0.776972
N183	N	-0.307181	-0.632656	0.304679
N184	N	0.192819	-0.132656	0.804679
H185	H	-0.258000	-0.603078	0.268533
H186	H	0.242000	-0.103078	0.768533
N187	N	-0.938145	-1.094847	0.230617
N188	N	-0.438145	-0.594847	0.730617
N189	N	-0.880908	-1.035673	0.222083
N190	N	-0.380908	-0.535673	0.722083
H191	H	-0.853531	-1.021241	0.168404
H192	H	-0.353531	-0.521241	0.668404
N193	N	-0.374945	-0.844084	0.276952
N194	N	0.125055	-0.344084	0.776952
N195	N	-0.314093	-0.807468	0.232215
N196	N	0.185907	-0.307468	0.732215
H197	H	-0.264902	-0.837020	0.196063
H198	H	0.235098	-0.337020	0.696063
H199	H	-1.078379	-1.231351	0.281513
H200	H	-0.578379	-0.731351	0.781513
H201	H	-0.389070	-1.225661	0.930767
H202	H	0.110930	-0.725661	1.430767
