data_functionalizedCrystal
_audit_creation_method	'MofGen! by Chris Wilmer'
_symmetry_space_group_name_H-M	'P1'
_symmetry_Int_Tables_number	1
_symmetry_cell_setting	triclinic
loop_
_symmetry_equiv_pos_as_xyz
  x,y,z
_cell_length_a	16.120530
_cell_length_b	18.050589
_cell_length_c	16.120256
_cell_angle_alpha	92.877403
_cell_angle_beta	90.128265
_cell_angle_gamma	87.123928
loop_
_atom_site_label
_atom_site_type_symbol
_atom_site_fract_x
_atom_site_fract_y
_atom_site_fract_z
Zn1	Zn	1.247404	-0.376262	-0.534589
Zn2	Zn	1.254344	-0.494483	-0.395538
Zn3	Zn	1.115396	-0.363709	-0.388506
Zn4	Zn	1.108300	-0.493803	-0.527508
O5	O	1.181361	-0.432065	-0.461535
O6	O	1.364690	-0.397483	-0.522050
O7	O	1.241786	-0.472167	-0.278239
O8	O	1.132972	-0.261454	-0.407905
O9	O	1.369789	-0.484340	-0.419890
O10	O	1.229958	-0.270677	-0.515232
O11	O	1.139701	-0.376088	-0.273073
O12	O	0.998089	-0.375428	-0.401038
O13	O	1.120879	-0.483180	-0.644814
O14	O	0.992875	-0.471007	-0.503162
O15	O	1.223078	-0.396823	-0.650016
O16	O	1.234905	-0.598314	-0.413024
O17	O	1.127608	-0.597814	-0.509981
C18	C	0.965310	-0.421782	-0.450569
C19	C	0.872881	-0.417402	-0.445898
C20	C	0.703652	-0.409388	-0.437376
C21	C	0.659907	-0.454798	-0.485756
C22	C	0.565742	-0.450339	-0.481014
C23	C	0.797826	-0.413846	-0.442116
C24	C	1.181261	-0.625011	-0.461516
C25	C	1.181293	-0.707560	-0.461540
C26	C	1.123000	-0.906767	-0.514249
C27	C	1.106577	-0.951987	-0.437343
C28	C	1.181374	-0.858694	-0.461555
C29	C	1.197838	-0.960558	-0.538472
C30	C	1.181451	-1.004684	-0.461576
C31	C	1.164914	-0.902823	-0.384607
C32	C	1.256206	-0.911394	-0.485789
C33	C	1.239815	-0.956591	-0.408832
C34	C	1.181328	-0.774593	-0.461544
C35	C	1.181498	-1.088783	-0.461579
C36	C	1.398256	-0.442388	-0.472545
C37	C	1.490683	-0.446787	-0.477236
C38	C	1.170413	-0.441326	-0.678431
C39	C	1.165747	-0.445273	-0.770859
C40	C	1.181483	-0.238366	-0.461574
C41	C	1.181535	-0.155823	-0.461590
C42	C	1.205689	-0.411464	-0.983841
C43	C	1.157201	-0.452447	-0.940079
C44	C	1.161958	-0.448454	-0.845916
C45	C	1.200934	-0.415455	-1.078013
C46	C	1.192314	-0.422788	-0.245486
C47	C	1.197141	-0.418639	-0.153067
H48	H	1.043330	-0.969982	-0.416864
C49	C	0.704844	-0.511861	-0.546497
H50	H	0.763157	-0.507422	-0.541743
H51	H	0.687871	-0.502822	-0.601699
H52	H	0.691241	-0.560553	-0.533502
C53	C	1.056233	-0.877211	-0.574356
H54	H	1.081885	-0.851273	-0.616420
H55	H	1.017619	-0.844484	-0.544612
H56	H	1.028011	-0.917649	-0.599129
C57	C	1.146035	-0.868874	-0.296717
H58	H	1.146092	-0.816271	-0.297252
H59	H	1.187279	-0.886321	-0.259247
H60	H	1.093071	-0.883077	-0.279438
H61	H	1.112113	-0.490527	-0.973333
H62	H	0.670386	-0.367167	-0.392399
C63	C	1.306547	-0.985956	-0.348577
H64	H	1.294741	-0.965987	-0.293987
H65	H	1.359540	-0.971394	-0.365316
H66	H	1.306515	-1.038611	-0.349242
C67	C	1.341641	-0.887111	-0.513486
H68	H	1.353233	-0.906961	-0.568165
H69	H	1.383225	-0.904959	-0.476606
H70	H	1.341170	-0.834434	-0.512789
C71	C	1.266597	-0.360024	-0.938925
H72	H	1.261847	-0.364065	-0.880612
H73	H	1.253768	-0.310135	-0.952482
H74	H	1.321760	-0.374153	-0.955954
H75	H	1.211732	-0.985778	-0.603511
