data_functionalizedCrystal
_audit_creation_method	'MofGen! by Chris Wilmer'
_symmetry_space_group_name_H-M	'P1'
_symmetry_Int_Tables_number	1
_symmetry_cell_setting	triclinic
loop_
_symmetry_equiv_pos_as_xyz
  x,y,z
_cell_length_a	14.519709
_cell_length_b	19.188930
_cell_length_c	13.596369
_cell_angle_alpha	89.988893
_cell_angle_beta	90.000291
_cell_angle_gamma	83.412464
loop_
_atom_site_label
_atom_site_type_symbol
_atom_site_fract_x
_atom_site_fract_y
_atom_site_fract_z
O1	O	1.223300	0.091524	-0.081675
O2	O	1.723300	0.591524	0.418325
O3	O	0.954756	0.102302	-0.081706
O4	O	1.454756	0.602302	0.418294
O5	O	1.096778	-0.004715	-0.081670
O6	O	1.596778	0.495285	0.418330
O7	O	1.081278	0.198542	-0.081711
O8	O	1.581278	0.698542	0.418289
O9	O	1.096763	-0.004720	0.081912
O10	O	1.596763	0.495280	0.581912
O11	O	0.954742	0.102297	0.081877
O12	O	1.454742	0.602297	0.581877
O13	O	1.223286	0.091519	0.081908
O14	O	1.723286	0.591519	0.581908
Zn15	Zn	1.089012	0.096907	0.107865
Zn16	Zn	1.589012	0.596907	0.607865
Zn17	Zn	1.089030	0.096914	-0.107663
Zn18	Zn	1.589030	0.596914	0.392337
O19	O	1.081264	0.198536	0.081872
O20	O	1.581264	0.698536	0.581872
C21	C	0.920392	0.101797	0.000081
C22	C	1.420392	0.601797	0.500081
C23	C	0.818020	0.100292	0.000070
C24	C	1.318020	0.600292	0.500070
C25	C	0.443159	0.094751	0.000116
C26	C	0.943159	0.594751	0.500116
C27	C	0.547457	0.096290	0.000103
C28	C	1.047457	0.596290	0.500103
C29	C	0.630586	0.097521	0.000092
C30	C	1.130586	0.597521	0.500092
C31	C	0.734891	0.099060	0.000081
C32	C	1.234891	0.599060	0.500081
C33	C	1.096269	-0.030730	0.000124
C34	C	1.596269	0.469270	0.500124
C35	C	1.094762	-0.108240	0.000132
C36	C	1.594762	0.391760	0.500132
C37	C	1.178095	-0.152867	0.000146
C38	C	1.678095	0.347133	0.500146
C39	C	1.176680	-0.225696	0.000131
C40	C	1.676680	0.274304	0.500131
C41	C	1.091926	-0.253895	0.000120
C42	C	1.591926	0.246105	0.500120
C43	C	1.008582	-0.209257	0.000100
C44	C	1.508582	0.290743	0.500100
C45	C	1.009999	-0.136430	0.000106
C46	C	1.509999	0.363570	0.500106
N47	N	1.027137	-0.362132	0.055783
N48	N	1.527137	0.137868	0.555783
N49	N	1.025796	-0.431316	0.055779
N50	N	1.525796	0.068684	0.555779
C51	C	1.087649	-0.473318	0.000100
C52	C	1.587649	0.026682	0.500100
N53	N	1.150908	-0.443526	-0.055564
N54	N	1.650908	0.056474	0.444436
N55	N	1.152252	-0.374336	-0.055556
N56	N	1.652252	0.125664	0.444444
C57	C	1.090379	-0.332863	0.000113
C58	C	1.590379	0.167137	0.500113
C59	C	1.169454	-0.596916	0.000095
C60	C	1.669454	-0.096916	0.500095
C61	C	1.168035	-0.669745	0.000073
C62	C	1.668035	-0.169745	0.500073
C63	C	0.999934	-0.653305	0.000053
C64	C	1.499934	-0.153305	0.500053
C65	C	1.001355	-0.580477	0.000065
C66	C	1.501355	-0.080477	0.500065
C67	C	1.086118	-0.552287	0.000091
C68	C	1.586118	-0.052287	0.500091
C69	C	1.257649	0.092024	0.000118
C70	C	1.757649	0.592024	0.500118
C71	C	1.360021	0.093529	0.000123
C72	C	1.860021	0.593529	0.500123
C73	C	1.081773	0.224551	0.000076
C74	C	1.581773	0.724551	0.500076
C75	C	1.083280	0.302061	0.000061
C76	C	1.583280	0.802061	0.500061
N77	N	1.089006	0.096901	0.254956
N78	N	1.589006	0.596901	0.754956
N79	N	1.089043	0.096914	-0.254755
N80	N	1.589043	0.596914	0.245245
C81	C	1.089029	0.096915	0.656247
C82	C	1.589029	0.596915	1.156247
C83	C	1.089020	0.096914	0.544596
C84	C	1.589020	0.596914	1.044596
C85	C	1.089018	0.096909	0.455605
C86	C	1.589018	0.596909	0.955605
C87	C	1.089008	0.096906	0.343947
C88	C	1.589008	0.596906	0.843947
H89	H	1.247116	-0.129920	0.000164
H90	H	1.747116	0.370080	0.500164
C91	C	0.867164	-0.099982	-0.084002
C92	C	1.367164	0.400018	0.415998
C93	C	0.918391	-0.087372	0.000097
C94	C	1.418391	0.412628	0.500097
H95	H	0.810606	-0.069698	-0.084001
H96	H	1.310606	0.430302	0.415999
H97	H	0.901935	-0.091408	-0.141030
H98	H	1.401935	0.408592	0.358970
H99	H	0.854197	-0.147393	-0.084001
H100	H	1.354197	0.352607	0.415999
H101	H	0.931365	-0.039963	0.000093
H102	H	1.431365	0.460037	0.500093
H103	H	0.883613	-0.095941	0.057139
H104	H	1.383613	0.404059	0.557139
H105	H	1.238472	-0.573962	0.000112
H106	H	1.738472	-0.073962	0.500112
C107	C	0.833920	-0.629735	0.000029
C108	C	1.333920	-0.129735	0.500029
C109	C	0.906768	-0.684291	0.000037
C110	C	1.406768	-0.184291	0.500037
H111	H	0.776403	-0.648869	0.000010
H112	H	1.276403	-0.148869	0.500010
H113	H	0.837963	-0.601685	0.057075
H114	H	1.337963	-0.101685	0.557075
H115	H	0.837983	-0.601660	-0.057015
H116	H	1.337983	-0.101660	0.442985
H117	H	0.902709	-0.712364	0.057085
H118	H	1.402709	-0.212364	0.557085
H119	H	0.902724	-0.712353	-0.057015
H120	H	1.402724	-0.212353	0.442985
H121	H	1.235898	-0.706081	0.000080
H122	H	1.735898	-0.206081	0.500080
H123	H	1.244542	-0.262039	0.000138
H124	H	1.744542	0.237961	0.500138
C125	C	0.864855	-0.217678	0.084169
C126	C	1.364855	0.282322	0.584169
C127	C	0.915416	-0.240247	0.000087
C128	C	1.415416	0.259753	0.500087
H129	H	0.807335	-0.236806	0.084151
H130	H	1.307335	0.263194	0.584151
H131	H	0.899147	-0.233003	0.141208
H132	H	1.399147	0.266997	0.641208
H133	H	0.853781	-0.167916	0.084158
H134	H	1.353781	0.332084	0.584158
H135	H	0.926496	-0.290009	0.000102
H136	H	1.426496	0.209991	0.500102
H137	H	0.881117	-0.224926	-0.056967
H138	H	1.381117	0.275074	0.443033
C139	C	0.905437	-0.489031	-0.084033
C140	C	1.405437	0.010969	0.415967
C141	C	0.909749	-0.531419	0.000058
C142	C	1.409749	-0.031419	0.500058
H143	H	0.848877	-0.458749	-0.084041
H144	H	1.348877	0.041251	0.415959
H145	H	0.956109	-0.461818	-0.084015
H146	H	1.456109	0.038182	0.415985
H147	H	0.908386	-0.517782	-0.141072
H148	H	1.408386	-0.017782	0.358928
H149	H	0.906808	-0.502668	0.057098
H150	H	1.406808	-0.002668	0.557098
H151	H	0.859063	-0.558635	0.000050
H152	H	1.359063	-0.058635	0.500050
