data_functionalizedCrystal
_audit_creation_method	'MofGen! by Chris Wilmer'
_symmetry_space_group_name_H-M	'P1'
_symmetry_Int_Tables_number	1
_symmetry_cell_setting	triclinic
loop_
_symmetry_equiv_pos_as_xyz
  x,y,z
_cell_length_a	12.594517
_cell_length_b	12.594516
_cell_length_c	12.759387
_cell_angle_alpha	89.971510
_cell_angle_beta	89.975904
_cell_angle_gamma	90.015485
loop_
_atom_site_label
_atom_site_type_symbol
_atom_site_fract_x
_atom_site_fract_y
_atom_site_fract_z
Zn1	Zn	1.627287	-0.423702	-0.594122
Zn2	Zn	1.627172	-0.601719	-0.418450
Zn3	Zn	1.449285	-0.423754	-0.418448
Zn4	Zn	1.449273	-0.601637	-0.594078
O5	O	1.538254	-0.512703	-0.506275
O6	O	1.776217	-0.447329	-0.570838
O7	O	1.603532	-0.578168	-0.271429
O8	O	1.472950	-0.274801	-0.441770
O9	O	1.776133	-0.578118	-0.441773
O10	O	1.603728	-0.274763	-0.570837
O11	O	1.472839	-0.447417	-0.271427
O12	O	1.300337	-0.447337	-0.441727
O13	O	1.472930	-0.577978	-0.741105
O14	O	1.300329	-0.578028	-0.570761
O15	O	1.603716	-0.447250	-0.741138
O16	O	1.603520	-0.750654	-0.441730
O17	O	1.472818	-0.750594	-0.570763
C18	C	1.261713	-0.512680	-0.506240
C19	C	1.143408	-0.512696	-0.506249
C20	C	1.003365	-0.441535	-0.436228
C21	C	1.074227	-0.415598	-0.532098
C22	C	1.074117	-0.538585	-0.410390
C23	C	1.003484	-0.486750	-0.602247
C24	C	1.003368	-0.609782	-0.480474
C25	C	1.074198	-0.583882	-0.576410
C26	C	1.538184	-0.789244	-0.506264
C27	C	1.538252	-0.907549	-0.506295
C28	C	1.467156	-0.976808	-0.576427
C29	C	1.441220	-1.047677	-0.480558
C30	C	1.564285	-1.047479	-0.602180
C31	C	1.512264	-0.976860	-0.410376
C32	C	1.635375	-0.976656	-0.532062
C33	C	1.609475	-1.047493	-0.436128
C34	C	1.815875	-0.512727	-0.506311
C35	C	1.934180	-0.512737	-0.506326
C36	C	1.538334	-0.512599	-0.780308
C37	C	1.538369	-0.512554	-0.897085
C38	C	1.538353	-0.235082	-0.506308
C39	C	1.538395	-0.116777	-0.506322
C40	C	1.674565	-0.376436	-0.897139
C41	C	1.742679	-0.308361	-0.952027
C42	C	1.742705	-0.308322	-1.061748
C43	C	1.674608	-0.376363	-1.116585
C44	C	1.606494	-0.444439	-1.061697
C45	C	1.606478	-0.444472	-0.951973
C46	C	1.470294	-0.580550	-1.061643
C47	C	1.470272	-0.580596	-0.951922
C48	C	1.402197	-0.648591	-1.116480
C49	C	1.334088	-0.716673	-1.061592
C50	C	1.334065	-0.716710	-0.951864
C51	C	1.402159	-0.648671	-0.897034
C52	C	1.538235	-0.512730	-0.233307
C53	C	1.538407	-0.512475	-0.116531
H54	H	1.105102	-0.644078	-0.635725
H55	H	0.972267	-0.381294	-0.377054
N56	N	1.812220	-0.238847	-0.896011
N57	N	1.774788	-0.171035	-0.834791
H58	H	1.823898	-0.121937	-0.795232
N59	N	1.402244	-0.648546	-1.228557
N60	N	1.485274	-0.670794	-1.277539
H61	H	1.485310	-0.670764	-1.356696
N62	N	1.591829	-1.086416	-0.703884
N63	N	1.528488	-1.144496	-0.752853
H64	H	1.547931	-1.171995	-0.824683
N65	N	1.674646	-0.376334	-1.228662
N66	N	1.696872	-0.459345	-1.277629
H67	H	1.696900	-0.459327	-1.356785
H68	H	1.278643	-0.772061	-1.106249
N69	N	1.113298	-0.312630	-0.559489
N70	N	1.211072	-0.296351	-0.564591
H71	H	1.238666	-0.223628	-0.583930
N72	N	0.964738	-0.459205	-0.704026
N73	N	0.907396	-0.522868	-0.753433
H74	H	0.880031	-0.503416	-0.825315
H75	H	1.717424	-0.945440	-0.553880
H76	H	1.278587	-0.772134	-0.907181
N77	N	1.402140	-0.648684	-0.784957
N78	N	1.379926	-0.565661	-0.736002
H79	H	1.379912	-0.565664	-0.656846
N80	N	1.391622	-0.937858	-0.650735
N81	N	1.400315	-0.961747	-0.745423
H82	H	1.346969	-0.934236	-0.797901
N83	N	0.964301	-0.712730	-0.453032
N84	N	0.986868	-0.752257	-0.365969
H85	H	0.959276	-0.824966	-0.346577
H86	H	1.105148	-0.560464	-0.329290
H87	H	1.674561	-0.376471	-0.807798
H88	H	1.359152	-1.078897	-0.458787
N89	N	1.484564	-0.938107	-0.308646
N90	N	1.404327	-0.880872	-0.297224
H91	H	1.384754	-0.853502	-0.225380
N92	N	1.684972	-1.086177	-0.361649
N93	N	1.675261	-1.063339	-0.266804
H94	H	1.728577	-1.090661	-0.214200
N95	N	1.812274	-0.238769	-1.117804
N96	N	1.873060	-0.178017	-1.068839
H97	H	1.922193	-0.128892	-1.108427
