data_functionalizedCrystal
_audit_creation_method	'MofGen! by Chris Wilmer'
_symmetry_space_group_name_H-M	'P1'
_symmetry_Int_Tables_number	1
_symmetry_cell_setting	triclinic
loop_
_symmetry_equiv_pos_as_xyz
  x,y,z
_cell_length_a	11.792254
_cell_length_b	11.792241
_cell_length_c	10.868271
_cell_angle_alpha	89.994263
_cell_angle_beta	90.000615
_cell_angle_gamma	95.803993
loop_
_atom_site_label
_atom_site_type_symbol
_atom_site_fract_x
_atom_site_fract_y
_atom_site_fract_z
O1	O	1.506894	-0.155638	0.102322
O2	O	1.840227	0.177695	0.435655
O3	O	2.173560	0.511028	0.768988
O4	O	1.176555	-0.171656	0.102324
O5	O	1.509888	0.161677	0.435658
O6	O	1.843221	0.495010	0.768991
O7	O	1.349741	0.001523	0.102314
O8	O	1.683074	0.334856	0.435648
O9	O	2.016407	0.668190	0.768981
O10	O	1.333708	-0.328817	0.102332
O11	O	1.667041	0.004516	0.435665
O12	O	2.000374	0.337849	0.768998
O13	O	1.349738	0.001532	-0.102330
O14	O	1.683072	0.334866	0.231003
O15	O	2.016405	0.668199	0.564336
O16	O	1.176552	-0.171647	-0.102320
O17	O	1.509886	0.161687	0.231013
O18	O	1.843219	0.495020	0.564347
O19	O	1.506892	-0.155629	-0.102323
O20	O	1.840225	0.177705	0.231010
O21	O	2.173558	0.511038	0.564344
Zn22	Zn	1.341722	-0.163636	-0.134813
Zn23	Zn	1.675055	0.169697	0.198520
Zn24	Zn	2.008388	0.503030	0.531853
Zn25	Zn	1.341724	-0.163649	0.134815
Zn26	Zn	1.675058	0.169685	0.468148
Zn27	Zn	2.008391	0.503018	0.801482
O28	O	1.333706	-0.328808	-0.102313
O29	O	1.667039	0.004525	0.231020
O30	O	2.000372	0.337859	0.564354
C31	C	1.134263	-0.170642	0.000002
C32	C	1.467596	0.162691	0.333336
C33	C	1.800929	0.496024	0.666669
C34	C	1.008250	-0.167622	0.000003
C35	C	1.341583	0.165711	0.333337
C36	C	1.674916	0.499044	0.666670
C37	C	0.905913	-0.165168	0.000008
C38	C	1.239247	0.168165	0.333342
C39	C	1.572580	0.501498	0.666675
C40	C	0.777527	-0.162100	0.000009
C41	C	1.110860	0.171233	0.333342
C42	C	1.444193	0.504567	0.666676
C43	C	1.348732	0.043819	-0.000008
C44	C	1.682066	0.377152	0.333326
C45	C	2.015399	0.710485	0.666659
C46	C	1.345718	0.169832	-0.000006
C47	C	1.679051	0.503166	0.333327
C48	C	2.012385	0.836499	0.666660
C49	C	1.549183	-0.156643	0.000002
C50	C	1.882517	0.176691	0.333335
C51	C	2.215850	0.510024	0.666669
C52	C	1.675196	-0.159663	0.000009
C53	C	2.008530	0.173671	0.333342
C54	C	2.341863	0.507004	0.666676
C55	C	1.334714	-0.371104	0.000012
C56	C	1.668047	-0.037770	0.333345
C57	C	2.001380	0.295563	0.666678
C58	C	1.337728	-0.497118	0.000019
C59	C	1.671061	-0.163784	0.333352
C60	C	2.004395	0.169549	0.666685
N61	N	1.341728	-0.163627	-0.318827
N62	N	1.675061	0.169706	0.014506
N63	N	2.008395	0.503040	0.347839
C64	C	1.340175	0.400545	0.000014
C65	C	1.673508	0.733878	0.333348
C66	C	2.006842	1.067212	0.666681
C67	C	1.343255	0.272160	0.000003
C68	C	1.676588	0.605493	0.333336
C69	C	2.009921	0.938826	0.666670
N70	N	1.341727	-0.163649	0.318829
N71	N	1.675060	0.169684	0.652162
N72	N	2.008394	0.503018	0.985496
C73	C	1.341724	-0.163642	0.569835
C74	C	1.675057	0.169691	0.903168
C75	C	2.008390	0.503025	1.236502
C76	C	1.341722	-0.163650	0.430157
C77	C	1.675056	0.169684	0.763491
C78	C	2.008389	0.503017	1.096824
