data_functionalizedCrystal
_audit_creation_method	'MofGen! by Chris Wilmer'
_symmetry_space_group_name_H-M	'P1'
_symmetry_Int_Tables_number	1
_symmetry_cell_setting	triclinic
loop_
_symmetry_equiv_pos_as_xyz
  x,y,z
_cell_length_a	20.875641
_cell_length_b	12.970454
_cell_length_c	12.970454
_cell_angle_alpha	59.999644
_cell_angle_beta	89.999100
_cell_angle_gamma	57.589518
loop_
_atom_site_label
_atom_site_type_symbol
_atom_site_fract_x
_atom_site_fract_y
_atom_site_fract_z
Zr1	Zr	0.641476	1.052852	-0.097489
O2	O	0.535152	1.280486	-0.268382
O3	O	0.674070	0.833916	-0.045100
O4	O	0.674069	1.049008	-0.260192
O5	O	0.535153	1.065393	0.116377
O6	O	0.783650	1.036081	-0.253732
O7	O	0.535153	1.065394	-0.053290
O8	O	0.783651	0.651321	0.131029
O9	O	0.535152	1.450153	-0.268383
O10	O	0.769750	0.911099	-0.017936
O11	O	0.687971	0.920745	0.103864
O12	O	0.687971	1.173988	-0.149380
O13	O	0.606192	1.183634	-0.027580
Zr14	Zr	0.816245	1.032234	0.183415
Zr15	Zr	0.816244	1.032236	-0.087185
Zr16	Zr	0.641477	1.052850	0.173111
Zr17	Zr	0.641476	1.323452	-0.097490
Zr18	Zr	0.816245	0.761634	0.183416
O19	O	0.783651	1.251170	0.131026
O20	O	0.783650	1.251172	-0.253733
O21	O	0.535153	1.280484	0.116376
O22	O	0.922569	0.804600	0.354308
O23	O	0.922568	0.804602	-0.030450
O24	O	0.674071	0.833914	0.339659
O25	O	0.922568	1.019693	-0.030451
O26	O	0.783652	1.036078	0.346118
O27	O	0.674071	1.049005	0.339658
O28	O	0.922568	1.019692	0.139216
O29	O	0.674069	1.433766	-0.260194
O30	O	0.783651	0.651320	0.346120
O31	O	0.922569	0.634933	0.354309
O32	O	0.922568	0.634934	0.139218
O33	O	0.535153	1.450152	-0.053292
O34	O	0.674070	1.433765	-0.045103
O35	O	0.769750	0.911098	0.235306
O36	O	0.851529	0.901452	0.113506
O37	O	0.769750	1.164341	-0.017938
O38	O	0.687971	1.173987	0.103862
C39	C	0.728860	0.704064	0.042965
C40	C	0.728860	0.589187	0.042965
C41	C	0.510252	1.068331	0.030075
C42	C	0.436058	1.077083	0.025701
C43	C	0.443888	0.943972	0.092252
C44	C	0.374172	0.952205	0.088139
C45	C	0.296628	1.093549	0.017468
C46	C	0.288800	1.226669	-0.049085
C47	C	0.358515	1.218435	-0.044964
C48	C	0.083550	1.132890	-0.002207
C49	C	0.013833	1.141114	-0.006326
C50	C	0.099210	0.866648	0.130901
C51	C	0.168922	0.858427	0.135009
C52	C	0.161089	0.991547	0.068462
N53	N	0.225366	1.101967	0.013259
N54	N	0.232350	0.983127	0.072679
C55	C	0.947469	1.016756	0.055851
C56	C	1.021662	1.008003	0.060225
C57	C	0.728859	1.042545	-0.295516
C58	C	0.728859	1.042545	-0.410393
C59	C	0.728860	1.381022	0.042961
C60	C	0.728860	1.495899	0.042961
C61	C	0.728861	1.042541	0.381442
C62	C	0.728862	1.042541	0.496319
C63	C	0.947469	0.678276	0.055852
C64	C	1.021662	0.554647	0.060227
C65	C	0.728861	0.704062	0.381444
C66	C	0.728862	0.589185	0.496321
C67	C	0.947470	0.678274	0.394332
C68	C	1.021664	0.554645	0.513583
C69	C	0.510251	1.406812	-0.308406
C70	C	0.436057	1.530441	-0.427657
C71	C	0.510252	1.406810	0.030074
C72	C	0.436058	1.530439	0.025699
C73	C	0.728859	1.381024	-0.295518
C74	C	0.728859	1.495901	-0.410395
C75	C	1.013817	0.501626	-0.006341
C76	C	1.083523	0.385479	-0.002257
C77	C	1.161074	0.322349	0.068404
C78	C	1.168918	0.375381	0.134975
C79	C	1.099213	0.491533	0.130882
C80	C	1.099201	0.491551	0.506007
C81	C	1.168920	0.375403	0.618046
C82	C	1.161101	0.322342	0.737660
C83	C	1.083556	0.385448	0.745234
C84	C	1.013838	0.501602	0.633196
C85	C	0.358520	1.593548	-0.420081
C86	C	0.288800	1.709730	-0.532120
C87	C	0.296619	1.762796	-0.651734
C88	C	0.374165	1.699684	-0.659308
C89	C	0.443883	1.583511	-0.547270
C90	C	0.443904	1.583471	0.092256
C91	C	0.374198	1.699648	0.088142
C92	C	0.296647	1.762782	0.017477
C93	C	0.288803	1.709745	-0.049088
C94	C	0.358508	1.593578	-0.044981
H95	H	0.507024	0.828874	0.149806
H96	H	0.950707	0.552959	0.639382
C97	C	0.254220	0.702945	0.212760
C98	C	0.262834	0.556522	0.285974
C99	C	0.348132	0.401039	0.363724
C100	C	0.424817	0.391979	0.368259
C101	C	0.416205	0.538407	0.295041
C102	C	0.330907	0.693891	0.217292
H103	H	0.206065	0.563224	0.282620
H104	H	0.354507	0.292643	0.417924
H105	H	0.487960	0.276881	0.425814
H106	H	0.472974	0.531705	0.298396
H107	H	0.324533	0.802286	0.163092
H108	H	0.225652	1.761166	-0.106623
H109	H	1.105612	0.534688	0.185098
H110	H	0.105578	0.758270	0.185080
H111	H	1.077120	0.342315	-0.056467
H112	H	0.507044	1.532076	0.149808
C113	C	-0.071470	1.296602	-0.084098
C114	C	-0.080090	1.443031	-0.157321
C115	C	-0.165390	1.598509	-0.235108
C116	C	-0.242072	1.607559	-0.239672
C117	C	-0.233455	1.461125	-0.166446
C118	C	-0.148154	1.305647	-0.088659
H119	H	-0.023323	1.436336	-0.153945
H120	H	-0.171769	1.706909	-0.289314
H121	H	-0.305216	1.722654	-0.297254
H122	H	-0.290221	1.467820	-0.169822
H123	H	-0.141776	1.197247	-0.034453
H124	H	0.507015	1.532130	-0.553453
C125	C	1.254229	0.305909	0.212713
C126	C	1.313901	0.313685	0.145371
C127	C	1.399215	0.244196	0.223119
C128	C	1.424857	0.166932	0.368210
C129	C	1.365183	0.159154	0.435560
C130	C	1.279870	0.228642	0.357812
H131	H	1.294921	0.370883	0.037959
H132	H	1.443389	0.249955	0.173261
H133	H	1.488011	0.115493	0.425764
H134	H	1.384164	0.101956	0.542972
H135	H	1.235696	0.222884	0.407670
H136	H	0.380601	1.742811	0.142353
H137	H	1.105583	0.534735	0.408622
H138	H	1.232055	0.324034	0.611857
H139	H	0.239895	1.857372	0.014143
H140	H	1.217826	0.227770	0.071728
C141	C	0.349870	1.535231	-0.118181
C142	C	0.264562	1.604676	-0.195894
C143	C	0.255917	1.546334	-0.269097
C144	C	0.332579	1.418548	-0.264588
C145	C	0.417893	1.349095	-0.186872
C146	C	0.426538	1.407436	-0.113668
H147	H	0.207807	1.699278	-0.199235
H148	H	0.192761	1.597749	-0.326628
H149	H	0.326179	1.375360	-0.318777
H150	H	0.474648	1.254493	-0.183531
H151	H	0.489693	1.356022	-0.056138
C152	C	0.203508	1.779124	-0.523769
C153	C	0.177890	1.856301	-0.455869
C154	C	0.092601	1.925687	-0.447513
C155	C	0.032930	1.917897	-0.507058
C156	C	0.058546	1.840718	-0.574963
C157	C	0.143835	1.771331	-0.583318
H158	H	0.222064	1.862070	-0.411786
H159	H	0.073639	1.982821	-0.397245
H160	H	-0.030206	1.969262	-0.500872
H161	H	0.014373	1.834948	-0.619045
H162	H	0.162798	1.714197	-0.633586
H163	H	0.380554	0.843812	0.142334
H164	H	1.217877	0.227762	0.828879
H165	H	0.352135	1.326828	-0.099141
H166	H	1.077202	0.342229	0.842639
H167	H	0.077161	1.241285	-0.056417
H168	H	0.950677	0.553025	-0.063897
H169	H	0.380521	1.742905	-0.756711
H170	H	0.225657	1.341755	-0.106620
H171	H	0.352138	1.550349	-0.322696
H172	H	0.239844	1.857391	-0.742953
