data_functionalizedCrystal
_audit_creation_method	'MofGen! by Chris Wilmer'
_symmetry_space_group_name_H-M	'P1'
_symmetry_Int_Tables_number	1
_symmetry_cell_setting	triclinic
loop_
_symmetry_equiv_pos_as_xyz
  x,y,z
_cell_length_a	16.120530
_cell_length_b	18.101395
_cell_length_c	16.120297
_cell_angle_alpha	92.872690
_cell_angle_beta	90.128140
_cell_angle_gamma	87.126665
loop_
_atom_site_label
_atom_site_type_symbol
_atom_site_fract_x
_atom_site_fract_y
_atom_site_fract_z
Zn1	Zn	1.247384	-0.375190	-0.534565
Zn2	Zn	1.254317	-0.493082	-0.395508
Zn3	Zn	1.115376	-0.362676	-0.388483
Zn4	Zn	1.108274	-0.492400	-0.527477
O5	O	1.181338	-0.430837	-0.461508
O6	O	1.364669	-0.396351	-0.522025
O7	O	1.241761	-0.470832	-0.278211
O8	O	1.132958	-0.260707	-0.407888
O9	O	1.369763	-0.482966	-0.419860
O10	O	1.229944	-0.269901	-0.515214
O11	O	1.139681	-0.375023	-0.273050
O12	O	0.998069	-0.374361	-0.401015
O13	O	1.120853	-0.481804	-0.644783
O14	O	0.992851	-0.469669	-0.503133
O15	O	1.223057	-0.395690	-0.649990
O16	O	1.234873	-0.596620	-0.412987
O17	O	1.127576	-0.596119	-0.509945
C18	C	0.965287	-0.420584	-0.450543
C19	C	0.872859	-0.416216	-0.445872
C20	C	0.703631	-0.408225	-0.437350
C21	C	0.659883	-0.453506	-0.485727
C22	C	0.565718	-0.449060	-0.480986
C23	C	0.797804	-0.412671	-0.442091
C24	C	1.181228	-0.623241	-0.461478
C25	C	1.181256	-0.705558	-0.461497
C26	C	1.181436	-1.004659	-0.461551
C27	C	1.114068	-0.973063	-0.522721
C28	C	1.113774	-0.887422	-0.522504
C29	C	1.181346	-0.856271	-0.461525
C30	C	1.162064	-0.882548	-0.372686
C31	C	1.161632	-0.968190	-0.373050
C32	C	1.268265	-0.978132	-0.488456
C33	C	1.267650	-0.892539	-0.490352
C34	C	1.181297	-0.772409	-0.461505
C35	C	1.181483	-1.088521	-0.461565
C36	C	1.398232	-0.441131	-0.472517
C37	C	1.490660	-0.445517	-0.477208
C38	C	1.170389	-0.440067	-0.678403
C39	C	1.165724	-0.444000	-0.770830
C40	C	1.181470	-0.237683	-0.461558
C41	C	1.181526	-0.155373	-0.461579
C42	C	1.157175	-0.451163	-0.940055
C43	C	1.205665	-0.410297	-0.983822
C44	C	1.200908	-0.414283	-1.077985
C45	C	1.161931	-0.447178	-0.845884
C46	C	1.192292	-0.421592	-0.245460
C47	C	1.197119	-0.417458	-0.153042
H48	H	0.670367	-0.366124	-0.392376
C49	C	1.129372	-0.863671	-0.611309
N50	N	1.141118	-0.845785	-0.678202
C51	C	1.266581	-0.358995	-0.938909
N52	N	1.312465	-0.320358	-0.905076
C53	C	1.225360	-0.996170	-0.309048
N54	N	1.273354	-1.017240	-0.260837
H55	H	1.098292	-0.984372	-0.350776
C56	C	1.338565	-0.864319	-0.435027
N57	N	1.391977	-0.843065	-0.393348
H58	H	1.049324	-0.863273	-0.504331
C59	C	0.704822	-0.510394	-0.546484
N60	N	0.738674	-0.553243	-0.592242
C61	C	1.335999	-1.005838	-0.428346
N62	N	1.387010	-1.026711	-0.383068
H63	H	1.125459	-0.997097	-0.588658
C64	C	1.226526	-0.855068	-0.309168
N65	N	1.275078	-0.834367	-0.261327
H66	H	1.286711	-1.003393	-0.552368
H67	H	1.050005	-0.990950	-0.504755
H68	H	1.282271	-0.875783	-0.555755
C69	C	1.077434	-0.848474	-0.342182
N70	N	1.013688	-0.822812	-0.319212
C71	C	1.096269	-0.502467	-0.984969
N72	N	1.050395	-0.541110	-1.018807
