data_functionalizedCrystal
_audit_creation_method	'MofGen! by Chris Wilmer'
_symmetry_space_group_name_H-M	'P1'
_symmetry_Int_Tables_number	1
_symmetry_cell_setting	triclinic
loop_
_symmetry_equiv_pos_as_xyz
  x,y,z
_cell_length_a	17.917559
_cell_length_b	23.196402
_cell_length_c	23.196401
_cell_angle_alpha	59.999265
_cell_angle_beta	90.004944
_cell_angle_gamma	57.010822
loop_
_atom_site_label
_atom_site_type_symbol
_atom_site_fract_x
_atom_site_fract_y
_atom_site_fract_z
Zr1	Zr	0.754929	0.577916	-0.049090
O2	O	0.629783	0.706998	-0.145544
O3	O	0.793290	0.454948	-0.019525
O4	O	0.793265	0.575235	-0.139801
O5	O	0.629833	0.586693	0.069612
O6	O	0.922225	0.566165	-0.135266
O7	O	0.629809	0.586711	-0.025268
O8	O	0.922271	0.350993	0.079885
O9	O	0.629787	0.801865	-0.145539
O10	O	0.905896	0.496493	-0.003528
O11	O	0.809672	0.503248	0.063896
O12	O	0.809642	0.644871	-0.077713
O13	O	0.713418	0.651627	-0.010289
Zr14	Zr	0.960644	0.563421	0.109464
Zr15	Zr	0.960606	0.563450	-0.041858
Zr16	Zr	0.754967	0.577887	0.102232
Zr17	Zr	0.754935	0.729218	-0.049083
Zr18	Zr	0.960639	0.412119	0.109457
O19	O	0.922283	0.686389	0.079899
O20	O	0.922229	0.686430	-0.135261
O21	O	0.629837	0.706958	0.069617
O22	O	1.085790	0.434339	0.205918
O23	O	1.085736	0.434379	-0.009243
O24	O	0.793344	0.454907	0.195635
O25	O	1.085741	0.554644	-0.009237
O26	O	0.922309	0.566102	0.200175
O27	O	0.793349	0.575172	0.195641
O28	O	1.085765	0.554626	0.085642
O29	O	0.793273	0.790367	-0.139791
O30	O	0.922301	0.350970	0.200165
O31	O	1.085787	0.339472	0.205914
O32	O	1.085757	0.339494	0.085633
O33	O	0.629817	0.801843	-0.025259
O34	O	0.793303	0.790344	-0.019510
O35	O	0.905932	0.496466	0.138087
O36	O	1.002156	0.489710	0.070664
O37	O	0.905901	0.638089	-0.003522
O38	O	0.809678	0.644844	0.063902
C39	C	0.857780	0.381413	0.030179
C40	C	0.857777	0.317181	0.030176
C41	C	0.907999	0.283485	-0.005021
C42	C	0.908008	0.223123	-0.005015
C43	C	0.857777	0.196473	0.030178
C44	C	0.807554	0.230173	0.065383
C45	C	0.807554	0.290527	0.065382
C46	C	0.773627	0.140363	0.021944
C47	C	0.773625	0.080014	0.021940
C48	C	0.857778	0.010318	0.030185
C49	C	0.941934	0.000987	0.038420
C50	C	0.941934	0.061341	0.038419
C51	C	0.857772	0.131029	0.030183
C52	C	0.908014	-0.088830	-0.005007
C53	C	0.908026	-0.149197	-0.004996
C54	C	0.807563	-0.142139	0.065397
C55	C	0.807560	-0.081780	0.065391
C56	C	0.857784	-0.055127	0.030185
C57	C	0.600516	0.588763	0.021141
C58	C	0.513201	0.594904	0.018071
C59	C	0.362214	0.535226	0.047907
C60	C	0.353367	0.606107	0.012469
C61	C	0.442308	0.599872	0.015587
C62	C	0.273266	0.541460	0.044790
C63	C	1.115057	0.552574	0.039233
C64	C	1.202373	0.546433	0.042303
C65	C	0.857739	0.570704	-0.159094
C66	C	0.857723	0.570717	-0.223334
C67	C	0.857794	0.759924	0.030195
C68	C	0.857796	0.824156	0.030198
C69	C	0.928771	0.565721	-0.250999
C70	C	0.928792	0.565703	-0.311345
C71	C	0.857751	0.570698	-0.344032
C72	C	0.786697	0.575689	-0.316358
C73	C	0.786683	0.575699	-0.256009
C74	C	0.771051	0.624291	-0.466460
C75	C	0.771064	0.624287	-0.526811
C76	C	0.857793	0.570666	-0.530167
C77	C	0.944515	0.517060	-0.473170
C78	C	0.944501	0.517069	-0.412821
C79	C	0.857758	0.570688	-0.409471
C80	C	0.928870	0.565650	-0.623265
C81	C	0.928892	0.565627	-0.683610
C82	C	0.786789	0.575622	-0.688625
C83	C	0.786775	0.575636	-0.628278
C84	C	0.857815	0.570654	-0.595603
C85	C	0.857834	0.570633	0.219468
C86	C	0.857851	0.570620	0.283708
C87	C	1.115050	0.363319	0.039224
C88	C	1.202363	0.292946	0.042292
C89	C	0.857827	0.381377	0.219460
C90	C	0.857841	0.317133	0.283697
C91	C	1.115098	0.363283	0.228505
C92	C	1.202427	0.292898	0.295813
C93	C	0.600476	0.778054	-0.168131
C94	C	0.513147	0.848439	-0.235438
C95	C	0.600523	0.778018	0.021150
C96	C	0.513211	0.848391	0.018083
C97	C	0.857746	0.759960	-0.159085
C98	C	0.857733	0.824204	-0.223323
C99	C	1.193120	0.263438	0.004998
C100	C	1.275151	0.197325	0.007866
C101	C	1.366426	0.160716	0.048031
C102	C	1.375667	0.190229	0.085325
C103	C	1.293636	0.256346	0.082453
C104	C	0.908094	0.283423	0.352597
C105	C	0.908103	0.223068	0.412961
C106	C	0.857865	0.196419	0.404423
C107	C	0.807606	0.230135	0.335515
C108	C	0.807591	0.290494	0.275153
C109	C	1.293674	0.256318	0.292227
C110	C	1.375737	0.190191	0.355464
C111	C	1.366550	0.160643	0.422286
C112	C	1.275293	0.197230	0.425870
C113	C	1.193233	0.263359	0.362634
C114	C	0.421900	0.885027	-0.231853
C115	C	0.339837	0.951172	-0.295089
C116	C	0.349024	0.980724	-0.361912
C117	C	0.440280	0.944133	-0.365496
C118	C	0.522341	0.877993	-0.302260
C119	C	0.522454	0.877905	0.055369
C120	C	0.440422	0.944035	0.052485
C121	C	0.349148	0.980647	0.012318
C122	C	0.339906	0.951130	-0.024973
C123	C	0.421937	0.885005	-0.022093
C124	C	0.907981	0.850833	-0.214762
C125	C	0.907987	0.911188	-0.275113
C126	C	0.857738	0.944917	-0.344025
C127	C	0.807488	0.918282	-0.352585
C128	C	0.807489	0.857924	-0.292234
H129	H	0.705089	0.197120	0.015215
H130	H	0.766566	0.836250	-0.299214
C131	C	1.092727	0.303702	-0.039187
H132	H	1.045186	0.347303	-0.035558
H133	H	1.085520	0.327765	-0.088066
H134	H	1.085534	0.260874	-0.021189
H135	H	0.948896	0.305182	-0.033686
H136	H	0.857745	0.994064	-0.393161
C137	C	0.252904	0.694415	-0.031688
H138	H	0.259051	0.738068	-0.053511
H139	H	0.218839	0.699831	-0.067833
H140	H	0.218849	0.699827	-0.000954
H141	H	0.857884	0.147271	0.453579
C142	C	0.258920	1.053379	0.009156
H143	H	0.203231	1.070964	-0.020109
H144	H	0.258937	1.033584	0.056248
H145	H	0.258922	1.100469	-0.010634
H146	H	0.700419	0.667948	-0.463732
H147	H	1.015112	0.473420	-0.366415
C148	C	1.456654	0.087983	0.051193
H149	H	1.512342	0.070404	0.080452
H150	H	1.456649	0.040899	0.070976
H151	H	1.456640	0.107784	0.004097
H152	H	1.449994	0.160412	0.118027
C153	C	0.411758	0.852537	-0.063101
H154	H	0.345648	0.883809	-0.087427
H155	H	0.441660	0.860322	-0.097030
H156	H	0.441669	0.793448	-0.030141
H157	H	0.766656	0.208470	0.094038
H158	H	0.766655	0.317964	0.094044
C159	C	0.411781	0.852532	-0.158355
H160	H	0.473716	0.807896	-0.121201
H161	H	0.377702	0.898255	-0.154257
H162	H	0.377687	0.831387	-0.154262
H163	H	0.986617	0.561661	-0.224396
C164	C	1.303816	0.288787	0.123488
H165	H	1.369926	0.257504	0.147824
H166	H	1.273899	0.347876	0.090549
H167	H	1.273919	0.280976	0.157422
H168	H	1.118938	0.293135	0.365563
C169	C	0.963247	0.186055	-0.043739
H170	H	0.993153	0.210578	-0.064710
H171	H	1.010794	0.125727	-0.010170
H172	H	0.919861	0.199012	-0.080239
H173	H	0.265540	0.980953	-0.292157
C174	C	0.963263	0.813738	-0.138966
H175	H	0.993194	0.838242	-0.142521
H176	H	0.919912	0.826676	-0.115404
H177	H	1.010809	0.753408	-0.112217
C178	C	1.034498	0.051076	0.047486
H179	H	1.022440	0.097005	0.046301
H180	H	1.083244	-0.001666	0.092186
H181	H	1.054907	0.051569	0.009557
C182	C	0.752317	0.327563	0.199367
H183	H	0.722410	0.303037	0.202934
H184	H	0.704769	0.387890	0.172604
H185	H	0.795680	0.314612	0.175811
C186	C	0.963251	0.940485	-0.265685
H187	H	0.993159	0.911762	-0.216000
H188	H	1.010798	0.927251	-0.286012
H189	H	0.919878	1.000521	-0.289218
H190	H	1.267608	0.173303	-0.022504
H191	H	0.766577	0.945753	-0.408701
H192	H	1.450034	0.160409	0.352533
H193	H	0.949005	0.305113	0.359563
H194	H	0.282197	1.034579	-0.413397
H195	H	0.265580	0.980949	-0.057677
C196	C	0.752310	-0.171448	0.104109
H197	H	0.759498	-0.212216	0.099066
H198	H	0.777128	-0.196742	0.153606
H199	H	0.686208	-0.123465	0.083528
C200	C	1.034512	-0.075679	0.047500
H201	H	1.022467	-0.110296	0.046332
H202	H	1.054928	-0.055417	0.009577
H203	H	1.083252	-0.108633	0.092204
H204	H	0.728855	0.579754	-0.342974
C205	C	0.462674	0.446927	0.092047
H206	H	0.510130	0.454273	0.088369
H207	H	0.469957	0.416004	0.140941
H208	H	0.469923	0.416035	0.074048
H209	H	0.766703	0.208429	0.328574
H210	H	0.986650	0.561635	-0.333874
C211	C	1.456822	0.087895	0.491839
H212	H	1.512478	0.070340	0.480127
H213	H	1.456849	0.107661	0.519153
H214	H	1.456840	0.040793	0.519141
H215	H	0.447749	0.968203	-0.419910
H216	H	0.596636	0.848204	-0.305188
H217	H	0.447966	0.968056	0.082856
C218	C	1.303793	0.288815	0.218729
H219	H	1.241857	0.333435	0.181575
H220	H	1.337876	0.309966	0.214635
H221	H	1.337883	0.243088	0.214632
H222	H	1.015138	0.473397	-0.475899
C223	C	0.708522	0.581203	-0.225580
H224	H	0.666210	0.584179	-0.253690
H225	H	0.737702	0.531869	-0.177360
H226	H	0.673416	0.630973	-0.226932
H227	H	0.986717	0.561589	-0.596658
C228	C	1.007047	0.560134	-0.714042
H229	H	1.049344	0.557177	-0.685941
H230	H	1.042156	0.510373	-0.712699
H231	H	0.977851	0.609479	-0.762264
H232	H	0.949034	0.195623	0.469062
H233	H	1.267828	0.173161	0.480285
H234	H	0.596767	0.848101	0.088083
H235	H	0.948928	-0.176637	-0.033655
C236	C	0.963274	-0.059523	-0.043718
H237	H	0.993201	-0.088250	-0.064669
H238	H	0.919910	0.000511	-0.080221
H239	H	1.010822	-0.072768	-0.010137
H240	H	0.766661	-0.054341	0.094050
H241	H	0.728949	0.579684	-0.715236
C242	C	0.681061	0.090277	0.012882
H243	H	0.693109	0.044357	0.014055
H244	H	0.660660	0.089783	0.050812
H245	H	0.632309	0.143024	-0.031818
C246	C	0.708612	0.581145	-0.597851
H247	H	0.666300	0.584125	-0.625964
H248	H	0.737792	0.531809	-0.549632
H249	H	0.673508	0.630914	-0.599200
H250	H	0.700451	0.667940	-0.573216
