data_functionalizedCrystal
_audit_creation_method	'MofGen! by Chris Wilmer'
_symmetry_space_group_name_H-M	'P1'
_symmetry_Int_Tables_number	1
_symmetry_cell_setting	triclinic
loop_
_symmetry_equiv_pos_as_xyz
  x,y,z
_cell_length_a	19.077105
_cell_length_b	16.120484
_cell_length_c	19.078593
_cell_angle_alpha	94.995996
_cell_angle_beta	90.012172
_cell_angle_gamma	90.738523
loop_
_atom_site_label
_atom_site_type_symbol
_atom_site_fract_x
_atom_site_fract_y
_atom_site_fract_z
Zn1	Zn	1.040853	-0.402774	-0.456865
Zn2	Zn	1.540853	0.097226	0.043135
Zn3	Zn	1.039406	-0.536919	-0.344869
Zn4	Zn	1.539406	-0.036919	0.155131
Zn5	Zn	0.928429	-0.391739	-0.334222
Zn6	Zn	1.428429	0.108261	0.165778
Zn7	Zn	0.917378	-0.536296	-0.457582
Zn8	Zn	1.417378	-0.036296	0.042418
O9	O	0.981516	-0.466932	-0.398385
O10	O	1.481516	0.033068	0.101615
O11	O	1.138780	-0.425448	-0.446165
O12	O	1.638780	0.074552	0.053835
O13	O	1.028704	-0.513303	-0.244959
O14	O	1.528704	-0.013303	0.255041
O15	O	0.948573	-0.276565	-0.345735
O16	O	1.448573	0.223435	0.154265
O17	O	1.137717	-0.524003	-0.363882
O18	O	1.637717	-0.024003	0.136118
O19	O	1.031170	-0.284672	-0.435840
O20	O	1.531170	0.215328	0.064160
O21	O	0.947170	-0.406639	-0.237137
O22	O	1.447170	0.093361	0.262863
O23	O	0.828844	-0.406035	-0.346430
O24	O	1.328844	0.093965	0.153570
O25	O	0.929737	-0.522942	-0.555985
O26	O	1.429737	-0.022942	-0.055985
O27	O	0.820724	-0.512241	-0.437062
O28	O	1.320724	-0.012241	0.062938
O29	O	1.020454	-0.424844	-0.555458
O30	O	1.520454	0.075156	-0.055458
O31	O	1.017988	-0.653474	-0.364577
O32	O	1.517988	-0.153474	0.135423
O33	O	0.928334	-0.653016	-0.447387
O34	O	1.428334	-0.153016	0.052613
C35	C	0.799343	-0.457874	-0.390669
C36	C	1.299343	0.042126	0.109331
C37	C	0.721406	-0.454019	-0.387386
C38	C	1.221406	0.045981	0.112614
C39	C	0.680582	-0.507581	-0.432963
C40	C	1.180582	-0.007581	0.067037
C41	C	0.607353	-0.503949	-0.429881
C42	C	1.107353	-0.003949	0.070119
C43	C	0.574949	-0.446758	-0.381218
C44	C	1.074949	0.053242	0.118782
C45	C	0.615779	-0.393190	-0.335638
C46	C	1.115779	0.106810	0.164362
C47	C	0.689007	-0.396819	-0.338724
C48	C	1.189007	0.103181	0.161276
C49	C	0.356394	-0.429963	-0.366939
C50	C	0.856394	0.070037	0.133061
C51	C	0.283160	-0.426340	-0.363855
C52	C	0.783160	0.073660	0.136145
C53	C	0.274739	-0.537098	-0.458099
C54	C	0.774739	-0.037098	0.041901
C55	C	0.347969	-0.540725	-0.461178
C56	C	0.847969	-0.040725	0.038822
C57	C	0.388792	-0.487154	-0.415601
C58	C	0.888792	0.012846	0.084399
N59	N	0.500098	-0.443045	-0.378065
N60	N	1.000098	0.056955	0.121935
N61	N	0.463643	-0.490863	-0.418758
N62	N	0.963643	0.009137	0.081242
C63	C	0.971823	-0.683490	-0.407231
C64	C	1.471823	-0.183490	0.092769
C65	C	0.967740	-0.776138	-0.411042
C66	C	1.467740	-0.276138	0.088958
C67	C	0.960288	-0.945769	-0.418014
C68	C	1.460288	-0.445769	0.081986
C69	C	1.002870	-0.987261	-0.378772
C70	C	1.502870	-0.487261	0.121228
C71	C	0.998723	-1.081649	-0.382651
C72	C	1.498723	-0.581649	0.117349
C73	C	0.964433	-0.851372	-0.414136
C74	C	1.464433	-0.351372	0.085864
C75	C	1.164401	-0.476026	-0.406131
C76	C	1.664401	0.023974	0.093869
C77	C	1.242336	-0.479902	-0.409432
C78	C	1.742336	0.020098	0.090568
C79	C	0.974024	-0.475054	-0.581975
C80	C	1.474024	0.024946	-0.081975
C81	C	0.970832	-0.478516	-0.660210
C82	C	1.470832	0.021484	-0.160210
C83	C	0.991266	-0.249530	-0.389520
C84	C	1.491266	0.250470	0.110480
C85	C	0.995420	-0.156886	-0.385742
C86	C	1.495420	0.343114	0.114258
C87	C	0.989022	-0.458783	-0.215508
C88	C	1.489022	0.041217	0.284492
C89	C	0.992361	-0.455094	-0.137269
C90	C	1.492361	0.044906	0.362731
C91	C	0.947017	-0.504826	-0.100625
C92	C	1.447017	-0.004826	0.399375
C93	C	0.950150	-0.501352	-0.027111
C94	C	1.450150	-0.001352	0.472889
C95	C	0.998631	-0.448149	0.009757
C96	C	1.498631	0.051851	0.509757
C97	C	1.043977	-0.398411	-0.026892
C98	C	1.543977	0.101589	0.473108
C99	C	1.040840	-0.401881	-0.100405
C100	C	1.540840	0.098119	0.399595
C101	C	1.013041	-0.432247	0.229628
C102	C	1.513041	0.067753	0.729628
C103	C	1.016176	-0.428783	0.303145
C104	C	1.516176	0.071217	0.803145
C105	C	0.922347	-0.531724	0.302922
C106	C	1.422347	-0.031724	0.802922
C107	C	0.919217	-0.535193	0.229408
C108	C	1.419217	-0.035193	0.729408
C109	C	0.964561	-0.485451	0.192765
C110	C	1.464561	0.014549	0.692765
N111	N	1.001837	-0.444599	0.084900
N112	N	1.501837	0.055401	0.584900
N113	N	0.961352	-0.488998	0.117624
N114	N	1.461352	0.011002	0.617624
H115	H	0.374346	-0.587298	-0.500803
H116	H	0.874346	-0.087298	-0.000803
H117	H	0.920722	-0.981132	-0.454520
H118	H	1.420722	-0.481132	0.045480
F119	F	1.054588	-0.941038	-0.331049
F120	F	1.554588	-0.441038	0.168951
H121	H	0.907541	-0.548154	-0.130638
H122	H	1.407541	-0.048154	0.369362
H123	H	0.241493	-0.580711	-0.495206
H124	H	0.741493	-0.080711	0.004794
H125	H	0.913233	-0.541860	0.002721
H126	H	1.413233	-0.041860	0.502721
H127	H	0.879739	-0.578517	0.199395
H128	H	1.379739	-0.078517	0.699395
H129	H	0.706959	-0.554155	-0.472588
H130	H	1.206959	-0.054155	0.027412
F131	F	0.874090	-0.584655	0.341925
F132	F	1.374090	-0.084655	0.841925
H133	H	0.589390	-0.346621	-0.296018
H134	H	1.089390	0.153379	0.203982
H135	H	1.055655	-0.385453	0.333162
H136	H	1.555655	0.114547	0.833162
H137	H	1.049966	-0.391749	0.199802
H138	H	1.549966	0.108251	0.699802
H139	H	1.077762	-0.361380	-0.130239
H140	H	1.577762	0.138620	0.369761
F141	F	0.563908	-0.560957	-0.478391
F142	F	1.063908	-0.060957	0.021609
F143	F	0.248676	-0.365471	-0.312054
F144	F	0.748676	0.134529	0.187946
F145	F	1.095562	-0.341770	0.012349
F146	F	1.595562	0.158230	0.512349
H147	H	0.389623	-0.386348	-0.329821
H148	H	0.889623	0.113652	0.170179
F149	F	0.732455	-0.339809	-0.290215
F150	F	1.232455	0.160191	0.209785
