data_functionalizedCrystal
_audit_creation_method	'MofGen! by Chris Wilmer'
_symmetry_space_group_name_H-M	'P1'
_symmetry_Int_Tables_number	1
_symmetry_cell_setting	triclinic
loop_
_symmetry_equiv_pos_as_xyz
  x,y,z
_cell_length_a	21.295417
_cell_length_b	19.077300
_cell_length_c	19.077271
_cell_angle_alpha	85.516085
_cell_angle_beta	87.667972
_cell_angle_gamma	92.264088
loop_
_atom_site_label
_atom_site_type_symbol
_atom_site_fract_x
_atom_site_fract_y
_atom_site_fract_z
Zn1	Zn	-0.275948	-1.061621	-0.355285
Zn2	Zn	-0.385622	-1.066262	-0.237393
Zn3	Zn	-0.275973	-0.948477	-0.242147
Zn4	Zn	-0.376783	-0.943695	-0.359975
O5	O	-0.328582	-1.005014	-0.298700
O6	O	-0.294186	-1.160882	-0.335694
O7	O	-0.374786	-1.054581	-0.139374
O8	O	-0.187881	-0.963545	-0.257182
O9	O	-0.374762	-1.164291	-0.249079
O10	O	-0.187863	-1.046671	-0.340304
O11	O	-0.294227	-0.968045	-0.142867
O12	O	-0.285657	-0.849198	-0.261730
O13	O	-0.359698	-0.955395	-0.458003
O14	O	-0.359722	-0.845684	-0.348298
O15	O	-0.285615	-1.042034	-0.454557
O16	O	-0.472538	-1.049944	-0.253627
O17	O	-0.466044	-0.959895	-0.343688
C18	C	-0.321733	-0.821863	-0.306039
C19	C	-0.318818	-0.743510	-0.309195
C20	C	-0.297860	-0.302273	-0.331844
C21	C	-0.300611	-0.375895	-0.328874
C22	C	-0.343875	-0.414474	-0.282221
C23	C	-0.384395	-0.379429	-0.238539
C24	C	-0.381646	-0.305809	-0.241512
C25	C	-0.356589	-0.634845	-0.268487
C26	C	-0.359333	-0.708470	-0.265515
C27	C	-0.275550	-0.704930	-0.355852
C28	C	-0.272803	-0.631309	-0.358819
C29	C	-0.313325	-0.596270	-0.315139
N30	N	-0.346686	-0.489727	-0.279183
N31	N	-0.310516	-0.521018	-0.318182
C32	C	-0.492131	-1.004923	-0.298665
C33	C	-0.562100	-1.004948	-0.298671
C34	C	-0.598327	-1.051874	-0.251821
C35	C	-0.664070	-1.051907	-0.251835
C36	C	-0.693584	-1.005000	-0.298693
C37	C	-0.657348	-0.958070	-0.345552
C38	C	-0.591607	-0.958044	-0.345541
N39	N	-0.794347	-0.943118	-0.306538
N40	N	-0.856799	-0.943145	-0.306545
C41	C	-0.891660	-1.005078	-0.298730
N42	N	-0.861710	-1.066984	-0.290896
N43	N	-0.799252	-1.066956	-0.290886
C44	C	-0.764869	-1.005024	-0.298711
C45	C	-0.999173	-1.052043	-0.251893
C46	C	-1.064917	-1.052077	-0.251913
C47	C	-1.058194	-0.958234	-0.345626
C48	C	-0.992451	-0.958206	-0.345610
C49	C	-0.962945	-1.005110	-0.298740
C50	C	-0.164393	-1.005124	-0.298750
C51	C	-0.094426	-1.005170	-0.298772
C52	C	-0.321668	-0.997663	-0.482574
C53	C	-0.318721	-0.994531	-0.560930
C54	C	-0.335454	-0.188880	-0.291326
C55	C	-0.338375	-0.267233	-0.288164
C56	C	-0.297640	-0.972065	-1.002188
C57	C	-0.300406	-0.975011	-0.928564
C58	C	-0.343735	-1.021535	-0.889932
C59	C	-0.384295	-1.065121	-0.924929
C60	C	-0.381526	-1.062177	-0.998551
C61	C	-0.356513	-1.035173	-0.669549
C62	C	-0.359281	-1.038111	-0.595922
C63	C	-0.275390	-0.948003	-0.599562
C64	C	-0.272626	-0.945060	-0.673186
C65	C	-0.313185	-0.988648	-0.708175
N66	N	-0.346564	-1.024547	-0.814677
N67	N	-0.310352	-0.985640	-0.783429
C68	C	-0.335425	-1.012376	-0.115540
C69	C	-0.338199	-1.015645	-0.037179
H70	H	-0.414640	-0.277280	-0.205945
H71	H	-0.681382	-0.919880	-0.383705
C72	C	-1.104770	-1.103689	-0.200368
H73	H	-1.148150	-1.096992	-0.207089
H74	H	-1.095419	-1.095288	-0.153408
H75	H	-1.095335	-1.150633	-0.208816
H76	H	-0.237575	-0.599902	-0.396811
H77	H	-0.242368	-0.912517	-0.571065
H78	H	-0.267621	-0.404421	-0.364446
H79	H	-0.394554	-1.076013	-0.564469
C80	C	-0.249983	-0.920884	-1.044679
H81	H	-0.254146	-0.925366	-1.093538
H82	H	-0.208527	-0.931710	-1.032214
H83	H	-0.257883	-0.873996	-1.034505
H84	H	-0.394567	-0.739880	-0.227523
C85	C	-0.255788	-0.927076	-0.890076
H86	H	-0.229591	-0.898942	-0.923628
H87	H	-0.230450	-0.955211	-0.860287
H88	H	-0.279799	-0.897489	-0.862577
H89	H	-0.414553	-1.097666	-1.027040
C90	C	-0.224961	-0.893889	-0.715675
H91	H	-0.201197	-0.868359	-0.684290
H92	H	-0.246808	-0.862008	-0.745620
H93	H	-0.197462	-0.919733	-0.743320
H94	H	-0.242560	-0.733467	-0.391414
C95	C	-0.401136	-1.083105	-0.708029
H96	H	-0.427343	-1.111225	-0.674476
H97	H	-0.377135	-1.112694	-0.735529
H98	H	-0.426474	-1.054961	-0.737818
H99	H	-0.419572	-1.103004	-0.893469
C100	C	-0.431983	-0.421865	-0.187220
H101	H	-0.427813	-0.470730	-0.191698
H102	H	-0.473458	-0.409372	-0.197932
H103	H	-0.424026	-0.411680	-0.140360
C104	C	-0.250271	-0.259842	-0.383166
H105	H	-0.226541	-0.291257	-0.408760
H106	H	-0.222743	-0.232203	-0.357423
H107	H	-0.272177	-0.229895	-0.414993
H108	H	-0.389584	-0.606325	-0.232918
H109	H	-0.574305	-1.090068	-0.213658
H110	H	-0.693572	-1.090123	-0.213685
H111	H	-0.562110	-0.919830	-0.383693
H112	H	-1.082223	-0.920044	-0.383781
C113	C	-0.966713	-1.103641	-0.200347
H114	H	-0.997707	-1.131603	-0.172453
H115	H	-0.941253	-1.077921	-0.170682
H116	H	-0.941162	-1.133245	-0.226110
C117	C	-0.952600	-0.906578	-0.397137
H118	H	-0.979591	-0.878641	-0.425042
H119	H	-0.926767	-0.932276	-0.426792
H120	H	-0.926862	-0.876953	-0.371363
