data_functionalizedCrystal
_audit_creation_method	'MofGen! by Chris Wilmer'
_symmetry_space_group_name_H-M	'P1'
_symmetry_Int_Tables_number	1
_symmetry_cell_setting	triclinic
loop_
_symmetry_equiv_pos_as_xyz
  x,y,z
_cell_length_a	18.101398
_cell_length_b	18.050590
_cell_length_c	18.101390
_cell_angle_alpha	89.966356
_cell_angle_beta	89.974845
_cell_angle_gamma	90.016283
loop_
_atom_site_label
_atom_site_type_symbol
_atom_site_fract_x
_atom_site_fract_y
_atom_site_fract_z
Zn1	Zn	1.132188	-0.295676	-0.418844
Zn2	Zn	1.132110	-0.419882	-0.295001
Zn3	Zn	1.008346	-0.295705	-0.295005
Zn4	Zn	1.008325	-0.419824	-0.418789
O5	O	1.070243	-0.357772	-0.356910
O6	O	1.235811	-0.312164	-0.402438
O7	O	1.115669	-0.403446	-0.191369
O8	O	1.024816	-0.191777	-0.311457
O9	O	1.235754	-0.403418	-0.311451
O10	O	1.115802	-0.191755	-0.402441
O11	O	1.024740	-0.312214	-0.191371
O12	O	0.904711	-0.312158	-0.311403
O13	O	1.024779	-0.403319	-0.522429
O14	O	0.904695	-0.403347	-0.402347
O15	O	1.115781	-0.312108	-0.522470
O16	O	1.115649	-0.523799	-0.311397
O17	O	1.024704	-0.523756	-0.402344
C18	C	0.877832	-0.357750	-0.356870
C19	C	0.795518	-0.357758	-0.356870
C20	C	1.070186	-0.550724	-0.356880
C21	C	1.070229	-0.633269	-0.356892
C22	C	0.644809	-0.357774	-0.356903
C23	C	0.613441	-0.300317	-0.299779
C24	C	0.527823	-0.300101	-0.299967
C25	C	0.496427	-0.357788	-0.356935
C26	C	0.527563	-0.336891	-0.435070
C27	C	0.613208	-0.336465	-0.434722
C28	C	0.613223	-0.436276	-0.336581
C29	C	0.527571	-0.435862	-0.334878
C30	C	0.412567	-0.357798	-0.356957
C31	C	0.728669	-0.357762	-0.356886
C32	C	1.119788	-0.832716	-0.307505
C33	C	1.137877	-0.882043	-0.375097
C34	C	1.070271	-0.784400	-0.356922
C35	C	1.052257	-0.882154	-0.289361
C36	C	1.070313	-0.930385	-0.356945
C37	C	1.088396	-0.832640	-0.424549
C38	C	1.002743	-0.832746	-0.338768
C39	C	1.020807	-0.882051	-0.406406
C40	C	1.070249	-0.700302	-0.356908
C41	C	1.070335	-1.014481	-0.356966
C42	C	1.263404	-0.357794	-0.356951
C43	C	1.345719	-0.357804	-0.356968
C44	C	1.070287	-0.357704	-0.550072
C45	C	1.070305	-0.357675	-0.632386
C46	C	1.070320	-0.164066	-0.356956
C47	C	1.070353	-0.081520	-0.356975
C48	C	1.070345	-0.357629	-0.931477
C49	C	1.127790	-0.300443	-0.900178
C50	C	1.127610	-0.300231	-0.814559
C51	C	1.070326	-0.357652	-0.783094
C52	C	0.992305	-0.336386	-0.814161
C53	C	0.992649	-0.335957	-0.899806
C54	C	1.090235	-0.436227	-0.899890
C55	C	1.091947	-0.435826	-0.814240
C56	C	1.070310	-0.357666	-0.699235
C57	C	1.070356	-0.357613	-1.015337
C58	C	1.070241	-0.357786	-0.164499
C59	C	1.070366	-0.357605	-0.082186
H60	H	0.506768	-0.313140	-0.242040
H61	H	0.634788	-0.455358	-0.280556
H62	H	0.945635	-0.811074	-0.323378
H63	H	1.048399	-0.478836	-0.920136
H64	H	1.103593	-0.810983	-0.481743
H65	H	1.195002	-0.903699	-0.390466
H66	H	0.507348	-0.241936	-0.313459
H67	H	1.037003	-0.903903	-0.232215
H68	H	0.633984	-0.313207	-0.241660
H69	H	1.185465	-0.313549	-0.793557
H70	H	0.633506	-0.479080	-0.378187
H71	H	0.978951	-0.903577	-0.448254
H72	H	1.185833	-0.313596	-0.920785
H73	H	1.114789	-0.242541	-0.921715
H74	H	0.633200	-0.279092	-0.451899
H75	H	1.114444	-0.242004	-0.794086
H76	H	0.975789	-0.278502	-0.919796
H77	H	0.948391	-0.375796	-0.920509
H78	H	0.507231	-0.377464	-0.478811
H79	H	1.146131	-0.455591	-0.921540
H80	H	0.948342	-0.376754	-0.793777
H81	H	0.975139	-0.279569	-0.792721
H82	H	1.149364	-0.451862	-0.793936
H83	H	1.053151	-0.480723	-0.792819
H84	H	0.634976	-0.242478	-0.313098
H85	H	0.633963	-0.376511	-0.478757
H86	H	0.506130	-0.280152	-0.452550
H87	H	1.161676	-0.811053	-0.265758
H88	H	0.507218	-0.451626	-0.277374
H89	H	0.506193	-0.480941	-0.373423
