data_functionalizedCrystal
_audit_creation_method	'MofGen! by Chris Wilmer'
_symmetry_space_group_name_H-M	'P1'
_symmetry_Int_Tables_number	1
_symmetry_cell_setting	triclinic
loop_
_symmetry_equiv_pos_as_xyz
  x,y,z
_cell_length_a	17.699083
_cell_length_b	15.995350
_cell_length_c	16.776229
_cell_angle_alpha	89.995580
_cell_angle_beta	89.998886
_cell_angle_gamma	83.387695
loop_
_atom_site_label
_atom_site_type_symbol
_atom_site_fract_x
_atom_site_fract_y
_atom_site_fract_z
O1	O	1.004255	0.105885	-0.066173
O2	O	0.783899	0.119661	-0.066198
O3	O	0.900100	-0.009127	-0.066184
O4	O	0.888053	0.234673	-0.066187
O5	O	0.900085	-0.009135	0.066393
O6	O	0.783884	0.119653	0.066378
O7	O	1.004239	0.105877	0.066404
Zn8	Zn	0.894059	0.112764	0.087441
Zn9	Zn	0.894079	0.112774	-0.087235
O10	O	0.888038	0.234665	0.066390
C11	C	0.755694	0.119163	0.000087
C12	C	0.671673	0.117683	0.000077
C13	C	0.623178	0.193278	0.000076
C14	C	0.544232	0.191882	0.000087
C15	C	0.513783	0.114889	0.000092
C16	C	0.562285	0.039287	0.000095
C17	C	0.641229	0.040685	0.000090
C18	C	0.243912	0.033651	0.000115
C19	C	0.164962	0.032259	0.000117
C20	C	0.146916	0.184848	0.000111
C21	C	0.225860	0.186245	0.000106
C22	C	0.274354	0.110644	0.000114
C23	C	0.359956	0.112159	0.000104
C24	C	0.428183	0.113373	0.000096
C25	C	0.899595	-0.040324	0.000103
C26	C	0.898101	-0.133272	0.000098
C27	C	0.892739	-0.471008	0.000100
C28	C	0.809983	-0.423406	-0.000207
C29	C	0.811476	-0.326719	0.000092
C30	C	0.895399	-0.303453	0.000099
C31	C	0.936209	-0.344618	0.075810
C32	C	0.934130	-0.441250	0.075873
C33	C	0.935857	-0.441602	-0.074891
C34	C	0.935837	-0.344657	-0.075892
C35	C	0.896907	-0.208759	0.000101
C36	C	0.891234	-0.565703	0.000104
C37	C	1.032445	0.106375	0.000117
C38	C	1.116465	0.107856	0.000122
C39	C	0.888544	0.265863	0.000101
C40	C	0.890037	0.358810	0.000101
N41	N	0.894051	0.112756	0.206652
N42	N	0.894094	0.112775	-0.206446
C43	C	0.945520	0.055752	0.248375
C44	C	0.945524	0.055752	0.331827
C45	C	0.894062	0.112760	0.373555
C46	C	0.842587	0.169766	0.331825
C47	C	0.842580	0.169762	0.248375
C48	C	0.842614	0.169783	0.668373
C49	C	0.842627	0.169784	0.751829
C50	C	0.945559	0.055772	0.751825
C51	C	0.945552	0.055768	0.668375
C52	C	0.894074	0.112771	0.626653
C53	C	0.894069	0.112770	0.536164
C54	C	0.894070	0.112765	0.464041
H55	H	0.680714	-0.020873	0.000090
H56	H	0.987473	0.009354	0.785804
N57	N	0.790043	0.228003	0.625746
N58	N	0.743062	0.201502	0.579187
H59	H	0.705932	0.242623	0.549076
N60	N	0.790015	0.228006	0.374434
N61	N	0.744061	0.278897	0.337168
H62	H	0.706930	0.320031	0.367258
H63	H	0.800667	0.216180	0.214404
N64	N	0.900626	-0.308970	0.146488
N65	N	0.871718	-0.355013	0.195338
H66	H	0.846583	-0.329838	0.245253
N67	N	0.654276	0.271927	0.000089
N68	N	0.696313	0.289725	0.055974
H69	H	0.718275	0.345272	0.055986
H70	H	0.779397	-0.298228	-0.054181
N71	N	0.790052	0.228025	0.794442
N72	N	0.744093	0.278916	0.757182
H73	H	0.706964	0.320048	0.787277
N74	N	0.494685	0.269094	0.000094
N75	N	0.424201	0.267839	0.000113
H76	H	0.389206	0.322373	0.000127
H77	H	0.997038	-0.329419	-0.080458
N78	N	0.531172	-0.039353	0.000109
N79	N	0.460686	-0.040591	0.000112
H80	H	0.438713	-0.096133	0.000120
H81	H	0.250646	0.248941	0.000098
N82	N	0.097367	0.262068	0.000122
N83	N	0.051306	0.278310	0.056011
H84	H	0.016314	0.332845	0.056018
N85	N	0.133871	-0.046399	0.000120
N86	N	0.177177	-0.113894	0.000126
H87	H	0.155219	-0.169444	0.000127
H88	H	0.776912	-0.441867	-0.054501
H89	H	0.994888	-0.473622	0.079313
H90	H	0.779168	-0.298792	0.054450
H91	H	0.283388	-0.027909	0.000121
H92	H	0.996873	-0.473487	-0.075395
H93	H	0.777046	-0.442936	0.053777
H94	H	0.904358	-0.459494	0.132463
N95	N	1.013555	-0.327056	0.079340
N96	N	1.039525	-0.283899	0.025969
H97	H	1.094151	-0.271494	0.028460
N98	N	0.901923	-0.467308	-0.146874
N99	N	0.845541	-0.507619	-0.143777
H100	H	0.821569	-0.525776	-0.194611
H101	H	0.906000	-0.317344	-0.131901
N102	N	0.998054	-0.002531	0.205768
N103	N	1.043973	-0.053457	0.243035
H104	H	1.081059	-0.094643	0.212947
N105	N	0.998102	-0.002485	0.374434
N106	N	1.044048	-0.053379	0.337168
H107	H	1.081183	-0.094513	0.367258
H108	H	0.987460	0.009350	0.634403
