data_functionalizedCrystal
_audit_creation_method	'MofGen! by Chris Wilmer'
_symmetry_space_group_name_H-M	'P1'
_symmetry_Int_Tables_number	1
_symmetry_cell_setting	triclinic
loop_
_symmetry_equiv_pos_as_xyz
  x,y,z
_cell_length_a	12.996460
_cell_length_b	17.699083
_cell_length_c	17.699083
_cell_angle_alpha	96.716985
_cell_angle_beta	89.998816
_cell_angle_gamma	90.000172
loop_
_atom_site_label
_atom_site_type_symbol
_atom_site_fract_x
_atom_site_fract_y
_atom_site_fract_z
O1	O	-0.085425	-1.004078	0.095706
O2	O	0.164575	-0.754078	0.345706
O3	O	0.414575	-0.504078	0.595706
O4	O	0.664575	-0.254078	0.845706
O5	O	-0.085459	-0.783700	0.108158
O6	O	0.164541	-0.533700	0.358158
O7	O	0.414541	-0.283700	0.608158
O8	O	0.664541	-0.033700	0.858158
O9	O	-0.085432	-0.900115	-0.008257
O10	O	0.164568	-0.650115	0.241743
O11	O	0.414568	-0.400115	0.491743
O12	O	0.664568	-0.150115	0.741743
O13	O	-0.085452	-0.887663	0.212121
O14	O	0.164548	-0.637663	0.462121
O15	O	0.414548	-0.387663	0.712121
O16	O	0.664548	-0.137663	0.962121
O17	O	0.085702	-0.900100	-0.008250
O18	O	0.335702	-0.650100	0.241750
O19	O	0.585702	-0.400100	0.491750
O20	O	0.835702	-0.150100	0.741750
O21	O	0.085675	-0.783685	0.108165
O22	O	0.335675	-0.533685	0.358165
O23	O	0.585675	-0.283685	0.608165
O24	O	0.835675	-0.033685	0.858165
O25	O	0.085709	-1.004063	0.095713
O26	O	0.335709	-0.754063	0.345713
O27	O	0.585709	-0.504063	0.595713
O28	O	0.835709	-0.254063	0.845713
Cu29	Cu	0.101318	-0.893873	0.101940
Cu30	Cu	0.351318	-0.643873	0.351940
Cu31	Cu	0.601318	-0.393873	0.601940
Cu32	Cu	0.851318	-0.143873	0.851940
Cu33	Cu	-0.101067	-0.893890	0.101932
Cu34	Cu	0.148933	-0.643890	0.351932
Cu35	Cu	0.398933	-0.393890	0.601932
Cu36	Cu	0.648933	-0.143890	0.851932
O37	O	0.085682	-0.887648	0.212128
O38	O	0.335682	-0.637648	0.462128
O39	O	0.585682	-0.387648	0.712128
O40	O	0.835682	-0.137648	0.962128
C41	C	0.000104	-0.755495	0.107716
C42	C	0.250104	-0.505495	0.357716
C43	C	0.500104	-0.255495	0.607716
C44	C	0.750104	-0.005495	0.857716
C45	C	0.000091	-0.671477	0.106377
C46	C	0.250091	-0.421477	0.356377
C47	C	0.500091	-0.171477	0.606377
C48	C	0.750091	0.078523	0.856377
N49	N	0.243665	-0.893866	0.101945
N50	N	0.493665	-0.643866	0.351945
N51	N	0.743665	-0.393866	0.601945
N52	N	0.993665	-0.143866	0.851945
N53	N	-0.243415	-0.893903	0.101920
N54	N	0.006585	-0.643903	0.351920
N55	N	0.256585	-0.393903	0.601920
N56	N	0.506585	-0.143903	0.851920
C57	C	0.336771	-0.893869	0.101947
C58	C	0.586771	-0.643869	0.351947
C59	C	0.836771	-0.393869	0.601947
C60	C	1.086771	-0.143869	0.851947
C61	C	0.453576	-0.893876	0.101942
C62	C	0.703576	-0.643876	0.351942
C63	C	0.953576	-0.393876	0.601942
C64	C	1.203576	-0.143876	0.851942
C65	C	0.546675	-0.893886	0.101933
C66	C	0.796675	-0.643886	0.351933
C67	C	1.046675	-0.393886	0.601933
C68	C	1.296675	-0.143886	0.851933
C69	C	0.663487	-0.893894	0.101929
C70	C	0.913487	-0.643894	0.351929
C71	C	1.163487	-0.393894	0.601929
C72	C	1.413487	-0.143894	0.851929
C73	C	0.000135	-0.899662	-0.036451
C74	C	0.250135	-0.649662	0.213549
C75	C	0.500135	-0.399662	0.463549
C76	C	0.750135	-0.149662	0.713549
C77	C	0.000136	-0.898323	-0.120469
C78	C	0.250136	-0.648323	0.129531
C79	C	0.500136	-0.398323	0.379531
C80	C	0.750136	-0.148323	0.629531
C81	C	0.000144	-1.032268	0.096156
C82	C	0.250144	-0.782268	0.346156
C83	C	0.500144	-0.532268	0.596156
C84	C	0.750144	-0.282268	0.846156
C85	C	0.000150	-1.116286	0.097494
C86	C	0.250150	-0.866286	0.347494
C87	C	0.500150	-0.616286	0.597494
C88	C	0.750150	-0.366286	0.847494
C89	C	0.000085	-0.622856	0.174710
C90	C	0.250085	-0.372856	0.424710
C91	C	0.500085	-0.122856	0.674710
C92	C	0.750085	0.127144	0.924710
C93	C	0.000099	-0.543913	0.173448
C94	C	0.250099	-0.293913	0.423448
C95	C	0.500099	-0.043913	0.673448
C96	C	0.750099	0.206087	0.923448
C97	C	0.000111	-0.513592	0.103852
C98	C	0.250111	-0.263592	0.353852
C99	C	0.500111	-0.013592	0.603852
C100	C	0.750111	0.236408	0.853852
C101	C	0.000120	-0.562219	0.035513
C102	C	0.250120	-0.312219	0.285513
C103	C	0.500120	-0.062219	0.535513
C104	C	0.750120	0.187781	0.785513
C105	C	0.000114	-0.641161	0.036776
C106	C	0.250114	-0.391161	0.286776
C107	C	0.500114	-0.141161	0.536776
C108	C	0.750114	0.108839	0.786776
C109	C	0.000146	-0.243856	0.030418
C110	C	0.250146	0.006144	0.280418
C111	C	0.500146	0.256144	0.530418
C112	C	0.750146	0.506144	0.780418
C113	C	0.000149	-0.164908	0.029160
C114	C	0.250149	0.085092	0.279160
C115	C	0.500149	0.335092	0.529160
C116	C	0.750149	0.585092	0.779160
C117	C	0.000131	-0.146608	0.167090
C118	C	0.250131	0.103392	0.417090
C119	C	0.500131	0.353392	0.667090
C120	C	0.750131	0.603392	0.917090
C121	C	0.000125	-0.225550	0.168353
C122	C	0.250125	0.024450	0.418353
C123	C	0.500125	0.274450	0.668353
C124	C	0.750125	0.524450	0.918353
C125	C	0.000139	-0.274170	0.100015
C126	C	0.250139	-0.024170	0.350015
C127	C	0.500139	0.225830	0.600015
C128	C	0.750139	0.475830	0.850015
C129	C	0.000127	-0.359769	0.101384
C130	C	0.250127	-0.109769	0.351384
C131	C	0.500127	0.140231	0.601384
C132	C	0.750127	0.390231	0.851384
C133	C	0.000116	-0.427995	0.102481
C134	C	0.250116	-0.177995	0.352481
C135	C	0.500116	0.072005	0.602481
C136	C	0.750116	0.322005	0.852481
C137	C	0.000148	-0.966656	-0.169090
C138	C	0.250148	-0.716656	0.080910
C139	C	0.500148	-0.466656	0.330910
C140	C	0.750148	-0.216656	0.580910
C141	C	0.000138	-0.965394	-0.248033
C142	C	0.250138	-0.715394	0.001967
C143	C	0.500138	-0.465394	0.251967
C144	C	0.750138	-0.215394	0.501967
C145	C	0.000124	-0.895798	-0.278354
C146	C	0.250124	-0.645798	-0.028354
C147	C	0.500124	-0.395798	0.221646
C148	C	0.750124	-0.145798	0.471646
C149	C	0.000109	-0.827459	-0.229727
C150	C	0.250109	-0.577459	0.020273
C151	C	0.500109	-0.327459	0.270273
C152	C	0.750109	-0.077459	0.520273
C153	C	0.000111	-0.828722	-0.150785
C154	C	0.250111	-0.578722	0.099215
C155	C	0.500111	-0.328722	0.349215
C156	C	0.750111	-0.078722	0.599215
C157	C	0.000100	-0.822364	-0.548090
C158	C	0.250100	-0.572364	-0.298090
C159	C	0.500100	-0.322364	-0.048090
C160	C	0.750100	-0.072364	0.201910
C161	C	0.000101	-0.821106	-0.627038
C162	C	0.250101	-0.571106	-0.377038
C163	C	0.500101	-0.321106	-0.127038
C164	C	0.750101	-0.071106	0.122962
C165	C	0.000127	-0.959036	-0.645338
C166	C	0.250127	-0.709036	-0.395338
C167	C	0.500127	-0.459036	-0.145338
C168	C	0.750127	-0.209036	0.104662
C169	C	0.000129	-0.960299	-0.566396
C170	C	0.250129	-0.710299	-0.316396
C171	C	0.500129	-0.460299	-0.066396
C172	C	0.750129	-0.210299	0.183604
C173	C	0.000109	-0.891961	-0.517776
C174	C	0.250109	-0.641961	-0.267776
C175	C	0.500109	-0.391961	-0.017776
C176	C	0.750109	-0.141961	0.232224
C177	C	0.000117	-0.893330	-0.432177
C178	C	0.250117	-0.643330	-0.182177
C179	C	0.500117	-0.393330	0.067823
C180	C	0.750117	-0.143330	0.317823
C181	C	0.000124	-0.894427	-0.363951
C182	C	0.250124	-0.644427	-0.113951
C183	C	0.500124	-0.394427	0.136049
C184	C	0.750124	-0.144427	0.386049
C185	C	0.000113	-0.888102	0.240322
C186	C	0.250113	-0.638102	0.490322
C187	C	0.500113	-0.388102	0.740322
C188	C	0.750113	-0.138102	0.990322
C189	C	0.000106	-0.889440	0.324340
C190	C	0.250106	-0.639440	0.574340
C191	C	0.500106	-0.389440	0.824340
C192	C	0.750106	-0.139440	1.074340
H193	H	0.000075	-0.647537	0.231384
H194	H	0.250075	-0.397537	0.481384
H195	H	0.500075	-0.147537	0.731384
H196	H	0.750075	0.102463	0.981384
H197	H	0.000144	-0.537526	-0.021154
H198	H	0.250144	-0.287526	0.228846
H199	H	0.500144	-0.037526	0.478846
H200	H	0.750144	0.212474	0.728846
H201	H	0.000158	-0.283434	-0.025228
H202	H	0.250158	-0.033434	0.224772
H203	H	0.500158	0.216566	0.474772
H204	H	0.750158	0.466566	0.724772
H205	H	0.000101	-0.773078	-0.111198
H206	H	0.250101	-0.523078	0.138802
H207	H	0.500101	-0.273078	0.388802
H208	H	0.750101	-0.023078	0.638802
H209	H	0.000118	-0.680748	-0.018868
H210	H	0.250118	-0.430748	0.231132
H211	H	0.500118	-0.180748	0.481132
H212	H	0.750118	0.069252	0.731132
H213	H	0.000093	-0.504328	0.229092
H214	H	0.250093	-0.254328	0.479092
H215	H	0.500093	-0.004328	0.729092
H216	H	0.750093	0.245672	0.979092
H217	H	0.000092	-0.764429	-0.651721
H218	H	0.250092	-0.514429	-0.401721
H219	H	0.500092	-0.264429	-0.151721
H220	H	0.750092	-0.014429	0.098279
H221	H	0.000150	-1.021038	-0.287618
H222	H	0.250150	-0.771038	-0.037618
H223	H	0.500150	-0.521038	0.212382
H224	H	0.750150	-0.271038	0.462382
H225	H	0.000110	-0.250232	0.225025
H226	H	0.250110	-0.000232	0.475025
H227	H	0.500110	0.249768	0.725025
H228	H	0.750110	0.499768	0.975025
H229	H	0.000146	-1.016971	-0.541714
H230	H	0.250146	-0.766971	-0.291714
H231	H	0.500146	-0.516971	-0.041714
H232	H	0.750146	-0.266971	0.208286
H233	H	0.000139	-1.014680	-0.684934
H234	H	0.250139	-0.764680	-0.434934
H235	H	0.500139	-0.514680	-0.184934
H236	H	0.750139	-0.264680	0.065066
H237	H	0.000084	-0.766718	-0.508512
H238	H	0.250084	-0.516718	-0.258512
H239	H	0.500084	-0.266718	-0.008512
H240	H	0.750084	-0.016718	0.241488
H241	H	0.000165	-1.023330	-0.144409
H242	H	0.250165	-0.773330	0.105591
H243	H	0.500165	-0.523330	0.355591
H244	H	0.750165	-0.273330	0.605591
H245	H	0.000125	-0.107012	0.222734
H246	H	0.250125	0.142988	0.472734
H247	H	0.500125	0.392988	0.722734
H248	H	0.750125	0.642988	0.972734
H249	H	0.000091	-0.770792	-0.254420
H250	H	0.250091	-0.520792	-0.004420
H251	H	0.500091	-0.270792	0.245580
H252	H	0.750091	-0.020792	0.495580
H253	H	0.000160	-0.140225	-0.027517
H254	H	0.250160	0.109775	0.222483
H255	H	0.500160	0.359775	0.472483
H256	H	0.750160	0.609775	0.722483
