data_functionalizedCrystal
_audit_creation_method	'MofGen! by Chris Wilmer'
_symmetry_space_group_name_H-M	'P1'
_symmetry_Int_Tables_number	1
_symmetry_cell_setting	triclinic
loop_
_symmetry_equiv_pos_as_xyz
  x,y,z
_cell_length_a	12.645324
_cell_length_b	16.959455
_cell_length_c	16.959454
_cell_angle_alpha	89.982978
_cell_angle_beta	89.967675
_cell_angle_gamma	90.020663
loop_
_atom_site_label
_atom_site_type_symbol
_atom_site_fract_x
_atom_site_fract_y
_atom_site_fract_z
Zn1	Zn	-0.599404	-1.208433	-0.314687
Zn2	Zn	-0.099404	-0.708433	0.185313
Zn3	Zn	-0.422142	-1.208341	-0.446892
Zn4	Zn	0.077858	-0.708341	0.053108
Zn5	Zn	-0.422153	-1.076247	-0.314724
Zn6	Zn	0.077847	-0.576247	0.185276
Zn7	Zn	-0.599362	-1.076226	-0.446820
Zn8	Zn	-0.099362	-0.576226	0.053180
O9	O	-0.510765	-1.142312	-0.380781
O10	O	-0.010765	-0.642312	0.119219
O11	O	-0.575903	-1.319032	-0.332238
O12	O	-0.075903	-0.819032	0.167762
O13	O	-0.273796	-1.190789	-0.429406
O14	O	0.226204	-0.690789	0.070594
O15	O	-0.445688	-1.093829	-0.204109
O16	O	0.054312	-0.593829	0.295891
O17	O	-0.445670	-1.318964	-0.429369
O18	O	0.054330	-0.818964	0.070631
O19	O	-0.575913	-1.190946	-0.204081
O20	O	-0.075913	-0.690946	0.295919
O21	O	-0.273804	-1.093740	-0.332303
O22	O	0.226196	-0.593740	0.167697
O23	O	-0.445646	-0.965633	-0.332233
O24	O	0.054354	-0.465633	0.167767
O25	O	-0.747715	-1.093794	-0.429246
O26	O	-0.247715	-0.593794	0.070754
O27	O	-0.575841	-0.965618	-0.429283
O28	O	-0.075841	-0.465618	0.070717
O29	O	-0.747746	-1.190926	-0.332169
O30	O	-0.247746	-0.690926	0.167831
O31	O	-0.445628	-1.190769	-0.557493
O32	O	0.054372	-0.690769	-0.057493
O33	O	-0.575831	-1.093704	-0.557441
O34	O	-0.075831	-0.593704	-0.057441
C35	C	-0.510741	-0.936946	-0.380755
C36	C	-0.010741	-0.436946	0.119245
C37	C	-0.510756	-0.849089	-0.380763
C38	C	-0.010756	-0.349089	0.119237
C39	C	-0.510747	-1.142246	-0.586147
C40	C	-0.010747	-0.642246	-0.086147
C41	C	-0.510775	-1.142290	-0.674004
C42	C	-0.010775	-0.642290	-0.174004
C43	C	-0.787271	-1.142368	-0.380695
C44	C	-0.287271	-0.642368	0.119305
C45	C	-0.905101	-1.142391	-0.380659
C46	C	-0.405101	-0.642391	0.119341
C47	C	-0.950002	-1.203511	-0.319574
C48	C	-0.450002	-0.703511	0.180426
C49	C	-1.072562	-1.203773	-0.319734
C50	C	-0.572562	-0.703773	0.180266
C51	C	-1.072980	-1.164724	-0.463998
C52	C	-0.572980	-0.664724	0.036002
C53	C	-0.950382	-1.165144	-0.463665
C54	C	-0.450382	-0.665144	0.036335
C55	C	-0.950274	-1.058834	-0.359089
C56	C	-0.450274	-0.558834	0.140911
C57	C	-1.072881	-1.059305	-0.357231
C58	C	-0.572881	-0.559305	0.142769
C59	C	-0.235335	-1.142302	-0.380809
C60	C	0.264665	-0.642302	0.119191
C61	C	-0.117506	-1.142431	-0.380623
C62	C	0.382494	-0.642431	0.119377
C63	C	-0.510790	-1.348480	-0.380808
C64	C	-0.010790	-0.848480	0.119192
C65	C	-0.510801	-1.436337	-0.380819
C66	C	-0.010801	-0.936337	0.119181
C67	C	-0.443114	-0.477597	-0.330205
C68	C	0.056886	0.022403	0.169795
C69	C	-0.578477	-0.477630	-0.431421
C70	C	-0.078477	0.022370	0.068579
C71	C	-0.578470	-0.560176	-0.431410
C72	C	-0.078470	-0.060176	0.068590
C73	C	-0.510784	-0.601436	-0.380796
C74	C	-0.010784	-0.101436	0.119204
C75	C	-0.443103	-0.560151	-0.330194
C76	C	0.056897	-0.060151	0.169806
C77	C	-0.646141	-0.601468	-0.482017
C78	C	-0.146141	-0.101468	0.017983
C79	C	-0.646137	-0.684019	-0.482008
C80	C	-0.146137	-0.184019	0.017992
C81	C	-0.578455	-0.725280	-0.431390
C82	C	-0.078455	-0.225280	0.068610
C83	C	-0.510773	-0.683990	-0.380785
C84	C	-0.010773	-0.183990	0.119215
C85	C	-0.443086	-0.725250	-0.330172
C86	C	0.056914	-0.225250	0.169828
C87	C	-0.375409	-0.683961	-0.279562
C88	C	0.124591	-0.183961	0.220438
C89	C	-0.375421	-0.601412	-0.279576
C90	C	0.124579	-0.101412	0.220424
C91	C	-0.578442	-0.807829	-0.431376
C92	C	-0.078442	-0.307829	0.068624
C93	C	-0.443075	-0.807803	-0.330160
C94	C	0.056925	-0.307803	0.169840
C95	C	-0.578554	-1.091844	-1.045482
C96	C	-0.078554	-0.591844	-0.545482
C97	C	-0.443084	-1.193000	-1.045477
C98	C	0.056916	-0.693000	-0.545477
C99	C	-0.443074	-1.192972	-0.962931
C100	C	0.056926	-0.692972	-0.462931
C101	C	-0.510804	-1.142379	-0.921657
C102	C	-0.010804	-0.642379	-0.421657
C103	C	-0.578544	-1.091813	-0.962928
C104	C	-0.078544	-0.591813	-0.462928
C105	C	-0.375328	-1.243532	-0.921653
C106	C	0.124672	-0.743532	-0.421653
C107	C	-0.375315	-1.243506	-0.839102
C108	C	0.124685	-0.743506	-0.339102
C109	C	-0.443051	-1.192915	-0.797826
C110	C	0.056949	-0.692915	-0.297826
C111	C	-0.510794	-1.142348	-0.839103
C112	C	-0.010794	-0.642348	-0.339103
C113	C	-0.578525	-1.091755	-0.797829
C114	C	-0.078525	-0.591755	-0.297829
C115	C	-0.646274	-1.041191	-0.839104
C116	C	-0.146274	-0.541191	-0.339104
C117	C	-0.646281	-1.041223	-0.921652
C118	C	-0.146281	-0.541223	-0.421652
C119	C	-0.443045	-1.192883	-0.715278
C120	C	0.056955	-0.692883	-0.215278
C121	C	-0.578515	-1.091724	-0.715275
C122	C	-0.078515	-0.591724	-0.215275
C123	C	-0.510806	-1.142400	-0.174613
C124	C	-0.010806	-0.642400	0.325387
C125	C	-0.510824	-1.142437	-0.086756
C126	C	-0.010824	-0.642437	0.413244
H127	H	-1.102670	-1.189844	-0.257922
H128	H	-0.602670	-0.689844	0.242078
F129	F	-0.650610	-1.037878	-0.671354
F130	F	-0.150610	-0.537878	-0.171354
F131	F	-0.912299	-0.999316	-0.417228
F132	F	-0.412299	-0.499316	0.082772
F133	F	-0.303254	-1.297376	-0.965584
F134	F	0.196746	-0.797376	-0.465584
F135	F	-1.112865	-0.996643	-0.411100
F136	F	-0.612865	-0.496643	0.088900
F137	F	-0.718166	-0.727954	-0.535869
F138	F	-0.218166	-0.227954	-0.035869
F139	F	-0.303401	-0.557464	-0.225719
F140	F	0.196599	-0.057464	0.274281
F141	F	-1.110916	-1.284712	-0.338426
F142	F	-0.610916	-0.784712	0.161574
H143	H	-0.701240	-0.567867	-0.523229
H144	H	-0.201240	-0.067867	-0.023229
H145	H	-0.921795	-1.226215	-0.481908
H146	H	-0.421795	-0.726215	0.018092
H147	H	-1.103718	-1.225124	-0.482557
H148	H	-0.603718	-0.725124	0.017443
H149	H	-0.920675	-1.122530	-0.510728
H150	H	-0.420675	-0.622530	-0.010728
F151	F	-0.909764	-1.283982	-0.338043
F152	F	-0.409764	-0.783982	0.161957
F153	F	-0.650458	-0.851768	-0.485239
F154	F	-0.150458	-0.351768	0.014761
F155	F	-0.303368	-0.727882	-0.225702
F156	F	0.196632	-0.227882	0.274298
F157	F	-0.909884	-1.032218	-0.280986
F158	F	-0.409884	-0.532218	0.219014
H159	H	-0.388016	-0.443976	-0.288998
H160	H	0.111984	0.056024	0.211002
F161	F	-1.111024	-1.108337	-0.525101
F162	F	-0.611024	-0.608337	-0.025101
F163	F	-0.371038	-0.851709	-0.276285
F164	F	0.128962	-0.351709	0.223715
H165	H	-1.101987	-1.042488	-0.295874
H166	H	-0.601987	-0.542488	0.204126
H167	H	-0.387935	-1.234186	-1.079087
H168	H	0.112065	-0.734186	-0.579087
H169	H	-0.633578	-0.444031	-0.472633
H170	H	-0.133578	0.055969	0.027367
F171	F	-0.718351	-0.987344	-0.795167
F172	F	-0.218351	-0.487344	-0.295167
F173	F	-0.718377	-0.987414	-0.965585
F174	F	-0.218377	-0.487414	-0.465585
H175	H	-0.633717	-1.050678	-1.079091
H176	H	-0.133717	-0.550678	-0.579091
H177	H	-0.320151	-1.284678	-0.805501
H178	H	0.179849	-0.784678	-0.305501
H179	H	-0.387879	-1.234048	-0.681676
H180	H	0.112121	-0.734048	-0.181676
F181	F	-0.911509	-1.185518	-0.238534
F182	F	-0.411509	-0.685518	0.261466
