data_functionalizedCrystal
_audit_creation_method	'MofGen! by Chris Wilmer'
_symmetry_space_group_name_H-M	'P1'
_symmetry_Int_Tables_number	1
_symmetry_cell_setting	triclinic
loop_
_symmetry_equiv_pos_as_xyz
  x,y,z
_cell_length_a	8.559649
_cell_length_b	15.944551
_cell_length_c	7.681481
_cell_angle_alpha	84.256492
_cell_angle_beta	94.913240
_cell_angle_gamma	76.638701
loop_
_atom_site_label
_atom_site_type_symbol
_atom_site_fract_x
_atom_site_fract_y
_atom_site_fract_z
O1	O	2.105021	-0.019570	-0.146399
O2	O	1.639821	0.023810	-0.146411
O3	O	1.885126	-0.120976	-0.146389
O4	O	1.859716	0.125215	-0.146421
O5	O	1.915319	-0.138833	0.146471
O6	O	1.670014	0.005953	0.146450
O7	O	2.135214	-0.037427	0.146461
Zn8	Zn	1.907408	-0.018572	0.192953
Zn9	Zn	1.867627	0.004955	-0.192903
O10	O	1.889909	0.107359	0.146439
C11	C	1.595387	0.018169	0.000018
C12	C	1.418008	0.027954	0.000014
C13	C	1.899168	-0.161130	0.000042
C14	C	1.896006	-0.254172	0.000042
C15	C	1.736394	-0.458726	0.000014
C16	C	1.825398	-0.533331	0.144414
C17	C	1.890284	-0.424528	0.000029
C18	C	1.795667	-0.515712	-0.144323
C19	C	1.884744	-0.589082	0.000008
C20	C	1.979342	-0.497915	0.144548
C21	C	1.949576	-0.480280	-0.144319
C22	C	2.038696	-0.554877	0.000116
C23	C	1.893471	-0.329732	0.000042
C24	C	1.881571	-0.683878	0.000007
C25	C	2.179647	-0.031786	0.000028
C26	C	2.357025	-0.041570	0.000021
C27	C	1.875866	0.147513	0.000005
C28	C	1.879027	0.240556	-0.000008
N29	N	1.934569	-0.034630	0.456290
N30	N	1.840479	0.021005	-0.456240
H31	H	1.334507	0.094969	-0.000004
H32	H	1.608675	-0.417184	0.000155
H33	H	1.772895	-0.556682	0.266489
H34	H	1.440515	-0.108579	0.000021
O35	O	1.726086	0.088784	0.453860
C36	C	1.800890	0.141493	0.347231
H37	H	1.923034	0.101590	0.319776
H38	H	1.819175	0.198558	0.418167
C39	C	1.542883	0.224899	0.205742
C40	C	1.692897	0.175886	0.172009
H41	H	1.476267	0.246118	0.097659
H42	H	1.492485	0.189390	0.277584
H43	H	1.558143	0.272446	0.264859
H44	H	1.677637	0.128335	0.112913
H45	H	1.743291	0.211388	0.100153
H46	H	2.056976	-0.489573	0.266760
O47	O	2.191285	-0.604163	-0.000024
C48	C	2.257173	-0.576037	-0.150941
H49	H	2.192055	-0.505833	-0.200783
H50	H	2.241485	-0.619003	-0.257978
C51	C	2.518281	-0.668336	-0.042662
C52	C	2.438311	-0.582107	-0.103870
H53	H	2.630017	-0.672084	-0.013631
H54	H	2.473891	-0.687288	0.059011
H55	H	2.505191	-0.704131	-0.131870
H56	H	2.451385	-0.546316	-0.014655
H57	H	2.482708	-0.563150	-0.205527
H58	H	2.002022	-0.456903	-0.266401
O59	O	1.702985	-0.525637	-0.290095
C60	C	1.639699	-0.444139	-0.391434
H61	H	1.719321	-0.398205	-0.359387
H62	H	1.511872	-0.415978	-0.359535
C63	C	1.537891	-0.511624	-0.627871
C64	C	1.635693	-0.455208	-0.588522
H65	H	1.535412	-0.518451	-0.749444
H66	H	1.580522	-0.566530	-0.559595
H67	H	1.431379	-0.488149	-0.601275
H68	H	1.742206	-0.478689	-0.615097
H69	H	1.593079	-0.400306	-0.656807
H70	H	2.030633	-0.091415	0.531504
