data_functionalizedCrystal
_audit_creation_method	'MofGen! by Chris Wilmer'
_symmetry_space_group_name_H-M	'P1'
_symmetry_Int_Tables_number	1
_symmetry_cell_setting	triclinic
loop_
_symmetry_equiv_pos_as_xyz
  x,y,z
_cell_length_a	16.625548
_cell_length_b	12.594516
_cell_length_c	16.625539
_cell_angle_alpha	90.023327
_cell_angle_beta	90.020568
_cell_angle_gamma	90.017121
loop_
_atom_site_label
_atom_site_type_symbol
_atom_site_fract_x
_atom_site_fract_y
_atom_site_fract_z
Zn1	Zn	1.232716	-0.423710	0.455937
Zn2	Zn	1.482716	-0.173710	0.705937
Zn3	Zn	1.732716	0.076290	0.955937
Zn4	Zn	1.982716	0.326290	1.205937
Zn5	Zn	1.232635	-0.601711	0.321116
Zn6	Zn	1.482635	-0.351711	0.571116
Zn7	Zn	1.732635	-0.101711	0.821116
Zn8	Zn	1.982635	0.148289	1.071116
Zn9	Zn	1.097878	-0.423750	0.321118
Zn10	Zn	1.347878	-0.173750	0.571118
Zn11	Zn	1.597878	0.076250	0.821118
Zn12	Zn	1.847878	0.326250	1.071118
Zn13	Zn	1.097864	-0.601650	0.455906
Zn14	Zn	1.347864	-0.351650	0.705906
Zn15	Zn	1.597864	-0.101650	0.955906
Zn16	Zn	1.847864	0.148350	1.205906
O17	O	1.165273	-0.512705	0.388519
O18	O	1.415273	-0.262705	0.638519
O19	O	1.665273	-0.012705	0.888519
O20	O	1.915273	0.237295	1.138519
O21	O	1.345538	-0.447331	0.438065
O22	O	1.595538	-0.197331	0.688065
O23	O	1.845538	0.052669	0.938065
O24	O	2.095538	0.302669	1.188065
O25	O	1.214731	-0.578147	0.208284
O26	O	1.464731	-0.328147	0.458284
O27	O	1.714731	-0.078147	0.708284
O28	O	1.964731	0.171853	0.958284
O29	O	1.115805	-0.274799	0.339016
O30	O	1.365805	-0.024799	0.589016
O31	O	1.615805	0.225201	0.839016
O32	O	1.865805	0.475201	1.089016
O33	O	1.345478	-0.578108	0.339013
O34	O	1.595478	-0.328108	0.589013
O35	O	1.845478	-0.078108	0.839013
O36	O	2.095478	0.171892	1.089013
O37	O	1.214870	-0.274769	0.438067
O38	O	1.464870	-0.024769	0.688067
O39	O	1.714870	0.225231	0.938067
O40	O	1.964870	0.475231	1.188067
O41	O	1.115726	-0.447400	0.208285
O42	O	1.365726	-0.197400	0.458285
O43	O	1.615726	0.052600	0.708285
O44	O	1.865726	0.302600	0.958285
O45	O	0.985044	-0.447341	0.338985
O46	O	1.235044	-0.197341	0.588985
O47	O	1.485044	0.052659	0.838985
O48	O	1.735044	0.302659	1.088985
O49	O	1.115780	-0.578003	0.568743
O50	O	1.365780	-0.328003	0.818743
O51	O	1.615780	-0.078003	1.068743
O52	O	1.865780	0.171997	1.318743
O53	O	0.985033	-0.578043	0.438014
O54	O	1.235033	-0.328043	0.688014
O55	O	1.485033	-0.078043	0.938014
O56	O	1.735033	0.171957	1.188014
O57	O	1.214856	-0.447271	0.568766
O58	O	1.464856	-0.197271	0.818766
O59	O	1.714856	0.052729	1.068766
O60	O	1.964856	0.302729	1.318766
O61	O	1.214717	-0.750649	0.338983
O62	O	1.464717	-0.500649	0.588983
O63	O	1.714717	-0.250649	0.838983
O64	O	1.964717	-0.000649	1.088983
O65	O	1.115701	-0.750604	0.438012
O66	O	1.365701	-0.500604	0.688012
O67	O	1.615701	-0.250604	0.938012
O68	O	1.865701	-0.000604	1.188012
C69	C	0.955782	-0.512690	0.388497
C70	C	1.205782	-0.262690	0.638497
C71	C	1.455782	-0.012690	0.888497
C72	C	1.705782	0.237310	1.138497
C73	C	0.866161	-0.512709	0.388506
C74	C	1.116161	-0.262709	0.638506
C75	C	1.366161	-0.012709	0.888506
C76	C	1.616161	0.237291	1.138506
C77	C	0.537986	-0.512716	0.388541
C78	C	0.787986	-0.262716	0.638541
C79	C	1.037986	-0.012716	0.888541
C80	C	1.287986	0.237284	1.138541
C81	C	0.629294	-0.512711	0.388529
C82	C	0.879294	-0.262711	0.638529
C83	C	1.129294	-0.012711	0.888529
C84	C	1.379294	0.237289	1.138529
C85	C	0.702071	-0.512713	0.388523
C86	C	0.952071	-0.262713	0.638523
C87	C	1.202071	-0.012713	0.888523
C88	C	1.452071	0.237287	1.138523
C89	C	0.793385	-0.512707	0.388512
C90	C	1.043385	-0.262707	0.638512
C91	C	1.293385	-0.012707	0.888512
C92	C	1.543385	0.237293	1.138512
C93	C	1.165220	-0.789246	0.388511
C94	C	1.415220	-0.539246	0.638511
C95	C	1.665220	-0.289246	0.888511
C96	C	1.915220	-0.039246	1.138511
C97	C	1.165272	-0.907552	0.388535
C98	C	1.415272	-0.657552	0.638535
C99	C	1.665272	-0.407552	0.888535
C100	C	1.915272	-0.157552	1.138535
C101	C	1.111412	-0.976819	0.442359
C102	C	1.361412	-0.726819	0.692359
C103	C	1.611412	-0.476819	0.942359
C104	C	1.861412	-0.226819	1.192359
C105	C	1.091767	-1.047680	0.368785
C106	C	1.341767	-0.797680	0.618785
C107	C	1.591767	-0.547680	0.868785
C108	C	1.841767	-0.297680	1.118785
C109	C	1.184990	-1.047490	0.462122
C110	C	1.434990	-0.797490	0.712122
C111	C	1.684990	-0.547490	0.962122
C112	C	1.934990	-0.297490	1.212122
C113	C	1.145588	-0.976855	0.314921
C114	C	1.395588	-0.726855	0.564921
C115	C	1.645588	-0.476855	0.814921
C116	C	1.895588	-0.226855	1.064921
C117	C	1.238845	-0.976658	0.408308
C118	C	1.488845	-0.726658	0.658308
C119	C	1.738845	-0.476658	0.908308
C120	C	1.988845	-0.226658	1.158308
C121	C	1.219228	-1.047487	0.334683
C122	C	1.469228	-0.797487	0.584683
C123	C	1.719228	-0.547487	0.834683
C124	C	1.969228	-0.297487	1.084683
C125	C	1.375582	-0.512721	0.388542
C126	C	1.625582	-0.262721	0.638542
C127	C	1.875582	-0.012721	0.888542
C128	C	2.125582	0.237279	1.138542
C129	C	1.465203	-0.512728	0.388552
C130	C	1.715203	-0.262728	0.638552
C131	C	1.965203	-0.012728	0.888552
C132	C	2.215203	0.237272	1.138552
C133	C	1.165326	-0.512626	0.598828
C134	C	1.415326	-0.262626	0.848828
C135	C	1.665326	-0.012626	1.098828
C136	C	1.915326	0.237374	1.348828
C137	C	1.165348	-0.512592	0.688449
C138	C	1.415348	-0.262592	0.938449
C139	C	1.665348	-0.012592	1.188449
C140	C	1.915348	0.237408	1.438449
C141	C	1.165348	-0.235085	0.388545
C142	C	1.415348	0.014915	0.638545
C143	C	1.665348	0.264915	0.888545
C144	C	1.915348	0.514915	1.138545
C145	C	1.165380	-0.116779	0.388556
C146	C	1.415380	0.133221	0.638556
C147	C	1.665380	0.383221	0.888556
C148	C	1.915380	0.633221	1.138556
C149	C	1.165267	-0.512708	0.179028
C150	C	1.415267	-0.262708	0.429028
C151	C	1.665267	-0.012708	0.679028
C152	C	1.915267	0.237292	0.929028
C153	C	1.165401	-0.512442	0.089408
C154	C	1.415401	-0.262442	0.339408
C155	C	1.665401	-0.012442	0.589408
C156	C	1.915401	0.237558	0.839408
C157	C	1.165385	-0.512473	1.016625
C158	C	1.415385	-0.262473	1.266625
C159	C	1.665385	-0.012473	1.516625
C160	C	1.915385	0.237527	1.766625
C161	C	1.165373	-0.512510	0.925317
C162	C	1.415373	-0.262510	1.175317
C163	C	1.665373	-0.012510	1.425317
C164	C	1.915373	0.237490	1.675317
C165	C	1.165367	-0.512534	0.852540
C166	C	1.415367	-0.262534	1.102540
C167	C	1.665367	-0.012534	1.352540
C168	C	1.915367	0.237466	1.602540
C169	C	1.165354	-0.512568	0.761226
C170	C	1.415354	-0.262568	1.011226
C171	C	1.665354	-0.012568	1.261226
C172	C	1.915354	0.237432	1.511226
H173	H	1.065783	-0.945789	0.487811
H174	H	1.315783	-0.695789	0.737811
H175	H	1.565783	-0.445789	0.987811
H176	H	1.815783	-0.195789	1.237811
H177	H	1.201624	-1.078517	0.524346
H178	H	1.451624	-0.828517	0.774346
H179	H	1.701624	-0.578517	1.024346
H180	H	1.951624	-0.328517	1.274346
H181	H	1.301000	-0.945441	0.425051
H182	H	1.551000	-0.695441	0.675051
H183	H	1.801000	-0.445441	0.925051
H184	H	2.051000	-0.195441	1.175051
O185	O	1.017548	-1.084851	0.348967
O186	O	1.267548	-0.834851	0.598967
O187	O	1.517548	-0.584851	0.848967
O188	O	1.767548	-0.334851	1.098967
C189	C	0.876808	-1.090965	0.383238
C190	C	1.126808	-0.840965	0.633238
C191	C	1.376808	-0.590965	0.883238
C192	C	1.626808	-0.340965	1.133238
C193	C	0.960818	-1.048825	0.405777
C194	C	1.210818	-0.798825	0.655777
C195	C	1.460818	-0.548825	0.905777
C196	C	1.710818	-0.298825	1.155777
H197	H	0.830916	-1.061836	0.429147
H198	H	1.080916	-0.811836	0.679147
H199	H	1.330916	-0.561836	0.929147
H200	H	1.580916	-0.311836	1.179147
H201	H	0.877670	-1.181475	0.382901
H202	H	1.127670	-0.931475	0.632901
H203	H	1.377670	-0.681475	0.882901
H204	H	1.627670	-0.431475	1.132901
H205	H	0.859635	-1.060718	0.320938
H206	H	1.109635	-0.810718	0.570938
H207	H	1.359635	-0.560718	0.820938
H208	H	1.609635	-0.310718	1.070938
H209	H	0.978042	-1.078993	0.468082
H210	H	1.228042	-0.828993	0.718082
H211	H	1.478042	-0.578993	0.968082
H212	H	1.728042	-0.328993	1.218082
H213	H	0.959911	-0.958316	0.406060
H214	H	1.209911	-0.708316	0.656060
H215	H	1.459911	-0.458316	0.906060
H216	H	1.709911	-0.208316	1.156060
H217	H	1.128882	-0.945955	0.252681
H218	H	1.378882	-0.695955	0.502681
H219	H	1.628882	-0.445955	0.752681
H220	H	1.878882	-0.195955	1.002681
O221	O	1.273531	-1.084232	0.280224
O222	O	1.523531	-0.834232	0.530224
O223	O	1.773531	-0.584232	0.780224
O224	O	2.023531	-0.334232	1.030224
C225	C	1.314158	-1.089684	0.141171
C226	C	1.564158	-0.839684	0.391171
C227	C	1.814158	-0.589684	0.641171
C228	C	2.064158	-0.339684	0.891171
C229	C	1.252598	-1.048018	0.202759
C230	C	1.502598	-0.798018	0.452759
C231	C	1.752598	-0.548018	0.702759
C232	C	2.002598	-0.298018	0.952759
H233	H	1.297266	-1.060403	0.078530
H234	H	1.547266	-0.810403	0.328530
H235	H	1.797266	-0.560403	0.578530
H236	H	2.047266	-0.310403	0.828530
H237	H	1.314180	-1.180198	0.141879
H238	H	1.564180	-0.930198	0.391879
H239	H	1.814180	-0.680198	0.641879
H240	H	2.064180	-0.430198	0.891879
H241	H	1.376643	-1.059236	0.157525
H242	H	1.626643	-0.809236	0.407525
H243	H	1.876643	-0.559236	0.657525
H244	H	2.126643	-0.309236	0.907525
H245	H	1.190084	-1.078387	0.186448
H246	H	1.440084	-0.828387	0.436448
H247	H	1.690084	-0.578387	0.686448
H248	H	1.940084	-0.328387	0.936448
H249	H	1.252647	-0.957505	0.202040
H250	H	1.502647	-0.707505	0.452040
H251	H	1.752647	-0.457505	0.702040
H252	H	2.002647	-0.207505	0.952040
