data_functionalizedCrystal
_audit_creation_method	'MofGen! by Chris Wilmer'
_symmetry_space_group_name_H-M	'P1'
_symmetry_Int_Tables_number	1
_symmetry_cell_setting	triclinic
loop_
_symmetry_equiv_pos_as_xyz
  x,y,z
_cell_length_a	18.215407
_cell_length_b	12.759400
_cell_length_c	12.759393
_cell_angle_alpha	90.025341
_cell_angle_beta	90.021831
_cell_angle_gamma	90.003495
loop_
_atom_site_label
_atom_site_type_symbol
_atom_site_fract_x
_atom_site_fract_y
_atom_site_fract_z
Zn1	Zn	1.125198	-0.418192	0.594120
Zn2	Zn	1.125149	-0.593911	0.418460
Zn3	Zn	1.002126	-0.418248	0.418449
Zn4	Zn	1.002144	-0.593831	0.594091
O5	O	1.063654	-0.506045	0.506280
O6	O	1.228176	-0.441511	0.570835
O7	O	1.108802	-0.570665	0.271437
O8	O	1.018466	-0.271219	0.441761
O9	O	1.228140	-0.570611	0.441778
O10	O	1.108886	-0.271178	0.570825
O11	O	1.018418	-0.441607	0.271430
O12	O	0.899144	-0.441529	0.441732
O13	O	1.018495	-0.570475	0.741116
O14	O	0.899157	-0.570529	0.570775
O15	O	1.108902	-0.441434	0.741137
O16	O	1.108819	-0.740921	0.441749
O17	O	1.018447	-0.740862	0.570785
C18	C	0.872448	-0.506027	0.506250
C19	C	0.790649	-0.506045	0.506262
C20	C	1.063679	-0.232012	0.506295
C21	C	1.063690	-0.115235	0.506302
C22	C	1.063650	-0.779012	0.506288
C23	C	1.063715	-0.895789	0.506326
C24	C	0.602481	-0.573321	0.573370
C25	C	0.525622	-0.573324	0.573383
C26	C	0.525580	-0.438789	0.439213
C27	C	0.602437	-0.438781	0.439206
C28	C	0.640886	-0.506053	0.506283
C29	C	0.487170	-0.506064	0.506303
C30	C	0.403836	-0.506067	0.506317
C31	C	0.724225	-0.506049	0.506271
C32	C	1.255607	-0.506064	0.506311
C33	C	1.337406	-0.506072	0.506324
C34	C	1.063706	-0.505939	0.780313
C35	C	1.063728	-0.505894	0.897090
C36	C	1.016622	-0.060393	0.439108
C37	C	1.016632	0.049331	0.439123
C38	C	1.110785	0.049361	0.573527
C39	C	1.110770	-0.060361	0.573517
C40	C	0.962266	-0.060409	0.361508
C41	C	0.962276	0.049315	0.361522
C42	C	1.063645	-0.506075	0.233313
C43	C	1.063766	-0.505824	0.116536
C44	C	1.110810	-0.438696	0.951965
C45	C	1.110827	-0.438658	1.061689
C46	C	1.016679	-0.573025	1.061654
C47	C	1.016658	-0.573057	0.951932
C48	C	1.165168	-0.361123	0.951987
C49	C	1.165185	-0.361085	1.061711
H50	H	0.633784	-0.628095	0.627991
H51	H	1.144781	-0.283776	1.095749
O52	O	0.488115	-0.373545	0.374089
C53	C	0.412043	-0.387955	0.388498
H54	H	0.401556	-0.469077	0.422775
H55	H	0.390251	-0.325706	0.444551
C56	C	0.385430	-0.278568	0.240117
C57	C	0.372549	-0.378207	0.282208
H58	H	0.361067	-0.272550	0.174554
H59	H	0.436681	-0.268855	0.230411
H60	H	0.367269	-0.226704	0.286838
H61	H	0.390718	-0.430067	0.235494
H62	H	0.321300	-0.387927	0.291904
H63	H	0.978317	-0.627772	0.907256
H64	H	0.908140	0.083364	0.390658
O65	O	1.146829	-0.264094	0.916517
C66	C	1.076348	-0.237257	0.953449
H67	H	1.044556	-0.311699	0.972931
H68	H	1.081726	-0.186925	1.026898
C69	C	1.074086	-0.083945	0.844330
C70	C	1.035036	-0.175376	0.868249
H71	H	1.048603	-0.045770	0.791777
H72	H	1.121571	-0.102022	0.819450
H73	H	1.078565	-0.042014	0.905544
H74	H	1.030566	-0.217311	0.807038
H75	H	0.987549	-0.157304	0.893116
O76	O	1.229745	-0.395762	0.911256
C77	C	1.261260	-0.316254	0.849136
H78	H	1.216528	-0.260005	0.821934
H79	H	1.303698	-0.271524	0.897266
C80	C	1.353727	-0.434897	0.786419
C81	C	1.298785	-0.365816	0.753002
H82	H	1.376877	-0.465467	0.727121
H83	H	1.332497	-0.488462	0.828273
H84	H	1.389084	-0.397611	0.826528
H85	H	1.263424	-0.403105	0.712905
H86	H	1.320010	-0.312258	0.711139
H87	H	0.982665	-0.094473	0.284216
H88	H	0.494357	-0.628099	0.628014
O89	O	1.156540	0.102505	0.638915
C90	C	1.198094	0.030567	0.698200
H91	H	1.167944	-0.047642	0.701817
H92	H	1.253981	0.018881	0.659741
C93	C	1.245750	0.169479	0.805585
C94	C	1.208716	0.073423	0.810035
H95	H	1.252306	0.195915	0.874568
H96	H	1.217757	0.217946	0.765641
H97	H	1.292319	0.159728	0.773531
H98	H	1.162146	0.083178	0.842076
H99	H	1.236702	0.024958	0.849987
O100	O	0.894328	-0.096045	0.387618
C101	C	0.899070	-0.157354	0.479277
H102	H	0.957373	-0.188594	0.488144
H103	H	0.884582	-0.107187	0.550274
C104	C	0.773455	-0.211524	0.460626
C105	C	0.845062	-0.249901	0.471512
H106	H	0.740138	-0.268609	0.455840
H107	H	0.770258	-0.170216	0.398876
H108	H	0.761391	-0.169718	0.519793
H109	H	0.857128	-0.291695	0.412340
H110	H	0.848260	-0.291219	0.533253
O111	O	0.980390	0.084692	0.264383
C112	C	0.928695	0.047775	0.190842
H113	H	0.900880	-0.025606	0.222752
H114	H	0.885620	0.110891	0.176101
C115	C	1.002152	0.111440	0.048127
C116	C	0.967993	0.021307	0.087316
H117	H	1.026391	0.095118	-0.015735
H118	H	1.036979	0.136316	0.097672
H119	H	0.966250	0.164028	0.035851
H120	H	1.003897	-0.031275	0.099603
H121	H	0.933173	-0.003579	0.037770
H122	H	0.633707	-0.383997	0.384575
O123	O	0.971031	-0.638236	1.115091
C124	C	0.981129	-0.623779	1.223703
H125	H	1.037929	-0.589371	1.238705
H126	H	0.937487	-0.567816	1.254838
C127	C	0.904622	-0.772322	1.261595
C128	C	0.974387	-0.730070	1.280021
H129	H	0.900460	-0.837886	1.296336
H130	H	0.897816	-0.782061	1.188421
H131	H	0.868262	-0.725676	1.287541
H132	H	1.010745	-0.776710	1.254063
H133	H	0.981199	-0.720342	1.353192
H134	H	1.149094	-0.105010	0.628238
H135	H	1.222186	-0.382877	1.091496
