data_functionalizedCrystal
_audit_creation_method	'MofGen! by Chris Wilmer'
_symmetry_space_group_name_H-M	'P1'
_symmetry_Int_Tables_number	1
_symmetry_cell_setting	triclinic
loop_
_symmetry_equiv_pos_as_xyz
  x,y,z
_cell_length_a	18.101398
_cell_length_b	18.101395
_cell_length_c	14.908308
_cell_angle_alpha	86.733684
_cell_angle_beta	86.717237
_cell_angle_gamma	90.029256
loop_
_atom_site_label
_atom_site_type_symbol
_atom_site_fract_x
_atom_site_fract_y
_atom_site_fract_z
Zn1	Zn	1.107952	-0.319011	0.509984
Zn2	Zn	1.114997	-0.435717	0.359129
Zn3	Zn	0.991259	-0.311892	0.359154
Zn4	Zn	0.984063	-0.442810	0.509950
O5	O	1.049568	-0.377357	0.434554
O6	O	1.212519	-0.334504	0.489976
O7	O	1.104543	-0.413344	0.232890
O8	O	1.006801	-0.209204	0.379187
O9	O	1.217695	-0.420248	0.379144
O10	O	1.092535	-0.214435	0.490001
O11	O	1.013633	-0.322370	0.232909
O12	O	0.886672	-0.329247	0.379154
O13	O	0.994537	-0.432335	0.636196
O14	O	0.881385	-0.425432	0.489943
O15	O	1.085558	-0.341381	0.636222
O16	O	1.097565	-0.540290	0.379111
O17	O	1.001369	-0.545500	0.489918
C18	C	0.857157	-0.377337	0.434548
C19	C	0.774842	-0.377347	0.434567
C20	C	0.624134	-0.377360	0.434565
C21	C	0.589484	-0.437960	0.504163
C22	C	0.503875	-0.438183	0.503957
C23	C	0.475752	-0.377374	0.434565
C24	C	0.511315	-0.393695	0.339376
C25	C	0.596941	-0.394122	0.339779
C26	C	0.591439	-0.300258	0.459326
C27	C	0.505690	-0.300786	0.461422
C28	C	0.391892	-0.377380	0.434560
C29	C	0.707994	-0.377356	0.434565
C30	C	1.049470	-0.569767	0.434528
C31	C	1.049494	-0.652082	0.434547
C32	C	1.049655	-0.951175	0.434595
C33	C	0.989255	-0.923167	0.504485
C34	C	0.988994	-0.837539	0.504267
C35	C	1.049575	-0.802791	0.434572
C36	C	1.032952	-0.829441	0.339497
C37	C	1.032564	-0.915106	0.339915
C38	C	1.126842	-0.920674	0.458943
C39	C	1.126283	-0.835121	0.461028
C40	C	1.049532	-0.718931	0.434553
C41	C	1.049696	-1.035035	0.434608
C42	C	1.242729	-0.377379	0.434561
C43	C	1.325043	-0.377388	0.434564
C44	C	1.038459	-0.388443	0.669857
C45	C	1.033725	-0.393167	0.770129
C46	C	1.049685	-0.184198	0.434601
C47	C	1.049735	-0.101884	0.434620
C48	C	1.060676	-0.366261	0.200167
C49	C	1.065553	-0.361329	0.099895
C50	C	1.119607	-0.307316	0.958579
C51	C	1.115162	-0.311752	1.052794
C52	C	1.020385	-0.406471	1.052775
C53	C	1.024831	-0.402035	0.958560
C54	C	1.074444	-0.352457	0.911466
C55	C	1.078893	-0.348025	0.817250
C56	C	0.984113	-0.442739	0.817232
C57	C	0.979668	-0.447176	0.911447
H58	H	0.617875	-0.450339	0.318852
H59	H	0.486534	-0.253614	0.414467
H60	H	0.611741	-0.494864	0.487935
N61	N	0.626172	-0.340833	0.272489
N62	N	0.664822	-0.288251	0.294349
H63	H	0.685467	-0.250620	0.246824
H64	H	1.160008	-0.266951	0.920234
H65	H	1.075759	-0.806539	0.286004
N66	N	1.183228	-0.943041	0.395082
N67	N	1.179772	-0.923828	0.313562
H68	H	1.219589	-0.939626	0.268456
N69	N	0.488958	-0.339772	0.272543
N70	N	0.446460	-0.288590	0.294375
H71	H	0.430669	-0.250505	0.247176
N72	N	0.619876	-0.243656	0.395781
N73	N	0.608336	-0.246779	0.314215
H74	H	0.628420	-0.206796	0.269349
H75	H	0.490845	-0.449271	0.318093
H76	H	0.932294	-0.943998	0.488561
N77	N	1.085649	-0.937892	0.272343
N78	N	1.122862	-0.890532	0.225022
H79	H	1.160345	-0.906621	0.177290
N80	N	1.146967	-0.951733	0.544438
N81	N	1.206856	-0.933868	0.575126
H82	H	1.221063	-0.955803	0.635510
H83	H	1.151936	-0.274992	1.091150
N84	N	0.928980	-0.497812	0.959543
N85	N	0.888654	-0.538106	0.917463
H86	H	0.852850	-0.573866	0.951428
N87	N	0.963120	-0.801361	0.313163
N88	N	0.925481	-0.761723	0.364252
H89	H	0.876160	-0.741891	0.345658
N90	N	0.937982	-0.488848	0.769093
N91	N	0.941957	-0.484882	0.684973
H92	H	0.909378	-0.517446	0.650973
N93	N	0.969706	-0.457097	1.100903
N94	N	0.965741	-0.461042	1.185023
H95	H	0.929947	-0.496796	1.219016
H96	H	0.479536	-0.428531	0.574526
N97	N	1.142106	-0.813730	0.548805
N98	N	1.097094	-0.774818	0.591769
H99	H	1.108266	-0.759707	0.653763
H100	H	1.119292	-0.307656	0.778906
H101	H	0.998991	-0.947063	0.575211
N102	N	0.611128	-0.426036	0.592969
N103	N	0.652347	-0.372740	0.606007
H104	H	0.667632	-0.364313	0.668730
H105	H	0.609831	-0.284460	0.527568
N106	N	0.476086	-0.285214	0.549304
N107	N	0.518633	-0.276240	0.610962
H108	H	0.497725	-0.265240	0.673030
N109	N	1.001387	-0.815308	0.592707
N110	N	1.010289	-0.863073	0.655025
H111	H	1.019040	-0.847377	0.717492
H112	H	0.484132	-0.495410	0.487530
H113	H	1.173303	-0.811476	0.413834
N114	N	0.917103	-0.810963	0.484038
N115	N	0.866967	-0.855674	0.470030
H116	H	0.816191	-0.836906	0.455741
H117	H	0.976274	-0.934170	0.319289
