data_functionalizedCrystal
_audit_creation_method	'MofGen! by Chris Wilmer'
_symmetry_space_group_name_H-M	'P1'
_symmetry_Int_Tables_number	1
_symmetry_cell_setting	triclinic
loop_
_symmetry_equiv_pos_as_xyz
  x,y,z
_cell_length_a	15.624803
_cell_length_b	14.750779
_cell_length_c	16.109301
_cell_angle_alpha	77.359896
_cell_angle_beta	96.137122
_cell_angle_gamma	94.868986
loop_
_atom_site_label
_atom_site_type_symbol
_atom_site_fract_x
_atom_site_fract_y
_atom_site_fract_z
O1	O	1.084132	0.457312	-0.211690
O2	O	0.842281	0.373105	-0.205631
O3	O	0.969852	0.417513	-0.088160
O4	O	0.956560	0.412904	-0.329162
O5	O	1.005915	0.270416	-0.054956
O6	O	0.878344	0.226008	-0.172427
O7	O	1.120195	0.310216	-0.178487
Zn8	Zn	1.004995	0.244757	-0.170185
Zn9	Zn	0.957481	0.438563	-0.213933
O10	O	0.992623	0.265808	-0.295958
C11	C	0.829364	0.288781	-0.186014
C12	C	0.737149	0.256673	-0.177017
C13	C	0.335648	0.552076	-0.237901
C14	C	0.249001	0.521905	-0.229431
C15	C	0.288294	0.361539	-0.193231
C16	C	0.374947	0.391696	-0.201694
C17	C	0.398617	0.486966	-0.224030
C18	C	0.437916	0.326586	-0.187823
C19	C	0.524561	0.356742	-0.196290
C20	C	0.548237	0.452007	-0.218628
C21	C	0.485262	0.517121	-0.232497
C22	C	0.414244	0.231317	-0.165494
C23	C	0.477212	0.166207	-0.151623
C24	C	0.563860	0.196362	-0.160084
C25	C	0.587536	0.291628	-0.182421
C26	C	0.626835	0.131248	-0.146214
C27	C	0.713480	0.161404	-0.154681
C28	C	0.674181	0.321783	-0.190888
N29	N	1.037428	0.112492	-0.140329
C30	C	0.834472	-0.309976	-0.327132
C31	C	0.857205	-0.402562	-0.306216
C32	C	0.970193	-0.363193	-0.202238
C33	C	0.947466	-0.270603	-0.223142
C34	C	0.879606	-0.244003	-0.285590
C35	C	0.992600	-0.204630	-0.181601
C36	C	0.969878	-0.112047	-0.202507
C37	C	0.902022	-0.085438	-0.264954
C38	C	0.856883	-0.151420	-0.306496
C39	C	1.060465	-0.231231	-0.119158
C40	C	1.105599	-0.165257	-0.077616
C41	C	1.082873	-0.072674	-0.098517
C42	C	1.015017	-0.046065	-0.160964
C43	C	1.128011	-0.006692	-0.056975
C44	C	1.105289	0.085891	-0.077881
C45	C	0.992294	0.046518	-0.181870
C46	C	1.133111	0.394542	-0.198105
C47	C	1.225324	0.426655	-0.207103
C48	C	0.987346	0.343777	-0.040540
C49	C	0.985732	0.343213	0.051885
N50	N	0.925054	0.570831	-0.243783
C51	C	0.975129	0.339546	-0.343579
C52	C	0.976741	0.340115	-0.436005
C53	C	1.057674	0.368277	0.268396
C54	C	1.056149	0.367754	0.355236
C55	C	0.904793	0.315052	0.347478
C56	C	0.906317	0.315581	0.260637
C57	C	0.982761	0.342190	0.221100
C58	C	0.979713	0.341138	0.394781
C59	C	0.978059	0.340571	0.488937
C60	C	0.984415	0.342759	0.126937
H61	H	0.764751	0.108384	-0.143391
H62	H	1.117151	0.388999	0.393741
H63	H	0.845310	0.294339	0.222127
H64	H	0.842556	0.293385	0.379680
Cl65	Cl	1.153774	0.401731	0.218694
H66	H	1.078965	-0.306618	-0.102142
Cl67	Cl	0.365412	0.671846	-0.265970
Cl68	Cl	1.213328	-0.040140	0.021519
Cl69	Cl	0.169840	0.603769	-0.246874
H70	H	0.504534	0.594699	-0.250682
H71	H	0.618789	0.476558	-0.225526
H72	H	0.693453	0.399361	-0.209073
Cl73	Cl	0.258529	0.241775	-0.165156
Cl74	Cl	0.305316	0.193407	-0.154854
H75	H	0.607548	0.053679	-0.128036
Cl76	Cl	0.447447	0.046444	-0.123548
Cl77	Cl	0.906973	0.079959	-0.260369
H78	H	1.025448	-0.384862	-0.151395
Cl79	Cl	0.873460	0.030955	-0.291239
Cl80	Cl	0.771562	-0.117980	-0.384995
H81	H	0.779207	-0.288321	-0.377977
Cl82	Cl	1.162034	0.168833	-0.025658
Cl83	Cl	0.800456	-0.485496	-0.358452
H84	H	1.160854	-0.186926	-0.026773
