data_functionalizedCrystal
_audit_creation_method	'MofGen! by Chris Wilmer'
_symmetry_space_group_name_H-M	'P1'
_symmetry_Int_Tables_number	1
_symmetry_cell_setting	triclinic
loop_
_symmetry_equiv_pos_as_xyz
  x,y,z
_cell_length_a	10.654554
_cell_length_b	14.853567
_cell_length_c	9.730223
_cell_angle_alpha	90.002458
_cell_angle_beta	90.001137
_cell_angle_gamma	84.060837
loop_
_atom_site_label
_atom_site_type_symbol
_atom_site_fract_x
_atom_site_fract_y
_atom_site_fract_z
O1	O	1.666515	0.126641	-0.114235
O2	O	1.300912	0.138701	-0.114245
O3	O	1.493479	0.001494	-0.114244
O4	O	1.473948	0.263849	-0.114236
O5	O	1.493477	0.001497	0.114336
O6	O	1.300910	0.138705	0.114335
O7	O	1.666513	0.126645	0.114345
Zn8	Zn	1.483711	0.132675	0.150632
Zn9	Zn	1.483714	0.132671	-0.150532
O10	O	1.473945	0.263852	0.114344
C11	C	1.254122	0.137817	0.000043
C12	C	1.114707	0.135165	0.000038
C13	C	0.903385	0.213462	0.000053
C14	C	1.034380	0.215954	0.000042
C15	C	1.064032	0.051878	0.000031
C16	C	0.933039	0.049387	0.000031
C17	C	0.823064	0.294256	0.000071
C18	C	0.873730	0.377544	0.000076
C19	C	1.004726	0.380036	0.000066
C20	C	1.085055	0.299241	0.000050
C21	C	1.492593	-0.032098	0.000042
C22	C	1.489941	-0.132196	0.000030
C23	C	1.364341	-0.545403	0.000053
C24	C	1.593116	-0.565457	0.000059
C25	C	1.595609	-0.471410	0.000051
C26	C	1.482467	-0.414355	0.000046
C27	C	1.366832	-0.451347	0.000049
C28	C	1.711243	-0.434410	0.000062
C29	C	1.713741	-0.340358	0.000056
C30	C	1.600598	-0.283301	0.000041
C31	C	1.484957	-0.320299	0.000042
C32	C	1.371815	-0.263244	0.000037
C33	C	1.256174	-0.300240	0.000028
C34	C	1.253688	-0.394291	0.000034
C35	C	1.603083	-0.189251	0.000035
C36	C	1.374306	-0.169188	0.000033
C37	C	1.713303	0.127529	0.000054
C38	C	1.852718	0.130181	0.000050
C39	C	1.474832	0.297444	0.000055
C40	C	1.477484	0.397542	0.000058
N41	N	1.483718	0.132678	0.356168
N42	N	1.483717	0.132661	-0.356068
C43	C	1.569009	0.071943	0.428095
C44	C	1.569005	0.071932	0.571978
C45	C	1.398417	0.193399	0.571995
C46	C	1.398415	0.193404	0.428114
C47	C	1.654312	0.011217	0.356149
C48	C	1.739610	-0.049522	0.428076
C49	C	1.739607	-0.049533	0.571959
C50	C	1.654305	0.011195	0.643915
H51	H	0.808318	0.443323	0.000079
H52	H	1.045974	0.447852	0.000058
Cl53	Cl	1.249737	0.302377	0.000020
H54	H	1.809053	-0.098970	0.369482
Cl55	Cl	1.218971	-0.591910	0.000028
H56	H	1.129446	-0.013901	0.000019
Cl57	Cl	1.291185	0.269757	0.337690
Cl58	Cl	1.654297	0.011169	0.824798
H59	H	0.716400	0.292236	0.000085
H60	H	1.807904	-0.310245	0.000061
Cl61	Cl	0.869337	-0.055311	0.000041
H62	H	1.282170	-0.122739	0.000023
Cl63	Cl	1.113944	-0.228503	0.000033
Cl64	Cl	1.108324	-0.440806	0.000019
H65	H	1.685231	-0.611916	0.000075
H66	H	1.803357	-0.480871	0.000080
Cl67	Cl	1.654325	0.011231	0.175268
Cl68	Cl	1.748449	-0.142745	0.000072
Cl69	Cl	1.291192	0.269740	0.662454
Cl70	Cl	1.846826	-0.125895	0.662380
