data_functionalizedCrystal
_audit_creation_method	'MofGen! by Chris Wilmer'
_symmetry_space_group_name_H-M	'P1'
_symmetry_Int_Tables_number	1
_symmetry_cell_setting	triclinic
loop_
_symmetry_equiv_pos_as_xyz
  x,y,z
_cell_length_a	8.559649
_cell_length_b	15.944551
_cell_length_c	15.021413
_cell_angle_alpha	89.998676
_cell_angle_beta	90.006562
_cell_angle_gamma	76.638701
loop_
_atom_site_label
_atom_site_type_symbol
_atom_site_fract_x
_atom_site_fract_y
_atom_site_fract_z
O1	O	2.120133	-0.028505	0.074027
O2	O	1.654934	0.014874	0.074031
O3	O	1.900237	-0.129910	0.074021
O4	O	1.874830	0.116279	0.074037
O5	O	1.900200	-0.129893	-0.074043
O6	O	1.654896	0.014891	-0.074033
O7	O	2.120096	-0.028488	-0.074037
Zn8	Zn	1.887490	-0.006796	-0.097544
Zn9	Zn	1.887539	-0.006818	0.097537
O10	O	1.874792	0.116296	-0.074027
C11	C	1.595386	0.018170	-0.000001
C12	C	1.418007	0.027955	0.000000
C13	C	1.899164	-0.161128	-0.000011
C14	C	1.896001	-0.254170	-0.000012
C15	C	1.736393	-0.458726	0.000002
C16	C	1.810491	-0.524518	-0.073003
C17	C	1.890281	-0.424526	-0.000005
C18	C	1.810564	-0.524520	0.072976
C19	C	1.884744	-0.589082	0.000006
C20	C	1.964422	-0.489093	-0.073070
C21	C	1.964473	-0.489088	0.072975
C22	C	2.038684	-0.554870	-0.000048
C23	C	1.893466	-0.329730	-0.000012
C24	C	1.881570	-0.683878	0.000006
C25	C	2.179644	-0.031784	-0.000003
C26	C	2.357023	-0.041569	0.000002
C27	C	1.875866	0.147514	0.000007
C28	C	1.879028	0.240555	0.000014
N29	N	1.887468	-0.006783	-0.230681
C30	C	1.774979	0.060571	-0.529691
C31	C	1.742648	-0.013011	-0.470337
C32	C	1.887538	-0.006822	-0.587718
C33	C	1.919760	0.066783	-0.470330
C34	C	1.887499	-0.006798	-0.412294
C35	C	1.855134	-0.080437	-0.529670
C36	C	2.032310	-0.000598	-0.529669
C37	C	2.000038	-0.074239	-0.470341
C38	C	1.887556	-0.006834	-0.688775
C39	C	1.887482	-0.006795	-0.311239
N40	N	1.887574	-0.006839	0.230675
H41	H	1.608659	-0.417174	-0.000070
H42	H	2.029440	-0.473293	-0.134858
H43	H	2.154716	0.004691	-0.555752
H44	H	1.947051	0.129020	-0.444282
H45	H	1.440522	-0.108582	-0.000002
H46	H	1.620203	-0.018270	-0.444269
N47	N	1.648838	0.135970	-0.564227
H48	H	1.701832	0.174459	-0.601235
H49	H	1.590934	0.169817	-0.512377
H50	H	1.745387	-0.540419	-0.134723
N51	N	1.307429	0.116720	0.000021
H52	H	1.192140	0.111364	0.000031
H53	H	1.328133	0.149097	-0.054868
N54	N	2.208019	-0.609732	-0.000093
H55	H	2.286703	-0.571293	-0.000640
H56	H	2.224896	-0.647676	-0.054724
N57	N	2.050651	-0.467991	0.154728
H58	H	1.992432	-0.480541	0.209847
H59	H	2.053038	-0.404964	0.153726
H60	H	1.745471	-0.540402	0.134701
H61	H	1.827721	-0.142678	-0.555627
N62	N	2.126119	-0.149783	-0.436038
H63	H	2.101556	-0.205300	-0.457743
H64	H	2.125997	-0.149005	-0.368809
