data_functionalizedCrystal
_audit_creation_method	'MofGen! by Chris Wilmer'
_symmetry_space_group_name_H-M	'P1'
_symmetry_Int_Tables_number	1
_symmetry_cell_setting	triclinic
loop_
_symmetry_equiv_pos_as_xyz
  x,y,z
_cell_length_a	12.827893
_cell_length_b	12.827892
_cell_length_c	18.215399
_cell_angle_alpha	90.024028
_cell_angle_beta	90.017704
_cell_angle_gamma	90.015362
loop_
_atom_site_label
_atom_site_type_symbol
_atom_site_fract_x
_atom_site_fract_y
_atom_site_fract_z
Zn1	Zn	1.597653	-0.416045	0.416094
Zn2	Zn	2.097653	0.083955	0.916094
Zn3	Zn	1.597552	-0.590804	0.293036
Zn4	Zn	2.097552	-0.090804	0.793036
Zn5	Zn	1.422900	-0.416077	0.293046
Zn6	Zn	1.922900	0.083923	0.793046
Zn7	Zn	1.422880	-0.590744	0.416066
Zn8	Zn	1.922880	-0.090744	0.916066
O9	O	1.510246	-0.503417	0.354561
O10	O	2.010246	-0.003417	0.854561
O11	O	1.743876	-0.439238	0.399778
O12	O	2.243876	0.060762	0.899778
O13	O	1.574350	-0.567665	0.190053
O14	O	2.074350	-0.067665	0.690053
O15	O	1.446132	-0.269837	0.309385
O16	O	1.946132	0.230163	0.809385
O17	O	1.743802	-0.567633	0.309368
O18	O	2.243802	-0.067633	0.809368
O19	O	1.574522	-0.269813	0.399788
O20	O	2.074522	0.230187	0.899788
O21	O	1.446034	-0.439294	0.190060
O22	O	1.946034	0.060706	0.690060
O23	O	1.276661	-0.439236	0.309357
O24	O	1.776661	0.060764	0.809357
O25	O	1.446098	-0.567531	0.519054
O26	O	1.946098	-0.067531	1.019054
O27	O	1.276647	-0.567563	0.399739
O28	O	1.776647	-0.067563	0.899739
O29	O	1.574504	-0.439180	0.519075
O30	O	2.074504	0.060820	1.019075
O31	O	1.574331	-0.737032	0.309340
O32	O	2.074331	-0.237032	0.809340
O33	O	1.446000	-0.736988	0.399730
O34	O	1.946000	-0.236988	0.899730
C35	C	1.238736	-0.503397	0.354547
C36	C	1.738736	-0.003397	0.854547
C37	C	1.122583	-0.503414	0.354558
C38	C	1.622583	-0.003414	0.854558
C39	C	0.950734	-0.439848	0.309926
C40	C	1.450734	0.060152	0.809926
C41	C	1.070784	-0.439829	0.309913
C42	C	1.570784	0.060171	0.809913
C43	C	1.510181	-0.774927	0.354547
C44	C	2.010181	-0.274927	0.854547
C45	C	1.510249	-0.891081	0.354566
C46	C	2.010249	-0.391081	0.854566
C47	C	1.573752	-0.942770	0.399340
C48	C	2.073752	-0.442770	0.899340
C49	C	1.573824	-1.062820	0.399361
C50	C	2.073824	-0.562820	0.899361
C51	C	1.782816	-0.503438	0.354575
C52	C	2.282816	-0.003438	0.854575
C53	C	1.898970	-0.503447	0.354581
C54	C	2.398970	-0.003447	0.854581
C55	C	1.510310	-0.503345	0.546514
C56	C	2.010310	-0.003345	1.046514
C57	C	1.510337	-0.503315	0.628312
C58	C	2.010337	-0.003315	1.128312
C59	C	1.510340	-0.230847	0.354590
C60	C	2.010340	0.269153	0.854590
C61	C	1.510381	-0.114694	0.354603
C62	C	2.010381	0.385306	0.854603
C63	C	1.510243	-0.503414	0.163354
C64	C	2.010243	-0.003414	0.663354
C65	C	1.510418	-0.503150	0.081556
C66	C	2.010418	-0.003150	0.581556
C67	C	1.577222	-0.436420	0.816519
C68	C	2.077222	0.063580	1.316519
C69	C	1.577234	-0.436389	0.893377
C70	C	2.077234	0.063611	1.393377
C71	C	1.443526	-0.570048	0.893344
C72	C	1.943526	-0.070048	1.393344
C73	C	1.443509	-0.570072	0.816487
C74	C	1.943509	-0.070072	1.316487
C75	C	1.510363	-0.503260	0.778076
C76	C	2.010363	-0.003260	1.278076
C77	C	1.510392	-0.503205	0.931792
C78	C	2.010392	-0.003205	1.431792
C79	C	1.510406	-0.503173	1.015126
C80	C	2.010406	-0.003173	1.515126
C81	C	1.510349	-0.503291	0.694737
C82	C	2.010349	-0.003291	1.194737
H83	H	0.906174	-0.385408	0.271708
H84	H	1.406174	0.114592	0.771708
H85	H	1.628195	-1.107272	0.437691
H86	H	2.128195	-0.607272	0.937691
H87	H	1.115300	-0.385383	0.271680
H88	H	1.615300	0.114617	0.771680
H89	H	1.456013	-1.070250	0.316265
H90	H	1.956013	-0.570250	0.816265
H91	H	1.389099	-0.624447	0.924628
H92	H	1.889099	-0.124447	1.424628
H93	H	1.631655	-0.382014	0.785247
H94	H	2.131655	0.117986	1.285247
H95	H	1.455929	-0.935704	0.316251
H96	H	1.955929	-0.435704	0.816251
C97	C	1.650784	-0.362870	0.935661
C98	C	2.150784	0.137130	1.435661
H99	H	1.690599	-0.323091	0.901775
H100	H	2.190599	0.176909	1.401775
H101	H	1.610834	-0.317323	0.965645
H102	H	2.110834	0.182677	1.465645
H103	H	1.696312	-0.402846	0.965642
H104	H	2.196312	0.097154	1.465642
C105	C	1.062466	-0.576953	0.406228
C106	C	1.562466	-0.076953	0.906228
H107	H	1.110538	-0.616840	0.434237
H108	H	1.610538	-0.116840	0.934237
H109	H	1.019923	-0.536982	0.438311
H110	H	1.519923	-0.036982	0.938311
H111	H	1.019853	-0.622417	0.378011
H112	H	1.519853	-0.122417	0.878011
H113	H	1.389058	-0.624501	0.785186
H114	H	1.889058	-0.124501	1.285186
H115	H	0.943529	-0.557879	0.392806
H116	H	1.443529	-0.057879	0.892806
H117	H	1.628064	-0.898149	0.437661
H118	H	2.128064	-0.398149	0.937661
