data_functionalizedCrystal
_audit_creation_method	'MofGen! by Chris Wilmer'
_symmetry_space_group_name_H-M	'P1'
_symmetry_Int_Tables_number	1
_symmetry_cell_setting	triclinic
loop_
_symmetry_equiv_pos_as_xyz
  x,y,z
_cell_length_a	12.594517
_cell_length_b	12.594516
_cell_length_c	17.077396
_cell_angle_alpha	89.976855
_cell_angle_beta	89.987112
_cell_angle_gamma	90.016010
loop_
_atom_site_label
_atom_site_type_symbol
_atom_site_fract_x
_atom_site_fract_y
_atom_site_fract_z
Zn1	Zn	1.627252	-0.423743	-0.443733
Zn2	Zn	1.627147	-0.601744	-0.312480
Zn3	Zn	1.449260	-0.423780	-0.312496
Zn4	Zn	1.449238	-0.601680	-0.443718
O5	O	1.538224	-0.512737	-0.378107
O6	O	1.776184	-0.447367	-0.426321
O7	O	1.603516	-0.578179	-0.202635
O8	O	1.472924	-0.274829	-0.329919
O9	O	1.776107	-0.578143	-0.329890
O10	O	1.603694	-0.274802	-0.426338
O11	O	1.472823	-0.447429	-0.202647
O12	O	1.300312	-0.447367	-0.329904
O13	O	1.472887	-0.578034	-0.553567
O14	O	1.300295	-0.578070	-0.426312
O15	O	1.603673	-0.447305	-0.553578
O16	O	1.603494	-0.750681	-0.329875
O17	O	1.472785	-0.750634	-0.426296
C18	C	1.261683	-0.512716	-0.378109
C19	C	1.143378	-0.512733	-0.378128
C20	C	1.003383	-0.583951	-0.430467
C21	C	1.074156	-0.609854	-0.358827
C22	C	1.074177	-0.486878	-0.449761
C23	C	1.003365	-0.538720	-0.306426
C24	C	1.003380	-0.415700	-0.397409
C25	C	1.074121	-0.441565	-0.325719
C26	C	1.538155	-0.789278	-0.378099
C27	C	1.538222	-0.907583	-0.378122
C28	C	1.467123	-0.976850	-0.430528
C29	C	1.441192	-1.047710	-0.358903
C30	C	1.564250	-1.047522	-0.449760
C31	C	1.512240	-0.976885	-0.306459
C32	C	1.635344	-0.976691	-0.397364
C33	C	1.609449	-1.047520	-0.325689
C34	C	1.815845	-0.512758	-0.378105
C35	C	1.934151	-0.512767	-0.378105
C36	C	1.538289	-0.512658	-0.582851
C37	C	1.538316	-0.512625	-0.670101
C38	C	1.538323	-0.235116	-0.378132
C39	C	1.538366	-0.116811	-0.378142
C40	C	1.606419	-0.444549	-0.711098
C41	C	1.606432	-0.444513	-0.793079
C42	C	1.538346	-0.512560	-0.834061
C43	C	1.470236	-0.580640	-0.793058
C44	C	1.470219	-0.580669	-0.711079
C45	C	1.470279	-0.580576	-0.963928
C46	C	1.470297	-0.580548	-1.045912
C47	C	1.606492	-0.444420	-1.045928
C48	C	1.606475	-0.444449	-0.963949
C49	C	1.538366	-0.512530	-0.922952
C50	C	1.538222	-0.512738	-0.174159
C51	C	1.538400	-0.512472	-0.086910
H52	H	0.972267	-0.333650	-0.413753
H53	H	1.406889	-0.945818	-0.474782
H54	H	1.661922	-0.389045	-0.930584
F55	F	1.678953	-0.372093	-0.836707
H56	H	1.717392	-0.945476	-0.413657
H57	H	1.586207	-1.078550	-0.510335
H58	H	1.105281	-0.464995	-0.510350
F59	F	1.688122	-1.087824	-0.267709
F60	F	1.333919	-1.088481	-0.337633
F61	F	1.483420	-0.936501	-0.227259
H62	H	1.661865	-0.389140	-0.677737
F63	F	1.678980	-0.371963	-1.089561
H64	H	1.414801	-0.635998	-0.930550
F65	F	1.397825	-0.652963	-1.089527
H66	H	1.414796	-0.636041	-0.826432
F67	F	1.397732	-0.653123	-0.667447
F68	F	1.114797	-0.717128	-0.337492
H69	H	0.972392	-0.560703	-0.245821
H70	H	1.104984	-0.381353	-0.281396
F71	F	0.962783	-0.662709	-0.488261
