data_functionalizedCrystal
_audit_creation_method	'MofGen! by Chris Wilmer'
_symmetry_space_group_name_H-M	'P1'
_symmetry_Int_Tables_number	1
_symmetry_cell_setting	triclinic
loop_
_symmetry_equiv_pos_as_xyz
  x,y,z
_cell_length_a	19.077105
_cell_length_b	16.959447
_cell_length_c	19.077068
_cell_angle_alpha	92.264956
_cell_angle_beta	90.115316
_cell_angle_gamma	87.687315
loop_
_atom_site_label
_atom_site_type_symbol
_atom_site_fract_x
_atom_site_fract_y
_atom_site_fract_z
Zn1	Zn	1.062960	-0.509380	-0.322959
Zn2	Zn	1.058154	-0.382277	-0.440473
Zn3	Zn	0.945460	-0.371708	-0.318259
Zn4	Zn	0.940695	-0.508905	-0.435700
O5	O	1.001818	-0.443068	-0.379348
O6	O	1.160654	-0.497142	-0.342511
O7	O	1.043188	-0.270265	-0.424292
O8	O	0.965053	-0.385746	-0.220553
O9	O	1.157123	-0.403760	-0.428849
O10	O	1.051379	-0.486893	-0.224006
O11	O	0.960393	-0.262500	-0.334502
O12	O	0.846497	-0.385286	-0.329874
O13	O	0.956931	-0.619578	-0.420714
O14	O	0.842996	-0.486084	-0.416157
O15	O	1.046758	-0.619927	-0.337884
O16	O	1.038568	-0.403299	-0.538170
O17	O	0.952271	-0.496332	-0.534663
C18	C	0.819251	-0.434487	-0.371988
C19	C	0.741147	-0.430835	-0.368857
C20	C	0.702646	-0.481523	-0.412376
C21	C	0.629260	-0.478096	-0.409425
C22	C	0.594375	-0.423976	-0.362956
C23	C	0.632881	-0.373285	-0.319432
C24	C	0.706266	-0.376717	-0.322380
C25	C	0.375091	-0.408096	-0.349310
C26	C	0.301701	-0.404666	-0.346366
C27	C	0.298085	-0.509478	-0.436358
C28	C	0.371472	-0.512902	-0.439306
C29	C	0.409971	-0.462214	-0.395778
N30	N	0.519363	-0.420469	-0.359940
N31	N	0.484982	-0.465725	-0.398792
C32	C	1.001849	-0.649235	-0.379291
C33	C	1.001863	-0.737091	-0.379267
C34	C	0.955180	-1.108388	-0.422322
C35	C	1.048719	-1.108747	-0.336070
C36	C	1.048699	-1.026201	-0.336084
C37	C	1.001921	-0.984745	-0.379218
C38	C	0.955161	-1.025835	-0.422339
C39	C	1.095463	-0.985105	-0.292969
C40	C	1.095446	-0.902554	-0.292982
C41	C	1.048663	-0.861096	-0.336114
C42	C	1.001901	-0.902191	-0.379235
C43	C	0.955123	-0.860735	-0.422370
C44	C	0.908357	-0.901828	-0.465489
C45	C	0.908378	-0.984377	-0.465470
C46	C	1.048641	-0.778547	-0.336132
C47	C	0.955103	-0.778181	-0.422387
C48	C	1.185098	-0.451683	-0.386737
C49	C	1.263201	-0.455354	-0.389885
C50	C	0.994400	-0.450929	-0.561913
C51	C	0.991291	-0.454322	-0.640018
C52	C	1.001829	-0.237702	-0.379355
C53	C	1.001959	-0.149844	-0.379187
C54	C	1.034795	-0.407522	-0.678515
C55	C	1.031875	-0.410718	-0.751903
C56	C	0.985447	-0.460710	-0.786792
C57	C	0.941941	-0.507515	-0.748289
C58	C	0.944865	-0.504323	-0.674903
C59	C	0.971883	-0.475451	-1.006080
C60	C	0.968961	-0.478638	-1.079471
C61	C	1.058897	-0.381841	-1.083080
C62	C	1.061813	-0.378650	-1.009692
C63	C	1.018310	-0.425458	-0.971196
N64	N	0.982459	-0.463976	-0.861806
N65	N	1.021301	-0.422196	-0.896183
C66	C	1.009283	-0.435193	-0.196071
C67	C	1.012465	-0.431838	-0.117969
H68	H	0.737613	-0.335446	-0.286938
H69	H	1.133525	-0.869102	-0.257872
C70	C	0.263329	-0.345128	-0.295244
N71	N	0.234428	-0.300285	-0.256741
H72	H	0.904141	-0.548223	-0.776701
C73	C	0.417431	-0.352332	-0.301432
N74	N	0.449324	-0.310328	-0.265370
H75	H	0.917004	-0.744433	-0.457506
C76	C	0.409839	-0.572434	-0.490428
N77	N	0.438737	-0.617272	-0.528937
H78	H	1.094316	-0.343734	-1.114431
C79	C	0.741013	-0.541060	-0.463496
N80	N	0.769908	-0.585907	-0.501999
C81	C	0.586912	-0.533842	-0.457314
N82	N	0.555016	-0.575829	-0.493390
H83	H	0.604472	-0.329223	-0.281593
C84	C	1.085869	-0.352525	-0.640144
N85	N	1.124341	-0.311101	-0.611246
C86	C	1.100081	-0.733348	-0.288705
N87	N	1.138827	-0.699305	-0.252979
H88	H	0.870272	-0.868064	-0.500612
C89	C	0.903736	-1.153591	-0.469745
N90	N	0.864986	-1.187638	-0.505463
C91	C	0.856937	-1.029585	-0.512893
N92	N	0.818191	-1.063639	-0.548610
H93	H	1.086808	-1.142506	-0.300955
C94	C	1.146909	-1.030710	-0.245517
N95	N	1.185655	-1.065064	-0.209769
H96	H	0.931161	-0.519361	-1.107876
H97	H	1.067300	-0.372608	-0.783244
C98	C	1.112870	-0.323634	-0.971319
N99	N	1.151319	-0.282185	-0.942417
C100	C	0.924063	-0.526983	-0.963745
N101	N	0.888056	-0.565816	-0.931856
H102	H	0.266731	-0.550746	-0.471794
C103	C	0.897007	-0.555807	-0.632556
N104	N	0.860960	-0.594589	-0.600661
