data_functionalizedCrystal
_audit_creation_method	'MofGen! by Chris Wilmer'
_symmetry_space_group_name_H-M	'P1'
_symmetry_Int_Tables_number	1
_symmetry_cell_setting	triclinic
loop_
_symmetry_equiv_pos_as_xyz
  x,y,z
_cell_length_a	19.121424
_cell_length_b	19.121063
_cell_length_c	18.215399
_cell_angle_alpha	92.409843
_cell_angle_beta	92.413696
_cell_angle_gamma	94.804615
loop_
_atom_site_label
_atom_site_type_symbol
_atom_site_fract_x
_atom_site_fract_y
_atom_site_fract_z
Zn1	Zn	1.063710	-0.234204	-0.379181
Zn2	Zn	1.563710	0.265796	0.120819
Zn3	Zn	1.058597	-0.351877	-0.261594
Zn4	Zn	1.558597	0.148123	0.238406
Zn5	Zn	0.946045	-0.239250	-0.261595
Zn6	Zn	1.446045	0.260750	0.238405
Zn7	Zn	0.940990	-0.356858	-0.390081
Zn8	Zn	1.440990	0.143142	0.109919
O9	O	1.002336	-0.295547	-0.323113
O10	O	1.502336	0.204453	0.176887
O11	O	1.161494	-0.245617	-0.359020
O12	O	1.661494	0.254383	0.140980
O13	O	1.043643	-0.336964	-0.158613
O14	O	1.543643	0.163036	0.341387
O15	O	0.965909	-0.140114	-0.272632
O16	O	1.465909	0.359886	0.227368
O17	O	1.157738	-0.332071	-0.272630
O18	O	1.657738	0.167929	0.227370
O19	O	1.052357	-0.136407	-0.359021
O20	O	1.552357	0.363593	0.140979
O21	O	0.960951	-0.254217	-0.158613
O22	O	1.460951	0.245783	0.341387
O23	O	0.846912	-0.259047	-0.283201
O24	O	1.346912	0.240953	0.216799
O25	O	0.957293	-0.340561	-0.491617
O26	O	1.457293	0.159439	0.008383
O27	O	0.843198	-0.345454	-0.377599
O28	O	1.343198	0.154546	0.122401
O29	O	1.047455	-0.250447	-0.483609
O30	O	1.547455	0.249553	0.016391
O31	O	1.038741	-0.451004	-0.283200
O32	O	1.538741	0.048996	0.216800
O33	O	0.952335	-0.454664	-0.377599
O34	O	1.452335	0.045336	0.122401
C35	C	0.819525	-0.303339	-0.331584
C36	C	1.319525	0.196661	0.168416
C37	C	0.741317	-0.306690	-0.335226
C38	C	1.241317	0.193310	0.164774
C39	C	0.298894	-0.327876	-0.358344
C40	C	0.798894	0.172124	0.141656
C41	C	0.372378	-0.324733	-0.354909
C42	C	0.872378	0.175267	0.145091
C43	C	0.411035	-0.278102	-0.304118
C44	C	0.911035	0.221898	0.195882
C45	C	0.376202	-0.234616	-0.256754
C46	C	0.876202	0.265384	0.243246
C47	C	0.302719	-0.237763	-0.260187
C48	C	0.802719	0.262237	0.239813
C49	C	0.633002	-0.266350	-0.291295
C50	C	1.133002	0.233650	0.208705
C51	C	0.706490	-0.263205	-0.287868
C52	C	1.206490	0.236795	0.212132
C53	C	0.702661	-0.353324	-0.386022
C54	C	1.202661	0.146676	0.113978
C55	C	0.629177	-0.356463	-0.389453
C56	C	1.129177	0.143537	0.110547
C57	C	0.594351	-0.312980	-0.342087
C58	C	1.094351	0.187020	0.157913
C59	C	0.486147	-0.274887	-0.300606
C60	C	0.986147	0.225113	0.199394
C61	C	0.519239	-0.316199	-0.345595
C62	C	1.019239	0.183801	0.154405
C63	C	0.994454	-0.478364	-0.331597
C64	C	1.494454	0.021636	0.168403
C65	C	0.991146	-0.556572	-0.335248
C66	C	1.491146	-0.056572	0.164752
C67	C	1.034614	-0.591383	-0.287853
C68	C	1.534614	-0.091383	0.212147
C69	C	1.031508	-0.664867	-0.291291
C70	C	1.531508	-0.164867	0.208709
C71	C	0.984929	-0.703538	-0.342121
C72	C	1.484929	-0.203538	0.157879
C73	C	0.941460	-0.668722	-0.389522
C74	C	1.441460	-0.168722	0.110478
C75	C	0.944570	-0.595239	-0.386087
C76	C	1.444570	-0.095239	0.113913
C77	C	0.973288	-0.925505	-0.354953
C78	C	1.473288	-0.425505	0.145047
C79	C	0.970180	-0.998993	-0.358383
C80	C	1.470180	-0.498993	0.141617
C81	C	1.060229	-0.995134	-0.260153
C82	C	1.560229	-0.495134	0.239847
C83	C	1.063332	-0.921650	-0.256719
C84	C	1.563332	-0.421650	0.243281
C85	C	1.019865	-0.886839	-0.304122
C86	C	1.519865	-0.386839	0.195878
C87	C	0.981751	-0.778651	-0.345635
C88	C	1.481751	-0.278651	0.154365
C89	C	1.023047	-0.811728	-0.300611
C90	C	1.523047	-0.311728	0.199389
C91	C	1.185860	-0.287725	-0.314609
C92	C	1.685860	0.212275	0.185391
C93	C	1.264067	-0.284392	-0.310986
C94	C	1.764067	0.215608	0.189014
C95	C	1.002381	-0.295497	-0.515062
C96	C	1.502381	0.204503	-0.015062
C97	C	1.002400	-0.295475	-0.596859
C98	C	1.502400	0.204525	-0.096859
C99	C	1.010267	-0.112015	-0.314611
C100	C	1.510267	0.387985	0.185389
C101	C	1.013647	-0.033805	-0.310988
C102	C	1.513647	0.466195	0.189012
C103	C	1.049365	-0.248510	-0.780881
C104	C	1.549365	0.251490	-0.280881
C105	C	1.049374	-0.248489	-0.857739
C106	C	1.549374	0.251511	-0.357739
C107	C	0.955489	-0.342329	-0.866067
C108	C	1.455489	0.157671	-0.366067
C109	C	0.955477	-0.342346	-0.789211
C110	C	1.455477	0.157654	-0.289211
C111	C	1.002419	-0.295438	-0.746620
C112	C	1.502419	0.204562	-0.246620
C113	C	1.002440	-0.295400	-0.900333
C114	C	1.502440	0.204600	-0.400333
C115	C	1.002450	-0.295378	-0.983666
C116	C	1.502450	0.204622	-0.483666
C117	C	1.002408	-0.295459	-0.663282
C118	C	1.502408	0.204541	-0.163282
C119	C	1.002334	-0.295545	-0.131907
C120	C	1.502334	0.204455	0.368093
C121	C	1.002459	-0.295362	-0.050094
C122	C	1.502459	0.204638	0.449906
H123	H	0.274364	-0.202352	-0.221624
H124	H	0.774364	0.297648	0.278376
Br125	Br	0.466776	-0.379489	-0.414517
Br126	Br	0.966776	0.120511	0.085483
H127	H	0.400731	-0.360145	-0.393471
H128	H	0.900731	0.139855	0.106529
Br129	Br	0.891753	-0.406032	-0.742708
Br130	Br	1.391753	0.093968	-0.242708
Br131	Br	0.538615	-0.211602	-0.231679
Br132	Br	1.038615	0.288398	0.268321
Br133	Br	0.918540	-0.831139	-0.414619
Br134	Br	1.418540	-0.331139	0.085381
H135	H	0.917272	-0.380522	-0.900754
H136	H	1.417272	0.119478	-0.400754
H137	H	0.267426	-0.365844	-0.399708
H138	H	0.767426	0.134156	0.100292
H139	H	0.903538	-0.700213	-0.430913
H140	H	1.403538	-0.200213	0.069087
Br141	Br	0.576720	-0.419749	-0.458388
Br142	Br	1.076720	0.080251	0.041612
H143	H	0.407682	-0.196651	-0.215396
H144	H	0.907682	0.303349	0.284604
H145	H	1.087602	-0.210275	-0.885631
H146	H	1.587602	0.289725	-0.385631
Br147	Br	1.097824	-0.538908	-0.218858
Br148	Br	1.597824	-0.038908	0.281142
Br149	Br	1.126557	-0.869172	-0.187741
Br150	Br	1.626557	-0.369172	0.312259
H151	H	0.731024	-0.388726	-0.424584
H152	H	1.231024	0.111274	0.075416
Br153	Br	1.086263	-0.759245	-0.231633
Br154	Br	1.586263	-0.259245	0.268367
Br155	Br	1.119220	-1.042380	-0.195827
Br156	Br	1.619220	-0.542380	0.304173
Br157	Br	0.885580	-0.547993	-0.450417
Br158	Br	1.385580	-0.047993	0.049583
Br159	Br	0.758952	-0.199918	-0.218931
Br160	Br	1.258952	0.300082	0.281069
H161	H	0.604655	-0.230946	-0.252723
H162	H	1.104655	0.269054	0.247277
H163	H	0.932258	-1.030477	-0.399788
H164	H	1.432258	-0.530477	0.100212
H165	H	1.066903	-0.693207	-0.252696
H166	H	1.566903	-0.193207	0.247304
H167	H	0.937894	-0.897169	-0.393550
H168	H	1.437894	-0.397169	0.106450
H169	H	1.087586	-0.210312	-0.746206
H170	H	1.587586	0.289688	-0.246206
