data_functionalizedCrystal
_audit_creation_method	'MofGen! by Chris Wilmer'
_symmetry_space_group_name_H-M	'P1'
_symmetry_Int_Tables_number	1
_symmetry_cell_setting	triclinic
loop_
_symmetry_equiv_pos_as_xyz
  x,y,z
_cell_length_a	14.044191
_cell_length_b	13.101039
_cell_length_c	11.026607
_cell_angle_alpha	94.101887
_cell_angle_beta	79.111103
_cell_angle_gamma	93.662449
loop_
_atom_site_label
_atom_site_type_symbol
_atom_site_fract_x
_atom_site_fract_y
_atom_site_fract_z
O1	O	1.312721	0.085157	-0.291867
O2	O	1.812721	0.585157	0.208133
O3	O	1.034916	0.085171	-0.281101
O4	O	1.534916	0.585171	0.218899
O5	O	1.150794	0.085161	-0.107338
O6	O	1.650794	0.585161	0.392662
O7	O	1.196843	0.085167	-0.465629
O8	O	1.696843	0.585167	0.034371
O9	O	1.142484	-0.085268	-0.119827
O10	O	1.642484	0.414732	0.380173
O11	O	1.026605	-0.085259	-0.293590
O12	O	1.526605	0.414741	0.206410
O13	O	1.304411	-0.085272	-0.304356
O14	O	1.804411	0.414728	0.195644
Zn15	Zn	1.164189	-0.112324	-0.300956
Zn16	Zn	1.664189	0.387676	0.199044
Zn17	Zn	1.175138	0.112223	-0.284501
Zn18	Zn	1.675138	0.612223	0.215499
O19	O	1.188533	-0.085263	-0.478119
O20	O	1.688533	0.414737	0.021881
C21	C	0.994642	-0.000042	-0.282636
C22	C	1.494642	0.499958	0.217364
C23	C	0.887020	-0.000037	-0.268588
C24	C	1.387020	0.499963	0.231412
N25	N	1.156723	-0.265572	-0.312187
N26	N	1.656723	0.234428	0.187813
C27	C	0.649350	-0.000046	-0.342534
C28	C	1.149350	0.499954	0.157466
C29	C	0.689983	-0.000046	-0.242927
C30	C	1.189983	0.499954	0.257073
C31	C	0.799625	-0.000041	-0.257208
C32	C	1.299625	0.499959	0.242792
C33	C	0.539699	-0.000051	-0.328255
C34	C	1.039699	0.499949	0.171745
C35	C	1.146568	-0.474614	-0.327478
C36	C	1.646568	0.025386	0.172522
C37	C	1.192762	-0.525494	-0.257973
C38	C	1.692762	-0.025494	0.242027
C39	C	1.187112	-0.641812	-0.266482
C40	C	1.687112	-0.141812	0.233518
C41	C	1.152217	-0.358286	-0.318971
C42	C	1.652217	0.141714	0.181029
C43	C	1.344684	-0.000057	-0.302821
C44	C	1.844684	0.499943	0.197179
C45	C	1.452307	-0.000055	-0.316868
C46	C	1.952307	0.499945	0.183132
C47	C	1.138144	-0.000052	-0.067452
C48	C	1.638144	0.499948	0.432548
C49	C	1.112820	-0.000047	0.070005
C50	C	1.612820	0.499953	0.570005
N51	N	1.182609	0.265471	-0.273261
N52	N	1.682609	0.765471	0.226739
C53	C	1.201183	-0.000047	-0.518005
C54	C	1.701183	0.499953	-0.018005
C55	C	1.226507	-0.000045	-0.655461
C56	C	1.726507	0.499955	-0.155461
C57	C	1.182744	-0.000049	0.136239
C58	C	1.682744	0.499951	0.636239
C59	C	1.156572	-0.000044	0.278307
C60	C	1.656572	0.499956	0.778307
H61	H	0.696904	-0.000042	-0.438529
H62	H	1.196904	0.499958	0.061471
C63	C	0.626417	0.000016	-0.115016
C64	C	1.126417	0.500016	0.384984
C65	C	0.528733	0.000044	-0.126089
C66	C	1.028733	0.500044	0.373911
C67	C	0.470146	0.000122	-0.008288
C68	C	0.970146	0.500122	0.491712
H69	H	0.636741	-0.059394	-0.075606
H70	H	1.136741	0.440606	0.424394
H71	H	0.642605	0.059479	-0.067010
H72	H	1.142605	0.559479	0.432990
H73	H	0.512551	-0.059412	-0.174076
H74	H	1.012551	0.440588	0.325924
H75	H	0.518379	0.059450	-0.165478
H76	H	1.018379	0.559450	0.334522
H77	H	0.486334	0.059584	0.039718
H78	H	0.986334	0.559584	0.539718
H79	H	0.480478	-0.059289	0.031113
H80	H	0.980478	0.440711	0.531113
H81	H	0.403862	0.000150	-0.015784
H82	H	0.903862	0.500150	0.484216
C83	C	1.050849	0.000017	0.342696
C84	C	1.550849	0.500017	0.842696
C85	C	0.991412	0.000043	0.254059
C86	C	1.491412	0.500043	0.754059
C87	C	0.894018	0.000113	0.313329
C88	C	1.394018	0.500113	0.813329
H89	H	1.035029	-0.059396	0.388520
H90	H	1.535029	0.440604	0.888520
H91	H	1.040918	0.059477	0.397192
H92	H	1.540918	0.559477	0.897192
H93	H	1.001338	-0.059411	0.199585
H94	H	1.501338	0.440589	0.699585
H95	H	1.007201	0.059451	0.208230
H96	H	1.507201	0.559451	0.708230
H97	H	0.884087	0.059573	0.367825
H98	H	1.384087	0.559573	0.867825
H99	H	0.878208	-0.059300	0.359152
H100	H	1.378208	0.440700	0.859152
H101	H	0.853679	0.000141	0.253200
H102	H	1.353679	0.500141	0.753200
H103	H	1.236555	-0.481695	-0.192080
H104	H	1.736555	0.018305	0.307920
H105	H	1.102779	-0.518408	-0.393369
H106	H	1.602779	-0.018408	0.106631
H107	H	1.261985	-0.000059	0.087766
H108	H	1.761985	0.499941	0.587766
H109	H	1.305758	0.000028	0.296079
H110	H	1.805758	0.500028	0.796079
H111	H	1.033579	-0.000036	0.118477
H112	H	1.533579	0.499964	0.618477
