data_functionalizedCrystal
_audit_creation_method	'MofGen! by Chris Wilmer'
_symmetry_space_group_name_H-M	'P1'
_symmetry_Int_Tables_number	1
_symmetry_cell_setting	triclinic
loop_
_symmetry_equiv_pos_as_xyz
  x,y,z
_cell_length_a	17.699083
_cell_length_b	11.026607
_cell_length_c	16.176319
_cell_angle_alpha	89.996049
_cell_angle_beta	89.998611
_cell_angle_gamma	95.934516
loop_
_atom_site_label
_atom_site_type_symbol
_atom_site_fract_x
_atom_site_fract_y
_atom_site_fract_z
O1	O	1.025155	0.153399	-0.068626
O2	O	0.807518	0.173357	-0.068652
O3	O	0.898299	-0.013222	-0.068638
O4	O	0.934374	0.339978	-0.068640
O5	O	0.898282	-0.013234	0.068855
O6	O	0.807501	0.173345	0.068841
O7	O	1.025137	0.153387	0.068867
Cu8	Cu	0.916317	0.163365	0.081408
Cu9	Cu	0.916338	0.163379	-0.081193
O10	O	0.934357	0.339966	0.068853
C11	C	0.779214	0.172636	0.000091
C12	C	0.694902	0.170490	0.000080
C13	C	0.891635	-0.058419	0.000106
C14	C	0.871796	-0.193075	0.000101
C15	C	0.661328	0.280008	0.000080
C16	C	0.582106	0.277985	0.000091
C17	C	0.536460	0.166443	0.000096
C18	C	0.570039	0.056917	0.000099
C19	C	0.649259	0.058941	0.000094
C20	C	0.250554	0.048751	0.000119
C21	C	0.171329	0.046735	0.000121
C22	C	0.183402	0.267794	0.000116
C23	C	0.262621	0.269819	0.000111
C24	C	0.296194	0.160293	0.000118
C25	C	0.382094	0.162488	0.000108
C26	C	0.450561	0.164247	0.000100
C27	C	0.926576	-0.267042	0.000107
C28	C	0.906072	-0.406216	0.000101
C29	C	1.053441	0.154108	0.000122
C30	C	1.137754	0.156254	0.000127
C31	C	0.941021	0.385163	0.000107
C32	C	0.960860	0.519819	0.000106
N33	N	0.916308	0.163354	0.195773
N34	N	0.916352	0.163380	-0.195559
C35	C	0.956526	0.080771	0.239044
C36	C	0.956530	0.080770	0.325591
C37	C	0.916320	0.163358	0.368866
C38	C	0.876097	0.245946	0.325590
C39	C	0.876089	0.245940	0.239044
C40	C	0.876126	0.245969	0.674618
C41	C	0.876138	0.245970	0.761169
C42	C	0.956566	0.080798	0.761165
C43	C	0.956559	0.080792	0.674619
C44	C	0.916333	0.163375	0.631350
C45	C	0.916328	0.163374	0.537506
C46	C	0.916328	0.163366	0.462709
H47	H	0.554775	0.367165	0.000090
C48	C	0.950283	-0.084519	0.577478
C49	C	1.000660	-0.010205	0.627132
H50	H	0.977482	-0.140758	0.548184
H51	H	0.912811	-0.127864	0.611306
H52	H	0.926403	-0.035333	0.539259
H53	H	1.024536	-0.059391	0.665355
H54	H	1.038146	0.033143	0.593301
H55	H	0.843339	0.313186	0.203814
C56	C	1.036056	-0.082466	0.316893
C57	C	1.000753	-0.009990	0.373154
H58	H	1.063364	-0.138491	0.346258
H59	H	0.998619	-0.126054	0.283151
H60	H	1.070137	-0.032004	0.283124
H61	H	0.966668	-0.060452	0.406919
H62	H	1.038194	0.033601	0.406910
C63	C	1.059432	-0.354714	-0.070558
C64	C	1.044671	-0.426598	0.000118
H65	H	1.111172	-0.321629	-0.070547
H66	H	1.049424	-0.403471	-0.118498
H67	H	1.027718	-0.290276	-0.070553
H68	H	1.076382	-0.491042	0.000109
H69	H	1.054687	-0.377839	0.048069
C70	C	0.266595	0.488132	0.000117
C71	C	0.312795	0.392429	0.000110
H72	H	0.297571	0.563826	0.000124
H73	H	0.235448	0.482755	-0.047826
H74	H	0.235443	0.482729	0.048068
H75	H	0.343943	0.397827	-0.047844
H76	H	0.343955	0.397809	0.048058
C77	C	0.972398	-0.129297	0.787813
C78	C	1.000774	-0.009996	0.808729
H79	H	0.999693	-0.185344	0.817173
H80	H	0.920115	-0.142361	0.802006
H81	H	0.978153	-0.141098	0.730075
H82	H	0.995013	0.001809	0.866466
H83	H	1.053069	0.003073	0.794541
H84	H	0.843392	0.313226	0.796403
H85	H	0.532868	-0.033903	0.000115
H86	H	0.843374	0.313212	0.639395
C87	C	0.783899	-0.374164	0.000088
C88	C	0.787989	-0.246666	0.000090
H89	H	0.732159	-0.407243	0.000086
H90	H	0.808381	-0.400850	-0.047854
H91	H	0.808375	-0.400865	0.048040
H92	H	0.763518	-0.219964	-0.047865
H93	H	0.763497	-0.219969	0.048037
C94	C	0.264644	-0.139044	-0.070562
C95	C	0.287448	-0.071640	0.000118
H96	H	0.287427	-0.213369	-0.070564
H97	H	0.210938	-0.156199	-0.070555
H98	H	0.280116	-0.093282	-0.118504
H99	H	0.271972	-0.117399	0.048060
H100	H	0.341167	-0.054488	0.000118
H101	H	0.989274	0.013523	0.203815
H102	H	0.843990	-0.445918	0.000088
H103	H	0.676594	-0.030240	0.000094
C104	C	0.776725	0.272477	0.422937
C105	C	0.831897	0.336727	0.373160
H106	H	0.749443	0.328527	0.452308
H107	H	0.742630	0.222049	0.389184
H108	H	0.800689	0.223297	0.461090
H109	H	0.807932	0.385901	0.335003
H110	H	0.865997	0.387177	0.406917
C111	C	0.757409	0.410546	-0.070616
C112	C	0.711496	0.402622	0.000070
H113	H	0.788375	0.486250	-0.070622
H114	H	0.788743	0.345623	-0.070611
H115	H	0.726242	0.405159	-0.118554
H116	H	0.742663	0.408000	0.048008
H117	H	0.680159	0.467564	0.000073
C118	C	0.101308	0.393776	-0.070556
C119	C	0.146495	0.388189	0.000118
H120	H	0.078522	0.468098	-0.070553
H121	H	0.131960	0.389975	-0.118497
H122	H	0.062788	0.327052	-0.070541
H123	H	0.185019	0.454909	0.000099
H124	H	0.115841	0.392002	0.048071
H125	H	0.988654	-0.227333	0.000119
H126	H	0.134166	-0.044102	0.000127
