data_functionalizedCrystal
_audit_creation_method	'MofGen! by Chris Wilmer'
_symmetry_space_group_name_H-M	'P1'
_symmetry_Int_Tables_number	1
_symmetry_cell_setting	triclinic
loop_
_symmetry_equiv_pos_as_xyz
  x,y,z
_cell_length_a	10.654550
_cell_length_b	10.654551
_cell_length_c	9.130313
_cell_angle_alpha	90.001552
_cell_angle_beta	89.996220
_cell_angle_gamma	84.485132
loop_
_atom_site_label
_atom_site_type_symbol
_atom_site_fract_x
_atom_site_fract_y
_atom_site_fract_z
O1	O	1.667835	0.176393	-0.121910
O2	O	1.302356	0.193199	-0.121885
O3	O	1.493498	0.002057	-0.121899
O4	O	1.476693	0.367535	-0.121896
O5	O	1.493496	0.002062	0.121700
O6	O	1.302354	0.193204	0.121713
O7	O	1.667832	0.176398	0.121689
Cu8	Cu	1.485093	0.184802	0.143944
Cu9	Cu	1.485096	0.184796	-0.144140
O10	O	1.476691	0.367540	0.121703
C11	C	1.255557	0.191968	-0.000083
C12	C	1.116114	0.188276	-0.000074
C13	C	1.036629	0.300817	-0.000095
C14	C	0.905608	0.297341	-0.000120
C15	C	0.933570	0.068771	-0.000110
C16	C	1.064589	0.072249	-0.000074
C17	C	1.088154	0.416844	-0.000094
C18	C	1.008667	0.529395	-0.000116
C19	C	0.877647	0.525918	-0.000142
C20	C	0.826112	0.409891	-0.000145
C21	C	1.492263	-0.044739	-0.000103
C22	C	1.488570	-0.184182	-0.000112
C23	C	1.486839	-0.249696	-0.132895
C24	C	1.483359	-0.380717	-0.132888
C25	C	1.483346	-0.380697	0.132696
C26	C	1.486817	-0.249678	0.132688
C27	C	1.488592	-0.184201	-0.265696
C28	C	1.486863	-0.249716	-0.398490
C29	C	1.483382	-0.380736	-0.398483
C30	C	1.481632	-0.446241	-0.265682
C31	C	1.714632	0.177629	-0.000117
C32	C	1.854075	0.181321	-0.000135
C33	C	1.477926	0.414336	-0.000097
C34	C	1.481619	0.553779	-0.000097
N35	N	1.485100	0.184805	0.346566
N36	N	1.485098	0.184782	-0.346763
C37	C	1.569760	0.100196	0.423212
C38	C	1.569756	0.100181	0.576549
C39	C	1.400430	0.269395	0.576581
C40	C	1.400428	0.269403	0.423246
C41	C	1.654431	0.015599	0.346532
C42	C	1.739099	-0.069016	0.423178
C43	C	1.739095	-0.069031	0.576515
C44	C	1.654425	0.015569	0.653206
H45	H	0.812931	0.617562	-0.000145
H46	H	0.891600	-0.025693	-0.000137
H47	H	1.050636	0.623860	-0.000101
C48	C	1.832229	-0.162076	0.338827
C49	C	1.832251	-0.162057	0.170166
C50	C	1.925383	-0.255120	0.085820
C51	C	2.018493	-0.348203	0.170135
C52	C	2.018475	-0.348225	0.338806
C53	C	1.925343	-0.255162	0.423152
H54	H	1.763322	-0.093148	0.107743
H55	H	1.925396	-0.255103	-0.039042
H56	H	2.087435	-0.417094	0.107696
H57	H	2.087403	-0.417133	0.401229
H58	H	1.925330	-0.255179	0.548014
C59	C	1.152030	-0.051547	-0.000060
C60	C	1.245983	-0.080588	-0.126527
C61	C	1.333424	-0.204388	-0.126506
C62	C	1.326911	-0.299147	-0.000018
C63	C	1.232955	-0.270108	0.126459
C64	C	1.145514	-0.146308	0.126438
H65	H	1.250807	-0.010440	-0.220170
H66	H	1.402976	-0.225883	-0.220134
H67	H	1.391640	-0.390790	-0.000003
H68	H	1.228131	-0.340256	0.220101
H69	H	1.075961	-0.124813	0.220065
C70	C	1.481431	-0.452755	0.278766
C71	C	1.370182	-0.529519	0.315289
C72	C	1.368270	-0.601577	0.461360
C73	C	1.477608	-0.596872	0.570908
C74	C	1.588865	-0.520105	0.534387
C75	C	1.590776	-0.448046	0.388316
H76	H	1.289236	-0.533005	0.234193
H77	H	1.285910	-0.658406	0.488394
H78	H	1.476193	-0.650214	0.679038
H79	H	1.669811	-0.516619	0.615483
H80	H	1.673137	-0.391218	0.361282
C81	C	1.488720	-0.177597	0.278746
C82	C	1.379372	-0.182287	0.388298
C83	C	1.381265	-0.110203	0.534357
C84	C	1.492508	-0.033429	0.570865
C85	C	1.601865	-0.028736	0.461310
C86	C	1.599971	-0.100820	0.315250
H87	H	1.297016	-0.239122	0.361275
H88	H	1.300312	-0.113677	0.615457
H89	H	1.493910	0.019932	0.678987
H90	H	1.684220	0.028099	0.488332
H91	H	1.680925	-0.097346	0.234151
H92	H	1.478779	-0.552925	-0.265687
H93	H	0.719425	0.407069	-0.000143
H94	H	1.491429	-0.077518	-0.265716
H95	H	1.654444	0.015606	0.221678
H96	H	1.194836	0.419687	-0.000080
H97	H	1.488276	-0.196371	-0.506611
H98	H	1.808026	-0.137936	0.638919
H99	H	1.481961	-0.434073	-0.506609
H100	H	1.654420	0.015541	0.778063
H101	H	1.331496	0.338274	0.639032
H102	H	1.331490	0.338298	0.360841
