data_functionalizedCrystal
_audit_creation_method	'MofGen! by Chris Wilmer'
_symmetry_space_group_name_H-M	'P1'
_symmetry_Int_Tables_number	1
_symmetry_cell_setting	triclinic
loop_
_symmetry_equiv_pos_as_xyz
  x,y,z
_cell_length_a	14.908571
_cell_length_b	17.640280
_cell_length_c	14.908694
_cell_angle_alpha	81.377015
_cell_angle_beta	83.592472
_cell_angle_gamma	74.921313
loop_
_atom_site_label
_atom_site_type_symbol
_atom_site_fract_x
_atom_site_fract_y
_atom_site_fract_z
Zn1	Zn	1.504199	-0.416132	-0.500831
Zn2	Zn	1.522460	-0.540223	-0.322426
Zn3	Zn	1.340571	-0.399965	-0.344289
Zn4	Zn	1.379879	-0.540161	-0.465038
O5	O	1.436777	-0.474120	-0.408146
O6	O	1.634771	-0.439384	-0.482995
O7	O	1.489524	-0.514877	-0.200130
O8	O	1.338183	-0.291504	-0.389184
O9	O	1.648188	-0.530554	-0.351922
O10	O	1.458400	-0.303382	-0.504195
O11	O	1.355891	-0.411830	-0.216192
O12	O	1.217635	-0.411770	-0.354477
O13	O	1.405178	-0.530449	-0.594983
O14	O	1.246515	-0.514772	-0.443190
O15	O	1.496515	-0.439325	-0.621280
O16	O	1.527640	-0.650820	-0.317215
O17	O	1.422886	-0.650775	-0.421991
C18	C	1.198847	-0.461511	-0.397322
C19	C	1.097065	-0.456137	-0.392709
C20	C	1.481536	-0.679479	-0.363367
C21	C	1.500770	-0.767338	-0.344244
C22	C	0.935951	-0.553443	-0.476230
C23	C	0.840319	-0.548396	-0.471898
C24	C	0.810166	-0.440993	-0.379719
C25	C	0.905799	-0.446040	-0.384051
C26	C	0.968688	-0.502267	-0.432307
C27	C	1.064323	-0.507317	-0.436633
C28	C	1.034169	-0.399911	-0.344460
C29	C	0.938536	-0.394865	-0.340128
C30	C	1.291057	-1.056285	-0.553764
C31	C	1.309130	-1.138841	-0.535766
C32	C	1.418291	-1.138833	-0.426782
C33	C	1.400231	-1.056275	-0.444773
C34	C	1.336612	-1.015008	-0.508264
C35	C	1.445786	-1.014998	-0.399274
C36	C	1.427723	-0.932448	-0.417261
C37	C	1.364105	-0.891175	-0.480747
C38	C	1.318549	-0.932458	-0.526251
C39	C	1.509399	-1.056267	-0.335778
C40	C	1.554954	-1.014990	-0.290279
C41	C	1.536896	-0.932438	-0.308270
C42	C	1.473278	-0.891165	-0.371756
C43	C	1.582452	-0.891156	-0.262766
C44	C	1.564389	-0.808605	-0.280753
C45	C	1.455215	-0.808615	-0.389743
C46	C	1.675636	-0.486779	-0.419012
C47	C	1.777424	-0.492174	-0.423643
C48	C	1.453194	-0.486684	-0.641501
C49	C	1.460190	-0.492037	-0.740943
C50	C	1.391870	-0.267962	-0.453121
C51	C	1.372733	-0.180110	-0.472286
C52	C	1.334163	-0.394796	-0.944531
C53	C	1.340733	-0.399823	-1.037966
C54	C	1.479895	-0.507123	-1.021249
C55	C	1.473325	-0.502096	-0.927814
C56	C	1.400458	-0.445929	-0.889459
C57	C	1.393892	-0.440898	-0.796023
C58	C	1.533050	-0.548202	-0.779306
C59	C	1.539620	-0.553229	-0.872741
C60	C	1.420464	-0.461551	-0.175714
C61	C	1.413597	-0.455984	-0.076329
H62	H	1.115527	-0.553102	-0.475924
H63	H	1.274838	-0.349056	-0.913304
O64	O	0.749104	-0.386260	-0.332977
C65	C	0.687537	-0.247875	-0.317786
C66	C	0.756707	-0.309784	-0.370809
H67	H	0.693674	-0.186032	-0.348340
H68	H	0.613529	-0.252973	-0.322250
H69	H	0.704247	-0.258800	-0.243461
H70	H	0.740083	-0.298898	-0.445154
H71	H	0.830694	-0.304671	-0.366269
O72	O	1.276281	-0.350067	-1.091341
C73	C	1.137525	-0.243142	-1.098049
C74	C	1.210470	-0.299431	-1.037502
H75	H	1.084287	-0.202199	-1.054542
H76	H	1.173581	-0.206335	-1.152707
H77	H	1.100669	-0.279265	-1.131721
H78	H	1.247349	-0.263369	-1.003768
H79	H	1.174362	-0.336239	-0.982897
H80	H	1.587035	-0.589836	-0.734457
O81	O	0.877566	-0.340181	-0.293247
C82	C	0.857760	-0.234224	-0.202219
C83	C	0.926905	-0.296102	-0.255303
H84	H	0.897625	-0.198581	-0.171511
H85	H	0.806900	-0.192745	-0.250307
H86	H	0.817562	-0.265583	-0.145484
H87	H	0.967167	-0.264811	-0.312039
H88	H	0.977704	-0.337578	-0.207156
O89	O	0.996916	-0.608083	-0.523172
C90	C	1.016739	-0.714117	-0.614089
C91	C	0.947595	-0.652262	-0.560976
H92	H	0.976892	-0.749863	-0.644653
H93	H	1.056905	-0.682817	-0.670915
H94	H	1.067626	-0.755502	-0.565960
H95	H	0.896651	-0.610859	-0.609034
H96	H	0.907498	-0.683614	-0.504140
O97	O	0.808357	-0.598026	-0.514542
C98	C	0.674400	-0.637885	-0.548675
C99	C	0.710467	-0.581617	-0.500353
H100	H	0.595254	-0.624650	-0.537204
H101	H	0.695224	-0.628975	-0.624716
H102	H	0.706038	-0.701733	-0.519824
H103	H	0.678848	-0.517748	-0.529129
H104	H	0.689655	-0.590597	-0.424316
O105	O	1.066122	-0.350234	-0.301874
C106	C	1.200090	-0.310449	-0.267634
C107	C	1.164026	-0.366738	-0.315926
H108	H	1.279251	-0.323783	-0.278962
H109	H	1.168576	-0.246579	-0.296505
H110	H	1.179138	-0.319347	-0.191621
H111	H	1.184968	-0.357910	-0.391943
H112	H	1.195536	-0.430586	-0.286982
H113	H	1.403418	-0.775014	-0.441451
H114	H	1.539210	-0.552861	-1.052491
H115	H	1.349392	-0.823957	-0.495384
O116	O	1.256705	-0.892484	-0.587938
C117	C	1.150397	-0.901202	-0.694217
C118	C	1.220386	-0.946568	-0.624363
H119	H	1.121028	-0.944910	-0.723701
H120	H	1.091148	-0.857862	-0.659387
H121	H	1.187256	-0.867245	-0.751328
H122	H	1.183610	-0.980571	-0.567234
H123	H	1.279630	-0.989861	-0.659260
H124	H	1.239259	-1.022685	-0.605471
O125	O	1.610363	-0.607718	-0.910157
C126	C	1.682126	-0.663052	-1.046679
C127	C	1.601972	-0.601296	-1.004431
H128	H	1.675358	-0.657892	-1.122902
H129	H	1.751676	-0.652095	-1.034769
H130	H	1.678647	-0.724934	-1.013620
H131	H	1.605362	-0.539389	-1.037462
H132	H	1.532456	-0.612322	-1.016331
H133	H	1.272040	-1.172447	-0.572833
H134	H	1.470087	-1.172443	-0.375085
O135	O	1.323220	-0.386263	-0.758747
C136	C	1.280218	-0.273249	-0.675926
C137	C	1.360347	-0.335063	-0.718116
H138	H	1.310206	-0.231848	-0.643049
H139	H	1.233964	-0.237511	-0.731315
H140	H	1.237156	-0.304669	-0.622122
H141	H	1.403477	-0.303708	-0.771910
H142	H	1.406534	-0.370799	-0.662675
H143	H	1.524106	-1.123485	-0.321138
O144	O	1.616742	-1.055204	-0.228651
C145	C	1.692882	-1.182365	-0.152568
C146	C	1.622907	-1.136926	-0.222405
H147	H	1.697874	-1.248444	-0.147481
H148	H	1.764296	-1.170909	-0.175222
H149	H	1.668226	-1.161367	-0.083245
H150	H	1.647477	-1.157896	-0.291751
H151	H	1.551508	-1.148383	-0.199674
H152	H	1.634243	-0.924767	-0.211065
H153	H	1.601484	-0.774997	-0.243702
