data_functionalizedCrystal
_audit_creation_method	'MofGen! by Chris Wilmer'
_symmetry_space_group_name_H-M	'P1'
_symmetry_Int_Tables_number	1
_symmetry_cell_setting	triclinic
loop_
_symmetry_equiv_pos_as_xyz
  x,y,z
_cell_length_a	16.109301
_cell_length_b	23.532407
_cell_length_c	14.586319
_cell_angle_alpha	89.991566
_cell_angle_beta	89.999213
_cell_angle_gamma	83.155079
loop_
_atom_site_label
_atom_site_type_symbol
_atom_site_fract_x
_atom_site_fract_y
_atom_site_fract_z
O1	O	1.102555	0.073202	-0.076192
O2	O	0.860422	0.082312	-0.076208
O3	O	0.988790	-0.005148	-0.076183
O4	O	0.974187	0.160662	-0.076217
O5	O	0.988781	-0.005149	0.076298
O6	O	0.860413	0.082311	0.076273
O7	O	1.102546	0.073201	0.076289
Cu8	Cu	0.981479	0.077756	0.090204
Cu9	Cu	0.981489	0.077757	-0.090123
O10	O	0.974178	0.160660	0.076264
C11	C	0.829445	0.081942	0.000031
C12	C	0.737159	0.080836	0.000026
C13	C	0.988414	-0.026366	0.000060
C14	C	0.987296	-0.089587	0.000067
C15	C	0.514498	0.130160	0.000026
C16	C	0.427786	0.129116	0.000032
C17	C	0.448476	0.025348	0.000050
C18	C	0.535187	0.026393	0.000050
C19	C	0.568195	0.078801	0.000034
C20	C	0.394773	0.076712	0.000039
C21	C	0.300755	0.075580	0.000046
C22	C	0.662218	0.079933	0.000029
C23	C	1.056249	-0.488436	0.000021
C24	C	1.055210	-0.547840	0.000014
O25	O	1.119130	-0.584349	-0.000015
N26	N	0.978895	-0.570748	0.000010
C27	C	0.903614	-0.534248	0.000003
O28	O	0.838607	-0.559187	-0.000002
C29	C	0.904654	-0.474845	0.000004
C30	C	0.980973	-0.451941	0.000018
C31	C	1.132562	-0.465531	0.000034
C32	C	1.133601	-0.406131	0.000043
C33	C	1.058325	-0.369636	0.000039
C34	C	0.982012	-0.392541	0.000026
C35	C	0.829373	-0.438346	-0.000009
C36	C	0.830419	-0.378940	-0.000009
C37	C	0.906739	-0.356036	0.000004
C38	C	0.907774	-0.296645	0.000031
N39	N	0.984089	-0.273738	0.000035
C40	C	1.059365	-0.310233	0.000039
C41	C	0.901437	-0.658998	0.000001
C42	C	0.900396	-0.718400	0.000007
C43	C	1.051993	-0.731988	0.000016
C44	C	1.053032	-0.672585	0.000017
C45	C	0.977752	-0.636091	0.000005
C46	C	1.061539	-0.185488	0.000058
C47	C	1.062571	-0.126082	0.000071
C48	C	0.910975	-0.112499	0.000057
C49	C	0.909943	-0.171900	0.000049
C50	C	0.985232	-0.208394	0.000047
O51	O	0.843888	-0.260102	0.000057
O52	O	1.124361	-0.285285	0.000032
C53	C	1.133523	0.073570	0.000048
C54	C	1.225809	0.074677	0.000047
C55	C	0.974554	0.181878	0.000019
C56	C	0.975672	0.245100	0.000006
N57	N	0.981477	0.077754	0.217035
N58	N	0.981497	0.077754	-0.216954
C59	C	1.038338	0.039040	0.452053
C60	C	1.038340	0.039039	0.548034
C61	C	0.924631	0.116470	0.548021
C62	C	0.924625	0.116468	0.452042
C63	C	0.981483	0.077754	0.404060
C64	C	0.981491	0.077754	0.596021
C65	C	0.981494	0.077753	0.700088
C66	C	0.981480	0.077754	0.299986
H67	H	0.541371	0.172834	0.000019
H68	H	0.384069	0.170939	0.000028
O69	O	0.416548	-0.025607	0.000095
C70	C	0.446223	-0.128421	0.000045
C71	C	0.482490	-0.070752	0.000021
H72	H	0.499519	-0.164935	-0.000034
H73	H	0.406172	-0.131548	0.063870
H74	H	0.406120	-0.131468	-0.063756
H75	H	0.522631	-0.067666	0.063779
H76	H	0.522494	-0.067650	-0.063846
H77	H	0.578910	-0.015433	0.000059
O78	O	0.757311	-0.343466	-0.000180
C79	C	0.670529	-0.268479	-0.079151
C80	C	0.753342	-0.308628	-0.079085
H81	H	0.667301	-0.240295	-0.142929
H82	H	0.615776	-0.295029	-0.079220
H83	H	0.667227	-0.240363	-0.015306
H84	H	0.756726	-0.336753	-0.142919
H85	H	0.808056	-0.282044	-0.078968
O86	O	1.136785	-0.103929	0.000040
C87	C	1.287037	-0.123687	0.000101
C88	C	1.203054	-0.148849	0.000118
H89	H	1.340637	-0.159992	0.000184
H90	H	1.291376	-0.096228	-0.063723
H91	H	1.291268	-0.096205	0.063903
H92	H	1.198766	-0.176356	-0.063641
H93	H	1.198751	-0.176275	0.063984
O94	O	0.755162	-0.460491	-0.000067
C95	C	0.604911	-0.440718	-0.000043
C96	C	0.688902	-0.415565	0.000003
H97	H	0.551318	-0.404408	0.000034
H98	H	0.600580	-0.468159	-0.063875
H99	H	0.600661	-0.468216	0.063751
H100	H	0.693209	-0.388042	-0.063747
H101	H	0.693197	-0.388157	0.063878
O102	O	1.093604	0.001511	0.594755
C103	C	1.207283	-0.010589	0.703071
C104	C	1.144729	0.031976	0.650234
H105	H	1.248646	0.014025	0.747923
H106	H	1.171674	-0.039041	0.748076
H107	H	1.247879	-0.038270	0.652269
H108	H	1.104118	0.059693	0.700969
H109	H	1.180390	0.060388	0.605214
H110	H	1.122847	-0.215195	0.000053
O111	O	1.207812	-0.383981	0.000008
C112	C	1.358062	-0.403750	0.000066
C113	C	1.274074	-0.428905	0.000088
H114	H	1.411657	-0.440059	0.000151
H115	H	1.362405	-0.376294	-0.063761
H116	H	1.362299	-0.376267	0.063865
H117	H	1.269780	-0.456414	-0.063668
H118	H	1.269767	-0.456328	0.063957
O119	O	0.869438	0.154155	0.594529
C120	C	0.819930	0.253174	0.623907
C121	C	0.882471	0.210556	0.571168
H122	H	0.830457	0.298783	0.605054
H123	H	0.753386	0.245785	0.605024
H124	H	0.829686	0.246499	0.700746
H125	H	0.872791	0.217206	0.494317
H126	H	0.948992	0.217956	0.590128
O127	O	0.835735	-0.194058	-0.000001
C128	C	0.685482	-0.174304	0.000030
C129	C	0.769464	-0.149140	0.000081
H130	H	0.631880	-0.138000	0.000116
H131	H	0.681156	-0.201740	-0.063808
H132	H	0.681241	-0.201808	0.063818
H133	H	0.773762	-0.121610	-0.063663
H134	H	0.773754	-0.121736	0.063962
O135	O	0.869429	0.154025	0.405274
C136	C	0.819070	0.188361	0.257402
C137	C	0.881608	0.145792	0.310252
H138	H	0.828906	0.181728	0.180568
H139	H	0.752524	0.180930	0.276209
H140	H	0.829520	0.233972	0.276312
H141	H	0.871234	0.100165	0.291370
H142	H	0.948132	0.153273	0.291441
O143	O	1.205670	-0.501000	-0.000123
C144	C	1.292489	-0.575962	-0.079074
C145	C	1.209667	-0.535823	-0.079029
H146	H	1.295740	-0.604135	-0.142852
H147	H	1.347234	-0.549405	-0.079125
H148	H	1.295784	-0.604091	-0.015230
H149	H	1.206291	-0.507686	-0.142862
H150	H	1.154961	-0.562414	-0.078930
H151	H	0.849688	-0.082774	0.000057
H152	H	1.084634	0.007516	0.412989
H153	H	1.115179	-0.653941	0.000027
O154	O	1.125097	-0.767468	-0.000153
C155	C	1.211867	-0.842441	-0.079135
C156	C	1.129062	-0.802283	-0.079067
H157	H	1.215092	-0.870608	-0.142920
H158	H	1.266628	-0.815899	-0.079190
H159	H	1.215157	-0.870575	-0.015297
H160	H	1.125690	-0.774141	-0.142894
H161	H	1.074340	-0.828860	-0.078964
H162	H	0.838249	-0.737043	0.000012
O163	O	0.828227	-0.623630	0.000043
C164	C	0.677756	-0.616435	-0.000015
C165	C	0.760602	-0.656549	-0.000040
H166	H	0.623060	-0.643034	-0.000102
H167	H	0.674388	-0.588301	0.063814
H168	H	0.674494	-0.588265	-0.063812
H169	H	0.763920	-0.684755	0.063714
H170	H	0.763936	-0.684644	-0.063911
