data_functionalizedCrystal
_audit_creation_method	'MofGen! by Chris Wilmer'
_symmetry_space_group_name_H-M	'P1'
_symmetry_Int_Tables_number	1
_symmetry_cell_setting	triclinic
loop_
_symmetry_equiv_pos_as_xyz
  x,y,z
_cell_length_a	19.188905
_cell_length_b	19.188930
_cell_length_c	13.930277
_cell_angle_alpha	89.990320
_cell_angle_beta	89.985661
_cell_angle_gamma	83.139668
loop_
_atom_site_label
_atom_site_type_symbol
_atom_site_fract_x
_atom_site_fract_y
_atom_site_fract_z
O1	O	0.926159	0.087084	-0.080000
O2	O	0.722845	0.098836	-0.079968
O3	O	0.830369	-0.008696	-0.079966
O4	O	0.818635	0.194616	-0.080002
O5	O	0.830354	-0.008698	0.079696
O6	O	0.722830	0.098834	0.079693
O7	O	0.926144	0.087082	0.079662
Zn8	Zn	0.824485	0.092958	0.105028
Zn9	Zn	0.824504	0.092960	-0.105334
O10	O	0.818620	0.194614	0.079660
C11	C	0.696826	0.098458	-0.000133
C12	C	0.619321	0.097324	-0.000120
C13	C	0.582937	0.096781	-0.087154
C14	C	0.510113	0.095708	-0.087166
C15	C	0.473678	0.095164	-0.000139
C16	C	0.510070	0.095711	0.086907
C17	C	0.582891	0.096791	0.086916
N18	N	0.364652	0.053734	0.064634
N19	N	0.295475	0.052707	0.064620
C20	C	0.254272	0.091911	-0.000162
N21	N	0.284860	0.132173	-0.064942
N22	N	0.354043	0.133198	-0.064930
C23	C	0.394716	0.093993	-0.000139
C24	C	0.138924	0.090205	-0.087214
C25	C	0.066098	0.089137	-0.087223
C26	C	0.066058	0.089133	0.086853
C27	C	0.138881	0.090209	0.086859
C28	C	0.175310	0.090742	-0.000178
C29	C	0.829982	-0.034708	-0.000132
C30	C	0.828841	-0.112213	-0.000124
C31	C	0.891933	-0.157142	-0.000129
C32	C	0.890861	-0.229966	-0.000144
C33	C	0.826694	-0.257857	-0.000135
C34	C	0.763594	-0.212917	-0.000135
C35	C	0.764668	-0.140095	-0.000130
N36	N	0.777641	-0.365858	0.054208
N37	N	0.776626	-0.435037	0.054205
C38	C	0.823456	-0.477265	-0.000154
N39	N	0.871351	-0.447703	-0.054498
N40	N	0.872368	-0.378518	-0.054490
C41	C	0.825523	-0.336819	-0.000142
C42	C	0.885390	-0.601159	-0.000177
C43	C	0.884315	-0.673984	-0.000198
C44	C	0.757047	-0.656933	-0.000180
C45	C	0.758123	-0.584110	-0.000168
C46	C	0.822296	-0.556228	-0.000162
C47	C	0.952163	0.087460	-0.000175
C48	C	1.029668	0.088594	-0.000194
C49	C	0.819007	0.220626	-0.000176
C50	C	0.820148	0.298131	-0.000191
N51	N	0.824476	0.092955	0.248594
N52	N	0.824518	0.092957	-0.248900
C53	C	0.776891	0.140557	0.700862
C54	C	0.872137	0.045358	0.700833
C55	C	0.872129	0.045356	0.600338
C56	C	0.824501	0.092956	0.550099
C57	C	0.776882	0.140558	0.600357
C58	C	0.919751	-0.002240	0.550072
C59	C	0.919746	-0.002244	0.449571
C60	C	0.872114	0.045353	0.399331
C61	C	0.824493	0.092957	0.449594
C62	C	0.776866	0.140556	0.399356
C63	C	0.729241	0.188157	0.449618
C64	C	0.729251	0.188155	0.550117
C65	C	0.872104	0.045355	0.298832
C66	C	0.776857	0.140557	0.298851
H67	H	0.168585	0.090646	-0.158085
Br68	Br	0.984393	-0.066832	0.618249
Br69	Br	0.188263	0.090945	0.204983
Br70	Br	0.979024	-0.119304	-0.000148
Br71	Br	0.664623	0.252752	0.618330
H72	H	0.738071	0.179316	0.257953
H73	H	0.942239	-0.266555	-0.000152
H74	H	0.036476	0.088698	-0.158099
Br75	Br	0.632374	0.097505	-0.205274
Br76	Br	0.676510	-0.250767	-0.000135
Br77	Br	0.712254	0.205151	0.769067
H78	H	0.612515	0.097234	0.157792
Br79	Br	0.460724	0.094972	-0.205292
H80	H	0.937644	-0.578456	-0.000177
H81	H	0.036392	0.088695	0.157712
H82	H	0.713289	-0.103513	-0.000125
H83	H	0.935694	-0.710565	-0.000208
H84	H	0.704801	-0.679641	-0.000177
Br85	Br	0.672494	-0.523130	-0.000160
H86	H	0.690465	0.226916	0.408703
Br87	Br	0.936778	-0.019233	0.769010
H88	H	0.958524	-0.041003	0.408654
H89	H	0.480400	0.095270	0.157765
Br90	Br	0.936739	-0.019234	0.230625
