data_functionalizedCrystal
_audit_creation_method	'MofGen! by Chris Wilmer'
_symmetry_space_group_name_H-M	'P1'
_symmetry_Int_Tables_number	1
_symmetry_cell_setting	triclinic
loop_
_symmetry_equiv_pos_as_xyz
  x,y,z
_cell_length_a	21.395362
_cell_length_b	29.839131
_cell_length_c	21.395355
_cell_angle_alpha	90.020172
_cell_angle_beta	90.043940
_cell_angle_gamma	90.057297
loop_
_atom_site_label
_atom_site_type_symbol
_atom_site_fract_x
_atom_site_fract_y
_atom_site_fract_z
Zn1	Zn	0.957813	-0.178715	0.354578
Zn2	Zn	1.457813	0.321285	0.854578
Zn3	Zn	0.957696	-0.253830	0.249798
Zn4	Zn	1.457696	0.246170	0.749798
Zn5	Zn	0.853028	-0.178736	0.249780
Zn6	Zn	1.353028	0.321264	0.749780
Zn7	Zn	0.852977	-0.253840	0.354503
Zn8	Zn	1.352977	0.246160	0.854503
O9	O	0.905378	-0.216280	0.302165
O10	O	1.405378	0.283720	0.802165
O11	O	1.045475	-0.188667	0.340718
O12	O	1.545475	0.311333	0.840718
O13	O	0.943783	-0.243874	0.162117
O14	O	1.443783	0.256126	0.662117
O15	O	0.866998	-0.115866	0.263706
O16	O	1.366998	0.384134	0.763706
O17	O	1.045389	-0.243853	0.263737
O18	O	1.545389	0.256147	0.763737
O19	O	0.943983	-0.115851	0.340701
O20	O	1.443983	0.384149	0.840701
O21	O	0.866884	-0.188702	0.162104
O22	O	1.366884	0.311298	0.662104
O23	O	0.765343	-0.188711	0.263632
O24	O	1.265343	0.311289	0.763632
O25	O	0.866912	-0.243869	0.442191
O26	O	1.366912	0.256131	0.942191
O27	O	0.765306	-0.243889	0.340571
O28	O	1.265306	0.256111	0.840571
O29	O	0.943934	-0.188676	0.442246
O30	O	1.443934	0.311324	0.942246
O31	O	0.943735	-0.316699	0.263663
O32	O	1.443735	0.183301	0.763663
O33	O	0.866798	-0.316705	0.340589
O34	O	1.366798	0.183295	0.840589
C35	C	0.742591	-0.216304	0.302092
C36	C	1.242591	0.283696	0.802092
C37	C	0.672950	-0.216325	0.302076
C38	C	1.172950	0.283675	0.802076
C39	C	0.640233	-0.245094	0.342078
C40	C	1.140233	0.254906	0.842078
C41	C	0.574798	-0.245083	0.342106
C42	C	1.074798	0.254917	0.842106
C43	C	0.542081	-0.216308	0.302120
C44	C	1.042081	0.283692	0.802120
C45	C	0.574805	-0.187533	0.262115
C46	C	1.074805	0.312467	0.762115
C47	C	0.640239	-0.187541	0.262093
C48	C	1.140239	0.312459	0.762093
C49	C	0.438357	-0.212688	0.245715
C50	C	0.938357	0.287312	0.745715
C51	C	0.372925	-0.212683	0.245736
C52	C	0.872925	0.287317	0.745736
C53	C	0.340261	-0.216278	0.302189
C54	C	0.840261	0.283722	0.802189
C55	C	0.373038	-0.219889	0.358623
C56	C	0.873038	0.280111	0.858623
C57	C	0.438472	-0.219897	0.358601
C58	C	0.938472	0.280103	0.858601
C59	C	0.471129	-0.216295	0.302140
C60	C	0.971129	0.283705	0.802140
C61	C	0.236592	-0.245037	0.342226
C62	C	0.736592	0.254963	0.842226
C63	C	0.171155	-0.245023	0.342254
C64	C	0.671155	0.254977	0.842254
C65	C	0.171164	-0.187475	0.262258
C66	C	0.671164	0.312525	0.762258
C67	C	0.236599	-0.187487	0.262235
C68	C	0.736599	0.312513	0.762235
C69	C	0.269309	-0.216270	0.302218
C70	C	0.769309	0.283730	0.802218
C71	C	0.905265	-0.333003	0.302133
C72	C	1.405265	0.166997	0.802133
C73	C	0.905274	-0.382937	0.302141
C74	C	1.405274	0.117063	0.802141
C75	C	0.945512	-0.692564	0.262168
C76	C	1.445512	-0.192564	0.762168
C77	C	0.945589	-0.880237	0.262192
C78	C	1.445589	-0.380237	0.762192
O79	O	0.979711	-0.904488	0.228181
O80	O	1.479711	-0.404488	0.728181
N81	N	0.905508	-0.903722	0.302212
N82	N	1.405508	-0.403722	0.802212
C83	C	0.865408	-0.880286	0.342231
C84	C	1.365408	-0.380286	0.842231
O85	O	0.831323	-0.904567	0.376276
O86	O	1.331323	-0.404567	0.876276
C87	C	0.865334	-0.692614	0.342210
C88	C	1.365334	-0.192614	0.842210
C89	C	0.905414	-0.669131	0.302183
C90	C	1.405414	-0.169131	0.802183
C91	C	0.985588	-0.669082	0.222145
C92	C	1.485588	-0.169082	0.722145
C93	C	0.985566	-0.622166	0.222136
C94	C	1.485566	-0.122166	0.722136
C95	C	0.945468	-0.598733	0.262152
C96	C	1.445468	-0.098733	0.762152
C97	C	0.905391	-0.622216	0.302175
C98	C	1.405391	-0.122216	0.802175
C99	C	0.825238	-0.669178	0.382232
C100	C	1.325238	-0.169178	0.882232
C101	C	0.825224	-0.622257	0.382224
C102	C	1.325224	-0.122257	0.882224
C103	C	0.865303	-0.598775	0.342197
C104	C	1.365303	-0.098775	0.842197
C105	C	0.865271	-0.551867	0.342182
C106	C	1.365271	-0.051867	0.842182
N107	N	0.905352	-0.528383	0.302162
N108	N	1.405352	-0.028383	0.802162
C109	C	0.945450	-0.551816	0.262147
C110	C	1.445450	-0.051816	0.762147
C111	C	0.865449	-0.978816	0.342239
C112	C	1.365449	-0.478816	0.842239
C113	C	0.865466	-1.025734	0.342244
C114	C	1.365466	-0.525734	0.842244
C115	C	0.945649	-1.025683	0.262205
C116	C	1.445649	-0.525683	0.762205
C117	C	0.945627	-0.978764	0.262198
C118	C	1.445627	-0.478764	0.762198
C119	C	0.905530	-0.955332	0.302219
C120	C	1.405530	-0.455332	0.802219
C121	C	0.945400	-0.453290	0.262132
C122	C	1.445400	0.046710	0.762132
C123	C	0.945373	-0.406370	0.262126
C124	C	1.445373	0.093630	0.762126
C125	C	0.865193	-0.406426	0.342167
C126	C	1.365193	0.093574	0.842167
C127	C	0.865218	-0.453342	0.342171
C128	C	1.365218	0.046658	0.842171
C129	C	0.905327	-0.476772	0.302152
C130	C	1.405327	0.023228	0.802152
O131	O	0.831172	-0.527587	0.376180
O132	O	1.331172	-0.027587	0.876180
O133	O	0.979540	-0.527526	0.228117
O134	O	1.479540	-0.027526	0.728117
C135	C	0.945534	-0.739480	0.262176
C136	C	1.445534	-0.239480	0.762176
C137	C	0.905458	-0.762962	0.302199
C138	C	1.405458	-0.262962	0.802199
C139	C	0.865359	-0.739529	0.342214
C140	C	1.365359	-0.239529	0.842214
C141	C	0.905475	-0.809880	0.302204
C142	C	1.405475	-0.309880	0.802204
C143	C	0.945574	-0.833313	0.262189
C144	C	1.445574	-0.333313	0.762189
C145	C	0.985655	-0.809828	0.222169
C146	C	1.485655	-0.309828	0.722169
C147	C	0.985633	-0.762913	0.222161
C148	C	1.485633	-0.262913	0.722161
C149	C	0.825278	-0.763014	0.382234
C150	C	1.325278	-0.263014	0.882234
C151	C	0.825303	-0.809929	0.382238
C152	C	1.325303	-0.309929	0.882238
C153	C	0.865402	-0.833362	0.342223
C154	C	1.365402	-0.333362	0.842223
C155	C	1.068802	-0.216257	0.302238
C156	C	1.568802	0.283743	0.802238
C157	C	1.138443	-0.216247	0.302269
C158	C	1.638443	0.283753	0.802269
C159	C	0.905431	-0.216271	0.465588
C160	C	1.405431	0.283729	0.965588
C161	C	0.905453	-0.216267	0.535229
C162	C	1.405453	0.283733	1.035229
C163	C	0.905509	-0.099102	0.302210
C164	C	1.405509	0.400898	0.802210
C165	C	0.905565	-0.049167	0.302229
C166	C	1.405565	0.450833	0.802229
C167	C	0.905363	-0.216257	0.139377
C168	C	1.405363	0.283743	0.639377
C169	C	0.905462	-0.216134	0.069736
C170	C	1.405462	0.283866	0.569736
C171	C	0.945556	-0.187527	0.567972
C172	C	1.445556	0.312473	1.067972
C173	C	0.945556	-0.187507	0.633408
C174	C	1.445556	0.312493	1.133408
C175	C	0.905458	-0.216237	0.666098
C176	C	1.405458	0.283763	1.166098
C177	C	0.865346	-0.244979	0.633347
C178	C	1.365346	0.255021	1.133347
C179	C	0.865344	-0.244994	0.567912
C180	C	1.365344	0.255006	1.067912
C181	C	0.900471	-0.256689	0.769760
C182	C	1.400471	0.243311	1.269760
C183	C	0.900478	-0.256674	0.835193
C184	C	1.400478	0.243326	1.335193
C185	C	0.905461	-0.216189	0.867918
C186	C	1.405461	0.283811	1.367918
C187	C	0.910451	-0.175717	0.835203
C188	C	1.410451	0.324283	1.335203
C189	C	0.910449	-0.175733	0.769769
C190	C	1.410449	0.324267	1.269769
C191	C	0.905455	-0.216223	0.737050
C192	C	1.405455	0.283777	1.237050
C193	C	0.945566	-0.187425	0.971614
C194	C	1.445566	0.312575	1.471614
C195	C	0.945561	-0.187405	1.037051
C196	C	1.445561	0.312595	1.537051
C197	C	0.865355	-0.244881	1.036988
C198	C	1.365355	0.255119	1.536988
C199	C	0.865357	-0.244897	0.971553
C200	C	1.365357	0.255103	1.471553
C201	C	0.905466	-0.216170	0.938870
C202	C	1.405466	0.283830	1.438870
H203	H	0.548156	-0.268511	0.374683
H204	H	1.048156	0.231489	0.874683
C205	C	0.676228	-0.155894	0.218082
C206	C	1.176228	0.344106	0.718082
N207	N	0.703336	-0.132057	0.184930
N208	N	1.203336	0.367943	0.684930
H209	H	0.832544	-0.387340	0.374745
H210	H	1.332544	0.112660	0.874745
H211	H	0.832696	-0.268369	0.659967
H212	H	1.332696	0.231631	1.159967
C213	C	0.989719	-0.952938	0.218167
C214	C	1.489719	-0.452938	0.718167
N215	N	1.022932	-0.933488	0.185003
N216	N	1.522932	-0.433488	0.685003
C217	C	0.474524	-0.223868	0.420676
C218	C	0.974524	0.276132	0.920676
N219	N	0.501678	-0.226858	0.467432
N220	N	1.001678	0.273142	0.967432
H221	H	0.548163	-0.164102	0.229560
H222	H	1.048163	0.335898	0.729560
H223	H	0.914510	-0.142779	0.743135
H224	H	1.414510	0.357221	1.243135
H225	H	0.346444	-0.222815	0.404593
H226	H	0.846444	0.277185	0.904593
C227	C	0.989680	-0.155786	1.073068
C228	C	1.489680	0.344214	1.573068
N229	N	1.022911	-0.131970	1.100197
N230	N	1.522911	0.368030	1.600197
C231	C	0.989678	-0.155892	0.669433
C232	C	1.489678	0.344108	1.169433
N233	N	1.022913	-0.132080	0.696564
N234	N	1.522913	0.367920	1.196564
C235	C	0.821226	-0.276614	0.531894
C236	C	1.321226	0.223386	1.031894
N237	N	0.787997	-0.300431	0.504764
N238	N	1.287997	0.199569	1.004764
H239	H	0.978222	-0.164031	0.945002
H240	H	1.478222	0.335969	1.445002
H241	H	0.832700	-0.268268	1.063604
H242	H	1.332700	0.231732	1.563604
C243	C	0.915932	-0.131180	0.871196
C244	C	1.415932	0.368820	1.371196
N245	N	0.920061	-0.097636	0.898309
N246	N	1.420061	0.402364	1.398309
C247	C	0.135168	-0.276677	0.386257
C248	C	0.635168	0.223323	0.886257
N249	N	0.108062	-0.300522	0.419398
N250	N	0.608062	0.199478	0.919398
H251	H	0.832795	-0.959741	0.374830
H252	H	1.332795	-0.459741	0.874830
C253	C	0.781149	-0.694998	0.426267
C254	C	1.281149	-0.194998	0.926267
N255	N	0.747939	-0.714445	0.459439
N256	N	1.247939	-0.214445	0.959439
C257	C	0.895001	-0.301229	0.733768
C258	C	1.395001	0.198771	1.233768
N259	N	0.890885	-0.334776	0.706660
N260	N	1.390885	0.165224	1.206660
C261	C	1.029700	-0.694851	0.178117
C262	C	1.529700	-0.194851	0.678117
N263	N	1.062924	-0.714257	0.144949
N264	N	1.562924	-0.214257	0.644949
C265	C	0.989669	-0.155920	0.532025
C266	C	1.489669	0.344080	1.032025
N267	N	1.022893	-0.132111	0.504948
N268	N	1.522893	0.367889	1.004948
C269	C	1.029762	-0.835614	0.178151
C270	C	1.529762	-0.335614	0.678151
N271	N	1.062985	-0.855038	0.145002
N272	N	1.562985	-0.355038	0.645002
C273	C	0.474281	-0.208735	0.183608
C274	C	0.974281	0.291265	0.683608
N275	N	0.501338	-0.205758	0.136830
N276	N	1.001338	0.294242	0.636830
H277	H	0.792661	-0.829045	0.414832
H278	H	1.292661	-0.329045	0.914832
H279	H	0.792626	-0.743938	0.414820
H280	H	1.292626	-0.243938	0.914820
H281	H	0.666862	-0.268532	0.374636
H282	H	1.166862	0.231468	0.874636
C283	C	0.821370	-1.051560	0.386270
C284	C	1.321370	-0.551560	0.886270
N285	N	0.788158	-1.071010	0.419436
N286	N	1.288158	-0.571010	0.919436
C287	C	0.821242	-0.276516	0.935534
C288	C	1.321242	0.223484	1.435534
N289	N	0.788010	-0.300332	0.908405
N290	N	1.288010	0.199668	1.408405
H291	H	0.978298	-1.044770	0.229623
H292	H	1.478298	-0.544770	0.729623
H293	H	0.263237	-0.164062	0.229657
H294	H	0.763237	0.335938	0.729657
C295	C	0.135179	-0.155821	0.218274
C296	C	0.635179	0.344179	0.718274
N297	N	0.108072	-0.131977	0.185144
N298	N	0.608072	0.368023	0.685144
H299	H	0.263226	-0.268472	0.374785
H300	H	0.763226	0.231528	0.874785
H301	H	1.018269	-0.743797	0.189567
H302	H	1.518269	-0.243797	0.689567
H303	H	0.896419	-0.289629	0.861825
H304	H	1.396419	0.210371	1.361825
C305	C	0.821127	-0.479173	0.386200
C306	C	1.321127	0.020827	0.886200
N307	N	0.787922	-0.498626	0.419369
N308	N	1.287922	0.001374	0.919369
H309	H	0.978010	-0.387252	0.229529
H310	H	1.478010	0.112748	0.729529
C311	C	0.336876	-0.208708	0.183659
C312	C	0.836876	0.291292	0.683659
N313	N	0.309726	-0.205712	0.136901
N314	N	0.809726	0.294288	0.636901
C315	C	1.029652	-0.596342	0.178098
C316	C	1.529652	-0.096342	0.678098
N317	N	1.062858	-0.576894	0.144925
N318	N	1.562858	-0.076894	0.644925
C319	C	0.781113	-0.596485	0.426252
C320	C	1.281113	-0.096485	0.926252
N321	N	0.747887	-0.577074	0.459413
N322	N	1.247887	-0.077074	0.959413
C323	C	0.989518	-0.479057	0.218106
C324	C	1.489518	0.020943	0.718106
N325	N	1.022744	-0.498464	0.184941
N326	N	1.522744	0.001536	0.684941
