data_functionalizedCrystal
_audit_creation_method	'MofGen! by Chris Wilmer'
_symmetry_space_group_name_H-M	'P1'
_symmetry_Int_Tables_number	1
_symmetry_cell_setting	triclinic
loop_
_symmetry_equiv_pos_as_xyz
  x,y,z
_cell_length_a	8.497374
_cell_length_b	8.497374
_cell_length_c	12.645331
_cell_angle_alpha	90.003750
_cell_angle_beta	89.999928
_cell_angle_gamma	90.005237
loop_
_atom_site_label
_atom_site_type_symbol
_atom_site_fract_x
_atom_site_fract_y
_atom_site_fract_z
Zn1	Zn	0.628372	0.892192	1.620656
Zn2	Zn	0.892118	0.628457	1.620647
Zn3	Zn	0.628341	0.628409	1.443429
Zn4	Zn	0.892100	0.892179	1.443403
O5	O	0.760233	0.760309	1.532034
O6	O	0.663380	0.857232	1.769002
O7	O	0.857122	0.407689	1.597146
O8	O	0.407583	0.663386	1.466952
O9	O	0.857153	0.663467	1.768995
O10	O	0.407606	0.857185	1.597160
O11	O	0.663326	0.407654	1.466944
O12	O	0.663309	0.663374	1.295078
O13	O	0.857121	1.112943	1.466909
O14	O	0.857091	0.857165	1.295059
O15	O	0.663362	1.112952	1.597135
O16	O	1.112878	0.663455	1.597121
O17	O	1.112864	0.857211	1.466901
C18	C	0.760195	0.760264	1.256604
C19	C	0.760217	0.760282	1.138774
C20	C	1.170113	0.760332	1.532020
C21	C	1.348757	0.760306	1.532048
C22	C	0.760235	1.171790	1.532026
C23	C	0.760252	1.350434	1.532028
C24	C	0.637749	0.639040	0.971186
C25	C	0.638065	0.638506	1.093746
C26	C	0.926390	0.714905	1.094296
C27	C	0.925721	0.714078	0.971698
C28	C	0.718095	0.927368	0.971579
C29	C	0.714382	0.926439	1.094184
C30	C	0.760272	0.760356	1.808539
C31	C	0.760288	0.760376	1.926369
H32	H	0.514153	0.667172	0.941692
N33	N	1.044141	0.820076	0.934481
N34	N	1.064747	0.838343	0.837381
H35	H	1.148386	0.913197	0.811098
H36	H	0.665948	0.514758	1.123057
H37	H	0.797128	1.021675	1.124837
H38	H	0.665322	0.516020	0.940371
H39	H	0.961508	0.592000	0.943086
H40	H	1.020129	0.800508	1.123465
H41	H	0.962793	0.594137	1.124985
N42	N	0.560980	0.969399	1.130639
N43	N	0.502305	1.098276	1.103890
H44	H	0.393960	1.128613	1.129637
N45	N	0.568758	0.979171	0.932770
N46	N	0.547334	0.995074	0.835561
H47	H	0.441860	1.031648	0.808150
N48	N	0.483464	0.674133	1.131460
N49	N	0.374577	0.699565	1.067235
H50	H	0.265377	0.724706	1.093865
N51	N	0.830094	1.040760	0.935241
N52	N	0.940552	0.998984	0.876305
H53	H	1.019666	1.079052	0.850643
