data_functionalizedCrystal
_audit_creation_method	'MofGen! by Chris Wilmer'
_symmetry_space_group_name_H-M	'P1'
_symmetry_Int_Tables_number	1
_symmetry_cell_setting	triclinic
loop_
_symmetry_equiv_pos_as_xyz
  x,y,z
_cell_length_a	14.853567
_cell_length_b	15.995350
_cell_length_c	13.930277
_cell_angle_alpha	89.997676
_cell_angle_beta	89.995755
_cell_angle_gamma	83.563653
loop_
_atom_site_label
_atom_site_type_symbol
_atom_site_fract_x
_atom_site_fract_y
_atom_site_fract_z
O1	O	1.196221	0.109317	-0.079760
O2	O	1.696221	0.609317	0.420240
O3	O	0.933744	0.122339	-0.079776
O4	O	1.433744	0.622339	0.420224
O5	O	1.072157	-0.006051	-0.079766
O6	O	1.572157	0.493949	0.420234
O7	O	1.057808	0.237707	-0.079769
O8	O	1.557808	0.737707	0.420231
O9	O	1.072138	-0.006054	0.079895
O10	O	1.572138	0.493946	0.579895
O11	O	0.933725	0.122336	0.079886
O12	O	1.433725	0.622336	0.579886
O13	O	1.196202	0.109314	0.079902
O14	O	1.696202	0.609314	0.579902
Zn15	Zn	1.064960	0.115825	0.105244
Zn16	Zn	1.564960	0.615825	0.605244
Zn17	Zn	1.064986	0.115828	-0.105117
Zn18	Zn	1.564986	0.615828	0.394883
O19	O	1.057788	0.237705	0.079893
O20	O	1.557788	0.737705	0.579893
C21	C	0.900146	0.121748	0.000053
C22	C	1.400146	0.621748	0.500053
C23	C	0.800065	0.119980	0.000047
C24	C	1.300065	0.619980	0.500047
C25	C	0.387644	0.036238	0.000069
C26	C	0.887644	0.536238	0.500069
C27	C	0.366158	0.188769	0.000067
C28	C	0.866158	0.688769	0.500067
C29	C	0.460189	0.190432	0.000064
C30	C	0.960189	0.690432	0.500064
C31	C	0.517953	0.114996	0.000062
C32	C	1.017953	0.614996	0.500062
C33	C	0.481685	0.037899	0.000063
C34	C	0.981685	0.537899	0.500063
C35	C	0.496464	0.267528	0.000053
C36	C	0.996464	0.767528	0.500053
C37	C	0.590501	0.269194	0.000048
C38	C	1.090501	0.769194	0.500048
C39	C	0.648266	0.193758	0.000054
C40	C	1.148266	0.693758	0.500054
C41	C	0.611993	0.116657	0.000056
C42	C	1.111993	0.616657	0.500056
C43	C	0.669757	0.041221	0.000054
C44	C	1.169757	0.541221	0.500054
C45	C	0.633485	-0.035880	0.000064
C46	C	1.133485	0.464120	0.500064
C47	C	0.539450	-0.037538	0.000069
C48	C	1.039450	0.462462	0.500069
C49	C	0.742302	0.195415	0.000049
C50	C	1.242302	0.695415	0.500049
C51	C	0.763797	0.042882	0.000048
C52	C	1.263797	0.542882	0.500048
C53	C	1.071555	-0.037248	0.000063
C54	C	1.571555	0.462752	0.500063
C55	C	1.069776	-0.130201	0.000057
C56	C	1.569776	0.369799	0.500057
C57	C	1.063389	-0.467956	0.000060
C58	C	1.563389	0.032044	0.500060
C59	C	0.964813	-0.420636	-0.000304
C60	C	1.464813	0.079364	0.499696
C61	C	0.966592	-0.323944	0.000056
C62	C	1.466592	0.176056	0.500056
C63	C	1.066557	-0.300391	0.000058
C64	C	1.566557	0.199609	0.500058
C65	C	1.115167	-0.341414	0.091234
C66	C	1.615167	0.158586	0.591234
C67	C	1.112691	-0.438052	0.091310
C68	C	1.612691	0.061948	0.591310
C69	C	1.114749	-0.438405	-0.090255
C70	C	1.614749	0.061595	0.409745
C71	C	1.114726	-0.341460	-0.091460
C72	C	1.614726	0.158540	0.408540
C73	C	1.068353	-0.205692	0.000060
C74	C	1.568353	0.294308	0.500060
C75	C	1.061596	-0.562655	0.000064
C76	C	1.561596	-0.062655	0.500064
C77	C	1.229799	0.109906	0.000071
C78	C	1.729799	0.609906	0.500071
C79	C	1.329881	0.111674	0.000071
C80	C	1.829881	0.611674	0.500071
C81	C	1.058391	0.268901	0.000062
C82	C	1.558391	0.768901	0.500062
C83	C	1.060170	0.361854	0.000061
C84	C	1.560170	0.861854	0.500061
N85	N	1.064950	0.115822	0.248810
N86	N	1.564950	0.615822	0.748810
N87	N	1.065003	0.115825	-0.248684
N88	N	1.565003	0.615825	0.251316
C89	C	1.003694	0.172657	0.701075
C90	C	1.503694	0.672657	1.201075
C91	C	1.126302	0.058993	0.701053
C92	C	1.626302	0.558993	1.201053
C93	C	1.126292	0.058990	0.600557
C94	C	1.626292	0.558990	1.100557
C95	C	1.064982	0.115823	0.550316
C96	C	1.564982	0.615823	1.050316
C97	C	1.003683	0.172658	0.600570
C98	C	1.503683	0.672658	1.100570
C99	C	1.187595	0.002162	0.550295
C100	C	1.687595	0.502162	1.050295
C101	C	1.187588	0.002158	0.449793
C102	C	1.687588	0.502158	0.949793
C103	C	1.126273	0.058987	0.399550
C104	C	1.626273	0.558987	0.899550
C105	C	1.064971	0.115824	0.449811
C106	C	1.564971	0.615824	0.949811
C107	C	1.003661	0.172656	0.399569
C108	C	1.503661	0.672656	0.899569
C109	C	0.942354	0.229490	0.449828
C110	C	1.442354	0.729490	0.949828
C111	C	0.942368	0.229487	0.550327
C112	C	1.442368	0.729487	1.050327
C113	C	1.126259	0.058989	0.299051
C114	C	1.626259	0.558989	0.799051
C115	C	1.003651	0.172657	0.299064
C116	C	1.503651	0.672657	0.799064
H117	H	0.771830	0.258190	0.000043
H118	H	1.271830	0.758190	0.500043
N119	N	1.072070	-0.465655	-0.181795
N120	N	1.572070	0.034345	0.318205
H121	H	1.106067	-0.446044	-0.238831
H122	H	1.606067	0.053956	0.261169
H123	H	1.074778	-0.529020	-0.182984
H124	H	1.574778	-0.029020	0.317016
N125	N	0.303862	0.270128	0.000061
N126	N	0.803862	0.770128	0.500061
H127	H	0.264372	0.272835	-0.059126
H128	H	0.764372	0.772835	0.440874
H129	H	0.264422	0.272788	0.059286
H130	H	0.764422	0.772788	0.559286
N131	N	0.695786	-0.117244	0.000060
N132	N	1.195786	0.382756	0.500060
H133	H	0.735278	-0.119952	-0.059131
H134	H	1.235278	0.380048	0.440869
H135	H	0.735224	-0.119901	0.059282
H136	H	1.235224	0.380099	0.559282
H137	H	1.077228	-0.456396	0.159464
H138	H	1.577228	0.043604	0.659464
N139	N	0.915977	-0.286344	-0.086514
N140	N	1.415977	0.213656	0.413486
H141	H	0.892305	-0.332577	-0.125253
H142	H	1.392305	0.167423	0.374747
H143	H	0.863550	-0.245049	-0.064664
H144	H	1.363550	0.254951	0.435336
N145	N	1.212453	-0.322604	0.095702
N146	N	1.712453	0.177396	0.595702
H147	H	1.214331	-0.259731	0.098600
H148	H	1.714331	0.240269	0.598600
H149	H	1.242337	-0.349632	0.154859
H150	H	1.742337	0.150368	0.654859
N151	N	0.912621	-0.445241	-0.086905
N152	N	1.412621	0.054759	0.413095
H153	H	0.944739	-0.430195	-0.147346
H154	H	1.444739	0.069805	0.352654
H155	H	0.908604	-0.507844	-0.085556
H156	H	1.408604	-0.007844	0.414444
N157	N	0.937574	0.233960	0.755270
N158	N	1.437574	0.733960	1.255270
H159	H	0.873593	0.224206	0.737788
H160	H	1.373593	0.724206	1.237788
H161	H	0.946956	0.225309	0.826543
H162	H	1.446956	0.725309	1.326543
N163	N	1.067704	-0.305354	-0.180804
N164	N	1.567704	0.194646	0.319196
H165	H	1.070256	-0.242540	-0.182626
H166	H	1.570256	0.257460	0.317374
H167	H	1.099007	-0.332064	-0.239382
H168	H	1.599007	0.167936	0.260618
H169	H	0.892439	0.275767	0.408910
H170	H	1.392439	0.775767	0.908910
H171	H	0.925581	-0.440277	0.064711
H172	H	1.425581	0.059723	0.564711
N173	N	1.253703	-0.059148	0.395598
N174	N	1.753703	0.440852	0.895598
H175	H	1.219249	-0.096281	0.353914
H176	H	1.719249	0.403719	0.853914
H177	H	1.293599	-0.027028	0.353942
H178	H	1.793599	0.472972	0.853942
N179	N	0.915623	-0.287085	0.086773
N180	N	1.415623	0.212915	0.586773
H181	H	0.891916	-0.333660	0.124917
H182	H	1.391916	0.166340	0.624917
H183	H	0.957694	-0.257188	0.128245
H184	H	1.457694	0.242812	0.628245
H185	H	0.892455	0.275760	0.591254
H186	H	1.392455	0.775760	1.091254
H187	H	1.187625	-0.326013	-0.096963
H188	H	1.687625	0.173987	0.403037
N189	N	1.192355	-0.002321	0.244846
N190	N	1.692355	0.497679	0.744846
H191	H	1.183039	0.006295	0.173557
H192	H	1.683039	0.506295	0.673557
H193	H	1.256315	0.007448	0.262386
H194	H	1.756315	0.507448	0.762386
N195	N	1.208550	-0.480666	0.096798
N196	N	1.708550	0.019334	0.596798
H197	H	1.252226	-0.436648	0.099162
H198	H	1.752226	0.063352	0.599162
H199	H	1.215757	-0.516543	0.156559
H200	H	1.715757	-0.016543	0.656559
H201	H	0.810823	-0.018548	0.000051
H202	H	1.310823	0.481452	0.500051
H203	H	1.081389	-0.313073	0.159082
H204	H	1.581389	0.186927	0.659082
N205	N	1.192433	-0.002296	0.755236
N206	N	1.692433	0.497704	1.255236
H207	H	1.183141	0.006330	0.826528
H208	H	1.683141	0.506330	1.326528
H209	H	1.182021	-0.061714	0.737679
H210	H	1.682021	0.438286	1.237679
H211	H	0.509909	-0.100310	0.000099
H212	H	1.009909	0.399690	0.500099
N213	N	1.211021	-0.480358	-0.091072
N214	N	1.711021	0.019642	0.408928
H215	H	1.221356	-0.518324	-0.033256
H216	H	1.721356	-0.018324	0.466744
H217	H	1.221796	-0.514788	-0.151596
H218	H	1.721796	-0.014788	0.348404
H219	H	0.449427	0.328943	0.000044
H220	H	0.949427	0.828943	0.500044
H221	H	0.620025	0.331975	0.000041
H222	H	1.120025	0.831975	0.500041
N223	N	0.937515	0.233949	0.244878
N224	N	1.437515	0.733949	0.744878
H225	H	0.898682	0.269948	0.291968
H226	H	1.398682	0.769948	0.791968
H227	H	0.972017	0.271030	0.203172
H228	H	1.472017	0.771030	0.703172
N229	N	0.348520	-0.046913	0.000077
N230	N	0.848520	0.453087	0.500077
H231	H	0.369580	-0.079966	-0.059110
H232	H	0.869580	0.420034	0.440890
H233	H	0.369594	-0.079899	0.059302
H234	H	0.869594	0.420101	0.559302
H235	H	1.237517	-0.044106	0.591205
H236	H	1.737517	0.455894	1.091205
