data_functionalizedCrystal
_audit_creation_method	'MofGen! by Chris Wilmer'
_symmetry_space_group_name_H-M	'P1'
_symmetry_Int_Tables_number	1
_symmetry_cell_setting	triclinic
loop_
_symmetry_equiv_pos_as_xyz
  x,y,z
_cell_length_a	19.288864
_cell_length_b	15.625429
_cell_length_c	18.366186
_cell_angle_alpha	71.916618
_cell_angle_beta	89.977106
_cell_angle_gamma	83.707361
loop_
_atom_site_label
_atom_site_type_symbol
_atom_site_fract_x
_atom_site_fract_y
_atom_site_fract_z
O1	O	0.921734	0.112464	-0.090473
O2	O	0.719524	0.127635	-0.094428
O3	O	0.826029	-0.011211	-0.057795
O4	O	0.815229	0.251309	-0.127105
O5	O	0.826011	-0.011217	0.063306
O6	O	0.719506	0.127628	0.026673
O7	O	0.921716	0.112457	0.030628
Zn8	Zn	0.820608	0.120041	0.047878
Zn9	Zn	0.820632	0.120050	-0.111678
O10	O	0.815211	0.251302	-0.006004
C11	C	0.693637	0.127143	-0.033742
C12	C	0.616529	0.125678	-0.033336
C13	C	0.825530	-0.044800	0.011621
C14	C	0.824062	-0.144874	0.038040
C15	C	0.572108	0.207146	-0.054857
C16	C	0.499657	0.205769	-0.054501
C17	C	0.471629	0.122920	-0.032639
C18	C	0.516059	0.041441	-0.011111
C19	C	0.588509	0.042820	-0.011460
C20	C	0.363152	0.057793	-0.057895
C21	C	0.290703	0.056418	-0.057552
C22	C	0.248169	0.118663	-0.031559
C23	C	0.278090	0.182299	-0.005923
C24	C	0.350541	0.183678	-0.006272
C25	C	0.393069	0.121415	-0.032258
C26	C	0.125187	0.198644	-0.052695
C27	C	0.052734	0.197264	-0.052334
C28	C	0.069138	0.032933	-0.008950
C29	C	0.141589	0.034316	-0.009305
C30	C	0.169609	0.117174	-0.031181
C31	C	0.819264	-0.473990	-0.205108
C32	C	0.817881	-0.568025	-0.180261
C33	C	0.817861	-0.568019	-0.048245
C34	C	0.819247	-0.473983	-0.073081
C35	C	0.819948	-0.426976	-0.151513
C36	C	0.819931	-0.426968	-0.019486
C37	C	0.821314	-0.332939	-0.044320
C38	C	0.822012	-0.285925	-0.122749
C39	C	0.821330	-0.332947	-0.176347
C40	C	0.819226	-0.473976	0.058946
C41	C	0.819910	-0.426961	0.112541
C42	C	0.821298	-0.332932	0.087708
C43	C	0.821996	-0.285918	0.009279
C44	C	0.821980	-0.285910	0.141306
C45	C	0.823362	-0.191882	0.116472
C46	C	0.823378	-0.191889	-0.015555
C47	C	0.947603	0.112948	-0.030059
C48	C	1.024711	0.114414	-0.030470
C49	C	0.815710	0.284891	-0.075423
C50	C	0.817178	0.384966	-0.101846
N51	N	0.820597	0.120035	0.156771
N52	N	0.820649	0.120050	-0.220569
C53	C	0.867773	0.058584	0.211084
C54	C	0.867777	0.058580	0.287313
C55	C	0.820612	0.120042	0.309222
C56	C	0.773428	0.181497	0.254898
C57	C	0.773420	0.181494	0.178673
C58	C	0.811592	0.202185	0.408296
C59	C	0.811605	0.202190	0.484520
C60	C	0.820632	0.120053	0.544326
C61	C	0.829661	0.037908	0.527901
C62	C	0.829654	0.037905	0.451675
C63	C	0.820615	0.120053	0.391874
C64	C	0.867815	0.058593	0.681297
C65	C	0.867815	0.058588	0.757528
C66	C	0.773469	0.181513	0.725109
C67	C	0.773466	0.181511	0.648882
C68	C	0.820643	0.120052	0.626980
H69	H	0.594917	0.274615	-0.072671
H70	H	0.819338	-0.465247	0.176401
H71	H	0.735064	0.231553	0.742947
H72	H	0.821402	-0.324196	0.205165
N73	N	0.824095	-0.141164	0.174273
H74	H	0.823443	-0.185210	0.227728
H75	H	0.867691	-0.109633	0.168808
N76	N	0.823509	-0.184510	-0.149536
H77	H	0.823849	-0.161867	-0.207354
H78	H	0.780814	-0.154441	-0.131515
N79	N	0.801862	0.290781	0.343792
H80	H	0.758866	0.292899	0.311629
H81	H	0.796182	0.342766	0.365823
H82	H	0.374900	0.235490	0.014605
H83	H	0.817289	-0.606305	0.015614
N84	N	0.722583	0.247789	0.590295
H85	H	0.692703	0.286725	0.615739
H86	H	0.749204	0.287558	0.548149
N87	N	0.451736	0.293643	-0.077726
H88	H	0.401588	0.280194	-0.074187
H89	H	0.460788	0.329771	-0.042372
H90	H	0.804257	0.269077	0.497887
N91	N	0.232225	0.249447	0.022109
H92	H	0.181788	0.238918	0.018444
H93	H	0.245703	0.241259	0.077193
N94	N	0.155416	0.288006	-0.076284
H95	H	0.116279	0.339409	-0.089858
H96	H	0.185096	0.292153	-0.032482
H97	H	0.906185	0.008538	0.193256
H98	H	0.821906	-0.294672	-0.240214
H99	H	0.735024	0.231539	0.272740
H100	H	0.819840	-0.435716	-0.268975
N101	N	0.918669	-0.007699	0.345899
H102	H	0.949451	0.026662	0.368432
H103	H	0.892050	-0.047517	0.388017
H104	H	0.823954	-0.153614	-0.079422
N105	N	0.839389	-0.050686	0.433955
H106	H	0.845110	-0.102722	0.483404
H107	H	0.797186	-0.055809	0.403705
N108	N	0.004820	0.285137	-0.075488
H109	H	0.033567	0.337832	-0.089383
H110	H	-0.025599	0.288187	-0.121174
H111	H	0.177757	-0.032025	0.008216
H112	H	0.837012	-0.028975	0.576596
N113	N	0.038919	-0.056428	0.014639
H114	H	-0.013719	-0.044941	0.011597
H115	H	0.055187	-0.092066	-0.020842
H116	H	0.906227	0.008547	0.663465
N117	N	0.258432	-0.012212	-0.085203
H118	H	0.296370	-0.051443	-0.101712
H119	H	0.232211	-0.051436	-0.042307
N120	N	0.409026	-0.009350	-0.085929
H121	H	0.379079	-0.049865	-0.102122
H122	H	0.435795	0.024401	-0.131070
N123	N	0.485834	-0.047919	0.012478
H124	H	0.433196	-0.036432	0.009433
H125	H	0.502104	-0.083560	-0.023000
H126	H	0.906229	0.008543	0.801754
H127	H	0.818093	-0.550539	0.079163
N128	N	0.722533	0.247772	0.120086
H129	H	0.692652	0.286706	0.145529
H130	H	0.749156	0.287542	0.077942
H131	H	0.817318	-0.606300	-0.223911
N132	N	0.636425	-0.045052	0.011756
H133	H	0.607679	-0.097749	0.025664
H134	H	0.666867	-0.048060	-0.032338
