data_functionalizedCrystal
_audit_creation_method	'MofGen! by Chris Wilmer'
_symmetry_space_group_name_H-M	'P1'
_symmetry_Int_Tables_number	1
_symmetry_cell_setting	triclinic
loop_
_symmetry_equiv_pos_as_xyz
  x,y,z
_cell_length_a	16.109302
_cell_length_b	16.109301
_cell_length_c	14.586319
_cell_angle_alpha	90.001610
_cell_angle_beta	90.007794
_cell_angle_gamma	83.461631
loop_
_atom_site_label
_atom_site_type_symbol
_atom_site_fract_x
_atom_site_fract_y
_atom_site_fract_z
O1	O	1.103134	0.106864	0.076284
O2	O	0.861072	0.120163	0.076278
O3	O	0.988752	-0.007517	0.076272
O4	O	0.975453	0.234545	0.076290
O5	O	0.988737	-0.007510	-0.076209
O6	O	0.861056	0.120171	-0.076203
O7	O	1.103118	0.106872	-0.076196
Cu8	Cu	0.982086	0.113522	-0.090122
Cu9	Cu	0.982104	0.113513	0.090204
O10	O	0.975438	0.234552	-0.076191
C11	C	0.830089	0.119628	0.000036
C12	C	0.737794	0.118013	0.000033
C13	C	0.525445	0.114282	-0.083075
C14	C	0.438724	0.112755	-0.083072
C15	C	0.438752	0.112751	0.083171
C16	C	0.525471	0.114272	0.083167
C17	C	0.568815	0.115041	0.000041
C18	C	0.395375	0.111994	0.000048
C19	C	0.301350	0.110338	0.000052
C20	C	0.662847	0.116695	0.000037
C21	C	0.988206	-0.038488	0.000031
C22	C	0.986591	-0.130784	0.000030
C23	C	1.058599	-0.353056	0.000046
C24	C	1.057074	-0.439776	0.000054
C25	C	0.905586	-0.419902	0.000046
C26	C	0.907111	-0.333184	0.000045
C27	C	0.983620	-0.299763	0.000040
C28	C	0.980571	-0.473202	0.000049
C29	C	0.978918	-0.567228	0.000057
C30	C	0.985273	-0.205731	0.000034
C31	C	1.134101	0.107407	0.000047
C32	C	1.226396	0.109022	0.000056
C33	C	0.975984	0.265523	0.000052
C34	C	0.977599	0.357819	0.000060
N35	N	0.982079	0.113528	-0.216954
C36	C	1.032502	0.163956	-0.451955
C37	C	1.032510	0.163951	-0.547936
C38	C	0.931693	0.063066	-0.547957
C39	C	0.931689	0.063068	-0.451977
C40	C	0.982092	0.113518	-0.403979
C41	C	0.982105	0.113510	-0.595940
C42	C	0.982114	0.113504	-0.700007
C43	C	0.982085	0.113524	-0.299905
N44	N	0.982118	0.113501	0.217035
H45	H	0.403416	0.112136	-0.150754
H46	H	0.843295	-0.447124	0.000048
H47	H	0.403451	0.112125	0.150849
C48	C	0.825610	-0.275454	-0.000008
C49	C	0.758280	-0.323281	-0.000036
C50	C	0.683193	-0.270129	-0.000093
H51	H	0.822944	-0.241193	0.053151
H52	H	0.823008	-0.241224	-0.053203
H53	H	0.760881	-0.357496	0.053153
H54	H	0.760918	-0.357540	-0.053191
H55	H	0.680592	-0.235900	-0.053288
H56	H	0.680536	-0.235871	0.053067
H57	H	0.637502	-0.302572	-0.000121
C58	C	0.877033	0.008340	-0.399716
C59	C	0.887834	0.019128	-0.305389
C60	C	0.837508	-0.031277	-0.257217
H61	H	0.820117	0.023728	-0.415348
H62	H	0.892498	-0.048564	-0.415384
H63	H	0.872364	0.076020	-0.289727
H64	H	0.944739	0.003734	-0.289730
H65	H	0.852973	-0.088181	-0.272885
H66	H	0.780595	-0.015885	-0.272856
H67	H	0.844835	-0.023971	-0.193211
C68	C	1.087139	0.218696	-0.399676
C69	C	1.076332	0.207923	-0.305351
C70	C	1.126645	0.258344	-0.257166
H71	H	1.144058	0.203314	-0.415283
H72	H	1.071668	0.275597	-0.415357
H73	H	1.091809	0.151035	-0.289677
H74	H	1.019424	0.223310	-0.289716
H75	H	1.111174	0.315244	-0.272847
H76	H	1.183561	0.242957	-0.272781
H77	H	1.119314	0.251047	-0.193162
C78	C	0.876990	0.008389	-0.600234
C79	C	0.887713	0.019244	-0.694559
C80	C	0.837323	-0.031101	-0.742742
H81	H	0.892429	-0.048527	-0.584649
H82	H	0.820088	0.023805	-0.584529
H83	H	0.944602	0.003824	-0.710258
H84	H	0.872269	0.076150	-0.710172
H85	H	0.780421	-0.015686	-0.727037
H86	H	0.852766	-0.088015	-0.727149
H87	H	0.844585	-0.023737	-0.806746
H88	H	1.120897	-0.325848	0.000044
C89	C	0.572361	0.115061	-0.173419
C90	C	0.515817	0.114045	-0.246207
C91	C	0.559005	0.114747	-0.329446
H92	H	0.599841	0.164095	-0.177010
H93	H	0.612528	0.067180	-0.176924
H94	H	0.475665	0.161922	-0.242703
H95	H	0.488335	0.065015	-0.242646
H96	H	0.599172	0.066866	-0.332952
H97	H	0.586484	0.163782	-0.333028
H98	H	0.520648	0.114050	-0.378843
C99	C	1.087266	0.218805	-0.599859
C100	C	1.131387	0.262999	-0.537277
C101	C	1.181831	0.313549	-0.585073
H102	H	1.125610	0.184835	-0.637295
H103	H	1.053203	0.257101	-0.637289
H104	H	1.165447	0.224708	-0.499863
H105	H	1.093064	0.296985	-0.499839
H106	H	1.147768	0.351845	-0.622503
H107	H	1.220170	0.279572	-0.622508
H108	H	1.211767	0.343546	-0.542619
H109	H	0.560784	0.114888	0.150854
C110	C	1.138571	-0.497499	0.000010
C111	C	1.205896	-0.449666	-0.000016
C112	C	1.280987	-0.502811	-0.000067
H113	H	1.141251	-0.531757	0.053171
H114	H	1.141166	-0.531732	-0.053183
H115	H	1.203303	-0.415447	0.053171
H116	H	1.203244	-0.415410	-0.053173
H117	H	1.283581	-0.537044	-0.053260
H118	H	1.283658	-0.537066	0.053094
H119	H	1.326675	-0.470364	-0.000094
