data_functionalizedCrystal
_audit_creation_method	'MofGen! by Chris Wilmer'
_symmetry_space_group_name_H-M	'P1'
_symmetry_Int_Tables_number	1
_symmetry_cell_setting	triclinic
loop_
_symmetry_equiv_pos_as_xyz
  x,y,z
_cell_length_a	25.639242
_cell_length_b	25.639242
_cell_length_c	25.639233
_cell_angle_alpha	90.006304
_cell_angle_beta	90.022166
_cell_angle_gamma	90.001714
loop_
_atom_site_label
_atom_site_type_symbol
_atom_site_fract_x
_atom_site_fract_y
_atom_site_fract_z
Zn1	Zn	0.799343	-0.208277	0.295788
Zn2	Zn	1.299343	0.291723	0.795788
Zn3	Zn	0.799316	-0.295695	0.208371
Zn4	Zn	1.299316	0.204305	0.708371
Zn5	Zn	0.711920	-0.208269	0.208352
Zn6	Zn	1.211920	0.291731	0.708352
Zn7	Zn	0.711914	-0.295676	0.295761
Zn8	Zn	1.211914	0.204324	0.795761
O9	O	0.755623	-0.251979	0.252068
O10	O	1.255623	0.248021	0.752068
O11	O	0.872505	-0.219884	0.284211
O12	O	1.372505	0.280116	0.784211
O13	O	0.787714	-0.284103	0.135203
O14	O	1.287714	0.215897	0.635203
O15	O	0.723530	-0.135105	0.219953
O16	O	1.223530	0.364895	0.719953
O17	O	0.872485	-0.284110	0.219986
O18	O	1.372485	0.215890	0.719986
O19	O	0.787760	-0.135111	0.284192
O20	O	1.287760	0.364889	0.784192
O21	O	0.723504	-0.219871	0.135189
O22	O	1.223504	0.280129	0.635189
O23	O	0.638754	-0.219852	0.219927
O24	O	1.138754	0.280148	0.719927
O25	O	0.723521	-0.284077	0.368930
O26	O	1.223521	0.215923	0.868930
O27	O	0.638750	-0.284070	0.284146
O28	O	1.138750	0.215930	0.784146
O29	O	0.787755	-0.219866	0.368949
O30	O	1.287755	0.280134	0.868949
O31	O	0.787709	-0.368858	0.219960
O32	O	1.287709	0.131142	0.719960
O33	O	0.723495	-0.368844	0.284165
O34	O	1.223495	0.131156	0.784165
C35	C	0.619781	-0.251959	0.252032
C36	C	1.119781	0.248041	0.752032
C37	C	0.561667	-0.251963	0.252029
C38	C	1.061667	0.248037	0.752029
C39	C	0.755648	-0.115606	0.252074
C40	C	1.255648	0.384394	0.752074
C41	C	0.755659	-0.057492	0.252076
C42	C	1.255659	0.442508	0.752076
C43	C	0.201311	-0.285473	0.285475
C44	C	0.701311	0.214527	0.785475
C45	C	0.146706	-0.285476	0.285483
C46	C	0.646706	0.214524	0.785483
O47	O	0.118475	-0.313943	0.313890
O48	O	0.618475	0.186057	0.813890
N49	N	0.119384	-0.251994	0.252102
N50	N	0.619384	0.248006	0.752102
C51	C	0.146669	-0.218502	0.218714
C52	C	0.646669	0.281498	0.718714
O53	O	0.118416	-0.190022	0.190321
O54	O	0.618416	0.309978	0.690321
C55	C	0.201273	-0.218496	0.218709
C56	C	0.701273	0.281504	0.718709
C57	C	0.228592	-0.251985	0.252088
C58	C	0.728592	0.248015	0.752088
C59	C	0.228630	-0.318959	0.318852
C60	C	0.728630	0.181041	0.818852
C61	C	0.283230	-0.318956	0.318843
C62	C	0.783230	0.181044	0.818843
C63	C	0.310512	-0.285468	0.285457
C64	C	0.810512	0.214532	0.785457
C65	C	0.283192	-0.251982	0.252079
C66	C	0.783192	0.248018	0.752079
C67	C	0.228557	-0.185002	0.185324
C68	C	0.728557	0.314998	0.685324
C69	C	0.283164	-0.184999	0.185321
C70	C	0.783164	0.315001	0.685321
C71	C	0.310483	-0.218488	0.218701
C72	C	0.810483	0.281512	0.718701
C73	C	0.365074	-0.218492	0.218684
C74	C	0.865074	0.281508	0.718684
N75	N	0.392396	-0.251974	0.252065
N76	N	0.892396	0.248026	0.752065
C77	C	0.365115	-0.285463	0.285452
C78	C	0.865115	0.214537	0.785452
C79	C	0.031999	-0.218515	0.218728
C80	C	0.531999	0.281485	0.718728
C81	C	-0.022604	-0.218523	0.218730
C82	C	0.477396	0.281477	0.718730
C83	C	-0.022563	-0.285497	0.285500
C84	C	0.477437	0.214503	0.785500
C85	C	0.032040	-0.285492	0.285495
C86	C	0.532040	0.214508	0.785495
C87	C	0.059321	-0.251998	0.252109
C88	C	0.559321	0.248002	0.752109
C89	C	0.479780	-0.285455	0.285430
C90	C	0.979780	0.214545	0.785430
C91	C	0.534385	-0.285451	0.285416
C92	C	1.034385	0.214549	0.785416
C93	C	0.534340	-0.218475	0.218648
C94	C	1.034340	0.281525	0.718648
C95	C	0.479739	-0.218481	0.218659
C96	C	0.979739	0.281519	0.718659
C97	C	0.452461	-0.251972	0.252054
C98	C	0.952461	0.248028	0.752054
O99	O	0.393340	-0.190038	0.190293
O100	O	0.893340	0.309962	0.690293
O101	O	0.393375	-0.313933	0.313844
O102	O	0.893375	0.186067	0.813844
C103	C	0.755612	-0.387822	0.252073
C104	C	1.255612	0.112178	0.752073
C105	C	0.755656	-0.445936	0.252093
C106	C	1.255656	0.054064	0.752093
C107	C	0.891996	-0.252000	0.252104
C108	C	1.391996	0.248000	0.752104
C109	C	0.950110	-0.252009	0.252119
C110	C	1.450110	0.247991	0.752119
C111	C	0.755640	-0.251970	0.388441
C112	C	1.255640	0.248030	0.888441
C113	C	0.755647	-0.251966	0.446555
C114	C	1.255647	0.248034	0.946555
C115	C	0.722207	0.302879	0.218644
C116	C	1.222207	0.802879	0.718644
C117	C	0.722206	0.357484	0.218646
C118	C	1.222206	0.857484	0.718646
O119	O	0.693755	0.385728	0.190217
O120	O	1.193755	0.885728	0.690217
N121	N	0.755649	0.384790	0.252091
N122	N	1.255649	0.884790	0.752091
C123	C	0.789091	0.357490	0.285539
C124	C	1.289091	0.857490	0.785539
O125	O	0.817536	0.385730	0.313987
O126	O	1.317536	0.885730	0.813987
C127	C	0.789088	0.302886	0.285539
C128	C	1.289088	0.802886	0.785539
C129	C	0.755647	0.275583	0.252088
C130	C	1.255647	0.775583	0.752088
C131	C	0.688768	0.275576	0.185196
C132	C	1.188768	0.775576	0.685196
C133	C	0.688770	0.220975	0.185193
C134	C	1.188770	0.720975	0.685193
C135	C	0.722210	0.193678	0.218638
C136	C	1.222210	0.693678	0.718638
C137	C	0.755648	0.220982	0.252085
C138	C	1.255648	0.720982	0.752085
C139	C	0.822527	0.275587	0.318990
C140	C	1.322527	0.775587	0.818990
C141	C	0.822521	0.220980	0.318987
C142	C	1.322521	0.720980	0.818987
C143	C	0.789080	0.193676	0.285536
C144	C	1.289080	0.693676	0.785536
C145	C	0.789090	0.139085	0.285527
C146	C	1.289090	0.639085	0.785527
N147	N	0.755647	0.111778	0.252082
N148	N	1.255647	0.611778	0.752082
C149	C	0.722207	0.139075	0.218637
C150	C	1.222207	0.639075	0.718637
C151	C	0.789093	0.472160	0.285538
C152	C	1.289093	0.972160	0.785538
C153	C	0.789098	0.526763	0.285536
C154	C	1.289098	1.026763	0.785536
C155	C	0.722213	0.526753	0.218643
C156	C	1.222213	1.026753	0.718643
C157	C	0.722210	0.472150	0.218643
C158	C	1.222210	0.972150	0.718643
C159	C	0.755650	0.444854	0.252093
C160	C	1.255650	0.944854	0.752093
C161	C	0.722213	0.024410	0.218633
C162	C	1.222213	0.524410	0.718633
C163	C	0.722219	-0.030196	0.218631
C164	C	1.222219	0.469804	0.718631
C165	C	0.789102	-0.030181	0.285526
C166	C	1.289102	0.469819	0.785526
C167	C	0.789098	0.024420	0.285526
C168	C	1.289098	0.524420	0.785526
C169	C	0.755650	0.051714	0.252078
C170	C	1.255650	0.551714	0.752078
O171	O	0.817525	0.110806	0.313943
O172	O	1.317525	0.610806	0.813943
O173	O	0.693762	0.110828	0.190199
O174	O	1.193762	0.610828	0.690199
C175	C	0.755637	-0.251951	0.116225
C176	C	1.255637	0.248049	0.616225
C177	C	0.755731	-0.251807	0.058111
C178	C	1.255731	0.248193	0.558111
C179	C	0.789136	-0.218432	0.806934
C180	C	1.289136	0.281568	1.306934
C181	C	0.789143	-0.218417	0.861538
C182	C	1.289143	0.281583	1.361538
O183	O	0.817574	-0.189967	0.889788
O184	O	1.317574	0.310033	1.389788
N185	N	0.755705	-0.251844	0.888837
N186	N	1.255705	0.248156	1.388837
C187	C	0.722255	-0.285283	0.861530
C188	C	1.222255	0.214717	1.361530
O189	O	0.693814	-0.313713	0.889764
O190	O	1.193814	0.186287	1.389764
C191	C	0.722246	-0.285294	0.806926
C192	C	1.222246	0.214706	1.306926
C193	C	0.755690	-0.251870	0.779630
C194	C	1.255690	0.248130	1.279630
C195	C	0.822577	-0.185009	0.779637
C196	C	1.322577	0.314991	1.279637
C197	C	0.822571	-0.185025	0.725037
C198	C	1.322571	0.314975	1.225037
C199	C	0.789124	-0.218462	0.697733
C200	C	1.289124	0.281538	1.197733
C201	C	0.755684	-0.251885	0.725029
C202	C	1.255684	0.248115	1.225029
C203	C	0.688794	-0.318731	0.779619
C204	C	1.188794	0.181269	1.279619
C205	C	0.688788	-0.318739	0.725012
C206	C	1.188788	0.181261	1.225012
C207	C	0.722231	-0.285314	0.697716
C208	C	1.222231	0.214686	1.197716
C209	C	0.722232	-0.285338	0.643125
C210	C	1.222232	0.214662	1.143125
N211	N	0.755669	-0.251912	0.615825
N212	N	1.255669	0.248088	1.115825
C213	C	0.789116	-0.218474	0.643129
C214	C	1.289116	0.281526	1.143129
C215	C	0.722275	-0.285256	0.976200
C216	C	1.222275	0.214744	1.476200
C217	C	0.722286	-0.285247	1.030803
C218	C	1.222286	0.214753	1.530803
C219	C	0.789173	-0.218381	1.030807
C220	C	1.289173	0.281619	1.530807
C221	C	0.789165	-0.218392	0.976204
C222	C	1.289165	0.281608	1.476204
C223	C	0.755713	-0.251829	0.948901
C224	C	1.255713	0.248171	1.448901
C225	C	0.789101	-0.218509	0.528464
C226	C	1.289101	0.281491	1.028464
C227	C	0.789094	-0.218528	0.473859
C228	C	1.289094	0.281472	0.973859
C229	C	0.722205	-0.285393	0.473859
C230	C	1.222205	0.214607	0.973859
C231	C	0.722214	-0.285375	0.528459
C232	C	1.222214	0.214625	1.028459
C233	C	0.755664	-0.251929	0.555761
C234	C	1.255664	0.248071	1.055761
O235	O	0.693813	-0.313773	0.614840
O236	O	1.193813	0.186227	1.114840
O237	O	0.817547	-0.190044	0.614889
O238	O	1.317547	0.309956	1.114889
H239	H	0.556626	-0.312723	0.312598
H240	H	1.056626	0.187277	0.812598
Cl241	Cl	0.680172	0.561079	0.176599
Cl242	Cl	1.180172	1.061079	0.676599
Cl243	Cl	-0.056870	-0.327592	0.327478
Cl244	Cl	0.443130	0.172408	0.827478
Cl245	Cl	-0.056941	-0.176428	0.176758
Cl246	Cl	0.443059	0.323572	0.676758
H247	H	0.816335	0.548990	0.312769
H248	H	1.316335	1.048990	0.812769
H249	H	0.054207	-0.191241	0.191537
H250	H	0.554207	0.308759	0.691537
Cl251	Cl	0.680249	-0.327277	1.065111
Cl252	Cl	1.180249	0.172723	1.565111
Cl253	Cl	0.445495	-0.327560	0.327412
Cl254	Cl	0.945495	0.172440	0.827412
H255	H	0.694987	-0.052424	0.191390
H256	H	1.194987	0.447576	0.691390
H257	H	0.054280	-0.312760	0.312677
H258	H	0.554280	0.187240	0.812677
H259	H	0.816326	0.449939	0.312777
H260	H	1.316326	0.949939	0.812777
Cl261	Cl	0.680164	0.058714	0.176582
Cl262	Cl	1.180164	0.558714	0.676582
Cl263	Cl	0.831145	0.058745	0.327572
Cl264	Cl	1.331145	0.558745	0.827572
H265	H	0.305469	-0.346225	0.346026
H266	H	0.805469	0.153775	0.846026
Cl267	Cl	0.680221	-0.327300	0.941882
Cl268	Cl	1.180221	0.172700	1.441882
Cl269	Cl	0.646730	-0.360776	0.690692
Cl270	Cl	1.146730	0.139224	1.190692
Cl271	Cl	0.646749	-0.360755	0.813921
Cl272	Cl	1.146749	0.139245	1.313921
Cl273	Cl	0.864613	-0.142998	0.690729
Cl274	Cl	1.364613	0.357002	1.190729
Cl275	Cl	0.194226	-0.142896	0.143361
Cl276	Cl	0.694226	0.357104	0.643361
Cl277	Cl	0.317456	-0.142890	0.143348
Cl278	Cl	0.817456	0.357110	0.643348
Cl279	Cl	0.680173	-0.327398	0.562776
Cl280	Cl	1.180173	0.172602	1.062776
Cl281	Cl	0.194343	-0.361065	0.360830
Cl282	Cl	0.694343	0.138935	0.860830
H283	H	0.457495	-0.191213	0.191478
H284	H	0.957495	0.308787	0.691478
Cl285	Cl	0.831141	-0.176506	0.439547
Cl286	Cl	1.331141	0.323494	0.939547
H287	H	0.694975	-0.312619	0.451618
H288	H	1.194975	0.187381	0.951618
H289	H	0.816330	-0.052416	0.312754
H290	H	1.316330	0.447584	0.812754
H291	H	0.816338	-0.191272	0.550687
H292	H	1.316338	0.308728	1.050687
H293	H	0.849813	-0.157777	0.801863
H294	H	1.349813	0.342223	1.301863
Cl295	Cl	0.831219	-0.176343	1.065143
Cl296	Cl	1.331219	0.323657	1.565143
Cl297	Cl	0.831208	-0.176370	0.941894
Cl298	Cl	1.331208	0.323630	1.441894
H299	H	0.556562	-0.191211	0.191464
H300	H	1.056562	0.308789	0.691464
H301	H	0.661537	0.198749	0.157955
H302	H	1.161537	0.698749	0.657955
Cl303	Cl	0.646722	0.309882	0.143147
Cl304	Cl	1.146722	0.809882	0.643147
H305	H	0.694979	0.449922	0.191405
H306	H	1.194979	0.949922	0.691405
Cl307	Cl	0.864568	0.309898	0.361047
Cl308	Cl	1.364568	0.809898	0.861047
H309	H	0.849748	0.198758	0.346231
H310	H	1.349748	0.698758	0.846231
