data_functionalizedCrystal
_audit_creation_method	'MofGen! by Chris Wilmer'
_symmetry_space_group_name_H-M	'P1'
_symmetry_Int_Tables_number	1
_symmetry_cell_setting	triclinic
loop_
_symmetry_equiv_pos_as_xyz
  x,y,z
_cell_length_a	15.297475
_cell_length_b	12.827892
_cell_length_c	12.827885
_cell_angle_alpha	90.029786
_cell_angle_beta	80.312761
_cell_angle_gamma	99.681360
loop_
_atom_site_label
_atom_site_type_symbol
_atom_site_fract_x
_atom_site_fract_y
_atom_site_fract_z
Zn1	Zn	1.379327	0.692884	-0.866944
Zn2	Zn	1.379235	0.867643	-0.692186
Zn3	Zn	1.228451	0.662646	-0.662018
Zn4	Zn	1.228439	0.837293	-0.836702
O5	O	1.303863	0.765116	-0.764462
O6	O	1.505566	0.741422	-0.869045
O7	O	1.359200	0.840497	-0.541941
O8	O	1.248509	0.520430	-0.689232
O9	O	1.505498	0.869817	-0.740651
O10	O	1.359357	0.542645	-0.839791
O11	O	1.248420	0.689887	-0.519777
O12	O	1.102199	0.660457	-0.659908
O13	O	1.248488	0.818089	-0.986956
O14	O	1.102190	0.788769	-0.788247
O15	O	1.359345	0.711993	-1.009175
O16	O	1.359188	1.009844	-0.711326
O17	O	1.248399	0.987546	-0.817501
C18	C	1.069459	0.718039	-0.717523
C19	C	0.969180	0.697925	-0.697466
C20	C	1.303807	1.036615	-0.764433
C21	C	1.303865	1.152780	-0.764471
C22	C	1.303925	0.765029	-1.037045
C23	C	1.303952	0.764991	-1.153204
C24	C	0.686591	0.908886	-0.907810
C25	C	0.780808	0.927792	-0.926651
C26	C	0.827906	0.870327	-0.869357
C27	C	0.780777	0.793952	-0.793218
C28	C	0.686550	0.775050	-0.774369
C29	C	0.827865	0.736491	-0.735916
C30	C	0.780736	0.660116	-0.659777
C31	C	0.686519	0.641217	-0.640932
C32	C	0.639421	0.698682	-0.698226
C33	C	0.922092	0.755393	-0.754765
C34	C	0.922051	0.621557	-0.621323
C35	C	0.827834	0.602651	-0.602483
C36	C	1.539183	0.812378	-0.811586
C37	C	1.639462	0.832518	-0.831668
C38	C	1.303944	0.492563	-0.764520
C39	C	1.303979	0.376416	-0.764545
C40	C	1.358752	1.215577	-0.712016
C41	C	1.358814	1.335639	-0.712055
C42	C	1.249152	0.690456	-1.194024
C43	C	1.249178	0.690415	-1.314080
C44	C	1.303853	0.765139	-0.492951
C45	C	1.304001	0.764917	-0.376828
H46	H	0.960455	0.817578	-0.816758
H47	H	1.256982	1.322461	-0.809451
H48	H	1.405802	1.389601	-0.667143
C49	C	0.535776	0.677873	-0.677521
N50	N	0.457709	0.662197	-0.661933
H51	H	0.819174	0.989978	-0.988642
H52	H	1.405702	1.180457	-0.667083
H53	H	1.350924	0.828730	-1.341689
H54	H	0.960397	0.574766	-0.574668
H55	H	0.904622	0.885724	-0.884702
H56	H	1.256924	1.187904	-0.809414
H57	H	0.789448	0.540466	-0.540489
C58	C	1.367284	0.851237	-1.226044
N59	N	1.414961	0.916226	-1.280901
H60	H	0.648235	0.955672	-0.954445
H61	H	1.202265	0.626599	-1.349227
C62	C	0.634680	0.557204	-0.557175
N63	N	0.595636	0.493923	-0.494091
H64	H	1.202213	0.626676	-1.140091
