data_functionalizedCrystal
_audit_creation_method	'MofGen! by Chris Wilmer'
_symmetry_space_group_name_H-M	'P1'
_symmetry_Int_Tables_number	1
_symmetry_cell_setting	triclinic
loop_
_symmetry_equiv_pos_as_xyz
  x,y,z
_cell_length_a	21.395362
_cell_length_b	19.077068
_cell_length_c	21.395356
_cell_angle_alpha	92.269849
_cell_angle_beta	89.957023
_cell_angle_gamma	92.343691
loop_
_atom_site_label
_atom_site_type_symbol
_atom_site_fract_x
_atom_site_fract_y
_atom_site_fract_z
Zn1	Zn	0.947857	-0.279924	-0.364584
Zn2	Zn	0.943558	-0.397624	-0.264010
Zn3	Zn	0.843072	-0.279976	-0.259787
Zn4	Zn	0.838838	-0.397620	-0.368715
O5	O	0.893331	-0.338786	-0.314274
O6	O	1.034965	-0.295518	-0.351281
O7	O	0.930201	-0.382041	-0.175773
O8	O	0.860543	-0.181477	-0.270192
O9	O	1.031807	-0.381991	-0.277390
O10	O	0.937528	-0.181439	-0.347186
O11	O	0.856374	-0.295606	-0.172670
O12	O	0.754831	-0.295601	-0.274198
O13	O	0.853327	-0.381984	-0.455844
O14	O	0.751721	-0.382034	-0.354227
O15	O	0.933423	-0.295514	-0.452809
O16	O	0.926095	-0.496116	-0.281396
O17	O	0.849158	-0.496113	-0.358322
C18	C	0.730542	-0.338823	-0.314203
C19	C	0.660900	-0.338856	-0.314188
C20	C	0.626581	-0.383921	-0.355801
C21	C	0.561146	-0.383904	-0.355828
C22	C	0.530032	-0.338829	-0.314231
C23	C	0.564359	-0.293755	-0.272615
C24	C	0.629793	-0.293769	-0.272593
C25	C	0.426511	-0.333169	-0.257624
C26	C	0.361078	-0.333161	-0.257645
C27	C	0.328213	-0.338783	-0.314299
C28	C	0.360789	-0.344429	-0.370934
C29	C	0.426222	-0.344443	-0.370912
C30	C	0.459081	-0.338809	-0.314251
C31	C	0.222943	-0.383832	-0.355945
C32	C	0.157507	-0.383810	-0.355973
C33	C	0.160721	-0.293665	-0.272755
C34	C	0.226156	-0.293683	-0.272732
C35	C	0.257262	-0.338771	-0.314326
C36	C	0.886718	-0.521652	-0.320779
C37	C	0.883946	-0.599883	-0.323583
C38	C	0.922732	-0.636615	-0.284883
C39	C	0.920129	-0.710121	-0.287523
C40	C	0.878736	-0.746895	-0.328862
C41	C	0.839948	-0.710158	-0.367567
C42	C	0.842555	-0.636653	-0.364929
C43	C	0.866643	-0.966733	-0.341047
C44	C	0.864038	-1.040243	-0.343681
C45	C	0.944219	-1.040201	-0.263637
C46	C	0.946820	-0.966695	-0.261000
C47	C	0.908035	-0.929965	-0.299707
N48	N	0.876072	-0.822030	-0.331561
N49	N	0.910702	-0.854831	-0.297011
C50	C	1.056756	-0.338749	-0.314346
C51	C	1.126398	-0.338734	-0.314377
C52	C	0.893382	-0.338743	-0.477696
C53	C	0.893404	-0.338724	-0.547337
C54	C	0.899987	-0.155206	-0.307757
C55	C	0.902824	-0.076975	-0.304980
C56	C	0.854973	-0.293712	-0.578424
C57	C	0.854971	-0.293699	-0.643859
C58	C	0.893412	-0.338690	-0.678204
C59	C	0.931845	-0.383711	-0.647109
C60	C	0.931841	-0.383728	-0.581675
C61	C	0.949667	-0.344206	-0.782106
C62	C	0.949672	-0.344185	-0.847538
C63	C	0.893424	-0.338643	-0.880023
C64	C	0.837169	-0.333108	-0.847067
C65	C	0.837165	-0.333125	-0.781633
C66	C	0.893420	-0.338678	-0.749156
C67	C	0.854988	-0.293614	-0.982062
C68	C	0.854985	-0.293606	-1.047499
C69	C	0.931864	-0.383615	-1.050747
C70	C	0.931862	-0.383627	-0.985312
C71	C	0.893424	-0.338623	-0.950973
C72	C	0.893318	-0.338779	-0.151486
C73	C	0.893425	-0.338599	-0.081839
H74	H	0.254098	-0.256990	-0.238843
H75	H	0.963158	-0.420279	-0.960001
H76	H	0.334032	-0.349006	-0.417067
Cl77	Cl	0.811989	-1.086472	-0.395646
Cl78	Cl	0.766448	-0.326172	-0.740205
H79	H	0.835061	-0.936833	-0.372563
H80	H	0.248271	-0.420541	-0.389817
H81	H	0.452743	-0.349038	-0.417027
Cl82	Cl	0.968893	-0.756295	-0.238871
Cl83	Cl	0.787914	-0.756388	-0.419540
Cl84	Cl	0.467819	-0.326103	-0.186394
H85	H	0.791367	-0.328591	-0.873514
Cl86	Cl	0.992979	-1.086380	-0.214984
H87	H	0.539022	-0.257054	-0.238748
Cl88	Cl	0.806669	-0.237092	-0.682948
H89	H	0.810972	-0.606747	-0.396444
H90	H	0.651904	-0.420634	-0.389671
H91	H	0.995475	-0.348713	-0.755662
H92	H	0.980525	-0.936755	-0.227339
Cl93	Cl	0.806664	-0.237043	-0.938891
H94	H	0.995478	-0.348688	-0.874366
H95	H	0.963143	-0.420344	-0.675076
H96	H	0.963138	-0.420382	-0.556364
H97	H	0.956436	-0.606679	-0.251217
H98	H	0.135389	-0.256961	-0.238889
H99	H	0.823686	-0.256954	-1.072809
Cl100	Cl	0.806649	-0.237139	-0.535259
H101	H	0.533199	-0.420601	-0.389717
Cl102	Cl	0.672938	-0.237111	-0.220275
Cl103	Cl	0.114363	-0.440465	-0.408296
H104	H	0.334560	-0.328568	-0.211529
Cl105	Cl	0.980186	-0.440182	-1.093917
