data_functionalizedCrystal
_audit_creation_method	'MofGen! by Chris Wilmer'
_symmetry_space_group_name_H-M	'P1'
_symmetry_Int_Tables_number	1
_symmetry_cell_setting	triclinic
loop_
_symmetry_equiv_pos_as_xyz
  x,y,z
_cell_length_a	14.519709
_cell_length_b	10.723024
_cell_length_c	9.198806
_cell_angle_alpha	89.996352
_cell_angle_beta	89.995869
_cell_angle_gamma	84.074007
loop_
_atom_site_label
_atom_site_type_symbol
_atom_site_fract_x
_atom_site_fract_y
_atom_site_fract_z
O1	O	0.129347	1.655978	-0.120886
O2	O	0.462681	1.989312	0.212447
O3	O	0.796014	2.322645	0.545780
O4	O	0.141728	1.292710	-0.120892
O5	O	0.475062	1.626043	0.212442
O6	O	0.808395	1.959377	0.545775
O7	O	0.001349	1.483976	-0.120876
O8	O	0.334682	1.817309	0.212457
O9	O	0.668015	2.150642	0.545791
O10	O	0.269727	1.464713	-0.120902
O11	O	0.603061	1.798046	0.212431
O12	O	0.936394	2.131379	0.545764
O13	O	0.001348	1.483960	0.120909
O14	O	0.334682	1.817294	0.454242
O15	O	0.668015	2.150627	0.787576
O16	O	0.141728	1.292695	0.120893
O17	O	0.475061	1.626028	0.454227
O18	O	0.808395	1.959362	0.787560
O19	O	0.129347	1.655963	0.120899
O20	O	0.462680	1.989296	0.454232
O21	O	0.796014	2.322630	0.787565
Cu22	Cu	0.135538	1.474328	0.142973
Cu23	Cu	0.468871	1.807661	0.476306
Cu24	Cu	0.802204	2.140994	0.809639
Cu25	Cu	0.135538	1.474345	-0.142966
Cu26	Cu	0.468871	1.807679	0.190367
Cu27	Cu	0.802205	2.141012	0.523701
O28	O	0.269727	1.464697	0.120883
O29	O	0.603060	1.798031	0.454216
O30	O	0.936393	2.131364	0.787549
C31	C	0.140827	1.246211	0.000000
C32	C	0.474161	1.579545	0.333334
C33	C	0.807494	1.912878	0.666667
C34	C	0.138132	1.107682	-0.000001
C35	C	0.471465	1.441016	0.333332
C36	C	0.804798	1.774349	0.666665
C37	C	-0.033016	1.483070	0.000017
C38	C	0.300317	1.816404	0.333350
C39	C	0.633651	2.149737	0.666684
C40	C	-0.135411	1.480380	0.000018
C41	C	0.197922	1.813713	0.333351
C42	C	0.531256	2.147047	0.666684
C43	C	0.216681	1.031965	-0.000010
C44	C	0.550014	1.365298	0.333323
C45	C	0.883347	1.698632	0.666657
C46	C	0.213896	0.888788	-0.000012
C47	C	0.547230	1.222121	0.333322
C48	C	0.880563	1.555454	0.666655
C49	C	-0.510357	1.470476	-0.000020
C50	C	-0.177024	1.803810	0.333313
C51	C	0.156309	2.137143	0.666646
C52	C	-0.406035	1.473227	-0.000009
C53	C	-0.072702	1.806560	0.333324
C54	C	0.260631	2.139893	0.666657
C55	C	-0.322887	1.475428	0.000000
C56	C	0.010446	1.808761	0.333333
C57	C	0.343779	2.142095	0.666667
C58	C	-0.218559	1.478179	0.000008
C59	C	0.114775	1.811512	0.333342
C60	C	0.448108	2.144845	0.666675
C61	C	0.304091	1.465603	-0.000013
C62	C	0.637425	1.798936	0.333320
C63	C	0.970758	2.132269	0.666653
C64	C	0.406486	1.468293	-0.000024
C65	C	0.739820	1.801626	0.333310
C66	C	1.073153	2.134960	0.666643
C67	C	0.130248	1.702462	0.000003
C68	C	0.463582	2.035795	0.333337
C69	C	0.796915	2.369128	0.666670
C70	C	0.132944	1.840991	-0.000005
C71	C	0.466277	2.174324	0.333329
C72	C	0.799611	2.507657	0.666662
N73	N	0.135537	1.474324	0.344087
N74	N	0.468870	1.807657	0.677420
N75	N	0.802203	2.140991	1.010753
N76	N	0.135532	1.474359	-0.344080
N77	N	0.468865	1.807692	-0.010747
N78	N	0.802198	2.141026	0.322587
C79	C	0.076335	1.554633	0.416290
C80	C	0.409669	1.887967	0.749624
C81	C	0.743002	2.221300	1.082957
C82	C	0.076332	1.554653	0.583703
C83	C	0.409665	1.887986	0.917036
C84	C	0.742999	2.221319	1.250369
H85	H	0.285991	1.073139	-0.000009
H86	H	0.619324	1.406472	0.333325
H87	H	0.952657	1.739806	0.666658
H88	H	0.025651	1.623414	0.645795
H89	H	0.358984	1.956747	0.979128
H90	H	0.692317	2.290080	1.312461
H91	H	0.186222	1.405604	0.593837
H92	H	0.519556	1.738937	0.927171
H93	H	0.852889	2.072270	1.260504
H94	H	0.186216	1.405578	0.406209
H95	H	0.519549	1.738911	0.739542
H96	H	0.852882	2.072244	1.072876
N97	N	0.298250	0.807161	-0.000030
N98	N	0.631584	1.140495	0.333303
N99	N	0.964917	1.473828	0.666637
N100	N	0.295870	0.690969	-0.000033
N101	N	0.629203	1.024302	0.333300
N102	N	0.962536	1.357636	0.666633
H103	H	0.355447	0.633315	-0.000045
H104	H	0.688780	0.966649	0.333289
H105	H	1.022114	1.299982	0.666622
N106	N	0.051177	1.056045	0.000040
N107	N	0.384510	1.389379	0.333373
N108	N	0.717844	1.722712	0.666706
N109	N	0.031109	0.986647	0.101967
N110	N	0.364443	1.319980	0.435301
N111	N	0.697776	1.653314	0.768634
H112	H	-0.030306	0.950181	0.102000
H113	H	0.303028	1.283515	0.435334
H114	H	0.636361	1.616848	0.768667
N115	N	0.012737	1.640787	0.338281
N116	N	0.346070	1.974120	0.671615
N117	N	0.679404	2.307454	1.004948
N118	N	-0.044578	1.600646	0.253340
N119	N	0.288755	1.933980	0.586674
N120	N	0.622089	2.267313	0.920007
H121	H	-0.089499	1.661467	0.198214
H122	H	0.243835	1.994801	0.531547
H123	H	0.577168	2.328134	0.864880
H124	H	0.065696	0.906045	-0.000006
H125	H	0.399029	1.239378	0.333327
H126	H	0.732363	1.572712	0.666660
