data_functionalizedCrystal
_audit_creation_method	'MofGen! by Chris Wilmer'
_symmetry_space_group_name_H-M	'P1'
_symmetry_Int_Tables_number	1
_symmetry_cell_setting	triclinic
loop_
_symmetry_equiv_pos_as_xyz
  x,y,z
_cell_length_a	10.489741
_cell_length_b	16.109318
_cell_length_c	14.586319
_cell_angle_alpha	90.002271
_cell_angle_beta	89.999881
_cell_angle_gamma	84.003869
loop_
_atom_site_label
_atom_site_type_symbol
_atom_site_fract_x
_atom_site_fract_y
_atom_site_fract_z
O1	O	0.164045	1.104136	0.076163
O2	O	0.184425	0.862202	0.076182
O3	O	-0.011442	0.988674	0.076167
O4	O	0.359912	0.977664	0.076179
O5	O	-0.011431	0.988659	-0.076314
O6	O	0.184436	0.862186	-0.076299
O7	O	0.164057	1.104121	-0.076317
Cu8	Cu	0.174248	0.983152	-0.090231
Cu9	Cu	0.174234	0.983171	0.090095
O10	O	0.359924	0.977648	-0.076302
C11	C	0.183601	0.831214	-0.000056
C12	C	0.181115	0.738905	-0.000049
C13	C	0.173077	0.439790	0.083052
C14	C	0.175405	0.526525	0.083057
C15	C	0.175400	0.526527	-0.083185
C16	C	0.173063	0.439794	-0.083190
C17	C	0.171908	0.396427	-0.000069
C18	C	0.176573	0.569896	-0.000058
C19	C	0.179097	0.663938	-0.000053
C20	C	0.169382	0.302378	-0.000074
C21	C	-0.058956	0.987835	-0.000073
C22	C	-0.200550	0.985347	-0.000071
C23	C	-0.267530	0.904876	-0.000058
C24	C	-0.360195	0.942882	-0.075242
C25	C	-0.360181	0.942917	0.075092
C26	C	-0.291350	1.023386	-0.075317
C27	C	-0.291326	1.023409	0.075085
C28	C	-0.383964	1.061474	-0.000118
C29	C	0.407438	0.978488	-0.000060
C30	C	0.549031	0.980976	-0.000056
C31	C	0.164880	1.135108	-0.000077
C32	C	0.167367	1.227418	-0.000078
N33	N	0.174256	0.983145	-0.217063
C34	C	0.251625	1.034045	-0.452070
C35	C	0.251617	1.034053	-0.548052
C36	C	0.096837	0.932283	-0.548058
C37	C	0.096840	0.932279	-0.452079
C38	C	0.174242	0.983158	-0.404087
C39	C	0.174230	0.983171	-0.596048
C40	C	0.174220	0.983180	-0.700115
C41	C	0.174250	0.983151	-0.300014
N42	N	0.174215	0.983184	0.216927
H43	H	-0.216925	0.838714	-0.000129
H44	H	0.314651	1.075474	-0.412999
H45	H	0.314629	1.075491	-0.587115
H46	H	0.172135	0.404483	0.150735
C47	C	0.012778	0.876937	-0.400141
C48	C	-0.054975	0.832358	-0.462711
C49	C	-0.132412	0.781366	-0.414899
H50	H	-0.046009	0.910566	-0.362693
H51	H	0.065004	0.838944	-0.362722
H52	H	-0.107198	0.870346	-0.500114
H53	H	0.003779	0.798713	-0.500161
H54	H	-0.080185	0.743373	-0.377480
H55	H	-0.191190	0.815001	-0.377453
H56	H	-0.178382	0.751108	-0.457345
H57	H	0.176343	0.561847	-0.150860
C58	C	0.176741	0.573450	0.173400
C59	C	0.175260	0.516901	0.246187
C60	C	0.176505	0.560095	0.329428
H61	H	0.103336	0.613179	0.176992
H62	H	0.252015	0.601371	0.176904
H63	H	0.099994	0.488993	0.242685
H64	H	0.248659	0.477170	0.242625
H65	H	0.251780	0.588016	0.332932
H66	H	0.103099	0.599823	0.333011
H67	H	0.175513	0.521732	0.378824
H68	H	0.033821	0.890857	-0.587145
C69	C	-0.401044	0.897644	0.159879
C70	C	-0.485369	0.951908	0.211882
C71	C	-0.523046	0.910224	0.289982
H72	H	-0.327678	0.879526	0.195617
H73	H	-0.442793	0.850680	0.141840
H74	H	-0.443620	0.998857	0.229923
H75	H	-0.558754	0.970029	0.176172
H76	H	-0.564794	0.863259	0.271943
H77	H	-0.449672	0.892107	0.325713
H78	H	-0.580273	0.947033	0.325272
C79	C	0.171864	0.392852	-0.173537
C80	C	0.173420	0.449389	-0.246330
C81	C	0.172328	0.406176	-0.329566
H82	H	0.096636	0.364908	-0.177121
H83	H	0.245316	0.353137	-0.177044
H84	H	0.099975	0.489089	-0.242826
H85	H	0.248642	0.477335	-0.242777
H86	H	0.245780	0.366461	-0.333073
H87	H	0.097099	0.378233	-0.333140
H88	H	0.173396	0.444528	-0.378966
H89	H	-0.390711	0.908827	-0.138800
C90	C	-0.250636	1.068675	-0.160136
C91	C	-0.117475	1.070430	-0.159185
C92	C	-0.079919	1.112129	-0.237310
H93	H	-0.291422	1.124167	-0.160438
H94	H	-0.274684	1.040265	-0.213480
H95	H	-0.093439	1.098841	-0.105855
H96	H	-0.076657	1.014950	-0.158896
H97	H	-0.103967	1.083719	-0.290654
H98	H	-0.120714	1.167618	-0.237605
H99	H	0.010434	1.113318	-0.236679
H100	H	-0.434343	1.127696	-0.000164
H101	H	-0.260777	1.057436	0.138645
