data_functionalizedCrystal
_audit_creation_method	'MofGen! by Chris Wilmer'
_symmetry_space_group_name_H-M	'P1'
_symmetry_Int_Tables_number	1
_symmetry_cell_setting	triclinic
loop_
_symmetry_equiv_pos_as_xyz
  x,y,z
_cell_length_a	8.497374
_cell_length_b	8.497374
_cell_length_c	19.121102
_cell_angle_alpha	92.441575
_cell_angle_beta	92.443878
_cell_angle_gamma	90.005237
loop_
_atom_site_label
_atom_site_type_symbol
_atom_site_fract_x
_atom_site_fract_y
_atom_site_fract_z
Zn1	Zn	0.731412	0.994973	1.073738
Zn2	Zn	0.995157	0.731238	1.073733
Zn3	Zn	0.720113	0.719952	0.956320
Zn4	Zn	0.983870	0.983720	0.956303
O5	O	0.857638	0.857471	1.015023
O6	O	0.775851	0.969421	1.172022
O7	O	0.958667	0.508979	1.058162
O8	O	0.500850	0.756420	0.971905
O9	O	0.969623	0.775657	1.172018
O10	O	0.509152	0.958477	1.058172
O11	O	0.756593	0.500687	0.971899
O12	O	0.745648	0.745508	0.858032
O13	O	0.950386	1.205974	0.971876
O14	O	0.939429	0.939297	0.858020
O15	O	0.764906	1.214242	1.058155
O16	O	1.214421	0.764745	1.058146
O17	O	1.206129	0.950241	0.971871
C18	C	0.840089	0.839957	0.832542
C19	C	0.832619	0.832503	0.754476
C20	C	1.267517	0.857493	1.015014
C21	C	1.446163	0.857469	1.015033
C22	C	0.857640	1.268951	1.015018
C23	C	0.857657	1.447595	1.015020
C24	C	0.930154	0.929738	0.717812
C25	C	0.923115	0.922740	0.644460
C26	C	0.818548	0.818499	0.607774
C27	C	0.721003	0.721261	0.644443
C28	C	0.728035	0.728267	0.717793
C29	C	0.792252	0.792313	0.386303
C30	C	0.785230	0.785311	0.312947
C31	C	0.987341	0.986794	0.312970
C32	C	0.994371	0.993784	0.386322
C33	C	0.896820	0.896551	0.422984
C34	C	0.811354	0.811341	0.532797
C35	C	0.904007	0.903718	0.497960
C36	C	0.875257	0.875053	1.198217
C37	C	0.882765	0.882546	1.276284
H38	H	1.015309	1.014617	0.747677
O39	O	1.018037	1.017237	0.608954
C40	C	1.111825	1.110756	0.657063
H41	H	1.122176	1.051126	0.709346
H42	H	1.234124	1.125345	0.635876
H43	H	1.055019	1.231416	0.664869
O44	O	1.005369	1.005060	0.533671
C45	C	0.919777	1.111164	0.576092
H46	H	0.801180	1.056758	0.587067
H47	H	0.989004	1.137123	0.627678
H48	H	0.899935	1.225406	0.547834
H49	H	1.066759	1.065958	0.283111
H50	H	0.700061	0.700435	0.283079
O51	O	0.633465	0.633577	0.753381
C52	C	0.665950	0.474581	0.735435
H53	H	0.790033	0.464505	0.715270
H54	H	0.656868	0.401272	0.783668
H55	H	0.577221	0.429398	0.692855
O56	O	0.697433	0.697706	0.421802
C57	C	0.603610	0.604231	0.373690
H58	H	0.663220	0.593670	0.321407
H59	H	0.588597	0.481986	0.394874
H60	H	0.483146	0.661446	0.365884
O61	O	0.709873	0.709871	0.497230
C62	C	0.745839	0.554286	0.515116
H63	H	0.811568	0.555986	0.568377
H64	H	0.632110	0.483952	0.517604
H65	H	0.822918	0.497108	0.473831
O66	O	1.095986	1.095184	0.421848
C67	C	1.180596	1.179479	0.373758
H68	H	1.110975	1.180052	0.321471
H69	H	1.199662	1.305772	0.394963
H70	H	1.299568	1.120778	0.365954
O71	O	0.619200	0.620172	0.608841
C72	C	0.463745	0.656574	0.626778
H73	H	0.457915	0.784544	0.646948
H74	H	0.381158	0.638487	0.578539
H75	H	0.426457	0.576128	0.669351
