data_functionalizedCrystal
_audit_creation_method	'MofGen! by Chris Wilmer'
_symmetry_space_group_name_H-M	'P1'
_symmetry_Int_Tables_number	1
_symmetry_cell_setting	triclinic
loop_
_symmetry_equiv_pos_as_xyz
  x,y,z
_cell_length_a	42.784839
_cell_length_b	42.784841
_cell_length_c	42.784893
_cell_angle_alpha	90.002418
_cell_angle_beta	59.997780
_cell_angle_gamma	119.999863
loop_
_atom_site_label
_atom_site_type_symbol
_atom_site_fract_x
_atom_site_fract_y
_atom_site_fract_z
O1	O	0.275695	-0.214412	-0.009300
O2	O	0.211692	-0.168961	0.009253
O3	O	0.275692	-0.168961	-0.054750
O4	O	0.211694	-0.214412	0.054702
O5	O	0.223708	-0.220945	-0.054749
O6	O	0.159708	-0.220945	0.009253
O7	O	0.223710	-0.266397	-0.009300
Zn8	Zn	0.183455	-0.251924	-0.000023
Zn9	Zn	0.251947	-0.183433	-0.000024
O10	O	0.159710	-0.266396	0.054703
C11	C	0.051021	-0.022778	0.028112
C12	C	0.013142	-0.041761	0.028375
C13	C	0.051018	-0.079378	0.028116
C14	C	0.013139	-0.098275	0.028379
C15	C	-0.005578	-0.079377	0.028112
C16	C	0.069652	-0.041762	0.028379
C17	C	0.152948	0.113708	0.017863
C18	C	0.173786	0.152360	0.014965
C19	C	0.155902	0.171750	0.013509
C20	C	0.178499	0.213661	0.010359
C21	C	0.117177	0.152485	0.014953
C22	C	0.096339	0.113835	0.017857
C23	C	0.114226	0.094447	0.019312
C24	C	-0.131813	-0.113936	0.017859
C25	C	-0.167567	-0.131750	0.014961
C26	C	-0.185502	-0.169024	0.013506
C27	C	-0.224264	-0.188340	0.010358
C28	C	-0.167685	-0.188485	0.014954
C29	C	-0.131938	-0.170675	0.017859
C30	C	-0.114002	-0.133396	0.019309
C31	C	0.152939	-0.113943	0.017877
C32	C	0.173778	-0.131757	0.014977
C33	C	0.155892	-0.169032	0.013523
C34	C	0.178486	-0.188349	0.010377
C35	C	0.117170	-0.188491	0.014967
C36	C	0.096334	-0.170675	0.017865
C37	C	0.114220	-0.133401	0.019323
C38	C	0.091629	0.052537	0.022456
C39	C	0.073617	0.019131	0.024964
C40	C	0.073613	-0.098693	0.024971
C41	C	0.091623	-0.114089	0.022466
C42	C	-0.044339	-0.098690	0.024964
C43	C	-0.075237	-0.114084	0.022456
O44	O	-0.327856	-0.266388	-0.009322
O45	O	-0.236954	-0.220935	0.009228
O46	O	-0.236950	-0.220939	-0.054773
O47	O	-0.327860	-0.266385	0.054680
O48	O	-0.236948	-0.168954	-0.054776
O49	O	-0.236952	-0.168950	0.009225
O50	O	-0.327854	-0.214403	-0.009325
Zn51	Zn	-0.282403	-0.183423	-0.000050
Zn52	Zn	-0.282405	-0.251916	-0.000046
O53	O	-0.327858	-0.214400	0.054676
C54	C	0.384390	-0.079141	-0.361606
C55	C	0.422270	-0.041526	-0.380503
C56	C	0.384390	-0.079141	-0.305008
C57	C	0.422270	-0.041526	-0.323990
C58	C	0.440988	-0.022543	-0.361606
C59	C	0.365758	-0.098038	-0.323991
C60	C	0.282465	-0.170819	-0.396168
C61	C	0.261627	-0.188759	-0.413983
C62	C	0.279513	-0.169420	-0.451257
C63	C	0.256917	-0.188867	-0.470572
C64	C	0.318239	-0.132140	-0.470717
C65	C	0.339076	-0.114205	-0.452905
C66	C	0.321187	-0.133546	-0.415628
C67	C	0.567227	0.113942	-0.453282
C68	C	0.602981	0.152594	-0.471222
C69	C	0.620916	0.171985	-0.451883
C70	C	0.659678	0.213894	-0.471328
C71	C	0.603097	0.152719	-0.414603
C72	C	0.567349	0.114068	-0.396667
C73	C	0.549414	0.094682	-0.416011
C74	C	0.282465	-0.170819	-0.168522
C75	C	0.261624	-0.188757	-0.129868
C76	C	0.279510	-0.169418	-0.110479
C77	C	0.256914	-0.188865	-0.068568
C78	C	0.318233	-0.132140	-0.129742
C79	C	0.339070	-0.114203	-0.168394
C80	C	0.321184	-0.133548	-0.187782
C81	C	0.343783	-0.114094	-0.396315
C82	C	0.361794	-0.098590	-0.380920
C83	C	0.361794	-0.098590	-0.263099
C84	C	0.343783	-0.114094	-0.229693
C85	C	0.479750	0.019366	-0.381054
C86	C	0.510649	0.052771	-0.396557
C87	C	0.440758	-0.356212	-0.028193
C88	C	0.422041	-0.393827	-0.028459
C89	C	0.384158	-0.356213	-0.028190
C90	C	0.365526	-0.393828	-0.028456
C91	C	0.384160	-0.412810	-0.028193
C92	C	0.422038	-0.337315	-0.028456
C93	C	0.567000	-0.264532	-0.017949
C94	C	0.602755	-0.246591	-0.015053
C95	C	0.620692	-0.265931	-0.013601
C96	C	0.659455	-0.246483	-0.010453
C97	C	0.602873	-0.303210	-0.015048
C98	C	0.567125	-0.321146	-0.017949
C99	C	0.549188	-0.301805	-0.019399
C100	C	0.339356	-0.549295	-0.017951
C101	C	0.318645	-0.587947	-0.015055
C102	C	0.279915	-0.607338	-0.013597
C103	C	0.257452	-0.649247	-0.010452
C104	C	0.261899	-0.588073	-0.015042
C105	C	0.282613	-0.549422	-0.017945
C106	C	0.321343	-0.530035	-0.019397
C107	C	0.339344	-0.264537	-0.017936
C108	C	0.318628	-0.246599	-0.015032
C109	C	0.279898	-0.265939	-0.013577
C110	C	0.257433	-0.246493	-0.010426
C111	C	0.261884	-0.303217	-0.015022
C112	C	0.282601	-0.321153	-0.017924
C113	C	0.321334	-0.301808	-0.019385
C114	C	0.510421	-0.321258	-0.022542
C115	C	0.479522	-0.336762	-0.025048
C116	C	0.361696	-0.336765	-0.025041
C117	C	0.343793	-0.321261	-0.022532
C118	C	0.361701	-0.454719	-0.025047
C119	C	0.343799	-0.488125	-0.022541
O120	O	0.223728	0.336934	-0.009323
O121	O	0.159726	0.227482	0.009227
O122	O	0.223729	0.291478	-0.054775
O123	O	0.159725	0.272938	0.054678
O124	O	0.275711	0.291477	-0.054771
O125	O	0.211707	0.227481	0.009230
O126	O	0.275710	0.336932	-0.009320
Zn127	Zn	0.251962	0.282206	-0.000045
Zn128	Zn	0.183474	0.282208	-0.000049
O129	O	0.211707	0.272936	0.054681
O130	O	0.763271	0.337164	-0.496871
O131	O	0.672367	0.227713	-0.451422
O132	O	0.672365	0.291711	-0.451418
O133	O	0.763273	0.273165	-0.496876
O134	O	0.672366	0.291712	-0.503402
O135	O	0.672368	0.227714	-0.503407
O136	O	0.763272	0.337165	-0.548856
Zn137	Zn	0.717820	0.282440	-0.534385
Zn138	Zn	0.717819	0.282438	-0.465893
O139	O	0.763275	0.273167	-0.548860
O140	O	0.211690	-0.214417	-0.548617
O141	O	0.275691	-0.168962	-0.503167
O142	O	0.211689	-0.168964	-0.503163
O143	O	0.275692	-0.214415	-0.548621
O144	O	0.159706	-0.220947	-0.451179
O145	O	0.223708	-0.220945	-0.451183
O146	O	0.159707	-0.266400	-0.496633
Zn147	Zn	0.183454	-0.251926	-0.465654
Zn148	Zn	0.251944	-0.183436	-0.534146
O149	O	0.223709	-0.266398	-0.496637
C150	C	-0.005343	-0.412572	0.361558
C151	C	0.013375	-0.393590	0.380456
C152	C	0.051255	-0.355974	0.304961
C153	C	0.069887	-0.337077	0.323944
C154	C	0.051254	-0.355974	0.361560
C155	C	0.013375	-0.393589	0.323943
C156	C	-0.131582	-0.549057	0.396116
C157	C	-0.167336	-0.587709	0.413930
C158	C	-0.185271	-0.607098	0.451205
C159	C	-0.224034	-0.649009	0.470519
C160	C	-0.167452	-0.587833	0.470666
C161	C	-0.131705	-0.549184	0.452854
C162	C	-0.113770	-0.529796	0.415578
C163	C	0.096061	-0.321414	0.453239
C164	C	0.116773	-0.303600	0.471179
C165	C	0.155502	-0.266327	0.451842
C166	C	0.177965	-0.247011	0.471288
C167	C	0.173517	-0.246866	0.414562
C168	C	0.152802	-0.264677	0.396625
C169	C	0.114073	-0.301955	0.415968
C170	C	0.096064	-0.321412	0.168474
C171	C	0.116779	-0.303599	0.129820
C172	C	0.155508	-0.266324	0.110432
C173	C	0.177972	-0.247009	0.068521
C174	C	0.173522	-0.246865	0.129696
C175	C	0.152807	-0.264680	0.168348
C176	C	0.114075	-0.301953	0.187735
C177	C	-0.075004	-0.487887	0.396265
C178	C	-0.044106	-0.454481	0.380871
C179	C	0.073715	-0.336660	0.263052
C180	C	0.091618	-0.321265	0.229646
C181	C	0.073714	-0.336661	0.381009
C182	C	0.091616	-0.321267	0.396513
C183	C	0.051046	-0.022794	-0.361634
C184	C	0.069679	-0.041778	-0.380530
C185	C	-0.005555	-0.079390	-0.305034
C186	C	0.013163	-0.098288	-0.324016
C187	C	0.051045	-0.079393	-0.361631
C188	C	0.013164	-0.041775	-0.324018
C189	C	0.095858	0.113693	-0.396200
C190	C	0.116571	0.152344	-0.414015
C191	C	0.155302	0.171732	-0.451290
C192	C	0.177767	0.213642	-0.470607
C193	C	0.173317	0.152465	-0.470750
C194	C	0.152600	0.113815	-0.452936
C195	C	0.113869	0.094429	-0.415659
C196	C	0.152973	-0.113959	-0.453306
C197	C	0.173810	-0.131775	-0.471245
C198	C	0.155926	-0.169048	-0.451906
C199	C	0.178519	-0.188366	-0.471350
C200	C	0.117198	-0.188507	-0.414626
C201	C	0.096358	-0.170694	-0.396690
C202	C	0.114251	-0.133416	-0.416035
C203	C	-0.131801	-0.113944	-0.168548
C204	C	-0.167554	-0.131755	-0.129895
C205	C	-0.185491	-0.169029	-0.110504
C206	C	-0.224255	-0.188343	-0.068593
C207	C	-0.167671	-0.188490	-0.129767
C208	C	-0.131918	-0.170677	-0.168418
C209	C	-0.113988	-0.133404	-0.187808
C210	C	0.091411	0.052521	-0.396344
C211	C	0.073508	0.019115	-0.380949
C212	C	-0.044320	-0.098701	-0.263125
C213	C	-0.075220	-0.114094	-0.229719
C214	C	0.073641	-0.098707	-0.381079
C215	C	0.091652	-0.114103	-0.396582
C216	C	-0.615853	-0.356193	0.361535
C217	C	-0.634487	-0.393808	0.380433
C218	C	-0.559253	-0.356195	0.304938
C219	C	-0.577972	-0.393810	0.323921
C220	C	-0.615854	-0.412792	0.361537
C221	C	-0.577972	-0.337297	0.323920
C222	C	-0.660661	-0.264512	0.396093
C223	C	-0.681373	-0.246571	0.413906
C224	C	-0.720104	-0.265909	0.451181
C225	C	-0.742568	-0.246461	0.470495
C226	C	-0.738120	-0.303189	0.470643
C227	C	-0.717405	-0.321125	0.452831
C228	C	-0.678674	-0.301785	0.415554
C229	C	-0.717784	-0.549275	0.453218
C230	C	-0.738622	-0.587926	0.471159
C231	C	-0.720740	-0.607319	0.451822
C232	C	-0.743333	-0.649227	0.471268
C233	C	-0.682012	-0.588055	0.414542
C234	C	-0.661170	-0.549403	0.396604
C235	C	-0.679063	-0.530016	0.415946
C236	C	-0.433006	-0.264522	0.168449
C237	C	-0.397253	-0.246585	0.129796
C238	C	-0.379317	-0.265926	0.110407
C239	C	-0.340553	-0.246480	0.068496
C240	C	-0.397138	-0.303204	0.129672
C241	C	-0.432891	-0.321139	0.168324
C242	C	-0.450820	-0.301793	0.187711
C243	C	-0.656216	-0.321238	0.396242
C244	C	-0.638314	-0.336743	0.380848
C245	C	-0.520488	-0.336748	0.263028
C246	C	-0.489588	-0.321245	0.229622
C247	C	-0.638451	-0.454700	0.380987
C248	C	-0.656463	-0.488106	0.396492
C249	C	0.440756	0.310302	-0.361620
C250	C	0.422038	0.310564	-0.380518
C251	C	0.384160	0.310312	-0.305026
C252	C	0.365528	0.310574	-0.324010
C253	C	0.384159	0.310303	-0.361624
C254	C	0.422038	0.310573	-0.324006
C255	C	0.566989	0.300046	-0.396172
C256	C	0.602741	0.297145	-0.413984
C257	C	0.620675	0.295684	-0.451257
C258	C	0.659436	0.292531	-0.470569
C259	C	0.602857	0.297127	-0.470719
C260	C	0.567111	0.300033	-0.452909
C261	C	0.549177	0.301493	-0.415634
C262	C	0.339351	0.300042	-0.453303
C263	C	0.318640	0.297142	-0.471244
C264	C	0.279912	0.295690	-0.451908
C265	C	0.257449	0.292541	-0.471354
C266	C	0.261899	0.297143	-0.414629
C267	C	0.282613	0.300049	-0.396692
C268	C	0.321341	0.301496	-0.416033
C269	C	0.339354	0.300088	-0.168540
C270	C	0.318640	0.297192	-0.129888
C271	C	0.279912	0.295742	-0.110501
C272	C	0.257450	0.292601	-0.068591
C273	C	0.261898	0.297184	-0.129766
C274	C	0.282612	0.300078	-0.168417
C275	C	0.321344	0.301533	-0.187802
C276	C	0.510413	0.304640	-0.396323
C277	C	0.479516	0.307151	-0.380931
C278	C	0.361701	0.307173	-0.263117
C279	C	0.343799	0.304671	-0.229712
C280	C	0.361700	0.307154	-0.381073
C281	C	0.343798	0.304644	-0.396578
O282	O	0.275503	0.336913	-0.548651
O283	O	0.211494	0.227461	-0.503201
O284	O	0.275490	0.291455	-0.503192
O285	O	0.211507	0.272919	-0.548659
O286	O	0.223502	0.291457	-0.451211
O287	O	0.159506	0.227463	-0.451219
O288	O	0.223515	0.336915	-0.496669
Zn289	Zn	0.183256	0.282189	-0.465691
Zn290	Zn	0.251753	0.282187	-0.534179
O291	O	0.159519	0.272921	-0.496677
C292	C	0.051032	0.254111	0.361530
C293	C	0.013154	0.253851	0.380425
C294	C	0.051031	0.254102	0.304932
C295	C	0.013153	0.253842	0.323913
C296	C	-0.005564	0.254113	0.361527
C297	C	0.069663	0.253840	0.323916
C298	C	0.152954	0.264360	0.396096
C299	C	0.173791	0.267260	0.413911
C300	C	0.155906	0.268721	0.451185
C301	C	0.178502	0.271871	0.470501
C302	C	0.117182	0.267279	0.470643
C303	C	0.096345	0.264374	0.452830
C304	C	0.114233	0.262915	0.415555
C305	C	-0.131796	0.264379	0.453195
C306	C	-0.167548	0.267281	0.471133
C307	C	-0.185483	0.268734	0.451793
C308	C	-0.224243	0.271886	0.471236
C309	C	-0.167664	0.267282	0.414515
C310	C	-0.131919	0.264374	0.396581
C311	C	-0.113984	0.262925	0.415925
C312	C	0.152952	0.264325	0.168451
C313	C	0.173792	0.267221	0.129798
C314	C	0.155907	0.268673	0.110407
C315	C	0.178502	0.271814	0.068498
C316	C	0.117186	0.267232	0.129669
C317	C	0.096350	0.264339	0.168320
C318	C	0.114234	0.262881	0.187709
C319	C	0.091638	0.259769	0.396240
C320	C	0.073627	0.257260	0.380845
C321	C	0.073626	0.257242	0.263024
C322	C	0.091636	0.259743	0.229619
C323	C	-0.044324	0.257264	0.380973
C324	C	-0.075221	0.259775	0.396474
H325	H	0.064808	0.098152	0.019035
H326	H	0.064321	0.097912	-0.365848
H327	H	-0.769653	-0.318930	0.500992
H328	H	-0.182070	-0.115902	0.013781
H329	H	-0.002509	-0.129196	-0.308775
C330	C	0.215883	0.268908	0.392737
C331	C	0.248554	0.300872	0.359287
C332	C	0.287338	0.302407	0.339773
H333	H	0.210157	0.246313	0.386262
H334	H	0.225759	0.270867	0.408666
H335	H	0.238680	0.298910	0.343362
H336	H	0.254294	0.323472	0.365751
H337	H	0.297215	0.304366	0.355702
H338	H	0.281608	0.279811	0.333301
H339	H	0.309512	0.324096	0.317077
H340	H	0.205307	-0.115910	0.013801
H341	H	0.552629	0.098160	-0.469035
H342	H	-0.666703	-0.216219	0.398058
H343	H	-0.382532	-0.318952	0.113884
C344	C	-0.187109	-0.228964	0.013402
C345	C	-0.163862	-0.242197	0.015301
C346	C	-0.181746	-0.279485	0.013875
H347	H	-0.184783	-0.229002	-0.009869
H348	H	-0.217335	-0.245247	0.034423
H349	H	-0.133643	-0.225919	-0.005718
H350	H	-0.166186	-0.242169	0.038570
H351	H	-0.211972	-0.295768	0.034896
H352	H	-0.179420	-0.279519	-0.009396
H353	H	-0.165979	-0.288470	0.015167
H354	H	0.332799	-0.116397	-0.501067
C355	C	-0.112505	-0.191735	0.019373
C356	C	-0.067966	-0.171153	-0.011628
C357	C	-0.050048	-0.190540	-0.010246
H358	H	-0.128252	-0.216485	0.018075
H359	H	-0.114810	-0.194091	0.042638
H360	H	-0.065665	-0.168802	-0.034887
H361	H	-0.052208	-0.146405	-0.010336
H362	H	-0.052353	-0.192896	0.013019
H363	H	-0.065798	-0.215288	-0.011543
H364	H	-0.019826	-0.176576	-0.031277
H365	H	-0.117214	-0.083584	0.019042
H366	H	0.230365	-0.603862	-0.013858
H367	H	0.167477	-0.248833	0.184031
H368	H	0.204850	0.168253	-0.501099
H369	H	0.102633	-0.218858	-0.398880
H370	H	0.101900	0.168027	-0.398169
C371	C	-0.557043	-0.296062	0.303640
C372	C	-0.544479	-0.272988	0.324005
C373	C	-0.525190	-0.235000	0.305332
H374	H	-0.577780	-0.294545	0.302322
H375	H	-0.531736	-0.287460	0.278478
H376	H	-0.569782	-0.281587	0.349160
H377	H	-0.523736	-0.274493	0.325324
H378	H	-0.499884	-0.226398	0.280170
H379	H	-0.545931	-0.233487	0.304014
H380	H	-0.516660	-0.219339	0.319144
C381	C	0.215846	0.268808	0.108815
C382	C	0.230273	0.271664	0.070814
C383	C	0.269014	0.273131	0.051472
H384	H	0.210102	0.246196	0.120998
H385	H	0.238088	0.290485	0.109283
H386	H	0.208036	0.249990	0.070348
H387	H	0.236026	0.294276	0.058619
H388	H	0.291256	0.294808	0.051940
H389	H	0.263266	0.250518	0.063658
H390	H	0.278809	0.275073	0.025685
H391	H	-0.002293	-0.408830	0.308704
H392	H	0.167518	0.263140	0.184235
C393	C	-0.186675	-0.608682	0.392820
C394	C	-0.183190	-0.639528	0.389387
C395	C	-0.201004	-0.658858	0.369946
H396	H	-0.170895	-0.591644	0.368057
H397	H	-0.216909	-0.617916	0.406730
H398	H	-0.152962	-0.630295	0.375477
H399	H	-0.198971	-0.656575	0.414145
H400	H	-0.231237	-0.668091	0.383856
H401	H	-0.185223	-0.641817	0.345184
H402	H	-0.198646	-0.679791	0.367617
H403	H	-0.182060	-0.603623	0.501016
C404	C	-0.007790	0.253290	0.303652
C405	C	-0.045033	0.253126	0.328340
C406	C	-0.064334	0.252621	0.309689
H407	H	-0.016380	0.230975	0.296486
H408	H	0.012970	0.275379	0.281419
H409	H	-0.065789	0.231039	0.350565
H410	H	-0.036455	0.275438	0.335506
H411	H	-0.043574	0.274710	0.287457
H412	H	-0.072921	0.230307	0.302524
H413	H	-0.089602	0.252513	0.326435
H414	H	0.064802	-0.186523	0.019045
H415	H	-0.117212	-0.083598	-0.184336
H416	H	0.064816	0.263199	0.468675
H417	H	0.332793	-0.116391	-0.113952
H418	H	0.167269	0.098131	-0.468782
C419	C	0.622260	-0.324272	-0.013416
C420	C	0.589582	-0.357726	0.018545
C421	C	0.607422	-0.377143	0.020058
H422	H	0.646094	-0.308300	-0.011461
H423	H	0.632687	-0.330728	-0.036024
H424	H	0.579161	-0.351270	0.041147
H425	H	0.565746	-0.373708	0.016597
H426	H	0.617850	-0.383599	-0.002550
H427	H	0.631256	-0.361168	0.022011
H428	H	0.585252	-0.399845	0.041740
H429	H	-0.117197	0.263199	0.468949
H430	H	0.437707	0.310988	-0.411425
H431	H	0.167522	0.263171	0.365746
C432	C	-0.186807	0.268884	0.511593
C433	C	-0.163440	0.267006	0.524688
C434	C	-0.181161	0.268491	0.561955
H435	H	-0.217028	0.247883	0.527957
H436	H	-0.184451	0.292172	0.511625
H437	H	-0.165800	0.243721	0.524659
H438	H	-0.133220	0.288005	0.508334
H439	H	-0.178805	0.291779	0.561986
H440	H	-0.211381	0.247490	0.578315
H441	H	-0.165307	0.267220	0.570843
C442	C	0.097804	-0.228967	0.013403
C443	C	0.124330	-0.240410	0.010565
C444	C	0.106502	-0.277694	0.009128
H445	H	0.096763	-0.229610	-0.008266
H446	H	0.068756	-0.245856	0.036027
H447	H	0.153370	-0.223526	-0.012057
H448	H	0.125373	-0.239776	0.032232
H449	H	0.077454	-0.294583	0.031753
H450	H	0.105462	-0.278334	-0.012541
H451	H	0.124495	-0.285465	0.007207
C452	C	0.622158	0.295587	-0.392924
C453	C	0.657310	0.292740	-0.416503
C454	C	0.675209	0.291308	-0.397117
H455	H	0.600040	0.273924	-0.370209
H456	H	0.632581	0.318216	-0.386499
H457	H	0.646885	0.270113	-0.422922
H458	H	0.679436	0.314400	-0.439218
H459	H	0.685633	0.313937	-0.390692
H460	H	0.653088	0.269645	-0.374403
H461	H	0.699064	0.289379	-0.413113
H462	H	0.102623	0.268466	0.500992
C463	C	0.172450	-0.073496	-0.474380
C464	C	0.210815	-0.060274	-0.510868
C465	C	0.228765	-0.023004	-0.530292
H466	H	0.179544	-0.057185	-0.460467
H467	H	0.151508	-0.073497	-0.476722
H468	H	0.231753	-0.060270	-0.508525
H469	H	0.203734	-0.076575	-0.524791
H470	H	0.207823	-0.023005	-0.532634
H471	H	0.235856	-0.006695	-0.516376
H472	H	0.254795	-0.014029	-0.555052
H473	H	0.167506	-0.083593	0.019063
C474	C	0.622019	-0.206150	-0.013399
C475	C	0.589272	-0.205450	0.018571
C476	C	0.607002	-0.168203	0.020111
H477	H	0.632409	-0.189282	-0.035991
H478	H	0.645868	-0.198230	-0.011443
H479	H	0.565431	-0.213365	0.016612
H480	H	0.578879	-0.222310	0.041168
H481	H	0.630850	-0.160283	0.022067
H482	H	0.617391	-0.151338	-0.002482
H483	H	0.584787	-0.167724	0.041804
H484	H	0.552400	-0.248780	-0.019131
C485	C	0.097301	-0.324668	0.108834
C486	C	0.123738	-0.301093	0.070833
C487	C	0.105809	-0.320491	0.051489
H488	H	0.068249	-0.331106	0.121016
H489	H	0.096266	-0.347379	0.109303
H490	H	0.124767	-0.278390	0.070366
H491	H	0.152790	-0.294654	0.058641
H492	H	0.104775	-0.343202	0.051957
H493	H	0.076757	-0.326928	0.063673
H494	H	0.123746	-0.304500	0.025702
H495	H	0.335043	-0.409068	-0.028878
C496	C	0.219819	0.295515	-0.393567
C497	C	0.187081	0.263559	-0.360108
C498	C	0.148312	0.262049	-0.340693
H499	H	0.210001	0.293558	-0.409538
H500	H	0.225546	0.318125	-0.387115
H501	H	0.181353	0.240955	-0.366561
H502	H	0.196884	0.265510	-0.344127
H503	H	0.154039	0.284659	-0.334241
H504	H	0.138498	0.260093	-0.356667
H505	H	0.126095	0.240369	-0.317987
H506	H	-0.002298	-0.408829	0.411365
C507	C	0.381151	-0.073754	-0.189368
C508	C	0.415430	-0.073805	-0.220216
C509	C	0.454200	-0.036550	-0.239547
H510	H	0.388877	-0.064770	-0.172330
H511	H	0.376473	-0.057432	-0.198599
H512	H	0.420109	-0.090122	-0.210985
H513	H	0.407719	-0.082783	-0.237263
H514	H	0.449521	-0.020228	-0.248778
H515	H	0.461922	-0.027568	-0.222507
H516	H	0.477462	-0.036579	-0.260482
H517	H	0.230346	-0.318966	-0.013835
H518	H	0.437704	0.310998	-0.308766
C519	C	-0.187087	0.268833	0.393459
C520	C	-0.163840	0.266929	0.356980
C521	C	-0.181722	0.268354	0.337574
H522	H	-0.184760	0.292104	0.391094
H523	H	-0.217314	0.247814	0.407402
H524	H	-0.133621	0.287947	0.343040
H525	H	-0.166165	0.243659	0.359333
H526	H	-0.211949	0.247335	0.351517
H527	H	-0.179394	0.291626	0.335212
H528	H	-0.165955	0.267059	0.312822
H529	H	0.100368	-0.306171	0.308703
C530	C	0.622616	0.173840	-0.393662
C531	C	0.657730	0.211814	-0.417343
C532	C	0.675717	0.231284	-0.398062
H533	H	0.633097	0.161712	-0.387227
H534	H	0.600516	0.173420	-0.370955
H535	H	0.679826	0.212231	-0.440043
H536	H	0.647261	0.223953	-0.423779
H537	H	0.653616	0.230865	-0.375355
H538	H	0.686195	0.219153	-0.391628
H539	H	0.699541	0.257052	-0.414126
C540	C	-0.618601	-0.243442	0.355628
C541	C	-0.607250	-0.206954	0.342403
C542	C	-0.568505	-0.187533	0.305132
H543	H	-0.623296	-0.257355	0.339318
H544	H	-0.595318	-0.241101	0.355630
H545	H	-0.630527	-0.209296	0.342399
H546	H	-0.602546	-0.193030	0.358703
H547	H	-0.545222	-0.185192	0.305133
H548	H	-0.573204	-0.201450	0.288824
H549	H	-0.560796	-0.162773	0.296155
C550	C	0.443181	-0.021135	-0.421697
C551	C	0.443377	0.011629	-0.423749
C552	C	0.462647	0.030426	-0.461692
H553	H	0.426633	-0.037783	-0.430331
H554	H	0.472674	-0.013954	-0.437410
H555	H	0.413889	0.004448	-0.408042
H556	H	0.459927	0.028286	-0.415123
H557	H	0.492141	0.037607	-0.477405
H558	H	0.446097	0.013775	-0.470322
H559	H	0.462787	0.052660	-0.463090
H560	H	-0.117415	0.263190	0.366230
C561	C	-0.557094	-0.414164	0.303675
C562	C	-0.544549	-0.424681	0.324055
C563	C	-0.525324	-0.443437	0.305423
H564	H	-0.531788	-0.397504	0.278506
H565	H	-0.577875	-0.436420	0.302388
H566	H	-0.523770	-0.402428	0.325338
H567	H	-0.569848	-0.441345	0.349223
H568	H	-0.546104	-0.465694	0.304135
H569	H	-0.500019	-0.426775	0.280254
H570	H	-0.516813	-0.450578	0.319249
H571	H	-0.447603	-0.248768	0.184232
C572	C	0.054300	0.262757	0.189171
C573	C	0.043090	0.264637	0.163921
C574	C	0.004353	0.263177	0.183116
H575	H	0.058953	0.283766	0.198379
H576	H	0.030971	0.239476	0.210109
H577	H	0.066413	0.287916	0.142990
H578	H	0.038428	0.243630	0.154711
H579	H	-0.018976	0.239896	0.204055
H580	H	0.009010	0.284186	0.192324
H581	H	-0.003260	0.264449	0.165988
C582	C	0.547868	-0.361597	-0.019575
C583	C	0.580615	-0.362308	-0.051533
C584	C	0.562893	-0.399567	-0.053039
H585	H	0.524015	-0.369549	-0.021529
H586	H	0.537490	-0.378436	0.003035
H587	H	0.590987	-0.345475	-0.074137
H588	H	0.604469	-0.354363	-0.049586
H589	H	0.552515	-0.416406	-0.030430
H590	H	0.539041	-0.407516	-0.054993
H591	H	0.585110	-0.400055	-0.074720
H592	H	0.267931	-0.351506	-0.019101
H593	H	-0.664969	-0.409045	0.411340
C594	C	0.097822	0.268795	0.108557
C595	C	0.124349	0.271628	0.070588
C596	C	0.106522	0.273064	0.051131
H597	H	0.096783	0.290465	0.108953
H598	H	0.068774	0.246172	0.120715
H599	H	0.153389	0.294249	0.058433
H600	H	0.125390	0.249961	0.070181
H601	H	0.077474	0.250441	0.063289
H602	H	0.105484	0.294734	0.051530
H603	H	0.124515	0.274983	0.025368
H604	H	-0.002525	-0.129181	0.028805
H605	H	0.167470	-0.248829	0.366274
C606	C	-0.737044	-0.361605	0.474014
C607	C	-0.775402	-0.374706	0.510466
C608	C	-0.793509	-0.411998	0.529989
H609	H	-0.716185	-0.361688	0.476425
H610	H	-0.744174	-0.377933	0.460122
H611	H	-0.768271	-0.358382	0.524356
H612	H	-0.796270	-0.374633	0.508067
H613	H	-0.800639	-0.428326	0.516096
H614	H	-0.772648	-0.412077	0.532397
H615	H	-0.819539	-0.420893	0.554722
C616	C	-0.007848	-0.021511	0.029033
C617	C	-0.051282	-0.041896	0.061971
C618	C	-0.070642	-0.023264	0.062599
H619	H	-0.008059	-0.020211	0.006983
H620	H	0.008693	0.003657	0.029174
H621	H	-0.067818	-0.067058	0.061827
H622	H	-0.051083	-0.043197	0.084027
H623	H	-0.054101	0.001905	0.062740
H624	H	-0.070850	-0.021965	0.040547
H625	H	-0.100112	-0.037090	0.084949
C626	C	0.381416	-0.528307	-0.019548
C627	C	0.392767	-0.553446	-0.017675
C628	C	0.431513	-0.534123	-0.019150
H629	H	0.376721	-0.519090	0.001459
H630	H	0.404698	-0.507366	-0.042832
H631	H	0.369490	-0.574380	0.005606
H632	H	0.397472	-0.562664	-0.038681
H633	H	0.454795	-0.513182	-0.042434
H634	H	0.426813	-0.524907	0.001857
H635	H	0.439222	-0.551175	-0.017884
C636	C	0.054009	-0.361882	0.474175
C637	C	0.039726	-0.373319	0.450488
C638	C	0.000989	-0.410593	0.469760
H639	H	0.031707	-0.362510	0.496881
H640	H	0.059727	-0.378782	0.480605
H641	H	0.034006	-0.356423	0.444063
H642	H	0.062017	-0.372700	0.427782
H643	H	0.006706	-0.427494	0.476190
H644	H	-0.021310	-0.411218	0.492466
H645	H	-0.008705	-0.418360	0.453690
C646	C	0.054278	-0.191889	-0.356239
C647	C	0.021614	-0.225347	-0.355532
C648	C	-0.017153	-0.244885	-0.318274
H649	H	0.044368	-0.175991	-0.348286
H650	H	0.060048	-0.198350	-0.339399
H651	H	0.015845	-0.218885	-0.372366
H652	H	0.031510	-0.241254	-0.363478
H653	H	-0.011383	-0.251346	-0.301433
H654	H	-0.027059	-0.228984	-0.310323
H655	H	-0.039319	-0.267590	-0.317788
H656	H	-0.732353	-0.533492	0.468971
H657	H	0.205059	-0.216514	0.113907
C658	C	0.338230	-0.608862	-0.013560
C659	C	0.348668	-0.622386	-0.044570
C660	C	0.366715	-0.641651	-0.043208
H661	H	0.317351	-0.629826	0.009692
H662	H	0.364277	-0.591787	-0.014860
H663	H	0.322624	-0.639460	-0.043266
H664	H	0.369551	-0.601430	-0.067827
H665	H	0.392763	-0.624576	-0.044508
H666	H	0.345834	-0.662613	-0.019955
H667	H	0.373804	-0.650826	-0.064249
C668	C	0.325056	-0.139220	-0.303608
C669	C	0.290448	-0.141242	-0.270858
C670	C	0.252945	-0.179168	-0.252068
H671	H	0.331601	-0.154968	-0.296406
H672	H	0.316544	-0.147825	-0.320278
H673	H	0.298959	-0.132642	-0.254191
H674	H	0.283890	-0.125502	-0.278049
H675	H	0.244432	-0.187773	-0.268739
H676	H	0.259493	-0.194914	-0.244869
H677	H	0.229457	-0.180545	-0.229847
C678	C	-0.780681	-0.608780	0.511622
C679	C	-0.791895	-0.583532	0.524714
C680	C	-0.830642	-0.602731	0.561983
H681	H	-0.776040	-0.617996	0.527984
H682	H	-0.804004	-0.629714	0.511658
H683	H	-0.768578	-0.562606	0.524680
H684	H	-0.796544	-0.574315	0.508362
H685	H	-0.853965	-0.623664	0.562019
H686	H	-0.825997	-0.611946	0.578342
H687	H	-0.838258	-0.585604	0.570870
H688	H	0.205343	-0.115928	-0.501596
H689	H	-0.629638	-0.533721	0.366252
C690	C	0.263130	-0.191798	-0.355723
C691	C	0.294107	-0.195152	-0.355846
C692	C	0.276316	-0.214468	-0.318594
H693	H	0.237095	-0.216581	-0.346647
H694	H	0.256091	-0.177837	-0.339445
H695	H	0.301141	-0.209113	-0.372117
H696	H	0.320145	-0.170374	-0.364914
H697	H	0.269277	-0.200507	-0.302316
H698	H	0.250281	-0.239250	-0.309522
H699	H	0.297332	-0.216743	-0.318672
C700	C	-0.187218	-0.228988	-0.108719
C701	C	-0.231757	-0.252883	-0.095191
C702	C	-0.249774	-0.290192	-0.075806
H703	H	-0.184938	-0.229033	-0.087748
H704	H	-0.171509	-0.238047	-0.125722
H705	H	-0.247461	-0.243827	-0.078188
H706	H	-0.234049	-0.252850	-0.116154
H707	H	-0.234066	-0.299250	-0.092810
H708	H	-0.247491	-0.290233	-0.054837
H709	H	-0.279995	-0.306410	-0.066628
C710	C	0.262974	-0.528580	-0.019487
C711	C	0.224617	-0.553834	-0.017582
C712	C	0.206509	-0.534649	-0.018996
H713	H	0.283832	-0.507638	-0.042756
H714	H	0.255843	-0.519382	0.001537
H715	H	0.231749	-0.563025	-0.038604
H716	H	0.203748	-0.574776	0.005685
H717	H	0.199378	-0.525452	0.002028
H718	H	0.227371	-0.513708	-0.042264
H719	H	0.180480	-0.551782	-0.017700
H720	H	0.100131	-0.026521	0.028807
H721	H	0.167516	0.097925	0.019049
H722	H	0.230091	-0.219108	-0.114185
C723	C	0.215839	0.173214	0.013378
C724	C	0.227049	0.147964	0.015263
C725	C	0.265789	0.167162	0.013795
H726	H	0.211190	0.182428	0.034383
H727	H	0.239166	0.194147	-0.009907
H728	H	0.203727	0.127037	0.038545
H729	H	0.231706	0.138749	-0.005741
H730	H	0.289116	0.188096	-0.009490
H731	H	0.261136	0.176376	0.034801
H732	H	0.273402	0.150035	0.015070
H733	H	0.552845	0.098385	-0.366316
C734	C	0.443132	-0.021148	-0.303669
C735	C	0.443295	0.011600	-0.301802
C736	C	0.462506	0.030383	-0.283085
H737	H	0.472627	-0.013947	-0.317415
H738	H	0.426550	-0.037823	-0.278487
H739	H	0.459877	0.028272	-0.326979
H740	H	0.413806	0.004410	-0.288053
H741	H	0.445924	0.013708	-0.257903
H742	H	0.492000	0.037582	-0.296833
H743	H	0.462615	0.052603	-0.281812
H744	H	-0.117412	-0.186525	-0.184100
H745	H	0.335046	0.310999	-0.308768
C746	C	0.262964	-0.191875	-0.189499
C747	C	0.224584	-0.228355	-0.164354
C748	C	0.206606	-0.247758	-0.183665
H749	H	0.283873	-0.194237	-0.210446
H750	H	0.255885	-0.177932	-0.198702
H751	H	0.231664	-0.242295	-0.155157
H752	H	0.203665	-0.226005	-0.143406
H753	H	0.199527	-0.233815	-0.192868
H754	H	0.227518	-0.250117	-0.204611
H755	H	0.180561	-0.272510	-0.166606
C756	C	0.338278	0.295652	-0.109045
C757	C	0.376635	0.297555	-0.134298
C758	C	0.394743	0.296144	-0.115113
H759	H	0.317420	0.272385	-0.088101
H760	H	0.345409	0.316677	-0.099850
H761	H	0.369503	0.276531	-0.143487
H762	H	0.397504	0.320820	-0.155242
H763	H	0.401874	0.317169	-0.105918
H764	H	0.373881	0.272877	-0.094169
H765	H	0.420772	0.297438	-0.132245
H766	H	0.552391	0.301235	-0.365822
H767	H	0.064523	-0.351759	0.184259
H768	H	0.437709	-0.409066	-0.028885
C769	C	-0.186987	-0.110693	-0.108950
C770	C	-0.231526	-0.131277	-0.095411
C771	C	-0.249445	-0.111889	-0.076112
H772	H	-0.171241	-0.085945	-0.125997
H773	H	-0.184683	-0.108334	-0.087990
H774	H	-0.233828	-0.133632	-0.116369
H775	H	-0.247285	-0.156024	-0.078360
H776	H	-0.247141	-0.109530	-0.055152
H777	H	-0.233695	-0.087142	-0.093162
H778	H	-0.279667	-0.125854	-0.066921
C779	C	-0.007811	-0.021519	-0.303672
C780	C	-0.051252	-0.041888	-0.293155
C781	C	-0.070589	-0.023244	-0.274408
H782	H	0.008721	0.003649	-0.320340
H783	H	-0.007999	-0.020228	-0.281417
H784	H	-0.051062	-0.043175	-0.315408
H785	H	-0.067795	-0.067055	-0.276484
H786	H	-0.070777	-0.021953	-0.252152
H787	H	-0.054054	0.001923	-0.291077
H788	H	-0.100067	-0.037064	-0.267267
H789	H	-0.116983	-0.533275	0.365765
H790	H	-0.117201	-0.533500	0.468702
H791	H	0.617463	0.295940	-0.501068
H792	H	-0.002512	0.253428	0.411332
H793	H	0.230097	-0.219111	-0.398135
H794	H	0.230362	0.296001	-0.113978
C795	C	0.381392	0.301608	-0.474232
C796	C	0.395672	0.304451	-0.450542
C797	C	0.434395	0.305890	-0.469806
H798	H	0.403703	0.323274	-0.496943
H799	H	0.375659	0.278982	-0.480653
H800	H	0.401407	0.327074	-0.444127
H801	H	0.373373	0.282787	-0.427832
H802	H	0.428662	0.283264	-0.476226
H803	H	0.456703	0.327556	-0.492516
H804	H	0.444087	0.307815	-0.453734
H805	H	0.102103	-0.319447	0.501532
H806	H	0.333308	0.295959	-0.501595
C807	C	0.215577	-0.206406	0.393622
C808	C	0.229869	-0.194973	0.417305
C809	C	0.268618	-0.157705	0.398025
H810	H	0.209883	-0.189491	0.387188
H811	H	0.237866	-0.205798	0.370915
H812	H	0.207585	-0.195578	0.440005
H813	H	0.235573	-0.211878	0.423740
H814	H	0.290906	-0.157097	0.375318
H815	H	0.262920	-0.140794	0.391592
H816	H	0.278322	-0.149945	0.414090
H817	H	0.102618	0.168275	0.013770
H818	H	0.100165	-0.026535	-0.411435
C819	C	0.381102	-0.073724	-0.474087
C820	C	0.392300	-0.060622	-0.510539
C821	C	0.431007	-0.023330	-0.530060
H822	H	0.404454	-0.073641	-0.476497
H823	H	0.376406	-0.057397	-0.460193
H824	H	0.396999	-0.076945	-0.524429
H825	H	0.368959	-0.060696	-0.508140
H826	H	0.426311	-0.007002	-0.516167
H827	H	0.454356	-0.023250	-0.532468
H828	H	0.438608	-0.014434	-0.554793
C829	C	0.622246	0.173448	-0.511686
C830	C	0.598880	0.148200	-0.524780
C831	C	0.616610	0.167398	-0.562052
H832	H	0.652465	0.182661	-0.528045
H833	H	0.619896	0.194382	-0.511726
H834	H	0.601235	0.127272	-0.524743
H835	H	0.568661	0.138985	-0.508432
H836	H	0.614259	0.188333	-0.562092
H837	H	0.646829	0.176611	-0.578408
H838	H	0.600756	0.150271	-0.570940
H839	H	0.437704	-0.306410	-0.028878
H840	H	0.333296	-0.216247	-0.013853
H841	H	0.370881	-0.248784	-0.019122
H842	H	-0.382753	-0.216236	0.114110
C843	C	-0.662671	-0.609176	0.393601
C844	C	-0.689215	-0.647150	0.417284
C845	C	-0.671416	-0.666621	0.398004
H846	H	-0.633627	-0.597048	0.387166
H847	H	-0.661644	-0.608758	0.370894
H848	H	-0.690237	-0.647566	0.439984
H849	H	-0.718259	-0.659288	0.423721
H850	H	-0.670390	-0.666202	0.375297
H851	H	-0.642372	-0.654490	0.391570
H852	H	-0.689426	-0.692389	0.414069
H853	H	0.267941	0.301250	-0.184099
H854	H	-0.447397	-0.351491	0.184007
H855	H	0.370892	0.301275	-0.184323
C856	C	0.547813	0.301576	-0.474093
C857	C	0.571161	0.299665	-0.510543
C858	C	0.553393	0.301079	-0.530067
H859	H	0.550143	0.324846	-0.476506
H860	H	0.517592	0.280555	-0.460199
H861	H	0.601375	0.320685	-0.524434
H862	H	0.568834	0.276397	-0.508142
H863	H	0.523171	0.280058	-0.516173
H864	H	0.555723	0.324349	-0.532477
H865	H	0.569229	0.299779	-0.554799
H866	H	0.267945	0.301232	-0.366341
C867	C	0.110293	0.253253	0.303666
C868	C	0.122679	0.253081	0.328355
C869	C	0.160101	0.252537	0.309715
H870	H	0.133872	0.275325	0.281428
H871	H	0.103694	0.230923	0.296519
H872	H	0.129280	0.275409	0.335497
H873	H	0.099111	0.231010	0.350594
H874	H	0.153502	0.230207	0.302567
H875	H	0.183677	0.274610	0.287477
H876	H	0.168507	0.252417	0.326465
