data_functionalizedCrystal
_audit_creation_method	'MofGen! by Chris Wilmer'
_symmetry_space_group_name_H-M	'P1'
_symmetry_Int_Tables_number	1
_symmetry_cell_setting	triclinic
loop_
_symmetry_equiv_pos_as_xyz
  x,y,z
_cell_length_a	10.654553
_cell_length_b	10.654551
_cell_length_c	9.730223
_cell_angle_alpha	90.001469
_cell_angle_beta	89.999314
_cell_angle_gamma	84.485770
loop_
_atom_site_label
_atom_site_type_symbol
_atom_site_fract_x
_atom_site_fract_y
_atom_site_fract_z
O1	O	1.667832	0.176412	-0.114296
O2	O	1.302354	0.193214	-0.114294
O3	O	1.493496	0.002074	-0.114296
O4	O	1.476691	0.367552	-0.114294
O5	O	1.493494	0.002079	0.114284
O6	O	1.302352	0.193219	0.114285
O7	O	1.667830	0.176417	0.114284
Zn8	Zn	1.485091	0.184818	0.150577
Zn9	Zn	1.485094	0.184812	-0.150587
O10	O	1.476689	0.367557	0.114285
C11	C	1.255555	0.191982	-0.000004
C12	C	1.116112	0.188288	-0.000004
C13	C	0.919571	0.183077	0.124585
C14	C	1.050592	0.186555	0.124593
C15	C	1.050604	0.186557	-0.124617
C16	C	0.919585	0.183088	-0.124624
C17	C	0.919566	0.183071	0.268465
C18	C	1.050586	0.186548	0.268473
C19	C	1.492261	-0.044722	-0.000009
C20	C	1.488568	-0.184165	-0.000018
C21	C	1.486837	-0.249680	-0.124615
C22	C	1.483357	-0.380700	-0.124609
C23	C	1.483344	-0.380680	0.124602
C24	C	1.486815	-0.249661	0.124594
C25	C	1.488590	-0.184184	-0.249227
C26	C	1.486860	-0.249698	-0.373834
C27	C	1.483380	-0.380719	-0.373828
C28	C	1.481629	-0.446224	-0.249215
C29	C	1.714629	0.177649	-0.000009
C30	C	1.854072	0.181342	-0.000018
C31	C	1.477924	0.414352	-0.000004
C32	C	1.481617	0.553795	-0.000004
N33	N	1.485098	0.184822	0.356113
N34	N	1.485096	0.184798	-0.356124
C35	C	1.569757	0.100214	0.428038
C36	C	1.569754	0.100199	0.571921
C37	C	1.400428	0.269410	0.571941
C38	C	1.400426	0.269419	0.428061
C39	C	1.667520	0.002525	0.428028
C40	C	1.667517	0.002509	0.571911
H41	H	0.889992	0.091474	0.313104
H42	H	1.491427	-0.077501	-0.249246
H43	H	1.646077	-0.094008	0.388974
C44	C	1.789218	0.043275	0.368774
C45	C	1.869838	0.070275	0.476184
C46	C	1.981962	0.107805	0.421650
H47	H	1.770873	0.116444	0.313851
H48	H	1.828950	-0.022770	0.313858
H49	H	1.830114	0.136314	0.531076
H50	H	1.888219	-0.002876	0.531115
H51	H	2.021693	0.041760	0.366735
H52	H	1.963604	0.180971	0.366728
H53	H	2.036680	0.126118	0.494518
C54	C	1.488543	-0.178408	-0.509027
C55	C	1.382690	-0.089984	-0.516288
C56	C	1.384195	-0.024283	-0.640805
H57	H	1.486942	-0.236049	-0.583339
H58	H	1.562968	-0.136157	-0.514241
H59	H	1.308284	-0.132232	-0.511087
H60	H	1.384268	-0.032316	-0.442005
H61	H	1.458620	0.017967	-0.646019
H62	H	1.382597	-0.081934	-0.715107
H63	H	1.312382	0.035728	-0.645743
C64	C	1.090090	0.308754	0.327755
C65	C	1.156460	0.370345	0.228088
C66	C	1.192861	0.482928	0.282639
H67	H	1.142592	0.290592	0.405531
H68	H	1.017249	0.361521	0.354570
H69	H	1.229291	0.317590	0.201292
H70	H	1.103982	0.388539	0.150306
H71	H	1.120019	0.535694	0.309454
H72	H	1.245359	0.464754	0.360415
H73	H	1.237886	0.524737	0.215020
H74	H	1.331490	0.338286	0.630536
H75	H	0.866259	0.181691	-0.226088
C76	C	0.857794	0.299038	0.341646
C77	C	0.776434	0.368610	0.250712
C78	C	0.719558	0.475526	0.317966
H79	H	0.920952	0.349698	0.372190
H80	H	0.811221	0.273705	0.418402
H81	H	0.823005	0.393944	0.173981
H82	H	0.713253	0.317987	0.220163
H83	H	0.672985	0.450193	0.394722
H84	H	0.782724	0.526175	0.348508
H85	H	0.664340	0.522737	0.256282
H86	H	1.481920	-0.434025	0.226056
H87	H	1.478777	-0.552908	-0.249220
H88	H	1.481959	-0.434056	-0.475288
H89	H	1.103960	0.187980	-0.226067
H90	H	1.096870	0.099752	0.323709
H91	H	1.488198	-0.196315	0.226052
H92	H	1.331479	0.338302	0.369500
H93	H	1.637004	-0.088714	0.616526
H94	H	1.764028	0.024029	0.610962
