data_functionalizedCrystal
_audit_creation_method	'MofGen! by Chris Wilmer'
_symmetry_space_group_name_H-M	'P1'
_symmetry_Int_Tables_number	1
_symmetry_cell_setting	triclinic
loop_
_symmetry_equiv_pos_as_xyz
  x,y,z
_cell_length_a	19.188933
_cell_length_b	19.188924
_cell_length_c	9.616153
_cell_angle_alpha	89.995666
_cell_angle_beta	89.994560
_cell_angle_gamma	83.143767
loop_
_atom_site_label
_atom_site_type_symbol
_atom_site_fract_x
_atom_site_fract_y
_atom_site_fract_z
O1	O	0.926144	0.087171	-0.115606
O2	O	1.426144	0.587171	0.384394
O3	O	0.722833	0.098904	-0.115619
O4	O	1.222833	0.598904	0.384381
O5	O	0.830358	-0.008618	-0.115596
O6	O	1.330358	0.491382	0.384404
O7	O	0.818619	0.194694	-0.115629
O8	O	1.318619	0.694694	0.384371
O9	O	0.830344	-0.008616	0.115696
O10	O	1.330344	0.491384	0.615696
O11	O	0.722818	0.098907	0.115672
O12	O	1.222818	0.598907	0.615672
O13	O	0.926130	0.087174	0.115686
O14	O	1.426130	0.587174	0.615686
Zn15	Zn	0.824472	0.093041	0.152401
Zn16	Zn	1.324472	0.593041	0.652401
Zn17	Zn	0.824491	0.093038	-0.152335
Zn18	Zn	1.324491	0.593038	0.347665
O19	O	0.818604	0.194696	0.115662
O20	O	1.318604	0.694696	0.615662
C21	C	0.696815	0.098525	0.000025
C22	C	1.196815	0.598525	0.500025
C23	C	0.619310	0.097384	0.000020
C24	C	1.119310	0.597384	0.500020
C25	C	0.066063	0.089238	-0.126041
C26	C	0.566063	0.589238	0.373959
C27	C	0.138887	0.090306	-0.126046
C28	C	0.638887	0.590306	0.373954
C29	C	0.175296	0.090844	0.000030
C30	C	0.675296	0.590844	0.500030
C31	C	0.138877	0.090297	0.126122
C32	C	0.638877	0.590297	0.626122
C33	C	0.066056	0.089222	0.126124
C34	C	0.566056	0.589222	0.626124
N35	N	0.284309	0.132264	0.093868
N36	N	0.784309	0.632264	0.593868
N37	N	0.353487	0.133287	0.093858
N38	N	0.853487	0.633287	0.593858
C39	C	0.394705	0.094082	0.000032
C40	C	0.894705	0.594082	0.500032
N41	N	0.364131	0.053825	-0.093804
N42	N	0.864131	0.553825	0.406196
N43	N	0.294946	0.052805	-0.093797
N44	N	0.794946	0.552805	0.406203
C45	C	0.254260	0.092010	0.000042
C46	C	0.754260	0.592010	0.500042
C47	C	0.510080	0.095783	-0.126057
C48	C	1.010080	0.595783	0.373943
C49	C	0.582906	0.096847	-0.126058
C50	C	1.082906	0.596847	0.373942
C51	C	0.582894	0.096845	0.126114
C52	C	1.082894	0.596845	0.626114
C53	C	0.510070	0.095774	0.126111
C54	C	1.010070	0.595774	0.626111
C55	C	0.473667	0.095246	0.000021
C56	C	0.973667	0.595246	0.500021
C57	C	0.829972	-0.034628	0.000051
C58	C	1.329972	0.465372	0.500051
C59	C	0.828833	-0.112133	0.000055
C60	C	1.328833	0.387867	0.500055
C61	C	0.828309	-0.148533	-0.126022
C62	C	1.328309	0.351467	0.373978
C63	C	0.827230	-0.221356	-0.126033
C64	C	1.327230	0.278644	0.373967
C65	C	0.826687	-0.257777	0.000041
C66	C	1.326687	0.242223	0.500041
C67	C	0.827207	-0.221368	0.126135
C68	C	1.327207	0.278632	0.626135
C69	C	0.828280	-0.148545	0.126142
C70	C	1.328280	0.351455	0.626142
N71	N	0.864729	-0.377439	0.093877
N72	N	1.364729	0.122561	0.593877
N73	N	0.863711	-0.446618	0.093862
N74	N	1.363711	0.053382	0.593862
C75	C	0.823453	-0.477186	0.000027
C76	C	1.323453	0.022814	0.500027
N77	N	0.784260	-0.435965	-0.093813
N78	N	1.284260	0.064035	0.406187
N79	N	0.785281	-0.366781	-0.093802
N80	N	1.285281	0.133219	0.406198
C81	C	0.825523	-0.336741	0.000047
C82	C	1.325523	0.163259	0.500047
C83	C	0.821758	-0.592549	-0.126070
C84	C	1.321758	-0.092549	0.373930
C85	C	0.820673	-0.665373	-0.126076
C86	C	1.320673	-0.165373	0.373924
C87	C	0.820658	-0.665384	0.126096
C88	C	1.320658	-0.165384	0.626096
C89	C	0.821735	-0.592561	0.126097
C90	C	1.321735	-0.092561	0.626097
C91	C	0.822288	-0.556149	0.000011
C92	C	1.322288	-0.056149	0.500011
C93	C	0.952148	0.087553	0.000039
C94	C	1.452148	0.587553	0.500039
C95	C	1.029653	0.088694	0.000034
C96	C	1.529653	0.588694	0.500034
C97	C	0.818991	0.220706	0.000012
C98	C	1.318991	0.720706	0.500012
C99	C	0.820130	0.298211	-0.000001
C100	C	1.320130	0.798211	0.499999
N101	N	0.824464	0.093042	0.360376
N102	N	1.324464	0.593042	0.860376
N103	N	0.824505	0.093030	-0.360309
N104	N	1.324505	0.593030	0.139691
C105	C	0.766774	0.150371	0.580733
C106	C	1.266774	0.650371	1.080733
C107	C	0.766896	0.150582	0.419566
C108	C	1.266896	0.650582	0.919566
C109	C	0.897268	0.108733	0.418827
C110	C	1.397268	0.608733	0.918827
C111	C	0.896953	0.109138	0.580045
C112	C	1.396953	0.609138	1.080045
C113	C	0.810079	0.019828	0.580298
C114	C	1.310079	0.519828	1.080298
C115	C	0.808397	0.020324	0.419072
C116	C	1.308397	0.520324	0.919072
H117	H	0.480439	0.095351	-0.228727
H118	H	0.980439	0.595351	0.271273
H119	H	0.910320	0.161504	0.378429
H120	H	1.410320	0.661504	0.878429
Br121	Br	0.828987	-0.099141	0.297260
Br122	Br	1.328987	0.400859	0.797260
H123	H	0.712773	0.141266	0.380049
H124	H	1.212773	0.641266	0.880049
H125	H	0.712478	0.141210	0.619543
H126	H	1.212478	0.641210	1.119543
Br127	Br	0.822505	-0.543127	-0.297183
Br128	Br	1.322505	-0.043127	0.202817
Br129	Br	0.819914	-0.714805	0.297200
Br130	Br	1.319914	-0.214805	0.797200
Br131	Br	0.188313	0.091043	-0.297160
Br132	Br	0.688313	0.591043	0.202840
H133	H	0.775834	0.204392	0.621224
H134	H	1.275834	0.704392	1.121224
H135	H	0.847727	-0.024327	0.378786
H136	H	1.347727	0.475673	0.878786
Br137	Br	0.819955	-0.714774	-0.297196
Br138	Br	1.319955	-0.214774	0.202804
Br139	Br	0.822442	-0.543157	0.297212
Br140	Br	1.322442	-0.043157	0.797212
Br141	Br	0.880252	-0.051289	0.643839
Br142	Br	1.380252	0.448711	1.143839
Br143	Br	0.970613	0.042081	0.645053
Br144	Br	1.470613	0.542081	1.145053
Br145	Br	0.782171	0.241142	0.355237
Br146	Br	1.282171	0.741142	0.855237
Br147	Br	0.188288	0.091022	0.297227
Br148	Br	0.688288	0.591022	0.797227
H149	H	0.612551	0.097284	-0.228727
H150	H	1.112551	0.597284	0.271273
H151	H	0.909699	0.162517	0.617625
H152	H	1.409699	0.662517	1.117625
H153	H	0.941240	0.068072	0.380484
H154	H	1.441240	0.568072	0.880484
Br155	Br	0.719135	0.000465	0.355406
Br156	Br	1.219135	0.500465	0.855406
Br157	Br	0.723528	-0.005400	0.648145
Br158	Br	1.223528	0.494600	1.148145
H159	H	0.036429	0.088805	-0.228713
H160	H	0.536429	0.588805	0.271287
H161	H	0.036410	0.088782	0.228792
H162	H	0.536410	0.588782	0.728792
H163	H	0.612538	0.097281	0.228768
H164	H	1.112538	0.597281	0.728768
H165	H	0.480424	0.095334	0.228774
H166	H	0.980424	0.595334	0.728774
Br167	Br	0.829057	-0.099118	-0.297139
Br168	Br	1.329057	0.400882	0.202861
H169	H	0.826799	-0.250998	-0.228704
H170	H	1.326799	0.249002	0.271296
Br171	Br	0.826462	-0.270794	0.297237
Br172	Br	1.326462	0.229206	0.797237
