data_functionalizedCrystal
_audit_creation_method	'MofGen! by Chris Wilmer'
_symmetry_space_group_name_H-M	'P1'
_symmetry_Int_Tables_number	1
_symmetry_cell_setting	triclinic
loop_
_symmetry_equiv_pos_as_xyz
  x,y,z
_cell_length_a	19.805407
_cell_length_b	19.076808
_cell_length_c	19.805399
_cell_angle_alpha	87.672943
_cell_angle_beta	89.980427
_cell_angle_gamma	92.323385
loop_
_atom_site_label
_atom_site_type_symbol
_atom_site_fract_x
_atom_site_fract_y
_atom_site_fract_z
Zn1	Zn	1.023914	-0.280233	-0.371886
Zn2	Zn	1.523914	0.219767	0.128114
Zn3	Zn	1.019283	-0.397938	-0.254147
Zn4	Zn	1.519283	0.102062	0.245853
Zn5	Zn	0.910727	-0.280252	-0.258710
Zn6	Zn	1.410727	0.219748	0.241290
Zn7	Zn	0.906148	-0.397901	-0.367295
Zn8	Zn	1.406148	0.102099	0.132705
O9	O	0.965018	-0.339081	-0.313009
O10	O	1.465018	0.160919	0.186991
O11	O	1.118016	-0.295854	-0.356279
O12	O	1.618016	0.204146	0.143721
O13	O	1.004861	-0.382351	-0.160035
O14	O	1.504861	0.117649	0.339965
O15	O	0.929597	-0.181753	-0.277553
O16	O	1.429597	0.318247	0.222447
O17	O	1.114613	-0.382332	-0.269777
O18	O	1.614613	0.117668	0.230223
O19	O	1.012754	-0.181739	-0.360703
O20	O	1.512754	0.318261	0.139297
O21	O	0.925106	-0.295887	-0.163387
O22	O	1.425106	0.204113	0.336613
O23	O	0.815404	-0.295851	-0.273102
O24	O	1.315404	0.204149	0.226898
O25	O	0.921791	-0.382268	-0.462622
O26	O	1.421791	0.117732	0.037378
O27	O	0.812039	-0.382287	-0.352879
O28	O	1.312039	0.117713	0.147121
O29	O	1.008313	-0.295818	-0.465994
O30	O	1.508313	0.204182	0.034006
O31	O	1.000421	-0.496429	-0.265326
O32	O	1.500421	0.003571	0.234674
O33	O	0.917301	-0.496402	-0.348455
O34	O	1.417301	0.003598	0.151545
C35	C	0.789162	-0.339067	-0.312988
C36	C	1.289162	0.160933	0.187012
C37	C	0.713930	-0.339079	-0.312994
C38	C	1.213930	0.160921	0.187006
C39	C	0.676849	-0.384154	-0.354462
C40	C	1.176849	0.115846	0.145538
C41	C	0.606160	-0.384155	-0.354471
C42	C	1.106160	0.115845	0.145529
C43	C	0.572554	-0.339084	-0.313009
C44	C	1.072554	0.160916	0.186991
C45	C	0.609640	-0.294004	-0.271540
C46	C	1.109640	0.205996	0.228460
C47	C	0.680328	-0.294000	-0.271535
C48	C	1.180328	0.206000	0.228465
C49	C	0.324567	-0.294020	-0.271562
C50	C	0.824567	0.205980	0.228438
C51	C	0.253874	-0.294029	-0.271569
C52	C	0.753874	0.205971	0.228431
C53	C	0.250399	-0.384175	-0.354498
C54	C	0.750399	0.115825	0.145502
C55	C	0.321086	-0.384170	-0.354493
C56	C	0.821086	0.115830	0.145507
C57	C	0.358167	-0.339088	-0.313027
C58	C	0.858167	0.160912	0.186973
C59	C	0.434815	-0.339086	-0.313018
C60	C	0.934815	0.160914	0.186982
C61	C	0.495907	-0.339089	-0.313014
C62	C	0.995907	0.160911	0.186986
C63	C	0.957879	-0.521955	-0.305912
C64	C	1.457879	-0.021955	0.194088
C65	C	0.954888	-0.600189	-0.302898
C66	C	1.454888	-0.100189	0.197102
C67	C	0.996745	-0.636876	-0.344809
C68	C	1.496745	-0.136876	0.155191
C69	C	0.993931	-0.710385	-0.341979
C70	C	1.493931	-0.210385	0.158021
C71	C	0.949263	-0.747206	-0.297233
C72	C	1.449263	-0.247206	0.202767
C73	C	0.907400	-0.710515	-0.255321
C74	C	1.407400	-0.210515	0.244679
C75	C	0.910211	-0.637007	-0.258155
C76	C	1.410211	-0.137007	0.241845
C77	C	0.936213	-0.967059	-0.284114
C78	C	1.436213	-0.467059	0.215886
C79	C	0.933407	-1.040572	-0.281281
C80	C	1.433407	-0.540572	0.218719
C81	C	1.019937	-1.040437	-0.367940
C82	C	1.519937	-0.540437	0.132060
C83	C	1.022747	-0.966928	-0.370768
C84	C	1.522747	-0.466928	0.129232
C85	C	0.980882	-0.930243	-0.328858
C86	C	1.480882	-0.430243	0.171142
N87	N	0.946387	-0.822345	-0.294338
N88	N	1.446387	-0.322345	0.205662
N89	N	0.983755	-0.855106	-0.331757
N90	N	1.483755	-0.355106	0.168243
C91	C	1.141560	-0.339095	-0.313031
C92	C	1.641560	0.160905	0.186969
C93	C	1.216792	-0.339101	-0.313041
C94	C	1.716792	0.160899	0.186959
C95	C	0.965058	-0.339037	-0.489554
C96	C	1.465058	0.160963	0.010446
C97	C	0.965074	-0.339018	-0.564787
C98	C	1.465074	0.160982	-0.064787
C99	C	0.972203	-0.155493	-0.320149
C100	C	1.472203	0.344507	0.179851
C101	C	0.975264	-0.077259	-0.323192
C102	C	1.475264	0.422741	0.176808
C103	C	1.010128	-0.294001	-0.601888
C104	C	1.510128	0.205999	-0.101888
C105	C	1.010135	-0.293980	-0.672577
C106	C	1.510135	0.206020	-0.172577
C107	C	0.965093	-0.338981	-0.706164
C108	C	1.465093	0.161019	-0.206164
C109	C	0.920035	-0.384000	-0.669057
C110	C	1.420035	0.116000	-0.169057
C111	C	0.920024	-0.384016	-0.598369
C112	C	1.420024	0.115984	-0.098369
C113	C	0.920075	-0.383934	-0.954133
C114	C	1.420075	0.116066	-0.454133
C115	C	0.920091	-0.383916	-1.024826
C116	C	1.420091	0.116084	-0.524826
C117	C	1.010187	-0.293899	-1.028341
C118	C	1.510187	0.206101	-0.528341
C119	C	1.010176	-0.293915	-0.957653
C120	C	1.510176	0.206085	-0.457653
C121	C	0.965116	-0.338931	-0.920553
C122	C	1.465116	0.161069	-0.420553
C123	C	0.965107	-0.338951	-0.843904
C124	C	1.465107	0.161049	-0.343904
C125	C	0.965104	-0.338964	-0.782812
C126	C	1.465104	0.161036	-0.282812
C127	C	0.965019	-0.339074	-0.137154
C128	C	1.465019	0.160926	0.362846
C129	C	0.965141	-0.338895	-0.061929
C130	C	1.465141	0.161105	0.438071
H131	H	0.704206	-0.420858	-0.388223
H132	H	1.204206	0.079142	0.111777
H133	H	0.582273	-0.257304	-0.237784
H134	H	1.082273	0.242696	0.262216
O135	O	0.716382	-0.250141	-0.231350
O136	O	1.216382	0.249859	0.268650
C137	C	0.759070	-0.204741	-0.271714
C138	C	1.259070	0.295259	0.228286
H139	H	0.737957	-0.200468	-0.325198
H140	H	1.237957	0.299532	0.174802
H141	H	0.761974	-0.150540	-0.249423
H142	H	1.261974	0.349460	0.250577
H143	H	0.811795	-0.226501	-0.273162
H144	H	1.311795	0.273499	0.226838
H145	H	0.883409	-0.420562	-1.052170
H146	H	1.383409	0.079438	-0.552170
O147	O	0.890108	-1.076370	-0.237738
O148	O	1.390108	-0.576370	0.262262
C149	C	0.927045	-1.118890	-0.192428
C150	C	1.427045	-0.618890	0.307572
H151	H	0.981204	-1.096689	-0.189153
H152	H	1.481204	-0.596689	0.310847
H153	H	0.902562	-1.119777	-0.140281
H154	H	1.402562	-0.619777	0.359719
H155	H	0.927239	-1.174587	-0.211207
H156	H	1.427239	-0.674587	0.288793
H157	H	0.883394	-0.420599	-0.923934
H158	H	1.383394	0.079401	-0.423934
O159	O	0.353625	-0.427974	-0.394832
O160	O	0.853625	0.072026	0.105168
C161	C	0.305737	-0.467772	-0.431424
C162	C	0.805737	0.032228	0.068576
H163	H	0.256473	-0.438950	-0.434935
H164	H	0.756473	0.061050	0.065065
H165	H	0.325889	-0.475349	-0.484445
H166	H	0.825889	0.024651	0.015555
H167	H	0.296127	-0.521196	-0.404483
H168	H	0.796127	-0.021196	0.095517
H169	H	0.354749	-0.257317	-0.237792
H170	H	0.854749	0.242683	0.262208
H171	H	0.871028	-0.740500	-0.218891
H172	H	1.371028	-0.240500	0.281109
H173	H	0.876126	-0.607137	-0.224028
H174	H	1.376126	-0.107137	0.275972
H175	H	1.033122	-0.606900	-0.381243
H176	H	1.533122	-0.106900	0.118757
H177	H	1.028021	-0.740252	-0.376102
H178	H	1.528021	-0.240252	0.123898
H179	H	0.883331	-0.420666	-0.568162
H180	H	1.383331	0.079334	-0.068162
O181	O	0.876343	-0.427690	-0.701786
O182	O	1.376343	0.072310	-0.201786
C183	C	0.886001	-0.418012	-0.772134
C184	C	1.386001	0.081988	-0.272134
H185	H	0.939140	-0.394964	-0.782696
H186	H	1.439140	0.105036	-0.282696
H187	H	0.879349	-0.470728	-0.796946
H188	H	1.379349	0.029272	-0.296946
H189	H	0.847325	-0.380520	-0.793645
H190	H	1.347325	0.119480	-0.293645
O191	O	0.895530	-0.931538	-0.243327
O192	O	1.395530	-0.431538	0.256673
C193	C	0.855497	-0.979803	-0.203235
C194	C	1.355497	-0.479803	0.296765
H195	H	0.881221	-1.032178	-0.198907
H196	H	1.381221	-0.532178	0.301093
H197	H	0.849126	-0.958608	-0.150715
H198	H	1.349126	-0.458608	0.349285
H199	H	0.803773	-0.987650	-0.227664
H200	H	1.303773	-0.487650	0.272336
O201	O	1.053907	-0.250220	-0.569373
O202	O	1.553907	0.249780	-0.069373
C203	C	1.093684	-0.210495	-0.617281
C204	C	1.593684	0.289505	-0.117281
H205	H	1.066062	-0.208046	-0.667759
H206	H	1.566062	0.291954	-0.167759
H207	H	1.103071	-0.155043	-0.599017
H208	H	1.603071	0.344957	-0.099017
H209	H	1.144082	-0.236272	-0.623807
H210	H	1.644082	0.263728	-0.123807
O211	O	1.053805	-0.250170	-0.708646
O212	O	1.553805	0.249830	-0.208646
C213	C	1.017052	-0.204703	-0.751300
C214	C	1.517052	0.295297	-0.251300
H215	H	0.963909	-0.200365	-0.730156
H216	H	1.463909	0.299635	-0.230156
H217	H	1.043648	-0.150535	-0.754204
H218	H	1.543648	0.349465	-0.254204
H219	H	1.013880	-0.226442	-0.804030
H220	H	1.513880	0.273558	-0.304030
H221	H	1.059120	-0.936950	-0.407203
H222	H	1.559120	-0.436950	0.092797
H223	H	1.054020	-1.070315	-0.402062
H224	H	1.554020	-0.570315	0.097938
O225	O	0.214276	-0.427897	-0.394767
O226	O	0.714276	0.072103	0.105233
C227	C	0.144679	-0.418251	-0.385874
C228	C	0.644679	0.081749	0.114126
H229	H	0.137133	-0.363901	-0.365905
H230	H	0.637133	0.136099	0.134095
H231	H	0.117650	-0.423099	-0.436381
H232	H	0.617650	0.076901	0.063619
H233	H	0.122976	-0.459951	-0.348147
H234	H	0.622976	0.040049	0.151853
O235	O	1.053862	-0.250096	-0.925068
O236	O	1.553862	0.249904	-0.425068
C237	C	1.041821	-0.179943	-0.945087
C238	C	1.541821	0.320057	-0.445087
H239	H	0.987890	-0.176388	-0.964645
H240	H	1.487890	0.323612	-0.464645
H241	H	1.049004	-0.145175	-0.899958
H242	H	1.549004	0.354825	-0.399958
H243	H	1.078832	-0.161539	-0.986845
H244	H	1.578832	0.338461	-0.486845
O245	O	0.570219	-0.427915	-0.394843
O246	O	1.070219	0.072085	0.105157
C247	C	0.588107	-0.412624	-0.462921
C248	C	1.088107	0.087376	0.037079
H249	H	0.640484	-0.385559	-0.465415
H250	H	1.140484	0.114441	0.034585
H251	H	0.588562	-0.463469	-0.491207
H252	H	1.088562	0.036531	0.008793
H253	H	0.549740	-0.376480	-0.487191
H254	H	1.049740	0.123520	0.012809
O255	O	0.221335	-0.250175	-0.231275
O256	O	0.721335	0.249825	0.268725
C257	C	0.269220	-0.210394	-0.194663
C258	C	0.769220	0.289606	0.305337
H259	H	0.319714	-0.207990	-0.222478
H260	H	0.819714	0.292010	0.277522
H261	H	0.250951	-0.154930	-0.189691
H262	H	0.750951	0.345070	0.310309
H263	H	0.275714	-0.236092	-0.142216
H264	H	0.775714	0.263908	0.357784
H265	H	1.046874	-0.257242	-1.058557
H266	H	1.546874	0.242758	-0.558557
