data_functionalizedCrystal
_audit_creation_method	'MofGen! by Chris Wilmer'
_symmetry_space_group_name_H-M	'P1'
_symmetry_Int_Tables_number	1
_symmetry_cell_setting	triclinic
loop_
_symmetry_equiv_pos_as_xyz
  x,y,z
_cell_length_a	21.295419
_cell_length_b	21.295417
_cell_length_c	17.640968
_cell_angle_alpha	101.234808
_cell_angle_beta	101.221813
_cell_angle_gamma	90.045308
loop_
_atom_site_label
_atom_site_type_symbol
_atom_site_fract_x
_atom_site_fract_y
_atom_site_fract_z
Zn1	Zn	1.034311	-0.178377	0.446934
Zn2	Zn	1.012930	-0.304942	0.314736
Zn3	Zn	0.907755	-0.199714	0.314761
Zn4	Zn	0.928995	-0.283648	0.446880
O5	O	0.970998	-0.241670	0.380828
O6	O	1.119566	-0.195148	0.429410
O7	O	0.981141	-0.308824	0.204121
O8	O	0.924602	-0.108788	0.332327
O9	O	1.103857	-0.288135	0.332284
O10	O	1.017582	-0.093112	0.429434
O11	O	0.903869	-0.231513	0.204139
O12	O	0.822481	-0.210866	0.332274
O13	O	0.960803	-0.251842	0.557505
O14	O	0.838086	-0.272532	0.429342
O15	O	1.038178	-0.174500	0.557545
O16	O	1.001737	-0.390212	0.332232
O17	O	0.940070	-0.374567	0.429318
C18	C	0.807442	-0.241704	0.380806
C19	C	0.737476	-0.241730	0.380815
C20	C	0.970908	-0.405229	0.380784
C21	C	0.970932	-0.475195	0.380792
C22	C	0.712824	-0.193365	0.431466
C23	C	0.647082	-0.193348	0.431469
C24	C	0.605996	-0.241705	0.380829
C25	C	0.630654	-0.290075	0.330168
C26	C	0.696394	-0.290087	0.330161
N27	N	0.501726	-0.297779	0.374651
N28	N	0.439276	-0.297764	0.374663
C29	C	0.407924	-0.241670	0.380847
N30	N	0.441383	-0.185587	0.387034
N31	N	0.503839	-0.185601	0.387027
C32	C	0.534711	-0.241697	0.380831
C33	C	0.311987	-0.193282	0.431504
C34	C	0.246243	-0.193265	0.431502
C35	C	0.229817	-0.289997	0.330205
C36	C	0.295559	-0.290009	0.330203
C37	C	0.336641	-0.241652	0.380857
C38	C	1.003085	-0.516179	0.330291
C39	C	1.003118	-0.581919	0.330309
C40	C	0.970984	-0.606673	0.380819
C41	C	0.938829	-0.565680	0.431330
C42	C	0.938803	-0.499941	0.431316
N43	N	0.916886	-0.708984	0.386838
N44	N	0.916912	-0.771434	0.386846
C45	C	0.971062	-0.804741	0.380864
N46	N	1.025183	-0.773241	0.374858
N47	N	1.025156	-0.710786	0.374846
C48	C	0.971009	-0.677955	0.380840
C49	C	1.003253	-0.917007	0.330380
C50	C	1.003288	-0.982747	0.330403
C51	C	0.938992	-0.966508	0.431420
C52	C	0.938964	-0.900769	0.431401
C53	C	0.971093	-0.876023	0.380877
C54	C	1.135192	-0.241636	0.380850
C55	C	1.205161	-0.241622	0.380860
C56	C	1.004245	-0.208415	0.587009
C57	C	1.018413	-0.194244	0.674871
C58	C	0.971107	-0.077470	0.380889
C59	C	0.971154	-0.007497	0.380915
C60	C	0.937916	-0.274749	0.175448
C61	C	0.923870	-0.288743	0.087587
C62	C	0.863607	-0.348983	0.963736
C63	C	0.876933	-0.335659	1.046296
C64	C	0.957497	-0.255130	1.046327
C65	C	0.944176	-0.268444	0.963765
C66	C	0.897231	-0.315372	0.922476
C67	C	0.977799	-0.234834	0.922505
C68	C	0.964481	-0.248150	0.839951
C69	C	0.917539	-0.295077	0.798656
C70	C	0.883912	-0.328689	0.839922
C71	C	1.024747	-0.187909	0.963796
C72	C	1.058371	-0.154299	0.922536
C73	C	1.045049	-0.167612	0.839980
C74	C	0.998108	-0.214539	0.798686
C75	C	1.078676	-0.134000	0.798715
C76	C	1.065358	-0.147317	0.716160
C77	C	0.984789	-0.227855	0.716131
H78	H	0.627006	-0.153960	0.472714
O79	O	0.590822	-0.337132	0.281017
C80	C	0.609583	-0.397131	0.298157
H81	H	0.662218	-0.393581	0.328534
H82	H	0.602585	-0.434499	0.241041
H83	H	0.579117	-0.411831	0.338754
H84	H	0.906699	-0.305921	0.731435
O85	O	0.319410	-0.337059	0.280980
C86	C	0.269049	-0.379729	0.236269
H87	H	0.227410	-0.376719	0.268646
H88	H	0.286616	-0.430698	0.227720
H89	H	0.252398	-0.366276	0.176287
H90	H	0.845670	-0.366887	0.806302
O91	O	0.907509	-0.460220	0.480398
C92	C	0.879169	-0.496159	0.525003
H93	H	0.871808	-0.548258	0.492636
H94	H	0.830910	-0.475869	0.533375
H95	H	0.911872	-0.493412	0.585067
H96	H	0.995722	-0.216923	1.079956
O97	O	0.720431	-0.337088	0.281070
C98	C	0.765653	-0.370575	0.325981
H99	H	0.785198	-0.338779	0.385937
H100	H	0.806675	-0.384178	0.293762
H101	H	0.741654	-0.415847	0.334558
O102	O	1.034667	-1.022537	0.281493
C103	C	1.082575	-1.053193	0.326607
H104	H	1.096380	-1.023309	0.388871
H105	H	1.126474	-1.058430	0.298140
H106	H	1.063614	-1.102627	0.329288
O107	O	0.351804	-0.146246	0.480729
C108	C	0.315946	-0.103558	0.525448
H109	H	0.263863	-0.106547	0.493076
H110	H	0.336372	-0.052598	0.533998
H111	H	0.318608	-0.117011	0.585428
H112	H	0.825365	-0.387181	0.930116
O113	O	0.844189	-0.368350	1.086254
C114	C	0.799912	-0.412636	1.032105
H115	H	0.788254	-0.396343	0.973267
H116	H	0.754159	-0.415517	1.055954
H117	H	0.821519	-0.461858	1.023308
O118	O	0.907826	-0.860914	0.480536
C119	C	0.951852	-0.814576	0.531613
H120	H	1.002233	-0.833529	0.536559
H121	H	0.938849	-0.804026	0.592420
H122	H	0.950075	-0.768701	0.507164
H123	H	1.035591	-0.177070	1.031017
H124	H	1.029417	-0.896858	0.289242
H125	H	0.912831	-0.986662	0.472550
H126	H	1.092736	-0.119946	0.682566
H127	H	0.226173	-0.153876	0.472747
O128	O	0.189905	-0.337022	0.281125
C129	C	0.159075	-0.370474	0.326038
H130	H	0.188929	-0.364402	0.388286
H131	H	0.153652	-0.423513	0.297337
H132	H	0.109717	-0.350560	0.328808
H133	H	0.946547	-0.266053	0.682511
H134	H	1.029249	-0.496033	0.289153
H135	H	1.029304	-0.615294	0.289185
H136	H	1.096595	-0.116092	0.956165
O137	O	1.124234	-0.088346	0.838741
C138	C	1.107257	-0.028853	0.818613
H139	H	1.073387	-0.037216	0.758674
H140	H	1.152251	-0.001072	0.815801
H141	H	1.082405	-0.000164	0.865087
O142	O	0.752634	-0.146324	0.480687
C143	C	0.716775	-0.103640	0.525407
H144	H	0.664689	-0.106637	0.493041
H145	H	0.737193	-0.052677	0.533949
H146	H	0.719446	-0.117088	0.585391
H147	H	0.912666	-0.585840	0.472457
