data_functionalizedCrystal
_audit_creation_method	'MofGen! by Chris Wilmer'
_symmetry_space_group_name_H-M	'P1'
_symmetry_Int_Tables_number	1
_symmetry_cell_setting	triclinic
loop_
_symmetry_equiv_pos_as_xyz
  x,y,z
_cell_length_a	25.639243
_cell_length_b	13.033915
_cell_length_c	13.033429
_cell_angle_alpha	76.647785
_cell_angle_beta	97.158184
_cell_angle_gamma	82.828413
loop_
_atom_site_label
_atom_site_type_symbol
_atom_site_fract_x
_atom_site_fract_y
_atom_site_fract_z
Zn1	Zn	0.786627	-0.346402	-0.547020
Zn2	Zn	0.812021	-0.546600	-0.346877
Zn3	Zn	0.711914	-0.369024	-0.369409
Zn4	Zn	0.711912	-0.523974	-0.524434
O5	O	0.755618	-0.446500	-0.446935
O6	O	0.863159	-0.372960	-0.520493
O7	O	0.809370	-0.541981	-0.201227
O8	O	0.711198	-0.217393	-0.411852
O9	O	0.881816	-0.520045	-0.373449
O10	O	0.766089	-0.200772	-0.542341
O11	O	0.735822	-0.411517	-0.217782
O12	O	0.638750	-0.389577	-0.389951
O13	O	0.711194	-0.481482	-0.676069
O14	O	0.638748	-0.503418	-0.503847
O15	O	0.766087	-0.351020	-0.692663
O16	O	0.809368	-0.692229	-0.351549
O17	O	0.735818	-0.675606	-0.481999
C18	C	0.775361	-0.722453	-0.411901
C19	C	0.783852	-0.840502	-0.396949
C20	C	0.619778	-0.446498	-0.446894
C21	C	0.561665	-0.446520	-0.446898
C22	C	0.759996	-1.006961	-0.439311
C23	C	0.751222	-0.884949	-0.454773
C24	C	0.191578	-0.370005	-0.523601
C25	C	0.136973	-0.370004	-0.523607
O26	O	0.100471	-0.304935	-0.588773
N27	N	0.119377	-0.446493	-0.446965
C28	C	0.156389	-0.522983	-0.370304
O29	O	0.136408	-0.588043	-0.305113
C30	C	0.210993	-0.522979	-0.370293
C31	C	0.228586	-0.446491	-0.446948
C32	C	0.209172	-0.293523	-0.600248
C33	C	0.263773	-0.293526	-0.600242
C34	C	0.300780	-0.370012	-0.523589
C35	C	0.283187	-0.446494	-0.446942
C36	C	0.248004	-0.599463	-0.293629
C37	C	0.302611	-0.599453	-0.293624
C38	C	0.320203	-0.522964	-0.370279
C39	C	0.374795	-0.522984	-0.370283
N40	N	0.392392	-0.446494	-0.446926
C41	C	0.355384	-0.370008	-0.523579
C42	C	0.041717	-0.522984	-0.370331
C43	C	-0.012886	-0.522994	-0.370345
C44	C	-0.032298	-0.370012	-0.523648
C45	C	0.022306	-0.370009	-0.523637
C46	C	0.059313	-0.446494	-0.446973
C47	C	0.470051	-0.370021	-0.523561
C48	C	0.524658	-0.370034	-0.523551
C49	C	0.544065	-0.523011	-0.370246
C50	C	0.489463	-0.523002	-0.370259
C51	C	0.452457	-0.446498	-0.446921
O52	O	0.411328	-0.588016	-0.305148
O53	O	0.375373	-0.304951	-0.588750
C54	C	0.891989	-0.446503	-0.446977
C55	C	0.950102	-0.446504	-0.446995
C56	C	0.735808	-0.411204	-0.723984
C57	C	0.727366	-0.396162	-0.842046
C58	C	0.735811	-0.169467	-0.482129
C59	C	0.727371	-0.051411	-0.497127
C60	C	0.751272	-0.438477	-1.008508
C61	C	0.759997	-0.454018	-0.886485
C62	C	0.775376	-0.481583	-0.170974
C63	C	0.783898	-0.496324	-0.052951
H64	H	0.794422	-1.059234	-0.378361
H65	H	0.692942	-0.999140	-0.558069
C66	C	0.704709	-0.814347	-0.537115
C67	C	0.661535	-0.744028	-0.500596
C68	C	0.615022	-0.673425	-0.582936
C69	C	0.611683	-0.673141	-0.701795
C70	C	0.654859	-0.743464	-0.738319
C71	C	0.701371	-0.814067	-0.655979
H72	H	0.664005	-0.744235	-0.412605
H73	H	0.583061	-0.621367	-0.555898
H74	H	0.577252	-0.620877	-0.762748
H75	H	0.652389	-0.743256	-0.826311
H76	H	0.733332	-0.866124	-0.683018
H77	H	0.692973	-0.335123	-0.894328
C78	C	0.830367	-0.911100	-0.314606
C79	C	0.819165	-0.998073	-0.221559
C80	C	0.865679	-1.068669	-0.139218
C81	C	0.923395	-1.052291	-0.149924
C82	C	0.934599	-0.965313	-0.242976
C83	C	0.888085	-0.894718	-0.325317
H84	H	0.776438	-1.010201	-0.213630
H85	H	0.857385	-1.133055	-0.070335
H86	H	0.957828	-1.104550	-0.088970
H87	H	0.977326	-0.953186	-0.250905
H88	H	0.896380	-0.830331	-0.394200
C89	C	0.544008	-0.285889	-0.607873
C90	C	0.503297	-0.201753	-0.692183
C91	C	0.522645	-0.117610	-0.776500
C92	C	0.582706	-0.117603	-0.776507
C93	C	0.623422	-0.201742	-0.692193
C94	C	0.604073	-0.285885	-0.607876
H95	H	0.458833	-0.201756	-0.692181
H96	H	0.492505	-0.055325	-0.838915
H97	H	0.597029	-0.055315	-0.838923
H98	H	0.667885	-0.201739	-0.692195
H99	H	0.634214	-0.348170	-0.545462
C100	C	0.429349	-0.285873	-0.607893
C101	C	0.428876	-0.279358	-0.727500
C102	C	0.388174	-0.195216	-0.811836
C103	C	0.347944	-0.117589	-0.776564
C104	C	0.348415	-0.124101	-0.656952
C105	C	0.389117	-0.208243	-0.572616
H106	H	0.458658	-0.336825	-0.753615
H107	H	0.387825	-0.190396	-0.900381
H108	H	0.317813	-0.055302	-0.838995
H109	H	0.318633	-0.066634	-0.630836
H110	H	0.389466	-0.213063	-0.484071
C111	C	0.168469	-0.209383	-0.684582
C112	C	0.168007	-0.202874	-0.804186
C113	C	0.127309	-0.118734	-0.888533
C114	C	0.087074	-0.041103	-0.853278
C115	C	0.087536	-0.047609	-0.733668
C116	C	0.128233	-0.131749	-0.649321
H117	H	0.197792	-0.260343	-0.830289
H118	H	0.126968	-0.113918	-0.977076
H119	H	0.056947	0.021183	-0.915717
H120	H	0.057750	0.009860	-0.707565
H121	H	0.128574	-0.136565	-0.560778
H122	H	0.794393	-0.515048	-0.834202
C123	C	-0.073012	-0.285871	-0.607969
C124	C	-0.113199	-0.321414	-0.685426
C125	C	-0.153913	-0.237280	-0.769745
C126	C	-0.154440	-0.117602	-0.776607
C127	C	-0.114251	-0.082053	-0.699148
C128	C	-0.073537	-0.166187	-0.614829
H129	H	-0.112811	-0.410012	-0.680348
H130	H	-0.183663	-0.263597	-0.827085
H131	H	-0.184579	-0.055321	-0.839025
H132	H	-0.114639	0.006546	-0.704225
H133	H	-0.043787	-0.139870	-0.557488
C134	C	-0.032233	-0.607140	-0.286031
C135	C	-0.016734	-0.613667	-0.166420
C136	C	-0.036078	-0.697813	-0.082099
C137	C	-0.070923	-0.775432	-0.117390
C138	C	-0.086424	-0.768908	-0.237007
C139	C	-0.067080	-0.684762	-0.321328
H140	H	0.009062	-0.556206	-0.140291
H141	H	-0.024603	-0.702641	0.006450
H142	H	-0.085243	-0.837722	-0.054970
H143	H	-0.112220	-0.826369	-0.263136
H144	H	-0.078555	-0.679933	-0.409876
H145	H	0.278091	-0.231240	-0.662661
H146	H	0.233690	-0.661747	-0.231207
C147	C	0.082423	-0.607138	-0.286005
C148	C	0.082896	-0.613675	-0.166394
C149	C	0.123598	-0.697827	-0.082069
C150	C	0.163829	-0.775441	-0.117354
C151	C	0.163358	-0.768907	-0.236971
C152	C	0.122655	-0.684755	-0.321296
H153	H	0.053114	-0.556217	-0.140268
H154	H	0.123947	-0.702663	0.006480
H155	H	0.193959	-0.837736	-0.054932
H156	H	0.193140	-0.826364	-0.263097
H157	H	0.122307	-0.679918	-0.409845
C158	C	0.584779	-0.607139	-0.285925
C159	C	0.585311	-0.726821	-0.279048
C160	C	0.626025	-0.810944	-0.194719
C161	C	0.666208	-0.775384	-0.117267
C162	C	0.665678	-0.655697	-0.124141
C163	C	0.624963	-0.571574	-0.208470
H164	H	0.555564	-0.753150	-0.336384
H165	H	0.626418	-0.899545	-0.189630
H166	H	0.696348	-0.837657	-0.054842
H167	H	0.695425	-0.629368	-0.066804
H168	H	0.624571	-0.482973	-0.213559
C169	C	0.343319	-0.683593	-0.209293
C170	C	0.343795	-0.690115	-0.089684
C171	C	0.384502	-0.774255	-0.005355
C172	C	0.424732	-0.851873	-0.040636
C173	C	0.424257	-0.845353	-0.160251
C174	C	0.383551	-0.761213	-0.244580
H175	H	0.314013	-0.632655	-0.063561
H176	H	0.384853	-0.779081	0.083192
H177	H	0.454866	-0.914158	0.021788
H178	H	0.454040	-0.902813	-0.186374
H179	H	0.383199	-0.756388	-0.333127
C180	C	0.704808	-0.356029	-1.079135
C181	C	0.647067	-0.366613	-1.062867
C182	C	0.600601	-0.284163	-1.133492
C183	C	0.611877	-0.191129	-1.220384
C184	C	0.669621	-0.180541	-1.236656
C185	C	0.716086	-0.262991	-1.166031
H186	H	0.638718	-0.435486	-0.998540
H187	H	0.557856	-0.292002	-1.121446
H188	H	0.577481	-0.130095	-1.272665
H189	H	0.677970	-0.111668	-1.300982
H190	H	0.758832	-0.255152	-1.178077
C191	C	0.830362	-0.578776	-0.982326
C192	C	0.873535	-0.542400	-0.911902
C193	C	0.920000	-0.624854	-0.841279
C194	C	0.923291	-0.743682	-0.841081
C195	C	0.880116	-0.780064	-0.911508
C196	C	0.833652	-0.697610	-0.982131
H197	H	0.871100	-0.454431	-0.912046
H198	H	0.951961	-0.597921	-0.789145
H199	H	0.957687	-0.804719	-0.788803
H200	H	0.882552	-0.868033	-0.911364
H201	H	0.801691	-0.724543	-1.034265
H202	H	0.475139	-0.585296	-0.307851
H203	H	0.036625	-0.307723	-0.586054
