data_functionalizedCrystal
_audit_creation_method	'MofGen! by Chris Wilmer'
_symmetry_space_group_name_H-M	'P1'
_symmetry_Int_Tables_number	1
_symmetry_cell_setting	triclinic
loop_
_symmetry_equiv_pos_as_xyz
  x,y,z
_cell_length_a	15.995350
_cell_length_b	14.519709
_cell_length_c	13.596369
_cell_angle_alpha	90.006934
_cell_angle_beta	90.001679
_cell_angle_gamma	83.586260
loop_
_atom_site_label
_atom_site_type_symbol
_atom_site_fract_x
_atom_site_fract_y
_atom_site_fract_z
O1	O	-1.111164	-0.118875	-0.081710
O2	O	-0.611164	0.381125	0.418290
O3	O	-0.867411	-0.133554	-0.081731
O4	O	-0.367411	0.366446	0.418269
O5	O	-0.995750	0.008036	-0.081711
O6	O	-0.495750	0.508036	0.418289
O7	O	-0.982825	-0.260464	-0.081730
O8	O	-0.482825	0.239536	0.418270
O9	O	-0.995738	0.008043	0.081872
O10	O	-0.495738	0.508043	0.581872
O11	O	-0.867398	-0.133546	0.081852
O12	O	-0.367398	0.366454	0.581852
O13	O	-1.111152	-0.118867	0.081873
O14	O	-0.611152	0.381133	0.581873
Zn15	Zn	-0.989273	-0.126206	0.107835
Zn16	Zn	-0.489273	0.373794	0.607835
Zn17	Zn	-0.989290	-0.126215	-0.107693
Zn18	Zn	-0.489290	0.373785	0.392307
O19	O	-0.982812	-0.260457	0.081853
O20	O	-0.482812	0.239543	0.581853
C21	C	-0.836209	-0.132943	0.000058
C22	C	-0.336209	0.367057	0.500058
C23	C	-0.743256	-0.131124	0.000051
C24	C	-0.243256	0.368876	0.500051
C25	C	-0.995142	0.042398	0.000081
C26	C	-0.495142	0.542398	0.500081
C27	C	-0.993337	0.144776	0.000081
C28	C	-0.493337	0.644776	0.500081
C29	C	-1.142354	-0.119478	0.000082
C30	C	-0.642354	0.380522	0.500082
C31	C	-1.235307	-0.121297	0.000083
C32	C	-0.735307	0.378703	0.500083
C33	C	-0.405499	-0.124590	0.000072
C34	C	0.094501	0.375410	0.500072
C35	C	-0.452782	-0.023752	0.000444
C36	C	0.047218	0.476248	0.500444
C37	C	-0.549475	-0.025572	0.000068
C38	C	-0.049475	0.474428	0.500068
C39	C	-0.573064	-0.127831	0.000062
C40	C	-0.073064	0.372169	0.500062
C41	C	-0.532059	-0.177572	-0.093352
C42	C	-0.032059	0.322428	0.406648
C43	C	-0.435419	-0.175039	-0.093423
C44	C	0.064581	0.324961	0.406577
C45	C	-0.435069	-0.177114	0.092601
C46	C	0.064931	0.322886	0.592601
C47	C	-0.532014	-0.177090	0.093829
C48	C	-0.032014	0.322910	0.593829
C49	C	-0.667764	-0.129668	0.000053
C50	C	-0.167764	0.370332	0.500053
C51	C	-0.310798	-0.122756	0.000074
C52	C	0.189202	0.377244	0.500074
C53	C	-0.983421	-0.294819	0.000059
C54	C	-0.483421	0.205181	0.500059
C55	C	-0.985226	-0.397197	0.000052
C56	C	-0.485226	0.102803	0.500052
N57	N	-0.989267	-0.126198	0.254927
N58	N	-0.489267	0.373802	0.754927
C59	C	-0.986691	0.519660	0.000055
C60	C	-0.486691	1.019660	0.500055
C61	C	-0.988537	0.415355	0.000062
C62	C	-0.488537	0.915355	0.500062
C63	C	-0.990014	0.332221	0.000069
C64	C	-0.490014	0.832221	0.500069
C65	C	-0.991859	0.227910	0.000075
C66	C	-0.491859	0.727910	0.500075
N67	N	-0.989302	-0.126215	-0.254785
N68	N	-0.489302	0.373785	0.245215
C69	C	-0.989289	-0.126216	0.656218
C70	C	-0.489289	0.373784	1.156218
C71	C	-0.989280	-0.126215	0.544566
C72	C	-0.489280	0.373785	1.044566
C73	C	-0.989278	-0.126208	0.455576
C74	C	-0.489278	0.373792	0.955576
C75	C	-0.989269	-0.126205	0.343917
C76	C	-0.489269	0.373795	0.843917
H77	H	-0.434194	0.016558	0.067434
H78	H	0.065806	0.516558	0.567434
H79	H	-0.560387	-0.143030	-0.162867
H80	H	-0.060387	0.356970	0.337133
H81	H	-0.433133	0.016366	-0.066172
H82	H	0.066867	0.516366	0.433828
H83	H	-0.403419	-0.251460	0.093229
H84	H	0.096581	0.248540	0.593229
O85	O	-0.396938	-0.263300	-0.098448
O86	O	0.103062	0.236700	0.401552
C87	C	-0.308949	-0.261848	-0.098588
C88	C	0.191051	0.238152	0.401412
H89	H	-0.292874	-0.194584	-0.063809
H90	H	0.207126	0.305416	0.436191
H91	H	-0.278080	-0.323293	-0.054571
H92	H	0.221920	0.176707	0.445429
H93	H	-0.284740	-0.266495	-0.177497
H94	H	0.215260	0.233505	0.322503
O95	O	-0.583456	0.021017	0.079916
O96	O	-0.083456	0.521017	0.579916
C97	C	-0.671427	0.019412	0.079591
C98	C	-0.171427	0.519412	0.579591
H99	H	-0.687912	-0.042126	0.034300
H100	H	-0.187912	0.457874	0.534300
H101	H	-0.694612	0.012649	0.158266
H102	H	-0.194612	0.512649	0.658266
H103	H	-0.702894	0.086412	0.045945
H104	H	-0.202894	0.586412	0.545945
H105	H	-0.414478	-0.144144	0.163406
H106	H	0.085522	0.355856	0.663406
O107	O	-0.564404	-0.133851	0.176376
O108	O	-0.064404	0.366149	0.676376
C109	C	-0.527121	-0.178669	0.260086
C110	C	-0.027121	0.321331	0.760086
H111	H	-0.463709	-0.217455	0.239120
H112	H	0.036291	0.282545	0.739120
H113	H	-0.517532	-0.124944	0.318972
H114	H	-0.017532	0.375056	0.818972
H115	H	-0.569972	-0.229847	0.289856
H116	H	-0.069972	0.270153	0.789856
H117	H	-0.417062	-0.138772	-0.163247
H118	H	0.082938	0.361228	0.336753
H119	H	-0.577279	0.013785	-0.067006
H120	H	-0.077279	0.513785	0.432994
H121	H	-0.546296	-0.252699	-0.096830
H122	H	-0.046296	0.247301	0.403170
O123	O	-0.550515	-0.266048	0.100385
O124	O	-0.050515	0.233952	0.600385
C125	C	-0.601263	-0.285775	0.019978
C126	C	-0.101263	0.214225	0.519978
H127	H	-0.591511	-0.236380	-0.043107
H128	H	-0.091511	0.263620	0.456893
H129	H	-0.583121	-0.360244	-0.005121
H130	H	-0.083121	0.139756	0.494879
H131	H	-0.670191	-0.276654	0.043143
H132	H	-0.170191	0.223346	0.543143
