data_functionalizedCrystal
_audit_creation_method	'MofGen! by Chris Wilmer'
_symmetry_space_group_name_H-M	'P1'
_symmetry_Int_Tables_number	1
_symmetry_cell_setting	triclinic
loop_
_symmetry_equiv_pos_as_xyz
  x,y,z
_cell_length_a	10.686220
_cell_length_b	10.686285
_cell_length_c	10.685314
_cell_angle_alpha	90.303498
_cell_angle_beta	98.357559
_cell_angle_gamma	90.345431
loop_
_atom_site_label
_atom_site_type_symbol
_atom_site_fract_x
_atom_site_fract_y
_atom_site_fract_z
Zn1	Zn	1.918443	-0.396007	-0.536171
Zn2	Zn	2.418443	0.103993	-0.036171
Zn3	Zn	1.950488	-0.587114	-0.308092
Zn4	Zn	2.450488	-0.087114	0.191908
Zn5	Zn	1.722462	-0.396110	-0.340198
Zn6	Zn	2.222462	0.103890	0.159802
Zn7	Zn	1.724944	-0.621623	-0.533668
Zn8	Zn	2.224944	-0.121623	-0.033668
O9	O	1.829084	-0.500213	-0.429532
O10	O	2.329084	-0.000213	0.070468
O11	O	2.099103	-0.406872	-0.493527
O12	O	2.599103	0.093128	0.006473
O13	O	1.932612	-0.547377	-0.135931
O14	O	2.432612	-0.047377	0.364069
O15	O	1.734009	-0.221739	-0.380678
O16	O	2.234009	0.278261	0.119322
O17	O	2.122647	-0.547278	-0.325958
O18	O	2.622647	-0.047278	0.174042
O19	O	1.877996	-0.221663	-0.524659
O20	O	2.377996	0.278337	-0.024659
O21	O	1.765082	-0.407047	-0.159519
O22	O	2.265082	0.092953	0.340481
O23	O	1.546382	-0.440510	-0.378251
O24	O	2.046382	0.059490	0.121749
O25	O	1.738241	-0.606094	-0.710420
O26	O	2.238241	-0.106094	-0.210420
O27	O	1.548206	-0.606194	-0.520393
O28	O	2.048206	-0.106194	-0.020393
O29	O	1.880403	-0.440334	-0.712259
O30	O	2.380403	0.059666	-0.212259
O31	O	1.935019	-0.766049	-0.323531
O32	O	2.435019	-0.266049	0.176469
O33	O	1.769313	-0.791402	-0.489261
O34	O	2.269313	-0.291402	0.010739
C35	C	1.501553	-0.527108	-0.452535
C36	C	2.001553	-0.027108	0.047465
C37	C	1.361433	-0.538647	-0.462403
C38	C	1.861433	-0.038647	0.037597
C39	C	1.855945	-0.823934	-0.402665
C40	C	2.355945	-0.323934	0.097335
C41	C	1.867549	-0.962417	-0.391206
C42	C	2.367549	-0.462417	0.108794
C43	C	2.157895	-0.473214	-0.406440
C44	C	2.657895	0.026786	0.093560
C45	C	2.298015	-0.461708	-0.396600
C46	C	2.798015	0.038292	0.103400
C47	C	1.806024	-0.527052	-0.758362
C48	C	2.306024	-0.027052	-0.258362
C49	C	1.796197	-0.538489	-0.898490
C50	C	2.296197	-0.038489	-0.398490
C51	C	1.802151	-0.175228	-0.456529
C52	C	2.302151	0.324772	0.043471
C53	C	1.790674	-0.036739	-0.468034
C54	C	2.290674	0.463261	0.031966
C55	C	1.852120	-0.473383	-0.101984
C56	C	2.352120	0.026617	0.398016
C57	C	1.862162	-0.461575	0.038131
C58	C	2.362162	0.038425	0.538131
H59	H	1.350915	-0.387012	-0.332713
H60	H	1.850915	0.112988	0.167287
N61	N	1.291371	-0.637606	-0.547032
N62	N	1.791371	-0.137606	-0.047032
H63	H	1.323001	-0.723126	-0.518325
H64	H	1.823001	-0.223126	-0.018325
H65	H	1.197866	-0.631996	-0.542290
H66	H	1.697866	-0.131996	-0.042290
N67	N	1.691727	-0.980703	-0.566778
N68	N	2.191727	-0.480703	-0.066778
H69	H	1.697187	-0.886401	-0.561246
H70	H	2.197187	-0.386401	-0.061246
H71	H	1.706830	-1.009084	-0.653609
H72	H	2.206830	-0.509084	-0.153609
N73	N	1.711442	-0.637328	-0.968612
N74	N	2.211442	-0.137328	-0.468612
H75	H	1.668820	-0.687028	-0.906411
H76	H	2.168820	-0.187028	-0.406411
H77	H	1.645113	-0.595814	-1.031562
H78	H	2.145113	-0.095814	-0.531562
H79	H	1.942238	-1.004736	-0.316648
H80	H	2.442238	-0.504736	0.183352
H81	H	1.926141	-0.386964	-0.908929
H82	H	2.426141	0.113036	-0.408929
