data_functionalizedCrystal
_audit_creation_method	'MofGen! by Chris Wilmer'
_symmetry_space_group_name_H-M	'P1'
_symmetry_Int_Tables_number	1
_symmetry_cell_setting	triclinic
loop_
_symmetry_equiv_pos_as_xyz
  x,y,z
_cell_length_a	11.792241
_cell_length_b	15.944551
_cell_length_c	10.868271
_cell_angle_alpha	89.993912
_cell_angle_beta	89.999893
_cell_angle_gamma	83.846077
loop_
_atom_site_label
_atom_site_type_symbol
_atom_site_fract_x
_atom_site_fract_y
_atom_site_fract_z
O1	O	1.505960	0.115128	-0.102206
O2	O	1.755960	0.365128	0.147794
O3	O	2.005960	0.615128	0.397794
O4	O	2.255960	0.865128	0.647794
O5	O	1.175521	0.126993	-0.102235
O6	O	1.425521	0.376993	0.147765
O7	O	1.675521	0.626993	0.397765
O8	O	1.925521	0.876993	0.647765
O9	O	1.349764	-0.001173	-0.102208
O10	O	1.599764	0.248827	0.147792
O11	O	1.849764	0.498827	0.397792
O12	O	2.099764	0.748827	0.647792
O13	O	1.331717	0.243295	-0.102232
O14	O	1.581717	0.493295	0.147768
O15	O	1.831717	0.743295	0.397768
O16	O	2.081717	0.993295	0.647768
O17	O	1.349750	-0.001178	0.102436
O18	O	1.599750	0.248822	0.352436
O19	O	1.849750	0.498822	0.602436
O20	O	2.099750	0.748822	0.852436
O21	O	1.175507	0.126988	0.102410
O22	O	1.425507	0.376988	0.352410
O23	O	1.675507	0.626988	0.602410
O24	O	1.925507	0.876988	0.852410
O25	O	1.505946	0.115123	0.102439
O26	O	1.755946	0.365123	0.352439
O27	O	2.005946	0.615123	0.602439
O28	O	2.255946	0.865123	0.852439
Zn29	Zn	1.340724	0.121055	0.134916
Zn30	Zn	1.590724	0.371055	0.384916
Zn31	Zn	1.840724	0.621055	0.634916
Zn32	Zn	2.090724	0.871055	0.884916
Zn33	Zn	1.340743	0.121062	-0.134712
Zn34	Zn	1.590743	0.371062	0.115288
Zn35	Zn	1.840743	0.621062	0.365288
Zn36	Zn	2.090743	0.871062	0.615288
O37	O	1.331703	0.243290	0.102413
O38	O	1.581703	0.493290	0.352413
O39	O	1.831703	0.743290	0.602413
O40	O	2.081703	0.993290	0.852413
C41	C	1.133229	0.126245	0.000084
C42	C	1.383229	0.376245	0.250084
C43	C	1.633229	0.626245	0.500084
C44	C	1.883229	0.876245	0.750084
C45	C	1.007234	0.124015	0.000073
C46	C	1.257234	0.374015	0.250073
C47	C	1.507234	0.624015	0.500073
C48	C	1.757234	0.874015	0.750073
C49	C	0.776555	0.119913	0.000109
C50	C	1.026555	0.369913	0.250109
C51	C	1.276555	0.619913	0.500109
C52	C	1.526555	0.869913	0.750109
C53	C	0.904922	0.122192	0.000090
C54	C	1.154922	0.372192	0.250090
C55	C	1.404922	0.622192	0.500090
C56	C	1.654922	0.872192	0.750090
C57	C	1.349008	-0.032473	0.000114
C58	C	1.599008	0.217527	0.250114
C59	C	1.849008	0.467527	0.500114
C60	C	2.099008	0.717527	0.750114
C61	C	1.346761	-0.125729	0.000115
C62	C	1.596761	0.124271	0.250115
C63	C	1.846761	0.374271	0.500115
C64	C	2.096761	0.624271	0.750115
C65	C	1.233389	-0.341098	0.000088
C66	C	1.483389	-0.091098	0.250088
C67	C	1.733389	0.158902	0.500088
C68	C	1.983389	0.408902	0.750088
C69	C	1.286028	-0.401880	0.100995
C70	C	1.536028	-0.151880	0.350995
C71	C	1.786028	0.098120	0.600995
C72	C	2.036028	0.348120	0.850995
C73	C	1.342698	-0.296474	0.000105
C74	C	1.592698	-0.046474	0.250105
C75	C	1.842698	0.203526	0.500105
C76	C	2.092698	0.453526	0.750105
C77	C	1.286068	-0.401858	-0.100769
C78	C	1.536068	-0.151858	0.149231
C79	C	1.786068	0.098142	0.399231
C80	C	2.036068	0.348142	0.649231
C81	C	1.338765	-0.461404	0.000090
C82	C	1.588765	-0.211404	0.250090
C83	C	1.838765	0.038596	0.500090
C84	C	2.088765	0.288596	0.750090
C85	C	1.395368	-0.356028	0.101095
C86	C	1.645368	-0.106028	0.351095
C87	C	1.895368	0.143972	0.601095
C88	C	2.145368	0.393972	0.851095
C89	C	1.395392	-0.356000	-0.100759
C90	C	1.645392	-0.106000	0.149241
C91	C	1.895392	0.144000	0.399241
C92	C	2.145392	0.394000	0.649241
C93	C	1.448111	-0.416764	0.000172
C94	C	1.698111	-0.166764	0.250172
C95	C	1.948111	0.083236	0.500172
C96	C	2.198111	0.333236	0.750172
C97	C	1.344961	-0.201461	0.000114
C98	C	1.594961	0.048539	0.250114
C99	C	1.844961	0.298539	0.500114
C100	C	2.094961	0.548539	0.750114
C101	C	1.336511	-0.556415	0.000089
C102	C	1.586511	-0.306415	0.250089
C103	C	1.836511	-0.056415	0.500089
C104	C	2.086511	0.193585	0.750089
C105	C	1.548237	0.115871	0.000118
C106	C	1.798237	0.365871	0.250118
C107	C	2.048237	0.615871	0.500118
C108	C	2.298237	0.865871	0.750118
C109	C	1.674233	0.118102	0.000120
C110	C	1.924233	0.368102	0.250120
C111	C	2.174233	0.618102	0.500120
C112	C	2.424233	0.868102	0.750120
C113	C	1.332459	0.274590	0.000087
C114	C	1.582459	0.524590	0.250087
C115	C	1.832459	0.774590	0.500087
C116	C	2.082459	1.024590	0.750087
C117	C	1.334705	0.367846	0.000079
C118	C	1.584705	0.617846	0.250079
C119	C	1.834705	0.867846	0.500079
C120	C	2.084705	1.117846	0.750079
N121	N	1.340719	0.121050	0.318930
N122	N	1.590719	0.371050	0.568930
N123	N	1.840719	0.621050	0.818930
N124	N	2.090719	0.871050	1.068930
N125	N	1.340756	0.121060	-0.318726
N126	N	1.590756	0.371060	-0.068726
N127	N	1.840756	0.621060	0.181274
N128	N	2.090756	0.871060	0.431274
C129	C	1.340737	0.121060	0.569936
C130	C	1.590737	0.371060	0.819936
C131	C	1.840737	0.621060	1.069936
C132	C	2.090737	0.871060	1.319936
C133	C	1.340723	0.121057	0.430259
C134	C	1.590723	0.371057	0.680259
C135	C	1.840723	0.621057	0.930259
C136	C	2.090723	0.871057	1.180259
H137	H	1.142657	-0.308200	0.000181
H138	H	1.392657	-0.058200	0.250181
H139	H	1.642657	0.191800	0.500181
H140	H	1.892657	0.441800	0.750181
Cl141	Cl	1.588314	-0.467330	0.000267
Cl142	Cl	1.838314	-0.217330	0.250267
Cl143	Cl	2.088314	0.032670	0.500267
Cl144	Cl	2.338314	0.282670	0.750267
H145	H	1.239789	-0.422199	0.186295
H146	H	1.489789	-0.172199	0.436295
H147	H	1.739789	0.077801	0.686295
H148	H	1.989789	0.327801	0.936295
Cl149	Cl	1.466683	-0.324851	0.232950
Cl150	Cl	1.716683	-0.074851	0.482950
Cl151	Cl	1.966683	0.175149	0.732950
Cl152	Cl	2.216683	0.425149	0.982950
H153	H	1.441592	-0.335659	-0.186064
H154	H	1.691592	-0.085659	0.063936
H155	H	1.941592	0.164341	0.313936
H156	H	2.191592	0.414341	0.563936
H157	H	1.239826	-0.422142	-0.186084
H158	H	1.489826	-0.172142	0.063916
H159	H	1.739826	0.077858	0.313916
H160	H	1.989826	0.327858	0.563916
