data_functionalizedCrystal
_audit_creation_method	'MofGen! by Chris Wilmer'
_symmetry_space_group_name_H-M	'P1'
_symmetry_Int_Tables_number	1
_symmetry_cell_setting	triclinic
loop_
_symmetry_equiv_pos_as_xyz
  x,y,z
_cell_length_a	14.908571
_cell_length_b	29.839131
_cell_length_c	14.908662
_cell_angle_alpha	86.733404
_cell_angle_beta	96.407568
_cell_angle_gamma	86.737317
loop_
_atom_site_label
_atom_site_type_symbol
_atom_site_fract_x
_atom_site_fract_y
_atom_site_fract_z
Zn1	Zn	1.413165	-0.236515	0.591462
Zn2	Zn	1.913165	0.263485	1.091462
Zn3	Zn	1.404280	-0.307041	0.440082
Zn4	Zn	1.904280	0.192959	0.940082
Zn5	Zn	1.253073	-0.227325	0.431398
Zn6	Zn	1.753073	0.272675	0.931398
Zn7	Zn	1.261712	-0.307008	0.582681
Zn8	Zn	1.761712	0.192992	1.082681
O9	O	1.333057	-0.269472	0.511406
O10	O	1.833057	0.230528	1.011406
O11	O	1.538650	-0.249731	0.578690
O12	O	2.038650	0.250269	1.078690
O13	O	1.376888	-0.292635	0.312265
O14	O	1.876888	0.207365	0.812265
O15	O	1.274413	-0.165681	0.452672
O16	O	1.774413	0.334319	0.952672
O17	O	1.532122	-0.301546	0.467472
O18	O	2.032122	0.198454	0.967472
O19	O	1.392032	-0.172433	0.570270
O20	O	1.892032	0.327567	1.070270
O21	O	1.265798	-0.234067	0.305885
O22	O	1.765798	0.265933	0.805885
O23	O	1.127555	-0.234035	0.444157
O24	O	1.627555	0.265965	0.944157
O25	O	1.289136	-0.301489	0.710511
O26	O	1.789136	0.198511	1.210511
O27	O	1.133902	-0.292577	0.555304
O28	O	1.633902	0.207423	1.055304
O29	O	1.400408	-0.249698	0.716962
O30	O	1.900408	0.250302	1.216962
O31	O	1.385264	-0.369900	0.458958
O32	O	1.885264	0.130100	0.958958
O33	O	1.280520	-0.369875	0.563724
O34	O	1.780520	0.130125	1.063724
C35	C	1.097886	-0.262306	0.497836
C36	C	1.597886	0.237694	0.997836
C37	C	0.997280	-0.259251	0.492052
C38	C	1.497280	0.240749	0.992052
C39	C	0.814878	-0.314556	0.596765
C40	C	1.314878	0.185444	1.096765
C41	C	0.720350	-0.311688	0.591334
C42	C	1.220350	0.188312	1.091334
C43	C	0.713694	-0.250644	0.475764
C44	C	1.213694	0.249356	0.975764
C45	C	0.808222	-0.253512	0.481195
C46	C	1.308222	0.246488	0.981195
C47	C	0.858811	-0.285470	0.541697
C48	C	1.358811	0.214530	1.041697
C49	C	0.953341	-0.288340	0.547123
C50	C	1.453341	0.211660	1.047123
C51	C	0.946683	-0.227295	0.431558
C52	C	1.446683	0.272705	0.931558
C53	C	0.852155	-0.224426	0.426127
C54	C	1.352155	0.275574	0.926127
C55	C	1.332891	-0.386188	0.511351
C56	C	1.832891	0.113812	1.011351
C57	C	1.332905	-0.436124	0.511363
C58	C	1.832905	0.063876	1.011363
C59	C	1.387708	-0.745779	0.456944
C60	C	1.887708	-0.245779	0.956944
C61	C	1.387821	-0.933456	0.456986
C62	C	1.887821	-0.433456	0.956986
O63	O	1.434285	-0.957726	0.410675
O64	O	1.934285	-0.457726	0.910675
N65	N	1.333249	-0.956922	0.511485
N66	N	1.833249	-0.456922	1.011485
C67	C	1.278649	-0.933466	0.565982
C68	C	1.778649	-0.433466	1.065982
O69	O	1.232241	-0.957732	0.612344
O70	O	1.732241	-0.457732	1.112344
C71	C	1.278540	-0.745790	0.565944
C72	C	1.778540	-0.245790	1.065944
C73	C	1.333109	-0.722326	0.511435
C74	C	1.833109	-0.222326	1.011435
C75	C	1.442273	-0.722315	0.402440
C76	C	1.942273	-0.222315	0.902440
C77	C	1.442241	-0.675398	0.402427
C78	C	1.942241	-0.175398	0.902427
C79	C	1.387642	-0.651945	0.456917
C80	C	1.887642	-0.151945	0.956917
C81	C	1.333077	-0.675409	0.511421
C82	C	1.833077	-0.175409	1.011421
C83	C	1.223945	-0.722335	0.620445
C84	C	1.723945	-0.222335	1.120445
C85	C	1.223925	-0.675413	0.620433
C86	C	1.723925	-0.175413	1.120433
C87	C	1.278494	-0.651949	0.565924
C88	C	1.778494	-0.151949	1.065924
C89	C	1.278446	-0.605039	0.565899
C90	C	1.778446	-0.105039	1.065899
N91	N	1.333018	-0.581573	0.511400
N92	N	1.833018	-0.081573	1.011400
C93	C	1.387617	-0.605026	0.456909
C94	C	1.887617	-0.105026	0.956909
C95	C	1.278708	-1.031999	0.565996
C96	C	1.778708	-0.531999	1.065996
C97	C	1.278734	-1.078917	0.566004
C98	C	1.778734	-0.578917	1.066004
C99	C	1.387908	-1.078904	0.457010
C100	C	1.887908	-0.578904	0.957010
C101	C	1.387877	-1.031984	0.456997
C102	C	1.887877	-0.531984	0.956997
C103	C	1.333280	-1.008533	0.511497
C104	C	1.833280	-0.508533	1.011497
C105	C	1.387543	-0.506498	0.456884
C106	C	1.887543	-0.006498	0.956884
C107	C	1.387503	-0.459576	0.456873
C108	C	1.887503	0.040424	0.956873
C109	C	1.278333	-0.459594	0.565871
C110	C	1.778333	0.040406	1.065871
C111	C	1.278369	-0.506511	0.565879
C112	C	1.778369	-0.006511	1.065879
C113	C	1.332981	-0.529961	0.511383
C114	C	1.832981	-0.029961	1.011383
O115	O	1.232014	-0.580741	0.612193
O116	O	1.732014	-0.080741	1.112193
O117	O	1.434032	-0.580753	0.410568
O118	O	1.934032	-0.080753	0.910568
C119	C	1.387740	-0.792695	0.456958
C120	C	1.887740	-0.292695	0.956958
C121	C	1.333175	-0.816159	0.511462
C122	C	1.833175	-0.316159	1.011462
C123	C	1.278577	-0.792706	0.565953
C124	C	1.778577	-0.292706	1.065953
C125	C	1.333201	-0.863078	0.511470
C126	C	1.833201	-0.363078	1.011470
C127	C	1.387799	-0.886531	0.456980
C128	C	1.887799	-0.386531	0.956980
C129	C	1.442371	-0.863065	0.402481
C130	C	1.942371	-0.363065	0.902481
C131	C	1.442339	-0.816148	0.402467
C132	C	1.942339	-0.316148	0.902467
C133	C	1.224004	-0.816172	0.620452
C134	C	1.724004	-0.316172	1.120452
C135	C	1.224040	-0.863089	0.620460
C136	C	1.724040	-0.363089	1.120460
C137	C	1.278639	-0.886542	0.565969
C138	C	1.778639	-0.386542	1.065969
C139	C	1.569147	-0.276667	0.525029
C140	C	2.069147	0.223333	1.025029
C141	C	1.669754	-0.279733	0.530835
C142	C	2.169754	0.220267	1.030835
C143	C	1.346726	-0.276615	0.747498
C144	C	1.846726	0.223385	1.247498
C145	C	1.352551	-0.279658	0.848106
C146	C	1.852551	0.220342	1.348106
C147	C	1.333250	-0.152301	0.511482
C148	C	1.833250	0.347699	1.011482
C149	C	1.333332	-0.102370	0.511514
C150	C	1.833332	0.397630	1.011514
C151	C	1.319493	-0.262327	0.276235
C152	C	1.819493	0.237673	0.776235
C153	C	1.313844	-0.259162	0.175638
C154	C	1.813844	0.240838	0.675638
C155	C	1.418589	-0.314437	0.993233
C156	C	1.918589	0.185563	1.493233
C157	C	1.413123	-0.311580	0.898703
C158	C	1.913123	0.188420	1.398703
C159	C	1.297440	-0.250592	0.892045
C160	C	1.797440	0.249408	1.392045
C161	C	1.302907	-0.253450	0.986576
C162	C	1.802907	0.246550	1.486576
C163	C	1.363484	-0.285373	1.037166
C164	C	1.863484	0.214627	1.537166
C165	C	1.368955	-0.288228	1.131698
C166	C	1.868955	0.211772	1.631698
C167	C	1.253268	-0.227242	1.125039
C168	C	1.753268	0.272758	1.625039
C169	C	1.247802	-0.224385	1.030509
C170	C	1.747802	0.275615	1.530509
H171	H	0.982462	-0.203611	0.386715
H172	H	1.482462	0.296389	0.886715
H173	H	1.179505	-0.741431	0.664828
H174	H	1.679505	-0.241431	1.164828
H175	H	1.486774	-0.797047	0.358081
H176	H	1.986774	-0.297047	0.858081
C177	C	1.218337	-0.532321	0.625838
C178	C	1.718337	-0.032321	1.125838
N179	N	1.173127	-0.551759	0.671008
N180	N	1.673127	-0.051759	1.171008
C181	C	0.658030	-0.215489	0.409227
C182	C	1.158030	0.284511	0.909227
N183	N	0.616104	-0.189010	0.359111
N184	N	1.116104	0.310990	0.859111
H185	H	1.432312	-1.012883	0.412612
H186	H	1.932312	-0.512883	0.912612
H187	H	1.432016	-0.525586	0.412511
H188	H	1.932016	-0.025586	0.912511
C189	C	1.230822	-0.215475	0.836381
C190	C	1.730822	0.284525	1.336381
N191	N	1.180650	-0.189021	0.794453
N192	N	1.680650	0.310979	1.294453
H193	H	1.486678	-0.656296	0.358044
H194	H	1.986678	-0.156296	0.858044
H195	H	1.233876	-0.440491	0.610233
H196	H	1.733876	0.059509	1.110233
C197	C	1.435588	-0.323345	1.187346
C198	C	1.935588	0.176655	1.687346
N199	N	1.485776	-0.349797	1.229258
N200	N	1.985776	0.150203	1.729258
C201	C	1.163863	-0.649619	0.680389
C202	C	1.663863	-0.149619	1.180389
N203	N	1.118623	-0.630192	0.725547
N204	N	1.618623	-0.130192	1.225547
H205	H	0.856068	-0.340580	0.646023
H206	H	1.356068	0.159420	1.146023
H207	H	1.467921	-0.340427	1.034425
H208	H	1.967921	0.159573	1.534425
C209	C	1.473755	-0.343548	0.850381
C210	C	1.973755	0.156452	1.350381
N211	N	1.519430	-0.367626	0.813985
N212	N	2.019430	0.132374	1.313985
C213	C	1.181180	-0.189267	0.974849
C214	C	1.681180	0.310733	1.474849
N215	N	1.131005	-0.162813	0.932928
N216	N	1.631005	0.337187	1.432928
C217	C	1.447531	-0.433769	0.396901
C218	C	1.947531	0.066231	0.896901
N219	N	1.492743	-0.414332	0.351731
N220	N	1.992743	0.085668	0.851731
C221	C	1.008987	-0.323493	0.613677
C222	C	1.508987	0.176507	1.113677
N223	N	1.050898	-0.349970	0.663811
N224	N	1.550898	0.150030	1.163811
H225	H	1.432364	-1.098008	0.412642
H226	H	1.932364	-0.598008	0.912642
H227	H	0.810952	-0.198406	0.376870
H228	H	1.310952	0.301594	0.876870
C229	C	1.502336	-0.748105	0.342486
C230	C	2.002336	-0.248105	0.842486
N231	N	1.547572	-0.767527	0.297317
N232	N	2.047572	-0.267527	0.797317
C233	C	1.192648	-0.195270	1.173373
C234	C	1.692648	0.304730	1.673373
N235	N	1.146991	-0.171188	1.209779
N236	N	1.646991	0.328812	1.709779
H237	H	0.684584	-0.335372	0.636179
H238	H	1.184584	0.164628	1.136179
C239	C	1.218694	-1.104722	0.625960
C240	C	1.718694	-0.604722	1.125960
N241	N	1.173474	-1.124157	0.671124
N242	N	1.673474	-0.624157	1.171124
H243	H	1.234247	-1.012907	0.610378
H244	H	1.734247	-0.512907	1.110378
H245	H	1.486824	-0.882168	0.358110
H246	H	1.986824	-0.382168	0.858110
C247	C	1.164004	-0.888894	0.680427
C248	C	1.664004	-0.388894	1.180427
N249	N	1.118792	-0.908329	0.725600
N250	N	1.618792	-0.408329	1.225600
H251	H	1.179545	-0.797081	0.664826
H252	H	1.679545	-0.297081	1.164826
