data_functionalizedCrystal
_audit_creation_method	'MofGen! by Chris Wilmer'
_symmetry_space_group_name_H-M	'P1'
_symmetry_Int_Tables_number	1
_symmetry_cell_setting	triclinic
loop_
_symmetry_equiv_pos_as_xyz
  x,y,z
_cell_length_a	16.109302
_cell_length_b	14.519731
_cell_length_c	14.586319
_cell_angle_alpha	89.995223
_cell_angle_beta	89.994552
_cell_angle_gamma	83.575317
loop_
_atom_site_label
_atom_site_type_symbol
_atom_site_fract_x
_atom_site_fract_y
_atom_site_fract_z
O1	O	1.103344	0.118542	-0.076284
O2	O	1.603344	0.618542	0.423716
O3	O	0.861308	0.133293	-0.076277
O4	O	1.361308	0.633293	0.423723
O5	O	0.988734	-0.008333	-0.076272
O6	O	1.488734	0.491667	0.423728
O7	O	0.975918	0.260168	-0.076288
O8	O	1.475918	0.760168	0.423712
O9	O	0.988725	-0.008335	0.076209
O10	O	1.488725	0.491665	0.576209
O11	O	0.861300	0.133291	0.076204
O12	O	1.361300	0.633291	0.576204
O13	O	1.103335	0.118540	0.076197
O14	O	1.603335	0.618540	0.576197
Cu15	Cu	0.982316	0.125915	0.090123
Cu16	Cu	1.482316	0.625915	0.590123
Cu17	Cu	0.982327	0.125918	-0.090203
Cu18	Cu	1.482327	0.625918	0.409797
O19	O	0.975909	0.260166	0.076193
O20	O	1.475909	0.760166	0.576193
C21	C	0.830328	0.132695	-0.000035
C22	C	1.330328	0.632695	0.499965
C23	C	0.738030	0.130903	-0.000032
C24	C	1.238030	0.630903	0.499968
C25	C	0.525676	0.126758	0.083076
C26	C	1.025676	0.626758	0.583076
C27	C	0.438953	0.125065	0.083073
C28	C	0.938953	0.625065	0.583073
C29	C	0.438973	0.125072	-0.083170
C30	C	0.938973	0.625072	0.416830
C31	C	0.525696	0.126759	-0.083166
C32	C	1.025696	0.626759	0.416834
C33	C	0.569044	0.127607	-0.000040
C34	C	1.069044	0.627607	0.499960
C35	C	0.395599	0.124226	-0.000047
C36	C	0.895599	0.624226	0.499953
C37	C	0.301570	0.122390	-0.000051
C38	C	0.801570	0.622390	0.499949
C39	C	0.663080	0.129441	-0.000036
C40	C	1.163080	0.629441	0.499964
C41	C	0.988129	-0.042692	-0.000031
C42	C	1.488129	0.457308	0.499969
C43	C	0.986330	-0.145069	-0.000031
C44	C	1.486330	0.354931	0.499969
C45	C	0.984868	-0.228210	-0.000033
C46	C	1.484868	0.271790	0.499967
C47	C	0.983041	-0.332515	-0.000040
C48	C	1.483041	0.167485	0.499960
C49	C	0.981591	-0.415651	-0.000046
C50	C	1.481591	0.084349	0.499954
C51	C	0.979764	-0.519962	-0.000051
C52	C	1.479764	-0.019962	0.499949
C53	C	1.134315	0.119139	-0.000046
C54	C	1.634315	0.619139	0.499954
C55	C	1.226614	0.120930	-0.000055
C56	C	1.726614	0.620930	0.499945
C57	C	0.976514	0.294525	-0.000050
C58	C	1.476514	0.794525	0.499950
C59	C	0.978314	0.396902	-0.000057
C60	C	1.478314	0.896902	0.499943
N61	N	0.982315	0.125913	0.216955
N62	N	1.482315	0.625913	0.716955
N63	N	0.982335	0.125913	-0.217035
N64	N	1.482335	0.625913	0.282965
C65	C	1.038758	0.063222	0.451964
C66	C	1.538758	0.563222	0.951964
C67	C	1.038760	0.063220	0.547945
C68	C	1.538760	0.563220	1.047945
C69	C	0.925886	0.188607	0.547950
C70	C	1.425886	0.688607	1.047950
C71	C	0.925880	0.188604	0.451971
C72	C	1.425880	0.688604	0.951971
C73	C	0.982321	0.125913	0.403980
C74	C	1.482321	0.625913	0.903980
C75	C	0.982329	0.125913	0.595941
C76	C	1.482329	0.625913	1.095941
C77	C	0.982331	0.125911	0.700008
C78	C	1.482331	0.625911	1.200008
C79	C	0.982318	0.125913	0.299906
C80	C	1.482318	0.625913	0.799906
H81	H	0.561007	0.127447	-0.150853
H82	H	1.061007	0.627447	0.349147
H83	H	1.084714	0.012173	0.412892
H84	H	1.584714	0.512173	0.912892
O85	O	0.871033	0.249380	0.594674
O86	O	1.371033	0.749380	1.094674
C87	C	0.819659	0.199976	0.650193
C88	C	1.319659	0.699976	1.150193
H89	H	0.852661	0.127821	0.664572
H90	H	1.352661	0.627821	1.164572
H91	H	0.806574	0.238467	0.717684
H92	H	1.306574	0.738467	1.217684
H93	H	0.758202	0.193692	0.613218
H94	H	1.258202	0.693692	1.113218
O95	O	1.093665	0.002289	0.594414
O96	O	1.593665	0.502289	1.094414
C97	C	1.143461	-0.053057	0.531470
C98	C	1.643461	0.446943	1.031470
H99	H	1.144454	-0.015245	0.463050
H100	H	1.644454	0.484755	0.963050
H101	H	1.209834	-0.067105	0.559192
H102	H	1.709834	0.432895	1.059192
H103	H	1.116362	-0.121576	0.521272
H104	H	1.616362	0.378424	1.021272
O105	O	0.396919	0.124098	-0.163939
O106	O	0.896919	0.624098	0.336061
C107	C	0.427421	0.044705	-0.214519
C108	C	0.927421	0.544705	0.285481
H109	H	0.457746	-0.010632	-0.165886
H110	H	0.957746	0.489368	0.334114
H111	H	0.373512	0.016813	-0.252230
H112	H	0.873512	0.516813	0.247770
H113	H	0.475668	0.063735	-0.266340
H114	H	0.975668	0.563735	0.233660
H115	H	0.879918	0.239655	0.412900
H116	H	1.379918	0.739655	0.912900
H117	H	0.560968	0.127449	0.150762
H118	H	1.060968	0.627449	0.650762
H119	H	0.403647	0.124374	0.150755
H120	H	0.903647	0.624374	0.650755
