data_functionalizedCrystal
_audit_creation_method	'MofGen! by Chris Wilmer'
_symmetry_space_group_name_H-M	'P1'
_symmetry_Int_Tables_number	1
_symmetry_cell_setting	triclinic
loop_
_symmetry_equiv_pos_as_xyz
  x,y,z
_cell_length_a	10.654550
_cell_length_b	9.065218
_cell_length_c	9.130313
_cell_angle_alpha	90.000552
_cell_angle_beta	89.996220
_cell_angle_gamma	84.750394
loop_
_atom_site_label
_atom_site_type_symbol
_atom_site_fract_x
_atom_site_fract_y
_atom_site_fract_z
O1	O	1.668655	0.207228	-0.121914
O2	O	1.303255	0.226972	-0.121889
O3	O	1.493507	0.002416	-0.121899
O4	O	1.478402	0.431784	-0.121904
O5	O	1.493505	0.002422	0.121700
O6	O	1.303252	0.226978	0.121709
O7	O	1.668653	0.207234	0.121685
Cu8	Cu	1.485952	0.217107	0.143940
Cu9	Cu	1.485955	0.217100	-0.144144
O10	O	1.478400	0.431790	0.121695
C11	C	1.256450	0.225525	-0.000087
C12	C	1.116989	0.221188	-0.000078
C13	C	1.038027	0.353403	-0.000101
C14	C	0.906990	0.349319	-0.000126
C15	C	0.933890	0.080793	-0.000112
C16	C	1.064925	0.084879	-0.000076
C17	C	1.022496	0.508434	-0.000115
C18	C	0.891459	0.504350	-0.000141
C19	C	1.492055	-0.052559	-0.000102
C20	C	1.487714	-0.216378	-0.000109
C21	C	1.715457	0.208681	-0.000120
C22	C	1.854918	0.213018	-0.000139
C23	C	1.479852	0.486766	-0.000106
C24	C	1.484193	0.650585	-0.000108
N25	N	1.485959	0.217111	0.346563
N26	N	1.485957	0.217084	-0.346767
C27	C	1.570225	0.117712	0.423210
C28	C	1.570222	0.117694	0.576547
C29	C	1.401682	0.316488	0.576575
C30	C	1.401681	0.316497	0.423241
C31	C	1.667534	0.002944	0.423195
C32	C	1.667531	0.002926	0.576532
H33	H	0.891483	-0.030185	-0.000133
H34	H	0.845972	0.551205	0.105027
H35	H	1.645642	-0.110463	0.381578
H36	H	1.636593	-0.104243	0.624083
C37	C	1.185241	0.400728	0.623813
C38	C	1.309048	0.425728	0.660869
H39	H	1.128053	0.468165	0.675859
H40	H	1.173190	0.414972	0.521536
H41	H	1.170509	0.302095	0.648936
H42	H	1.323783	0.524358	0.635736
H43	H	1.321104	0.411496	0.763169
C44	C	0.955587	0.635825	0.220958
C45	C	1.062429	0.590278	0.137513
H46	H	0.980244	0.686340	0.305926
H47	H	0.899595	0.700391	0.164307
H48	H	0.914474	0.551625	0.249252
H49	H	1.103536	0.674479	0.109209
H50	H	1.118441	0.525709	0.194174
H51	H	1.058348	0.557796	-0.105288
H52	H	1.764142	0.028206	0.618142
C53	C	1.871790	0.083286	0.473181
C54	C	1.790820	0.051442	0.358969
H55	H	1.947903	0.113219	0.433526
H56	H	1.832438	0.160862	0.531734
H57	H	1.889957	-0.002642	0.531727
H58	H	1.772646	0.137373	0.300429
H59	H	1.830180	-0.026141	0.300392
C60	C	0.864473	0.730743	-0.137745
C61	C	0.835418	0.583195	-0.137768
H62	H	0.829880	0.779412	-0.222710
H63	H	0.829861	0.779389	-0.052801
H64	H	0.953388	0.733491	-0.137733
H65	H	0.746503	0.580447	-0.137770
H66	H	0.870025	0.534536	-0.222734
C67	C	1.078346	-0.180954	-0.000046
C68	C	1.151721	-0.060455	-0.000035
H69	H	1.131934	-0.270679	-0.000028
H70	H	1.026657	-0.176947	0.084881
H71	H	1.026699	-0.176965	-0.085017
H72	H	1.203362	-0.064437	0.084941
H73	H	1.203432	-0.064463	-0.084971
H74	H	1.333054	0.397423	0.360836
