data_functionalizedCrystal
_audit_creation_method	'MofGen! by Chris Wilmer'
_symmetry_space_group_name_H-M	'P1'
_symmetry_Int_Tables_number	1
_symmetry_cell_setting	triclinic
loop_
_symmetry_equiv_pos_as_xyz
  x,y,z
_cell_length_a	12.376492
_cell_length_b	13.339070
_cell_length_c	13.339070
_cell_angle_alpha	64.370703
_cell_angle_beta	104.398508
_cell_angle_gamma	104.411817
loop_
_atom_site_label
_atom_site_type_symbol
_atom_site_fract_x
_atom_site_fract_y
_atom_site_fract_z
O1	O	-0.094069	-1.511970	0.535379
O2	O	-0.094057	-1.197158	0.463121
O3	O	-0.094058	-1.318433	0.341846
O4	O	-0.094068	-1.390695	0.656654
O5	O	0.093954	-1.288112	0.372112
O6	O	0.093956	-1.166837	0.493387
O7	O	0.093944	-1.481649	0.565645
Zn8	Zn	0.123801	-1.319429	0.534321
Zn9	Zn	-0.123914	-1.359378	0.494444
O10	O	0.093945	-1.360374	0.686920
C11	C	-0.000049	-1.140882	0.466048
C12	C	-0.000044	-1.018367	0.429665
C13	C	-0.000063	-0.732983	0.712561
C14	C	-0.000071	-0.848093	0.746747
C15	C	-0.000064	-0.890667	0.667480
C16	C	-0.000050	-0.818120	0.554020
C17	C	-0.000050	-0.703000	0.519829
C18	C	-0.000051	-0.860685	0.474748
C19	C	-0.000037	-0.788138	0.361288
C20	C	-0.000037	-0.673029	0.327103
C21	C	-0.000044	-0.630455	0.406370
C22	C	-0.000050	-0.975805	0.508939
C23	C	-0.000038	-0.945822	0.316206
C24	C	-0.000030	-0.830712	0.282020
N25	N	0.292859	-1.292172	0.561538
C26	C	0.647843	-1.449898	0.404027
C27	C	0.529503	-1.468968	0.384976
C28	C	0.470336	-1.424771	0.429115
C29	C	0.529521	-1.361500	0.492308
C30	C	0.647873	-1.342435	0.511368
C31	C	0.470366	-1.317308	0.536456
C32	C	0.529551	-1.254037	0.599650
C33	C	0.647891	-1.234974	0.618706
C34	C	0.707058	-1.279172	0.574567
C35	C	0.352014	-1.336373	0.517396
C36	C	0.352044	-1.228910	0.624737
C37	C	0.470384	-1.209839	0.643788
N38	N	0.707028	-1.386635	0.467226
C39	C	-0.000053	-1.291067	0.315863
C40	C	-0.000056	-1.254684	0.193349
C41	C	-0.000061	-0.537924	0.562718
C42	C	-0.000057	-0.660438	0.599102
C43	C	-0.000066	-1.537584	-0.092040
C44	C	-0.000057	-1.571770	0.023070
C45	C	-0.000057	-1.492502	0.065645
C46	C	-0.000066	-1.379041	-0.006901
C47	C	-0.000066	-1.344850	-0.122021
C48	C	-0.000057	-1.299768	0.035665
C49	C	-0.000066	-1.186307	-0.036881
C50	C	-0.000067	-1.152122	-0.151990
C51	C	-0.000067	-1.231391	-0.194565
C52	C	-0.000057	-1.333958	0.150785
C53	C	-0.000057	-1.141224	0.120804
C54	C	-0.000066	-1.107038	0.005694
C55	C	-0.000063	-1.387741	0.712902
C56	C	-0.000067	-1.424125	0.835415
H57	H	-0.000028	-0.771630	0.189638
H58	H	0.303836	-1.387888	0.465944
O59	O	-0.000237	-0.918463	0.856963
C60	C	-0.097631	-0.915162	0.891529
H61	H	-0.130085	-0.832556	0.834064
H62	H	-0.075744	-0.921388	0.982036
H63	H	-0.165818	-0.988870	0.886441
O64	O	0.000082	-0.996769	-0.064645
C65	C	0.097469	-0.930788	-0.029988
H66	H	0.129937	-0.977768	0.063079
H67	H	0.075567	-0.847333	-0.043290
H68	H	0.165651	-0.913908	-0.081726
H69	H	0.373978	-1.440301	0.413600
H70	H	0.518588	-1.158323	0.695242
H71	H	-0.000051	-1.076676	0.155469
H72	H	-0.000079	-1.203562	-0.288297
H73	H	-0.000049	-1.520343	0.159374
O74	O	0.294408	-1.186013	0.667498
C75	C	0.177263	-1.216429	0.637148
H76	H	0.161098	-1.235576	0.558780
H77	H	0.132301	-1.143932	0.618739
H78	H	0.143664	-1.294372	0.709383
O79	O	-0.000017	-1.614713	-0.133205
C80	C	-0.000047	-1.722194	-0.044502
H81	H	0.035547	-1.712580	0.038894
H82	H	0.054538	-1.770904	-0.058500
H83	H	-0.090247	-1.770009	-0.042173
H84	H	-0.000048	-1.664149	0.082129
H85	H	-0.000078	-0.698309	0.777087
O86	O	0.000019	-0.987342	0.239350
C87	C	-0.000009	-1.104504	0.293852
H88	H	0.035585	-1.127362	0.387067
H89	H	0.054577	-1.129878	0.254090
H90	H	-0.090208	-1.151011	0.284469
H91	H	-0.000038	-0.613966	0.234714
O92	O	0.705507	-1.173412	0.679954
C93	C	0.773961	-1.078109	0.613106
H94	H	0.791688	-1.094884	0.542335
H95	H	0.857182	-1.060189	0.667458
H96	H	0.728370	-1.002190	0.575472
O97	O	0.705197	-1.492748	0.360970
C98	C	0.676320	-1.449019	0.242584
H99	H	0.590397	-1.420575	0.216974
H100	H	0.672272	-1.517044	0.211063
H101	H	0.742936	-1.374081	0.203987
O102	O	0.472073	-1.529998	0.323154
C103	C	0.403917	-1.462863	0.227824
H104	H	0.386028	-1.392316	0.244840
H105	H	0.320759	-1.517071	0.209448
H106	H	0.449850	-1.424917	0.152100
O107	O	-0.000267	-1.041926	-0.222446
C108	C	-0.097625	-1.007356	-0.219085
H109	H	-0.165685	-1.084116	-0.189626
H110	H	-0.130309	-0.946432	-0.306846
H111	H	-0.075610	-0.963565	-0.158066
O112	O	0.000143	-1.444122	0.221322
C113	C	0.097500	-1.453963	0.304497
H114	H	0.165562	-1.377998	0.272261
H115	H	0.130182	-1.534308	0.324312
H116	H	0.075484	-1.457542	0.384171
O117	O	-0.000192	-0.518638	0.373003
C118	C	-0.097578	-0.487666	0.293072
H119	H	-0.130043	-0.550483	0.251274
H120	H	-0.075677	-0.399750	0.226356
H121	H	-0.165763	-0.487719	0.336951
H122	H	-0.000057	-1.034861	0.601319
H123	H	-0.000073	-0.984396	0.695321
H124	H	0.803420	-1.263641	0.590074
