data_functionalizedCrystal
_audit_creation_method	'MofGen! by Chris Wilmer'
_symmetry_space_group_name_H-M	'P1'
_symmetry_Int_Tables_number	1
_symmetry_cell_setting	triclinic
loop_
_symmetry_equiv_pos_as_xyz
  x,y,z
_cell_length_a	15.944551
_cell_length_b	9.065218
_cell_length_c	7.540329
_cell_angle_alpha	89.998243
_cell_angle_beta	90.001531
_cell_angle_gamma	84.257312
loop_
_atom_site_label
_atom_site_type_symbol
_atom_site_fract_x
_atom_site_fract_y
_atom_site_fract_z
O1	O	1.115964	0.190270	-0.147290
O2	O	0.871592	0.213728	-0.147333
O3	O	0.998829	-0.012762	-0.147307
O4	O	0.988727	0.416759	-0.147316
O5	O	0.998821	-0.012764	0.147658
O6	O	0.871584	0.213725	0.147632
O7	O	1.115956	0.190267	0.147675
Cu8	Cu	0.993770	0.201996	0.174586
Cu9	Cu	0.993779	0.201999	-0.174244
O10	O	0.988719	0.416757	0.147649
C11	C	0.997854	-0.067727	0.000172
C12	C	0.994951	-0.231502	0.000163
C13	C	0.840287	0.212753	0.000144
C14	C	0.747019	0.209833	0.000127
C15	C	0.531045	0.062466	0.000164
C16	C	0.470548	0.130900	-0.145270
C17	C	0.576253	0.204551	0.000148
C18	C	0.470563	0.130931	0.145542
C19	C	0.411301	0.199439	0.000176
C20	C	0.516983	0.273024	-0.145407
C21	C	0.517004	0.273035	0.145536
C22	C	0.456525	0.341573	0.000066
C23	C	0.671277	0.207493	0.000130
C24	C	0.316278	0.196509	0.000181
C25	C	1.147261	0.191242	0.000194
C26	C	1.240530	0.194162	0.000199
C27	C	0.989694	0.471722	0.000165
C28	C	0.992597	0.635497	0.000163
N29	N	0.993769	0.201993	0.419935
N30	N	0.993785	0.201991	-0.419593
H31	H	0.449985	0.070804	-0.268223
H32	H	0.537429	0.333077	-0.268495
C33	C	0.574862	-0.096833	-0.000052
H34	H	0.559066	-0.147074	-0.103525
H35	H	0.558319	-0.147845	0.102207
H36	H	0.634248	-0.093844	0.000980
H37	H	0.424261	0.459614	-0.000018
C38	C	0.544821	0.354146	0.311636
H39	H	0.529094	0.303518	0.414877
H40	H	0.518273	0.452739	0.312680
H41	H	0.604270	0.356185	0.309845
C42	C	0.442810	0.049720	0.311640
H43	H	0.468575	-0.049419	0.311449
H44	H	0.383262	0.049233	0.311028
H45	H	0.459491	0.099228	0.414917
