data_functionalizedCrystal
_audit_creation_method	'MofGen! by Chris Wilmer'
_symmetry_space_group_name_H-M	'P1'
_symmetry_Int_Tables_number	1
_symmetry_cell_setting	triclinic
loop_
_symmetry_equiv_pos_as_xyz
  x,y,z
_cell_length_a	11.792241
_cell_length_b	10.268362
_cell_length_c	11.792254
_cell_angle_alpha	89.994545
_cell_angle_beta	95.803993
_cell_angle_gamma	89.999728
loop_
_atom_site_label
_atom_site_type_symbol
_atom_site_fract_x
_atom_site_fract_y
_atom_site_fract_z
O1	O	-1.506916	-0.108155	0.155568
O2	O	-1.006916	0.391845	0.655568
O3	O	-1.176576	-0.108190	0.171601
O4	O	-0.676576	0.391810	0.671601
O5	O	-1.349755	-0.108162	-0.001585
O6	O	-0.849755	0.391838	0.498415
O7	O	-1.333737	-0.108182	0.328754
O8	O	-0.833737	0.391818	0.828754
O9	O	-1.349739	0.108438	-0.001593
O10	O	-0.849739	0.608438	0.498407
O11	O	-1.176560	0.108411	0.171593
O12	O	-0.676560	0.608411	0.671593
O13	O	-1.506901	0.108446	0.155561
O14	O	-1.006901	0.608446	0.655561
Cu15	Cu	-1.341729	0.128206	0.163576
Cu16	Cu	-0.841729	0.628206	0.663576
Cu17	Cu	-1.341747	-0.127950	0.163585
Cu18	Cu	-0.841747	0.372050	0.663585
O19	O	-1.333722	0.108418	0.328747
O20	O	-0.833722	0.608418	0.828747
C21	C	-1.134277	0.000106	0.170590
C22	C	-0.634277	0.500106	0.670590
C23	C	-1.008263	0.000093	0.167576
C24	C	-0.508263	0.500093	0.667576
N25	N	-1.341725	0.308372	0.163570
N26	N	-0.841725	0.808372	0.663570
C27	C	-0.777551	0.000128	0.162033
C28	C	-0.277551	0.500128	0.662033
C29	C	-0.905936	0.000109	0.165112
C30	C	-0.405936	0.500109	0.665112
C31	C	-1.348738	0.000138	-0.043880
C32	C	-0.848738	0.500138	0.456120
C33	C	-1.345718	0.000136	-0.169893
C34	C	-0.845718	0.500136	0.330107
C35	C	-0.549199	0.000144	0.156571
C36	C	-0.049199	0.500144	0.656571
C37	C	-0.675213	0.000138	0.159586
C38	C	-0.175213	0.500138	0.659586
N39	N	-1.341760	-0.308115	0.163583
N40	N	-0.841760	0.191885	0.663583
C41	C	-1.341741	0.574042	0.163583
C42	C	-0.841741	1.074042	0.663583
C43	C	-1.341728	0.426204	0.163579
C44	C	-0.841728	0.926204	0.663579
C45	C	-1.343264	0.000131	-0.272229
C46	C	-0.843264	0.500131	0.227771
C47	C	-1.340196	0.000119	-0.400616
C48	C	-0.840196	0.500119	0.099384
C49	C	-1.334738	0.000116	0.371041
C50	C	-0.834738	0.500116	0.871041
C51	C	-1.337758	0.000109	0.497054
C52	C	-0.837758	0.500109	0.997054
