data_functionalizedCrystal
_audit_creation_method	'MofGen! by Chris Wilmer'
_symmetry_space_group_name_H-M	'P1'
_symmetry_Int_Tables_number	1
_symmetry_cell_setting	triclinic
loop_
_symmetry_equiv_pos_as_xyz
  x,y,z
_cell_length_a	21.295417
_cell_length_b	12.827893
_cell_length_c	12.827885
_cell_angle_alpha	90.019272
_cell_angle_beta	90.038290
_cell_angle_gamma	90.030477
loop_
_atom_site_label
_atom_site_type_symbol
_atom_site_fract_x
_atom_site_fract_y
_atom_site_fract_z
Zn1	Zn	-0.250578	1.597560	0.590788
Zn2	Zn	0.249422	2.097560	1.090788
Zn3	Zn	-0.355860	1.597408	0.416023
Zn4	Zn	0.144140	2.097408	0.916023
Zn5	Zn	-0.250609	1.422801	0.416062
Zn6	Zn	0.249391	1.922801	0.916062
Zn7	Zn	-0.355813	1.422740	0.590723
Zn8	Zn	0.144187	1.922740	1.090723
O9	O	-0.303215	1.510127	0.503399
O10	O	0.196785	2.010127	1.003399
O11	O	-0.264551	1.743776	0.567616
O12	O	0.235449	2.243776	1.067616
O13	O	-0.341931	1.574208	0.269792
O14	O	0.158069	2.074208	0.769792
O15	O	-0.162516	1.446072	0.439283
O16	O	0.337484	1.946072	0.939283
O17	O	-0.341901	1.743664	0.439217
O18	O	0.158099	2.243664	0.939217
O19	O	-0.162493	1.574467	0.567654
O20	O	0.337507	2.074467	1.067654
O21	O	-0.264604	1.445925	0.269821
O22	O	0.235396	1.945925	0.769821
O23	O	-0.264558	1.276557	0.439220
O24	O	0.235442	1.776557	0.939220
O25	O	-0.341821	1.445969	0.736968
O26	O	0.158179	1.945969	1.236968
O27	O	-0.341851	1.276512	0.567543
O28	O	0.158149	1.776512	1.067543
O29	O	-0.264505	1.574408	0.737016
O30	O	0.235495	2.074408	1.237016
O31	O	-0.443944	1.574149	0.439154
O32	O	0.056056	2.074149	0.939154
O33	O	-0.443909	1.445821	0.567505
O34	O	0.056091	1.945821	1.067505
C35	C	-0.303203	1.238617	0.503379
C36	C	0.196797	1.738617	1.003379
C37	C	-0.303213	1.122464	0.503396
C38	C	0.196787	1.622464	1.003396
C39	C	-0.341520	1.070685	0.566796
C40	C	0.158480	1.570685	1.066796
C41	C	-0.341531	0.950635	0.566814
C42	C	0.158469	1.450635	1.066814
C43	C	-0.466767	1.509990	0.503341
C44	C	0.033233	2.009990	1.003341
C45	C	-0.536735	1.510027	0.503351
C46	C	-0.036735	2.010027	1.003351
C47	C	-0.569599	1.576907	0.436587
C48	C	-0.069599	2.076907	0.936587
C49	C	-0.635341	1.576956	0.436611
C50	C	-0.135341	2.076956	0.936611
C51	C	-0.668217	1.510107	0.503387
C52	C	-0.168217	2.010107	1.003387
C53	C	-0.635346	1.443222	0.570165
C54	C	-0.135346	1.943222	1.070165
C55	C	-0.569604	1.443183	0.570147
C56	C	-0.069604	1.943183	1.070147
N57	N	-0.771483	1.418690	0.511347
N58	N	-0.271483	1.918690	1.011347
N59	N	-0.833934	1.418731	0.511358
N60	N	-0.333934	1.918731	1.011358
C61	C	-0.866292	1.510224	0.503447
C62	C	-0.366292	2.010224	1.003447
N63	N	-0.833839	1.601676	0.495504
N64	N	-0.333839	2.101676	0.995504
N65	N	-0.771382	1.601635	0.495488
N66	N	-0.271382	2.101635	0.995488
C67	C	-0.739503	1.510143	0.503415
C68	C	-0.239503	2.010143	1.003415
C69	C	-0.970441	1.577162	0.436705
C70	C	-0.470441	2.077162	0.936705
C71	C	-1.036185	1.577213	0.436736
C72	C	-0.536185	2.077213	0.936736
C73	C	-1.036188	1.443470	0.570284
C74	C	-0.536188	1.943470	1.070284
C75	C	-0.970446	1.443429	0.570259
C76	C	-0.470446	1.943429	1.070259
C77	C	-0.937576	1.510273	0.503464
C78	C	-0.437576	2.010273	1.003464
C79	C	-0.139025	1.510293	0.503480
C80	C	0.360975	2.010293	1.003480
C81	C	-0.069057	1.510364	0.503515
C82	C	0.430943	2.010364	1.003515
C83	C	-0.303154	1.510198	0.775969
C84	C	0.196846	2.010198	1.275969
C85	C	-0.303128	1.510229	0.892123
C86	C	0.196872	2.010229	1.392123
C87	C	-0.303228	1.782697	0.503420
C88	C	0.196772	2.282697	1.003420
C89	C	-0.303233	1.898851	0.503428
C90	C	0.196767	2.398851	1.003428
C91	C	-0.303231	1.510117	0.231889
C92	C	0.196769	2.010117	0.731889
C93	C	-0.303079	1.510289	0.115737
C94	C	0.196921	2.010289	0.615737
C95	C	-0.341377	1.573714	0.943893
C96	C	0.158623	2.073714	1.443893
C97	C	-0.341351	1.573747	1.063944
C98	C	0.158649	2.073747	1.563944
H99	H	-0.374329	0.906106	0.621090
H100	H	0.125671	1.406106	1.121090
Cl101	Cl	-0.391961	1.657606	0.875114
Cl102	Cl	0.108039	2.157606	1.375114
Cl103	Cl	-0.252585	1.053697	0.419615
Cl104	Cl	0.247415	1.553697	0.919615
H105	H	-1.062955	1.389045	0.624660
H106	H	-0.562955	1.889045	1.124660
H107	H	-0.542846	1.388721	0.624515
H108	H	-0.042846	1.888721	1.124515
H109	H	-0.374305	1.115232	0.621065
H110	H	0.125695	1.615232	1.121065
Cl111	Cl	-0.929117	1.661192	0.352736
Cl112	Cl	-0.429117	2.161192	0.852736
H113	H	-0.542838	1.631338	0.382202
H114	H	-0.042838	2.131338	0.882202
Cl115	Cl	-0.929129	1.359342	0.654191
Cl116	Cl	-0.429129	1.859342	1.154191
Cl117	Cl	-1.077500	1.661305	0.352804
Cl118	Cl	-0.577500	2.161305	0.852804
H119	H	-0.374098	1.628098	1.108465
H120	H	0.125902	2.128098	1.608465
Cl121	Cl	-0.252521	1.426360	1.047011
Cl122	Cl	0.247479	1.926360	1.547011
Cl123	Cl	-0.676675	1.359188	0.654117
Cl124	Cl	-0.176675	1.859188	1.154117
Cl125	Cl	-0.252598	0.967587	0.419612
Cl126	Cl	0.247402	1.467587	0.919612
Cl127	Cl	-0.676664	1.661037	0.352671
Cl128	Cl	-0.176664	2.161037	0.852671
H129	H	-0.270360	1.455906	0.936677
H130	H	0.229640	1.955906	1.436677
