data_functionalizedCrystal
_audit_creation_method	'MofGen! by Chris Wilmer'
_symmetry_space_group_name_H-M	'P1'
_symmetry_Int_Tables_number	1
_symmetry_cell_setting	triclinic
loop_
_symmetry_equiv_pos_as_xyz
  x,y,z
_cell_length_a	12.759395
_cell_length_b	18.101397
_cell_length_c	12.759387
_cell_angle_alpha	89.962982
_cell_angle_beta	89.978972
_cell_angle_gamma	90.021227
loop_
_atom_site_label
_atom_site_type_symbol
_atom_site_fract_x
_atom_site_fract_y
_atom_site_fract_z
Zn1	Zn	1.606227	-0.294775	-0.593974
Zn2	Zn	2.106227	0.205225	-0.093974
Zn3	Zn	1.606100	-0.418636	-0.418276
Zn4	Zn	2.106100	0.081364	0.081724
Zn5	Zn	1.430525	-0.294814	-0.418310
Zn6	Zn	1.930525	0.205186	0.081690
Zn7	Zn	1.430499	-0.418581	-0.593913
Zn8	Zn	1.930499	0.081419	-0.093913
O9	O	1.518338	-0.356702	-0.506118
O10	O	2.018338	0.143298	-0.006118
O11	O	1.753231	-0.311212	-0.570679
O12	O	2.253231	0.188788	-0.070679
O13	O	1.582767	-0.402249	-0.271259
O14	O	2.082767	0.097751	0.228741
O15	O	1.453896	-0.191176	-0.441652
O16	O	1.953896	0.308824	0.058348
O17	O	1.753137	-0.402212	-0.441594
O18	O	2.253137	0.097788	0.058406
O19	O	1.582983	-0.191148	-0.570712
O20	O	2.082983	0.308852	-0.070712
O21	O	1.453773	-0.311278	-0.271284
O22	O	1.953773	0.188722	0.228716
O23	O	1.283500	-0.311226	-0.441592
O24	O	1.783500	0.188774	0.058408
O25	O	1.453853	-0.402119	-0.740942
O26	O	1.953853	0.097881	-0.240942
O27	O	1.283482	-0.402157	-0.570608
O28	O	1.783482	0.097843	-0.070608
O29	O	1.582959	-0.311160	-0.740987
O30	O	2.082959	0.188840	-0.240987
O31	O	1.582742	-0.522261	-0.441535
O32	O	2.082742	-0.022261	0.058465
O33	O	1.453729	-0.522221	-0.570575
O34	O	1.953729	-0.022221	-0.070575
C35	C	1.245370	-0.356690	-0.506098
C36	C	1.745370	0.143310	-0.006098
C37	C	1.128593	-0.356703	-0.506114
C38	C	1.628593	0.143297	-0.006114
C39	C	0.909256	-0.262114	-0.640782
C40	C	1.409256	0.237886	-0.140782
C41	C	0.964171	-0.214804	-0.708086
C42	C	1.464171	0.285196	-0.208086
C43	C	1.073892	-0.214792	-0.708068
C44	C	1.573892	0.285208	-0.208068
C45	C	1.128701	-0.262096	-0.640740
C46	C	1.628701	0.237904	-0.140740
C47	C	1.073787	-0.309406	-0.573436
C48	C	1.573787	0.190594	-0.073436
C49	C	0.964063	-0.309412	-0.573460
C50	C	1.464063	0.190588	-0.073460
C51	C	1.073679	-0.404013	-0.438810
C52	C	1.573679	0.095987	0.061190
C53	C	0.963957	-0.404023	-0.438821
C54	C	1.463957	0.095977	0.061179
C55	C	1.128488	-0.451317	-0.371482
C56	C	1.628488	0.048683	0.128518
C57	C	1.073573	-0.498624	-0.304171
C58	C	1.573573	0.001376	0.195829
C59	C	0.963845	-0.498634	-0.304191
C60	C	1.463845	0.001366	0.195809
C61	C	0.909042	-0.451333	-0.371517
C62	C	1.409042	0.048667	0.128483
C63	C	1.518248	-0.549112	-0.506067
C64	C	2.018248	-0.049112	-0.006067
C65	C	1.518305	-0.631426	-0.506081
C66	C	2.018305	-0.131426	-0.006081
C67	C	1.518439	-0.930517	-0.506176
C68	C	2.018439	-0.430517	-0.006176
C69	C	1.599384	-0.899186	-0.424770
C70	C	2.099384	-0.399186	0.075230
C71	C	1.599665	-0.813568	-0.424981
C72	C	2.099665	-0.313568	0.075019
C73	C	1.518373	-0.782135	-0.506128
C74	C	2.018373	-0.282135	-0.006128
C75	C	1.548394	-0.813133	-0.616869
C76	C	2.048394	-0.313133	-0.116869
C77	C	1.549020	-0.898778	-0.616426
C78	C	2.049020	-0.398778	-0.116426
C79	C	1.407258	-0.899029	-0.477799
C80	C	1.907258	-0.399029	0.022201
C81	C	1.407807	-0.813380	-0.475327
C82	C	1.907807	-0.313380	0.024673
C83	C	1.518334	-0.698275	-0.506107
C84	C	2.018334	-0.198275	-0.006107
C85	C	1.518481	-1.014377	-0.506204
C86	C	2.018481	-0.514377	-0.006204
C87	C	1.792371	-0.356714	-0.506139
C88	C	2.292371	0.143286	-0.006139
C89	C	1.909148	-0.356719	-0.506148
C90	C	2.409148	0.143281	-0.006148
C91	C	1.518417	-0.356629	-0.780152
C92	C	2.018417	0.143371	-0.280152
C93	C	1.518451	-0.356598	-0.896929
C94	C	2.018451	0.143402	-0.396929
C95	C	1.518456	-0.163540	-0.506192
C96	C	2.018456	0.336460	-0.006192
C97	C	1.518507	-0.081226	-0.506224
C98	C	2.018507	0.418774	-0.006224
C99	C	1.652898	-0.261888	-0.896995
C100	C	2.152898	0.238112	-0.396995
C101	C	1.720136	-0.214522	-0.951889
C102	C	2.220136	0.285478	-0.451889
C103	C	1.720162	-0.214495	-1.061611
C104	C	2.220162	0.285505	-0.561611
C105	C	1.652940	-0.261838	-1.116441
C106	C	2.152940	0.238162	-0.616441
C107	C	1.585701	-0.309204	-1.061547
C108	C	2.085701	0.190796	-0.561547
C109	C	1.585685	-0.309227	-0.951823
C110	C	2.085685	0.190773	-0.451823
C111	C	1.451251	-0.403909	-1.061480
C112	C	1.951251	0.096091	-0.561480
C113	C	1.451229	-0.403941	-0.951759
C114	C	1.951229	0.096059	-0.451759
C115	C	1.384028	-0.451252	-1.116310
C116	C	1.884028	0.048748	-0.616310
C117	C	1.316794	-0.498623	-1.061416
C118	C	1.816794	0.001377	-0.561416
C119	C	1.316772	-0.498648	-0.951688
C120	C	1.816772	0.001352	-0.451688
C121	C	1.383990	-0.451307	-0.896865
C122	C	1.883990	0.048693	-0.396865
C123	C	1.518319	-0.356721	-0.233151
C124	C	2.018319	0.143279	0.266849
C125	C	1.518489	-0.356543	-0.116374
C126	C	2.018489	0.143457	0.383626
H127	H	0.919533	-0.176292	-0.762905
H128	H	1.419533	0.323708	-0.262905
H129	H	1.652958	-0.261805	-1.205782
H130	H	2.152958	0.238195	-0.705782
H131	H	1.774865	-0.175975	-0.907234
H132	H	2.274865	0.324025	-0.407234
H133	H	1.118207	-0.537139	-0.249364
H134	H	1.618207	-0.037139	0.250636
H135	H	1.379948	-0.920697	-0.398447
H136	H	1.879948	-0.420697	0.101553
H137	H	1.384050	-0.451223	-1.205652
H138	H	1.884050	0.048777	-0.705652
H139	H	1.217829	-0.451308	-0.371478
H140	H	1.717829	0.048692	0.128522
H141	H	1.491240	-0.792769	-0.679154
H142	H	1.991240	-0.292769	-0.179154
H143	H	0.919140	-0.537163	-0.249388
H144	H	1.419140	-0.037163	0.250612
H145	H	0.819701	-0.451328	-0.371527
H146	H	1.319701	0.048672	0.128473
H147	H	1.580882	-0.792613	-0.342868
H148	H	2.080882	-0.292613	0.157132
H149	H	1.262062	-0.537161	-1.106068
H150	H	1.762062	-0.037161	-0.606068
H151	H	1.580828	-0.919836	-0.342411
H152	H	2.080828	-0.419836	0.157589
H153	H	1.630289	-0.918694	-0.640464
H154	H	2.130289	-0.418694	-0.140464
H155	H	1.652894	-0.261912	-0.807654
H156	H	2.152894	0.238088	-0.307654
H157	H	1.492646	-0.919500	-0.679170
H158	H	1.992646	-0.419500	-0.179170
H159	H	1.681291	-0.920652	-0.443330
H160	H	2.181291	-0.420652	0.056670
H161	H	1.774906	-0.175921	-1.106305
H162	H	2.274906	0.324079	-0.606305
H163	H	0.819915	-0.262104	-0.640781
H164	H	1.319915	0.237896	-0.140781
H165	H	1.628753	-0.791623	-0.641314
H166	H	2.128753	-0.291623	-0.141314
H167	H	1.262007	-0.537212	-0.907000
H168	H	1.762007	-0.037212	-0.407000
H169	H	1.682022	-0.793022	-0.443756
H170	H	2.182022	-0.293022	0.056244
H171	H	1.344252	-0.791991	-0.530278
H172	H	1.844252	-0.291991	-0.030278
H173	H	1.385170	-0.793128	-0.393831
H174	H	1.885170	-0.293128	0.106169
H175	H	1.118604	-0.176269	-0.762874
H176	H	1.618604	0.323731	-0.262874
H177	H	1.218043	-0.262088	-0.640741
H178	H	1.718043	0.237912	-0.140741
H179	H	1.346948	-0.919291	-0.537091
H180	H	1.846948	-0.419291	-0.037091
H181	H	1.383983	-0.451326	-0.807523
H182	H	1.883983	0.048674	-0.307523
