data_functionalizedCrystal
_audit_creation_method	'MofGen! by Chris Wilmer'
_symmetry_space_group_name_H-M	'P1'
_symmetry_Int_Tables_number	1
_symmetry_cell_setting	triclinic
loop_
_symmetry_equiv_pos_as_xyz
  x,y,z
_cell_length_a	23.096457
_cell_length_b	23.096457
_cell_length_c	23.096457
_cell_angle_alpha	90.011518
_cell_angle_beta	60.007119
_cell_angle_gamma	60.004020
loop_
_atom_site_label
_atom_site_type_symbol
_atom_site_fract_x
_atom_site_fract_y
_atom_site_fract_z
Zr1	Zr	0.633718	0.557810	-0.075980
O2	O	0.754500	0.465352	-0.168422
O3	O	0.512937	0.586145	-0.047644
O4	O	0.633720	0.586129	-0.168431
O5	O	0.633715	0.465391	0.047646
O6	O	0.633722	0.681409	-0.168434
O7	O	0.633716	0.465368	-0.047636
O8	O	0.417662	0.681439	0.047631
O9	O	0.849775	0.465361	-0.168419
O10	O	0.562617	0.669347	-0.035559
O11	O	0.562615	0.598257	0.035552
O12	O	0.704822	0.598237	-0.106659
O13	O	0.704820	0.527148	-0.035548
Zr14	Zr	0.633718	0.709808	0.075978
Zr15	Zr	0.633721	0.709771	-0.075985
Zr16	Zr	0.633716	0.557846	0.075984
Zr17	Zr	0.785670	0.557825	-0.075975
Zr18	Zr	0.481766	0.709792	0.075973
O19	O	0.754500	0.681472	0.047643
O20	O	0.754504	0.681421	-0.168430
O21	O	0.754496	0.465403	0.047651
O22	O	0.512937	0.802266	0.168421
O23	O	0.512940	0.802214	-0.047652
O24	O	0.512933	0.586197	0.168429
O25	O	0.633722	0.802227	-0.047648
O26	O	0.633716	0.681489	0.168429
O27	O	0.633715	0.586209	0.168433
O28	O	0.633720	0.802249	0.047634
O29	O	0.849777	0.586150	-0.168423
O30	O	0.417660	0.681467	0.168422
O31	O	0.417662	0.802256	0.168417
O32	O	0.417664	0.802228	0.047626
O33	O	0.849773	0.465390	-0.047628
O34	O	0.849775	0.586179	-0.047632
O35	O	0.562615	0.669380	0.106657
O36	O	0.562617	0.740470	0.035547
O37	O	0.704822	0.669361	-0.035554
O38	O	0.704820	0.598271	0.035557
C39	C	0.443649	0.633790	-0.000008
C40	C	0.379142	0.633783	-0.000010
C41	C	0.633715	0.443729	0.000006
C42	C	0.633714	0.379217	0.000009
C43	C	0.296356	0.686287	0.052475
C44	C	0.235734	0.686292	0.052482
C45	C	0.257903	0.633798	-0.000007
C46	C	0.340703	0.581285	-0.052497
C47	C	0.401322	0.581278	-0.052498
N48	N	0.201794	0.617905	-0.062253
N49	N	0.144205	0.617917	-0.062250
C50	C	0.075264	0.633817	-0.000006
N51	N	0.066080	0.649719	0.062237
N52	N	0.123673	0.649711	0.062233
C53	C	0.192178	0.633800	-0.000012
C54	C	-0.073258	0.686329	0.052490
C55	C	-0.133879	0.686329	0.052497
C56	C	-0.028908	0.581325	-0.052487
C57	C	0.031710	0.581322	-0.052489
C58	C	0.009530	0.633828	-0.000000
C59	C	0.559487	0.386030	0.037115
C60	C	0.559486	0.325414	0.037118
C61	C	0.633716	0.257986	0.000001
C62	C	0.707953	0.251176	-0.037108
C63	C	0.707952	0.311792	-0.037104
N64	N	0.688970	0.135182	-0.060408
N65	N	0.688966	0.077602	-0.060411
C66	C	0.633723	0.075354	-0.000012
N67	N	0.578472	0.132866	0.060389
N68	N	0.578474	0.190452	0.060390
C69	C	0.633725	0.192255	-0.000007
C70	C	0.559490	0.016443	0.037102
C71	C	0.559491	-0.044175	0.037107
C72	C	0.707961	-0.118413	-0.037126
C73	C	0.707957	-0.057795	-0.037124
C74	C	0.633719	0.009630	-0.000012
C75	C	0.823787	0.633828	0.000006
C76	C	0.888295	0.633834	0.000008
C77	C	0.633721	0.633764	-0.190084
C78	C	0.633723	0.633748	-0.254597
C79	C	0.633721	0.823889	-0.000008
C80	C	0.633723	0.888401	-0.000010
C81	C	0.707950	0.596634	-0.322014
C82	C	0.707951	0.596652	-0.382631
C83	C	0.633721	0.633775	-0.375826
C84	C	0.559484	0.670898	-0.308396
C85	C	0.559485	0.670885	-0.247782
N86	N	0.578466	0.628647	-0.443383
N87	N	0.578471	0.628656	-0.500967
C88	C	0.633713	0.633818	-0.558451
N89	N	0.688964	0.638958	-0.556183
N90	N	0.688962	0.638946	-0.498595
C91	C	0.633711	0.633794	-0.441548
C92	C	0.707947	0.596722	-0.691598
C93	C	0.707945	0.596745	-0.752214
C94	C	0.559476	0.670986	-0.677978
C95	C	0.559480	0.670968	-0.617364
C96	C	0.633718	0.633832	-0.624179
C97	C	0.633715	0.633854	0.190083
C98	C	0.633714	0.633869	0.254595
C99	C	0.443652	0.823870	-0.000014
C100	C	0.379146	0.888375	-0.000019
C101	C	0.443646	0.633835	0.190076
C102	C	0.379137	0.633844	0.254586
C103	C	0.443649	0.823915	0.190069
C104	C	0.379142	0.888436	0.254577
C105	C	0.823787	0.443702	-0.190071
C106	C	0.888295	0.379182	-0.254579
C107	C	0.823784	0.443748	0.000013
C108	C	0.888291	0.379243	0.000018
C109	C	0.823790	0.633783	-0.190078
C110	C	0.888299	0.633774	-0.254588
C111	C	0.348853	0.881542	-0.037144
C112	C	0.288250	0.942145	-0.037162
C113	C	0.257938	1.009581	-0.000052
C114	C	0.288237	1.016414	0.037074
C115	C	0.348842	0.955811	0.037088
C116	C	0.348843	0.670974	0.322004
C117	C	0.288239	0.670979	0.382624
C118	C	0.257926	0.633859	0.375825
C119	C	0.288225	0.596724	0.308401
C120	C	0.348833	0.596715	0.247782
C121	C	0.348849	0.955850	0.247752
C122	C	0.288246	1.016479	0.308358
C123	C	0.257932	1.009693	0.375789
C124	C	0.288230	0.942272	0.382613
C125	C	0.348836	0.881644	0.322007
C126	C	0.918595	0.311768	-0.247753
C127	C	0.979217	0.251139	-0.308360
C128	C	1.009534	0.257925	-0.375790
C129	C	0.979232	0.325346	-0.382614
C130	C	0.918615	0.385974	-0.322009
C131	C	0.918590	0.386076	0.037136
C132	C	0.979209	0.325473	0.037138
C133	C	1.009524	0.258036	0.000025
C134	C	0.979222	0.251204	-0.037098
C135	C	0.918608	0.311807	-0.037104
C136	C	0.918593	0.670902	-0.247766
C137	C	0.979198	0.670907	-0.308375
C138	C	1.009512	0.633780	-0.375804
C139	C	0.979212	0.596651	-0.382624
C140	C	0.918604	0.596651	-0.322017
H141	H	0.278289	0.729041	0.095216
H142	H	0.893913	0.306229	-0.192853
H143	H	0.893912	0.440981	0.067362
Cl144	Cl	0.466164	0.333974	0.083767
Cl145	Cl	1.017337	0.549973	-0.467398
Cl146	Cl	0.250117	1.101196	0.083728
H147	H	0.208588	1.058922	-0.000068
H148	H	0.263576	0.701221	0.437518
Cl149	Cl	0.386951	0.796772	-0.083807
H150	H	0.893940	0.306233	-0.067328
Cl151	Cl	-0.237958	0.752336	0.118490
Cl152	Cl	0.250169	0.933540	-0.083835
Cl153	Cl	0.386906	0.796897	0.330600
Cl154	Cl	1.017295	0.166390	-0.299765
Cl155	Cl	0.181738	1.085919	0.451973
H156	H	0.499045	0.701125	-0.302859
H157	H	0.358749	0.538544	-0.095234
H158	H	-0.010856	0.538583	-0.095224
Cl159	Cl	0.505402	0.515268	-0.118485
H160	H	0.373499	0.961385	0.067324
H161	H	0.373518	0.701202	0.327553
Cl162	Cl	0.466160	0.717614	-0.532606
H163	H	1.003871	0.331049	0.067370
Cl164	Cl	0.801277	-0.066360	-0.083780
Cl165	Cl	1.017337	0.166421	-0.083748
Cl166	Cl	1.017351	0.333865	-0.467390
Cl167	Cl	0.880496	0.717583	-0.163005
H168	H	0.208575	0.633872	0.425190
Cl169	Cl	0.250107	0.550063	0.299866
Cl170	Cl	0.466156	0.717665	-0.669416
H171	H	-0.091319	0.729079	0.095233
Cl172	Cl	1.017282	0.717582	-0.299785
Cl173	Cl	0.801271	0.166411	-0.083766
Cl174	Cl	0.250111	0.933753	0.467389
H175	H	0.373490	0.566482	0.192890
Cl176	Cl	0.880526	0.470720	-0.330602
Cl177	Cl	0.466162	0.717542	-0.163023
H178	H	0.373522	0.961388	0.192851
Cl179	Cl	0.801274	0.303225	-0.083757
Cl180	Cl	1.085738	0.181698	-0.451975
H181	H	0.099120	0.538572	-0.095231
Cl182	Cl	1.085723	0.181856	0.000041
Cl183	Cl	0.131648	0.752304	0.118466
H184	H	0.263583	1.071371	0.302789
H185	H	0.499036	0.440927	0.067331
H186	H	0.768396	0.566484	-0.697148
Cl187	Cl	0.466164	0.101208	0.083760
H188	H	1.058863	0.633787	-0.425149
Cl189	Cl	0.880535	0.549963	-0.330605
H190	H	0.768392	0.566524	-0.807110
Cl191	Cl	0.466168	-0.035607	0.083768
Cl192	Cl	0.801277	0.549933	-0.330585
Cl193	Cl	0.801280	-0.203174	-0.083783
H194	H	0.768398	0.566427	-0.437532
