data_functionalizedCrystal
_audit_creation_method	'MofGen! by Chris Wilmer'
_symmetry_space_group_name_H-M	'P1'
_symmetry_Int_Tables_number	1
_symmetry_cell_setting	triclinic
loop_
_symmetry_equiv_pos_as_xyz
  x,y,z
_cell_length_a	19.077236
_cell_length_b	19.077068
_cell_length_c	19.076919
_cell_angle_alpha	94.470751
_cell_angle_beta	90.112677
_cell_angle_gamma	85.291395
loop_
_atom_site_label
_atom_site_type_symbol
_atom_site_fract_x
_atom_site_fract_y
_atom_site_fract_z
Zn1	Zn	-1.047584	-0.256314	-0.450390
Zn2	Zn	-0.547584	0.243686	0.049610
Zn3	Zn	-1.047497	-0.369471	-0.337231
Zn4	Zn	-0.547497	0.130529	0.162769
Zn5	Zn	-0.934815	-0.255944	-0.328156
Zn6	Zn	-0.434815	0.244056	0.171844
Zn7	Zn	-0.924923	-0.378891	-0.450332
Zn8	Zn	-0.424923	0.121109	0.049668
O9	O	-0.988705	-0.315155	-0.391527
O10	O	-0.488705	0.184845	0.108473
O11	O	-1.146064	-0.267537	-0.439202
O12	O	-0.646064	0.232463	0.060798
O13	O	-1.036653	-0.350314	-0.237539
O14	O	-0.536653	0.149686	0.262461
O15	O	-0.953950	-0.157183	-0.340597
O16	O	-0.453950	0.342817	0.159403
O17	O	-1.146000	-0.350673	-0.356065
O18	O	-0.646000	0.149327	0.143935
O19	O	-1.036801	-0.157455	-0.430402
O20	O	-0.536801	0.342545	0.069598
O21	O	-0.953866	-0.266906	-0.230872
O22	O	-0.453866	0.233094	0.269128
O23	O	-0.835011	-0.276041	-0.340540
O24	O	-0.335011	0.223959	0.159460
O25	O	-0.937090	-0.366728	-0.548828
O26	O	-0.437090	0.133272	-0.048828
O27	O	-0.827743	-0.366369	-0.430302
O28	O	-0.327743	0.133631	0.069698
O29	O	-1.027209	-0.276672	-0.548871
O30	O	-0.527209	0.223328	-0.048871
O31	O	-1.027061	-0.469531	-0.356008
O32	O	-0.527061	0.030469	0.143992
O33	O	-0.937006	-0.476452	-0.439102
O34	O	-0.437006	0.023548	0.060898
C35	C	-0.805839	-0.322188	-0.384430
C36	C	-0.305839	0.177812	0.115570
C37	C	-0.727607	-0.325214	-0.381412
C38	C	-0.227607	0.174786	0.118588
C39	C	-0.980969	-0.498612	-0.398550
C40	C	-0.480969	0.001388	0.101450
C41	C	-0.977723	-0.577094	-0.401580
C42	C	-0.477723	-0.077094	0.098420
C43	C	-1.172284	-0.308096	-0.398652
C44	C	-0.672284	0.191904	0.101348
C45	C	-1.250515	-0.305088	-0.401689
C46	C	-0.750515	0.194912	0.098311
C47	C	-0.981056	-0.322792	-0.575100
C48	C	-0.481056	0.177208	-0.075100
C49	C	-0.977797	-0.326047	-0.653328
C50	C	-0.477797	0.173953	-0.153328
C51	C	-0.690881	-0.283426	-0.423350
C52	C	-0.190881	0.216574	0.076650
C53	C	-0.617374	-0.286266	-0.420507
C54	C	-0.117374	0.213734	0.079493
C55	C	-0.580594	-0.330898	-0.375730
C56	C	-0.080594	0.169102	0.124270
C57	C	-0.617325	-0.372687	-0.333787
C58	C	-0.117325	0.127313	0.166213
C59	C	-0.690831	-0.369843	-0.336626
C60	C	-0.190831	0.130157	0.163374
C61	C	-0.360752	-0.344033	-0.362585
C62	C	0.139248	0.155967	0.137415
C63	C	-0.287240	-0.346876	-0.359750
C64	C	0.212760	0.153124	0.140250
C65	C	-0.287295	-0.260453	-0.446471
C66	C	0.212705	0.239547	0.053529
C67	C	-0.360802	-0.257616	-0.449309
C68	C	0.139198	0.242384	0.050691
C69	C	-0.397527	-0.299403	-0.407363
C70	C	0.102473	0.200597	0.092637
N71	N	-0.505458	-0.333803	-0.372825
N72	N	-0.005458	0.166197	0.127175
N73	N	-0.472662	-0.296493	-0.410265
N74	N	0.027338	0.203507	0.089735
C75	C	-1.023118	-0.610338	-0.359779
C76	C	-0.523118	-0.110338	0.140221
C77	C	-1.020069	-0.684080	-0.362634
C78	C	-0.520069	-0.184080	0.137366
C79	C	-0.971621	-0.724577	-0.407285
C80	C	-0.471621	-0.224577	0.092715
C81	C	-0.926224	-0.691328	-0.449090
C82	C	-0.426224	-0.191328	0.050910
C83	C	-0.929277	-0.617587	-0.446239
C84	C	-0.429277	-0.117587	0.053761
C85	C	-0.957462	-0.945508	-0.420451
C86	C	-0.457462	-0.445508	0.079549
C87	C	-0.954411	-1.019254	-0.423297
C88	C	-0.454411	-0.519254	0.076703
C89	C	-1.048258	-1.012002	-0.336841
C90	C	-0.548258	-0.512002	0.163159
C91	C	-1.051303	-0.938260	-0.333991
C92	C	-0.551303	-0.438260	0.166009
C93	C	-1.005909	-0.905017	-0.375798
C94	C	-0.505909	-0.405017	0.124202
N95	N	-0.968502	-0.799954	-0.410202
N96	N	-0.468502	-0.299954	0.089798
N97	N	-1.009032	-0.829642	-0.372885
N98	N	-0.509032	-0.329642	0.127115
C99	C	-0.996489	-0.130982	-0.384494
C100	C	-0.496489	0.369018	0.115506
C101	C	-0.999806	-0.052499	-0.381497
C102	C	-0.499806	0.447501	0.118503
C103	C	-1.023183	-0.280690	-0.690103
C104	C	-0.523183	0.219310	-0.190103
C105	C	-1.020112	-0.283745	-0.763606
C106	C	-0.520112	0.216255	-0.263606
C107	C	-0.971657	-0.332161	-0.800332
C108	C	-0.471657	0.167839	-0.300332
C109	C	-0.926266	-0.377520	-0.763552
C110	C	-0.426266	0.122480	-0.263552
C111	C	-0.929334	-0.374461	-0.690050
C112	C	-0.429334	0.125539	-0.190050
C113	C	-0.957447	-0.346336	-1.020156
C114	C	-0.457447	0.153664	-0.520156
C115	C	-0.954384	-0.349393	-1.093664
C116	C	-0.454384	0.150607	-0.593664
C117	C	-1.048229	-0.255618	-1.093712
C118	C	-0.548229	0.244382	-0.593712
C119	C	-1.051296	-0.252565	-1.020209
C120	C	-0.551296	0.247435	-0.520209
C121	C	-1.005902	-0.297921	-0.983435
C122	C	-0.505902	0.202079	-0.483435
N123	N	-0.968519	-0.335287	-0.875464
N124	N	-0.468519	0.164713	-0.375464
N125	N	-1.009038	-0.294792	-0.908304
N126	N	-0.509038	0.205208	-0.408304
C127	C	-0.996366	-0.307495	-0.208668
C128	C	-0.496366	0.192505	0.291332
C129	C	-0.999770	-0.304037	-0.130439
C130	C	-0.499770	0.195963	0.369561
H131	H	-0.720822	-0.247083	-0.459815
H132	H	-0.220822	0.252917	0.040185
Br133	Br	-1.117060	-0.186858	-0.970371
Br134	Br	-0.617060	0.313142	-0.470371
Br135	Br	-0.567535	-0.229551	-0.477427
Br136	Br	-0.067535	0.270449	0.022573
Br137	Br	-0.410713	-0.197049	-0.510088
Br138	Br	0.089287	0.302951	-0.010088
H139	H	-1.062642	-0.241266	-0.660206
H140	H	-0.562642	0.258734	-0.160206
H141	H	-1.085185	-0.218691	-1.123662
H142	H	-0.585185	0.281309	-0.623662
Br143	Br	-0.867671	-0.572468	-0.502975
Br144	Br	-0.367671	-0.072468	-0.002975
Br145	Br	-1.081742	-0.222219	-0.813515
Br146	Br	-0.581742	0.277781	-0.313515
H147	H	-0.720732	-0.403871	-0.302475
H148	H	-0.220732	0.096129	0.197525
H149	H	-1.085216	-1.039077	-0.302805
H150	H	-0.585216	-0.539077	0.197195
H151	H	-0.914967	-1.052225	-0.459670
H152	H	-0.414967	-0.552225	0.040330
Br153	Br	-0.895855	-0.900402	-0.477190
Br154	Br	-0.395855	-0.400402	0.022810
Br155	Br	-0.860502	-0.443224	-0.813394
Br156	Br	-0.360502	0.056776	-0.313394
H157	H	-0.914924	-0.388821	-1.123564
H158	H	-0.414924	0.111179	-0.623564
Br159	Br	-0.237451	-0.203745	-0.503393
Br160	Br	0.262549	0.296255	-0.003393
H161	H	-0.886779	-0.724306	-0.485450
H162	H	-0.386779	-0.224306	0.014550
H163	H	-0.920494	-0.383278	-0.990225
H164	H	-0.420494	0.116722	-0.490225
Br165	Br	-1.081684	-0.729195	-0.305906
Br166	Br	-0.581684	-0.229195	0.194094
Br167	Br	-0.237322	-0.407473	-0.298997
Br168	Br	0.262678	0.092527	0.201003
Br169	Br	-1.117065	-0.883305	-0.273399
Br170	Br	-0.617065	-0.383305	0.226601
H171	H	-0.892369	-0.411388	-0.660108
H172	H	-0.392369	0.088612	-0.160108
Br173	Br	-0.567410	-0.433254	-0.273010
Br174	Br	-0.067410	0.066746	0.226990
Br175	Br	-0.410585	-0.400725	-0.305639
Br176	Br	0.089415	0.099275	0.194361
H177	H	-1.062567	-0.577370	-0.323416
H178	H	-0.562567	-0.077370	0.176584
