data_functionalizedCrystal
_audit_creation_method	'MofGen! by Chris Wilmer'
_symmetry_space_group_name_H-M	'P1'
_symmetry_Int_Tables_number	1
_symmetry_cell_setting	triclinic
loop_
_symmetry_equiv_pos_as_xyz
  x,y,z
_cell_length_a	16.120490
_cell_length_b	16.625546
_cell_length_c	16.625539
_cell_angle_alpha	90.030397
_cell_angle_beta	92.916216
_cell_angle_gamma	87.114737
loop_
_atom_site_label
_atom_site_type_symbol
_atom_site_fract_x
_atom_site_fract_y
_atom_site_fract_z
Zn1	Zn	1.274567	-0.383658	0.518296
Zn2	Zn	1.274467	-0.518496	0.383454
Zn3	Zn	1.135147	-0.376832	0.376651
Zn4	Zn	1.135116	-0.511597	0.511421
O5	O	1.204824	-0.447646	0.447456
O6	O	1.391220	-0.407289	0.506133
O7	O	1.255957	-0.499735	0.269718
O8	O	1.153696	-0.264908	0.395471
O9	O	1.391147	-0.506354	0.407065
O10	O	1.256127	-0.269923	0.499537
O11	O	1.153599	-0.395655	0.264720
O12	O	1.018477	-0.388965	0.388805
O13	O	1.153644	-0.494595	0.625167
O14	O	1.018454	-0.487976	0.487820
O15	O	1.256098	-0.400599	0.630218
O16	O	1.255927	-0.630411	0.400399
O17	O	1.153547	-0.625342	0.494416
C18	C	1.204745	-0.657133	0.447418
C19	C	1.204788	-0.746756	0.447433
C20	C	0.988215	-0.436982	0.436829
C21	C	0.895549	-0.432439	0.432302
C22	C	1.204933	-1.074939	0.447524
C23	C	1.204890	-0.983628	0.447501
C24	C	1.204860	-0.910850	0.447478
C25	C	1.204818	-0.819534	0.447455
C26	C	0.684609	-0.471203	0.470940
C27	C	0.725891	-0.424153	0.424035
C28	C	0.820297	-0.428765	0.428636
C29	C	0.590194	-0.466593	0.466340
C30	C	1.422280	-0.458352	0.458125
C31	C	1.514946	-0.462915	0.462671
C32	C	1.204879	-0.447589	0.657767
C33	C	1.204902	-0.447564	0.747390
C34	C	1.204926	-0.237342	0.447512
C35	C	1.204970	-0.147723	0.447536
C36	C	1.204818	-0.447647	0.237965
C37	C	1.204957	-0.447453	0.148351
C38	C	1.204940	-0.447476	1.075567
C39	C	1.204927	-0.447503	0.984258
C40	C	1.204921	-0.447521	0.911481
C41	C	1.204907	-0.447546	0.820166
H42	H	0.690333	-0.380408	0.380423
C43	C	0.732644	-0.530305	0.529847
N44	N	0.768834	-0.574823	0.574212
