data_functionalizedCrystal
_audit_creation_method	'MofGen! by Chris Wilmer'
_symmetry_space_group_name_H-M	'P1'
_symmetry_Int_Tables_number	1
_symmetry_cell_setting	triclinic
loop_
_symmetry_equiv_pos_as_xyz
  x,y,z
_cell_length_a	21.395362
_cell_length_b	12.759400
_cell_length_c	21.395356
_cell_angle_alpha	89.977668
_cell_angle_beta	89.957023
_cell_angle_gamma	90.030524
loop_
_atom_site_label
_atom_site_type_symbol
_atom_site_fract_x
_atom_site_fract_y
_atom_site_fract_z
Zn1	Zn	0.957923	-0.417848	-0.354609
Zn2	Zn	0.957857	-0.593540	-0.249841
Zn3	Zn	0.853140	-0.417925	-0.249810
Zn4	Zn	0.853137	-0.593534	-0.354546
O5	O	0.905514	-0.505711	-0.302202
O6	O	1.045593	-0.441124	-0.340751
O7	O	0.943940	-0.570279	-0.162159
O8	O	0.867069	-0.270893	-0.263725
O9	O	1.045544	-0.570205	-0.263778
O10	O	0.944053	-0.270837	-0.340721
O11	O	0.867005	-0.441255	-0.162136
O12	O	0.765462	-0.441249	-0.263664
O13	O	0.867064	-0.570194	-0.442232
O14	O	0.765459	-0.570268	-0.340613
O15	O	0.944050	-0.441118	-0.442279
O16	O	0.943937	-0.740560	-0.263717
O17	O	0.866999	-0.740556	-0.340643
C18	C	0.742727	-0.505767	-0.302129
C19	C	0.673085	-0.505816	-0.302113
C20	C	0.905477	-0.778679	-0.302190
C21	C	0.905519	-0.895455	-0.302207
C22	C	0.640388	-0.573086	-0.342120
C23	C	0.574952	-0.573060	-0.342148
C24	C	0.542217	-0.505776	-0.302157
C25	C	0.574923	-0.438493	-0.262147
C26	C	0.640357	-0.438513	-0.262125
C27	C	0.438492	-0.497327	-0.245752
C28	C	0.373059	-0.497314	-0.245773
C29	C	0.340396	-0.505707	-0.302226
C30	C	0.373175	-0.514135	-0.358661
C31	C	0.438609	-0.514155	-0.358638
C32	C	0.471265	-0.505746	-0.302177
C33	C	0.236746	-0.572952	-0.342267
C34	C	0.171309	-0.572919	-0.342296
C35	C	0.171282	-0.438358	-0.262290
C36	C	0.236717	-0.438386	-0.262267
C37	C	0.269445	-0.505688	-0.302255
C38	C	0.945587	-0.950198	-0.342332
C39	C	0.945622	-1.059922	-0.342349
C40	C	0.865519	-1.060151	-0.262110
C41	C	0.865482	-0.950429	-0.262096
C42	C	0.968023	-1.209757	-0.416288
C43	C	1.008101	-1.264503	-0.456408
C44	C	1.069220	-1.228769	-0.466099
C45	C	1.090273	-1.138290	-0.435662
C46	C	1.050199	-1.083549	-0.395537
C47	C	0.989071	-1.119282	-0.385858
C48	C	0.843087	-0.800592	-0.188157
C49	C	0.803015	-0.745850	-0.148029
C50	C	0.741895	-0.781582	-0.138331
C51	C	0.720844	-0.872064	-0.168757
C52	C	0.760916	-0.926807	-0.208886
C53	C	0.822035	-0.891067	-0.218584
C54	C	1.068938	-0.505656	-0.302275
C55	C	1.138579	-0.505633	-0.302306
C56	C	0.905564	-0.505646	-0.465625
C57	C	0.905585	-0.505619	-0.535266
C58	C	0.905569	-0.231678	-0.302226
C59	C	0.905592	-0.114902	-0.302237
C60	C	0.865535	-0.438428	-0.567958
C61	C	0.865533	-0.438409	-0.633393
C62	C	0.905592	-0.505569	-0.666135
C63	C	0.945644	-0.572772	-0.633435
C64	C	0.945640	-0.572797	-0.568001
C65	C	0.962045	-0.513802	-0.769840
C66	C	0.962049	-0.513770	-0.835273
C67	C	0.905602	-0.505498	-0.867955
C68	C	0.849148	-0.497236	-0.835196
C69	C	0.849145	-0.497261	-0.769762
C70	C	0.905600	-0.505549	-0.737087
C71	C	0.865547	-0.438283	-0.971599
C72	C	0.865544	-0.438270	-1.037036
C73	C	0.945660	-0.572628	-1.037077
C74	C	0.945657	-0.572646	-0.971642
C75	C	0.905602	-0.505467	-0.938907
C76	C	0.905501	-0.505701	-0.139414
C77	C	0.905602	-0.505432	-0.069773
H78	H	0.667031	-0.627887	-0.374682
H79	H	0.743771	-1.000483	-0.233661
H80	H	0.978259	-0.627454	-0.660098
H81	H	1.067341	-1.009885	-0.370754
H82	H	0.548266	-0.383708	-0.229588
H83	H	1.008018	-0.520492	-0.861941
H84	H	0.671076	-0.901160	-0.160860
N85	N	0.902101	-1.248303	-0.405836
H86	H	0.871498	-1.192432	-0.419267
H87	H	0.894911	-1.313945	-0.431202
H88	H	1.008015	-0.520530	-0.743236
N89	N	0.822338	-0.365839	-0.936292
H90	H	0.793296	-0.408555	-0.909116
H91	H	0.847853	-0.317161	-0.909204
N92	N	0.822344	-1.119444	-0.218844
H93	H	0.828450	-1.197260	-0.224937
H94	H	0.832117	-1.100285	-0.174108
N95	N	0.698677	-0.722544	-0.095042
H96	H	0.660748	-0.698155	-0.119055
H97	H	0.685089	-0.770178	-0.059849
N98	N	0.988864	-0.645065	-1.072387
H99	H	1.033634	-0.628739	-1.061033
H100	H	0.979063	-0.720110	-1.060971
H101	H	0.144629	-0.383569	-0.229732
H102	H	1.140045	-1.109209	-0.443550
H103	H	0.263395	-0.627749	-0.374831
H104	H	0.263340	-0.383613	-0.229685
N105	N	0.822334	-0.365946	-0.668668
H106	H	0.832078	-0.290877	-0.657302
H107	H	0.828439	-0.376225	-0.715074
H108	H	0.346376	-0.490458	-0.199821
N109	N	0.825719	-0.648262	-0.115204
H110	H	0.870518	-0.633925	-0.127439
H111	H	0.798736	-0.586824	-0.127715
N112	N	0.788265	-0.488339	-0.870447
H113	H	0.766947	-0.420360	-0.859066
H114	H	0.796893	-0.489638	-0.916856
N115	N	0.473716	-0.488279	-0.184857
H116	H	0.520141	-0.489566	-0.193405
H117	H	0.462283	-0.420237	-0.163638
H118	H	0.666979	-0.383731	-0.229546
H119	H	0.892852	-0.771480	-0.196058
H120	H	0.978187	-0.905441	-0.374993
N121	N	1.112449	-1.287816	-0.509368
H122	H	1.089840	-1.350554	-0.527176
H123	H	1.126085	-1.240174	-0.544539
H124	H	0.832916	-0.383730	-0.541309
H125	H	0.832926	-0.383559	-1.063652
H126	H	0.990954	-1.338172	-0.481190
N127	N	0.136041	-0.645483	-0.385448
H128	H	0.108842	-0.694095	-0.359940
H129	H	0.108980	-0.602774	-0.414532
N130	N	0.473962	-0.523225	-0.419503
H131	H	0.520369	-0.521962	-0.410919
H132	H	0.462522	-0.591258	-0.440733
H133	H	0.803178	-0.490536	-0.743092
H134	H	0.978272	-0.627357	-0.945024
N135	N	0.539674	-0.645615	-0.385301
H136	H	0.570337	-0.688252	-0.410630
H137	H	0.512477	-0.694165	-0.359752
H138	H	0.978256	-0.627510	-0.541384
H139	H	0.346583	-0.520967	-0.404631
