data_functionalizedCrystal
_audit_creation_method	'MofGen! by Chris Wilmer'
_symmetry_space_group_name_H-M	'P1'
_symmetry_Int_Tables_number	1
_symmetry_cell_setting	triclinic
loop_
_symmetry_equiv_pos_as_xyz
  x,y,z
_cell_length_a	21.395364
_cell_length_b	17.640280
_cell_length_c	21.395356
_cell_angle_alpha	101.220420
_cell_angle_beta	90.016560
_cell_angle_gamma	78.798629
loop_
_atom_site_label
_atom_site_type_symbol
_atom_site_fract_x
_atom_site_fract_y
_atom_site_fract_z
Zn1	Zn	1.008329	-0.314732	0.303897
Zn2	Zn	1.341662	0.018601	0.637231
Zn3	Zn	1.674996	0.351935	0.970564
Zn4	Zn	1.029462	-0.446900	0.177969
Zn5	Zn	1.362795	-0.113567	0.511302
Zn6	Zn	1.696129	0.219767	0.844635
Zn7	Zn	0.903561	-0.314745	0.199132
Zn8	Zn	1.236894	0.018589	0.532465
Zn9	Zn	1.570228	0.351922	0.865798
Zn10	Zn	0.924722	-0.446860	0.282715
Zn11	Zn	1.258056	-0.113526	0.616048
Zn12	Zn	1.591389	0.219807	0.949382
O13	O	0.966519	-0.380809	0.240928
O14	O	1.299852	-0.047476	0.574261
O15	O	1.633185	0.285858	0.907595
O16	O	1.098812	-0.332276	0.287201
O17	O	1.432145	0.001057	0.620534
O18	O	1.765479	0.334391	0.953867
O19	O	1.012749	-0.429392	0.093094
O20	O	1.346083	-0.096058	0.426428
O21	O	1.679416	0.237275	0.759761
O22	O	0.899758	-0.204139	0.230751
O23	O	1.233092	0.129194	0.564084
O24	O	1.566425	0.462527	0.897417
O25	O	1.114338	-0.429379	0.194681
O26	O	1.447672	-0.096046	0.528015
O27	O	1.781005	0.237287	0.861348
O28	O	0.976731	-0.204130	0.307721
O29	O	1.310064	0.129203	0.641055
O30	O	1.643398	0.462537	0.974388
O31	O	0.920250	-0.332298	0.108643
O32	O	1.253584	0.001036	0.441976
O33	O	1.586917	0.334369	0.775309
O34	O	0.818688	-0.332258	0.210211
O35	O	1.152022	0.001075	0.543544
O36	O	1.485355	0.334408	0.876878
O37	O	0.935825	-0.429310	0.373206
O38	O	1.269158	-0.095977	0.706540
O39	O	1.602491	0.237356	1.039873
O40	O	0.834235	-0.429323	0.271619
O41	O	1.167569	-0.095989	0.604953
O42	O	1.500902	0.237344	0.938286
O43	O	0.997250	-0.332237	0.388769
O44	O	1.330584	0.001097	0.722102
O45	O	1.663917	0.334430	1.055435
O46	O	1.033268	-0.557498	0.174142
O47	O	1.366602	-0.224165	0.507475
O48	O	1.699935	0.109168	0.840808
O49	O	0.956317	-0.557468	0.251098
O50	O	1.289650	-0.224135	0.584432
O51	O	1.622983	0.109198	0.917765
C52	C	0.803728	-0.380788	0.240913
C53	C	1.137061	-0.047455	0.574247
C54	C	1.470394	0.285879	0.907580
C55	C	0.734088	-0.380798	0.240919
C56	C	1.067421	-0.047465	0.574252
C57	C	1.400755	0.285869	0.907586
C58	C	0.240420	-0.431443	0.272850
C59	C	0.573754	-0.098110	0.606183
C60	C	0.907087	0.235224	0.939516
C61	C	0.305856	-0.431443	0.272843
C62	C	0.639189	-0.098110	0.606177
C63	C	0.972522	0.235223	0.939510
C64	C	0.330454	-0.380826	0.240945
C65	C	0.663788	-0.047493	0.574278
C66	C	0.997121	0.285840	0.907612
C67	C	0.289614	-0.330220	0.209038
C68	C	0.622947	0.003114	0.542371
C69	C	0.956280	0.336447	0.875704
C70	C	0.224181	-0.330227	0.209040
C71	C	0.557514	0.003107	0.542373
C72	C	0.890847	0.336440	0.875706
C73	C	0.422710	-0.309598	0.247493
C74	C	0.756043	0.023736	0.580826
C75	C	1.089377	0.357069	0.914159
C76	C	0.488142	-0.309589	0.247495
C77	C	0.821475	0.023744	0.580829
C78	C	1.154808	0.357077	0.914162
C79	C	0.532272	-0.380806	0.240935
C80	C	0.865605	-0.047472	0.574268
C81	C	1.198938	0.285861	0.907601
C82	C	0.510962	-0.452032	0.234385
C83	C	0.844295	-0.118699	0.567718
C84	C	1.177629	0.214635	0.901051
C85	C	0.445529	-0.452039	0.234387
C86	C	0.778862	-0.118706	0.567720
C87	C	1.112196	0.214628	0.901053
C88	C	0.401405	-0.380814	0.240939
C89	C	0.734738	-0.047480	0.574272
C90	C	1.068071	0.285853	0.907606
C91	C	0.644057	-0.431413	0.272829
C92	C	0.977390	-0.098080	0.606163
C93	C	1.310724	0.235254	0.939496
C94	C	0.709494	-0.431414	0.272818
C95	C	1.042827	-0.098081	0.606151
C96	C	1.376161	0.235252	0.939485
C97	C	0.693249	-0.330184	0.209017
C98	C	1.026583	0.003149	0.542350
C99	C	1.359916	0.336483	0.875684
C100	C	0.627815	-0.330190	0.209024
C101	C	0.961148	0.003144	0.542357
C102	C	1.294482	0.336477	0.875690
C103	C	0.603223	-0.380803	0.240933
C104	C	0.936556	-0.047470	0.574267
C105	C	1.269889	0.285864	0.907600
C106	C	0.999399	-0.586162	0.208039
C107	C	1.332732	-0.252828	0.541372
C108	C	1.666066	0.080505	0.874705
C109	C	1.013523	-0.674012	0.193990
C110	C	1.346856	-0.340679	0.527323
C111	C	1.680189	-0.007346	0.860656
C112	C	0.859480	-0.963002	0.347886
C113	C	1.192813	-0.629669	0.681220
C114	C	1.526146	-0.296335	1.014553
C115	C	0.872752	-1.045551	0.334665
C116	C	1.206086	-0.712218	0.667998
C117	C	1.539419	-0.378885	1.001332
C118	C	0.952932	-1.045517	0.254611
C119	C	1.286265	-0.712183	0.587944
C120	C	1.619599	-0.378850	0.921278
C121	C	0.939668	-0.962966	0.267828
C122	C	1.273002	-0.629633	0.601161
C123	C	1.606335	-0.296299	0.934495
C124	C	0.892941	-0.921715	0.314466
C125	C	1.226274	-0.588382	0.647799
C126	C	1.559608	-0.255049	0.981132
C127	C	0.973130	-0.921679	0.234407
C128	C	1.306463	-0.588346	0.567741
C129	C	1.639796	-0.255012	0.901074
C130	C	0.959864	-0.839136	0.247621
C131	C	1.293198	-0.505802	0.580954
C132	C	1.626531	-0.172469	0.914287
C133	C	0.913138	-0.797879	0.294255
C134	C	1.246471	-0.464546	0.627588
C135	C	1.579805	-0.131212	0.960922
C136	C	0.879676	-0.839172	0.327679
C137	C	1.213009	-0.505838	0.661013
C138	C	1.546342	-0.172505	0.994346
C139	C	1.019853	-0.962931	0.187766
C140	C	1.353187	-0.629598	0.521100
C141	C	1.686520	-0.296265	0.854433
C142	C	1.053315	-0.921645	0.154346
C143	C	1.386648	-0.588311	0.487679
C144	C	1.719981	-0.254978	0.821012
C145	C	1.040053	-0.839099	0.167562
C146	C	1.373386	-0.505766	0.500896
C147	C	1.706720	-0.172433	0.834229
C148	C	0.993327	-0.797843	0.214197
C149	C	1.326660	-0.464509	0.547530
C150	C	1.659993	-0.131176	0.880863
C151	C	1.073515	-0.797807	0.134138
C152	C	1.406848	-0.464473	0.467471
C153	C	1.740182	-0.131140	0.800805
C154	C	1.060250	-0.715263	0.147352
C155	C	1.393583	-0.381930	0.480685
C156	C	1.726917	-0.048597	0.814018
C157	C	0.980061	-0.715299	0.227410
C158	C	1.313395	-0.381966	0.560744
C159	C	1.646728	-0.048633	0.894077
C160	C	1.129945	-0.380831	0.240943
C161	C	1.463279	-0.047497	0.574276
C162	C	1.796612	0.285836	0.907610
C163	C	1.199588	-0.380840	0.240949
C164	C	1.532921	-0.047507	0.574283
C165	C	1.866255	0.285827	0.907616
C166	C	0.966541	-0.380768	0.404358
C167	C	1.299874	-0.047434	0.737691
C168	C	1.633207	0.285899	1.071025
C169	C	0.966550	-0.380750	0.474002
C170	C	1.299883	-0.047416	0.807335
C171	C	1.633217	0.285917	1.140669
C172	C	0.933527	-0.174655	0.273960
C173	C	1.266860	0.158679	0.607293
C174	C	1.600194	0.492012	0.940626
C175	C	0.919468	-0.086804	0.288036
C176	C	1.252801	0.246529	0.621369
C177	C	1.586135	0.579863	0.954702
C178	C	0.966524	-0.380793	0.078143
C179	C	1.299857	-0.047460	0.411476
C180	C	1.633190	0.285873	0.744810
C181	C	0.966600	-0.380588	0.008535
C182	C	1.299933	-0.047255	0.341868
C183	C	1.633267	0.286078	0.675202
C184	C	1.014758	-0.431141	0.967730
C185	C	1.348091	-0.097808	1.301063
C186	C	1.681425	0.235526	1.634396
C187	C	1.014751	-0.431166	0.902290
C188	C	1.348084	-0.097833	1.235623
C189	C	1.681417	0.235501	1.568957
C190	C	0.966590	-0.380624	0.877661
C191	C	1.299923	-0.047291	1.210994
C192	C	1.633256	0.286042	1.544327
C193	C	0.918423	-0.330068	0.918475
C194	C	1.251756	0.003265	1.251808
C195	C	1.585090	0.336598	1.585141
C196	C	0.918428	-0.330050	0.983912
C197	C	1.251762	0.003283	1.317245
C198	C	1.585095	0.336616	1.650578
C199	C	0.950238	-0.309443	0.785397
C200	C	1.283572	0.023890	1.118730
C201	C	1.616905	0.357224	1.452064
C202	C	0.950237	-0.309460	0.719961
C203	C	1.283571	0.023874	1.053295
C204	C	1.616904	0.357207	1.386628
C205	C	0.966571	-0.380681	0.675831
C206	C	1.299904	-0.047347	1.009164
C207	C	1.633237	0.285986	1.342498
C208	C	0.982918	-0.451887	0.697144
C209	C	1.316251	-0.118554	1.030477
C210	C	1.649585	0.214780	1.363811
C211	C	0.982923	-0.451869	0.762581
C212	C	1.316257	-0.118536	1.095914
C213	C	1.649590	0.214798	1.429248
C214	C	0.966579	-0.380639	0.806706
C215	C	1.299912	-0.047305	1.140039
C216	C	1.633245	0.286028	1.473373
C217	C	1.014724	-0.431265	0.564068
C218	C	1.348057	-0.097931	0.897401
C219	C	1.681390	0.235402	1.230735
C220	C	1.014712	-0.431291	0.498627
C221	C	1.348046	-0.097958	0.831960
C222	C	1.681379	0.235376	1.165294
C223	C	0.918387	-0.330186	0.514814
C224	C	1.251720	0.003147	0.848147
C225	C	1.585053	0.336480	1.181481
C226	C	0.918396	-0.330167	0.580252
C227	C	1.251729	0.003166	0.913586
C228	C	1.585063	0.336500	1.246919
C229	C	0.966568	-0.380705	0.604876
C230	C	1.299901	-0.047372	0.938209
C231	C	1.633234	0.285962	1.271542
H232	H	0.546892	-0.510023	0.229047
H233	H	0.880226	-0.176689	0.562380
H234	H	1.213559	0.156644	0.895714
F235	F	0.422852	-0.527841	0.227414
F236	F	0.756185	-0.194508	0.560747
F237	F	1.089519	0.138826	0.894080
F238	F	0.933095	-0.233608	0.832363
F239	F	1.266428	0.099725	1.165696
F240	F	1.599762	0.433058	1.499029
F241	F	1.000304	-0.527691	0.650182
F242	F	1.333638	-0.194358	0.983515
F243	F	1.666971	0.138975	1.316849
F244	F	0.899133	-0.710028	0.308431
F245	F	1.232466	-0.376694	0.641765
F246	F	1.565799	-0.043361	0.975098
H247	H	0.624033	-0.472626	0.298811
H248	H	0.957366	-0.139293	0.632145
H249	H	1.290700	0.194040	0.965478
F250	F	0.932844	-0.233676	0.697284
F251	F	1.266177	0.099657	1.030618
F252	F	1.599511	0.432991	1.363951
F253	F	0.584356	-0.276325	0.175076
F254	F	0.917689	0.057009	0.508409
F255	F	1.251022	0.390342	0.841742
H256	H	1.053975	-0.472323	0.869062
H257	H	1.387308	-0.138990	1.202395
H258	H	1.720641	0.194344	1.535728
F259	F	1.002662	-1.089427	0.204978
F260	F	1.335995	-0.756094	0.538311
F261	F	1.669328	-0.422761	0.871645
F262	F	0.752952	-0.485281	0.306768
F263	F	1.086285	-0.151948	0.640101
F264	F	1.419619	0.181386	0.973435
F265	F	0.930334	-0.671392	0.277053
F266	F	1.263667	-0.338059	0.610386
F267	F	1.597001	-0.004726	0.943720
F268	F	0.719426	-0.276319	0.175062
F269	F	1.052759	0.057014	0.508396
F270	F	1.386092	0.390347	0.841729
F271	F	0.867167	-0.276247	1.027341
F272	F	1.200500	0.057086	1.360674
F273	F	1.533833	0.390420	1.694008
H274	H	0.505486	-0.251592	0.252836
H275	H	0.838820	0.081741	0.586169
H276	H	1.172153	0.415075	0.919503
F277	F	1.065991	-0.485052	0.590276
F278	F	1.399324	-0.151718	0.923609
F279	F	1.732657	0.181615	1.256943
F280	F	1.033988	-1.050783	0.173722
F281	F	1.367321	-0.717449	0.507055
F282	F	1.700654	-0.384116	0.840388
H283	H	0.386783	-0.251602	0.252825
H284	H	0.720117	0.081732	0.586158
H285	H	1.053450	0.415065	0.919492
F286	F	0.315794	-0.276352	0.175087
F287	F	0.649128	0.056981	0.508421
F288	F	0.982461	0.390315	0.841754
H289	H	1.091358	-0.955242	0.116371
H290	H	1.424692	-0.621909	0.449705
H291	H	1.758025	-0.288576	0.783038
H292	H	1.053926	-0.472464	0.465402
H293	H	1.387260	-0.139131	0.798736
H294	H	1.720593	0.194202	1.132069
F295	F	0.867119	-0.276412	0.488603
F296	F	1.200453	0.056921	0.821937
F297	F	1.533786	0.390255	1.155270
F298	F	1.123240	-0.841719	0.084501
F299	F	1.456573	-0.508386	0.417834
F300	F	1.789907	-0.175052	0.751168
H301	H	0.879182	-0.288998	0.613478
H302	H	1.212516	0.044335	0.946811
H303	H	1.545849	0.377668	1.280144
H304	H	0.190934	-0.289017	0.183063
H305	H	0.524267	0.044316	0.516396
H306	H	0.857601	0.377649	0.849729
H307	H	0.845508	-1.079164	0.361891
H308	H	1.178841	-0.745831	0.695225
H309	H	1.512175	-0.412497	1.028558
H310	H	1.087497	-0.681647	0.120136
H311	H	1.420831	-0.348314	0.453470
H312	H	1.754164	-0.014980	0.786803
F313	F	0.214252	-0.485314	0.306808
F314	F	0.547585	-0.151981	0.640141
F315	F	0.880918	0.181353	0.973474
F316	F	0.829948	-0.795265	0.377322
F317	F	1.163282	-0.461931	0.710656
F318	F	1.496615	-0.128598	1.043989
H319	H	0.821434	-0.929414	0.385868
H320	H	1.154767	-0.596081	0.719202
H321	H	1.488101	-0.262747	1.052535
H322	H	1.053982	-0.472295	0.987773
H323	H	1.387315	-0.138962	1.321106
H324	H	1.720648	0.194371	1.654440
F325	F	1.000318	-0.527650	0.785262
F326	F	1.333651	-0.194316	1.118595
F327	F	1.666984	0.139017	1.451929
F328	F	0.349320	-0.485304	0.306798
F329	F	0.682654	-0.151970	0.640131
F330	F	1.015987	0.181363	0.973464
F331	F	0.867168	-0.276277	0.892262
F332	F	1.200501	0.057056	1.225595
F333	F	1.533834	0.390390	1.558928
