data_functionalizedCrystal
_audit_creation_method	'MofGen! by Chris Wilmer'
_symmetry_space_group_name_H-M	'P1'
_symmetry_Int_Tables_number	1
_symmetry_cell_setting	triclinic
loop_
_symmetry_equiv_pos_as_xyz
  x,y,z
_cell_length_a	14.971486
_cell_length_b	17.699083
_cell_length_c	14.048226
_cell_angle_alpha	89.992674
_cell_angle_beta	89.998499
_cell_angle_gamma	83.448572
loop_
_atom_site_label
_atom_site_type_symbol
_atom_site_fract_x
_atom_site_fract_y
_atom_site_fract_z
O1	O	1.186608	0.098633	-0.079053
O2	O	0.926167	0.110445	-0.079079
O3	O	1.063746	-0.005632	-0.079057
O4	O	1.049030	0.214710	-0.079075
O5	O	1.063729	-0.005639	0.079264
O6	O	0.926151	0.110438	0.079242
O7	O	1.186591	0.098626	0.079268
Zn8	Zn	1.056368	0.104531	0.104392
Zn9	Zn	1.056390	0.104540	-0.104203
O10	O	1.049013	0.214703	0.079246
C11	C	0.892836	0.109913	0.000078
C12	C	0.793544	0.108330	0.000068
C13	C	0.736085	0.176522	0.000064
C14	C	0.642790	0.175030	0.000078
C15	C	0.606958	0.105346	0.000090
C16	C	0.664425	0.037148	0.000097
C17	C	0.757717	0.038641	0.000090
C18	C	0.469973	0.034042	0.000111
C19	C	0.376674	0.032549	0.000117
C20	C	0.355046	0.170431	0.000099
C21	C	0.448339	0.171924	0.000092
C22	C	0.505799	0.103726	0.000097
C23	C	1.063210	-0.033834	0.000104
C24	C	1.061628	-0.117856	0.000104
C25	C	1.142384	-0.166278	0.000113
C26	C	1.140892	-0.245225	0.000105
C27	C	1.058644	-0.275748	0.000094
C28	C	0.977882	-0.227320	0.000081
C29	C	0.979375	-0.148374	0.000083
C30	C	0.971860	-0.545698	0.000073
C31	C	0.970374	-0.624649	0.000074
C32	C	1.133378	-0.642548	0.000095
C33	C	1.134871	-0.563603	0.000096
C34	C	1.054109	-0.515181	0.000079
C35	C	1.055728	-0.429578	0.000087
C36	C	1.057024	-0.361350	0.000093
C37	C	1.219923	0.099158	0.000109
C38	C	1.319214	0.100741	0.000112
C39	C	1.049549	0.242905	0.000083
C40	C	1.051131	0.326927	0.000077
N41	N	1.056360	0.104524	0.246753
N42	N	1.056406	0.104541	-0.246564
C43	C	1.117299	0.053147	0.296581
C44	C	1.117305	0.053146	0.396238
C45	C	1.056376	0.104528	0.446066
C46	C	0.995431	0.155908	0.396231
C47	C	0.995421	0.155904	0.296576
C48	C	0.995456	0.155913	0.603946
C49	C	0.995467	0.155918	0.703608
C50	C	1.117340	0.053156	0.703608
C51	C	1.117331	0.053152	0.603953
C52	C	1.056386	0.104533	0.554125
H53	H	0.804501	-0.016888	0.000093
Cl54	Cl	1.193914	-0.011444	0.458881
Cl55	Cl	1.193905	-0.011448	0.233950
Cl56	Cl	0.781122	0.264131	0.000043
Cl57	Cl	1.193933	-0.011437	0.541310
Cl58	Cl	0.918828	0.220499	0.458870
Cl59	Cl	0.877849	-0.087500	0.000068
H60	H	1.206652	-0.284648	0.000115
Cl61	Cl	0.570559	0.260761	0.000067
H62	H	0.347502	-0.024194	0.000127
Cl63	Cl	0.282811	0.256165	0.000095
Cl64	Cl	0.870331	-0.484835	0.000049
Cl65	Cl	0.866968	-0.663020	0.000058
H66	H	0.477510	0.228667	0.000073
H67	H	1.201846	-0.538756	0.000110
Cl68	Cl	0.542208	-0.051694	0.000119
Cl69	Cl	1.193956	-0.011435	0.766252
H70	H	1.199138	-0.681983	0.000104
Cl71	Cl	0.874483	-0.265692	0.000055
Cl72	Cl	0.918805	0.220493	0.233936
H73	H	0.635242	-0.019590	0.000121
H74	H	0.945826	0.197751	0.563379
Cl75	Cl	1.245788	-0.127914	0.000137
Cl76	Cl	0.918864	0.220513	0.766242
