data_functionalizedCrystal
_audit_creation_method	'MofGen! by Chris Wilmer'
_symmetry_space_group_name_H-M	'P1'
_symmetry_Int_Tables_number	1
_symmetry_cell_setting	triclinic
loop_
_symmetry_equiv_pos_as_xyz
  x,y,z
_cell_length_a	10.654545
_cell_length_b	10.489716
_cell_length_c	9.130313
_cell_angle_alpha	89.999518
_cell_angle_beta	89.996934
_cell_angle_gamma	84.506107
loop_
_atom_site_label
_atom_site_type_symbol
_atom_site_fract_x
_atom_site_fract_y
_atom_site_fract_z
O1	O	1.667911	0.179137	-0.121770
O2	O	1.302438	0.196212	-0.121775
O3	O	1.493507	0.002070	-0.121778
O4	O	1.476843	0.373278	-0.121768
O5	O	1.493494	0.002065	0.121821
O6	O	1.302425	0.196206	0.121824
O7	O	1.667898	0.179131	0.121828
Cu8	Cu	1.485160	0.187668	0.144069
Cu9	Cu	1.485176	0.187675	-0.144015
O10	O	1.476829	0.373273	0.121831
C11	C	1.255633	0.194957	0.000023
C12	C	1.116188	0.191209	0.000021
C13	C	1.050676	0.189442	0.132808
C14	C	0.919655	0.185900	0.132807
C15	C	0.919670	0.185897	-0.132777
C16	C	1.050690	0.189430	-0.132776
C17	C	1.492248	-0.045464	0.000017
C18	C	1.488502	-0.187093	0.000004
C19	C	1.605671	-0.284826	0.000018
C20	C	1.543763	-0.362153	-0.120085
C21	C	1.543723	-0.362122	0.120084
C22	C	1.426643	-0.262555	-0.120200
C23	C	1.426620	-0.262519	0.120078
C24	C	1.364625	-0.339797	-0.000056
C25	C	1.714703	0.180386	0.000027
C26	C	1.854148	0.184134	0.000019
C27	C	1.478088	0.420807	0.000033
C28	C	1.481834	0.562436	0.000037
N29	N	1.485159	0.187663	0.346691
N30	N	1.485188	0.187670	-0.346638
C31	C	1.569793	0.101733	0.423342
C32	C	1.569805	0.101733	0.576679
C33	C	1.400545	0.273604	0.576701
C34	C	1.400527	0.273596	0.423367
H35	H	0.866321	0.184461	0.240936
H36	H	1.331602	0.343571	0.360954
N37	N	1.609253	-0.419742	0.254585
H38	H	1.700238	-0.400156	0.254470
H39	H	1.565842	-0.382061	0.345226
H40	H	1.104001	0.190890	0.240939
H41	H	1.638703	0.031759	0.360916
H42	H	1.638720	0.031760	0.639083
N43	N	0.849025	0.183977	-0.276002
H44	H	0.756083	0.181473	-0.255857
H45	H	0.862451	0.263530	-0.333993
H46	H	1.593230	-0.405670	-0.221626
N47	N	1.740669	-0.252204	-0.000122
H48	H	1.784791	-0.288639	-0.090933
H49	H	1.742182	-0.156086	0.000858
N50	N	1.121363	0.191321	-0.276002
H51	H	1.059990	0.189665	-0.360129
H52	H	1.166251	0.271720	-0.281791
N53	N	1.361146	-0.204839	0.254578
H54	H	1.405506	-0.241221	0.345263
H55	H	1.363495	-0.108826	0.252920
N56	N	1.361162	-0.205173	-0.254849
H57	H	1.364159	-0.109230	-0.254052
H58	H	1.405094	-0.242421	-0.345386
N59	N	1.309275	0.366284	0.659413
H60	H	1.357776	0.423222	0.723013
H61	H	1.255673	0.420632	0.587496
H62	H	1.262631	-0.364176	-0.000122
