data_functionalizedCrystal
_audit_creation_method	'MofGen! by Chris Wilmer'
_symmetry_space_group_name_H-M	'P1'
_symmetry_Int_Tables_number	1
_symmetry_cell_setting	triclinic
loop_
_symmetry_equiv_pos_as_xyz
  x,y,z
_cell_length_a	14.971486
_cell_length_b	14.971486
_cell_length_c	14.472310
_cell_angle_alpha	89.999135
_cell_angle_beta	89.991926
_cell_angle_gamma	96.385817
loop_
_atom_site_label
_atom_site_type_symbol
_atom_site_fract_x
_atom_site_fract_y
_atom_site_fract_z
O1	O	-1.186957	0.116557	0.076731
O2	O	-0.686957	0.616557	0.576731
O3	O	-0.926556	0.130515	0.076755
O4	O	-0.426556	0.630515	0.576755
O5	O	-1.063736	-0.006664	0.076741
O6	O	-0.563736	0.493336	0.576741
O7	O	-1.049777	0.253736	0.076745
O8	O	-0.549777	0.753736	0.576745
O9	O	-1.063700	-0.006656	-0.076941
O10	O	-0.563700	0.493344	0.423059
O11	O	-0.926521	0.130523	-0.076927
O12	O	-0.426521	0.630523	0.423073
O13	O	-1.186921	0.116565	-0.076951
O14	O	-0.686921	0.616565	0.423049
Cu15	Cu	-1.056718	0.123545	-0.090971
Cu16	Cu	-0.556718	0.623545	0.409029
Cu17	Cu	-1.056760	0.123535	0.090775
Cu18	Cu	-0.556760	0.623535	0.590775
O19	O	-1.049742	0.253744	-0.076937
O20	O	-0.549742	0.753744	0.423063
C21	C	-0.893214	0.129895	-0.000082
C22	C	-0.393214	0.629895	0.499918
C23	C	-0.793917	0.128024	-0.000073
C24	C	-0.293917	0.628024	0.499927
C25	C	-1.063094	-0.039985	-0.000099
C26	C	-0.563094	0.460015	0.499901
C27	C	-1.061223	-0.139282	-0.000094
C28	C	-0.561223	0.360718	0.499906
C29	C	-1.220264	0.117185	-0.000112
C30	C	-0.720264	0.617185	0.499888
C31	C	-1.319561	0.119056	-0.000115
C32	C	-0.819561	0.619056	0.499885
C33	C	-0.736692	0.208614	-0.000073
C34	C	-0.236692	0.708614	0.499927
C35	C	-0.643392	0.206850	-0.000087
C36	C	-0.143392	0.706850	0.499913
C37	C	-0.607320	0.124497	-0.000094
C38	C	-0.107320	0.624497	0.499906
C39	C	-0.664552	0.043902	-0.000097
C40	C	-0.164552	0.543902	0.499903
C41	C	-0.757850	0.045666	-0.000090
C42	C	-0.257850	0.545666	0.499910
C43	C	-0.470090	0.040231	-0.000110
C44	C	0.029910	0.540231	0.499890
C45	C	-0.376786	0.038466	-0.000115
C46	C	0.123214	0.538466	0.499885
C47	C	-0.355632	0.201415	-0.000107
C48	C	0.144368	0.701415	0.499893
C49	C	-0.448930	0.203179	-0.000099
C50	C	0.051070	0.703179	0.499901
C51	C	-0.506156	0.122584	-0.000101
C52	C	-0.006156	0.622584	0.499899
N53	N	-1.056695	0.123551	-0.218802
N54	N	-0.556695	0.623551	0.281198
C55	C	-1.050384	0.287065	-0.000095
C56	C	-0.550384	0.787065	0.499905
C57	C	-1.052255	0.386362	-0.000094
C58	C	-0.552255	0.886362	0.499906
C59	C	-1.053154	0.433004	0.083679
C60	C	-0.553154	0.933004	0.583679
C61	C	-1.054923	0.526303	0.083680
C62	C	-0.554923	1.026303	0.583680
C63	C	-1.055787	0.572958	-0.000093
C64	C	-0.555787	1.072958	0.499907
C65	C	-1.054890	0.526309	-0.083873
C66	C	-0.554890	1.026309	0.416127
C67	C	-1.053128	0.433011	-0.083873
C68	C	-0.553128	0.933011	0.416127
C69	C	-1.058563	0.720771	-0.083867
C70	C	-0.558563	1.220771	0.416133
C71	C	-1.060324	0.814076	-0.083867
C72	C	-0.560324	1.314076	0.416133
C73	C	-1.060358	0.814063	0.083686
C74	C	-0.560358	1.314063	0.583686
C75	C	-1.058595	0.720765	0.083686
C76	C	-0.558595	1.220765	0.583686
C77	C	-1.057697	0.674123	-0.000094
C78	C	-0.557697	1.174123	0.499906
C79	C	-1.056758	0.123532	-0.592894
C80	C	-0.556758	0.623532	-0.092894
C81	C	-0.983110	0.196687	-0.553720
C82	C	-0.483110	0.696687	-0.053720
C83	C	-0.983280	0.196954	-0.446632
C84	C	-0.483280	0.696954	0.053368
C85	C	-1.056726	0.123541	-0.407302
C86	C	-0.556726	0.623541	0.092698
C87	C	-1.150076	0.144025	-0.446148
C88	C	-0.650076	0.644025	0.053852
C89	C	-1.149662	0.144545	-0.553270
C90	C	-0.649662	0.644545	-0.053270
C91	C	-1.037890	0.029676	-0.553422
C92	C	-0.537890	0.529676	-0.053422
C93	C	-1.035750	0.030299	-0.446295
C94	C	-0.535750	0.530299	0.053705
C95	C	-1.056714	0.123545	-0.302414
C96	C	-0.556714	0.623545	0.197586
C97	C	-1.056777	0.123530	-0.697782
C98	C	-0.556777	0.623530	-0.197782
N99	N	-1.056790	0.123522	0.218606
N100	N	-0.556790	0.623522	0.718606
H101	H	-0.766054	0.275675	-0.000066
H102	H	-0.266054	0.775675	0.499934
C103	C	-0.488607	0.293772	-0.000095
C104	C	0.011393	0.793772	0.499905
N105	N	-0.518492	0.362008	-0.000097
N106	N	-0.018492	0.862008	0.499903
H107	H	-0.804443	-0.019958	-0.000089
H108	H	-0.304443	0.480042	0.499911
H109	H	-0.913895	0.184735	-0.420369
H110	H	-0.413895	0.684735	0.079631
C111	C	-1.173047	0.235453	-0.409906
C112	C	-0.673047	0.735453	0.090094
N113	N	-1.190342	0.304321	-0.382614
N114	N	-0.690342	0.804321	0.117386
C115	C	-1.052136	0.381706	-0.176030
C116	C	-0.552136	0.881706	0.323970
N117	N	-1.051390	0.343063	-0.245445
N118	N	-0.551390	0.843063	0.254555
H119	H	-0.967080	0.014756	-0.420906
H120	H	-0.467080	0.514756	0.079094
H121	H	-1.052442	0.395025	0.151897
H122	H	-0.552442	0.895025	0.651897
C123	C	-1.055911	0.577605	0.175837
C124	C	-0.555911	1.077605	0.675837
N125	N	-1.056656	0.616246	0.245254
N126	N	-0.556656	1.116246	0.745254
H127	H	-1.057887	0.682781	0.151901
H128	H	-0.557887	1.182781	0.651901
H129	H	-0.596802	0.272474	-0.000086
H130	H	-0.096802	0.772474	0.499914
C131	C	-0.292681	0.290072	-0.000110
C132	C	0.207319	0.790072	0.499890
N133	N	-0.245263	0.356845	-0.000110
N134	N	0.254737	0.856845	0.499890
C135	C	-0.533037	-0.048429	-0.000107
C136	C	-0.033037	0.451571	0.499893
N137	N	-0.580449	-0.115207	-0.000099
N138	N	-0.080449	0.384793	0.499901
C139	C	-1.061348	0.865371	0.175845
C140	C	-0.561348	1.365371	0.675845
N141	N	-1.062091	0.904021	0.245256
N142	N	-0.562091	1.404021	0.745256
H143	H	-1.060999	0.852064	-0.152082
H144	H	-0.560999	1.352064	0.347918
C145	C	-1.103515	-0.046701	-0.410151
C146	C	-0.603515	0.453299	0.089849
N147	N	-1.154568	-0.104695	-0.382936
N148	N	-0.654568	0.395305	0.117064
H149	H	-1.057833	0.682798	-0.152089
H150	H	-0.557833	1.182798	0.347911
H151	H	-1.206184	0.093369	-0.579182
H152	H	-0.706184	0.593369	-0.079182
C153	C	-1.055836	0.577634	-0.176024
C154	C	-0.555836	1.077634	0.323976
N155	N	-1.056543	0.616292	-0.245434
N156	N	-0.556543	1.116292	0.254566
C157	C	-1.225892	0.073966	-0.411728
C158	C	-0.725892	0.573966	0.088272
N159	N	-1.282996	0.021197	-0.385801
N160	N	-0.782996	0.521197	0.114199
H161	H	-1.091597	-0.024765	-0.578754
H162	H	-0.591597	0.475235	-0.078754
H163	H	-0.913500	0.184667	-0.579501
H164	H	-0.413500	0.684667	-0.079501
H165	H	-0.347419	-0.028593	-0.000122
H166	H	0.152581	0.471407	0.499878
C167	C	-0.999176	0.290248	-0.590072
C168	C	-0.499176	0.790248	-0.090072
N169	N	-1.011279	0.360718	-0.617453
N170	N	-0.511279	0.860718	-0.117453
H171	H	-0.635175	-0.023152	-0.000116
H172	H	-0.135175	0.476848	0.499884
C173	C	-0.999578	0.291043	-0.411997
C174	C	-0.499578	0.791043	0.088003
N175	N	-1.011859	0.361913	-0.385912
N176	N	-0.511859	0.861913	0.114088
C177	C	-1.172087	0.237026	-0.587014
C178	C	-0.672087	0.737026	-0.087014
N179	N	-1.188971	0.306687	-0.612425
N180	N	-0.688971	0.806687	-0.112425
H181	H	-0.971292	0.010004	-0.580484
H182	H	-0.471292	0.510004	-0.080484
