data_functionalizedCrystal
_audit_creation_method	'MofGen! by Chris Wilmer'
_symmetry_space_group_name_H-M	'P1'
_symmetry_Int_Tables_number	1
_symmetry_cell_setting	triclinic
loop_
_symmetry_equiv_pos_as_xyz
  x,y,z
_cell_length_a	8.497374
_cell_length_b	21.395362
_cell_length_c	21.395361
_cell_angle_alpha	90.046585
_cell_angle_beta	89.984309
_cell_angle_gamma	89.977046
loop_
_atom_site_label
_atom_site_type_symbol
_atom_site_fract_x
_atom_site_fract_y
_atom_site_fract_z
Zn1	Zn	0.892770	-0.957730	0.249282
Zn2	Zn	1.392770	-0.457730	0.749282
Zn3	Zn	0.628940	-0.957670	0.354031
Zn4	Zn	1.128940	-0.457670	0.854031
Zn5	Zn	0.628900	-0.852983	0.249300
Zn6	Zn	1.128900	-0.352983	0.749300
Zn7	Zn	0.892573	-0.852914	0.354054
Zn8	Zn	1.392573	-0.352914	0.854054
O9	O	0.760796	-0.905324	0.301667
O10	O	1.260796	-0.405324	0.801667
O11	O	0.857872	-1.045400	0.263159
O12	O	1.357872	-0.545400	0.763159
O13	O	0.408172	-0.943788	0.340136
O14	O	0.908172	-0.443788	0.840136
O15	O	0.663969	-0.866931	0.161620
O16	O	1.163969	-0.366931	0.661620
O17	O	0.664036	-1.045356	0.340118
O18	O	1.164036	-0.545356	0.840118
O19	O	0.857833	-0.943888	0.161606
O20	O	1.357833	-0.443888	0.661606
O21	O	0.408143	-0.866874	0.263191
O22	O	0.908143	-0.366874	0.763191
O23	O	0.663778	-0.765296	0.263214
O24	O	1.163778	-0.265296	0.763214
O25	O	1.113362	-0.866814	0.340158
O26	O	1.613362	-0.366814	0.840158
O27	O	0.857497	-0.765245	0.340176
O28	O	1.357497	-0.265245	0.840176
O29	O	1.113507	-0.943821	0.263182
O30	O	1.613507	-0.443821	0.763182
O31	O	0.663845	-0.943721	0.441712
O32	O	1.163845	-0.443721	0.941712
O33	O	0.857536	-0.866756	0.441729
O34	O	1.357536	-0.366756	0.941729
C35	C	0.760613	-0.742537	0.301700
C36	C	1.260613	-0.242537	0.801700
C37	C	0.760572	-0.672895	0.301729
C38	C	1.260572	-0.172895	0.801729
C39	C	0.760708	-0.905241	0.464454
C40	C	1.260708	-0.405241	0.964454
C41	C	0.760723	-0.905263	0.534096
C42	C	1.260723	-0.405263	1.034096
C43	C	0.760981	-1.068747	0.301634
C44	C	1.260981	-0.568747	0.801634
C45	C	0.761059	-1.138389	0.301620
C46	C	1.261059	-0.638389	0.801620
C47	C	1.172276	-0.905320	0.301668
C48	C	1.672276	-0.405320	0.801668
C49	C	1.350920	-0.905321	0.301674
C50	C	1.850920	-0.405321	0.801674
C51	C	0.760919	-0.905424	0.138243
C52	C	1.260919	-0.405424	0.638243
C53	C	0.760971	-0.905467	0.068602
C54	C	1.260971	-0.405467	0.568602
C55	C	0.861291	-0.640172	0.341857
C56	C	1.361291	-0.140172	0.841857
C57	C	0.861361	-0.574737	0.341841
C58	C	1.361361	-0.074737	0.841841
C59	C	0.760684	-0.542027	0.301705
C60	C	1.260684	-0.042027	0.801705
C61	C	0.659959	-0.574758	0.261570
C62	C	1.159959	-0.074758	0.761570
C63	C	0.659902	-0.640192	0.261582
C64	C	1.159902	-0.140192	0.761582
C65	C	0.618664	-0.438323	0.296652
C66	C	1.118664	0.061677	0.796652
C67	C	0.618717	-0.372890	0.296644
C68	C	1.118717	0.127110	0.796644
C69	C	0.760859	-0.340206	0.301664
C70	C	1.260859	0.159794	0.801664
C71	C	0.902951	-0.372964	0.306705
C72	C	1.402951	0.127036	0.806705
C73	C	0.902895	-0.438398	0.306717
C74	C	1.402895	0.061602	0.806717
C75	C	0.760735	-0.471075	0.301687
C76	C	1.260735	0.028925	0.801687
C77	C	0.861662	-0.236531	0.341777
C78	C	1.361662	0.263469	0.841777
C79	C	0.861735	-0.171094	0.341757
C80	C	1.361735	0.328906	0.841757
C81	C	0.660318	-0.171117	0.261489
C82	C	1.160318	0.328883	0.761489
C83	C	0.660260	-0.236552	0.261506
C84	C	1.160260	0.263448	0.761506
C85	C	0.760929	-0.269255	0.301653
C86	C	1.260929	0.230745	0.801653
C87	C	0.659972	-0.945374	0.566779
C88	C	1.159972	-0.445374	1.066779
C89	C	0.660007	-0.945403	0.632214
C90	C	1.160007	-0.445403	1.132214
C91	C	0.760777	-0.905310	0.664964
C92	C	1.260777	-0.405310	1.164964
C93	C	0.861548	-0.865197	0.632273
C94	C	1.361548	-0.365197	1.132273
C95	C	0.861521	-0.865173	0.566839
C96	C	1.361521	-0.365173	1.066839
C97	C	0.773092	-0.848894	0.768695
C98	C	1.273092	-0.348894	1.268695
C99	C	0.773108	-0.848917	0.834128
C100	C	1.273108	-0.348917	1.334128
C101	C	0.760870	-0.905383	0.866785
C102	C	1.260870	-0.405383	1.366785
C103	C	0.748583	-0.961830	0.834000
C104	C	1.248583	-0.461830	1.334000
C105	C	0.748556	-0.961806	0.768566
C106	C	1.248556	-0.461806	1.268566
C107	C	0.760819	-0.905332	0.735916
C108	C	1.260819	-0.405332	1.235916
C109	C	0.660152	-0.945529	0.970420
C110	C	1.160152	-0.445529	1.470420
C111	C	0.660198	-0.945559	1.035857
C112	C	1.160198	-0.445559	1.535857
C113	C	0.861731	-0.865347	1.035914
C114	C	1.361731	-0.365347	1.535914
C115	C	0.861693	-0.865323	0.970479
C116	C	1.361693	-0.365323	1.470479
C117	C	0.760895	-0.905413	0.937736
C118	C	1.260895	-0.405413	1.437736
H119	H	0.943266	-0.666795	0.374547
H120	H	1.443266	-0.166795	0.874547
H121	H	0.577885	-0.666835	0.228903
H122	H	1.077885	-0.166835	0.728903
Br123	Br	1.095723	-0.482853	0.313555
Br124	Br	1.595723	0.017147	0.813555
H125	H	0.783064	-0.802908	0.742113
H126	H	1.283064	-0.302908	1.242113
Br127	Br	0.731949	-1.038468	0.878311
Br128	Br	1.231949	-0.538468	1.378311
H129	H	0.503017	-0.346224	0.292543
H130	H	1.003017	0.153776	0.792543
Br131	Br	0.425739	-0.482673	0.289839
Br132	Br	0.925739	0.017327	0.789839
Br133	Br	0.998288	-0.280917	0.396258
Br134	Br	1.498288	0.219083	0.896258
H135	H	0.577964	-0.978069	0.658830
H136	H	1.077964	-0.478069	1.158830
H137	H	0.943762	-0.144452	0.374433
H138	H	1.443762	0.355548	0.874433
H139	H	0.943384	-0.548088	0.374518
H140	H	1.443384	-0.048088	0.874518
H141	H	1.018697	-0.346354	0.310792
H142	H	1.518697	0.153646	0.810792
Br143	Br	0.523353	-0.999934	0.925980
Br144	Br	1.023353	-0.499934	1.425980
Br145	Br	0.523197	-0.999790	0.522345
Br146	Br	1.023197	-0.499790	1.022345
H147	H	0.577990	-0.548122	0.228889
H148	H	1.077990	-0.048122	0.728889
H149	H	0.943787	-0.832706	1.062578
H150	H	1.443787	-0.332706	1.562578
H151	H	0.578235	-0.263195	0.228833
H152	H	1.078235	0.236805	0.728833
H153	H	0.578353	-0.144485	0.228807
H154	H	1.078353	0.355515	0.728807
Br155	Br	0.789774	-0.772312	0.878615
Br156	Br	1.289774	-0.272312	1.378615
Br157	Br	0.998268	-0.810734	0.522479
Br158	Br	1.498268	-0.310734	1.022479
Br159	Br	0.731893	-1.038407	0.724074
Br160	Br	1.231893	-0.538407	1.224074
H161	H	0.578157	-0.978226	1.062467
H162	H	1.078157	-0.478226	1.562467
H163	H	0.943727	-0.832658	0.943866
H164	H	1.443727	-0.332658	1.443866
H165	H	0.943599	-0.832554	0.658942
H166	H	1.443599	-0.332554	1.158942
