data_functionalizedCrystal
_audit_creation_method	'MofGen! by Chris Wilmer'
_symmetry_space_group_name_H-M	'P1'
_symmetry_Int_Tables_number	1
_symmetry_cell_setting	triclinic
loop_
_symmetry_equiv_pos_as_xyz
  x,y,z
_cell_length_a	10.654550
_cell_length_b	16.109301
_cell_length_c	9.730223
_cell_angle_alpha	89.997247
_cell_angle_beta	89.996251
_cell_angle_gamma	83.973192
loop_
_atom_site_label
_atom_site_type_symbol
_atom_site_fract_x
_atom_site_fract_y
_atom_site_fract_z
O1	O	1.666250	0.116770	-0.114408
O2	O	1.300620	0.127896	-0.114386
O3	O	1.493479	0.001362	-0.114384
O4	O	1.473391	0.243304	-0.114410
O5	O	1.493477	0.001365	0.114196
O6	O	1.300618	0.127899	0.114194
O7	O	1.666248	0.116773	0.114172
Zn8	Zn	1.483433	0.122337	0.150475
Zn9	Zn	1.483436	0.122332	-0.150689
O10	O	1.473389	0.243307	0.114170
C11	C	1.253832	0.127080	-0.000093
C12	C	1.114422	0.124636	-0.000085
C13	C	1.033926	0.199138	-0.000113
C14	C	0.902936	0.196836	-0.000136
C15	C	0.932952	0.045526	-0.000109
C16	C	1.063939	0.047828	-0.000076
C17	C	1.016595	0.286496	-0.000135
C18	C	0.885606	0.284194	-0.000158
C19	C	1.492665	-0.029616	-0.000093
C20	C	1.490225	-0.121926	-0.000091
C21	C	1.598991	-0.343552	-0.000119
C22	C	1.596689	-0.430286	-0.000130
C23	C	1.367868	-0.411772	-0.000111
C24	C	1.370172	-0.325040	-0.000110
C25	C	1.485737	-0.290932	-0.000107
C26	C	1.481131	-0.464399	-0.000119
C27	C	1.478634	-0.558440	-0.000131
C28	C	1.488234	-0.196885	-0.000097
C29	C	1.713036	0.117589	-0.000124
C30	C	1.852446	0.120033	-0.000141
C31	C	1.474204	0.274286	-0.000124
C32	C	1.476643	0.366595	-0.000135
N33	N	1.483440	0.122339	0.356011
N34	N	1.483438	0.122324	-0.356225
C35	C	1.568859	0.066329	0.427939
C36	C	1.568856	0.066319	0.571822
C37	C	1.398010	0.178336	0.571837
C38	C	1.398008	0.178342	0.427957
C39	C	1.667500	0.001659	0.427931
C40	C	1.667497	0.001649	0.571814
H41	H	1.129476	-0.012838	-0.000033
H42	H	0.839575	0.310596	0.098523
C43	C	1.725361	-0.118495	0.713087
C44	C	1.627431	-0.079867	0.632096
H45	H	1.700622	-0.168813	0.750316
H46	H	1.798648	-0.130716	0.658123
H47	H	1.743213	-0.082154	0.785763
H48	H	1.609586	-0.116205	0.559413
H49	H	1.554122	-0.067649	0.687062
C50	C	0.745485	-0.025189	-0.000148
C51	C	0.877456	-0.038899	-0.000113
H52	H	0.711230	-0.077312	-0.000160
H53	H	0.717841	0.005513	0.079550
H54	H	0.717885	0.005518	-0.079872
H55	H	0.905058	-0.069601	0.079617
H56	H	0.905112	-0.069615	-0.079819
H57	H	0.843427	0.317108	-0.095829
H58	H	1.758409	0.021908	0.383296
C59	C	0.948208	0.358278	0.207302
C60	C	1.055579	0.332613	0.129004
H61	H	0.972279	0.386743	0.287029
H62	H	0.891467	0.394661	0.154141
H63	H	0.908072	0.310833	0.233856
H64	H	1.095709	0.380060	0.102441
H65	H	1.112341	0.296229	0.182175
C66	C	0.961919	0.346365	-0.220879
C67	C	1.064233	0.324050	-0.133353
H68	H	0.991332	0.369551	-0.303120
H69	H	0.921283	0.298249	-0.242291
H70	H	0.903764	0.386440	-0.176591
H71	H	1.122383	0.283970	-0.177638
H72	H	1.104889	0.372172	-0.111944
H73	H	1.688912	-0.473126	-0.000143
H74	H	1.693091	-0.315785	-0.000119
C75	C	1.876378	0.032552	0.512599
C76	C	1.797518	0.020875	0.624534
H77	H	1.956641	0.044424	0.545150
H78	H	1.885961	-0.016729	0.458364
H79	H	1.840019	0.077891	0.458382
H80	H	1.833873	-0.024468	0.678746
H81	H	1.787938	0.070161	0.678792
C82	C	1.240012	-0.216761	-0.117609
C83	C	1.245671	-0.267194	-0.000101
H84	H	1.163150	-0.181054	-0.117610
H85	H	1.309157	-0.184038	-0.117604
H86	H	1.243869	-0.250989	-0.197309
H87	H	1.241823	-0.232965	0.079599
H88	H	1.176507	-0.299920	-0.000094
H89	H	1.273779	-0.439553	-0.000111
C90	C	1.324174	0.321817	0.383675
C91	C	1.304105	0.239907	0.348896
H92	H	1.266203	0.359825	0.334859
H93	H	1.311949	0.329820	0.479650
H94	H	1.407978	0.331359	0.360078
H95	H	1.220304	0.230362	0.372503
H96	H	1.316320	0.231900	0.252899
C97	C	1.180590	0.225805	0.616158
C98	C	1.304108	0.239892	0.650929
H99	H	1.122620	0.263804	0.664993
H100	H	1.168375	0.233831	0.520187
H101	H	1.167004	0.170226	0.639738
H102	H	1.317698	0.295468	0.627340
H103	H	1.316329	0.231872	0.746922
H104	H	1.646924	-0.062244	0.388885
