data_functionalizedCrystal
_audit_creation_method	'MofGen! by Chris Wilmer'
_symmetry_space_group_name_H-M	'P1'
_symmetry_Int_Tables_number	1
_symmetry_cell_setting	triclinic
loop_
_symmetry_equiv_pos_as_xyz
  x,y,z
_cell_length_a	14.044190
_cell_length_b	14.044220
_cell_length_c	9.130313
_cell_angle_alpha	90.004466
_cell_angle_beta	89.993628
_cell_angle_gamma	93.190328
loop_
_atom_site_label
_atom_site_type_symbol
_atom_site_fract_x
_atom_site_fract_y
_atom_site_fract_z
O1	O	0.230164	1.277168	-0.121673
O2	O	0.730164	1.777168	0.378327
O3	O	0.221858	1.000496	-0.121709
O4	O	0.721858	1.500496	0.378291
O5	O	0.087675	1.134676	-0.121663
O6	O	0.587675	1.634676	0.378337
O7	O	0.364347	1.142989	-0.121720
O8	O	0.864347	1.642989	0.378280
O9	O	0.087678	1.134674	0.121936
O10	O	0.587678	1.634674	0.621936
O11	O	0.221862	1.000495	0.121890
O12	O	0.721862	1.500495	0.621890
O13	O	0.230167	1.277167	0.121926
O14	O	0.730167	1.777167	0.621926
Cu15	Cu	0.226015	1.138831	0.144150
Cu16	Cu	0.726015	1.638831	0.644150
Cu17	Cu	0.226010	1.138832	-0.143934
Cu18	Cu	0.726010	1.638832	0.356066
O19	O	0.364351	1.142987	0.121879
O20	O	0.864351	1.642987	0.621879
C21	C	0.052054	1.131039	0.000140
C22	C	0.552054	1.631039	0.500140
C23	C	-0.054089	1.120191	0.000152
C24	C	0.445911	1.620191	0.500152
C25	C	0.218224	0.964874	0.000086
C26	C	0.718224	1.464874	0.500086
C27	C	0.207380	0.858731	0.000073
C28	C	0.707380	1.358731	0.500073
C29	C	-0.299547	1.177292	0.000102
C30	C	0.200453	1.677292	0.500102
C31	C	-0.248422	1.100375	0.000102
C32	C	0.251578	1.600375	0.500102
C33	C	-0.140285	1.111404	0.000130
C34	C	0.359715	1.611404	0.500130
C35	C	-0.407694	1.166265	0.000074
C36	C	0.092306	1.666265	0.500074
C37	C	0.187553	0.664392	0.000106
C38	C	0.687553	1.164392	0.500106
C39	C	0.264468	0.613264	0.000097
C40	C	0.764468	1.113264	0.500097
C41	C	0.253436	0.505128	0.000115
C42	C	0.753436	1.005128	0.500115
C43	C	0.198583	0.772539	0.000088
C44	C	0.698583	1.272539	0.500088
C45	C	0.399971	1.146624	0.000073
C46	C	0.899971	1.646624	0.500073
C47	C	0.506114	1.157472	0.000052
C48	C	1.006114	1.657472	0.500052
C49	C	0.233801	1.312789	0.000127
C50	C	0.733801	1.812789	0.500127
C51	C	0.244646	1.418932	0.000130
C52	C	0.744646	1.918932	0.500130
N53	N	0.226018	1.138836	0.346773
N54	N	0.726018	1.638836	0.846773
N55	N	0.226000	1.138834	-0.346556
N56	N	0.726000	1.638834	0.153444
C57	C	0.166625	1.198269	0.423445
C58	C	0.666625	1.698269	0.923445
C59	C	0.166613	1.198266	0.576782
C60	C	0.666613	1.698266	1.076782
C61	C	0.285396	1.079394	0.576760
C62	C	0.785396	1.579394	1.076760
C63	C	0.285402	1.079393	0.423426
C64	C	0.785402	1.579393	0.923426
C65	C	0.107241	1.257712	0.346792
C66	C	0.607241	1.757712	0.846792
C67	C	0.047844	1.317151	0.423464
C68	C	0.547844	1.817151	0.923464
C69	C	0.047832	1.317148	0.576801
C70	C	0.547832	1.817148	1.076801
C71	C	0.107218	1.257705	0.653465
C72	C	0.607218	1.757705	1.153465
H73	H	-0.285865	1.026243	0.000084
H74	H	0.214135	1.526243	0.500084
H75	H	-0.262106	1.251418	0.000126
H76	H	0.237894	1.751418	0.500126
F77	F	0.361367	0.662200	0.000071
F78	F	0.861367	1.162200	0.500071
H79	H	0.113425	0.626954	0.000130
H80	H	0.613425	1.126954	0.500130
H81	H	0.107247	1.257723	0.221937
H82	H	0.607247	1.757723	0.721937
H83	H	-0.000538	1.365538	0.639226
H84	H	0.499462	1.865538	1.139226
F85	F	-0.015363	1.380402	0.341872
F86	F	0.484637	1.880402	0.841872
F87	F	0.107192	1.257698	0.816662
F88	F	0.607192	1.757698	1.316662
F89	F	0.348596	1.016138	0.658356
F90	F	0.848596	1.516138	1.158356
H91	H	0.333764	1.030996	0.360999
H92	H	0.833764	1.530996	0.860999
