data_functionalizedCrystal
_audit_creation_method	'MofGen! by Chris Wilmer'
_symmetry_space_group_name_H-M	'P1'
_symmetry_Int_Tables_number	1
_symmetry_cell_setting	triclinic
loop_
_symmetry_equiv_pos_as_xyz
  x,y,z
_cell_length_a	18.101398
_cell_length_b	16.959454
_cell_length_c	16.959447
_cell_angle_alpha	90.026736
_cell_angle_beta	89.989209
_cell_angle_gamma	89.981773
loop_
_atom_site_label
_atom_site_type_symbol
_atom_site_fract_x
_atom_site_fract_y
_atom_site_fract_z
Zn1	Zn	1.132152	0.314705	-0.446854
Zn2	Zn	1.132079	0.446897	-0.314684
Zn3	Zn	1.008318	0.314733	-0.314700
Zn4	Zn	1.008285	0.446841	-0.446830
O5	O	1.070209	0.380794	-0.380767
O6	O	1.235775	0.332253	-0.429324
O7	O	1.115645	0.429401	-0.204075
O8	O	1.024789	0.204118	-0.332247
O9	O	1.235722	0.429374	-0.332219
O10	O	1.115769	0.204098	-0.429340
O11	O	1.024719	0.332300	-0.204087
O12	O	0.904681	0.332245	-0.332224
O13	O	1.024733	0.429278	-0.557444
O14	O	0.904657	0.429305	-0.429300
O15	O	1.115737	0.332198	-0.557462
O16	O	1.115613	0.557501	-0.332197
O17	O	1.024663	0.557459	-0.429284
C18	C	0.877798	0.380772	-0.380761
C19	C	0.795484	0.380782	-0.380778
C20	C	0.644776	0.380797	-0.380777
C21	C	0.613431	0.441958	-0.441760
C22	C	0.527813	0.442206	-0.441579
C23	C	0.496393	0.380811	-0.380777
C24	C	0.527455	0.403044	-0.297375
C25	C	0.613100	0.403480	-0.297728
C26	C	0.613238	0.297251	-0.402467
C27	C	0.527588	0.297709	-0.404304
C28	C	0.412534	0.380818	-0.380772
C29	C	0.728635	0.380792	-0.380776
C30	C	1.070147	0.586160	-0.380753
C31	C	1.070188	0.674017	-0.380774
C32	C	1.070239	0.380729	-0.586935
C33	C	1.070253	0.380701	-0.674792
C34	C	1.263371	0.380816	-0.380773
C35	C	1.345685	0.380826	-0.380775
C36	C	1.070291	0.174626	-0.380798
C37	C	1.070326	0.086769	-0.380811
C38	C	1.022919	1.045501	-0.431315
C39	C	1.117704	1.045484	-0.330299
C40	C	1.117678	0.962938	-0.330292
C41	C	1.070271	0.921670	-0.380796
C42	C	1.022890	0.962947	-0.431308
C43	C	1.165053	0.921654	-0.279776
C44	C	1.165029	0.839103	-0.279766
C45	C	1.117625	0.797834	-0.330275
C46	C	1.070243	0.839116	-0.380789
C47	C	1.022836	0.797848	-0.431293
C48	C	0.975456	0.839129	-0.481812
C49	C	0.975487	0.921677	-0.481816
C50	C	1.117595	0.715285	-0.330270
C51	C	1.022807	0.715294	-0.431286
C52	C	1.022959	0.431162	-1.046261
C53	C	1.117723	0.330072	-1.046274
C54	C	1.117703	0.330089	-0.963728
C55	C	1.070312	0.380644	-0.922445
C56	C	1.022940	0.431182	-0.963707
C57	C	1.165079	0.279557	-0.922459
C58	C	1.165062	0.279573	-0.839908
C59	C	1.117666	0.330124	-0.798624
C60	C	1.070292	0.380664	-0.839891
C61	C	1.022900	0.431219	-0.798608
C62	C	0.975522	0.481755	-0.839874
C63	C	0.975544	0.481734	-0.922423
C64	C	1.117644	0.330146	-0.716075
C65	C	1.022881	0.431239	-0.716054
C66	C	1.070221	0.380802	-0.175401
C67	C	1.070351	0.380607	-0.087544
H68	H	0.634046	0.428250	-0.503783
N69	N	1.216186	0.966165	-0.225313
H70	H	1.246194	0.927490	-0.193309
H71	H	1.186076	1.000462	-0.188713
H72	H	1.156296	1.079090	-0.289176
H73	H	0.633509	0.251686	-0.358055
N74	N	0.641863	0.270337	-0.481669
H75	H	0.697561	0.267184	-0.480037
H76	H	0.626216	0.309198	-0.523572
H77	H	1.156221	0.289002	-0.682480
N78	N	1.216134	0.794582	-0.225289
H79	H	1.246171	0.833252	-0.193299
H80	H	1.250373	0.760295	-0.257501
H81	H	1.203640	0.238423	-0.806317
N82	N	0.639539	0.484356	-0.273441
H83	H	0.595559	0.519391	-0.262609
H84	H	0.670170	0.507905	-0.317283
H85	H	0.984282	0.472400	-0.682447
H86	H	0.936939	0.522921	-0.806251
N87	N	0.500696	0.275480	-0.485603
H88	H	0.544450	0.267445	-0.521690
H89	H	0.468430	0.319075	-0.507041
H90	H	0.633834	0.360836	-0.250732
H91	H	0.984346	1.079116	-0.472448
N92	N	0.499273	0.234156	-0.349802
H93	H	0.443567	0.232208	-0.352568
H94	H	0.515106	0.246239	-0.293990
H95	H	0.984205	0.681699	-0.472415
H96	H	0.936973	0.522880	-0.956029
H97	H	0.936854	0.805519	-0.522929
H98	H	0.507103	0.359863	-0.250690
H99	H	1.156167	0.681678	-0.289135
H100	H	0.936912	0.955296	-0.522945
H101	H	0.634931	0.503514	-0.427544
N102	N	0.499987	0.423094	-0.523307
H103	H	0.543358	0.414515	-0.559795
H104	H	0.468869	0.468178	-0.543568
N105	N	0.971845	0.485652	-1.090762
H106	H	0.979040	0.477965	-1.149321
H107	H	0.983334	0.542113	-1.076327
H108	H	0.505987	0.463439	-0.278730
N109	N	0.500636	0.524211	-0.422513
H110	H	0.544293	0.560338	-0.414189
H111	H	0.469746	0.522577	-0.372943
H112	H	1.156311	0.288917	-1.079892
H113	H	1.203668	0.238403	-0.956078
