data_functionalizedCrystal
_audit_creation_method	'MofGen! by Chris Wilmer'
_symmetry_space_group_name_H-M	'P1'
_symmetry_Int_Tables_number	1
_symmetry_cell_setting	triclinic
loop_
_symmetry_equiv_pos_as_xyz
  x,y,z
_cell_length_a	19.288864
_cell_length_b	17.038272
_cell_length_c	18.366186
_cell_angle_alpha	89.993834
_cell_angle_beta	89.977106
_cell_angle_gamma	87.123901
loop_
_atom_site_label
_atom_site_type_symbol
_atom_site_fract_x
_atom_site_fract_y
_atom_site_fract_z
O1	O	0.927386	0.097514	-0.060785
O2	O	1.427386	0.597514	0.439215
O3	O	0.725939	0.110668	-0.060736
O4	O	1.225939	0.610668	0.439264
O5	O	0.825465	-0.009720	-0.060755
O6	O	1.325465	0.490280	0.439245
O7	O	0.827860	0.217903	-0.060767
O8	O	1.327860	0.717903	0.439233
O9	O	0.825447	-0.009726	0.060345
O10	O	1.325447	0.490274	0.560345
O11	O	0.725921	0.110662	0.060363
O12	O	1.225921	0.610662	0.560363
O13	O	0.927368	0.097508	0.060314
O14	O	1.427368	0.597508	0.560314
Zn15	Zn	0.826641	0.104084	0.079566
Zn16	Zn	1.326641	0.604084	0.579566
Zn17	Zn	0.826666	0.104092	-0.079988
Zn18	Zn	1.326666	0.604092	0.420012
O19	O	0.827841	0.217897	0.060333
O20	O	1.327841	0.717897	0.560333
C21	C	0.700027	0.110242	-0.000180
C22	C	1.200027	0.610242	0.499820
C23	C	0.622845	0.108972	-0.000161
C24	C	1.122845	0.608972	0.499839
C25	C	0.582519	0.179610	-0.000176
C26	C	1.082519	0.679610	0.499824
C27	C	0.509998	0.178417	-0.000184
C28	C	1.009998	0.678417	0.499816
C29	C	0.477806	0.106580	-0.000191
C30	C	0.977806	0.606580	0.499809
C31	C	0.518141	0.035932	-0.000172
C32	C	1.018141	0.535932	0.499828
C33	C	0.590661	0.037128	-0.000157
C34	C	1.090661	0.537128	0.499843
C35	C	0.366057	0.050111	-0.042639
C36	C	0.866057	0.550111	0.457361
C37	C	0.293539	0.048918	-0.042659
C38	C	0.793539	0.548918	0.457341
C39	C	0.254132	0.102889	-0.000235
C40	C	0.754132	0.602889	0.499765
C41	C	0.287253	0.158066	0.042199
C42	C	0.787253	0.658066	0.542199
C43	C	0.359772	0.159262	0.042214
C44	C	0.859772	0.659262	0.542214
C45	C	0.399172	0.105276	-0.000207
C46	C	0.899172	0.605276	0.499793
C47	C	0.135171	0.172238	-0.000258
C48	C	0.635171	0.672238	0.499742
C49	C	0.062649	0.171042	-0.000262
C50	C	0.562649	0.671042	0.499738
C51	C	0.070793	0.028556	-0.000257
C52	C	0.570793	0.528556	0.499743
C53	C	0.143314	0.029754	-0.000246
C54	C	0.643314	0.529754	0.499754
C55	C	0.175498	0.101598	-0.000250
C56	C	0.675498	0.601598	0.499750
C57	C	0.823278	-0.038845	-0.000205
C58	C	1.323278	0.461155	0.499795
C59	C	0.816781	-0.125616	-0.000203
C60	C	1.316781	0.374384	0.499797
C61	C	0.876437	-0.175923	-0.000217
C62	C	1.376437	0.324077	0.499783
C63	C	0.870327	-0.257454	-0.000222
C64	C	1.370327	0.242546	0.499778
C65	C	0.804561	-0.288677	-0.000209
C66	C	1.304561	0.211323	0.499791
C67	C	0.744901	-0.238363	-0.000197
C68	C	1.244901	0.261637	0.499803
C69	C	0.751011	-0.156834	-0.000197
C70	C	1.251011	0.343166	0.499803
C71	C	0.782976	-0.534365	-0.000213
C72	C	1.282976	-0.034365	0.499787
C73	C	0.776870	-0.615900	-0.000211
C74	C	1.276870	-0.115900	0.499789
C75	C	0.902297	-0.634985	-0.000238
C76	C	1.402297	-0.134985	0.499762
C77	C	0.908402	-0.553454	-0.000234
C78	C	1.408402	-0.053454	0.499766
C79	C	0.848741	-0.503148	-0.000226
C80	C	1.348741	-0.003148	0.499774
C81	C	0.798315	-0.372014	-0.000212
C82	C	1.298315	0.127986	0.499788
C83	C	0.854988	-0.419812	-0.000228
C84	C	1.354988	0.080188	0.499772
C85	C	0.953279	0.097934	-0.000244
C86	C	1.453279	0.597934	0.499756
C87	C	1.030462	0.099205	-0.000268
C88	C	1.530462	0.599205	0.499732
C89	C	0.830029	0.247021	-0.000219
C90	C	1.330029	0.747021	0.499781
C91	C	0.836526	0.333793	-0.000225
C92	C	1.336526	0.833793	0.499775
N93	N	0.826630	0.104079	0.188457
N94	N	1.326630	0.604079	0.688457
N95	N	0.826682	0.104092	-0.188879
N96	N	1.326682	0.604092	0.311121
C97	C	0.870717	0.050797	0.226549
C98	C	1.370717	0.550797	0.726549
C99	C	0.870721	0.050793	0.302777
C100	C	1.370721	0.550793	0.802777
C101	C	0.826645	0.104085	0.340910
C102	C	1.326645	0.604085	0.840910
C103	C	0.782550	0.157371	0.302808
C104	C	1.282550	0.657371	0.802808
C105	C	0.782542	0.157368	0.226582
C106	C	1.282542	0.657368	0.726582
C107	C	0.821754	0.175309	0.461668
C108	C	1.321754	0.675309	0.961668
C109	C	0.821767	0.175313	0.537893
C110	C	1.321767	0.675313	1.037893
C111	C	0.826666	0.104095	0.576017
C112	C	1.326666	0.604095	1.076017
C113	C	0.831567	0.032869	0.537908
C114	C	1.331567	0.532869	1.037908
C115	C	0.831559	0.032866	0.461681
C116	C	1.331559	0.532866	0.961681
C117	C	0.826649	0.104094	0.423564
C118	C	1.326649	0.604094	0.923564
C119	C	0.870760	0.050805	0.696764
C120	C	1.370760	0.550805	1.196764
C121	C	0.870759	0.050800	0.772993
C122	C	1.370759	0.550800	1.272993
C123	C	0.782591	0.157385	0.773023
C124	C	1.282591	0.657385	1.273023
C125	C	0.782588	0.157383	0.696796
C126	C	1.282588	0.657383	1.196796
C127	C	0.826676	0.104093	0.658671
C128	C	1.326676	0.604093	1.158671
H129	H	0.161377	0.230738	-0.000251
H130	H	0.661377	0.730738	0.499749
O131	O	0.408549	-0.008110	-0.088401
O132	O	0.908549	0.491890	0.411599
H133	H	0.443668	-0.044424	-0.052611
H134	H	0.943668	0.455576	0.447389
H135	H	0.835556	-0.025124	0.568947
H136	H	1.335556	0.474876	1.068947
O137	O	0.735021	0.214857	0.343940
O138	O	1.235021	0.714857	0.843940
H139	H	0.747469	0.275765	0.329285
H140	H	1.247469	0.775765	0.829285
H141	H	0.817753	0.233307	0.430633
H142	H	1.317753	0.733307	0.930633
H143	H	0.029816	0.228567	-0.000270
H144	H	0.529816	0.728567	0.499730
O145	O	0.686667	-0.102572	-0.000172
O146	O	1.186667	0.397428	0.499828
H147	H	0.655426	-0.113641	-0.049519
H148	H	1.155426	0.386359	0.450481
O149	O	0.734995	0.214844	0.185489
O150	O	1.234995	0.714844	0.685489
H151	H	0.704348	0.251905	0.224808
H152	H	1.204348	0.751905	0.724808
O153	O	0.979339	-0.519787	-0.000264
O154	O	1.479339	-0.019787	0.499736
H155	H	1.008237	-0.540024	0.049080
H156	H	1.508237	-0.040024	0.549080
O157	O	0.244760	0.216284	0.087960
O158	O	0.744760	0.716284	0.587960
H159	H	0.259116	0.208446	0.146120
H160	H	0.759116	0.708446	0.646120
H161	H	0.044583	-0.029935	-0.000308
H162	H	0.544583	0.470065	0.499692
O163	O	0.673969	-0.272042	-0.000179
O164	O	1.173969	0.227958	0.499821
H165	H	0.645078	-0.251820	-0.049533
H166	H	1.145078	0.248180	0.450467
O167	O	0.918299	-0.006677	0.655635
O168	O	1.418299	0.493323	1.155635
H169	H	0.948948	-0.043739	0.694933
H170	H	1.448948	0.456261	1.194933
H171	H	0.918906	-0.298411	-0.000232
H172	H	1.418906	0.201589	0.499768
H173	H	0.908534	-0.394387	-0.000255
H174	H	1.408534	0.105613	0.499745
H175	H	0.906658	0.007407	0.804009
H176	H	1.406658	0.507407	1.304009
O177	O	0.918277	-0.006676	0.343874
O178	O	1.418277	0.493324	0.843874
H179	H	0.953964	0.026146	0.378581
H180	H	1.453964	0.526146	0.878581
H181	H	0.950869	-0.675953	-0.000246
H182	H	1.450869	-0.175953	0.499754
O183	O	0.727384	-0.405695	-0.000182
O184	O	1.227384	0.094305	0.499818
H185	H	0.721608	-0.442384	-0.049535
H186	H	1.221608	0.057616	0.450465
H187	H	0.266578	0.003993	-0.077214
H188	H	0.766578	0.503993	0.422786
H189	H	0.835547	-0.025128	0.430655
H190	H	1.335547	0.474872	0.930655
O191	O	0.617235	0.257095	-0.000159
O192	O	1.117235	0.757095	0.499841
H193	H	0.577005	0.306014	-0.000160
H194	H	1.077005	0.806014	0.499840
O195	O	0.466490	0.254607	-0.000208
O196	O	0.966490	0.754607	0.499792
H197	H	0.501054	0.304764	-0.000214
H198	H	1.001054	0.804764	0.499786
O199	O	0.634157	-0.039067	-0.000141
O200	O	1.134157	0.460933	0.499859
H201	H	0.689992	-0.026166	-0.000125
H202	H	1.189992	0.473834	0.499875
H203	H	0.723313	-0.641318	-0.000188
H204	H	1.223313	-0.141318	0.499812
O205	O	0.718631	-0.480110	-0.000186
O206	O	1.218631	0.019890	0.499814
H207	H	0.671876	-0.515521	-0.000164
H208	H	1.171876	-0.015521	0.499836
O209	O	0.918257	-0.006687	0.185426
O210	O	1.418257	0.493313	0.685426
H211	H	0.948909	-0.043744	0.224726
H212	H	1.448909	0.456256	0.724726
O213	O	0.735052	0.214869	0.814140
O214	O	1.235052	0.714869	1.314140
H215	H	0.742466	0.205924	0.873545
H216	H	1.242466	0.705924	1.373545
O217	O	0.816490	0.252135	0.578987
O218	O	1.316490	0.752135	1.078987
H219	H	0.769352	0.254068	0.613750
H220	H	1.269352	0.754068	1.113750
H221	H	0.176148	-0.027768	-0.000238
H222	H	0.676148	0.472232	0.499762
O223	O	0.395500	0.218740	0.088009
O224	O	0.895500	0.718740	0.588009
H225	H	0.355921	0.256060	0.117522
H226	H	0.855921	0.756060	0.617522
O227	O	0.483427	-0.041551	-0.000180
O228	O	0.983427	0.458449	0.499820
H229	H	0.426224	-0.030516	-0.000201
H230	H	0.926224	0.469484	0.499799
O231	O	0.735043	0.214855	0.655700
O232	O	1.235043	0.714855	1.155700
H233	H	0.747494	0.275769	0.670308
H234	H	1.247494	0.775769	1.170308
O235	O	0.947370	-0.142248	-0.000239
O236	O	1.447370	0.357752	0.499761
H237	H	0.987826	-0.190930	-0.000259
H238	H	1.487826	0.309070	0.499741
