data_functionalizedCrystal
_audit_creation_method	'MofGen! by Chris Wilmer'
_symmetry_space_group_name_H-M	'P1'
_symmetry_Int_Tables_number	1
_symmetry_cell_setting	triclinic
loop_
_symmetry_equiv_pos_as_xyz
  x,y,z
_cell_length_a	23.532355
_cell_length_b	14.519731
_cell_length_c	12.996460
_cell_angle_alpha	89.992872
_cell_angle_beta	90.000230
_cell_angle_gamma	83.258176
loop_
_atom_site_label
_atom_site_type_symbol
_atom_site_fract_x
_atom_site_fract_y
_atom_site_fract_z
O1	O	0.755789	0.111722	-0.085429
O2	O	0.589995	0.127970	-0.085462
O3	O	0.677282	-0.014445	-0.085436
O4	O	0.668503	0.254136	-0.085456
O5	O	0.677272	-0.014452	0.085698
O6	O	0.589986	0.127962	0.085672
O7	O	0.755780	0.111714	0.085705
Cu8	Cu	0.672882	0.119837	0.101314
Cu9	Cu	0.672893	0.119847	-0.101072
O10	O	0.668494	0.254128	0.085678
C11	C	0.676866	-0.048803	0.000132
C12	C	0.675633	-0.151168	0.000132
C13	C	0.568772	0.127560	0.000100
C14	C	0.505548	0.126339	0.000088
C15	C	0.674631	-0.234300	0.000129
C16	C	0.673380	-0.338594	0.000121
C17	C	0.672387	-0.421721	0.000114
C18	C	0.671135	-0.526021	0.000108
C19	C	0.113494	0.118662	0.093417
C20	C	0.054090	0.117500	0.093421
O21	O	0.023364	0.116865	0.172755
N22	N	0.024384	0.116929	0.000136
C23	C	0.054086	0.117509	-0.093159
O24	O	0.023364	0.116915	-0.172504
C25	C	0.113490	0.118664	-0.093162
C26	C	0.143192	0.119246	0.000129
C27	C	0.143197	0.119242	0.186700
C28	C	0.202597	0.120406	0.186696
C29	C	0.232295	0.120989	0.093408
C30	C	0.202593	0.120409	0.000125
C31	C	0.143192	0.119238	-0.186455
C32	C	0.202600	0.120393	-0.186450
C33	C	0.232302	0.120974	-0.093159
C34	C	0.291691	0.122156	-0.093167
N35	N	0.321398	0.122727	0.000117
C36	C	0.291699	0.122144	0.093405
C37	C	-0.070667	0.115082	-0.093145
C38	C	-0.130070	0.113933	-0.093143
C39	C	-0.130062	0.113923	0.093437
C40	C	-0.070658	0.115078	0.093434
C41	C	-0.040961	0.115654	0.000140
C42	C	0.416445	0.124588	0.093389
C43	C	0.475850	0.125756	0.093376
C44	C	0.475837	0.125761	-0.093203
C45	C	0.416437	0.124599	-0.093191
C46	C	0.386742	0.124009	0.000113
O47	O	0.322455	0.122788	-0.172461
O48	O	0.322430	0.122726	0.172737
C49	C	0.777003	0.112124	0.000140
C50	C	0.840227	0.113345	0.000145
C51	C	0.668909	0.288487	0.000109
C52	C	0.670142	0.390852	0.000101
N53	N	0.672879	0.119830	0.243661
N54	N	0.672901	0.119846	-0.243419
C55	C	0.672892	0.119847	0.663475
C56	C	0.672887	0.119846	0.546670
C57	C	0.672886	0.119840	0.453572
C58	C	0.672880	0.119837	0.336759
H59	H	0.500031	0.126232	0.169348
H60	H	0.392274	0.124117	0.169366
H61	H	0.119023	0.118765	0.262670
N62	N	0.232925	0.120985	0.282000
N63	N	0.206393	0.120452	0.365278
H64	H	0.227809	0.120854	0.432593
N65	N	-0.040330	0.115684	0.188736
N66	N	-0.066862	0.115175	0.272017
H67	H	-0.045446	0.115606	0.339330
N68	N	-0.160414	0.113336	0.188722
N69	N	-0.213453	0.112306	0.188700
H70	H	-0.234891	0.111895	0.255991
N71	N	-0.160399	0.113361	-0.188447
N72	N	-0.133870	0.113887	-0.271728
H73	H	-0.155287	0.113479	-0.339040
N74	N	-0.040343	0.115674	-0.188459
N75	N	-0.066878	0.115162	-0.271735
H76	H	-0.045465	0.115579	-0.339052
H77	H	0.500028	0.126240	-0.169156
H78	H	0.119019	0.118764	-0.262423
H79	H	0.392251	0.124140	-0.169156
N80	N	0.232926	0.120973	-0.281760
N81	N	0.206395	0.120451	-0.365040
H82	H	0.227811	0.120861	-0.432354
