data_functionalizedCrystal
_audit_creation_method	'MofGen! by Chris Wilmer'
_symmetry_space_group_name_H-M	'P1'
_symmetry_Int_Tables_number	1
_symmetry_cell_setting	triclinic
loop_
_symmetry_equiv_pos_as_xyz
  x,y,z
_cell_length_a	19.805407
_cell_length_b	25.639239
_cell_length_c	19.805399
_cell_angle_alpha	89.971274
_cell_angle_beta	89.980427
_cell_angle_gamma	90.038686
loop_
_atom_site_label
_atom_site_type_symbol
_atom_site_fract_x
_atom_site_fract_y
_atom_site_fract_z
Zn1	Zn	1.034678	-0.208163	-0.382714
Zn2	Zn	1.034569	-0.295597	-0.269524
Zn3	Zn	0.921493	-0.208177	-0.269539
Zn4	Zn	0.921432	-0.295569	-0.382670
O5	O	0.978043	-0.251877	-0.326112
O6	O	1.129380	-0.219767	-0.367711
O7	O	1.019548	-0.284018	-0.174809
O8	O	0.936578	-0.135010	-0.284576
O9	O	1.129300	-0.284004	-0.284551
O10	O	1.019735	-0.135000	-0.367726
O11	O	0.936472	-0.219791	-0.174820
O12	O	0.826768	-0.219764	-0.284534
O13	O	0.936475	-0.283957	-0.477393
O14	O	0.826723	-0.283971	-0.367651
O15	O	1.019676	-0.219740	-0.477425
O16	O	1.019489	-0.368758	-0.284508
O17	O	0.936368	-0.368738	-0.367637
C18	C	0.802187	-0.251867	-0.326090
C19	C	0.726955	-0.251875	-0.326097
C20	C	0.691605	-0.285357	-0.369306
C21	C	0.620917	-0.285358	-0.369315
C22	C	0.585579	-0.251879	-0.326112
C23	C	0.620934	-0.218393	-0.282901
C24	C	0.691621	-0.218390	-0.282895
C25	C	0.335860	-0.218404	-0.282923
C26	C	0.265168	-0.218411	-0.282931
C27	C	0.265156	-0.285373	-0.369343
C28	C	0.335843	-0.285370	-0.369338
C29	C	0.371192	-0.251882	-0.326129
C30	C	0.447840	-0.251881	-0.326121
C31	C	0.508932	-0.251883	-0.326117
C32	C	0.977929	-0.387719	-0.326081
C33	C	0.977942	-0.445833	-0.326090
C34	C	1.021437	-0.806194	-0.282901
C35	C	1.021463	-0.860799	-0.282910
O36	O	1.058326	-0.889034	-0.246154
N37	N	0.978162	-0.888116	-0.326157
C38	C	0.934836	-0.860825	-0.369402
O39	O	0.898008	-0.889075	-0.406189
C40	C	0.934814	-0.806222	-0.369396
C41	C	0.978113	-0.778908	-0.326141
C42	C	1.064733	-0.778880	-0.239650
C43	C	1.064706	-0.724279	-0.239640
C44	C	1.021382	-0.696993	-0.282881
C45	C	0.978086	-0.724307	-0.326132
C46	C	0.891492	-0.778933	-0.412645
C47	C	0.891474	-0.724326	-0.412635
C48	C	0.934773	-0.697012	-0.369381
C49	C	0.934735	-0.642421	-0.369363
N50	N	0.978036	-0.615104	-0.326116
C51	C	1.021360	-0.642390	-0.282875
C52	C	0.934887	-0.975496	-0.369413
C53	C	0.934906	-1.030098	-0.369416
C54	C	1.021533	-1.030068	-0.282924
C55	C	1.021511	-0.975464	-0.282918
C56	C	0.978188	-0.948179	-0.326166
C57	C	1.021299	-0.527725	-0.282857
C58	C	1.021266	-0.473119	-0.282849
C59	C	0.934641	-0.473155	-0.369343
C60	C	0.934671	-0.527756	-0.369349
C61	C	0.978006	-0.555039	-0.326104
O62	O	0.897893	-0.614151	-0.406101
O63	O	1.058188	-0.614134	-0.246101
C64	C	1.154585	-0.251887	-0.326134
C65	C	1.229817	-0.251891	-0.326144
C66	C	0.978081	-0.251844	-0.502655
C67	C	0.978097	-0.251830	-0.577887
C68	C	0.978175	-0.115504	-0.326158
C69	C	0.978232	-0.057389	-0.326177
C70	C	1.021421	-0.218390	-0.613249
C71	C	1.021428	-0.218375	-0.683937
C72	C	0.978114	-0.251802	-0.719262
C73	C	0.934785	-0.285243	-0.683895
C74	C	0.934775	-0.285255	-0.613208
C75	C	0.934823	-0.285194	-0.968969
C76	C	0.934838	-0.285181	-1.039661
C77	C	1.021476	-0.218314	-1.039698
C78	C	1.021466	-0.218326	-0.969011
C79	C	0.978135	-0.251765	-0.933650
C80	C	0.978127	-0.251780	-0.857001
C81	C	0.978125	-0.251790	-0.795909
C82	C	0.978044	-0.251872	-0.150256
C83	C	0.978159	-0.251738	-0.075024
H84	H	1.056525	-0.450882	-0.247624
C85	C	0.582448	-0.182097	-0.236022
C86	C	0.512976	-0.189274	-0.245262
C87	C	0.477504	-0.155852	-0.202082
H88	H	0.593983	-0.146956	-0.245970
H89	H	0.593967	-0.189704	-0.190511
H90	H	0.501461	-0.181663	-0.290763
H91	H	0.501420	-0.224408	-0.235309
H92	H	0.489023	-0.163460	-0.156571
H93	H	0.489045	-0.120713	-0.212034
H94	H	0.430364	-0.160721	-0.208341
H95	H	1.056708	-0.191146	-0.712726
H96	H	0.720402	-0.191122	-0.247713
C97	C	1.068370	-0.557247	-0.235828
C98	C	1.106263	-0.521631	-0.197941
C99	C	1.149620	-0.548807	-0.154601
H100	H	1.097921	-0.578514	-0.261669
H101	H	1.042521	-0.578571	-0.206278
H102	H	1.132110	-0.500316	-0.227487
H103	H	1.076730	-0.500363	-0.172086
H104	H	1.123772	-0.570131	-0.125051
H105	H	1.179167	-0.570073	-0.180448
H106	H	1.175331	-0.524646	-0.128885
C107	C	0.887831	-0.321653	-0.574843
C108	C	0.902539	-0.373382	-0.592008
C109	C	0.859314	-0.406927	-0.556672
H110	H	0.842335	-0.314071	-0.586387
H111	H	0.894038	-0.316907	-0.527680
H112	H	0.896326	-0.378126	-0.639161
H113	H	0.948026	-0.380980	-0.580463
H114	H	0.865521	-0.402180	-0.509509
H115	H	0.813821	-0.399340	-0.568218
H116	H	0.869292	-0.442028	-0.568309
C117	C	1.111800	-0.694723	-0.192660
C118	C	1.149757	-0.730315	-0.154814
C119	C	1.193159	-0.703111	-0.111536
H120	H	1.086002	-0.673452	-0.163076
H121	H	1.141304	-0.673401	-0.218564
H122	H	1.120256	-0.751628	-0.128911
H123	H	1.175569	-0.751587	-0.184380
H124	H	1.222663	-0.681789	-0.137440
H125	H	1.167355	-0.681841	-0.081956
H126	H	1.218922	-0.727256	-0.085856
C127	C	0.887830	-0.321516	-0.722368
C128	C	0.897123	-0.314359	-0.791842
C129	C	0.853886	-0.347771	-0.827303
H130	H	0.842331	-0.313895	-0.710860
H131	H	0.897705	-0.356659	-0.710811
H132	H	0.887243	-0.279224	-0.803395
H133	H	0.942613	-0.321983	-0.803371
H134	H	0.863762	-0.382914	-0.815745
H135	H	0.808390	-0.340148	-0.815788
H136	H	0.860190	-0.342923	-0.874444
C137	C	1.111904	-0.808506	-0.192834
C138	C	1.155294	-0.839771	-0.231227
C139	C	1.198783	-0.867051	-0.188128
H140	H	1.086165	-0.829895	-0.163281
H141	H	1.137720	-0.784411	-0.167116
H142	H	1.129481	-0.863863	-0.256934
H143	H	1.181048	-0.818395	-0.260778
H144	H	1.224600	-0.842956	-0.162410
H145	H	1.173039	-0.888437	-0.158577
H146	H	1.228233	-0.888263	-0.214171
C147	C	1.068408	-0.181941	-0.930700
C148	C	1.053704	-0.130209	-0.947904
C149	C	1.096925	-0.096673	-0.912622
H150	H	1.113905	-0.189522	-0.942262
H151	H	1.062195	-0.186699	-0.883529
H152	H	1.059922	-0.125454	-0.995064
H153	H	1.008215	-0.122612	-0.936340
H154	H	1.090712	-0.101430	-0.865451
H155	H	1.142419	-0.104258	-0.924187
H156	H	1.086950	-0.061568	-0.924285
H157	H	1.056756	-0.191085	-1.068497
C158	C	0.729846	-0.321727	-0.416289
C159	C	0.683755	-0.351039	-0.454145
C160	C	0.718955	-0.384542	-0.497442
H161	H	0.757395	-0.344528	-0.390419
H162	H	0.757434	-0.301766	-0.445861
H163	H	0.656178	-0.370999	-0.424577
H164	H	0.656204	-0.328252	-0.480028
H165	H	0.746544	-0.364581	-0.527014
H166	H	0.746503	-0.407340	-0.471567
H167	H	0.687688	-0.404431	-0.523137
H168	H	0.236399	-0.191145	-0.247749
H169	H	0.856230	-0.801163	-0.447864
C170	C	1.068712	-1.059705	-0.236121
C171	C	1.112089	-1.090963	-0.274538
C172	C	1.155585	-1.118257	-0.231463
H173	H	1.042978	-1.081099	-0.206571
H174	H	1.094538	-1.035618	-0.210398
H175	H	1.086266	-1.115046	-0.300249
H176	H	1.137838	-1.069581	-0.304087
H177	H	1.181411	-1.094171	-0.205740
H178	H	1.129846	-1.139649	-0.201914
H179	H	1.185026	-1.139465	-0.257523
H180	H	0.899415	-0.549996	-0.404573
C181	C	1.068475	-0.182039	-0.575021
C182	C	1.106404	-0.152741	-0.621123
C183	C	1.149749	-0.119242	-0.585935
H184	H	1.098004	-0.201987	-0.547442
H185	H	1.042616	-0.159233	-0.547464
H186	H	1.132261	-0.175544	-0.648669
H187	H	1.076892	-0.132783	-0.648703
H188	H	1.123890	-0.096436	-0.558377
H189	H	1.179274	-0.139194	-0.558357
H190	H	1.175485	-0.099356	-0.617209
C191	C	0.582415	-0.321656	-0.416202
C192	C	0.512947	-0.314483	-0.406977
C193	C	0.477459	-0.347907	-0.450166
H194	H	0.593884	-0.356796	-0.406253
H195	H	0.593988	-0.314046	-0.461710
H196	H	0.501378	-0.322096	-0.361479
H197	H	0.501457	-0.279350	-0.416931
H198	H	0.489032	-0.340297	-0.495675
H199	H	0.488933	-0.383045	-0.440214
H200	H	0.430321	-0.343041	-0.443918
C201	C	0.887730	-0.321493	-1.077894
C202	C	0.849766	-0.350769	-1.031798
C203	C	0.806361	-0.384218	-1.066993
H204	H	0.913527	-0.344318	-1.105467
H205	H	0.858231	-0.301494	-1.105457
H206	H	0.879262	-0.370767	-1.004246
H207	H	0.823956	-0.327958	-1.004223
H208	H	0.776862	-0.364219	-1.094556
H209	H	0.832163	-0.407040	-1.094565
H210	H	0.780593	-0.404083	-1.035722
H211	H	0.364612	-0.312634	-0.404516
H212	H	1.056769	-0.953228	-0.247697
H213	H	0.899365	-0.450930	-0.404548
H214	H	0.899550	-0.312430	-0.940187
H215	H	0.236367	-0.312639	-0.404528
H216	H	0.899641	-1.052333	-0.404632
H217	H	0.856196	-0.702113	-0.447855
C218	C	0.374111	-0.182027	-0.235939
C219	C	0.328032	-0.152719	-0.198094
C220	C	0.363246	-0.119205	-0.154799
H221	H	0.401714	-0.159224	-0.261810
H222	H	0.401646	-0.201980	-0.206360
H223	H	0.300508	-0.132767	-0.227669
H224	H	0.300427	-0.175508	-0.172210
H225	H	0.390781	-0.139158	-0.125220
H226	H	0.390848	-0.096405	-0.180675
H227	H	0.331987	-0.099319	-0.129111
H228	H	0.899603	-0.953283	-0.404628
