data_functionalizedCrystal
_audit_creation_method	'MofGen! by Chris Wilmer'
_symmetry_space_group_name_H-M	'P1'
_symmetry_Int_Tables_number	1
_symmetry_cell_setting	triclinic
loop_
_symmetry_equiv_pos_as_xyz
  x,y,z
_cell_length_a	18.101395
_cell_length_b	16.959455
_cell_length_c	16.959447
_cell_angle_alpha	89.985678
_cell_angle_beta	89.970532
_cell_angle_gamma	90.028051
loop_
_atom_site_label
_atom_site_type_symbol
_atom_site_fract_x
_atom_site_fract_y
_atom_site_fract_z
Zn1	Zn	-0.294875	1.208323	-0.446913
Zn2	Zn	0.038458	1.541657	-0.113580
Zn3	Zn	0.371791	1.874990	0.219753
Zn4	Zn	-0.418728	1.208220	-0.314737
Zn5	Zn	-0.085395	1.541554	0.018597
Zn6	Zn	0.247938	1.874887	0.351930
Zn7	Zn	-0.294899	1.076152	-0.314751
Zn8	Zn	0.038435	1.409485	0.018582
Zn9	Zn	0.371768	1.742818	0.351916
Zn10	Zn	-0.418673	1.076091	-0.446875
Zn11	Zn	-0.085340	1.409424	-0.113542
Zn12	Zn	0.247994	1.742758	0.219791
O13	O	-0.356794	1.142196	-0.380819
O14	O	-0.023460	1.475530	-0.047486
O15	O	0.309873	1.808863	0.285848
O16	O	-0.311318	1.318920	-0.429390
O17	O	0.022015	1.652254	-0.096057
O18	O	0.355349	1.985587	0.237277
O19	O	-0.402335	1.190683	-0.204128
O20	O	-0.069002	1.524017	0.129206
O21	O	0.264332	1.857350	0.462539
O22	O	-0.191263	1.093753	-0.332304
O23	O	0.142071	1.427086	0.001029
O24	O	0.475404	1.760420	0.334362
O25	O	-0.402312	1.318845	-0.332280
O26	O	-0.068979	1.652178	0.001053
O27	O	0.264354	1.985511	0.334386
O28	O	-0.191246	1.190859	-0.429404
O29	O	0.142088	1.524192	-0.096070
O30	O	0.475421	1.857526	0.237263
O31	O	-0.311358	1.093653	-0.204138
O32	O	0.021976	1.426986	0.129195
O33	O	0.355309	1.760320	0.462529
O34	O	-0.311304	0.965533	-0.332267
O35	O	0.022029	1.298866	0.001066
O36	O	0.355363	1.632199	0.334399
O37	O	-0.402218	1.093649	-0.557491
O38	O	-0.068885	1.426983	-0.224158
O39	O	0.264449	1.760316	0.109175
O40	O	-0.402241	0.965488	-0.429339
O41	O	-0.068907	1.298821	-0.096005
O42	O	0.264426	1.632155	0.237328
O43	O	-0.311264	1.190800	-0.557519
O44	O	0.022069	1.524133	-0.224186
O45	O	0.355402	1.857467	0.109147
O46	O	-0.522354	1.190624	-0.332243
O47	O	-0.189021	1.523958	0.001090
O48	O	0.144313	1.857291	0.334423
O49	O	-0.522313	1.093550	-0.429325
O50	O	-0.188980	1.426883	-0.095992
O51	O	0.144353	1.760216	0.237342
C52	C	-0.356769	0.936830	-0.380801
C53	C	-0.023436	1.270164	-0.047468
C54	C	0.309897	1.603497	0.285866
C55	C	-0.356777	0.848974	-0.380812
C56	C	-0.023443	1.182307	-0.047479
C57	C	0.309890	1.515640	0.285855
C58	C	-0.309404	0.477497	-0.330380
C59	C	0.023929	0.810830	0.002954
C60	C	0.357262	1.144164	0.336287
C61	C	-0.404244	0.477499	-0.431304
C62	C	-0.070911	0.810833	-0.097970
C63	C	0.262422	1.144166	0.235363
C64	C	-0.404234	0.560045	-0.431299
C65	C	-0.070900	0.893378	-0.097966
C66	C	0.262433	1.226712	0.235368
C67	C	-0.356808	0.601321	-0.380833
C68	C	-0.023475	0.934654	-0.047500
C69	C	0.309858	1.267987	0.285834
C70	C	-0.309394	0.560050	-0.330372
C71	C	0.023939	0.893384	0.002962
C72	C	0.357273	1.226717	0.336295
C73	C	-0.451653	0.601321	-0.481754
C74	C	-0.118319	0.934655	-0.148420
C75	C	0.215014	1.267988	0.184913
C76	C	-0.451644	0.683872	-0.481750
C77	C	-0.118311	1.017206	-0.148417
C78	C	0.215022	1.350539	0.184916
C79	C	-0.404215	0.725150	-0.431287
C80	C	-0.070882	1.058483	-0.097954
C81	C	0.262452	1.391816	0.235379
C82	C	-0.356798	0.683874	-0.380825
C83	C	-0.023465	1.017208	-0.047491
C84	C	0.309869	1.350541	0.285842
C85	C	-0.309373	0.725150	-0.330359
C86	C	0.023961	1.058483	0.002975
C87	C	0.357294	1.391816	0.336308
C88	C	-0.261951	0.683876	-0.279899
C89	C	0.071382	1.017209	0.053434
C90	C	0.404715	1.350543	0.386767
C91	C	-0.261964	0.601327	-0.279909
C92	C	0.071369	0.934661	0.053425
C93	C	0.404702	1.267994	0.386758
C94	C	-0.404202	0.807698	-0.431278
C95	C	-0.070869	1.141031	-0.097945
C96	C	0.262465	1.474365	0.235389
C97	C	-0.309362	0.807703	-0.330351
C98	C	0.023971	1.141037	0.002983
C99	C	0.357304	1.474370	0.336316
C100	C	-0.549204	1.142091	-0.380796
C101	C	-0.215871	1.475424	-0.047463
C102	C	0.117462	1.808757	0.285871
C103	C	-0.631518	1.142118	-0.380812
C104	C	-0.298185	1.475451	-0.047479
C105	C	0.035148	1.808784	0.285854
C106	C	-0.930609	1.142291	-0.380855
C107	C	-0.597276	1.475625	-0.047522
C108	C	-0.263943	1.808958	0.285812
C109	C	-0.899289	1.081356	-0.442088
C110	C	-0.565956	1.414689	-0.108754
C111	C	-0.232623	1.748023	0.224579
C112	C	-0.813671	1.081066	-0.441896
C113	C	-0.480338	1.414400	-0.108563
C114	C	-0.147005	1.747733	0.224771
C115	C	-0.782227	1.142205	-0.380834
C116	C	-0.448894	1.475538	-0.047501
C117	C	-0.115560	1.808872	0.285832
C118	C	-0.813380	1.119658	-0.297530
C119	C	-0.480047	1.452992	0.035803
C120	C	-0.146713	1.786325	0.369137
C121	C	-0.899025	1.119266	-0.297896
C122	C	-0.565692	1.452599	0.035437
C123	C	-0.232359	1.785932	0.368770
C124	C	-0.898956	1.225907	-0.402193
C125	C	-0.565623	1.559240	-0.068860
C126	C	-0.232290	1.892573	0.264473
C127	C	-0.813305	1.225415	-0.404020
C128	C	-0.479972	1.558748	-0.070687
C129	C	-0.146639	1.892082	0.262646
C130	C	-0.698367	1.142158	-0.380818
C131	C	-0.365034	1.475491	-0.047484
C132	C	-0.031701	1.808825	0.285849
C133	C	-1.014469	1.142337	-0.380866
C134	C	-0.681135	1.475670	-0.047533
C135	C	-0.347802	1.809003	0.285801
C136	C	-0.163632	1.142324	-0.380860
C137	C	0.169701	1.475658	-0.047526
C138	C	0.503035	1.808991	0.285807
C139	C	-0.081318	1.142379	-0.380877
C140	C	0.252016	1.475712	-0.047544
C141	C	0.585349	1.809045	0.285790
C142	C	-0.356732	1.142229	-0.586987
C143	C	-0.023399	1.475563	-0.253654
C144	C	0.309934	1.808896	0.079679
C145	C	-0.356706	1.142243	-0.674844
C146	C	-0.023373	1.475577	-0.341511
C147	C	0.309960	1.808910	-0.008177
C148	C	-0.356819	1.348365	-0.380838
C149	C	-0.023486	1.681698	-0.047504
C150	C	0.309848	2.015031	0.285829
C151	C	-0.356830	1.436221	-0.380846
C152	C	-0.023496	1.769555	-0.047512
C153	C	0.309837	2.102888	0.285821
C154	C	-0.403984	1.091756	-1.046308
C155	C	-0.070650	1.425089	-0.712974
C156	C	0.262683	1.758423	-0.379641
C157	C	-0.309273	1.192920	-1.046332
C158	C	0.024060	1.526253	-0.712999
C159	C	0.357394	1.859586	-0.379665
C160	C	-0.309289	1.192899	-0.963786
C161	C	0.024045	1.526232	-0.630453
C162	C	0.357378	1.859565	-0.297119
C163	C	-0.356653	1.142306	-0.922497
C164	C	-0.023320	1.475640	-0.589164
C165	C	0.310013	1.808973	-0.255830
C166	C	-0.404002	1.091735	-0.963754
C167	C	-0.070669	1.425068	-0.630421
C168	C	0.262664	1.758402	-0.297088
C169	C	-0.261946	1.243475	-0.922523
C170	C	0.071387	1.576808	-0.589189
C171	C	0.404721	1.910141	-0.255856
C172	C	-0.261960	1.243456	-0.839972
C173	C	0.071373	1.576790	-0.506638
C174	C	0.404706	1.910123	-0.173305
C175	C	-0.309322	1.192859	-0.798681
C176	C	0.024012	1.526193	-0.465348
C177	C	0.357345	1.859526	-0.132015
C178	C	-0.356672	1.142285	-0.839944
C179	C	-0.023339	1.475619	-0.506610
C180	C	0.309995	1.808952	-0.173277
C181	C	-0.404037	1.091693	-0.798655
C182	C	-0.070703	1.425026	-0.465321
C183	C	0.262630	1.758360	-0.131988
C184	C	-0.451384	1.041115	-0.839915
C185	C	-0.118050	1.374448	-0.506582
C186	C	0.215283	1.707781	-0.173249
C187	C	-0.451364	1.041138	-0.922464
C188	C	-0.118030	1.374471	-0.589131
C189	C	0.215303	1.707805	-0.255797
C190	C	-0.309342	1.192836	-0.716133
C191	C	0.023992	1.526169	-0.382800
C192	C	0.357325	1.859502	-0.049466
C193	C	-0.404055	1.091672	-0.716101
C194	C	-0.070722	1.425005	-0.382768
C195	C	0.262611	1.758339	-0.049434
C196	C	-0.356801	1.142209	-0.175453
C197	C	-0.023468	1.475543	0.157880
C198	C	0.309865	1.808876	0.491214
C199	C	-0.356619	1.142348	-0.087597
C200	C	-0.023286	1.475682	0.245737
C201	C	0.310048	1.809015	0.579070
H202	H	-0.270738	0.841304	-0.289259
H203	H	0.062596	1.174637	0.044074
H204	H	0.395929	1.507971	0.377407
O205	O	-0.258190	1.247473	-1.090877
O206	O	0.075143	1.580807	-0.757544
O207	O	0.408476	1.914140	-0.424211
H208	H	-0.270897	1.309502	-1.075045
H209	H	0.062436	1.642836	-0.741711
H210	H	0.395770	1.976169	-0.408378
H211	H	-0.792606	1.095172	-0.503666
H212	H	-0.459273	1.428505	-0.170332
H213	H	-0.125939	1.761839	0.163001
O214	O	-0.502468	0.986544	-0.795381
O215	O	-0.169135	1.319878	-0.462048
O216	O	0.164199	1.653211	-0.128714
H217	H	-0.494521	0.995029	-0.731049
H218	H	-0.161188	1.328363	-0.397716
H219	H	0.172146	1.661696	-0.064382
O220	O	-0.258276	0.432989	-0.275936
O221	O	0.075057	0.766322	0.057397
O222	O	0.408391	1.099656	0.390730
H223	H	-0.266256	0.368653	-0.284408
H224	H	0.067078	0.701986	0.048926
H225	H	0.400411	1.035319	0.382259
O226	O	-0.210802	0.728393	-0.225463
O227	O	0.122531	1.061726	0.107871
O228	O	0.455865	1.395059	0.441204
H229	H	-0.173159	0.766029	-0.260906
H230	H	0.160174	1.099362	0.072428
H231	H	0.493507	1.432696	0.405761
H232	H	-0.791993	1.059184	-0.279130
H233	H	-0.458660	1.392517	0.054203
H234	H	-0.125326	1.725850	0.387537
O235	O	-0.210835	1.298011	-0.967051
O236	O	0.122499	1.631345	-0.633718
O237	O	0.455832	1.964678	-0.300384
H238	H	-0.218760	1.289510	-1.031384
H239	H	0.114573	1.622843	-0.698051
H240	H	0.447906	1.956176	-0.364717
H241	H	-0.270794	1.234018	-0.682542
H242	H	0.062539	1.567351	-0.349209
H243	H	0.395872	1.900685	-0.015876
H244	H	-0.489914	0.999962	-0.956066
H245	H	-0.156580	1.333296	-0.622732
H246	H	0.176753	1.666629	-0.289399
H247	H	-0.920503	1.246464	-0.461904
H248	H	-0.587170	1.579797	-0.128570
H249	H	-0.253837	1.913131	0.204763
H250	H	-0.919066	1.058143	-0.279821
H251	H	-0.585732	1.391477	0.053513
H252	H	-0.252399	1.724810	0.386846
O253	O	-0.455393	0.432987	-0.485735
O254	O	-0.122060	0.766320	-0.152402
O255	O	0.211274	1.099654	0.180931
H256	H	-0.447431	0.368652	-0.477267
H257	H	-0.114098	0.701985	-0.143933
H258	H	0.219235	1.035318	0.189400
O259	O	-0.786604	0.998977	-0.423154
O260	O	-0.453271	1.332311	-0.089820
O261	O	-0.119937	1.665644	0.243513
H262	H	-0.834687	0.959333	-0.414185
H263	H	-0.501354	1.292666	-0.080852
H264	H	-0.168021	1.625999	0.252482
H265	H	-0.919210	1.271306	-0.357595
H266	H	-0.585877	1.604639	-0.024262
H267	H	-0.252544	1.937972	0.309072
O268	O	-0.502778	0.728387	-0.536182
O269	O	-0.169445	1.061720	-0.202849
O270	O	0.163889	1.395053	0.130484
H271	H	-0.560889	0.712518	-0.522529
H272	H	-0.227556	1.045851	-0.189196
H273	H	0.105777	1.379184	0.144138
H274	H	-0.791897	1.273216	-0.362672
H275	H	-0.458563	1.606549	-0.029339
H276	H	-0.125230	1.939883	0.303995
H277	H	-0.223357	0.567715	-0.238827
H278	H	0.109976	0.901048	0.094507
H279	H	0.443309	1.234382	0.427840
O280	O	-0.786321	1.247941	-0.485225
O281	O	-0.452988	1.581275	-0.151891
O282	O	-0.119655	1.914608	0.181442
H283	H	-0.834416	1.256925	-0.524787
H284	H	-0.501083	1.590258	-0.191454
H285	H	-0.167749	1.923591	0.141880
O286	O	-0.455339	0.852218	-0.485696
O287	O	-0.122006	1.185551	-0.152363
O288	O	0.211327	1.518885	0.180970
H289	H	-0.488317	0.809648	-0.520791
H290	H	-0.154984	1.142981	-0.187458
H291	H	0.178350	1.476315	0.145875
O292	O	-0.786409	1.176596	-0.235443
O293	O	-0.453076	1.509929	0.097890
O294	O	-0.119742	1.843263	0.431223
H295	H	-0.754537	1.143942	-0.190080
H296	H	-0.421204	1.477275	0.143253
H297	H	-0.087870	1.810608	0.476587
O298	O	-0.502801	0.556807	-0.536185
O299	O	-0.169467	0.890141	-0.202851
O300	O	0.163866	1.223474	0.130482
H301	H	-0.494833	0.492472	-0.527720
H302	H	-0.161499	0.825806	-0.194386
H303	H	0.171834	1.159139	0.138947
H304	H	-0.919836	1.095322	-0.504057
H305	H	-0.586502	1.428655	-0.170724
H306	H	-0.253169	1.761988	0.162610
O307	O	-0.927867	0.999754	-0.423596
O308	O	-0.594533	1.333088	-0.090262
O309	O	-0.261200	1.666421	0.243071
H310	H	-0.989117	0.999714	-0.426643
H311	H	-0.655784	1.333048	-0.093310
H312	H	-0.322450	1.666381	0.240024
O313	O	-0.926483	1.175490	-0.235395
O314	O	-0.593149	1.508823	0.097938
O315	O	-0.259816	1.842156	0.431272
H316	H	-0.878587	1.202835	-0.205038
H317	H	-0.545253	1.536168	0.128295
H318	H	-0.211920	1.869501	0.461629
H319	H	-0.442530	1.050574	-1.079906
H320	H	-0.109197	1.383907	-0.746573
H321	H	0.224136	1.717241	-0.413239
H322	H	-0.442619	1.050466	-0.682489
H323	H	-0.109286	1.383799	-0.349156
H324	H	0.224047	1.717133	-0.015823
O325	O	-0.210894	1.298002	-0.795470
O326	O	0.122439	1.631335	-0.462137
O327	O	0.455773	1.964669	-0.128803
H328	H	-0.177954	1.333182	-0.838050
H329	H	0.155380	1.666515	-0.504717
H330	H	0.488713	1.999848	-0.171383
