data_functionalizedCrystal
_audit_creation_method	'MofGen! by Chris Wilmer'
_symmetry_space_group_name_H-M	'P1'
_symmetry_Int_Tables_number	1
_symmetry_cell_setting	triclinic
loop_
_symmetry_equiv_pos_as_xyz
  x,y,z
_cell_length_a	10.654545
_cell_length_b	10.489716
_cell_length_c	9.130313
_cell_angle_alpha	89.999518
_cell_angle_beta	89.996934
_cell_angle_gamma	84.506107
loop_
_atom_site_label
_atom_site_type_symbol
_atom_site_fract_x
_atom_site_fract_y
_atom_site_fract_z
O1	O	1.667911	0.179137	-0.121770
O2	O	1.302438	0.196212	-0.121775
O3	O	1.493507	0.002070	-0.121778
O4	O	1.476843	0.373278	-0.121768
O5	O	1.493494	0.002065	0.121821
O6	O	1.302425	0.196206	0.121824
O7	O	1.667898	0.179131	0.121828
Cu8	Cu	1.485160	0.187668	0.144069
Cu9	Cu	1.485176	0.187675	-0.144015
O10	O	1.476829	0.373273	0.121831
C11	C	1.255633	0.194957	0.000023
C12	C	1.116188	0.191209	0.000021
C13	C	1.050676	0.189442	0.132808
C14	C	0.919655	0.185900	0.132807
C15	C	0.919670	0.185897	-0.132777
C16	C	1.050690	0.189430	-0.132776
C17	C	1.492248	-0.045464	0.000017
C18	C	1.488502	-0.187093	0.000004
C19	C	1.605671	-0.284826	0.000018
C20	C	1.543763	-0.362153	-0.120085
C21	C	1.543723	-0.362122	0.120084
C22	C	1.426643	-0.262555	-0.120200
C23	C	1.426620	-0.262519	0.120078
C24	C	1.364625	-0.339797	-0.000056
C25	C	1.714703	0.180386	0.000027
C26	C	1.854148	0.184134	0.000019
C27	C	1.478088	0.420807	0.000033
C28	C	1.481834	0.562436	0.000037
N29	N	1.485159	0.187663	0.346691
N30	N	1.485188	0.187670	-0.346638
C31	C	1.569793	0.101733	0.423342
C32	C	1.569805	0.101733	0.576679
C33	C	1.400545	0.273604	0.576701
C34	C	1.400527	0.273596	0.423367
H35	H	1.104032	0.190866	-0.240913
H36	H	1.262631	-0.364176	-0.000122
O37	O	1.609292	-0.419821	-0.254571
H38	H	1.645561	-0.342700	-0.321048
O39	O	1.121327	0.191363	0.276030
H40	H	1.053756	0.189532	0.368363
H41	H	1.707589	-0.260200	-0.000102
O42	O	1.361181	-0.205178	-0.254865
H43	H	1.364559	-0.099753	-0.253851
O44	O	0.849017	0.183975	-0.275998
H45	H	0.916590	0.185780	-0.368334
O46	O	1.361155	-0.204822	0.254576
H47	H	1.410007	-0.244877	0.354139
H48	H	1.593204	-0.405622	0.221620
O49	O	1.661054	0.009039	0.340634
H50	H	1.719896	-0.050723	0.419702
O51	O	0.848989	0.184006	0.276026
H52	H	0.916549	0.185847	0.368361
O53	O	1.309280	0.366303	0.659398
H54	H	1.323519	0.351885	0.778899
O55	O	1.661103	0.009069	0.659358
H56	H	1.719955	-0.050672	0.580275
H57	H	1.331602	0.343571	0.360954
