data_functionalizedCrystal
_audit_creation_method	'MofGen! by Chris Wilmer'
_symmetry_space_group_name_H-M	'P1'
_symmetry_Int_Tables_number	1
_symmetry_cell_setting	triclinic
loop_
_symmetry_equiv_pos_as_xyz
  x,y,z
_cell_length_a	15.297475
_cell_length_b	25.639239
_cell_length_c	15.296720
_cell_angle_alpha	80.361144
_cell_angle_beta	88.382886
_cell_angle_gamma	80.340538
loop_
_atom_site_label
_atom_site_type_symbol
_atom_site_fract_x
_atom_site_fract_y
_atom_site_fract_z
Zn1	Zn	1.253213	-0.406888	0.726521
Zn2	Zn	1.753213	0.093112	1.226521
Zn3	Zn	1.278441	-0.482170	0.580022
Zn4	Zn	1.778441	0.017830	1.080022
Zn5	Zn	1.132104	-0.377518	0.554767
Zn6	Zn	1.632104	0.122482	1.054767
Zn7	Zn	1.106670	-0.477031	0.701152
Zn8	Zn	1.606670	0.022969	1.201152
O9	O	1.192607	-0.435902	0.640616
O10	O	1.692607	0.064098	1.140616
O11	O	1.379131	-0.431317	0.728274
O12	O	1.879131	0.068683	1.228274
O13	O	1.280232	-0.458147	0.454100
O14	O	1.780232	0.041853	0.954100
O15	O	1.148256	-0.308262	0.577599
O16	O	1.648256	0.191738	1.077599
O17	O	1.397666	-0.486626	0.620642
O18	O	1.897666	0.013374	1.120642
O19	O	1.237234	-0.329841	0.703785
O20	O	1.737234	0.170159	1.203785
O21	O	1.172719	-0.381260	0.435545
O22	O	1.672719	0.118740	0.935545
O23	O	1.006159	-0.376276	0.552999
O24	O	1.506159	0.123724	1.052999
O25	O	1.104906	-0.477867	0.827090
O26	O	1.604906	0.022133	1.327090
O27	O	0.987472	-0.449388	0.660547
O28	O	1.487472	0.050612	1.160547
O29	O	1.212571	-0.426334	0.845728
O30	O	1.712571	0.073666	1.345728
O31	O	1.255568	-0.554640	0.596043
O32	O	1.755568	-0.054640	1.096043
O33	O	1.129369	-0.550864	0.685036
O34	O	1.629369	-0.050864	1.185036
C35	C	0.965034	-0.409088	0.601280
C36	C	1.465034	0.090912	1.101280
C37	C	0.867674	-0.397631	0.584473
C38	C	1.367674	0.102369	1.084473
C39	C	0.554472	-0.517789	0.760740
C40	C	1.054472	-0.017789	1.260740
C41	C	0.645948	-0.528557	0.776529
C42	C	1.145948	-0.028557	1.276529
C43	C	0.701384	-0.495826	0.728517
C44	C	1.201384	0.004174	1.228517
C45	C	0.665336	-0.452326	0.664713
C46	C	1.165336	0.047674	1.164713
C47	C	0.573852	-0.441560	0.648918
C48	C	1.073852	0.058440	1.148918
C49	C	0.720763	-0.419597	0.616694
C50	C	1.220763	0.080403	1.116694
C51	C	0.684715	-0.376097	0.552890
C52	C	1.184715	0.123903	1.052890
C53	C	0.593241	-0.365332	0.537098
C54	C	1.093241	0.134668	1.037098
C55	C	0.537805	-0.398063	0.585110
C56	C	1.037805	0.101937	1.085110
C57	C	0.812247	-0.430363	0.632489
C58	C	1.312247	0.069637	1.132489
C59	C	0.831627	-0.354134	0.520666
C60	C	1.331627	0.145866	1.020666
C61	C	0.740151	-0.343366	0.504877
C62	C	1.240151	0.156634	1.004877
C63	C	1.192467	-0.571724	0.640550
C64	C	1.692467	-0.071724	1.140550
C65	C	1.192482	-0.629841	0.640565
C66	C	1.692482	-0.129841	1.140565
C67	C	1.258449	-0.992200	0.594398
C68	C	1.758449	-0.492200	1.094398
C69	C	1.258481	-1.046809	0.594415
C70	C	1.758481	-0.546809	1.094415
O71	O	1.314423	-1.076721	0.555091
O72	O	1.814423	-0.576721	1.055091
N73	N	1.192751	-1.072164	0.640700
N74	N	1.692751	-0.572164	1.140700
C75	C	1.126990	-1.042907	0.686978
C76	C	1.626990	-0.542907	1.186978
O77	O	1.071085	-1.069488	0.726350
O78	O	1.571085	-0.569488	1.226350
C79	C	1.126963	-0.988300	0.686965
C80	C	1.626963	-0.488300	1.186965
C81	C	1.192692	-0.962947	0.640670
C82	C	1.692692	-0.462947	1.140670
C83	C	1.324173	-0.966847	0.548107
C84	C	1.824173	-0.466847	1.048107
C85	C	1.324140	-0.912241	0.548088
C86	C	1.824140	-0.412241	1.048088
C87	C	1.258383	-0.882988	0.594360
C88	C	1.758383	-0.382988	1.094360
C89	C	1.192658	-0.908341	0.640651
C90	C	1.692658	-0.408341	1.140651
C91	C	1.061206	-0.959045	0.733248
C92	C	1.561206	-0.459045	1.233248
C93	C	1.061185	-0.904435	0.733232
C94	C	1.561185	-0.404435	1.233232
C95	C	1.126914	-0.879082	0.686936
C96	C	1.626914	-0.379082	1.186936
C97	C	1.126868	-0.824483	0.686905
C98	C	1.626868	-0.324483	1.186905
N99	N	1.192598	-0.799128	0.640619
N100	N	1.692598	-0.299128	1.140619
C101	C	1.258355	-0.828381	0.594347
C102	C	1.758355	-0.328381	1.094347
C103	C	1.127054	-1.157587	0.687003
C104	C	1.627054	-0.657587	1.187003
C105	C	1.127077	-1.212192	0.687011
C106	C	1.627077	-0.712192	1.187011
C107	C	1.258569	-1.216091	0.594449
C108	C	1.758569	-0.716091	1.094449
C109	C	1.258541	-1.161483	0.594437
C110	C	1.758541	-0.661483	1.094437
C111	C	1.192784	-1.132232	0.640718
C112	C	1.692784	-0.632232	1.140718
C113	C	1.258280	-0.713705	0.594311
C114	C	1.758280	-0.213705	1.094311
C115	C	1.258239	-0.659094	0.594293
C116	C	1.758239	-0.159094	1.094293
C117	C	1.126750	-0.655201	0.686858
C118	C	1.626750	-0.155201	1.186858
C119	C	1.126788	-0.709806	0.686873
C120	C	1.626788	-0.209806	1.186873
C121	C	1.192561	-0.739058	0.640597
C122	C	1.692561	-0.239058	1.140597
O123	O	1.070956	-0.794537	0.726211
O124	O	1.570956	-0.294537	1.226211
O125	O	1.314257	-0.801795	0.554992
O126	O	1.814257	-0.301795	1.054992
C127	C	1.421068	-0.462821	0.680105
C128	C	1.921068	0.037179	1.180105
C129	C	1.518425	-0.474292	0.696933
C130	C	2.018425	0.025708	1.196933
C131	C	1.153088	-0.454803	0.869079
C132	C	1.653088	0.045197	1.369079
C133	C	1.136247	-0.462858	0.966437
C134	C	1.636247	0.037142	1.466437
C135	C	1.192768	-0.299554	0.640705
C136	C	1.692768	0.200446	1.140705
C137	C	1.192837	-0.241450	0.640743
C138	C	1.692837	0.258550	1.140743
C139	C	1.232023	-0.417042	0.413049
C140	C	1.732023	0.082958	0.913049
C141	C	1.249034	-0.408860	0.315722
C142	C	1.749034	0.091140	0.815722
C143	C	1.313004	-0.378246	1.279690
C144	C	1.813004	0.121754	1.779690
C145	C	1.328832	-0.370679	1.188219
C146	C	1.828832	0.129321	1.688219
C147	C	1.280687	-0.393723	1.132769
C148	C	1.780687	0.106277	1.632769
C149	C	1.216711	-0.424335	1.168799
C150	C	1.716711	0.075665	1.668799
C151	C	1.200886	-0.431905	1.260281
C152	C	1.700886	0.068095	1.760281
C153	C	1.168569	-0.447383	1.113359
C154	C	1.668569	0.052617	1.613359
C155	C	1.104593	-0.477995	1.149390
C156	C	1.604593	0.022005	1.649390
C157	C	1.088771	-0.485564	1.240862
C158	C	1.588771	0.014436	1.740862
C159	C	1.136916	-0.462520	1.296312
C160	C	1.636916	0.037480	1.796312
C161	C	1.184394	-0.439812	1.021878
C162	C	1.684394	0.060188	1.521878
C163	C	1.072276	-0.493472	1.002468
C164	C	1.572276	0.006528	1.502468
C165	C	1.056448	-0.501039	1.093940
C166	C	1.556448	-0.001039	1.593940
H167	H	0.509330	-0.544436	0.799820
H168	H	1.009330	-0.044436	1.299820
H169	H	0.463317	-0.389297	0.572260
H170	H	0.963317	0.110703	1.072260
H171	H	1.380924	-0.345757	1.158890
H172	H	1.880924	0.154243	1.658890
H173	H	1.236483	-0.414888	0.992551
H174	H	1.736483	0.085112	1.492551
O175	O	1.020322	-0.518324	0.942682
O176	O	1.520322	-0.018324	1.442682
H177	H	1.066688	-0.546090	0.907749
H178	H	1.566688	-0.046090	1.407749
H179	H	0.876763	-0.327483	0.481569
H180	H	1.376763	0.172517	0.981569
O181	O	0.554355	-0.318416	0.468280
O182	O	1.054355	0.181584	0.968280
H183	H	0.608267	-0.297462	0.437552
H184	H	1.108267	0.202538	0.937552
H185	H	0.710788	-0.307948	0.452927
H186	H	1.210788	0.192052	0.952927
O187	O	0.851126	-0.477271	0.701314
O188	O	1.351126	0.022729	1.201314
H189	H	0.836147	-0.514970	0.683139
H190	H	1.336147	-0.014970	1.183139
O191	O	1.119846	-0.470681	1.394975
O192	O	1.619846	0.029319	1.894975
H193	H	1.049622	-0.454322	1.407677
H194	H	1.549622	0.045678	1.907677
O195	O	1.019769	-0.518579	1.279729
O196	O	1.519769	-0.018579	1.779729
H197	H	0.988941	-0.533327	1.225806
H198	H	1.488941	-0.033327	1.725806
H199	H	1.352202	-0.359490	1.324846
H200	H	1.852202	0.140510	1.824846
H201	H	1.004358	-0.525963	1.123289
H202	H	1.504358	-0.025963	1.623289
O203	O	1.056170	-1.239528	0.736931
O204	O	1.556170	-0.739528	1.236931
H205	H	1.067225	-1.282415	0.729168
H206	H	1.567225	-0.782415	1.229168
O207	O	0.800047	-0.507437	0.745541
O208	O	1.300047	-0.007437	1.245541
H209	H	0.815800	-0.543181	0.797977
H210	H	1.315800	-0.043181	1.297977
H211	H	1.312114	-1.239919	0.556776
H212	H	1.812114	-0.739919	1.056776
O213	O	1.329140	-0.631749	0.544366
O214	O	1.829140	-0.131749	1.044366
H215	H	1.374875	-0.661270	0.512204
H216	H	1.874875	-0.161270	1.012204
H217	H	1.311840	-0.737515	0.556631
H218	H	1.811840	-0.237515	1.056631
H219	H	1.377664	-0.891603	0.510393
H220	H	1.877664	-0.391603	1.010393
O221	O	1.056107	-1.126033	0.736898
O222	O	1.556107	-0.626033	1.236898
H223	H	1.010403	-1.152840	0.769070
H224	H	1.510403	-0.652840	1.269070
H225	H	1.377725	-0.990660	0.510427
H226	H	1.877725	-0.490660	1.010427
O227	O	0.990249	-0.872889	0.783147
O228	O	1.490249	-0.372889	1.283147
H229	H	1.021681	-0.856281	0.834513
H230	H	1.521681	-0.356281	1.334513
H231	H	1.073269	-0.730450	0.724573
H232	H	1.573269	-0.230450	1.224573
O233	O	1.055825	-0.623643	0.736761
O234	O	1.555825	-0.123643	1.236761
H235	H	1.058902	-0.641552	0.808108
H236	H	1.558902	-0.141552	1.308108
O237	O	0.684828	-0.575467	0.845348
O238	O	1.184828	-0.075467	1.345348
H239	H	0.630914	-0.596414	0.876089
H240	H	1.130914	-0.096414	1.376089
H241	H	1.312064	-1.140844	0.556739
H242	H	1.812064	-0.640844	1.056739
H243	H	1.007679	-0.979677	0.770942
H244	H	1.507679	-0.479677	1.270942
O245	O	1.297746	-0.385559	1.034108
O246	O	1.797746	0.114441	1.534108
H247	H	1.350313	-0.360397	1.018368
H248	H	1.850313	0.139603	1.518368
