data_functionalizedCrystal
_audit_creation_method	'MofGen! by Chris Wilmer'
_symmetry_space_group_name_H-M	'P1'
_symmetry_Int_Tables_number	1
_symmetry_cell_setting	triclinic
loop_
_symmetry_equiv_pos_as_xyz
  x,y,z
_cell_length_a	6.394989
_cell_length_b	10.967874
_cell_length_c	10.065875
_cell_angle_alpha	69.229500
_cell_angle_beta	80.951547
_cell_angle_gamma	94.416282
loop_
_atom_site_label
_atom_site_type_symbol
_atom_site_fract_x
_atom_site_fract_y
_atom_site_fract_z
O1	O	-0.152660	1.742288	-0.523245
O2	O	-0.204476	1.365549	-0.434643
O3	O	0.125760	1.559266	-0.480203
O4	O	-0.482896	1.548571	-0.477685
O5	O	0.062544	1.522331	-0.244527
O6	O	-0.267692	1.328614	-0.198968
O7	O	-0.215877	1.705353	-0.287570
Zn8	Zn	-0.251822	1.511119	-0.205850
Zn9	Zn	-0.168531	1.559783	-0.516363
O10	O	-0.546113	1.511636	-0.242010
C11	C	-0.237090	1.298780	-0.305446
C12	C	-0.240063	1.154857	-0.271599
C13	C	-0.208640	1.109825	-0.378595
C14	C	-0.211712	0.961073	-0.343615
C15	C	0.171871	1.538685	-0.361873
C16	C	0.407787	1.532222	-0.360355
C17	C	-0.183261	1.772122	-0.416770
C18	C	-0.180286	1.916047	-0.450627
N19	N	-0.308663	1.477917	0.006064
N20	N	-0.111672	1.592995	-0.728279
C21	C	-0.188295	1.548222	0.057308
C22	C	-0.232058	1.522679	0.220483
H23	H	-0.179475	1.181396	-0.496096
C24	C	-0.378697	1.293343	0.318731
C25	C	-0.414919	1.415882	0.324323
H26	H	-0.491580	1.227413	0.382846
H27	H	-0.373295	1.296505	0.222708
H28	H	-0.246662	1.272996	0.346872
H29	H	-0.546948	1.436233	0.296172
H30	H	-0.420345	1.412722	0.420367
H31	H	0.023796	1.672097	0.194796
H32	H	-0.240903	0.889504	-0.226106
C33	C	-0.112431	0.942563	-0.701506
C34	C	-0.140896	1.012647	-0.609264
H35	H	-0.088127	1.002201	-0.799438
H36	H	0.007177	0.896885	-0.685687
H37	H	-0.237062	0.881087	-0.681962
H38	H	-0.016258	1.074116	-0.628801
H39	H	-0.260515	1.058347	-0.625091
H40	H	-0.269251	1.083284	-0.154098
H41	H	-0.052836	1.627320	-0.019619
C42	C	-0.455294	1.248585	0.104317
C43	C	-0.491516	1.371125	0.109908
H44	H	-0.568177	1.182655	0.168432
H45	H	-0.449891	1.251748	0.008294
H46	H	-0.323259	1.228239	0.132458
H47	H	-0.623544	1.391476	0.081757
H48	H	-0.496942	1.367964	0.205952
