data_functionalizedCrystal
_audit_creation_method	'MofGen! by Chris Wilmer'
_symmetry_space_group_name_H-M	'P1'
_symmetry_Int_Tables_number	1
_symmetry_cell_setting	triclinic
loop_
_symmetry_equiv_pos_as_xyz
  x,y,z
_cell_length_a	12.827893
_cell_length_b	21.295417
_cell_length_c	12.827885
_cell_angle_alpha	89.961900
_cell_angle_beta	89.980538
_cell_angle_gamma	90.030477
loop_
_atom_site_label
_atom_site_type_symbol
_atom_site_fract_x
_atom_site_fract_y
_atom_site_fract_z
Zn1	Zn	1.597562	-0.250579	-0.590788
Zn2	Zn	1.597409	-0.355861	-0.416023
Zn3	Zn	1.422803	-0.250610	-0.416062
Zn4	Zn	1.422742	-0.355814	-0.590723
O5	O	1.510129	-0.303216	-0.503399
O6	O	1.743778	-0.264552	-0.567616
O7	O	1.574209	-0.341932	-0.269792
O8	O	1.446074	-0.162516	-0.439283
O9	O	1.743665	-0.341902	-0.439217
O10	O	1.574469	-0.162494	-0.567654
O11	O	1.445926	-0.264604	-0.269821
O12	O	1.276559	-0.264559	-0.439220
O13	O	1.445971	-0.341822	-0.736968
O14	O	1.276514	-0.341852	-0.567543
O15	O	1.574410	-0.264506	-0.737016
O16	O	1.574150	-0.443944	-0.439154
O17	O	1.445823	-0.443910	-0.567505
C18	C	1.238619	-0.303204	-0.503379
C19	C	1.122466	-0.303214	-0.503396
C20	C	1.070687	-0.341521	-0.566796
C21	C	0.950637	-0.341532	-0.566814
C22	C	1.509992	-0.466768	-0.503341
C23	C	1.510029	-0.536736	-0.503351
C24	C	1.576908	-0.569600	-0.436587
C25	C	1.576957	-0.635342	-0.436611
C26	C	1.510108	-0.668218	-0.503387
C27	C	1.443224	-0.635347	-0.570165
C28	C	1.443185	-0.569606	-0.570147
N29	N	1.418692	-0.771484	-0.511347
N30	N	1.418732	-0.833935	-0.511358
C31	C	1.510225	-0.866293	-0.503447
N32	N	1.601678	-0.833840	-0.495504
N33	N	1.601636	-0.771383	-0.495488
C34	C	1.510144	-0.739504	-0.503415
C35	C	1.577163	-0.970442	-0.436705
C36	C	1.577214	-1.036186	-0.436736
C37	C	1.443472	-1.036189	-0.570284
C38	C	1.443431	-0.970447	-0.570259
C39	C	1.510275	-0.937577	-0.503464
C40	C	1.782699	-0.303229	-0.503420
C41	C	1.898852	-0.303234	-0.503428
C42	C	1.510201	-0.303156	-0.775969
C43	C	1.510232	-0.303130	-0.892123
C44	C	1.510295	-0.139026	-0.503480
C45	C	1.510366	-0.069058	-0.503515
C46	C	1.446774	-0.264858	-0.943921
C47	C	1.446804	-0.264831	-1.063972
C48	C	1.510117	-0.303231	-0.231889
C49	C	1.510289	-0.303079	-0.115737
H50	H	1.077919	-0.270424	-0.449134
H51	H	1.564582	-0.335876	-0.936653
H52	H	1.392480	-0.232062	-1.108518
N53	N	0.891659	-0.384980	-0.638710
H54	H	0.846411	-0.359414	-0.687182
H55	H	0.942782	-0.410528	-0.680936
N56	N	1.129680	-0.384956	-0.638681
H57	H	1.207078	-0.378792	-0.628477
H58	H	1.110618	-0.429913	-0.622291
H59	H	1.564625	-0.335845	-1.071198
N60	N	1.649016	-0.534147	-0.364563
H61	H	1.691397	-0.564946	-0.322276
H62	H	1.697335	-0.506829	-0.407148
N63	N	1.371368	-1.071634	-0.642316
H64	H	1.413825	-1.098862	-0.690790
H65	H	1.322991	-1.098922	-0.599742
N66	N	0.957808	-0.259785	-0.431518
H67	H	1.003054	-0.285352	-0.383043
H68	H	1.003073	-0.230672	-0.474181
N69	N	1.371118	-0.670798	-0.642190
H70	H	1.413574	-0.698030	-0.690660
H71	H	1.322740	-0.698083	-0.599612
N72	N	1.649095	-0.670799	-0.364600
H73	H	1.691435	-0.640000	-0.322285
H74	H	1.606591	-0.698121	-0.316215
H75	H	1.388723	-0.542847	-0.624515
N76	N	1.649257	-0.934984	-0.364669
H77	H	1.691639	-0.965782	-0.322382
H78	H	1.697575	-0.907657	-0.407240
N79	N	1.649357	-1.071635	-0.364728
H80	H	1.691692	-1.040834	-0.322413
H81	H	1.606859	-1.098961	-0.316344
N82	N	1.371288	-0.934996	-0.642262
H83	H	1.328944	-0.965797	-0.684568
H84	H	1.322936	-0.907768	-0.599669
H85	H	1.392418	-0.232115	-0.899392
