data_functionalizedCrystal
_audit_creation_method	'MofGen! by Chris Wilmer'
_symmetry_space_group_name_H-M	'P1'
_symmetry_Int_Tables_number	1
_symmetry_cell_setting	triclinic
loop_
_symmetry_equiv_pos_as_xyz
  x,y,z
_cell_length_a	11.026607
_cell_length_b	10.268362
_cell_length_c	11.026607
_cell_angle_alpha	89.996950
_cell_angle_beta	71.413983
_cell_angle_gamma	90.003722
loop_
_atom_site_label
_atom_site_type_symbol
_atom_site_fract_x
_atom_site_fract_y
_atom_site_fract_z
O1	O	1.726734	0.108297	-0.533625
O2	O	1.360154	0.108299	-0.472861
O3	O	1.513062	0.108294	-0.319953
O4	O	1.573825	0.108303	-0.686533
O5	O	1.513043	-0.108307	-0.319941
O6	O	1.360135	-0.108302	-0.472849
O7	O	1.726715	-0.108304	-0.533613
Cu8	Cu	1.543423	-0.128080	-0.503230
Cu9	Cu	1.543445	0.128075	-0.503244
O10	O	1.573807	-0.108298	-0.686521
C11	C	1.312485	-0.000001	-0.461645
C12	C	1.170471	-0.000000	-0.428228
C13	C	1.116821	0.000003	-0.520498
C14	C	0.970043	0.000004	-0.485962
N15	N	1.543417	-0.308246	-0.503221
C16	C	1.543438	-0.573916	-0.503240
C17	C	1.543423	-0.426078	-0.503233
C18	C	1.774384	-0.000001	-0.544828
C19	C	1.916398	0.000007	-0.578245
C20	C	1.501843	-0.000005	-0.272287
C21	C	1.468426	-0.000000	-0.130273
N22	N	1.543460	0.308241	-0.503244
C23	C	1.585026	0.000004	-0.734187
C24	C	1.618443	0.000007	-0.876200
C25	C	1.560695	0.000001	-0.076624
C26	C	1.526160	0.000006	0.070155
H27	H	1.179555	-0.000002	-0.625061
C28	C	1.384895	0.000008	0.154886
H29	H	1.380215	0.000003	0.242422
H30	H	1.343667	0.075539	0.137252
H31	H	1.343660	-0.075537	0.137270
H32	H	1.363863	0.000009	-0.067540
C33	C	1.001121	0.000006	-0.719513
H34	H	0.948425	-0.000002	-0.772921
H35	H	1.053608	0.075536	-0.736394
H36	H	1.053584	-0.075541	-0.736378
C37	C	1.085736	0.000004	-0.286971
H38	H	0.998200	0.000015	-0.282290
H39	H	1.103352	-0.075527	-0.245727
H40	H	1.103369	0.075549	-0.245751
C41	C	1.701953	-0.000005	-0.161359
H42	H	1.706633	-0.000017	-0.248895
H43	H	1.743197	0.075526	-0.143742
H44	H	1.743173	-0.075550	-0.143726
C45	C	1.759710	0.000008	0.039077
H46	H	1.813118	0.000019	0.091772
H47	H	1.776580	-0.075524	-0.013396
H48	H	1.776587	0.075552	-0.013402
C49	C	0.885312	0.000008	-0.344698
H50	H	0.797776	0.000019	-0.340017
H51	H	0.902928	-0.075523	-0.303454
H52	H	0.902945	0.075553	-0.303478
