data_functionalizedCrystal
_audit_creation_method	'MofGen! by Chris Wilmer'
_symmetry_space_group_name_H-M	'P1'
_symmetry_Int_Tables_number	1
_symmetry_cell_setting	triclinic
loop_
_symmetry_equiv_pos_as_xyz
  x,y,z
_cell_length_a	16.959454
_cell_length_b	17.077404
_cell_length_c	17.077396
_cell_angle_alpha	90.019501
_cell_angle_beta	89.975265
_cell_angle_gamma	89.979700
loop_
_atom_site_label
_atom_site_type_symbol
_atom_site_fract_x
_atom_site_fract_y
_atom_site_fract_z
Zn1	Zn	-0.314677	-1.200070	-0.443863
Zn2	Zn	-0.446865	-1.199983	-0.312606
Zn3	Zn	-0.314705	-1.068802	-0.312611
Zn4	Zn	-0.446818	-1.068776	-0.443829
O5	O	-0.380766	-1.134408	-0.378227
O6	O	-0.332220	-1.309905	-0.426463
O7	O	-0.429365	-1.182556	-0.202759
O8	O	-0.204090	-1.086262	-0.330038
O9	O	-0.429338	-1.309842	-0.330029
O10	O	-0.204070	-1.182704	-0.426469
O11	O	-0.332267	-1.086178	-0.202763
O12	O	-0.332222	-0.958951	-0.330006
O13	O	-0.429258	-1.086218	-0.553681
O14	O	-0.429285	-0.958933	-0.426411
O15	O	-0.332174	-1.182679	-0.553706
O16	O	-0.557469	-1.182532	-0.329996
O17	O	-0.557435	-1.086134	-0.426406
C18	C	-0.380752	-0.930460	-0.378206
C19	C	-0.380764	-0.843210	-0.378215
C20	C	-0.586132	-1.134342	-0.378214
C21	C	-0.673989	-1.134386	-0.378235
C22	C	-0.380708	-1.134455	-0.582972
C23	C	-0.380683	-1.134476	-0.670222
C24	C	-1.045476	-1.084287	-0.428422
C25	C	-1.045452	-1.184748	-0.328112
C26	C	-0.962906	-1.184720	-0.328105
C27	C	-0.921642	-1.134474	-0.378256
C28	C	-0.962923	-1.084256	-0.428415
C29	C	-0.921619	-1.234932	-0.277942
C30	C	-0.839068	-1.234906	-0.277932
C31	C	-0.797802	-1.184664	-0.328088
C32	C	-0.839088	-1.134444	-0.378249
C33	C	-0.797823	-1.084198	-0.428400
C34	C	-0.839108	-1.033981	-0.478566
C35	C	-0.921657	-1.034013	-0.478571
C36	C	-0.715254	-1.184632	-0.328083
C37	C	-0.715270	-1.084167	-0.428393
C38	C	-0.174598	-1.134495	-0.378258
C39	C	-0.086741	-1.134533	-0.378271
C40	C	-0.380781	-1.339152	-0.378250
C41	C	-0.380787	-1.426402	-0.378259
C42	C	-0.431381	-0.802231	-0.428333
C43	C	-0.431383	-0.720250	-0.428345
C44	C	-0.380771	-0.679251	-0.378236
C45	C	-0.330149	-0.720236	-0.328116
C46	C	-0.330144	-0.802215	-0.328108
C47	C	-0.330164	-0.549366	-0.328134
C48	C	-0.330170	-0.467381	-0.328141
C49	C	-0.431404	-0.467401	-0.428372
C50	C	-0.431399	-0.549380	-0.428364
C51	C	-0.380777	-0.590360	-0.378243
C52	C	-0.330127	-1.184705	-0.711226
C53	C	-0.330101	-1.184714	-0.793206
C54	C	-0.380635	-1.134498	-0.834181
C55	C	-0.431193	-1.084263	-0.793171
C56	C	-0.431214	-1.084250	-0.711192
C57	C	-0.431145	-1.084295	-0.964041
C58	C	-0.431125	-1.084309	-1.046026
C59	C	-0.330032	-1.184759	-1.046056
C60	C	-0.330053	-1.184746	-0.964077
C61	C	-0.380613	-1.134512	-0.923072
C62	C	-0.380767	-1.134406	-0.174279
C63	C	-0.380569	-1.134538	-0.087030
H64	H	-0.681677	-1.043254	-0.469236
H65	H	-0.805501	-0.993067	-0.519396
H66	H	-0.288948	-0.434002	-0.287347
H67	H	-0.955278	-0.993129	-0.519412
Cl68	Cl	-1.097374	-1.021164	-0.491488
Cl69	Cl	-0.494770	-1.021100	-0.659643
Cl70	Cl	-0.495015	-0.853765	-0.491328
Cl71	Cl	-0.266517	-0.668693	-0.265125
H72	H	-0.472303	-1.043377	-0.930658
H73	H	-0.472335	-1.043373	-0.826539
H74	H	-0.288936	-1.225617	-0.826589
H75	H	-0.805459	-1.275796	-0.237085
H76	H	-0.681643	-1.225514	-0.287235
H77	H	-0.288922	-0.835579	-0.287301
Cl78	Cl	-1.097329	-1.247911	-0.265069
H79	H	-0.472601	-0.686889	-0.469156
Cl80	Cl	-0.973498	-1.298099	-0.214904
Cl81	Cl	-0.495031	-0.600922	-0.491355
H82	H	-0.472620	-0.434032	-0.469185
H83	H	-0.288936	-0.582729	-0.287327
Cl84	Cl	-0.266599	-1.247841	-0.659723
Cl85	Cl	-0.266529	-1.247880	-0.912566
H86	H	-0.288863	-1.225659	-1.079445
H87	H	-0.472272	-1.043416	-1.079385
