data_functionalizedCrystal
_audit_creation_method	'MofGen! by Chris Wilmer'
_symmetry_space_group_name_H-M	'P1'
_symmetry_Int_Tables_number	1
_symmetry_cell_setting	triclinic
loop_
_symmetry_equiv_pos_as_xyz
  x,y,z
_cell_length_a	14.908979
_cell_length_b	14.908520
_cell_length_c	14.908858
_cell_angle_alpha	89.778004
_cell_angle_beta	96.752724
_cell_angle_gamma	96.420994
loop_
_atom_site_label
_atom_site_type_symbol
_atom_site_fract_x
_atom_site_fract_y
_atom_site_fract_z
Zn1	Zn	1.338575	-0.255990	-0.447712
Zn2	Zn	1.838575	0.244010	0.052288
Zn3	Zn	1.337457	-0.415104	-0.306093
Zn4	Zn	1.837457	0.084896	0.193907
Zn5	Zn	1.194931	-0.272496	-0.306098
Zn6	Zn	1.694931	0.227504	0.193902
Zn7	Zn	1.177438	-0.415051	-0.466125
Zn8	Zn	1.677438	0.084949	0.033875
O9	O	1.262100	-0.339660	-0.381507
O10	O	1.762100	0.160340	0.118493
O11	O	1.465511	-0.270211	-0.421218
O12	O	1.965511	0.229789	0.078782
O13	O	1.325404	-0.403117	-0.179854
O14	O	1.825404	0.096883	0.320146
O15	O	1.221774	-0.144056	-0.317180
O16	O	1.721774	0.355944	0.182820
O17	O	1.464689	-0.387112	-0.317171
O18	O	1.964689	0.112888	0.182829
O19	O	1.327309	-0.131929	-0.421223
O20	O	1.827309	0.368071	0.078777
O21	O	1.220690	-0.298343	-0.179858
O22	O	1.720690	0.201657	0.320142
O23	O	1.065526	-0.298291	-0.335034
O24	O	1.565526	0.201709	0.164966
O25	O	1.191960	-0.387021	-0.589922
O26	O	1.691960	0.112979	-0.089922
O27	O	1.052674	-0.403026	-0.452605
O28	O	1.552674	0.096974	0.047395
O29	O	1.310347	-0.270159	-0.576394
O30	O	1.810347	0.229841	-0.076394
O31	O	1.308441	-0.541347	-0.335025
O32	O	1.808441	-0.041347	0.164975
O33	O	1.190876	-0.541308	-0.452600
O34	O	1.690876	-0.041308	0.047400
C35	C	1.026148	-0.352445	-0.395819
C36	C	1.526148	0.147555	0.104181
C37	C	0.925205	-0.357934	-0.401964
C38	C	1.425205	0.142066	0.098036
C39	C	1.247663	-0.574060	-0.395828
C40	C	1.747663	-0.074060	0.104172
C41	C	1.241568	-0.674331	-0.401980
C42	C	1.741568	-0.174331	0.098020
C43	C	0.776262	-0.420295	-0.471740
C44	C	1.276262	0.079705	0.028260
C45	C	0.871107	-0.415137	-0.465974
C46	C	1.371107	0.084863	0.034026
C47	C	0.884451	-0.305888	-0.343715
C48	C	1.384451	0.194112	0.156285
C49	C	0.789606	-0.311046	-0.349481
C50	C	1.289606	0.188954	0.150519
C51	C	0.735515	-0.368251	-0.413497
C52	C	1.235515	0.131749	0.086503
C53	C	0.640668	-0.373404	-0.419267
C54	C	1.140668	0.126596	0.080733
C55	C	0.654013	-0.264160	-0.297004
C56	C	1.154013	0.235840	0.202996
C57	C	0.748858	-0.259002	-0.291238
C58	C	1.248858	0.240998	0.208762
C59	C	1.352650	-0.862720	-0.291195
C60	C	1.852650	-0.362720	0.208805
C61	C	1.346927	-0.956934	-0.296972
C62	C	1.846927	-0.456934	0.203028
C63	C	1.224402	-0.956974	-0.419315
C64	C	1.724402	-0.456974	0.080685
C65	C	1.230126	-0.862760	-0.413538
C66	C	1.730126	-0.362760	0.086462
C67	C	1.294251	-0.815636	-0.349475
C68	C	1.794251	-0.315636	0.150525
C69	C	1.299969	-0.721422	-0.343694
C70	C	1.799969	-0.221422	0.156306
C71	C	1.177450	-0.721463	-0.466040
C72	C	1.677450	-0.221463	0.033960
C73	C	1.171727	-0.815677	-0.471818
C74	C	1.671727	-0.315677	0.028182
C75	C	1.498973	-0.326826	-0.367140
C76	C	1.998973	0.173174	0.132860
C77	C	1.599914	-0.321357	-0.361017
C78	C	2.099914	0.178643	0.138983
C79	C	1.249327	-0.326743	-0.616806
C80	C	1.749327	0.173257	-0.116806
C81	C	1.243884	-0.321239	-0.717076
C82	C	1.743884	0.178761	-0.217076
C83	C	1.276617	-0.104342	-0.367148
C84	C	1.776617	0.395658	0.132852
C85	C	1.282804	-0.004064	-0.361029
C86	C	1.782804	0.495936	0.138971
C87	C	1.181699	-0.258932	-0.858403
C88	C	1.681699	0.241068	-0.358403
C89	C	1.186810	-0.264102	-0.764191
C90	C	1.686810	0.235898	-0.264191
C91	C	1.295852	-0.373206	-0.764180
C92	C	1.795852	0.126794	-0.264180
C93	C	1.290741	-0.368036	-0.858393
C94	C	1.790741	0.131964	-0.358393
C95	C	1.233662	-0.310898	-0.905501
C96	C	1.733662	0.189102	-0.405501
C97	C	1.228546	-0.305732	-0.999716
C98	C	1.728546	0.194268	-0.499716
C99	C	1.337592	-0.414831	-0.999704
C100	C	1.837592	0.085169	-0.499704
C101	C	1.342703	-0.420001	-0.905491
C102	C	1.842703	0.079999	-0.405491
C103	C	1.274880	-0.352459	-0.147117
C104	C	1.774880	0.147541	0.352883
C105	C	1.280515	-0.357700	-0.046821
C106	C	1.780515	0.142300	0.453179
H107	H	0.596628	-0.419979	-0.471395
H108	H	1.096628	0.080021	0.028605
O109	O	1.369142	-0.670598	-0.274608
O110	O	1.869142	-0.170598	0.225392
H111	H	1.415720	-0.622898	-0.309600
H112	H	1.915720	-0.122898	0.190400
O113	O	1.155253	-1.007812	-0.488412
O114	O	1.655253	-0.507812	0.011588
H115	H	1.115608	-0.959246	-0.527976
H116	H	1.615608	-0.459246	-0.027976
O117	O	1.357415	-0.434822	-0.713357
O118	O	1.857415	0.065178	-0.213357
H119	H	1.392697	-0.470087	-0.761932
H120	H	1.892697	0.029913	-0.261932
H121	H	1.389178	-0.466519	-0.867122
H122	H	1.889178	0.033481	-0.367122
O123	O	1.409908	-1.007722	-0.234110
O124	O	1.909908	-0.507722	0.265890
H125	H	1.455452	-0.959123	-0.188591
H126	H	1.955452	-0.459123	0.311409
H127	H	0.732220	-0.466865	-0.523872
H128	H	1.232220	0.033135	-0.023872
H129	H	1.119520	-0.854057	-0.523978
H130	H	1.619520	-0.354057	-0.023978
O131	O	1.166999	-0.244098	-1.050535
O132	O	1.666999	0.255902	-0.550535
H133	H	1.095747	-0.264409	-1.037723
H134	H	1.595747	0.235591	-0.537723
O135	O	1.421819	-0.811881	-0.222117
O136	O	1.921819	-0.311881	0.277883
H137	H	1.386319	-0.773729	-0.176015
H138	H	1.886319	-0.273729	0.323985
H139	H	0.792912	-0.212431	-0.239116
H140	H	1.292912	0.287569	0.260884
O141	O	1.114458	-0.670683	-0.528909
O142	O	1.614458	-0.170683	-0.028909
H143	H	1.129212	-0.597252	-0.514135
H144	H	1.629212	-0.097252	-0.014135
H145	H	1.135220	-0.212412	-0.896760
H146	H	1.635220	0.287588	-0.396760
O147	O	0.915061	-0.471263	-0.528798
O148	O	1.415061	0.028737	-0.028798
H149	H	0.861511	-0.511899	-0.574283
H150	H	1.361511	-0.011899	-0.074283
H151	H	1.144499	-0.221785	-0.725847
H152	H	1.644499	0.278215	-0.225847
O153	O	0.942798	-0.244196	-0.274670
O154	O	1.442798	0.255804	0.225330
H155	H	1.015594	-0.249355	-0.280450
H156	H	1.515594	0.250645	0.219550
O157	O	1.393647	-0.470883	-1.050499
O158	O	1.893647	0.029117	-0.550499
H159	H	1.380509	-0.457687	-1.123926
H160	H	1.880509	0.042313	-0.623926
O161	O	0.610068	-0.208026	-0.234172
O162	O	1.110068	0.291974	0.265828
H163	H	0.535028	-0.221226	-0.248929
H164	H	1.035028	0.278774	0.251071
