data_functionalizedCrystal
_audit_creation_method	'MofGen! by Chris Wilmer'
_symmetry_space_group_name_H-M	'P1'
_symmetry_Int_Tables_number	1
_symmetry_cell_setting	triclinic
loop_
_symmetry_equiv_pos_as_xyz
  x,y,z
_cell_length_a	14.560438
_cell_length_b	14.560438
_cell_length_c	14.560438
_cell_angle_alpha	120.002126
_cell_angle_beta	89.997309
_cell_angle_gamma	60.001327
loop_
_atom_site_label
_atom_site_type_symbol
_atom_site_fract_x
_atom_site_fract_y
_atom_site_fract_z
Zr1	Zr	0.884767	1.005306	0.120580
O2	O	0.738114	1.196916	0.267242
O3	O	0.929723	0.813697	0.075612
O4	O	0.929716	1.005306	0.267227
O5	O	0.738127	1.005306	-0.075513
O6	O	1.080856	1.005305	0.267226
O7	O	0.738120	1.005307	0.075626
O8	O	1.080868	0.662551	-0.075539
O9	O	0.738115	1.348060	0.267252
O10	O	1.061691	0.892507	0.056443
O11	O	0.948902	0.892508	-0.056350
O12	O	0.948894	1.118103	0.169252
O13	O	0.836104	1.118103	0.056460
Zr14	Zr	1.125828	1.005303	-0.120473
Zr15	Zr	1.125818	1.005304	0.120578
Zr16	Zr	0.884777	1.005305	-0.120470
Zr17	Zr	0.884768	1.246363	0.120596
Zr18	Zr	1.125826	0.764246	-0.120489
O19	O	1.080872	1.196911	-0.075505
O20	O	1.080857	1.196913	0.267238
O21	O	0.738128	1.196915	-0.075501
O22	O	1.272481	0.813692	-0.267135
O23	O	1.272466	0.813694	0.075608
O24	O	0.929737	0.813696	-0.267131
O25	O	1.272468	1.005302	0.075621
O26	O	1.080879	1.005302	-0.267120
O27	O	0.929739	1.005304	-0.267119
O28	O	1.272474	1.005301	-0.075519
O29	O	0.929718	1.348058	0.267250
O30	O	1.080876	0.662550	-0.267142
O31	O	1.272480	0.662549	-0.267145
O32	O	1.272472	0.662549	-0.075541
O33	O	0.738123	1.348059	0.075648
O34	O	0.929727	1.348057	0.075646
O35	O	1.061701	0.892506	-0.169145
O36	O	1.174490	0.892506	-0.056353
O37	O	1.061693	1.118101	0.056457
O38	O	0.948904	1.118102	-0.056336
C39	C	1.005295	0.703779	0.000034
C40	C	1.005294	0.601444	0.000028
C41	C	0.922024	0.636659	0.083310
C42	C	0.922029	0.540519	0.083339
C43	C	1.088579	0.373950	-0.083208
C44	C	1.088578	0.470089	-0.083231
C45	C	0.703779	1.005307	0.000057
C46	C	0.601446	1.005308	0.000058
C47	C	0.553367	1.005311	0.083324
C48	C	0.457219	1.005303	0.083318
C49	C	0.457237	1.005293	-0.083225
C50	C	0.553387	1.005293	-0.083223
C51	C	1.306816	1.005301	0.000050
C52	C	1.409148	1.005301	0.000049
C53	C	1.005284	1.005306	0.301571
C54	C	1.005280	1.005306	0.403904
C55	C	1.005300	1.306830	0.000073
C56	C	1.005300	1.409165	0.000080
C57	C	0.922019	1.005311	0.548144
C58	C	0.922017	1.005304	0.451988
C59	C	1.088557	1.005302	0.451972
C60	C	1.088562	1.005299	0.548121
C61	C	1.005303	1.005305	0.698537
C62	C	1.005287	1.005311	0.596208
C63	C	1.306814	0.703776	0.000031
C64	C	1.409145	0.601440	0.000023
C65	C	1.005308	0.703777	-0.301483
C66	C	1.005312	0.601442	-0.403822
C67	C	1.306827	0.703775	-0.301487
C68	C	1.409163	0.601438	-0.403827
C69	C	0.703768	1.306834	0.301594
C70	C	0.601432	1.409171	0.403934
C71	C	0.703781	1.306833	0.000076
C72	C	0.601449	1.409169	0.000084
C73	C	1.005287	1.306831	0.301591
C74	C	1.005283	1.409167	0.403930
C75	C	1.398344	0.553361	0.058895
C76	C	1.494499	0.457213	0.058892
C77	C	1.612254	0.457229	-0.058864
C78	C	1.516100	0.553381	-0.058854
C79	C	1.064192	0.553362	-0.510779
C80	C	1.064183	0.457216	-0.606934
C81	C	0.946411	0.457235	-0.489160
C82	C	0.946414	0.553386	-0.393009
C83	C	1.516115	0.553358	-0.393033
C84	C	1.612267	0.457210	-0.489196
C85	C	1.494500	0.457228	-0.606944
C86	C	1.398351	0.553380	-0.510782
H87	H	0.854224	0.569204	0.151158
O88	O	0.841045	1.005537	0.595003
C89	C	0.780133	1.117403	0.706579
H90	H	0.788277	1.195610	0.716711
H91	H	0.815153	1.092106	0.766798
C92	C	0.645284	1.072069	0.720981
C93	C	0.655279	1.168129	0.733423
H94	H	0.568270	1.103358	0.737543
H95	H	0.686323	0.996701	0.645812
H96	H	0.674474	1.050998	0.771165
H97	H	0.626103	1.189187	0.683230
H98	H	0.614232	1.243503	0.808585
H99	H	1.112128	0.418075	-0.694020
O100	O	0.889291	0.410522	-0.478514
C101	C	0.932603	0.354883	-0.419222
H102	H	0.975723	0.398320	-0.366160
H103	H	0.996161	0.245367	-0.481503
C104	C	0.782849	0.330021	-0.407175
C105	C	0.835801	0.383379	-0.341995
H106	H	0.723139	0.347591	-0.359541
H107	H	0.753670	0.367501	-0.447124
H108	H	0.835825	0.238760	-0.459072
H109	H	0.782829	0.474639	-0.290110
H110	H	0.864969	0.345914	-0.302035
H111	H	1.156384	0.266992	-0.150995
O112	O	1.169379	0.435815	-0.164278
C113	C	1.164123	0.361612	-0.270877
H114	H	1.076304	0.383896	-0.261250
H115	H	1.228695	0.253882	-0.310141
C116	C	1.297643	0.368609	-0.359110
C117	C	1.189780	0.395988	-0.347286
H118	H	1.313475	0.389808	-0.406245
H119	H	1.301189	0.418597	-0.287293
H120	H	1.351441	0.278834	-0.391826
H121	H	1.135984	0.485763	-0.314558
H122	H	1.186226	0.346015	-0.419100
O123	O	0.889071	0.600298	-0.289076
C124	C	0.806460	0.735038	-0.229920
H125	H	0.784579	0.761352	-0.292309
H126	H	0.840172	0.790019	-0.172875
C127	C	0.727115	0.740087	-0.081453
C128	C	0.700233	0.772404	-0.158081
H129	H	0.661591	0.763139	-0.037135
H130	H	0.782774	0.649310	-0.121305
H131	H	0.755210	0.785907	-0.033927
H132	H	0.672153	0.726572	-0.205615
H133	H	0.644567	0.863174	-0.118235
H134	H	1.485695	0.418073	0.106833
O135	O	0.599945	1.005256	0.164266
C136	C	0.536871	1.005287	0.237772
H137	H	0.488783	0.964389	0.192905
H138	H	0.474822	1.108927	0.315202
C139	C	0.675811	0.970796	0.329182
C140	C	0.616756	0.920554	0.274073
H141	H	0.725086	0.918534	0.351580
H142	H	0.718304	0.970780	0.279664
H143	H	0.624093	1.057162	0.393700
H144	H	0.668473	0.834196	0.209549
H145	H	0.574274	0.920553	0.323582
O146	O	1.716175	0.410325	-0.116209
C147	C	1.775325	0.275587	-0.198836
H148	H	1.712935	0.249271	-0.220717
H149	H	1.832377	0.220598	-0.165139
C150	C	1.923777	0.270558	-0.278183
C151	C	1.847148	0.238238	-0.305064
H152	H	1.968085	0.247516	-0.343708
H153	H	1.883929	0.361332	-0.222513
H154	H	1.971309	0.224730	-0.250100
H155	H	1.799608	0.284077	-0.333133
H156	H	1.886990	0.147469	-0.360742
H157	H	0.592539	1.005286	-0.151033
O158	O	1.526414	0.600153	-0.289054
C159	C	1.418618	0.695353	-0.206489
H160	H	1.354881	0.679570	-0.243951
H161	H	1.394123	0.795925	-0.176405
C162	C	1.498340	0.704192	-0.060322
C163	C	1.420058	0.684800	-0.106331
H164	H	1.499227	0.697688	0.001464
H165	H	1.570965	0.640058	-0.115946
H166	H	1.477917	0.788002	-0.035260
H167	H	1.440489	0.600986	-0.131404
H168	H	1.347436	0.748921	-0.050708
H169	H	1.311261	0.592499	0.106848
O170	O	0.410325	1.005482	0.164232
C171	C	0.298772	1.117378	0.225175
H172	H	0.265723	1.154674	0.171528
H173	H	0.296646	1.195730	0.305445
C174	C	0.265024	1.037580	0.321674
C175	C	0.224429	1.083381	0.255779
H176	H	0.219166	1.016612	0.340557
H177	H	0.340180	0.962195	0.280619
H178	H	0.263250	1.102880	0.388557
H179	H	0.226216	1.018076	0.188891
H180	H	0.149271	1.158755	0.296824
H181	H	1.524903	0.592531	-0.106794
O182	O	0.410557	1.005466	-0.164084
C183	C	0.378091	1.117366	-0.158773
H184	H	0.429254	1.154662	-0.116445
H185	H	0.284804	1.195716	-0.108050
C186	C	0.336691	1.037574	-0.330654
C187	C	0.399538	1.083375	-0.278675
H188	H	0.349915	1.016610	-0.404615
H189	H	0.358560	0.962186	-0.334231
H190	H	0.258957	1.102873	-0.288374
H191	H	0.477271	1.018070	-0.320948
H192	H	0.377683	1.158751	-0.275108
O193	O	1.121405	0.599958	-0.521481
C194	C	1.173390	0.536881	-0.636507
H195	H	1.127209	0.497257	-0.687779
H196	H	1.264780	0.453371	-0.664849
C197	C	1.225823	0.682981	-0.591637
C198	C	1.169097	0.634323	-0.654610
H199	H	1.223181	0.743084	-0.602805
H200	H	1.190804	0.725474	-0.514141
H201	H	1.301977	0.613378	-0.615262
H202	H	1.092943	0.703922	-0.630974
H203	H	1.204104	0.591843	-0.732102
O204	O	1.484203	0.410351	-0.710923
C205	C	1.592000	0.315194	-0.793486
H206	H	1.655736	0.273136	-0.756026
H207	H	1.616496	0.361191	-0.823562
C208	C	1.512282	0.257584	-0.939660
C209	C	1.590563	0.205920	-0.893652
H210	H	1.511397	0.190181	-1.001450
H211	H	1.439657	0.321697	-0.884037
H212	H	1.532705	0.295915	-0.964714
H213	H	1.570132	0.167606	-0.868587
H214	H	1.663186	0.141798	-0.949274
O215	O	1.294363	0.600275	-0.521065
C216	C	1.211820	0.695428	-0.413253
H217	H	1.249300	0.737466	-0.349524
H218	H	1.181740	0.649432	-0.388761
C219	C	1.065627	0.753082	-0.492933
C220	C	1.111658	0.804722	-0.414661
H221	H	1.003839	0.820498	-0.493801
H222	H	1.121236	0.688973	-0.565568
H223	H	1.040569	0.714753	-0.472513
H224	H	1.136727	0.843035	-0.435090
H225	H	1.056050	0.868840	-0.342029
H226	H	0.854214	1.005302	0.412856
H227	H	0.854204	0.743611	0.151099
H228	H	1.156356	1.005295	0.412812
H229	H	1.699351	0.418067	-0.480399
H230	H	1.156375	1.005295	0.587255
