data_functionalizedCrystal
_audit_creation_method	'MofGen! by Chris Wilmer'
_symmetry_space_group_name_H-M	'P1'
_symmetry_Int_Tables_number	1
_symmetry_cell_setting	triclinic
loop_
_symmetry_equiv_pos_as_xyz
  x,y,z
_cell_length_a	23.096457
_cell_length_b	21.606444
_cell_length_c	21.606444
_cell_angle_alpha	60.001013
_cell_angle_beta	89.995431
_cell_angle_gamma	59.998565
loop_
_atom_site_label
_atom_site_type_symbol
_atom_site_fract_x
_atom_site_fract_y
_atom_site_fract_z
Zr1	Zr	0.557763	0.677455	-0.081220
O2	O	0.465319	0.806569	-0.180035
O3	O	0.586103	0.548338	-0.050930
O4	O	0.586109	0.677453	-0.180044
O5	O	0.465306	0.677457	0.050929
O6	O	0.681390	0.677455	-0.180048
O7	O	0.465313	0.677454	-0.050921
O8	O	0.681378	0.446492	0.050913
O9	O	0.465318	0.908420	-0.180032
O10	O	0.669295	0.601448	-0.038012
O11	O	0.598184	0.601449	0.038001
O12	O	0.598191	0.753465	-0.114014
O13	O	0.527080	0.753466	-0.038001
Zr14	Zr	0.709714	0.677463	0.081214
Zr15	Zr	0.709724	0.677458	-0.081226
Zr16	Zr	0.557753	0.677460	0.081220
Zr17	Zr	0.557761	0.839896	-0.081214
Zr18	Zr	0.709716	0.515022	0.081209
O19	O	0.681374	0.806580	0.050925
O20	O	0.681389	0.806573	-0.180044
O21	O	0.465305	0.806576	0.050933
O22	O	0.802158	0.548349	0.180030
O23	O	0.802172	0.548342	-0.050939
O24	O	0.586089	0.548345	0.180038
O25	O	0.802171	0.677461	-0.050935
O26	O	0.681368	0.677465	0.180039
O27	O	0.586087	0.677463	0.180042
O28	O	0.802165	0.677463	0.050916
O29	O	0.586107	0.908422	-0.180037
O30	O	0.681370	0.446496	0.180031
O31	O	0.802159	0.446498	0.180026
O32	O	0.802167	0.446494	0.050908
O33	O	0.465310	0.908424	-0.050914
O34	O	0.586099	0.908426	-0.050919
O35	O	0.669286	0.601453	0.114008
O36	O	0.740397	0.601452	0.037995
O37	O	0.669293	0.753469	-0.038007
O38	O	0.598182	0.753470	0.038006
C39	C	0.633741	0.474271	-0.000009
C40	C	0.633741	0.405311	-0.000012
C41	C	0.670859	0.372913	-0.039691
C42	C	0.670862	0.308113	-0.039685
C43	C	0.633742	0.275716	-0.000005
C44	C	0.596623	0.308117	0.039678
C45	C	0.596625	0.372912	0.039677
C46	C	0.596614	0.046808	0.039685
C47	C	0.596614	-0.017989	0.039681
C48	C	0.670851	-0.017991	-0.039678
C49	C	0.670853	0.046803	-0.039679
C50	C	0.633738	0.079195	0.000008
C51	C	0.633736	0.149458	0.000003
C52	C	0.633738	0.205460	-0.000005
C53	C	0.443658	0.677456	0.000005
C54	C	0.379147	0.677454	0.000007
C55	C	0.385956	0.598106	0.039672
C56	C	0.325341	0.598104	0.039676
C57	C	0.257916	0.677456	-0.000001
C58	C	0.251109	0.756816	-0.039668
C59	C	0.311724	0.756815	-0.039664
N60	N	0.135124	0.736521	-0.064575
N61	N	0.077544	0.736517	-0.064578
C62	C	0.075283	0.677464	-0.000015
N63	N	0.132783	0.618403	0.064550
N64	N	0.190369	0.618405	0.064551
C65	C	0.192185	0.677466	-0.000010
C66	C	0.016369	0.598109	0.039658
C67	C	-0.044249	0.598111	0.039663
C68	C	-0.118480	0.756824	-0.039688
C69	C	-0.057862	0.756820	-0.039686
C70	C	0.009560	0.677460	-0.000015
C71	C	0.823819	0.677462	-0.000010
C72	C	0.888330	0.677464	-0.000013
C73	C	0.633751	0.677453	-0.203190
C74	C	0.633755	0.677451	-0.272150
C75	C	0.633737	0.880647	0.000004
C76	C	0.633736	0.949607	0.000006
C77	C	0.581231	0.677467	-0.695453
C78	C	0.581237	0.677461	-0.630653
C79	C	0.633732	0.677460	-0.598261
C80	C	0.686228	0.677457	-0.630667
C81	C	0.686224	0.677457	-0.695462
C82	C	0.686245	0.677455	-0.369356
C83	C	0.686244	0.677457	-0.304557
C84	C	0.581258	0.677458	-0.304547
C85	C	0.581254	0.677459	-0.369342
C86	C	0.633752	0.677451	-0.401740
C87	C	0.633746	0.677456	-0.472002
C88	C	0.633736	0.677461	-0.528003
C89	C	0.633726	0.677465	0.203185
C90	C	0.633722	0.677467	0.272144
C91	C	0.823821	0.474274	-0.000017
C92	C	0.888333	0.405315	-0.000022
C93	C	0.633728	0.474277	0.203178
C94	C	0.633725	0.405318	0.272136
C95	C	0.823808	0.474280	0.203171
C96	C	0.888316	0.405323	0.272126
C97	C	0.443669	0.880638	-0.203176
C98	C	0.379161	0.949595	-0.272131
C99	C	0.443656	0.880644	0.000011
C100	C	0.379144	0.949603	0.000016
C101	C	0.633749	0.880641	-0.203184
C102	C	0.633753	0.949599	-0.272141
C103	C	0.881514	0.372930	-0.039706
C104	C	0.942124	0.308144	-0.039725
C105	C	1.009553	0.275741	-0.000056
C106	C	1.016370	0.308134	0.039629
C107	C	0.955761	0.372922	0.039644
C108	C	0.670837	0.372937	0.344201
C109	C	0.670831	0.308152	0.409000
C110	C	0.633716	0.275746	0.401733
C111	C	0.596599	0.308134	0.329660
C112	C	0.596601	0.372922	0.264862
C113	C	0.955736	0.372940	0.264830
C114	C	1.016354	0.308156	0.329614
C115	C	1.009551	0.275753	0.401694
C116	C	0.942124	0.308143	0.408988
C117	C	0.881508	0.372929	0.344204
C118	C	0.311741	0.981986	-0.264836
C119	C	0.251123	1.046790	-0.329620
C120	C	0.257927	1.079196	-0.401700
C121	C	0.325353	1.046802	-0.408994
C122	C	0.385969	0.982004	-0.344210
C123	C	0.385963	0.981995	0.039693
C124	C	0.325353	1.046798	0.039695
C125	C	0.257924	1.079203	0.000023
C126	C	0.251107	1.046808	-0.039659
C127	C	0.311716	0.982011	-0.039664
C128	C	0.670875	0.981985	-0.264850
C129	C	0.670892	1.046770	-0.329637
C130	C	0.633782	1.079173	-0.401714
C131	C	0.596659	1.046781	-0.409004
C132	C	0.596646	0.981993	-0.344218
H133	H	0.701086	0.281734	-0.071994
H134	H	0.826614	0.399288	0.350155
H135	H	0.196198	1.073203	-0.071958
H136	H	0.701061	0.399315	0.350132
H137	H	0.961323	0.399282	0.071964
H138	H	0.728968	0.677455	-0.721843
H139	H	0.701059	0.281790	0.467678
H140	H	0.701077	0.073182	-0.071993
C141	C	1.076238	0.204479	0.472951
N142	N	1.126469	0.150792	0.526620
C143	C	-0.192645	0.844113	-0.083331
N144	N	-0.248509	0.909861	-0.116203
C145	C	0.523508	0.677456	-0.404968
N146	N	0.480014	0.677450	-0.431798
H147	H	0.306189	0.955604	-0.206151
C148	C	0.460119	0.510807	0.083318
N149	N	0.515979	0.445052	0.116194
H150	H	0.208563	1.131959	-0.454445
H151	H	0.306174	0.821432	-0.071962
C152	C	0.807348	0.408565	-0.083353
N153	N	0.751488	0.435407	-0.116235
C154	C	0.555797	-0.053646	0.083356
N155	N	0.525062	-0.080508	0.116256
H156	H	0.330884	1.073196	-0.467689
H157	H	0.071268	0.533489	0.071976
H158	H	0.440861	0.955616	0.072003
H159	H	0.440864	0.955632	-0.350159
H160	H	0.701094	0.955613	-0.206166
H161	H	0.961288	0.399313	0.206145
H162	H	0.306154	0.955639	-0.071972
H163	H	0.936595	0.281750	0.467684
C164	C	0.934609	0.272517	-0.083376
N165	N	0.928947	0.245683	-0.116251
H166	H	1.071250	0.281791	0.323662
C167	C	0.176961	1.082410	-0.321579
N168	N	0.121104	1.109237	-0.315521
C169	C	1.090549	0.272474	0.083269
N170	N	1.146422	0.245609	0.116143
H171	H	0.330886	0.533487	0.071976
H172	H	0.330918	1.073163	0.072012
H173	H	0.633720	0.222992	0.454501
C174	C	0.191258	1.150479	0.000041
N175	N	0.141048	1.204161	0.000060
H176	H	0.701121	1.073137	-0.323686
H177	H	0.728994	0.677455	-0.278184
H178	H	0.633798	1.131928	-0.454461
C179	C	0.555812	0.082403	0.083369
N180	N	0.525087	0.109205	0.116285
C181	C	0.555870	1.082402	-0.488297
N182	N	0.525156	1.109226	-0.548023
H183	H	0.566414	0.955631	-0.350166
H184	H	0.701083	0.399289	-0.072006
H185	H	0.566381	0.281740	0.323754
H186	H	0.701076	-0.044374	-0.071991
H187	H	0.566382	0.399279	0.206186
H188	H	0.566403	0.281731	0.071991
H189	H	0.728990	0.677451	-0.395730
C190	C	0.176941	0.844103	-0.083315
N191	N	0.121076	0.909851	-0.116191
C192	C	0.523482	0.677467	-0.731078
N193	N	0.479986	0.677463	-0.757907
C194	C	-0.065355	0.844111	-0.083333
N195	N	-0.071001	0.909863	-0.116211
C196	C	-0.036753	0.510816	0.083295
N197	N	-0.031107	0.445064	0.116156
C198	C	0.523514	0.677456	-0.268897
N199	N	0.480022	0.677455	-0.242048
C200	C	0.523422	0.677613	-0.595089
N201	N	0.479848	0.677782	-0.568329
H202	H	0.728973	0.677451	-0.604287
H203	H	0.566398	0.399291	0.071986
C204	C	1.076219	0.204466	-0.000074
N205	N	1.126429	0.150778	-0.000087
