data_functionalizedCrystal
_audit_creation_method	'MofGen! by Chris Wilmer'
_symmetry_space_group_name_H-M	'P1'
_symmetry_Int_Tables_number	1
_symmetry_cell_setting	triclinic
loop_
_symmetry_equiv_pos_as_xyz
  x,y,z
_cell_length_a	14.446369
_cell_length_b	23.196402
_cell_length_c	23.196402
_cell_angle_alpha	59.998648
_cell_angle_beta	89.998214
_cell_angle_gamma	60.005344
loop_
_atom_site_label
_atom_site_type_symbol
_atom_site_fract_x
_atom_site_fract_y
_atom_site_fract_z
Zr1	Zr	0.891822	0.631010	-0.075662
O2	O	0.744038	0.751270	-0.167705
O3	O	0.937112	0.510749	-0.047448
O4	O	0.937129	0.631015	-0.167716
O5	O	0.744024	0.631000	0.047435
O6	O	1.089458	0.631021	-0.167721
O7	O	0.744022	0.631004	-0.047437
O8	O	1.089428	0.415886	0.047416
O9	O	0.744054	0.846134	-0.167701
O10	O	1.070126	0.560218	-0.035416
O11	O	0.956446	0.560212	0.035390
O12	O	0.956466	0.701809	-0.106209
O13	O	0.842786	0.701803	-0.035403
Zr14	Zr	1.134773	0.631012	0.075641
Zr15	Zr	1.134769	0.631018	-0.075670
Zr16	Zr	0.891826	0.631004	0.075649
Zr17	Zr	0.891847	0.782307	-0.075656
Zr18	Zr	1.134748	0.479715	0.075636
O19	O	1.089483	0.751273	0.047428
O20	O	1.089477	0.751282	-0.167716
O21	O	0.744044	0.751261	0.047440
O22	O	1.282557	0.510752	0.167685
O23	O	1.282552	0.510761	-0.047460
O24	O	0.937118	0.510740	0.167696
O25	O	1.282571	0.631022	-0.047455
O26	O	1.089466	0.631007	0.167696
O27	O	0.937137	0.631001	0.167701
O28	O	1.282573	0.631018	0.047417
O29	O	0.937164	0.846141	-0.167708
O30	O	1.089431	0.415881	0.167688
O31	O	1.282541	0.415888	0.167681
O32	O	1.282538	0.415893	0.047409
O33	O	0.744057	0.846129	-0.047429
O34	O	0.937167	0.846136	-0.047436
O35	O	1.070129	0.560213	0.106189
O36	O	1.183809	0.560219	0.035383
O37	O	1.070149	0.701810	-0.035411
O38	O	0.956469	0.701804	0.035396
C39	C	1.013267	0.441761	-0.000017
C40	C	1.013256	0.377531	-0.000020
C41	C	1.097178	0.295104	0.052239
C42	C	1.097186	0.234743	0.052245
C43	C	1.013280	0.256816	-0.000018
C44	C	0.929344	0.339258	-0.052281
C45	C	0.929332	0.399616	-0.052282
C46	C	0.987149	0.201230	-0.063809
C47	C	0.987169	0.140871	-0.063809
C48	C	1.013311	0.070654	-0.000015
C49	C	1.039457	0.060793	0.063783
C50	C	1.039445	0.121151	0.063782
C51	C	1.013284	0.191373	-0.000022
C52	C	1.097245	-0.077227	0.052255
C53	C	1.097246	-0.137587	0.052262
C54	C	0.929409	-0.033070	-0.052269
C55	C	0.929404	0.027287	-0.052271
C56	C	1.013328	0.005203	-0.000009
C57	C	0.709408	0.631001	-0.000000
C58	C	0.606271	0.630997	0.000003
C59	C	0.531275	0.541705	0.044421
C60	C	0.638604	0.541645	0.044676
C61	C	0.531719	0.675351	0.032578
C62	C	0.424860	0.674785	0.032898
C63	C	0.423284	0.676628	-0.077060
C64	C	0.531955	0.674945	-0.076934
C65	C	1.317187	0.631021	-0.000020
C66	C	1.420324	0.631025	-0.000024
C67	C	1.013293	0.631019	-0.189277
C68	C	1.013291	0.631021	-0.253512
C69	C	1.013328	0.820261	-0.000003
C70	C	1.013339	0.884490	-0.000001
C71	C	0.953986	0.704909	-0.753291
C72	C	0.953976	0.704914	-0.692939
C73	C	1.013306	0.631005	-0.625803
C74	C	1.072627	0.557087	-0.619022
C75	C	1.072625	0.557085	-0.679375
C76	C	1.112697	0.574386	-0.501876
C77	C	1.112702	0.574391	-0.441526
C78	C	1.013309	0.631010	-0.439655
C79	C	0.913912	0.687637	-0.498147
C80	C	0.913911	0.687635	-0.558500
C81	C	1.013314	0.631000	-0.560357
C82	C	0.953975	0.704929	-0.380999
C83	C	0.953962	0.704930	-0.320644
C84	C	1.072623	0.557102	-0.246728
C85	C	1.072625	0.557102	-0.307083
C86	C	1.013304	0.631018	-0.374216
C87	C	1.013302	0.631003	0.189257
C88	C	1.013304	0.631000	0.253492
C89	C	1.317156	0.441772	-0.000027
C90	C	1.420283	0.377545	-0.000033
C91	C	1.013272	0.441753	0.189250
C92	C	1.013263	0.377521	0.253483
C93	C	1.317161	0.441764	0.189240
C94	C	1.420289	0.377535	0.253469
C95	C	0.709434	0.820258	-0.189260
C96	C	0.606306	0.884487	-0.253489
C97	C	0.709439	0.820250	0.000007
C98	C	0.606312	0.884477	0.000013
C99	C	1.013323	0.820269	-0.189270
C100	C	1.013332	0.884501	-0.253503
C101	C	1.409371	0.347384	-0.036998
C102	C	1.506261	0.287045	-0.037018
C103	C	1.614061	0.256865	-0.000068
C104	C	1.624970	0.287032	0.036898
C105	C	1.528082	0.347374	0.036914
C106	C	1.072600	0.347357	0.320610
C107	C	1.072587	0.287013	0.380969
C108	C	1.013244	0.256829	0.374200
C109	C	0.953899	0.286998	0.307066
C110	C	0.953906	0.347346	0.246708
C111	C	1.528069	0.347376	0.246672
C112	C	1.624979	0.287035	0.307017
C113	C	1.614106	0.256849	0.374158
C114	C	1.506315	0.287014	0.380954
C115	C	1.409408	0.347358	0.320610
C116	C	0.498526	0.914653	-0.246692
C117	C	0.401616	0.975013	-0.307037
C118	C	0.412489	1.005202	-0.374178
C119	C	0.520280	0.975033	-0.380974
C120	C	0.617187	0.914678	-0.320630
C121	C	0.617224	0.914645	0.036972
C122	C	0.520334	0.975000	0.036975
C123	C	0.412534	1.005182	0.000023
C124	C	0.401625	0.975012	-0.036941
C125	C	0.498513	0.914662	-0.036948
C126	C	1.072688	0.914666	-0.246711
C127	C	1.072718	0.975011	-0.307059
C128	C	1.013386	1.005194	-0.374198
C129	C	0.954029	0.975023	-0.380988
C130	C	0.954006	0.914675	-0.320641
H131	H	1.060736	0.003623	0.115730
H132	H	0.704991	0.890075	0.067067
H133	H	0.905666	0.890122	-0.326181
C134	C	1.013420	1.071580	-0.440576
N135	N	1.013448	1.121584	-0.490569
C136	C	1.290800	0.380575	-0.077654
N137	N	1.201494	0.405575	-0.108282
H138	H	0.529239	0.999555	0.067078
H139	H	1.165514	0.277115	0.094795
C140	C	0.305965	1.071566	0.000041
N141	N	0.225700	1.121564	0.000059
C142	C	0.837014	0.490294	-0.109776
N143	N	0.767481	0.558594	-0.153084
H144	H	0.489612	0.890100	-0.067042
H145	H	1.497478	0.262428	0.435628
H146	H	0.861072	0.094406	-0.094829
C147	C	1.137880	0.380553	0.328073
N148	N	1.187046	0.405556	0.333700
C149	C	0.601413	0.631253	-0.109809
N150	N	0.653734	0.598340	-0.134568
C151	C	0.711925	0.494624	0.015167
N152	N	0.767152	0.459201	-0.007056
H153	H	0.489651	0.890077	-0.192028
C154	C	1.720630	0.190481	-0.000086
N155	N	1.800895	0.140478	-0.000099
H156	H	0.704944	0.890117	-0.326173
H157	H	0.313841	0.999596	-0.067026
H158	H	0.861090	-0.015097	-0.094822
H159	H	1.121003	0.890100	-0.192049
H160	H	1.060731	0.113120	0.115728
C161	C	1.138012	1.008191	-0.299574
N162	N	1.187190	1.033182	-0.293934
C163	C	1.720718	0.190462	0.440532
N164	N	1.801023	0.140457	0.490522
C165	C	0.497497	0.763011	-0.125435
N166	N	0.471544	0.829345	-0.161964
C167	C	0.888631	0.253783	0.299632
N168	N	0.839478	0.228758	0.294035
C169	C	0.888814	1.008205	-0.454848
N170	N	0.839708	1.033191	-0.510481
C171	C	1.540057	0.380573	0.172822
N172	N	1.549096	0.405578	0.117200
C173	C	1.137887	0.475796	-0.299619
N174	N	1.187043	0.414552	-0.293995
C175	C	1.189553	-0.101518	0.109750
N176	N	1.259078	-0.119816	0.153057
C177	C	1.189511	0.144060	0.109735
N178	N	1.259052	0.075758	0.153035
H179	H	1.321652	0.371906	0.326154
C180	C	0.305877	1.071588	-0.440552
N181	N	0.225572	1.121587	-0.490542
H182	H	1.013247	0.207690	0.423353
H183	H	0.861027	0.357226	-0.094833
C184	C	1.189583	-0.228264	0.109746
N185	N	1.259139	-0.296565	0.153041
H186	H	0.965884	0.148905	-0.115756
C187	C	0.958392	0.278468	-0.133993
N188	N	0.936733	0.336642	-0.186853
H189	H	0.532303	0.506820	0.100907
C190	C	0.534423	0.494341	0.015058
N191	N	0.536786	0.458666	-0.007059
C192	C	0.532222	1.008242	-0.454836
N193	N	0.541213	1.033252	-0.510471
C194	C	1.137886	0.253830	0.454810
N195	N	1.187073	0.228836	0.510425
C196	C	0.711261	0.494325	0.121451
N197	N	0.765988	0.458681	0.179282
H198	H	0.583318	0.644541	0.088730
C199	C	0.425222	0.632189	0.109483
N200	N	0.425503	0.600102	0.167169
H201	H	0.346290	0.740317	0.002619
C202	C	0.888640	0.380511	0.172870
N203	N	0.839480	0.405486	0.117255
H204	H	1.712738	0.262480	0.301471
H205	H	0.504498	0.741049	0.001767
H206	H	0.419159	0.648048	-0.104272
C207	C	0.317633	0.765520	-0.122006
N208	N	0.238053	0.832470	-0.155854
C209	C	0.888683	0.786219	-0.827135
N210	N	0.839479	0.847462	-0.882756
C211	C	0.888727	0.786222	-0.700398
N212	N	0.839584	0.847464	-0.706018
H213	H	0.313858	0.999567	-0.301490
C214	C	0.804568	0.749918	-0.496093
N215	N	0.722213	0.796825	-0.494543
C216	C	0.804572	0.749912	-0.622833
N217	N	0.722214	0.796817	-0.671288
C218	C	1.743562	0.253819	0.077547
N219	N	1.832888	0.228797	0.108167
C220	C	0.888716	0.786237	-0.454848
N221	N	0.839563	0.847479	-0.510470
H222	H	0.905651	0.765118	-0.326174
C223	C	1.222039	0.512101	-0.377190
N224	N	1.304394	0.465181	-0.328731
H225	H	1.193638	0.528272	-0.503387
C226	C	1.137996	0.475788	-0.545172
N227	N	1.187270	0.414551	-0.489546
H228	H	1.120924	0.496924	-0.192066
H229	H	1.120930	0.496897	-0.673846
H230	H	1.536983	0.371924	0.067019
C231	C	1.494234	0.253864	-0.077678
N232	N	1.485173	0.228872	-0.108301
