data_functionalizedCrystal
_audit_creation_method	'MofGen! by Chris Wilmer'
_symmetry_space_group_name_H-M	'P1'
_symmetry_Int_Tables_number	1
_symmetry_cell_setting	triclinic
loop_
_symmetry_equiv_pos_as_xyz
  x,y,z
_cell_length_a	14.853567
_cell_length_b	17.666332
_cell_length_c	14.853567
_cell_angle_alpha	90.001410
_cell_angle_beta	83.634930
_cell_angle_gamma	90.006282
loop_
_atom_site_label
_atom_site_type_symbol
_atom_site_fract_x
_atom_site_fract_y
_atom_site_fract_z
O1	O	1.196371	0.062890	0.117704
O2	O	1.696371	0.562890	0.617704
O3	O	0.933911	0.062902	0.131725
O4	O	1.433911	0.562902	0.631725
O5	O	1.072152	0.062898	-0.006515
O6	O	1.572152	0.562898	0.493485
O7	O	1.058131	0.062894	0.255945
O8	O	1.558131	0.562894	0.755945
O9	O	1.072128	-0.062999	-0.006519
O10	O	1.572128	0.437001	0.493481
O11	O	0.933887	-0.062995	0.131721
O12	O	1.433887	0.437005	0.631721
O13	O	1.196347	-0.063007	0.117700
O14	O	1.696347	0.436993	0.617700
Cu15	Cu	1.065115	-0.074496	0.124710
Cu16	Cu	1.565115	0.425504	0.624710
Cu17	Cu	1.065143	0.074391	0.124715
Cu18	Cu	1.565143	0.574391	0.624715
O19	O	1.058106	-0.063003	0.255940
O20	O	1.558106	0.436997	0.755940
C21	C	0.900311	-0.000045	0.131088
C22	C	1.400311	0.499955	0.631088
C23	C	0.800227	-0.000040	0.129184
C24	C	1.300227	0.499960	0.629184
N25	N	1.065101	-0.179216	0.124706
N26	N	1.565101	0.320784	0.624706
C27	C	0.387693	-0.000056	0.039019
C28	C	0.887693	0.499944	0.539019
C29	C	0.366412	-0.000057	0.203251
C30	C	0.866412	0.499943	0.703251
C31	C	0.460446	-0.000055	0.205041
C32	C	0.960446	0.499945	0.705041
C33	C	0.518108	-0.000052	0.123819
C34	C	1.018108	0.499948	0.623819
C35	C	0.481736	-0.000051	0.040806
C36	C	0.981736	0.499949	0.540806
C37	C	0.496825	-0.000048	0.288053
C38	C	0.996825	0.499952	0.788053
C39	C	0.590864	-0.000045	0.289846
C40	C	1.090864	0.499955	0.789846
C41	C	0.648528	-0.000047	0.208623
C42	C	1.148528	0.499953	0.708623
C43	C	0.612150	-0.000047	0.125607
C44	C	1.112150	0.499953	0.625607
C45	C	0.669812	-0.000044	0.044384
C46	C	1.169812	0.499956	0.544384
C47	C	0.633437	-0.000049	-0.038633
C48	C	1.133437	0.499951	0.461367
C49	C	0.539399	-0.000053	-0.040417
C50	C	1.039399	0.499947	0.459583
C51	C	0.742565	-0.000043	0.210407
C52	C	1.242565	0.499957	0.710407
C53	C	0.763855	-0.000039	0.046172
C54	C	1.263855	0.499961	0.546172
C55	C	1.119838	-0.218823	0.179490
C56	C	1.619838	0.281177	0.679490
C57	C	1.119852	-0.298070	0.179488
C58	C	1.619852	0.201930	0.679488
C59	C	1.065113	-0.337708	0.124712
C60	C	1.565113	0.162292	0.624712
C61	C	1.010373	-0.298091	0.069917
C62	C	1.510373	0.201909	0.569917
C63	C	1.010366	-0.218845	0.069914
C64	C	1.510366	0.281155	0.569914
N65	N	0.986146	-0.462144	0.122151
N66	N	1.486146	0.037856	0.622151
N67	N	0.986154	-0.537424	0.122158
N68	N	1.486154	-0.037424	0.622158
C69	C	1.065129	-0.576472	0.124715
C70	C	1.565129	-0.076472	0.624715
N71	N	1.144097	-0.537396	0.127281
N72	N	1.644097	-0.037396	0.627281
N73	N	1.144088	-0.462108	0.127278
N74	N	1.644088	0.037892	0.627278
C75	C	1.065114	-0.423637	0.124708
C76	C	1.565114	0.076363	0.624708
C77	C	1.119887	-0.702008	0.179499
C78	C	1.619887	-0.202008	0.679499
C79	C	1.119903	-0.781257	0.179490
C80	C	1.619903	-0.281257	0.679490
C81	C	1.010415	-0.781277	0.069924
C82	C	1.510415	-0.281277	0.569924
C83	C	1.010407	-0.702029	0.069928
C84	C	1.510407	-0.202029	0.569928
C85	C	1.065141	-0.662400	0.124720
C86	C	1.565141	-0.162400	0.624720
C87	C	1.229947	-0.000059	0.118337
C88	C	1.729947	0.499941	0.618337
C89	C	1.330031	-0.000059	0.120241
C90	C	1.830031	0.499941	0.620241
C91	C	1.071504	-0.000048	-0.040106
C92	C	1.571504	0.499952	0.459894
C93	C	1.069601	-0.000042	-0.140189
C94	C	1.569601	0.499958	0.359811
N95	N	1.065164	0.179110	0.124712
N96	N	1.565164	0.679110	0.624712
C97	C	0.979435	-0.000052	-0.552723
C98	C	1.479435	0.499948	-0.052723
C99	C	1.143668	-0.000060	-0.574004
C100	C	1.643668	0.499940	-0.074004
C101	C	1.145458	-0.000055	-0.479971
C102	C	1.645458	0.499945	0.020029
C103	C	1.064235	-0.000050	-0.422309
C104	C	1.564235	0.499950	0.077691
C105	C	0.981223	-0.000050	-0.458680
C106	C	1.481223	0.499950	0.041320
C107	C	1.228469	-0.000063	-0.443591
C108	C	1.728469	0.499937	0.056409
C109	C	1.230262	-0.000060	-0.349552
C110	C	1.730262	0.499940	0.150448
C111	C	1.149039	-0.000050	-0.291889
C112	C	1.649039	0.499950	0.208111
C113	C	1.066023	-0.000048	-0.328266
C114	C	1.566023	0.499952	0.171734
C115	C	0.984800	-0.000043	-0.270604
C116	C	1.484800	0.499957	0.229396
C117	C	0.901783	-0.000037	-0.306979
C118	C	1.401783	0.499963	0.193021
C119	C	0.899999	-0.000040	-0.401017
C120	C	1.399999	0.499960	0.098983
C121	C	1.150823	-0.000047	-0.197851
C122	C	1.650823	0.499953	0.302149
C123	C	0.986588	-0.000041	-0.176561
C124	C	1.486588	0.499959	0.323439
C125	C	1.058754	-0.000055	0.289531
C126	C	1.558754	0.499945	0.789531
C127	C	1.060657	-0.000057	0.389615
C128	C	1.560657	0.499943	0.889615
H129	H	0.810798	-0.000040	-0.019971
H130	H	1.310798	0.499960	0.480029
H131	H	1.218414	-0.000057	-0.168238
H132	H	1.718414	0.499943	0.331762
Cl133	Cl	1.330570	-0.000086	-0.516083
Cl134	Cl	1.830570	0.499914	-0.016083
Cl135	Cl	1.334624	-0.000056	-0.303832
Cl136	Cl	1.834624	0.499944	0.196168
Cl137	Cl	0.293923	-0.000051	0.305354
Cl138	Cl	0.793923	0.499949	0.805354
Cl139	Cl	0.941573	-0.652235	0.001070
Cl140	Cl	1.441573	-0.152235	0.501070
H141	H	0.680397	-0.000042	-0.104764
H142	H	1.180397	0.499958	0.395236
H143	H	0.358072	-0.000063	-0.028572
H144	H	0.858072	0.499937	0.471428
Cl145	Cl	0.493664	-0.000055	-0.144771
Cl146	Cl	0.993664	0.499945	0.355229
H147	H	0.911844	-0.000044	-0.582344
H148	H	1.411844	0.499956	-0.082344
H149	H	0.832411	-0.000035	-0.430643
H150	H	1.332411	0.499965	0.069357
H151	H	0.965804	-0.330369	0.025317
H152	H	1.465804	0.169631	0.525317
H153	H	1.209795	-0.000070	-0.620958
H154	H	1.709795	0.499930	-0.120958
H155	H	0.620472	-0.000040	0.357443
H156	H	1.120472	0.499960	0.857443
Cl157	Cl	0.424333	-0.000039	0.390154
Cl158	Cl	0.924333	0.499961	0.890154
H159	H	0.772178	-0.000040	0.277998
H160	H	1.272178	0.499960	0.777998
Cl161	Cl	0.799679	-0.000037	-0.234480
Cl162	Cl	1.299679	0.499963	0.265520
Cl163	Cl	1.188629	-0.169007	0.248389
Cl164	Cl	1.688629	0.330993	0.748389
Cl165	Cl	1.188670	-0.347873	0.248364
Cl166	Cl	1.688670	0.152127	0.748364
Cl167	Cl	0.941543	-0.169051	0.001043
Cl168	Cl	1.441543	0.330949	0.501043
H169	H	1.164483	-0.813504	0.224099
H170	H	1.664483	-0.313504	0.724099
Cl171	Cl	1.188714	-0.652185	0.248359
Cl172	Cl	1.688714	-0.152185	0.748359
Cl173	Cl	0.941609	-0.831100	0.001051
Cl174	Cl	1.441609	-0.331100	0.501051
Cl175	Cl	0.884473	-0.000029	-0.104079
Cl176	Cl	1.384473	0.499971	0.395921
