data_functionalizedCrystal
_audit_creation_method	'MofGen! by Chris Wilmer'
_symmetry_space_group_name_H-M	'P1'
_symmetry_Int_Tables_number	1
_symmetry_cell_setting	triclinic
loop_
_symmetry_equiv_pos_as_xyz
  x,y,z
_cell_length_a	19.377369
_cell_length_b	18.878441
_cell_length_c	18.878441
_cell_angle_alpha	90.001442
_cell_angle_beta	48.637358
_cell_angle_gamma	72.127666
loop_
_atom_site_label
_atom_site_type_symbol
_atom_site_fract_x
_atom_site_fract_y
_atom_site_fract_z
Zr1	Zr	0.779869	0.049038	0.541087
O2	O	0.928504	-0.037005	0.401052
O3	O	0.631231	0.056649	0.602691
O4	O	0.779865	-0.064065	0.575761
O5	O	0.779874	0.200278	0.427981
O6	O	0.779866	-0.064064	0.692331
O7	O	0.779870	0.083709	0.427982
O8	O	0.513986	0.151872	0.740504
O9	O	1.045754	-0.015658	0.379808
O10	O	0.692370	0.082568	0.693396
O11	O	0.692372	0.169561	0.606400
O12	O	0.867370	0.027436	0.574694
O13	O	0.867373	0.114429	0.487698
Zr14	Zr	0.779877	0.234954	0.727000
Zr15	Zr	0.779870	0.049040	0.727002
Zr16	Zr	0.779876	0.234952	0.541085
Zr17	Zr	0.966868	0.083084	0.507205
Zr18	Zr	0.592877	0.200908	0.760882
O19	O	0.928515	0.227343	0.665396
O20	O	0.928505	-0.037002	0.665399
O21	O	0.928514	0.227340	0.401049
O22	O	0.631242	0.320997	0.867035
O23	O	0.631232	0.056652	0.867039
O24	O	0.631241	0.320994	0.602688
O25	O	0.779872	0.083714	0.840107
O26	O	0.779881	0.348057	0.692326
O27	O	0.779880	0.348056	0.575757
O28	O	0.779876	0.200283	0.840105
O29	O	1.045754	-0.015656	0.527585
O30	O	0.513992	0.299648	0.740502
O31	O	0.513992	0.299650	0.888280
O32	O	0.513987	0.151873	0.888281
O33	O	1.045759	0.132119	0.379806
O34	O	1.045760	0.132120	0.527584
O35	O	0.692376	0.256556	0.693394
O36	O	0.692373	0.169563	0.780389
O37	O	0.867374	0.114431	0.661687
O38	O	0.867376	0.201424	0.574692
C39	C	0.545965	0.099409	0.676425
C40	C	0.466579	0.084956	0.690809
C41	C	0.779872	0.141993	0.401492
C42	C	0.779872	0.141993	0.322567
C43	C	0.779881	0.374545	0.634041
C44	C	0.779884	0.453470	0.634040
C45	C	0.205186	0.264713	0.511431
C46	C	0.130500	0.251194	0.525065
C47	C	0.130507	0.160380	0.615882
C48	C	0.205191	0.173894	0.602259
C49	C	0.242526	0.226061	0.550032
C50	C	0.242530	0.135243	0.640860
C51	C	0.317212	0.148753	0.627234
C52	C	0.354554	0.200916	0.575006
C53	C	0.317207	0.239572	0.536405
C54	C	0.205199	0.083072	0.693081
C55	C	0.242539	0.044420	0.731682
C56	C	0.317216	0.057935	0.718062
C57	C	0.354559	0.110097	0.665835
C58	C	0.354563	0.019278	0.756663
C59	C	0.429245	0.032789	0.743036
C60	C	0.429240	0.123608	0.652208
C61	C	1.013781	0.184583	0.591662
C62	C	1.093167	0.199036	0.577278
C63	C	0.779865	-0.090553	0.634046
C64	C	0.779862	-0.169478	0.634047
C65	C	0.871232	0.461773	0.572080
C66	C	0.871228	0.535933	0.572077
C67	C	0.779876	0.601790	0.634039
C68	C	0.688522	0.593485	0.696001
C69	C	0.688526	0.519325	0.695999
C70	C	0.688519	0.748054	0.696003
C71	C	0.688514	0.822219	0.696007
C72	C	0.871221	0.764662	0.572081
C73	C	0.871225	0.690503	0.572079
C74	C	0.779871	0.682203	0.634043
C75	C	0.779872	0.077772	0.285487
C76	C	0.779866	0.077775	0.211331
C77	C	0.779868	0.141996	0.174252
C78	C	0.779864	0.206222	0.211339
C79	C	0.779863	0.206221	0.285498
C80	C	0.779870	0.206219	0.056766
C81	C	0.779874	0.206220	-0.017400
C82	C	0.779874	0.077773	-0.017401
C83	C	0.779872	0.077772	0.056759
C84	C	0.779871	0.141997	0.093839
C85	C	0.779874	0.141999	0.866595
C86	C	0.779874	0.141999	0.945521
C87	C	0.545966	0.099412	0.908976
C88	C	0.466581	0.084959	1.002286
C89	C	0.545974	0.331959	0.676422
C90	C	0.466590	0.396430	0.690805
C91	C	0.545975	0.331961	0.908974
C92	C	0.466592	0.396434	1.002282
C93	C	1.013771	-0.047969	0.359114
C94	C	1.093154	-0.112442	0.265805
C95	C	1.013779	0.184580	0.359111
C96	C	1.093165	0.199033	0.265801
C97	C	1.013772	-0.047967	0.591665
C98	C	1.093155	-0.112438	0.577282
C99	C	0.429298	0.032754	1.000695
C100	C	0.354717	0.019159	1.088361
C101	C	0.317415	0.057774	1.177616
C102	C	0.354705	0.109982	1.179204
C103	C	0.429289	0.123572	1.091539
C104	C	0.429313	0.472125	0.742969
C105	C	0.354735	0.532712	0.756479
C106	C	0.317430	0.517602	0.717829
C107	C	0.354714	0.441900	0.665658
C108	C	0.429297	0.381315	0.652144
C109	C	0.429311	0.381301	1.091520
C110	C	0.354733	0.441875	1.179198
C111	C	0.317432	0.517579	1.177639
C112	C	0.354719	0.532711	1.088391
C113	C	0.429301	0.472139	1.000714
C114	C	1.130444	-0.097308	0.176566
C115	C	1.205045	-0.157877	0.088883
C116	C	1.242351	-0.233581	0.090442
C117	C	1.205058	-0.248714	0.179691
C118	C	1.130463	-0.188144	0.267370
C119	C	1.130455	0.251232	0.267391
C120	C	1.205057	0.264810	0.179721
C121	C	1.242362	0.226193	0.090465
C122	C	1.205069	0.173988	0.088878
C123	C	1.130474	0.160406	0.176545
C124	C	1.130437	-0.097305	0.615945
C125	C	1.205016	-0.157877	0.602449
C126	C	1.242317	-0.233582	0.550285
C127	C	1.205029	-0.248716	0.511622
C128	C	1.130446	-0.188145	0.525124
H129	H	0.459640	0.166088	0.609680
H130	H	0.324365	-0.023352	1.087049
Cl131	Cl	0.779857	0.286961	0.332115
Cl132	Cl	0.573671	0.737622	0.773901
Cl133	Cl	1.336127	-0.309719	-0.019793
Cl134	Cl	1.251963	-0.343890	0.181635
Cl135	Cl	0.476182	-0.015804	0.888499
Cl136	Cl	0.986069	0.607711	0.494187
H137	H	0.779879	0.025476	0.086944
H138	H	1.235408	0.307322	0.181033
H139	H	0.100103	0.117903	0.658403
H140	H	1.235454	0.142549	0.016194
Cl141	Cl	0.779859	0.286961	0.164731
Cl142	Cl	1.336083	-0.309721	0.533315
Cl143	Cl	0.223648	0.040681	1.287817
H144	H	0.945621	0.408154	0.521627
Cl145	Cl	0.223666	0.593775	0.734829
Cl146	Cl	0.573670	0.905011	0.773935
Cl147	Cl	1.251943	-0.343891	0.446034
H148	H	0.324330	0.429607	0.634192
Cl149	Cl	1.083597	-0.207182	0.476500
Cl150	Cl	0.448445	0.217897	0.557870
Cl151	Cl	0.364142	0.305159	0.470754
Cl152	Cl	0.476145	0.286156	0.586568
Cl153	Cl	0.779865	0.286964	0.103381
H154	H	0.235586	0.307193	0.468902
Cl155	Cl	1.083586	-0.207185	0.379553
Cl156	Cl	1.251883	-0.138834	0.651054
Cl157	Cl	0.986070	0.546366	0.494149
Cl158	Cl	1.083597	0.094785	0.174532
Cl159	Cl	0.307795	0.158524	1.291421
Cl160	Cl	0.476142	0.189212	1.093557
Cl161	Cl	0.083565	0.299788	0.476528
Cl162	Cl	0.476192	0.491141	0.791570
H163	H	0.324381	0.429540	1.251859
Cl164	Cl	0.476196	0.286137	1.093505
H165	H	1.100087	0.282686	0.340059
H166	H	0.144394	0.072069	0.704168
H167	H	0.212135	0.001943	0.774203
Cl168	Cl	1.336138	0.243278	-0.019737
H169	H	0.324163	-0.023201	0.799178
H170	H	0.256702	0.566894	1.249038
H171	H	0.779866	0.025482	0.181142
Cl172	Cl	0.307814	0.627887	1.086447
H173	H	0.459646	0.484471	0.928057
Cl174	Cl	1.083560	-0.002143	0.174580
Cl175	Cl	0.986067	0.775096	0.494186
H176	H	0.459648	0.001314	0.774468
H177	H	0.324386	0.594347	0.798963
H178	H	1.235396	-0.145541	0.016223
Cl179	Cl	0.573679	0.676277	0.773892
H180	H	0.779874	0.258516	-0.047585
H181	H	0.779875	0.025478	-0.047596
Cl182	Cl	0.779877	-0.002970	0.332089
Cl183	Cl	0.573685	0.508889	0.773892
H184	H	1.100077	-0.035666	0.658421
