data_functionalizedCrystal
_audit_creation_method	'MofGen! by Chris Wilmer'
_symmetry_space_group_name_H-M	'P1'
_symmetry_Int_Tables_number	1
_symmetry_cell_setting	triclinic
loop_
_symmetry_equiv_pos_as_xyz
  x,y,z
_cell_length_a	29.839131
_cell_length_b	18.050591
_cell_length_c	18.050582
_cell_angle_alpha	89.977259
_cell_angle_beta	90.025477
_cell_angle_gamma	89.965147
loop_
_atom_site_label
_atom_site_type_symbol
_atom_site_fract_x
_atom_site_fract_y
_atom_site_fract_z
Zn1	Zn	-0.178961	-1.135224	0.420052
Zn2	Zn	0.321039	-0.635224	0.920052
Zn3	Zn	-0.254083	-1.135106	0.295856
Zn4	Zn	0.245917	-0.635106	0.795856
Zn5	Zn	-0.178959	-1.011044	0.295860
Zn6	Zn	0.321041	-0.511044	0.795860
Zn7	Zn	-0.254056	-1.010963	0.419988
Zn8	Zn	0.245944	-0.510963	0.919988
O9	O	-0.216514	-1.073084	0.357939
O10	O	0.283486	-0.573084	0.857939
O11	O	-0.188938	-1.239133	0.403603
O12	O	0.311062	-0.739133	0.903603
O13	O	-0.244128	-1.118634	0.191932
O14	O	0.255872	-0.618634	0.691932
O15	O	-0.116092	-1.027599	0.312363
O16	O	0.383908	-0.527599	0.812363
O17	O	-0.244130	-1.239047	0.312357
O18	O	0.255870	-0.739047	0.812357
O19	O	-0.116093	-1.118835	0.403607
O20	O	0.383907	-0.618835	0.903607
O21	O	-0.188935	-1.027485	0.191934
O22	O	0.311065	-0.527485	0.691934
O23	O	-0.188909	-0.907108	0.312300
O24	O	0.311091	-0.407108	0.812300
O25	O	-0.244083	-1.027462	0.523921
O26	O	0.255917	-0.527462	1.023921
O27	O	-0.244082	-0.907049	0.403496
O28	O	0.255918	-0.407049	0.903496
O29	O	-0.188911	-1.118756	0.523968
O30	O	0.311089	-0.618756	1.023968
O31	O	-0.316946	-1.118555	0.312294
O32	O	0.183054	-0.618555	0.812294
O33	O	-0.316926	-1.027348	0.403493
O34	O	0.183074	-0.527348	0.903493
C35	C	-0.216493	-0.880132	0.357892
C36	C	0.283507	-0.380132	0.857892
C37	C	-0.216494	-0.797586	0.357889
C38	C	0.283506	-0.297586	0.857889
C39	C	-0.186452	-0.548772	0.308401
C40	C	0.313548	-0.048772	0.808401
C41	C	-0.175516	-0.598208	0.376181
C42	C	0.324484	-0.098208	0.876181
C43	C	-0.216507	-0.500466	0.357934
C44	C	0.283493	-0.000466	0.857934
C45	C	-0.227416	-0.598112	0.290137
C46	C	0.272584	-0.098112	0.790137
C47	C	-0.216500	-0.646451	0.357909
C48	C	0.283500	-0.146451	0.857909
C49	C	-0.205550	-0.548815	0.425750
C50	C	0.294450	-0.048815	0.925750
C51	C	-0.257469	-0.548715	0.339660
C52	C	0.242531	-0.048715	0.839660
C53	C	-0.246549	-0.598128	0.407487
C54	C	0.253451	-0.098128	0.907487
C55	C	-0.216511	-0.416368	0.357948
C56	C	0.283489	0.083632	0.857948
C57	C	-0.216496	-0.730548	0.357902
C58	C	0.283504	-0.230548	0.857902
C59	C	-0.333237	-1.072950	0.357902
C60	C	0.166763	-0.572950	0.857902
C61	C	-0.383172	-1.072961	0.357911
C62	C	0.116828	-0.572961	0.857911
C63	C	-0.692813	-1.120663	0.310521
C64	C	-0.192813	-0.620663	0.810521
C65	C	-0.880486	-1.120754	0.310550
C66	C	-0.380486	-0.620754	0.810550
O67	O	-0.904749	-1.161205	0.270229
O68	O	-0.404749	-0.661205	0.770229
N69	N	-0.903957	-1.073238	0.357995
N70	N	-0.403957	-0.573238	0.857995
C71	C	-0.880506	-1.025700	0.405440
C72	C	-0.380506	-0.525700	0.905440
O73	O	-0.904776	-0.985292	0.445801
O74	O	-0.404776	-0.485292	0.945801
C75	C	-0.692834	-1.025612	0.405414
C76	C	-0.192834	-0.525612	0.905414
C77	C	-0.669366	-1.073126	0.357960
C78	C	-0.169366	-0.573126	0.857960
C79	C	-0.669344	-1.168173	0.263072
C80	C	-0.169344	-0.668173	0.763072
C81	C	-0.622429	-1.168147	0.263062
C82	C	-0.122429	-0.668147	0.763062
C83	C	-0.598982	-1.120610	0.310502
C84	C	-0.098982	-0.620610	0.810502
C85	C	-0.622450	-1.073100	0.357951
C86	C	-0.122450	-0.573100	0.857951
C87	C	-0.669385	-0.978078	0.452862
C88	C	-0.169385	-0.478078	0.952862
C89	C	-0.622464	-0.978062	0.452853
C90	C	-0.122464	-0.478062	0.952853
C91	C	-0.598995	-1.025575	0.405399
C92	C	-0.098995	-0.525575	0.905399
C93	C	-0.552088	-1.025537	0.405381
C94	C	-0.052088	-0.525537	0.905381
N95	N	-0.528617	-1.073053	0.357936
N96	N	-0.028617	-0.573053	0.857936
C97	C	-0.552064	-1.120589	0.310496
C98	C	-0.052064	-0.620589	0.810496
C99	C	-0.979037	-1.025748	0.405449
C100	C	-0.479037	-0.525748	0.905449
C101	C	-1.025955	-1.025769	0.405454
C102	C	-0.525955	-0.525769	0.905454
C103	C	-1.025931	-1.120824	0.310565
C104	C	-0.525931	-0.620824	0.810565
C105	C	-0.979012	-1.120799	0.310557
C106	C	-0.479012	-0.620799	0.810557
C107	C	-0.955566	-1.073264	0.358004
C108	C	-0.455566	-0.573264	0.858004
C109	C	-0.453538	-1.120530	0.310479
C110	C	0.046462	-0.620530	0.810479
C111	C	-0.406618	-1.120497	0.310472
C112	C	0.093382	-0.620497	0.810472
C113	C	-0.406646	-1.025445	0.405363
C114	C	0.093354	-0.525445	0.905363
C115	C	-0.453562	-1.025474	0.405368
C116	C	0.046438	-0.525474	0.905368
C117	C	-0.477007	-1.073023	0.357924
C118	C	0.022993	-0.573023	0.857924
O119	O	-0.527796	-0.985113	0.445687
O120	O	-0.027796	-0.485113	0.945687
O121	O	-0.527786	-1.161002	0.270153
O122	O	-0.027786	-0.661002	0.770153
C123	C	-0.739728	-1.120689	0.310531
C124	C	-0.239728	-0.620689	0.810531
C125	C	-0.763197	-1.073178	0.357980
C126	C	-0.263197	-0.573178	0.857980
C127	C	-0.739750	-1.025642	0.405419
C128	C	-0.239750	-0.525642	0.905419
C129	C	-0.810114	-1.073199	0.357985
C130	C	-0.310114	-0.573199	0.857985
C131	C	-0.833561	-1.120736	0.310546
C132	C	-0.333561	-0.620736	0.810546
C133	C	-0.810090	-1.168252	0.263101
C134	C	-0.310090	-0.668252	0.763101
C135	C	-0.763175	-1.168225	0.263091
C136	C	-0.263175	-0.668225	0.763091
C137	C	-0.763220	-0.978126	0.452864
C138	C	-0.263220	-0.478126	0.952864
C139	C	-0.810136	-0.978155	0.452869
C140	C	-0.310136	-0.478155	0.952869
C141	C	-0.833583	-1.025692	0.405430
C142	C	-0.333583	-0.525692	0.905430
C143	C	-0.099336	-1.073239	0.357992
C144	C	0.400664	-0.573239	0.857992
C145	C	-0.049402	-1.073305	0.358015
C146	C	0.450598	-0.573305	0.858015
C147	C	-0.216495	-1.073113	0.551645
C148	C	0.283505	-0.573113	1.051645
C149	C	-0.216486	-1.073126	0.634190
C150	C	0.283514	-0.573126	1.134190
C151	C	-0.216529	-0.266790	0.357974
C152	C	0.283471	0.233210	0.857974
C153	C	-0.216515	-0.349336	0.357955
C154	C	0.283485	0.150664	0.857955
C155	C	-0.216502	-1.073098	0.164987
C156	C	0.283498	-0.573098	0.664987
C157	C	-0.216384	-1.073230	0.082441
C158	C	0.283616	-0.573230	0.582441
C159	C	-0.246448	-1.023518	0.833615
C160	C	0.253552	-0.523518	1.333615
C161	C	-0.257434	-1.091269	0.883015
C162	C	0.242566	-0.591269	1.383015
C163	C	-0.216452	-1.073162	0.785321
C164	C	0.283548	-0.573162	1.285321
C165	C	-0.205453	-1.005449	0.883003
C166	C	0.294547	-0.505449	1.383003
C167	C	-0.216420	-1.073192	0.931306
C168	C	0.283580	-0.573192	1.431306
C169	C	-0.227460	-1.140949	0.833633
C170	C	0.272540	-0.640949	1.333633
C171	C	-0.175460	-1.055083	0.833617
C172	C	0.324540	-0.555083	1.333617
C173	C	-0.186430	-1.122881	0.882994
C174	C	0.313570	-0.622881	1.382994
C175	C	-0.216472	-1.073145	0.701223
C176	C	0.283528	-0.573145	1.201223
C177	C	-0.216400	-1.073217	1.015403
C178	C	0.283600	-0.573217	1.515403
H179	H	-0.271963	-0.619663	0.449413
H180	H	0.228037	-0.119663	0.949413
H181	H	-0.292103	-0.526960	0.324190
H182	H	0.207897	-0.026960	0.824190
F183	F	-0.193311	-0.930584	0.911350
F184	F	0.306689	-0.430584	1.411350
H185	H	-0.387512	-1.159189	0.271827
H186	H	0.112488	-0.659189	0.771827
F187	F	-0.153257	-1.177833	0.911158
F188	F	0.346743	-0.677833	1.411158
F189	F	-0.597458	-1.218726	0.212564
F190	F	-0.097458	-0.718726	0.712564
H191	H	-0.387549	-0.986739	0.443986
H192	H	0.112451	-0.486739	0.943986
F193	F	-0.193433	-0.520632	0.500700
F194	F	0.306567	-0.020632	1.000700
F195	F	-0.694291	-1.218774	0.212577
F196	F	-0.194291	-0.718774	0.712577
H197	H	-0.161019	-0.527101	0.266575
H198	H	0.338981	-0.027101	0.766575
H199	H	-0.829240	-0.939458	0.491511
H200	H	-0.329240	-0.439458	0.991511
F201	F	-0.130179	-1.035047	0.805233
F202	F	0.369821	-0.535047	1.305233
H203	H	-0.140870	-0.619933	0.391640
H204	H	0.359130	-0.119933	0.891640
F205	F	-0.478483	-1.171136	0.259983
F206	F	0.021517	-0.671136	0.759983
H207	H	-0.292086	-1.106579	0.904713
H208	H	0.207914	-0.606579	1.404713
F209	F	-0.239480	-0.626419	0.215209
F210	F	0.260520	-0.126419	0.715209
F211	F	-0.954039	-1.171370	0.260051
F212	F	-0.454039	-0.671370	0.760051
H213	H	-0.271847	-0.981575	0.811935
H214	H	0.228153	-0.481575	1.311935
H215	H	-1.045029	-1.159531	0.271938
H216	H	-0.545029	-0.659531	0.771938
H217	H	-1.045059	-0.987071	0.444089
H218	H	-0.545059	-0.487071	0.944089
H219	H	-0.959950	-0.987037	0.444087
H220	H	-0.459950	-0.487037	0.944087
F221	F	-0.694352	-0.927513	0.503376
F222	F	-0.194352	-0.427513	1.003376
H223	H	-0.603376	-0.939353	0.491492
H224	H	-0.103376	-0.439353	0.991492
F225	F	-0.738204	-1.218799	0.212586
F226	F	-0.238204	-0.718799	0.712586
F227	F	-0.478540	-0.974892	0.455859
F228	F	0.021460	-0.474892	0.955859
H229	H	-0.744134	-0.939417	0.491496
H230	H	-0.244134	-0.439417	0.991496
F231	F	-0.835053	-1.218842	0.212610
F232	F	-0.335053	-0.718842	0.712610
H233	H	-0.236788	-1.198243	0.812038
H234	H	0.263212	-0.698243	1.312038
