data_functionalizedCrystal
_audit_creation_method	'MofGen! by Chris Wilmer'
_symmetry_space_group_name_H-M	'P1'
_symmetry_Int_Tables_number	1
_symmetry_cell_setting	triclinic
loop_
_symmetry_equiv_pos_as_xyz
  x,y,z
_cell_length_a	19.805407
_cell_length_b	16.120444
_cell_length_c	19.805399
_cell_angle_alpha	87.128215
_cell_angle_beta	90.017803
_cell_angle_gamma	92.923874
loop_
_atom_site_label
_atom_site_type_symbol
_atom_site_fract_x
_atom_site_fract_y
_atom_site_fract_z
Zn1	Zn	1.021068	-0.331988	0.396351
Zn2	Zn	1.354401	0.001346	0.729685
Zn3	Zn	1.687735	0.334679	1.063018
Zn4	Zn	1.015243	-0.471406	0.288901
Zn5	Zn	1.348576	-0.138073	0.622235
Zn6	Zn	1.681910	0.195260	0.955568
Zn7	Zn	0.907882	-0.332004	0.283180
Zn8	Zn	1.241215	0.001329	0.616514
Zn9	Zn	1.574549	0.334662	0.949847
Zn10	Zn	0.902108	-0.471356	0.402049
Zn11	Zn	1.235442	-0.138022	0.735383
Zn12	Zn	1.568775	0.195311	1.068716
O13	O	0.961575	-0.401688	0.342621
O14	O	1.294909	-0.068355	0.675954
O15	O	1.628242	0.264978	1.009287
O16	O	1.115011	-0.350496	0.382108
O17	O	1.448345	-0.017163	0.715441
O18	O	1.781678	0.316170	1.048774
O19	O	1.000980	-0.452943	0.193427
O20	O	1.334313	-0.119609	0.526760
O21	O	1.667646	0.213724	0.860094
O22	O	0.927750	-0.215336	0.293414
O23	O	1.261084	0.117998	0.626747
O24	O	1.594417	0.451331	0.960080
O25	O	1.110732	-0.452927	0.303164
O26	O	1.444065	-0.119593	0.636498
O27	O	1.777398	0.213740	0.969831
O28	O	1.010908	-0.215324	0.376560
O29	O	1.344241	0.118010	0.709893
O30	O	1.677574	0.451343	1.043227
O31	O	0.922102	-0.350524	0.189224
O32	O	1.255435	-0.017191	0.522557
O33	O	1.588769	0.316142	0.855890
O34	O	0.812400	-0.350475	0.298939
O35	O	1.145733	-0.017142	0.632272
O36	O	1.479067	0.316192	0.965605
O37	O	0.917910	-0.452840	0.496009
O38	O	1.251243	-0.119507	0.829342
O39	O	1.584577	0.213827	1.162676
O40	O	0.808158	-0.452856	0.386272
O41	O	1.141492	-0.119523	0.719605
O42	O	1.474825	0.213811	1.052938
O43	O	1.005309	-0.350447	0.491823
O44	O	1.338643	-0.017114	0.825156
O45	O	1.671976	0.316220	1.158489
O46	O	0.995381	-0.588066	0.308690
O47	O	1.328715	-0.254733	0.642023
O48	O	1.662048	0.078601	0.975356
O49	O	0.912262	-0.588029	0.391819
O50	O	1.245595	-0.254695	0.725152
O51	O	1.578929	0.078638	1.058486
C52	C	0.785720	-0.401662	0.342603
C53	C	1.119054	-0.068329	0.675936
C54	C	1.452387	0.265004	1.009270
C55	C	0.710488	-0.401671	0.342612
C56	C	1.043821	-0.068338	0.675946
C57	C	1.377155	0.264995	1.009279
C58	C	0.677369	-0.348430	0.383788
C59	C	1.010702	-0.015097	0.717121
C60	C	1.344036	0.318237	1.050455
C61	C	0.606680	-0.348435	0.383791
C62	C	0.940014	-0.015101	0.717124
C63	C	1.273347	0.318232	1.050457
C64	C	0.569112	-0.401685	0.342621
C65	C	0.902445	-0.068352	0.675954
C66	C	1.235779	0.264982	1.009288
C67	C	0.602236	-0.454928	0.301441
C68	C	0.935569	-0.121595	0.634774
C69	C	1.268902	0.211738	0.968108
C70	C	0.672923	-0.454919	0.301435
C71	C	1.006257	-0.121586	0.634768
C72	C	1.339590	0.211748	0.968102
C73	C	0.317161	-0.454966	0.301463
C74	C	0.650494	-0.121632	0.634797
C75	C	0.983828	0.211701	0.968130
C76	C	0.246468	-0.454973	0.301474
C77	C	0.579802	-0.121639	0.634807
C78	C	0.913135	0.211694	0.968141
C79	C	0.250918	-0.348481	0.383819
C80	C	0.584251	-0.015148	0.717152
C81	C	0.917585	0.318185	1.050486
C82	C	0.321605	-0.348472	0.383813
C83	C	0.654939	-0.015139	0.717146
C84	C	0.988272	0.318195	1.050480
C85	C	0.354723	-0.401712	0.342631
C86	C	0.688057	-0.068379	0.675964
C87	C	1.021390	0.264955	1.009297
C88	C	0.431372	-0.401706	0.342627
C89	C	0.764705	-0.068372	0.675960
C90	C	1.098039	0.264961	1.009294
C91	C	0.492464	-0.401696	0.342628
C92	C	0.825798	-0.068363	0.675961
C93	C	1.159131	0.264970	1.009294
C94	C	0.952581	-0.618298	0.351508
C95	C	1.285915	-0.284964	0.684842
C96	C	1.619248	0.048369	1.018175
C97	C	0.948796	-0.710964	0.355333
C98	C	1.282129	-0.377630	0.688666
C99	C	1.615462	-0.044297	1.022000
C100	C	0.981379	-0.921905	0.322925
C101	C	1.314713	-0.588572	0.656258
C102	C	1.648046	-0.255238	0.989592
C103	C	0.941897	-0.880621	0.362323
C104	C	1.275230	-0.547287	0.695657
C105	C	1.608563	-0.213954	1.028990
C106	C	0.945736	-0.786215	0.358433
C107	C	1.279070	-0.452881	0.691766
C108	C	1.612403	-0.119548	1.025099
C109	C	0.977540	-1.016319	0.326815
C110	C	1.310874	-0.682986	0.660148
C111	C	1.644207	-0.349653	0.993481
C112	C	1.138117	-0.401715	0.342639
C113	C	1.471450	-0.068382	0.675972
C114	C	1.804784	0.264951	1.009305
C115	C	1.213348	-0.401727	0.342646
C116	C	1.546682	-0.068393	0.675980
C117	C	1.880015	0.264940	1.009313
C118	C	0.961615	-0.401636	0.519161
C119	C	1.294949	-0.068303	0.852495
C120	C	1.628282	0.265031	1.185828
C121	C	0.961632	-0.401614	0.594392
C122	C	1.294966	-0.068280	0.927726
C123	C	1.628299	0.265053	1.261059
C124	C	0.970623	-0.184234	0.333713
C125	C	1.303956	0.149100	0.667046
C126	C	1.637289	0.482433	1.000380
C127	C	0.974478	-0.091567	0.329917
C128	C	1.307811	0.241766	0.663251
C129	C	1.641145	0.575099	0.996584
C130	C	0.961577	-0.401681	0.166764
C131	C	1.294910	-0.068347	0.500098
C132	C	1.628243	0.264986	0.833431
C133	C	0.961700	-0.401468	0.091524
C134	C	1.295034	-0.068135	0.424857
C135	C	1.628367	0.265199	0.758191
C136	C	1.007142	-0.348295	0.627558
C137	C	1.340476	-0.014962	0.960891
C138	C	1.673809	0.318372	1.294224
C139	C	1.007150	-0.348271	0.698245
C140	C	1.340484	-0.014937	1.031578
C141	C	1.673817	0.318396	1.364912
C142	C	0.961651	-0.401570	0.735766
C143	C	1.294984	-0.068237	1.069100
C144	C	1.628318	0.265097	1.402433
C145	C	0.916136	-0.454891	0.702596
C146	C	1.249470	-0.121558	1.035929
C147	C	1.582803	0.211776	1.369263
C148	C	0.916126	-0.454910	0.631910
C149	C	1.249459	-0.121577	0.965243
C150	C	1.582792	0.211756	1.298576
C151	C	0.916178	-0.454813	0.987666
C152	C	1.249511	-0.121480	1.321000
C153	C	1.582845	0.211853	1.654333
C154	C	0.916193	-0.454792	1.058357
C155	C	1.249527	-0.121458	1.391691
C156	C	1.582860	0.211875	1.725024
C157	C	1.007202	-0.348174	1.054002
C158	C	1.340536	-0.014840	1.387335
C159	C	1.673869	0.318493	1.720668
C160	C	1.007192	-0.348193	0.983315
C161	C	1.340525	-0.014860	1.316649
C162	C	1.673858	0.318474	1.649982
C163	C	0.961675	-0.401511	0.950151
C164	C	1.295008	-0.068177	1.283485
C165	C	1.628342	0.265156	1.616818
C166	C	0.961666	-0.401535	0.873504
C167	C	1.294999	-0.068202	1.206837
C168	C	1.628333	0.265132	1.540170
C169	C	0.961663	-0.401550	0.812413
C170	C	1.294996	-0.068217	1.145746
C171	C	1.628329	0.265116	1.479079
H172	H	0.579718	-0.305082	0.417321
H173	H	0.913051	0.028251	0.750655
H174	H	1.246385	0.361585	1.083988
H175	H	0.879140	-0.498196	1.088906
H176	H	1.212473	-0.164863	1.422239
H177	H	1.545806	0.168471	1.755572
C178	C	0.866106	-0.513462	0.951195
C179	C	1.199439	-0.180128	1.284528
C180	C	1.532773	0.153205	1.617861
N181	N	0.828388	-0.557637	0.923722
N182	N	1.161722	-0.224304	1.257056
N183	N	1.495055	0.109029	1.590389
H184	H	1.044195	-0.304895	0.597013
H185	H	1.377528	0.028438	0.930346
H186	H	1.710862	0.361772	1.263680
C187	C	0.892330	-0.928654	0.411834
C188	C	1.225664	-0.595321	0.745167
C189	C	1.558997	-0.261988	1.078501
N190	N	0.854996	-0.964837	0.449122
N191	N	1.188329	-0.631503	0.782455
N192	N	1.521663	-0.298170	1.115788
C193	C	1.030932	-0.873872	0.273407
C194	C	1.364265	-0.540539	0.606741
C195	C	1.697599	-0.207205	0.940074
N196	N	1.068252	-0.837684	0.236109
N197	N	1.401585	-0.504350	0.569442
N198	N	1.734918	-0.171017	0.902775
H199	H	1.044210	-0.304855	0.725245
H200	H	1.377544	0.028478	1.058578
H201	H	1.710877	0.361811	1.391912
H202	H	1.044244	-0.304794	0.952769
H203	H	1.377577	0.028539	1.286102
H204	H	1.710911	0.361873	1.619436
C205	C	0.362927	-0.289890	0.429100
C206	C	0.696261	0.043444	0.762433
C207	C	1.029594	0.376777	1.095767
N208	N	0.394050	-0.245760	0.463208
N209	N	0.727383	0.087573	0.796541
N210	N	1.060717	0.420906	1.129875
H211	H	0.879061	-0.498320	0.604907
H212	H	1.212394	-0.164986	0.938241
H213	H	1.545727	0.168347	1.271574
H214	H	0.879088	-0.498285	0.733151
H215	H	1.212421	-0.164952	1.066485
H216	H	1.545755	0.168381	1.399818
C217	C	0.718688	-0.289849	0.429078
C218	C	1.052021	0.043485	0.762411
C219	C	1.385355	0.376818	1.095744
N220	N	0.749808	-0.245721	0.463189
N221	N	1.083141	0.087613	0.796522
N222	N	1.416475	0.420946	1.129856
C223	C	0.214483	-0.289902	0.429109
C224	C	0.547816	0.043431	0.762443
C225	C	0.881149	0.376765	1.095776
N226	N	0.187041	-0.245780	0.463220
N227	N	0.520374	0.087554	0.796553
N228	N	0.853707	0.420887	1.129887
C229	C	1.057264	-0.289512	1.090488
C230	C	1.390598	0.043821	1.423821
C231	C	1.723931	0.377154	1.757155
N232	N	1.094970	-0.245329	1.117969
N233	N	1.428303	0.088004	1.451302
N234	N	1.761636	0.421337	1.784635
H235	H	0.344117	-0.498318	0.267931
H236	H	0.677450	-0.164985	0.601264
H237	H	1.010783	0.168349	0.934597
C238	C	0.205145	-0.513548	0.256176
C239	C	0.538478	-0.180215	0.589509
C240	C	0.871811	0.153119	0.922843
N241	N	0.174019	-0.557664	0.222059
N242	N	0.507353	-0.224330	0.555392
N243	N	0.840686	0.109003	0.888725
C244	C	0.560908	-0.513503	0.256153
C245	C	0.894241	-0.180170	0.589486
C246	C	1.227574	0.153163	0.922820
N247	N	0.529780	-0.557625	0.222043
N248	N	0.863113	-0.224292	0.555376
N249	N	1.196447	0.109041	0.888710
H250	H	0.699888	-0.498273	0.267905
H251	H	1.033221	-0.164940	0.601239
H252	H	1.366554	0.168394	0.934572
