data_functionalizedCrystal
_audit_creation_method	'MofGen! by Chris Wilmer'
_symmetry_space_group_name_H-M	'P1'
_symmetry_Int_Tables_number	1
_symmetry_cell_setting	triclinic
loop_
_symmetry_equiv_pos_as_xyz
  x,y,z
_cell_length_a	21.395364
_cell_length_b	18.215405
_cell_length_c	21.395355
_cell_angle_alpha	90.016841
_cell_angle_beta	90.024516
_cell_angle_gamma	90.018496
loop_
_atom_site_label
_atom_site_type_symbol
_atom_site_fract_x
_atom_site_fract_y
_atom_site_fract_z
Zn1	Zn	0.957894	-0.293153	0.354268
Zn2	Zn	1.207894	-0.043153	0.604268
Zn3	Zn	1.457894	0.206847	0.854268
Zn4	Zn	1.707894	0.456847	1.104268
Zn5	Zn	0.957811	-0.416201	0.249494
Zn6	Zn	1.207811	-0.166201	0.499494
Zn7	Zn	1.457811	0.083799	0.749494
Zn8	Zn	1.707811	0.333799	0.999494
Zn9	Zn	0.853109	-0.293144	0.249505
Zn10	Zn	1.103109	-0.043144	0.499505
Zn11	Zn	1.353109	0.206856	0.749505
Zn12	Zn	1.603109	0.456856	0.999505
Zn13	Zn	0.853093	-0.416173	0.354234
Zn14	Zn	1.103093	-0.166173	0.604234
Zn15	Zn	1.353093	0.083827	0.854234
Zn16	Zn	1.603093	0.333827	1.104234
O17	O	0.905476	-0.354668	0.301875
O18	O	1.155476	-0.104668	0.551875
O19	O	1.405476	0.145332	0.801875
O20	O	1.655476	0.395332	1.051875
O21	O	1.045561	-0.309491	0.340379
O22	O	1.295561	-0.059491	0.590379
O23	O	1.545561	0.190509	0.840379
O24	O	1.795561	0.440509	1.090379
O25	O	0.943894	-0.399885	0.161817
O26	O	1.193894	-0.149885	0.411817
O27	O	1.443894	0.100115	0.661817
O28	O	1.693894	0.350115	0.911817
O29	O	0.867050	-0.190161	0.263421
O30	O	1.117050	0.059839	0.513421
O31	O	1.367050	0.309839	0.763421
O32	O	1.617050	0.559839	1.013421
O33	O	1.045500	-0.399894	0.263402
O34	O	1.295500	-0.149894	0.513402
O35	O	1.545500	0.100106	0.763402
O36	O	1.795500	0.350106	1.013402
O37	O	0.944035	-0.190167	0.340390
O38	O	1.194035	0.059833	0.590390
O39	O	1.444035	0.309833	0.840390
O40	O	1.694035	0.559833	1.090390
O41	O	0.866970	-0.309476	0.161825
O42	O	1.116970	-0.059476	0.411825
O43	O	1.366970	0.190524	0.661825
O44	O	1.616970	0.440524	0.911825
O45	O	0.765429	-0.309448	0.263388
O46	O	1.015429	-0.059448	0.513388
O47	O	1.265429	0.190552	0.763388
O48	O	1.515429	0.440552	1.013388
O49	O	0.867023	-0.399846	0.441916
O50	O	1.117023	-0.149846	0.691916
O51	O	1.367023	0.100154	0.941916
O52	O	1.617023	0.350154	1.191916
O53	O	0.765417	-0.399837	0.340332
O54	O	1.015417	-0.149837	0.590332
O55	O	1.265417	0.100163	0.840332
O56	O	1.515417	0.350163	1.090332
O57	O	0.944020	-0.309464	0.441941
O58	O	1.194020	-0.059464	0.691941
O59	O	1.444020	0.190536	0.941941
O60	O	1.694020	0.440536	1.191941
O61	O	0.943878	-0.519181	0.263369
O62	O	1.193878	-0.269181	0.513369
O63	O	1.443878	-0.019181	0.763369
O64	O	1.693878	0.230819	1.013369
O65	O	0.866942	-0.519161	0.340321
O66	O	1.116942	-0.269161	0.590321
O67	O	1.366942	-0.019161	0.840321
O68	O	1.616942	0.230839	1.090321
C69	C	0.742689	-0.354639	0.301858
C70	C	0.992689	-0.104639	0.551858
C71	C	1.242689	0.145361	0.801858
C72	C	1.492689	0.395361	1.051858
C73	C	0.673048	-0.354645	0.301865
C74	C	0.923048	-0.104645	0.551865
C75	C	1.173048	0.145355	0.801865
C76	C	1.423048	0.395355	1.051865
C77	C	0.171283	-0.307706	0.342031
C78	C	0.421283	-0.057706	0.592031
C79	C	0.671283	0.192294	0.842031
C80	C	0.921283	0.442294	1.092031
C81	C	0.236718	-0.307700	0.342031
C82	C	0.486718	-0.057700	0.592031
C83	C	0.736718	0.192300	0.842031
C84	C	0.986718	0.442300	1.092031
C85	C	0.269409	-0.354690	0.301889
C86	C	0.519409	-0.104690	0.551889
C87	C	0.769409	0.145310	0.801889
C88	C	1.019409	0.395310	1.051889
C89	C	0.236660	-0.401702	0.261756
C90	C	0.486660	-0.151702	0.511756
C91	C	0.736660	0.098298	0.761756
C92	C	0.986660	0.348298	1.011756
C93	C	0.171226	-0.401711	0.261761
C94	C	0.421226	-0.151711	0.511761
C95	C	0.671226	0.098289	0.761761
C96	C	0.921226	0.348289	1.011761
C97	C	0.373046	-0.360389	0.245422
C98	C	0.623046	-0.110389	0.495422
C99	C	0.873046	0.139611	0.745422
C100	C	1.123046	0.389611	0.995422
C101	C	0.438479	-0.360374	0.245415
C102	C	0.688479	-0.110374	0.495415
C103	C	0.938479	0.139626	0.745415
C104	C	1.188479	0.389626	0.995415
C105	C	0.471230	-0.354666	0.301872
C106	C	0.721230	-0.104666	0.551872
C107	C	0.971230	0.145334	0.801872
C108	C	1.221230	0.395334	1.051872
C109	C	0.438540	-0.348956	0.358337
C110	C	0.688540	-0.098956	0.608337
C111	C	0.938540	0.151044	0.858337
C112	C	1.188540	0.401044	1.108337
C113	C	0.373105	-0.348965	0.358343
C114	C	0.623105	-0.098965	0.608343
C115	C	0.873105	0.151035	0.858343
C116	C	1.123105	0.401035	1.108343
C117	C	0.340362	-0.354686	0.301879
C118	C	0.590362	-0.104686	0.551879
C119	C	0.840362	0.145314	0.801879
C120	C	1.090362	0.395314	1.051879
C121	C	0.574924	-0.307654	0.342006
C122	C	0.824924	-0.057654	0.592006
C123	C	1.074924	0.192346	0.842006
C124	C	1.324924	0.442346	1.092006
C125	C	0.640361	-0.307654	0.342007
C126	C	0.890361	-0.057654	0.592007
C127	C	1.140361	0.192346	0.842007
C128	C	1.390361	0.442346	1.092007
C129	C	0.640301	-0.401652	0.261726
C130	C	0.890301	-0.151652	0.511726
C131	C	1.140301	0.098348	0.761726
C132	C	1.390301	0.348348	1.011726
C133	C	0.574866	-0.401656	0.261730
C134	C	0.824866	-0.151656	0.511730
C135	C	1.074866	0.098344	0.761730
C136	C	1.324866	0.348344	1.011730
C137	C	0.542181	-0.354653	0.301870
C138	C	0.792181	-0.104653	0.551870
C139	C	1.042181	0.145347	0.801870
C140	C	1.292181	0.395347	1.051870
C141	C	0.905416	-0.545874	0.301854
C142	C	1.155416	-0.295874	0.551854
C143	C	1.405416	-0.045874	0.801854
C144	C	1.655416	0.204126	1.051854
C145	C	0.905448	-0.627673	0.301865
C146	C	1.155448	-0.377673	0.551865
C147	C	1.405448	-0.127673	0.801865
C148	C	1.655448	0.122327	1.051865
C149	C	0.945553	-0.815809	0.341997
C150	C	1.195553	-0.565809	0.591997
C151	C	1.445553	-0.315809	0.841997
C152	C	1.695553	-0.065809	1.091997
C153	C	0.945576	-0.892668	0.342009
C154	C	1.195576	-0.642668	0.592009
C155	C	1.445576	-0.392668	0.842009
C156	C	1.695576	-0.142668	1.092009
C157	C	0.865477	-0.892774	0.261792
C158	C	1.115477	-0.642774	0.511792
C159	C	1.365477	-0.392774	0.761792
C160	C	1.615477	-0.142774	1.011792
C161	C	0.865452	-0.815917	0.261784
C162	C	1.115452	-0.565917	0.511784
C163	C	1.365452	-0.315917	0.761784
C164	C	1.615452	-0.065917	1.011784
C165	C	0.905493	-0.777436	0.301885
C166	C	1.155493	-0.527436	0.551885
C167	C	1.405493	-0.277436	0.801885
C168	C	1.655493	-0.027436	1.051885
C169	C	0.905541	-0.931152	0.301905
C170	C	1.155541	-0.681152	0.551905
C171	C	1.405541	-0.431152	0.801905
C172	C	1.655541	-0.181152	1.051905
C173	C	0.905566	-1.014486	0.301918
C174	C	1.155566	-0.764486	0.551918
C175	C	1.405566	-0.514486	0.801918
C176	C	1.655566	-0.264486	1.051918
C177	C	0.905468	-0.694097	0.301874
C178	C	1.155468	-0.444097	0.551874
C179	C	1.405468	-0.194097	0.801874
C180	C	1.655468	0.055903	1.051874
C181	C	1.068900	-0.354696	0.301893
C182	C	1.318900	-0.104696	0.551893
C183	C	1.568900	0.145304	0.801893
C184	C	1.818900	0.395304	1.051893
C185	C	1.138541	-0.354709	0.301901
C186	C	1.388541	-0.104709	0.551901
C187	C	1.638541	0.145291	0.801901
C188	C	1.888541	0.395291	1.051901
C189	C	0.905528	-0.354653	0.465298
C190	C	1.155528	-0.104653	0.715298
C191	C	1.405528	0.145347	0.965298
C192	C	1.655528	0.395347	1.215298
C193	C	0.905551	-0.354646	0.534940
C194	C	1.155551	-0.104646	0.784940
C195	C	1.405551	0.145354	1.034940
C196	C	1.655551	0.395354	1.284940
C197	C	0.905554	-0.162715	0.301911
C198	C	1.155554	0.087285	0.551911
C199	C	1.405554	0.337285	0.801911
C200	C	1.655554	0.587285	1.051911
C201	C	0.905587	-0.080916	0.301926
C202	C	1.155587	0.169084	0.551926
C203	C	1.405587	0.419084	0.801926
C204	C	1.655587	0.669084	1.051926
C205	C	0.905461	-0.354629	0.139088
C206	C	1.155461	-0.104629	0.389088
C207	C	1.405461	0.145371	0.639088
C208	C	1.655461	0.395371	0.889088
C209	C	0.905560	-0.354428	0.069447
C210	C	1.155560	-0.104428	0.319447
C211	C	1.405560	0.145572	0.569447
C212	C	1.655560	0.395572	0.819447
C213	C	0.945641	-0.307582	0.567667
C214	C	1.195641	-0.057582	0.817667
C215	C	1.445641	0.192418	1.067667
C216	C	1.695641	0.442418	1.317667
C217	C	0.945640	-0.307551	0.633102
C218	C	1.195640	-0.057551	0.883102
C219	C	1.445640	0.192449	1.133102
C220	C	1.695640	0.442449	1.383102
C221	C	0.905556	-0.354596	0.665808
C222	C	1.155556	-0.104596	0.915808
C223	C	1.405556	0.145404	1.165808
C224	C	1.655556	0.395404	1.415808
C225	C	0.865457	-0.401664	0.633073
C226	C	1.115457	-0.151664	0.883073
C227	C	1.365457	0.098336	1.133073
C228	C	1.615457	0.348336	1.383073
C229	C	0.865455	-0.401689	0.567639
C230	C	1.115455	-0.151689	0.817639
C231	C	1.365455	0.098311	1.067639
C232	C	1.615455	0.348311	1.317639
C233	C	0.900587	-0.420860	0.769475
C234	C	1.150587	-0.170860	1.019475
C235	C	1.400587	0.079140	1.269475
C236	C	1.650587	0.329140	1.519475
C237	C	0.900594	-0.420836	0.834908
C238	C	1.150594	-0.170836	1.084908
C239	C	1.400594	0.079164	1.334908
C240	C	1.650594	0.329164	1.584908
C241	C	0.905559	-0.354518	0.867629
C242	C	1.155559	-0.104518	1.117629
C243	C	1.405559	0.145482	1.367629
C244	C	1.655559	0.395482	1.617629
C245	C	0.910531	-0.288223	0.834909
C246	C	1.160531	-0.038223	1.084909
C247	C	1.410531	0.211777	1.334909
C248	C	1.660531	0.461777	1.584909
C249	C	0.910528	-0.288248	0.769474
C250	C	1.160528	-0.038248	1.019474
C251	C	1.410528	0.211752	1.269474
C252	C	1.660528	0.461752	1.519474
C253	C	0.905553	-0.354574	0.736761
C254	C	1.155553	-0.104574	0.986761
C255	C	1.405553	0.145426	1.236761
C256	C	1.655553	0.395426	1.486761
C257	C	0.945651	-0.307416	0.971309
C258	C	1.195651	-0.057416	1.221309
C259	C	1.445651	0.192584	1.471309
C260	C	1.695651	0.442584	1.721309
C261	C	0.945646	-0.307383	1.036745
C262	C	1.195646	-0.057383	1.286745
C263	C	1.445646	0.192617	1.536745
C264	C	1.695646	0.442617	1.786745
C265	C	0.865466	-0.401503	1.036715
C266	C	1.115466	-0.151503	1.286715
C267	C	1.365466	0.098497	1.536715
C268	C	1.615466	0.348497	1.786715
C269	C	0.865468	-0.401529	0.971279
C270	C	1.115468	-0.151529	1.221279
C271	C	1.365468	0.098471	1.471279
C272	C	1.615468	0.348471	1.721279
C273	C	0.905564	-0.354487	0.938580
C274	C	1.155564	-0.104487	1.188580
C275	C	1.405564	0.145513	1.438580
C276	C	1.655564	0.395513	1.688580
H277	H	0.346492	-0.344318	0.404318
H278	H	0.596492	-0.094318	0.654318
H279	H	0.846492	0.155682	0.904318
H280	H	1.096492	0.405682	1.154318
H281	H	0.832825	-0.439858	0.944633
H282	H	1.082825	-0.189858	1.194633
H283	H	1.332825	0.060142	1.444633
H284	H	1.582825	0.310142	1.694633
H285	H	0.832827	-0.784671	0.229120
H286	H	1.082827	-0.534671	0.479120
H287	H	1.332827	-0.284671	0.729120
H288	H	1.582827	-0.034671	0.979120
F289	F	0.895317	-0.491450	0.734658
F290	F	1.145317	-0.241450	0.984658
F291	F	1.395317	0.008550	1.234658
F292	F	1.645317	0.258550	1.484658
H293	H	0.832878	-0.924114	0.229141
H294	H	1.082878	-0.674114	0.479141
H295	H	1.332878	-0.424114	0.729141
H296	H	1.582878	-0.174114	0.979141
F297	F	0.988313	-0.257512	0.532870
F298	F	1.238313	-0.007512	0.782870
F299	F	1.488313	0.242488	1.032870
F300	F	1.738313	0.492488	1.282870
F301	F	0.271453	-0.451714	0.219036
F302	F	0.521453	-0.201714	0.469036
F303	F	0.771453	0.048286	0.719036
F304	F	1.021453	0.298286	0.969036
H305	H	0.978195	-0.923908	0.374674
H306	H	1.228195	-0.673908	0.624674
H307	H	1.478195	-0.423908	0.874674
H308	H	1.728195	-0.173908	1.124674
F309	F	0.822794	-0.451731	0.667882
F310	F	1.072794	-0.201731	0.917882
F311	F	1.322794	0.048269	1.167882
F312	F	1.572794	0.298269	1.417882
H313	H	0.978286	-0.269221	0.659754
H314	H	1.228286	-0.019221	0.909754
H315	H	1.478286	0.230779	1.159754
H316	H	1.728286	0.480779	1.409754
F317	F	0.915816	-0.217693	0.734653
F318	F	1.165816	0.032307	0.984653
F319	F	1.415816	0.282307	1.234653
F320	F	1.665816	0.532307	1.484653
F321	F	0.915818	-0.217637	0.869727
F322	F	1.165818	0.032363	1.119727
F323	F	1.415818	0.282363	1.369727
F324	F	1.665818	0.532363	1.619727
H325	H	0.896550	-0.474818	0.861544
H326	H	1.146550	-0.224818	1.111544
H327	H	1.396550	0.025182	1.361544
H328	H	1.646550	0.275182	1.611544
H329	H	0.978296	-0.269107	0.944684
H330	H	1.228296	-0.019107	1.194684
H331	H	1.478296	0.230893	1.444684
H332	H	1.728296	0.480893	1.694684
H333	H	0.832805	-0.440013	0.540993
H334	H	1.082805	-0.190013	0.790993
H335	H	1.332805	0.059987	1.040993
H336	H	1.582805	0.309987	1.290993
F337	F	0.271571	-0.257670	0.384745
F338	F	0.521571	-0.007670	0.634745
F339	F	0.771571	0.242330	0.884745
F340	F	1.021571	0.492330	1.134745
H341	H	0.978292	-0.269054	1.063391
H342	H	1.228292	-0.019054	1.313391
H343	H	1.478292	0.230946	1.563391
H344	H	1.728292	0.480946	1.813391
F345	F	0.136379	-0.451738	0.219045
F346	F	0.386379	-0.201738	0.469045
F347	F	0.636379	0.048262	0.719045
F348	F	0.886379	0.298262	0.969045
H349	H	0.978157	-0.784480	0.374652
H350	H	1.228157	-0.534480	0.624652
H351	H	1.478157	-0.284480	0.874652
H352	H	1.728157	-0.034480	1.124652
H353	H	0.667018	-0.269381	0.374690
H354	H	0.917018	-0.019381	0.624690
H355	H	1.167018	0.230619	0.874690
H356	H	1.417018	0.480619	1.124690
F357	F	0.136501	-0.257686	0.384755
F358	F	0.386501	-0.007686	0.634755
F359	F	0.636501	0.242314	0.884755
F360	F	0.886501	0.492314	1.134755
H361	H	0.832822	-0.439801	1.063343
H362	H	1.082822	-0.189801	1.313343
H363	H	1.332822	0.060199	1.563343
H364	H	1.582822	0.310199	1.813343
H365	H	0.465204	-0.344303	0.404309
H366	H	0.715204	-0.094303	0.654309
H367	H	0.965204	0.155697	0.904309
H368	H	1.215204	0.405697	1.154309
H369	H	0.666918	-0.439918	0.229046
H370	H	0.916918	-0.189918	0.479046
H371	H	1.166918	0.060082	0.729046
H372	H	1.416918	0.310082	0.979046
F373	F	0.540019	-0.451674	0.219009
F374	F	0.790019	-0.201674	0.469009
F375	F	1.040019	0.048326	0.719009
F376	F	1.290019	0.298326	0.969009
F377	F	0.540136	-0.257633	0.384726
F378	F	0.790136	-0.007633	0.634726
F379	F	1.040136	0.242367	0.884726
F380	F	1.290136	0.492367	1.134726
H381	H	0.346386	-0.365041	0.199445
H382	H	0.596386	-0.115041	0.449445
H383	H	0.846386	0.134959	0.699445
H384	H	1.096386	0.384959	0.949445
F385	F	0.473265	-0.366439	0.185320
F386	F	0.723265	-0.116439	0.435320
F387	F	0.973265	0.133561	0.685320
F388	F	1.223265	0.383561	0.935320
