data_functionalizedCrystal
_audit_creation_method	'MofGen! by Chris Wilmer'
_symmetry_space_group_name_H-M	'P1'
_symmetry_Int_Tables_number	1
_symmetry_cell_setting	triclinic
loop_
_symmetry_equiv_pos_as_xyz
  x,y,z
_cell_length_a	11.169417
_cell_length_b	18.215405
_cell_length_c	18.215387
_cell_angle_alpha	89.908406
_cell_angle_beta	89.942747
_cell_angle_gamma	90.025764
loop_
_atom_site_label
_atom_site_type_symbol
_atom_site_fract_x
_atom_site_fract_y
_atom_site_fract_z
Zn1	Zn	1.835285	-0.292531	-0.416035
Zn2	Zn	2.168618	0.040802	-0.082702
Zn3	Zn	2.501951	0.374135	0.250632
Zn4	Zn	1.834992	-0.415734	-0.292963
Zn5	Zn	2.168325	-0.082400	0.040371
Zn6	Zn	2.501658	0.250933	0.373704
Zn7	Zn	1.634439	-0.292687	-0.292990
Zn8	Zn	1.967773	0.040646	0.040344
Zn9	Zn	2.301106	0.373979	0.373677
Zn10	Zn	1.634527	-0.415562	-0.415995
Zn11	Zn	1.967860	-0.082229	-0.082662
Zn12	Zn	2.301194	0.251104	0.250671
O13	O	1.734811	-0.354129	-0.354496
O14	O	2.068144	-0.020795	-0.021162
O15	O	2.401477	0.312538	0.312171
O16	O	2.003195	-0.308881	-0.399714
O17	O	2.336529	0.024453	-0.066381
O18	O	2.669862	0.357786	0.266952
O19	O	1.808229	-0.399548	-0.189982
O20	O	2.141562	-0.066215	0.143352
O21	O	2.474895	0.267118	0.476685
O22	O	1.661168	-0.189682	-0.309339
O23	O	1.994501	0.143651	0.023994
O24	O	2.327834	0.476984	0.357327
O25	O	2.002980	-0.399397	-0.309294
O26	O	2.336314	-0.066064	0.024039
O27	O	2.669647	0.267270	0.357373
O28	O	1.808728	-0.189568	-0.399740
O29	O	2.142061	0.143766	-0.066407
O30	O	2.475394	0.477099	0.266926
O31	O	1.660884	-0.309147	-0.190001
O32	O	1.994217	0.024187	0.143332
O33	O	2.327550	0.357520	0.476665
O34	O	1.466501	-0.308981	-0.309301
O35	O	1.799834	0.024353	0.024032
O36	O	2.133168	0.357686	0.357365
O37	O	1.661317	-0.399105	-0.518985
O38	O	1.994650	-0.065772	-0.185652
O39	O	2.327984	0.267562	0.147681
O40	O	1.466566	-0.399257	-0.399673
O41	O	1.799899	-0.065923	-0.066340
O42	O	2.133232	0.267410	0.266994
O43	O	1.808813	-0.308715	-0.519014
O44	O	2.142146	0.024619	-0.185681
O45	O	2.475479	0.357952	0.147652
O46	O	1.808314	-0.518695	-0.309256
O47	O	2.141647	-0.185362	0.024078
O48	O	2.474980	0.147971	0.357411
O49	O	1.661033	-0.518570	-0.399647
O50	O	1.994366	-0.185236	-0.066314
O51	O	2.327700	0.148097	0.267019
C52	C	1.422986	-0.354118	-0.354486
C53	C	1.756319	-0.020784	-0.021153
C54	C	2.089653	0.312549	0.312180
C55	C	1.289586	-0.354130	-0.354500
C56	C	1.622919	-0.020797	-0.021166
C57	C	1.956253	0.312536	0.312167
C58	C	1.734684	-0.545335	-0.354460
C59	C	2.068017	-0.212002	-0.021127
C60	C	2.401350	0.121332	0.312206
C61	C	1.734739	-0.627134	-0.354470
C62	C	2.068073	-0.293801	-0.021136
C63	C	2.401406	0.039533	0.312197
C64	C	1.811609	-0.815369	-0.307489
C65	C	2.144942	-0.482035	0.025844
C66	C	2.478275	-0.148702	0.359177
C67	C	1.811662	-0.892227	-0.307507
C68	C	2.144996	-0.558894	0.025826
C69	C	2.478329	-0.225561	0.359159
C70	C	1.658166	-0.892137	-0.401555
C71	C	1.991499	-0.558803	-0.068221
C72	C	2.324833	-0.225470	0.265112
C73	C	1.658119	-0.815279	-0.401540
C74	C	1.991453	-0.481946	-0.068207
C75	C	2.324786	-0.148613	0.265127
C76	C	1.734839	-0.776897	-0.354503
C77	C	2.068172	-0.443564	-0.021170
C78	C	2.401506	-0.110231	0.312163
C79	C	1.734939	-0.930613	-0.354536
C80	C	2.068273	-0.597280	-0.021202
C81	C	2.401606	-0.263947	0.312131
C82	C	1.734997	-1.013947	-0.354555
C83	C	2.068330	-0.680614	-0.021222
C84	C	2.401664	-0.347280	0.312111
C85	C	1.734783	-0.693558	-0.354484
C86	C	2.068116	-0.360225	-0.021151
C87	C	2.401450	-0.026892	0.312182
C88	C	2.047853	-0.354140	-0.354506
C89	C	2.381186	-0.020807	-0.021172
C90	C	2.714520	0.312526	0.312161
C91	C	2.181253	-0.354145	-0.354510
C92	C	2.514586	-0.020812	-0.021177
C93	C	2.847920	0.312521	0.312157
C94	C	1.735107	-0.353873	-0.546449
C95	C	2.068441	-0.020540	-0.213116
C96	C	2.401774	0.312793	0.120218
C97	C	1.735234	-0.353765	-0.628248
C98	C	2.068567	-0.020431	-0.294915
C99	C	2.401901	0.312902	0.038418
C100	C	1.734971	-0.162176	-0.354547
C101	C	2.068304	0.171158	-0.021214
C102	C	2.401637	0.504491	0.312119
C103	C	1.735039	-0.080377	-0.354569
C104	C	2.068372	0.252957	-0.021236
C105	C	2.401705	0.586290	0.312097
C106	C	1.734584	-0.354330	-0.163289
C107	C	2.067917	-0.020997	0.170044
C108	C	2.401251	0.312337	0.503378
C109	C	1.734690	-0.354231	-0.081490
C110	C	2.068023	-0.020898	0.251843
C111	C	2.401357	0.312435	0.585176
C112	C	1.657745	-0.307231	0.183522
C113	C	1.991078	0.026102	0.516855
C114	C	2.324411	0.359436	0.850189
C115	C	1.657649	-0.307311	0.106663
C116	C	1.990983	0.026022	0.439997
C117	C	2.324316	0.359355	0.773330
C118	C	1.812183	-0.400770	0.106745
C119	C	2.145516	-0.067437	0.440078
C120	C	2.478849	0.265897	0.773412
C121	C	1.812271	-0.400693	0.183602
C122	C	2.145604	-0.067360	0.516935
C123	C	2.478938	0.265974	0.850269
C124	C	1.735054	-0.353919	0.221989
C125	C	2.068387	-0.020586	0.555322
C126	C	2.401720	0.312747	0.888655
C127	C	1.734870	-0.354076	0.068273
C128	C	2.068204	-0.020743	0.401606
C129	C	2.401537	0.312590	0.734939
C130	C	1.734768	-0.354164	-0.015061
C131	C	2.068101	-0.020830	0.318273
C132	C	2.401434	0.312503	0.651606
C133	C	1.735154	-0.353833	0.305327
C134	C	2.068488	-0.020500	0.638661
C135	C	2.401821	0.312834	0.971994
H136	H	1.874178	-0.923547	-0.269225
H137	H	2.207511	-0.590214	0.064108
H138	H	2.540845	-0.256881	0.397442
H139	H	1.595604	-0.783954	-0.439828
H140	H	1.928937	-0.450620	-0.106495
H141	H	2.262271	-0.117287	0.226839
H142	H	1.874080	-0.784120	-0.269190
H143	H	2.207414	-0.450787	0.064143
H144	H	2.540747	-0.117453	0.397476
H145	H	1.594869	-0.269145	0.214774
H146	H	1.928202	0.064188	0.548107
H147	H	2.261536	0.397522	0.881441
N148	N	1.574262	-0.256958	0.065173
N149	N	1.907595	0.076376	0.398507
N150	N	2.240929	0.409709	0.731840
H151	H	1.525361	-0.227318	0.101156
H152	H	1.858695	0.106015	0.434489
H153	H	2.192028	0.439349	0.767822
H154	H	1.622704	-0.222721	0.033142
H155	H	1.956038	0.110613	0.366475
H156	H	2.289371	0.443946	0.699809
H157	H	1.875051	-0.438851	0.075481
H158	H	2.208385	-0.105518	0.408815
H159	H	2.541718	0.227816	0.742148
H160	H	1.875228	-0.438715	0.214923
H161	H	2.208562	-0.105382	0.548256
H162	H	2.541895	0.227951	0.881589
H163	H	1.595702	-0.923396	-0.439849
H164	H	1.929035	-0.590063	-0.106516
H165	H	2.262369	-0.256730	0.226817
