data_functionalizedCrystal
_audit_creation_method	'MofGen! by Chris Wilmer'
_symmetry_space_group_name_H-M	'P1'
_symmetry_Int_Tables_number	1
_symmetry_cell_setting	triclinic
loop_
_symmetry_equiv_pos_as_xyz
  x,y,z
_cell_length_a	12.645331
_cell_length_b	12.645330
_cell_length_c	17.077396
_cell_angle_alpha	89.973796
_cell_angle_beta	89.984878
_cell_angle_gamma	90.013057
loop_
_atom_site_label
_atom_site_type_symbol
_atom_site_fract_x
_atom_site_fract_y
_atom_site_fract_z
Zn1	Zn	1.620738	-0.422028	-0.443763
Zn2	Zn	1.620644	-0.599313	-0.312503
Zn3	Zn	1.443462	-0.422066	-0.312521
Zn4	Zn	1.443450	-0.599251	-0.443736
O5	O	1.532074	-0.510664	-0.378131
O6	O	1.769073	-0.445555	-0.426355
O7	O	1.597106	-0.575843	-0.202658
O8	O	1.467022	-0.273713	-0.329950
O9	O	1.769004	-0.575806	-0.329918
O10	O	1.597266	-0.273686	-0.426373
O11	O	1.466931	-0.445620	-0.202672
O12	O	1.295113	-0.445559	-0.329924
O13	O	1.467002	-0.575700	-0.553587
O14	O	1.295104	-0.575737	-0.426327
O15	O	1.597255	-0.445495	-0.553607
O16	O	1.597095	-0.747652	-0.329892
O17	O	1.466911	-0.747606	-0.426309
C18	C	1.256644	-0.510646	-0.378125
C19	C	1.138814	-0.510664	-0.378141
C20	C	1.532020	-0.786094	-0.378112
C21	C	1.532095	-0.903924	-0.378131
C22	C	1.093962	-0.592698	-0.438699
C23	C	0.971402	-0.593035	-0.438519
C24	C	0.970868	-0.540501	-0.295313
C25	C	1.093467	-0.541080	-0.295664
C26	C	1.093656	-0.398619	-0.399686
C27	C	0.971051	-0.399238	-0.401510
C28	C	1.613862	-1.071473	-0.317352
C29	C	1.614128	-0.948912	-0.317501
C30	C	1.562389	-0.948308	-0.460873
C31	C	1.563038	-1.070906	-0.460550
C32	C	1.420001	-1.071252	-0.356983
C33	C	1.420538	-0.948647	-0.355127
C34	C	1.808579	-0.510684	-0.378138
C35	C	1.926409	-0.510692	-0.378140
C36	C	1.532138	-0.510586	-0.582875
C37	C	1.532165	-0.510553	-0.670125
C38	C	1.532156	-0.234159	-0.378167
C39	C	1.532191	-0.116329	-0.378182
C40	C	1.599990	-0.442750	-0.711127
C41	C	1.600003	-0.442714	-0.793107
C42	C	1.532195	-0.510489	-0.834085
C43	C	1.464363	-0.578295	-0.793077
C44	C	1.464345	-0.578324	-0.711098
C45	C	1.464405	-0.578231	-0.963947
C46	C	1.464424	-0.578204	-1.045932
C47	C	1.600063	-0.442621	-1.045957
C48	C	1.600046	-0.442651	-0.963978
C49	C	1.532214	-0.510459	-0.922976
C50	C	1.532071	-0.510666	-0.174183
C51	C	1.532249	-0.510400	-0.086934
H52	H	0.941344	-0.574440	-0.499924
H53	H	1.409206	-0.633389	-1.079293
H54	H	1.655267	-0.387469	-0.930616
H55	H	0.941724	-0.482585	-0.248953
H56	H	1.506158	-1.100574	-0.507435
H57	H	1.409104	-0.633526	-0.677715
H58	H	1.397696	-0.919650	-0.294236
H59	H	1.655210	-0.387563	-0.677769
H60	H	1.697223	-0.919504	-0.331522
H61	H	0.940424	-0.334893	-0.360653
H62	H	1.122039	-0.622969	-0.277454
H63	H	0.942052	-0.676069	-0.424225
H64	H	1.123136	-0.483883	-0.248995
H65	H	1.645043	-1.099418	-0.478508
H66	H	1.359149	-1.100261	-0.401288
H67	H	1.595174	-0.918908	-0.256148
H68	H	1.123475	-0.574317	-0.500295
H69	H	1.696511	-1.102203	-0.331216
H70	H	1.504714	-0.919163	-0.507410
H71	H	1.124748	-0.675252	-0.424578
H72	H	0.940147	-0.621499	-0.276794
H73	H	1.655292	-0.387408	-1.079344
H74	H	1.409153	-0.633431	-0.930566
H75	H	1.124605	-0.371381	-0.459066
H76	H	0.941996	-0.376750	-0.462466
H77	H	1.643468	-0.917519	-0.479130
H78	H	1.392451	-1.102260	-0.297699
H79	H	1.409148	-0.633474	-0.826447
H80	H	1.122662	-0.337504	-0.355583
H81	H	1.595145	-1.101025	-0.255820
H82	H	1.356405	-0.918034	-0.396185
H83	H	1.655235	-0.387504	-0.826488
