data_functionalizedCrystal
_audit_creation_method	'MofGen! by Chris Wilmer'
_symmetry_space_group_name_H-M	'P1'
_symmetry_Int_Tables_number	1
_symmetry_cell_setting	triclinic
loop_
_symmetry_equiv_pos_as_xyz
  x,y,z
_cell_length_a	16.109301
_cell_length_b	15.944551
_cell_length_c	14.586319
_cell_angle_alpha	89.995256
_cell_angle_beta	89.999213
_cell_angle_gamma	83.480109
loop_
_atom_site_label
_atom_site_type_symbol
_atom_site_fract_x
_atom_site_fract_y
_atom_site_fract_z
O1	O	1.103166	0.107966	-0.076184
O2	O	1.603166	0.607966	0.423816
O3	O	0.861108	0.121403	-0.076199
O4	O	1.361108	0.621403	0.423801
O5	O	0.988747	-0.007593	-0.076183
O6	O	1.488747	0.492407	0.423817
O7	O	0.975527	0.236961	-0.076200
O8	O	1.475527	0.736961	0.423800
O9	O	0.988738	-0.007595	0.076298
O10	O	1.488738	0.492405	0.576298
O11	O	0.861099	0.121401	0.076282
O12	O	1.361099	0.621401	0.576282
O13	O	1.103157	0.107964	0.076296
O14	O	1.603157	0.607964	0.576296
Cu15	Cu	0.982127	0.114682	0.090212
Cu16	Cu	1.482127	0.614682	0.590212
Cu17	Cu	0.982138	0.114685	-0.090114
Cu18	Cu	1.482138	0.614685	0.409886
O19	O	0.975518	0.236960	0.076280
O20	O	1.475518	0.736960	0.576280
C21	C	0.830129	0.120857	0.000039
C22	C	1.330129	0.620857	0.500039
C23	C	0.737833	0.119226	0.000034
C24	C	1.237833	0.619226	0.500034
C25	C	0.515584	0.191975	0.000040
C26	C	1.015584	0.691975	0.500040
C27	C	0.428863	0.190435	0.000046
C28	C	0.928863	0.690435	0.500046
C29	C	0.448688	0.037387	0.000053
C30	C	0.948688	0.537387	0.500053
C31	C	0.535407	0.038927	0.000053
C32	C	1.035407	0.538927	0.500053
C33	C	0.568853	0.116224	0.000042
C34	C	1.068853	0.616224	0.500042
C35	C	0.395412	0.113143	0.000047
C36	C	0.895412	0.613143	0.500047
C37	C	0.301386	0.111473	0.000054
C38	C	0.801386	0.611473	0.500054
C39	C	0.662885	0.117894	0.000037
C40	C	1.162885	0.617894	0.500037
C41	C	0.988194	-0.038887	0.000057
C42	C	1.488194	0.461113	0.500057
C43	C	0.986548	-0.132133	0.000058
C44	C	1.486548	0.367867	0.500058
C45	C	0.903499	-0.346962	0.000040
C46	C	1.403499	0.153038	0.500040
C47	C	0.942060	-0.407993	0.075225
C48	C	1.442060	0.092007	0.575225
C49	C	0.983572	-0.302858	0.000051
C50	C	1.483572	0.197142	0.500051
C51	C	0.942088	-0.407975	-0.075109
C52	C	1.442088	0.092025	0.424891
C53	C	0.980691	-0.467769	0.000040
C54	C	1.480691	0.032231	0.500040
C55	C	1.022155	-0.362660	0.075297
C56	C	1.522155	0.137340	0.575297
C57	C	1.022171	-0.362636	-0.075104
C58	C	1.522171	0.137364	0.424896
C59	C	1.060790	-0.423649	0.000099
C60	C	1.560790	0.076351	0.500099
C61	C	0.985229	-0.207856	0.000058
C62	C	1.485229	0.292144	0.500058
C63	C	0.979039	-0.562770	0.000039
C64	C	1.479039	-0.062770	0.500039
C65	C	1.134136	0.108510	0.000056
C66	C	1.634136	0.608510	0.500056
C67	C	1.226432	0.110141	0.000055
C68	C	1.726432	0.610141	0.500055
C69	C	0.976071	0.268254	0.000038
C70	C	1.476071	0.768254	0.500038
C71	C	0.977717	0.361500	0.000031
C72	C	1.477717	0.861500	0.500031
N73	N	0.982126	0.114680	0.217044
N74	N	1.482126	0.614680	0.717044
N75	N	0.982146	0.114680	-0.216946
N76	N	1.482146	0.614680	0.283054
C77	C	1.038663	0.057580	0.452057
C78	C	1.538663	0.557580	0.952057
C79	C	1.038666	0.057578	0.548038
C80	C	1.538666	0.557578	1.048038
C81	C	0.925602	0.171783	0.548034
C82	C	1.425602	0.671783	1.048034
C83	C	0.925597	0.171780	0.452054
C84	C	1.425597	0.671780	0.952054
C85	C	0.982132	0.114680	0.404068
C86	C	1.482132	0.614680	0.904068
C87	C	0.982140	0.114680	0.596029
C88	C	1.482140	0.614680	1.096029
C89	C	0.982142	0.114679	0.700096
C90	C	1.482142	0.614679	1.200096
C91	C	0.982129	0.114680	0.299995
C92	C	1.482129	0.614680	0.799995
H93	H	0.542812	0.254914	0.000037
H94	H	1.042812	0.754914	0.500037
H95	H	0.578781	-0.022762	0.000058
H96	H	1.078781	0.477238	0.500058
H97	H	0.837035	-0.313632	0.000111
H98	H	1.337035	0.186368	0.500111
H99	H	0.385495	0.252119	0.000045
H100	H	0.885495	0.752119	0.500045
C101	C	1.192300	-0.445595	0.078944
C102	C	1.692300	0.054405	0.578944
C103	C	1.150588	-0.468453	0.000159
C104	C	1.650588	0.031547	0.500159
H105	H	1.247734	-0.473262	0.078985
H106	H	1.747734	0.026738	0.578985
H107	H	1.193824	-0.386221	0.079442
H108	H	1.693824	0.113779	0.579442
H109	H	1.163636	-0.461815	0.131836
H110	H	1.663636	0.038185	0.631836
H111	H	1.179249	-0.452227	-0.052734
H112	H	1.679249	0.047773	0.447266
H113	H	1.149069	-0.527840	-0.000348
H114	H	1.649069	-0.027840	0.499652
C115	C	0.907555	0.286088	0.344097
C116	C	1.407555	0.786088	0.844097
C117	C	0.863455	0.234551	0.399296
C118	C	1.363455	0.734551	0.899296
H119	H	0.869191	0.324834	0.311524
H120	H	1.369191	0.824834	0.811524
H121	H	0.942156	0.316313	0.381533
H122	H	1.442156	0.816313	0.881533
H123	H	0.941217	0.252069	0.301787
H124	H	1.441217	0.752069	0.801787
H125	H	0.829798	0.268571	0.441611
H126	H	1.329798	0.768571	0.941611
H127	H	0.828841	0.204325	0.361857
H128	H	1.328841	0.704325	0.861857
C129	C	0.813988	-0.396039	0.160885
C130	C	1.313988	0.103961	0.660885
C131	C	0.896339	-0.435133	0.161025
C132	C	1.396339	0.064867	0.661025
H133	H	0.785759	-0.412796	0.213849
H134	H	1.285759	0.087204	0.713849
H135	H	0.814261	-0.336501	0.161223
H136	H	1.314261	0.163499	0.661223
H137	H	0.786092	-0.412318	0.107492
H138	H	1.286092	0.087682	0.607492
H139	H	0.924237	-0.418848	0.214414
H140	H	1.424237	0.081152	0.714414
H141	H	0.896070	-0.494683	0.160695
H142	H	1.396070	0.005317	0.660695
C143	C	1.137605	-0.296379	-0.134284
C144	C	1.637605	0.203621	0.365716
C145	C	1.067858	-0.335465	-0.160907
C146	C	1.567858	0.164535	0.339093
H147	H	1.165807	-0.279608	-0.187262
H148	H	1.665807	0.220392	0.312738
H149	H	1.119956	-0.248141	-0.098048
H150	H	1.619956	0.251859	0.401952
H151	H	1.174360	-0.334887	-0.099500
H152	H	1.674360	0.165113	0.400500
H153	H	1.031100	-0.296955	-0.195686
H154	H	1.531100	0.203045	0.304314
H155	H	1.085506	-0.383709	-0.197159
H156	H	1.585506	0.116291	0.302841
C157	C	0.950973	-0.490617	-0.213096
C158	C	1.450973	0.009383	0.286904
C159	C	0.896360	-0.435079	-0.160915
C160	C	1.396360	0.064921	0.339085
H161	H	0.922736	-0.507350	-0.266062
H162	H	1.422736	-0.007350	0.233938
H163	H	0.997692	-0.463170	-0.231164
H164	H	1.497692	0.036830	0.268836
H165	H	0.969519	-0.539004	-0.177451
H166	H	1.469519	-0.039004	0.322549
H167	H	0.877819	-0.386688	-0.196558
H168	H	1.377819	0.113312	0.303442
H169	H	0.849627	-0.462525	-0.142848
H170	H	1.349627	0.037475	0.357152
H171	H	1.055990	-0.342682	0.138930
H172	H	1.555990	0.157318	0.638930
C173	C	1.150413	-0.055312	0.461706
C174	C	1.650413	0.444688	0.961706
C175	C	1.100798	-0.005191	0.399310
C176	C	1.600798	0.494809	0.899310
H177	H	1.188768	-0.094070	0.429142
H178	H	1.688768	0.405930	0.929142
H179	H	1.180322	-0.020340	0.499131
H180	H	1.680322	0.479660	0.999131
H181	H	1.115797	-0.085530	0.499151
H182	H	1.615797	0.414470	0.999151
H183	H	1.135414	0.025032	0.361870
H184	H	1.635414	0.525032	0.861870
H185	H	1.070886	-0.040168	0.361869
H186	H	1.570886	0.459832	0.861869
H187	H	0.879574	0.218274	0.587113
H188	H	1.379574	0.718274	1.087113
C189	C	1.088872	0.006866	0.695167
C190	C	1.588872	0.506866	1.195167
C191	C	1.100807	-0.005187	0.600789
C192	C	1.600807	0.494813	1.100789
H193	H	1.127234	-0.031890	0.727731
H194	H	1.627234	0.468110	1.227731
H195	H	1.097905	0.062921	0.710887
H196	H	1.597905	0.562921	1.210887
H197	H	1.033386	-0.002275	0.710891
H198	H	1.533386	0.497725	1.210891
H199	H	1.156292	0.003961	0.585064
H200	H	1.656292	0.503961	1.085064
H201	H	1.091780	-0.061255	0.585063
H202	H	1.591780	0.438745	1.085063
C203	C	0.324555	-0.032933	0.000045
C204	C	0.824555	0.467067	0.500045
C205	C	0.411921	-0.047575	0.000053
C206	C	0.911921	0.452425	0.500053
H207	H	0.301861	-0.085387	0.000038
H208	H	0.801861	0.414613	0.500038
H209	H	0.306274	-0.001754	0.053215
H210	H	0.806274	0.498246	0.553215
H211	H	0.306282	-0.001738	-0.053133
H212	H	0.806282	0.498262	0.446867
H213	H	0.430195	-0.078764	0.053234
H214	H	0.930195	0.421236	0.553234
H215	H	0.430210	-0.078767	-0.053122
H216	H	0.930210	0.421233	0.446878
