data_functionalizedCrystal
_audit_creation_method	'MofGen! by Chris Wilmer'
_symmetry_space_group_name_H-M	'P1'
_symmetry_Int_Tables_number	1
_symmetry_cell_setting	triclinic
loop_
_symmetry_equiv_pos_as_xyz
  x,y,z
_cell_length_a	17.077404
_cell_length_b	25.639240
_cell_length_c	17.077396
_cell_angle_alpha	90.034713
_cell_angle_beta	89.983895
_cell_angle_gamma	89.958077
loop_
_atom_site_label
_atom_site_type_symbol
_atom_site_fract_x
_atom_site_fract_y
_atom_site_fract_z
Zn1	Zn	1.199922	0.208175	-0.443789
Zn2	Zn	1.199786	0.295614	-0.312511
Zn3	Zn	1.068659	0.208191	-0.312540
Zn4	Zn	1.068574	0.295578	-0.443737
O5	O	1.134235	0.251889	-0.378144
O6	O	1.309751	0.219782	-0.426385
O7	O	1.182371	0.284039	-0.202668
O8	O	1.086164	0.135024	-0.329984
O9	O	1.309651	0.284023	-0.329935
O10	O	1.182603	0.135012	-0.426413
O11	O	1.086032	0.219810	-0.202689
O12	O	0.958801	0.219775	-0.329934
O13	O	1.086019	0.283962	-0.553591
O14	O	0.958738	0.283978	-0.426324
O15	O	1.182520	0.219747	-0.553629
O16	O	1.182288	0.368774	-0.329884
O17	O	1.085887	0.368748	-0.426296
C18	C	0.930287	0.251875	-0.378127
C19	C	0.843038	0.251881	-0.378138
C20	C	0.802100	0.218490	-0.428436
C21	C	0.720120	0.218493	-0.428439
C22	C	0.679078	0.251891	-0.378148
C23	C	0.720021	0.285283	-0.327845
C24	C	0.802000	0.285276	-0.327838
C25	C	0.549151	0.285295	-0.327864
C26	C	0.467167	0.285302	-0.327872
C27	C	0.467271	0.218512	-0.428466
C28	C	0.549250	0.218505	-0.428459
C29	C	0.590187	0.251898	-0.378156
C30	C	1.134085	0.387732	-0.378098
C31	C	1.134092	0.445846	-0.378105
C32	C	1.083975	0.697038	-0.428304
C33	C	1.083953	0.642434	-0.428298
O34	O	1.041243	0.614196	-0.470966
N35	N	1.134170	0.615120	-0.378136
C36	C	1.184418	0.642413	-0.327983
O37	O	1.227130	0.614166	-0.285317
C38	C	1.184444	0.697016	-0.327993
C39	C	1.134218	0.724327	-0.378152
C40	C	1.033754	0.724349	-0.478459
C41	C	1.033776	0.778950	-0.478464
C42	C	1.084018	0.806239	-0.428313
C43	C	1.134240	0.778928	-0.378157
C44	C	1.234696	0.724308	-0.277845
C45	C	1.234718	0.778915	-0.277860
C46	C	1.184492	0.806227	-0.328019
C47	C	1.184504	0.860818	-0.328011
N48	N	1.134287	0.888132	-0.378172
C49	C	1.084044	0.860843	-0.428323
C50	C	1.184361	0.527742	-0.327966
C51	C	1.184332	0.473140	-0.327951
C52	C	1.083868	0.473165	-0.428267
C53	C	1.083893	0.527768	-0.428277
C54	C	1.134144	0.555056	-0.378127
C55	C	1.084093	0.975508	-0.428329
C56	C	1.084116	1.030113	-0.428327
C57	C	1.184584	1.030084	-0.328014
C58	C	1.184557	0.975483	-0.328013
C59	C	1.134309	0.948196	-0.378177
O60	O	1.227195	0.889090	-0.285366
O61	O	1.041347	0.889096	-0.470990
C62	C	1.338980	0.251905	-0.378162
C63	C	1.426229	0.251911	-0.378170
C64	C	1.134275	0.251849	-0.582889
C65	C	1.134292	0.251832	-0.670139
C66	C	1.134377	1.115516	-0.378193
C67	C	1.134359	1.057402	-0.378176
C68	C	1.084143	0.218384	-0.711139
C69	C	1.084156	0.218372	-0.793120
C70	C	1.134322	0.251806	-0.834098
C71	C	1.184472	0.285257	-0.793092
C72	C	1.184455	0.285272	-0.711113
C73	C	1.184506	0.285225	-0.963962
C74	C	1.184525	0.285210	-1.045947
C75	C	1.084208	0.218325	-1.045969
C76	C	1.084190	0.218339	-0.963990
C77	C	1.134342	0.251790	-0.922989
C78	C	1.134241	0.251892	-0.174197
C79	C	1.134377	0.251762	-0.086947
H80	H	0.835331	0.312466	-0.286880
F81	F	1.030753	0.182791	-0.836752
F82	F	1.288161	0.695253	-0.224464
H83	H	1.043297	0.191155	-0.677780
H84	H	1.043345	0.191112	-0.930627
F85	F	0.592718	0.320838	-0.274329
F86	F	1.237880	0.320830	-0.920328
H87	H	1.042958	0.450936	-0.469104
H88	H	1.225280	0.549957	-0.287121
F89	F	0.980275	0.695314	-0.531843
H90	H	1.225296	0.312504	-0.677731
F91	F	1.237999	0.946415	-0.274614
H92	H	0.835510	0.191295	-0.469391
H93	H	0.686599	0.312473	-0.286893
F94	F	0.676555	0.182955	-0.481975
F95	F	1.288205	0.807954	-0.224483
F96	F	1.237857	0.320844	-0.836706
H97	H	1.043215	1.052347	-0.469174
H98	H	1.225487	1.052312	-0.287179
F99	F	0.423702	0.182971	-0.482000
F100	F	0.423489	0.320857	-0.274362
F101	F	1.030613	0.946475	-0.481719
H102	H	1.042999	0.550001	-0.469126
H103	H	0.992875	0.801182	-0.519307
H104	H	1.225374	0.312435	-1.079309
H105	H	1.225222	0.450907	-0.287098
H106	H	1.043373	0.191087	-1.079356
H107	H	0.582664	0.191313	-0.469415
