data_functionalizedCrystal
_audit_creation_method	'MofGen! by Chris Wilmer'
_symmetry_space_group_name_H-M	'P1'
_symmetry_Int_Tables_number	1
_symmetry_cell_setting	triclinic
loop_
_symmetry_equiv_pos_as_xyz
  x,y,z
_cell_length_a	13.262390
_cell_length_b	10.489716
_cell_length_c	11.804365
_cell_angle_alpha	101.956103
_cell_angle_beta	62.657606
_cell_angle_gamma	84.480389
loop_
_atom_site_label
_atom_site_type_symbol
_atom_site_fract_x
_atom_site_fract_y
_atom_site_fract_z
O1	O	1.519425	0.018741	-0.591143
O2	O	1.191433	0.064929	-0.484911
O3	O	1.362908	-0.144434	-0.540454
O4	O	1.347951	0.228104	-0.535601
O5	O	1.317765	-0.089368	-0.327775
O6	O	1.146290	0.119995	-0.272233
O7	O	1.474282	0.073807	-0.378465
Cu8	Cu	1.306164	0.101929	-0.305930
Cu9	Cu	1.359551	0.036807	-0.557446
O10	O	1.302807	0.283170	-0.322922
C11	C	1.126862	0.094937	-0.364969
C12	C	1.001718	0.102298	-0.324437
C13	C	0.747400	0.002958	-0.673928
C14	C	0.864980	-0.003964	-0.712012
C15	C	0.899171	0.022601	-0.615121
C16	C	0.815769	0.056089	-0.480141
C17	C	0.698178	0.063001	-0.442053
C18	C	0.849949	0.082644	-0.383247
C19	C	0.766547	0.116132	-0.248266
C20	C	0.648968	0.123044	-0.210185
C21	C	0.614778	0.096479	-0.307075
C22	C	0.967540	0.075732	-0.421334
C23	C	0.918318	0.135775	-0.189459
C24	C	0.800738	0.142697	-0.151375
C25	C	1.339214	-0.164334	-0.433754
C26	C	1.335854	-0.305667	-0.432677
C27	C	1.441005	-0.412730	-0.466723
C28	C	1.407697	-0.512277	-0.553585
C29	C	1.363165	-0.457949	-0.343893
C30	C	1.302608	-0.403375	-0.519639
C31	C	1.258072	-0.349019	-0.309858
C32	C	1.224692	-0.448516	-0.396720
C33	C	1.538854	0.043798	-0.498410
C34	C	1.664000	0.036435	-0.538950
C35	C	1.326502	0.303069	-0.429624
C36	C	1.329864	0.444401	-0.430710
N37	N	1.268623	0.147730	-0.129029
N38	N	1.397101	-0.009005	-0.734350
C39	C	1.487252	-0.119015	0.174104
C40	C	1.515650	-0.153669	0.040243
C41	C	1.453896	-0.078322	-0.002082
C42	C	1.363738	0.031684	0.089467
C43	C	1.335342	0.066348	0.223339
C44	C	1.301986	0.107041	0.047154
C45	C	1.211829	0.217048	0.138703
C46	C	1.183437	0.251705	0.272561
C47	C	1.245192	0.176358	0.314886
C48	C	1.330382	0.072377	-0.086718
C49	C	1.178473	0.257740	-0.037482
C50	C	1.150074	0.292394	0.096378
H51	H	0.932879	-0.031237	-0.821913
O52	O	0.714389	-0.022935	-0.768207
C53	C	0.775591	-0.083125	-1.002206
C54	C	0.813136	-0.053865	-0.895564
H55	H	0.855403	-0.108111	-1.105197
H56	H	0.731421	-0.171400	-0.993380
H57	H	0.712126	0.008578	-0.986973
H58	H	0.876636	-0.145488	-0.910728
H59	H	0.857240	0.034459	-0.904419
H60	H	0.519036	0.102118	-0.276074
H61	H	1.277081	-0.379087	-0.594018
O62	O	1.483259	-0.596247	-0.676458
C63	C	1.682610	-0.673924	-0.852328
C64	C	1.597160	-0.578791	-0.713158
H65	H	1.774714	-0.659824	-0.882054
H66	H	1.678749	-0.781643	-0.850572
H67	H	1.657604	-0.650666	-0.927433
H68	H	1.622108	-0.601927	-0.637975
H69	H	1.601036	-0.471100	-0.715023
O70	O	1.062569	0.399252	0.185475
C71	C	0.951463	0.534737	0.413538
C72	C	1.050605	0.413710	0.312771
H73	H	0.941742	0.546449	0.516485
H74	H	0.972524	0.628929	0.382297
H75	H	0.866663	0.518373	0.416441
H76	H	1.135444	0.429945	0.309819
H77	H	1.029444	0.319561	0.344051
O78	O	1.115591	-0.468144	-0.361599
C79	C	0.995644	-0.589774	-0.424983
C80	C	1.119258	-0.567698	-0.464902
H81	H	0.998564	-0.670242	-0.508492
H82	H	0.960221	-0.622819	-0.330294
H83	H	0.936615	-0.492518	-0.406636
H84	H	1.178377	-0.664906	-0.483320
H85	H	1.154586	-0.534590	-0.559553
O86	O	0.568095	0.155641	-0.079007
C87	C	0.531695	0.214390	0.146958
C88	C	0.623397	0.177520	-0.001550
H89	H	0.576374	0.232062	0.209624
H90	H	0.465825	0.309133	0.173771
H91	H	0.484996	0.129167	0.167417
H92	H	0.670181	0.262657	-0.022116
H93	H	0.689190	0.082736	-0.028288
H94	H	1.194903	-0.278585	-0.206839
O95	O	1.481684	-0.112013	-0.132178
C96	C	1.629637	-0.144138	-0.359025
C97	C	1.598328	-0.105977	-0.211739
H98	H	1.723937	-0.139244	-0.423389
H99	H	1.618151	-0.249907	-0.389207
H100	H	1.569960	-0.071418	-0.373504
H101	H	1.657980	-0.178606	-0.197150
H102	H	1.609781	-0.000177	-0.181627
H103	H	1.589057	-0.243234	-0.034291
O104	O	1.118575	0.331123	-0.078557
C105	C	1.062930	0.547356	-0.098615
C106	C	1.130823	0.464405	-0.052057
H107	H	1.072789	0.655137	-0.077182
H108	H	1.098709	0.503794	-0.210031
H109	H	0.966951	0.544558	-0.043013
H110	H	1.226812	0.467170	-0.107563
H111	H	1.094949	0.507994	0.059373
H112	H	1.035435	0.048469	-0.531236
H113	H	1.388760	-0.482436	-0.269630
H114	H	1.222067	0.204570	0.423886
O115	O	1.013438	0.015671	-0.652279
C116	C	1.207554	-0.122108	-0.774318
C117	C	1.078182	-0.114443	-0.732355
H118	H	1.259933	-0.227304	-0.839044
H119	H	1.240866	-0.047411	-0.833023
H120	H	1.217623	-0.097297	-0.681860
H121	H	1.068013	-0.139283	-0.824741
H122	H	1.044930	-0.189118	-0.673602
O123	O	0.951674	0.161384	-0.095456
C124	C	1.067700	0.077022	-0.007691
C125	C	1.030031	0.047864	-0.114231
H126	H	1.131038	-0.014749	-0.022818
H127	H	1.111998	0.165192	-0.016622
H128	H	0.987871	0.102190	0.095310
H129	H	1.109798	0.022636	-0.217281
H130	H	0.985691	-0.040268	-0.105183
O131	O	1.417814	-0.034659	-0.175498
C132	C	1.490735	-0.272070	-0.237072
C133	C	1.391627	-0.150944	-0.136474
H134	H	1.469610	-0.366112	-0.205543
H135	H	1.500470	-0.284088	-0.340060
H136	H	1.575549	-0.255657	-0.240041
H137	H	1.306759	-0.167269	-0.133388
H138	H	1.381996	-0.138962	-0.033537
H139	H	1.537530	-0.180346	0.208573
H140	H	0.732816	0.169963	-0.041472
H141	H	1.110035	0.341287	0.347099
H142	H	1.532492	-0.396251	-0.496454
