data_functionalizedCrystal
_audit_creation_method	'MofGen! by Chris Wilmer'
_symmetry_space_group_name_H-M	'P1'
_symmetry_Int_Tables_number	1
_symmetry_cell_setting	triclinic
loop_
_symmetry_equiv_pos_as_xyz
  x,y,z
_cell_length_a	13.897449
_cell_length_b	16.120484
_cell_length_c	13.897441
_cell_angle_alpha	87.133502
_cell_angle_beta	90.018596
_cell_angle_gamma	92.926780
loop_
_atom_site_label
_atom_site_type_symbol
_atom_site_fract_x
_atom_site_fract_y
_atom_site_fract_z
Zn1	Zn	1.455161	-0.331860	0.564824
Zn2	Zn	1.955161	0.168140	1.064824
Zn3	Zn	1.446859	-0.471289	0.411694
Zn4	Zn	1.946859	0.028711	0.911694
Zn5	Zn	1.293854	-0.331897	0.403545
Zn6	Zn	1.793854	0.168103	0.903545
Zn7	Zn	1.285633	-0.471237	0.572944
Zn8	Zn	1.785633	0.028763	1.072944
O9	O	1.370376	-0.401571	0.488252
O10	O	1.870376	0.098429	0.988252
O11	O	1.589041	-0.350362	0.544524
O12	O	2.089041	0.149638	1.044524
O13	O	1.426528	-0.452836	0.275634
O14	O	1.926528	0.047164	0.775634
O15	O	1.322166	-0.215227	0.418130
O16	O	1.822166	0.284773	0.918130
O17	O	1.582941	-0.452800	0.432020
O18	O	2.082941	0.047200	0.932020
O19	O	1.440678	-0.215199	0.536621
O20	O	1.940678	0.284801	1.036621
O21	O	1.314116	-0.350426	0.269646
O22	O	1.814116	0.149574	0.769646
O23	O	1.157782	-0.350375	0.426003
O24	O	1.657782	0.149625	0.926003
O25	O	1.308155	-0.452711	0.706846
O26	O	1.808155	0.047289	1.206846
O27	O	1.151742	-0.452747	0.550460
O28	O	1.651742	0.047253	1.050460
O29	O	1.432706	-0.350311	0.700881
O30	O	1.932706	0.149689	1.200881
O31	O	1.418557	-0.587948	0.439893
O32	O	1.918557	-0.087948	0.939893
O33	O	1.300105	-0.587910	0.558363
O34	O	1.800105	-0.087910	1.058363
C35	C	1.119763	-0.401560	0.488229
C36	C	1.619763	0.098440	0.988229
C37	C	1.012548	-0.401575	0.488243
C38	C	1.512548	0.098425	0.988243
C39	C	0.816253	-0.401578	0.488269
C40	C	1.316253	0.098422	0.988269
C41	C	0.925485	-0.401574	0.488252
C42	C	1.425485	0.098426	0.988252
C43	C	1.357564	-0.618179	0.500914
C44	C	1.857564	-0.118179	1.000914
C45	C	1.352171	-0.710845	0.506364
C46	C	1.852171	-0.210845	1.006364
C47	C	1.342330	-0.880506	0.516333
C48	C	1.842330	-0.380506	1.016333
C49	C	1.398595	-0.921795	0.460187
C50	C	1.898595	-0.421795	0.960187
C51	C	1.393120	-1.016201	0.465733
C52	C	1.893120	-0.516201	0.965733
C53	C	1.347805	-0.786092	0.510787
C54	C	1.847805	-0.286092	1.010787
C55	C	1.621969	-0.401583	0.488275
C56	C	2.121969	0.098417	0.988275
C57	C	1.729182	-0.401588	0.488285
C58	C	2.229182	0.098412	0.988285
C59	C	1.370439	-0.401501	0.739841
C60	C	1.870439	0.098499	1.239841
C61	C	1.370466	-0.401471	0.847053
C62	C	1.870466	0.098529	1.347053
C63	C	1.383265	-0.184117	0.475561
C64	C	1.883265	0.315883	0.975561
C65	C	1.388757	-0.091451	0.470153
C66	C	1.888757	0.408549	0.970153
C67	C	1.370372	-0.401581	0.237638
C68	C	1.870372	0.098419	0.737638
C69	C	1.370546	-0.401376	0.130412
C70	C	1.870546	0.098624	0.630412
C71	C	1.370488	-0.401448	0.934121
C72	C	1.870488	0.098552	1.434121
C73	C	1.370517	-0.401410	1.043352
C74	C	1.870517	0.098590	1.543352
H75	H	1.450876	-0.886242	0.407952
H76	H	1.950876	-0.386242	0.907952
C77	C	1.272765	-0.928011	0.586033
C78	C	1.772765	-0.428011	1.086033
C79	C	1.324502	-0.977939	0.650767
C80	C	1.824502	-0.477939	1.150767
C81	C	1.260449	-1.021731	0.714976
C82	C	1.760449	-0.521731	1.214976
H83	H	1.238149	-0.889791	0.620630
H84	H	1.738149	-0.389791	1.120630
H85	H	1.228843	-0.962086	0.551075
H86	H	1.728843	-0.462086	1.051075
H87	H	1.368407	-0.943867	0.685721
H88	H	1.868407	-0.443867	1.185721
H89	H	1.359115	-1.016175	0.616197
H90	H	1.859115	-0.516175	1.116197
H91	H	1.216526	-1.055806	0.680018
H92	H	1.716526	-0.555806	1.180018
H93	H	1.225836	-0.983504	0.749566
H94	H	1.725836	-0.483504	1.249566
H95	H	1.295541	-1.055617	0.758900
H96	H	1.795541	-0.555617	1.258900
