data_functionalizedCrystal
_audit_creation_method	'MofGen! by Chris Wilmer'
_symmetry_space_group_name_H-M	'P1'
_symmetry_Int_Tables_number	1
_symmetry_cell_setting	triclinic
loop_
_symmetry_equiv_pos_as_xyz
  x,y,z
_cell_length_a	27.732048
_cell_length_b	27.732048
_cell_length_c	18.366186
_cell_angle_alpha	89.988789
_cell_angle_beta	89.996446
_cell_angle_gamma	82.642655
loop_
_atom_site_label
_atom_site_type_symbol
_atom_site_fract_x
_atom_site_fract_y
_atom_site_fract_z
O1	O	0.640930	0.057518	-0.060464
O2	O	0.500137	0.066263	-0.060487
O3	O	0.574906	-0.008506	-0.060461
O4	O	0.566161	0.132287	-0.060490
O5	O	0.574894	-0.008510	0.060639
O6	O	0.500124	0.066260	0.060613
O7	O	0.640918	0.057514	0.060636
Zn8	Zn	0.570519	0.061886	0.079851
Zn9	Zn	0.570535	0.061891	-0.079702
O10	O	0.566148	0.132284	0.060610
C11	C	0.482124	0.066078	0.000060
C12	C	0.428469	0.065525	0.000052
C13	C	0.089654	0.106229	0.000075
C14	C	-0.112006	0.104178	0.000082
O15	O	-0.143262	0.141398	0.000106
N16	N	-0.131130	0.059843	0.000090
C17	C	-0.099835	0.016017	0.000101
O18	O	-0.120728	-0.021740	0.000115
C19	C	0.101824	0.018068	0.000099
C20	C	0.120944	0.062407	0.000084
C21	C	0.108775	0.150563	0.000061
C22	C	0.159187	0.151075	0.000055
C23	C	0.190477	0.107253	0.000064
C24	C	0.171356	0.062919	0.000078
C25	C	0.133117	-0.025757	0.000115
C26	C	0.183535	-0.025240	0.000117
C27	C	0.202655	0.019098	0.000101
C28	C	0.253059	0.019609	0.000081
N29	N	0.272183	0.063944	0.000073
C30	C	0.240892	0.107766	0.000065
C31	C	-0.205709	0.014943	0.000100
C32	C	-0.256124	0.014430	0.000099
C33	C	-0.268291	0.102591	0.000082
C34	C	-0.217876	0.103104	0.000078
C35	C	-0.186585	0.059278	0.000092
C36	C	0.346761	0.108839	0.000052
C37	C	0.397178	0.109347	0.000043
C38	C	0.409341	0.021186	0.000065
C39	C	0.358929	0.020678	0.000069
C40	C	0.327639	0.064508	0.000066
O41	O	0.284343	-0.017592	0.000066
O42	O	0.261794	0.145518	0.000066
C43	C	0.039242	0.105716	0.000081
C44	C	0.020120	0.061382	0.000095
C45	C	0.051411	0.017560	0.000104
C46	C	-0.030294	0.060869	0.000094
C47	C	-0.061585	0.104691	0.000086
C48	C	-0.042461	0.149026	0.000078
C49	C	0.007951	0.149539	0.000072
C50	C	0.032287	-0.026775	0.000112
C51	C	-0.018125	-0.027284	0.000117
C52	C	-0.049416	0.016538	0.000108
C53	C	0.574716	-0.026515	0.000091
C54	C	0.574164	-0.080170	0.000097
C55	C	0.614867	-0.418985	0.000066
C56	C	0.612816	-0.620645	0.000056
O57	O	0.650037	-0.651900	0.000030
N58	N	0.568481	-0.639768	0.000049
C59	C	0.524656	-0.608474	0.000040
O60	O	0.486899	-0.629367	0.000027
C61	C	0.526707	-0.406815	0.000046
C62	C	0.571045	-0.387694	0.000060
C63	C	0.659202	-0.399864	0.000079
C64	C	0.659714	-0.349452	0.000086
C65	C	0.615892	-0.318161	0.000079
C66	C	0.571557	-0.337282	0.000066
C67	C	0.482882	-0.375521	0.000032
C68	C	0.483399	-0.325104	0.000031
C69	C	0.527737	-0.305983	0.000045
C70	C	0.528247	-0.255580	0.000066
N71	N	0.572583	-0.236456	0.000073
C72	C	0.616405	-0.267747	0.000080
C73	C	0.523582	-0.714348	0.000039
C74	C	0.523069	-0.764762	0.000039
C75	C	0.611230	-0.776930	0.000053
C76	C	0.611742	-0.726514	0.000058
C77	C	0.567917	-0.695224	0.000046
C78	C	0.617477	-0.161878	0.000094
C79	C	0.617986	-0.111461	0.000104
C80	C	0.529825	-0.099298	0.000086
C81	C	0.529316	-0.149710	0.000080
C82	C	0.573147	-0.180999	0.000082
O83	O	0.491047	-0.224296	0.000084
O84	O	0.654156	-0.246844	0.000077
C85	C	0.614355	-0.469397	0.000060
C86	C	0.570021	-0.488518	0.000047
C87	C	0.526198	-0.457228	0.000040
C88	C	0.569508	-0.538933	0.000047
C89	C	0.613330	-0.570223	0.000053
C90	C	0.657665	-0.551100	0.000060
C91	C	0.658177	-0.500688	0.000066
C92	C	0.481863	-0.476351	0.000033
C93	C	0.481355	-0.526764	0.000028
C94	C	0.525177	-0.558054	0.000034
C95	C	0.658931	0.057699	0.000087
C96	C	0.712586	0.058252	0.000091
C97	C	0.566338	0.150292	0.000056
C98	C	0.566891	0.203947	0.000046
N99	N	0.570511	0.061883	0.188743
N100	N	0.570547	0.061891	-0.188593
C101	C	0.603630	0.028791	0.226854
C102	C	0.603633	0.028789	0.303082
C103	C	0.570522	0.061887	0.341195
C104	C	0.537397	0.094981	0.303074
C105	C	0.537392	0.094979	0.226848
C106	C	0.563860	0.105958	0.461946
C107	C	0.563869	0.105961	0.538171
C108	C	0.570536	0.061893	0.576303
C109	C	0.577204	0.017820	0.538200
C110	C	0.577199	0.017818	0.461974
C111	C	0.570524	0.061892	0.423850
C112	C	0.603659	0.028796	0.697070
C113	C	0.603659	0.028793	0.773299
C114	C	0.537426	0.094989	0.773289
C115	C	0.537424	0.094988	0.697061
C116	C	0.570543	0.061892	0.658956
H117	H	0.343360	-0.015426	0.000071
N118	N	0.639361	-0.006900	0.344199
H119	H	0.634339	-0.001874	0.398270
H120	H	0.634041	-0.041157	0.330894
H121	H	0.630626	0.001845	0.666043
N122	N	0.707534	-0.328829	0.000083
H123	H	0.709715	-0.308188	0.044973
H124	H	0.735188	-0.356331	0.000054
N125	N	0.501710	0.130685	0.814388
H126	H	0.480727	0.151649	0.778674
H127	H	0.480484	0.112321	0.846022
H128	H	0.434827	-0.014492	0.000069
H129	H	0.582627	-0.018068	0.430954
N130	N	0.066033	-0.074043	0.000127
H131	H	0.046264	-0.102203	0.000134
H132	H	0.087215	-0.075753	-0.044768
H133	H	0.209009	-0.060929	0.000129
H134	H	0.510457	0.121936	0.666029
H135	H	0.510437	0.121929	0.334109
H136	H	0.446177	-0.450879	0.000026
H137	H	0.445246	-0.542327	0.000023
N138	N	0.639389	-0.006893	0.814410
H139	H	0.660372	-0.027854	0.778700
H140	H	0.660613	0.011481	0.846017
N141	N	0.482561	-0.065544	0.000098
H142	H	0.489618	-0.030706	0.000107
H143	H	0.463222	-0.071685	-0.044796
H144	H	0.630596	0.001841	0.195831
H145	H	0.510422	0.121927	0.195816
N146	N	-0.171961	-0.032327	0.000105
H147	H	-0.150774	-0.034086	0.044997
H148	H	-0.191762	-0.060461	0.000079
N149	N	0.584398	-0.029716	0.579316
H150	H	0.583388	-0.023029	0.633386
H151	H	0.557676	-0.049663	0.566002
H152	H	0.694282	-0.485125	0.000077
N153	N	0.665809	-0.090838	0.000123
H154	H	0.693491	-0.118313	0.000124
H155	H	0.667949	-0.070178	-0.044767
N156	N	0.556674	0.153493	0.579264
H157	H	0.552441	0.181410	0.543543
H158	H	0.526752	0.154704	0.610896
N159	N	0.028571	0.197361	0.000051
H160	H	0.001092	0.225040	0.000045
H161	H	0.049222	0.199498	0.044941
H162	H	0.694889	-0.425336	0.000082
N163	N	-0.302035	0.149864	0.000110
H164	H	-0.295928	0.169242	-0.044773
H165	H	-0.336862	0.142779	0.000150
H166	H	0.486964	-0.780325	0.000040
N167	N	0.556669	0.153493	0.420824
H168	H	0.583390	0.173459	0.434075
H169	H	0.557665	0.146764	0.366767
N170	N	0.417801	0.157171	0.000019
H171	H	0.390325	0.184853	0.000016
H172	H	0.438454	0.159306	0.044908
H173	H	-0.202311	0.139207	0.000069
H174	H	0.693347	-0.576585	0.000068
H175	H	0.117558	-0.061861	0.000128
H176	H	0.174750	0.187180	0.000042
N177	N	0.313018	0.156111	0.000065
H178	H	0.332788	0.184271	0.000059
H179	H	0.291830	0.157830	-0.044822
H180	H	-0.067947	0.184708	0.000068
H181	H	0.447710	-0.299629	0.000020
H182	H	0.083302	0.186251	0.000056
N183	N	-0.276747	-0.033390	0.000107
H184	H	-0.265310	-0.052571	-0.044779
H185	H	-0.265308	-0.052532	0.045034
N186	N	-0.038745	-0.075109	0.000129
H187	H	-0.011268	-0.102790	0.000135
H188	H	-0.059395	-0.077242	0.045027
H189	H	0.647846	-0.710950	0.000069
N190	N	0.664748	-0.195624	0.000101
H191	H	0.684115	-0.189501	-0.044784
H192	H	0.684061	-0.189498	0.045029
N193	N	0.658494	-0.810686	0.000061
H194	H	0.660244	-0.831868	-0.044832
H195	H	0.686635	-0.790894	0.000091
H196	H	0.446777	-0.391080	0.000016
N197	N	0.476311	-0.680600	0.000031
H198	H	0.456955	-0.686711	-0.044862
H199	H	0.456989	-0.686738	0.044951
N200	N	0.481496	-0.170337	0.000075
H201	H	0.453813	-0.142863	0.000074
H202	H	0.479369	-0.190979	-0.044824
