data_functionalizedCrystal
_audit_creation_method	'MofGen! by Chris Wilmer'
_symmetry_space_group_name_H-M	'P1'
_symmetry_Int_Tables_number	1
_symmetry_cell_setting	triclinic
loop_
_symmetry_equiv_pos_as_xyz
  x,y,z
_cell_length_a	10.685980
_cell_length_b	29.839132
_cell_length_c	29.839135
_cell_angle_alpha	89.982316
_cell_angle_beta	94.389338
_cell_angle_gamma	85.588720
loop_
_atom_site_label
_atom_site_type_symbol
_atom_site_fract_x
_atom_site_fract_y
_atom_site_fract_z
Zn1	Zn	1.928948	0.126320	0.306721
Zn2	Zn	1.928737	0.201435	0.231582
Zn3	Zn	1.717941	0.132068	0.225836
Zn4	Zn	1.717786	0.207182	0.300918
O5	O	1.823353	0.166751	0.266264
O6	O	2.105510	0.131473	0.301587
O7	O	1.900752	0.192233	0.167952
O8	O	1.746085	0.068434	0.236590
O9	O	2.105356	0.186659	0.246383
O10	O	1.901110	0.064211	0.296015
O11	O	1.745881	0.141270	0.163731
O12	O	1.541330	0.146844	0.230963
O13	O	1.745820	0.196455	0.364555
O14	O	1.541216	0.202030	0.286125
O15	O	1.900960	0.137046	0.368819
O16	O	1.900601	0.265068	0.240756
O17	O	1.745616	0.269291	0.291697
C18	C	1.495485	0.175684	0.257291
C19	C	1.355222	0.179517	0.253463
C20	C	1.823103	0.283481	0.266231
C21	C	1.823112	0.333415	0.266235
C22	C	1.904111	0.640839	0.239765
C23	C	1.904231	0.828508	0.239778
O24	O	1.972964	0.850890	0.217261
N25	N	1.823485	0.854190	0.266275
C26	C	1.742709	0.832951	0.292773
O27	O	1.674042	0.859100	0.315314
C28	C	1.742596	0.645282	0.292762
C29	C	1.823338	0.619603	0.266259
C30	C	1.984847	0.615160	0.213265
C31	C	1.984811	0.568246	0.213260
C32	C	1.904039	0.547010	0.239755
C33	C	1.823303	0.572688	0.266255
C34	C	1.661828	0.624043	0.319262
C35	C	1.661809	0.577123	0.319257
C36	C	1.742551	0.551444	0.292755
C37	C	1.742495	0.504538	0.292744
N38	N	1.823240	0.478857	0.266247
C39	C	1.904013	0.500093	0.239752
C40	C	1.742773	0.931480	0.292777
C41	C	1.742799	0.978397	0.292779
C42	C	1.904323	0.973951	0.239784
C43	C	1.904289	0.927033	0.239780
C44	C	1.823519	0.905798	0.266279
C45	C	1.903931	0.401569	0.239744
C46	C	1.903884	0.354651	0.239740
C47	C	1.742366	0.359100	0.292736
C48	C	1.742407	0.406015	0.292738
C49	C	1.823200	0.427248	0.266241
O50	O	1.673808	0.482127	0.315254
O51	O	1.972690	0.473935	0.217222
C52	C	1.904146	0.687753	0.239770
C53	C	1.823410	0.713432	0.266269
C54	C	1.742638	0.692196	0.292764
C55	C	1.823436	0.760349	0.266272
C56	C	1.904209	0.781585	0.239777
C57	C	1.984955	0.755903	0.213280
C58	C	1.984919	0.708989	0.213275
C59	C	1.661892	0.717877	0.319261
C60	C	1.661933	0.764792	0.319264
C61	C	1.742705	0.786027	0.292769
C62	C	2.152501	0.157784	0.275273
C63	C	2.292765	0.153962	0.279112
C64	C	1.823591	1.049566	0.266298
C65	C	1.823571	0.999633	0.266284
C66	C	1.823396	0.166751	0.383444
C67	C	1.823415	0.166750	0.433379
C68	C	1.742706	0.140218	0.740825
C69	C	1.742686	0.140216	0.928498
O70	O	1.674073	0.117665	0.950895
N71	N	1.823319	0.166748	0.954161
C72	C	1.903957	0.193285	0.932904
O73	O	1.972531	0.215855	0.959038
C74	C	1.903970	0.193289	0.745232
C75	C	1.823341	0.166751	0.719571
C76	C	1.662082	0.113683	0.715164
C77	C	1.662093	0.113682	0.668249
C78	C	1.742728	0.140216	0.646995
C79	C	1.823351	0.166750	0.672656
C80	C	1.984601	0.219828	0.723975
C81	C	1.984595	0.219827	0.677054
C82	C	1.903965	0.193290	0.651393
C83	C	1.903997	0.193283	0.604487
N84	N	1.823364	0.166751	0.578823
C85	C	1.742729	0.140217	0.600077
C86	C	1.903946	0.193280	1.031434
C87	C	1.903945	0.193278	1.078352
C88	C	1.742672	0.140210	1.073942
C89	C	1.742680	0.140209	1.027024
C90	C	1.823313	0.166748	1.005771
C91	C	1.742759	0.140217	0.501552
C92	C	1.742780	0.140217	0.454633
C93	C	1.904048	0.193287	0.459047
C94	C	1.904032	0.193285	0.505962
C95	C	1.823377	0.166749	0.527213
O96	O	1.972564	0.215826	0.582059
O97	O	1.674146	0.117658	0.573934
C98	C	1.742695	0.140219	0.787740
C99	C	1.823319	0.166754	0.813401
C100	C	1.903954	0.193287	0.792147
C101	C	1.823318	0.166752	0.860319
C102	C	1.742683	0.140218	0.881573
C103	C	1.662050	0.113686	0.855910
C104	C	1.662061	0.113685	0.808994
C105	C	1.984587	0.219819	0.817811
C106	C	1.984571	0.219818	0.864726
C107	C	1.903936	0.193284	0.885980
C108	C	1.823308	0.166758	1.149541
C109	C	1.823310	0.166744	1.099606
H110	H	1.969634	0.333744	0.218157
H111	H	1.596119	0.700591	0.340837
O112	O	1.357173	0.124399	0.308797
C113	C	1.560397	0.093462	0.339776
C114	C	1.487603	0.126969	0.306146
H115	H	1.665863	0.095522	0.337638
H116	H	1.534670	0.102104	0.375302
H117	H	1.534536	0.057928	0.331262
H118	H	1.513425	0.162514	0.314619
H119	H	1.513336	0.118288	0.270630
O120	O	2.063179	0.635852	0.187525
C121	C	2.080441	0.688381	0.127367
C122	C	1.991565	0.664983	0.156479
H123	H	2.022576	0.711931	0.102253
H124	H	2.146337	0.708536	0.149822
H125	H	2.138214	0.661967	0.108451
H126	H	1.933710	0.691366	0.175399
H127	H	1.925752	0.644819	0.134001
O128	O	1.290808	0.209110	0.223804
C129	C	1.087587	0.240010	0.192785
C130	C	1.160377	0.206485	0.226398
H131	H	0.982121	0.237892	0.194864
H132	H	1.113277	0.275563	0.201302
H133	H	1.113488	0.231371	0.157279
H134	H	1.134515	0.215083	0.261916
H135	H	1.134680	0.170942	0.217842
O136	O	1.982402	0.219100	0.530823
C137	C	2.142417	0.271716	0.530241
C138	C	2.053715	0.242506	0.502036
H139	H	2.200115	0.290640	0.506979
H140	H	2.084478	0.296818	0.550594
H141	H	2.208390	0.249288	0.554039
H142	H	1.987725	0.264898	0.478213
H143	H	2.111733	0.217400	0.481713
O144	O	1.982447	0.422120	0.213962
C145	C	2.142689	0.412745	0.161414
C146	C	2.053824	0.389415	0.190585
H147	H	2.200439	0.386313	0.142513
H148	H	2.084876	0.436305	0.136294
H149	H	2.208607	0.432894	0.183867
H150	H	1.987888	0.369243	0.168168
H151	H	2.111715	0.365881	0.215708
H152	H	1.596073	0.644943	0.340841
H153	H	2.050562	0.547340	0.191681
O154	O	2.063419	0.683996	0.187596
C155	C	2.233841	0.626346	0.186259
C156	C	2.144993	0.654609	0.215393
H157	H	2.299834	0.602586	0.208721
H158	H	2.176013	0.605957	0.161172
H159	H	2.291512	0.649600	0.167315
H160	H	2.087303	0.631388	0.234366
H161	H	2.202894	0.675003	0.240453
H162	H	1.677019	0.118604	1.091255
H163	H	2.050257	0.241438	0.744861
O164	O	1.583938	0.087856	0.643309
C165	C	1.567069	0.027678	0.589876
C166	C	1.655733	0.056886	0.618101
H167	H	1.625078	0.002638	0.569481
H168	H	1.509459	0.008684	0.613111
H169	H	1.501010	0.050115	0.566114
H170	H	1.721868	0.034481	0.641865
H171	H	1.713254	0.075884	0.594838
H172	H	1.969615	0.214882	1.099242
O173	O	2.062731	0.245621	0.889697
C174	C	2.079551	0.305839	0.943087
C175	C	1.990904	0.276641	0.914841
H176	H	2.021513	0.330932	0.963416
H177	H	2.145563	0.283440	0.966901
H178	H	2.137212	0.324781	0.919826
H179	H	1.933162	0.257695	0.938067
H180	H	1.924975	0.299063	0.891022
H181	H	1.970037	0.906128	0.218200
O182	O	2.063409	0.776606	0.187596
C183	C	2.135044	0.846921	0.164132
C184	C	2.046133	0.823530	0.193236
H185	H	2.121088	0.884864	0.168675
H186	H	2.236792	0.834909	0.174852
H187	H	2.113011	0.838304	0.127295
H188	H	2.068052	0.832136	0.230081
H189	H	1.944412	0.835544	0.182479
H190	H	1.596037	0.559836	0.340838
O191	O	1.663932	0.430893	0.318521
C192	C	1.503679	0.430347	0.371068
C193	C	1.592495	0.402122	0.341892
H194	H	1.445880	0.407097	0.389964
H195	H	1.561535	0.450687	0.396192
H196	H	1.437805	0.454158	0.348619
H197	H	1.658387	0.378286	0.364306
H198	H	1.534561	0.381812	0.316765
H199	H	1.970091	0.991249	0.218211
H200	H	1.969702	0.214888	0.441733
O201	O	1.664316	1.003270	0.318561
C202	C	1.504058	1.002716	0.371105
C203	C	1.592892	0.974495	0.341933
H204	H	1.446270	0.979464	0.390002
H205	H	1.561899	1.023063	0.396228
H206	H	1.438175	1.026522	0.348653
H207	H	1.658794	0.950664	0.364349
H208	H	1.534973	0.954179	0.316806
H209	H	1.676997	0.914194	0.314356
O210	O	1.664028	0.338394	0.318461
C211	C	1.592373	0.268081	0.341920
C212	C	1.681166	0.291474	0.312770
H213	H	1.606179	0.230142	0.337321
H214	H	1.614480	0.276646	0.378767
H215	H	1.490648	0.280143	0.331228
H216	H	1.782921	0.279424	0.323423
H217	H	1.658950	0.282909	0.275929
H218	H	1.596172	0.785696	0.340844
O219	O	1.664376	0.114397	0.522121
C220	C	1.504378	0.061776	0.512782
C221	C	1.593093	0.090990	0.489431
H222	H	1.446704	0.042852	0.486362
H223	H	1.562305	0.036676	0.536331
H224	H	1.438383	0.084203	0.532943
H225	H	1.659106	0.068599	0.469246
H226	H	1.535088	0.116094	0.465908
O227	O	2.062864	0.245658	0.797217
C228	C	2.123919	0.320413	0.784502
C229	C	2.035196	0.291204	0.807855
H230	H	2.101563	0.357243	0.793087
H231	H	2.225705	0.309783	0.796537
H232	H	2.110115	0.315835	0.746563
H233	H	2.048887	0.295767	0.845797
H234	H	1.933443	0.301841	0.795784
H235	H	1.677122	0.118605	0.433741
O236	O	1.583710	0.087863	0.735735
C237	C	1.423716	0.035242	0.726393
C238	C	1.512426	0.064459	0.703044
H239	H	1.366040	0.016319	0.699972
H240	H	1.481647	0.010139	0.749939
H241	H	1.357722	0.057665	0.746557
H242	H	1.578437	0.042071	0.682856
H243	H	1.454416	0.089565	0.679524
H244	H	1.596404	0.092076	0.788105
H245	H	1.969608	0.214893	1.014134
H246	H	1.677025	0.118600	1.006134
O247	O	2.063041	0.245620	0.656482
C248	C	2.222925	0.298285	0.665810
C249	C	2.134173	0.269089	0.689164
H250	H	2.280439	0.317274	0.692222
H251	H	2.289057	0.275883	0.645677
H252	H	2.164909	0.323336	0.642234
H253	H	2.192088	0.244034	0.712762
H254	H	2.068037	0.291518	0.709269
O255	O	1.583756	0.087954	0.876631
C256	C	1.512333	0.064428	0.946964
C257	C	1.601045	0.093593	0.923552
H258	H	1.526299	0.068969	0.984905
H259	H	1.410533	0.075094	0.934979
H260	H	1.534556	0.027600	0.938339
H261	H	1.578936	0.130428	0.932167
H262	H	1.702819	0.082889	0.935539
