data_functionalizedCrystal
_audit_creation_method	'MofGen! by Chris Wilmer'
_symmetry_space_group_name_H-M	'P1'
_symmetry_Int_Tables_number	1
_symmetry_cell_setting	triclinic
loop_
_symmetry_equiv_pos_as_xyz
  x,y,z
_cell_length_a	17.038272
_cell_length_b	15.500227
_cell_length_c	10.654550
_cell_angle_alpha	92.856808
_cell_angle_beta	92.201770
_cell_angle_gamma	93.043705
loop_
_atom_site_label
_atom_site_type_symbol
_atom_site_fract_x
_atom_site_fract_y
_atom_site_fract_z
O1	O	1.042493	0.071832	-0.267429
O2	O	0.814839	0.071857	-0.263094
O3	O	0.933900	0.071841	-0.083008
O4	O	0.923432	0.071849	-0.447514
O5	O	0.926675	-0.072047	-0.093891
O6	O	0.807614	-0.072030	-0.273976
O7	O	1.035268	-0.072056	-0.278311
Cu8	Cu	0.920781	-0.085181	-0.277137
Cu9	Cu	0.929326	0.084983	-0.264268
O10	O	0.916207	-0.072039	-0.458396
C11	C	0.782076	-0.000083	-0.264594
C12	C	0.695218	-0.000073	-0.252836
N13	N	0.914777	-0.204865	-0.286189
C14	C	0.645707	-0.000072	-0.360780
C15	C	0.564094	-0.000084	-0.349727
C16	C	0.531994	-0.000092	-0.230727
C17	C	0.581512	-0.000096	-0.122775
C18	C	0.663123	-0.000090	-0.133831
C19	C	0.286017	-0.000115	-0.191671
C20	C	0.204400	-0.000119	-0.180624
C21	C	0.186988	-0.000109	-0.407576
C22	C	0.268601	-0.000098	-0.418621
C23	C	0.318111	-0.000106	-0.310669
C24	C	0.448573	-0.000101	-0.219426
C25	C	0.401531	-0.000103	-0.321972
C26	C	0.965245	-0.250149	-0.209912
C27	C	0.960711	-0.340721	-0.216770
C28	C	0.905713	-0.386008	-0.299911
C29	C	0.855240	-0.340718	-0.376191
C30	C	0.859770	-0.250147	-0.369326
C31	C	0.889393	-0.659473	-0.324621
C32	C	0.884868	-0.750049	-0.331484
C33	C	0.990339	-0.750046	-0.172060
C34	C	0.994868	-0.659474	-0.165207
C35	C	0.944392	-0.614192	-0.241482
C36	C	0.901079	-0.478587	-0.306926
C37	C	0.949022	-0.521614	-0.234460
C38	C	1.068030	-0.000113	-0.276811
C39	C	1.154889	-0.000117	-0.288568
C40	C	0.929519	-0.000102	-0.041580
C41	C	0.927219	-0.000099	0.098077
N42	N	0.935336	0.204667	-0.255207
C43	C	0.920588	-0.000095	-0.499825
C44	C	0.922888	-0.000092	-0.639481
C45	C	0.997320	-0.000109	0.171053
C46	C	0.995155	-0.000103	0.302275
C47	C	0.852781	-0.000079	0.287534
C48	C	0.854948	-0.000079	0.156314
C49	C	1.069592	-0.000128	0.112816
C50	C	1.139699	-0.000140	0.185792
C51	C	1.137533	-0.000133	0.317014
C52	C	1.065261	-0.000116	0.375260
H53	H	0.671836	-0.000065	-0.457682
H54	H	0.797865	-0.000072	0.096895
H55	H	0.326319	-0.000123	-0.103769
H56	H	0.422427	-0.000132	-0.122538
H57	H	0.294731	-0.000081	-0.515522
H58	H	0.555369	-0.000114	-0.025884
H59	H	1.010034	-0.213282	-0.142215
H60	H	0.856300	-0.515467	-0.374624
H61	H	1.001806	-0.377591	-0.154659
H62	H	0.146668	-0.000103	-0.495464
H63	H	0.523785	-0.000082	-0.437627
H64	H	1.071363	-0.000136	0.005968
H65	H	1.063505	-0.000101	0.482112
H66	H	0.178268	-0.000124	-0.083716
H67	H	1.039652	-0.622603	-0.097507
H68	H	1.031434	-0.786923	-0.109959
H69	H	1.198541	-0.000133	0.138361
H70	H	0.840079	-0.786918	-0.399192
H71	H	0.848294	-0.622611	-0.386730
H72	H	0.703435	-0.000090	-0.045931
H73	H	0.810455	-0.377596	-0.443882
H74	H	0.993799	-0.484739	-0.166761
H75	H	0.427670	-0.000101	-0.418862
H76	H	0.793941	-0.000066	0.334968
H77	H	1.194618	-0.000134	0.376429
H78	H	0.818672	-0.213278	-0.431437
