data_functionalizedCrystal
_audit_creation_method	'MofGen! by Chris Wilmer'
_symmetry_space_group_name_H-M	'P1'
_symmetry_Int_Tables_number	1
_symmetry_cell_setting	triclinic
loop_
_symmetry_equiv_pos_as_xyz
  x,y,z
_cell_length_a	18.101398
_cell_length_b	25.639239
_cell_length_c	18.101389
_cell_angle_alpha	90.026369
_cell_angle_beta	90.008593
_cell_angle_gamma	90.034689
loop_
_atom_site_label
_atom_site_type_symbol
_atom_site_fract_x
_atom_site_fract_y
_atom_site_fract_z
Zn1	Zn	-1.132076	0.208278	-0.418487
Zn2	Zn	-0.798742	0.541611	-0.085154
Zn3	Zn	-0.465409	0.874945	0.248180
Zn4	Zn	-1.131953	0.295700	-0.294628
Zn5	Zn	-0.798619	0.629033	0.038705
Zn6	Zn	-0.465286	0.962366	0.372038
Zn7	Zn	-1.008235	0.208272	-0.294682
Zn8	Zn	-0.674901	0.541605	0.038651
Zn9	Zn	-0.341568	0.874939	0.371985
Zn10	Zn	-1.008166	0.295676	-0.418451
Zn11	Zn	-0.674833	0.629010	-0.085117
Zn12	Zn	-0.341500	0.962343	0.248216
O13	O	-1.070107	0.251982	-0.356562
O14	O	-0.736774	0.585315	-0.023229
O15	O	-0.403441	0.918648	0.310105
O16	O	-1.235692	0.219887	-0.402049
O17	O	-0.902359	0.553220	-0.068716
O18	O	-0.569026	0.886554	0.264617
O19	O	-1.115518	0.284109	-0.191002
O20	O	-0.782185	0.617443	0.142331
O21	O	-0.448851	0.950776	0.475664
O22	O	-1.024742	0.135108	-0.311143
O23	O	-0.691409	0.468441	0.022191
O24	O	-0.358076	0.801774	0.355524
O25	O	-1.235602	0.284115	-0.311051
O26	O	-0.902268	0.617448	0.022282
O27	O	-0.568935	0.950782	0.355616
O28	O	-1.115728	0.135112	-0.402102
O29	O	-0.782395	0.468445	-0.068768
O30	O	-0.449061	0.801779	0.264565
O31	O	-1.024623	0.219877	-0.191042
O32	O	-0.691290	0.553210	0.142291
O33	O	-0.357956	0.886543	0.475625
O34	O	-0.904593	0.219854	-0.311108
O35	O	-0.571259	0.553187	0.022226
O36	O	-0.237926	0.886521	0.355559
O37	O	-1.024626	0.284076	-0.522088
O38	O	-0.691293	0.617409	-0.188755
O39	O	-0.357960	0.950742	0.144578
O40	O	-0.904543	0.284070	-0.402040
O41	O	-0.571209	0.617403	-0.068707
O42	O	-0.237876	0.950736	0.264627
O43	O	-1.115662	0.219865	-0.522115
O44	O	-0.782328	0.553198	-0.188782
O45	O	-0.448995	0.886531	0.144552
O46	O	-1.115452	0.368862	-0.311016
O47	O	-0.782119	0.702195	0.022317
O48	O	-0.448785	1.035528	0.355651
O49	O	-1.024507	0.368845	-0.401988
O50	O	-0.691173	0.702178	-0.068654
O51	O	-0.357840	1.035511	0.264679
C52	C	-0.877697	0.251959	-0.356576
C53	C	-0.544363	0.585293	-0.023243
C54	C	-0.211030	0.918626	0.310090
C55	C	-0.795383	0.251962	-0.356600
C56	C	-0.462049	0.585296	-0.023266
C57	C	-0.128716	0.918629	0.310067
C58	C	-0.496292	0.251990	-0.356575
C59	C	-0.162958	0.585324	-0.023242
C60	C	0.170375	0.918657	0.310092
C61	C	-0.527610	0.292589	-0.413504
C62	C	-0.194277	0.625922	-0.080171
C63	C	0.139057	0.959255	0.253163
C64	C	-0.613228	0.292462	-0.413736
C65	C	-0.279895	0.625796	-0.080403
C66	C	0.053438	0.959129	0.252930
C67	C	-0.644674	0.251977	-0.356587
C68	C	-0.311341	0.585310	-0.023254
C69	C	0.021992	0.918643	0.310079
C70	C	-0.613632	0.196909	-0.377926
C71	C	-0.280298	0.530243	-0.044593
C72	C	0.053035	0.863576	0.288740
C73	C	-0.527987	0.197152	-0.378333
C74	C	-0.194653	0.530486	-0.045000
C75	C	0.138680	0.863819	0.288334
C76	C	-0.527836	0.265974	-0.278169
C77	C	-0.194503	0.599308	0.055165
C78	C	0.138831	0.932641	0.388498
C79	C	-0.613486	0.267183	-0.278586
C80	C	-0.280152	0.600517	0.054748
C81	C	0.053181	0.933850	0.388081
C82	C	-0.728534	0.251966	-0.356593
C83	C	-0.395200	0.585299	-0.023260
C84	C	-0.061867	0.918632	0.310074
C85	C	-0.412432	0.251998	-0.356571
C86	C	-0.079099	0.585331	-0.023238
C87	C	0.254234	0.918664	0.310096
C88	C	-1.069979	0.387824	-0.356508
C89	C	-0.736645	0.721157	-0.023175
C90	C	-0.403312	1.054491	0.310158
C91	C	-1.069991	0.445938	-0.356510
C92	C	-0.736658	0.779271	-0.023177
C93	C	-0.403325	1.112605	0.310157
C94	C	-1.070150	0.251968	-0.549724
C95	C	-0.736817	0.585302	-0.216391
C96	C	-0.403483	0.918635	0.116943
C97	C	-1.070168	0.251963	-0.632038
C98	C	-0.736835	0.585296	-0.298705
C99	C	-0.403502	0.918629	0.034629
C100	C	-0.263269	0.252002	-0.356553
C101	C	0.070064	0.585335	-0.023220
C102	C	0.403398	0.918669	0.310113
C103	C	-0.345583	0.252005	-0.356562
C104	C	-0.012250	0.585338	-0.023229
C105	C	0.321083	0.918671	0.310104
C106	C	-1.117409	0.806265	-0.404027
C107	C	-0.784076	1.139598	-0.070694
C108	C	-0.450743	1.472932	0.262640
C109	C	-1.117422	0.860869	-0.404044
C110	C	-0.784088	1.194203	-0.070710
C111	C	-0.450755	1.527536	0.262623
O112	O	-1.157662	0.889075	-0.444376
O113	O	-0.824329	1.222409	-0.111043
O114	O	-0.490996	1.555742	0.222291
N115	N	-1.070098	0.888221	-0.356653
N116	N	-0.736765	1.221554	-0.023320
N117	N	-0.403431	1.554887	0.310013
C118	C	-1.022754	0.860965	-0.309248
C119	C	-0.689420	1.194298	0.024085
C120	C	-0.356087	1.527631	0.357418
O121	O	-0.982502	0.889243	-0.268941
O122	O	-0.649169	1.222576	0.064392
O123	O	-0.315835	1.555910	0.397725
C124	C	-1.022738	0.806361	-0.309236
C125	C	-0.689405	1.139695	0.024097
C126	C	-0.356072	1.473028	0.357431
C127	C	-1.070070	0.779013	-0.356624
C128	C	-0.736737	1.112346	-0.023291
C129	C	-0.403404	1.445680	0.310042
C130	C	-1.164737	0.778917	-0.451412
C131	C	-0.831404	1.112250	-0.118079
C132	C	-0.498070	1.445583	0.215255
C133	C	-1.164725	0.724316	-0.451394
C134	C	-0.831392	1.057649	-0.118061
C135	C	-0.498059	1.390983	0.215273
C136	C	-1.117386	0.697064	-0.403991
C137	C	-0.784053	1.030397	-0.070658
C138	C	-0.450720	1.363731	0.262675
C139	C	-1.070059	0.724412	-0.356606
C140	C	-0.736726	1.057746	-0.023273
C141	C	-0.403392	1.391079	0.310060
C142	C	-0.975391	0.779106	-0.261835
C143	C	-0.642058	1.112440	0.071498
C144	C	-0.308724	1.445773	0.404831
C145	C	-0.975379	0.724499	-0.261827
C146	C	-0.642046	1.057833	0.071506
C147	C	-0.308713	1.391166	0.404839
C148	C	-1.022711	0.697151	-0.309216
C149	C	-0.689378	1.030484	0.024118
C150	C	-0.356045	1.363818	0.357451
C151	C	-1.022709	0.642560	-0.309186
C152	C	-0.689375	0.975893	0.024148
C153	C	-0.356042	1.309226	0.357481
N154	N	-1.070032	0.615209	-0.356576
N155	N	-0.736699	0.948542	-0.023243
N156	N	-0.403365	1.281875	0.310091
C157	C	-1.117371	0.642461	-0.403979
C158	C	-0.784038	0.975794	-0.070645
C159	C	-0.450704	1.309127	0.262688
C160	C	-1.022789	0.975635	-0.309279
C161	C	-0.689456	1.308969	0.024054
C162	C	-0.356122	1.642302	0.357388
C163	C	-1.022807	1.030238	-0.309287
C164	C	-0.689474	1.363571	0.024046
C165	C	-0.356141	1.696904	0.357379
C166	C	-1.117474	1.030139	-0.404084
C167	C	-0.784141	1.363472	-0.070750
C168	C	-0.450808	1.696805	0.262583
C169	C	-1.117459	0.975535	-0.404071
C170	C	-0.784126	1.308869	-0.070738
C171	C	-0.450792	1.642202	0.262595
C172	C	-1.070112	0.948284	-0.356670
C173	C	-0.736779	1.281617	-0.023336
C174	C	-0.403446	1.614951	0.309997
C175	C	-1.117344	0.527796	-0.403937
C176	C	-0.784011	0.861129	-0.070604
C177	C	-0.450677	1.194462	0.262730
C178	C	-1.117330	0.473190	-0.403913
C179	C	-0.783997	0.806524	-0.070579
C180	C	-0.450664	1.139857	0.262754
C181	C	-1.022661	0.473294	-0.309119
C182	C	-0.689328	0.806627	0.024214
C183	C	-0.355994	1.139961	0.357547
C184	C	-1.022677	0.527895	-0.309141
C185	C	-0.689344	0.861228	0.024193
C186	C	-0.356010	1.194561	0.357526
C187	C	-1.070021	0.555144	-0.356555
C188	C	-0.736688	0.888477	-0.023222
C189	C	-0.403354	1.221811	0.310111
O190	O	-0.982486	0.614319	-0.268876
O191	O	-0.649153	0.947652	0.064457
O192	O	-0.315819	1.280986	0.397791
O193	O	-1.157609	0.614176	-0.444286
O194	O	-0.824276	0.947509	-0.110953
O195	O	-0.490943	1.280842	0.222381
C196	C	-1.070212	1.115609	-0.356640
C197	C	-0.736879	1.448942	-0.023307
C198	C	-0.403546	1.782275	0.310027
C199	C	-1.070144	1.057494	-0.356693
C200	C	-0.736811	1.390828	-0.023360
C201	C	-0.403477	1.724161	0.309973
C202	C	-1.070212	0.251865	-0.931129
C203	C	-0.736878	0.585198	-0.597796
C204	C	-0.403545	0.918531	-0.264463
C205	C	-1.012737	0.292136	-0.899787
C206	C	-0.679404	0.625469	-0.566454
C207	C	-0.346071	0.958803	-0.233121
C208	C	-1.012892	0.292323	-0.814169
C209	C	-0.679559	0.625656	-0.480836
C210	C	-0.346226	0.958990	-0.147502
C211	C	-1.070189	0.251913	-0.782747
C212	C	-0.736856	0.585247	-0.449413
C213	C	-0.403523	0.918580	-0.116080
C214	C	-1.148212	0.266874	-0.813828
C215	C	-0.814878	0.600208	-0.480495
C216	C	-0.481545	0.933541	-0.147161
C217	C	-1.147891	0.267139	-0.899473
C218	C	-0.814558	0.600472	-0.566140
C219	C	-0.481225	0.933805	-0.232806
C220	C	-1.050342	0.196543	-0.899570
C221	C	-0.717009	0.529876	-0.566237
C222	C	-0.383675	0.863209	-0.232903
C223	C	-1.048606	0.196862	-0.813919
C224	C	-0.715273	0.530196	-0.480586
C225	C	-0.381939	0.863529	-0.147253
C226	C	-1.070182	0.251940	-0.698887
C227	C	-0.736848	0.585273	-0.365554
C228	C	-0.403515	0.918607	-0.032220
C229	C	-1.070224	0.251839	-1.014989
C230	C	-0.736891	0.585173	-0.681655
C231	C	-0.403558	0.918506	-0.348322
C232	C	-1.070107	0.251957	-0.164151
C233	C	-0.736774	0.585290	0.169182
C234	C	-0.403441	0.918624	0.502515
C235	C	-1.070233	0.251815	-0.081838
C236	C	-0.736899	0.585149	0.251496
C237	C	-0.403566	0.918482	0.584829
H238	H	-0.634892	0.239760	-0.233889
H239	H	-0.301559	0.573094	0.099444
H240	H	0.031775	0.906427	0.432777
H241	H	-0.634003	0.165841	-0.337755
H242	H	-0.300669	0.499175	-0.004422
H243	H	0.032664	0.832508	0.328911
Cl244	Cl	-0.963312	1.064612	-0.249701
Cl245	Cl	-0.629979	1.397945	0.083632
Cl246	Cl	-0.296645	1.731278	0.416966
Cl247	Cl	-1.032743	0.355054	-0.933056
Cl248	Cl	-0.699409	0.688387	-0.599723
Cl249	Cl	-0.366076	1.021720	-0.266390
H250	H	-0.984120	0.451097	-0.270522
H251	H	-0.650787	0.784430	0.062811
H252	H	-0.317454	1.117764	0.396144
Cl253	Cl	-0.494388	0.278498	-0.502676
Cl254	Cl	-0.161054	0.611831	-0.169342
Cl255	Cl	0.172279	0.945164	0.163991
H256	H	-1.203286	0.801100	-0.490017
H257	H	-0.869953	1.134433	-0.156684
H258	H	-0.536619	1.467766	0.176649
Cl259	Cl	-0.646771	0.178263	-0.465460
Cl260	Cl	-0.313438	0.511597	-0.132127
Cl261	Cl	0.019896	0.844930	0.201207
H262	H	-0.955036	0.282960	-0.793154
H263	H	-0.621702	0.616293	-0.459821
H264	H	-0.288369	0.949627	-0.126487
Cl265	Cl	-1.033186	0.355627	-0.782522
Cl266	Cl	-0.699853	0.688960	-0.449189
Cl267	Cl	-0.366520	1.022294	-0.115856
H268	H	-0.507584	0.236403	-0.235751
H269	H	-0.174251	0.569736	0.097582
H270	H	0.159083	0.903069	0.430916
Cl271	Cl	-0.644891	0.278178	-0.503427
Cl272	Cl	-0.311558	0.611511	-0.170094
Cl273	Cl	0.021775	0.944845	0.163240
Cl274	Cl	-1.176839	0.438813	-0.463490
Cl275	Cl	-0.843506	0.772146	-0.130157
Cl276	Cl	-0.510172	1.105479	0.203177
Cl277	Cl	-0.494442	0.326904	-0.248226
Cl278	Cl	-0.161109	0.660238	0.085108
Cl279	Cl	0.172224	0.993571	0.418441
H280	H	-0.633781	0.307705	-0.262492
H281	H	-0.300448	0.641038	0.070841
H282	H	0.032886	0.974372	0.404175
Cl283	Cl	-0.495762	0.355843	-0.393093
Cl284	Cl	-0.162429	0.689177	-0.059760
Cl285	Cl	0.170904	1.022510	0.273574
H286	H	-0.507272	0.165820	-0.338770
H287	H	-0.173938	0.499153	-0.005437
H288	H	0.159395	0.832487	0.327896
Cl289	Cl	-0.923137	0.277828	-0.931590
Cl290	Cl	-0.589803	0.611161	-0.598257
Cl291	Cl	-0.256470	0.944494	-0.264923
Cl292	Cl	-1.173897	0.329577	-0.930310
Cl293	Cl	-0.840564	0.662910	-0.596976
Cl294	Cl	-0.507231	0.996243	-0.263643
H295	H	-1.156000	0.953271	-0.442659
H296	H	-0.822667	1.286605	-0.109326
H297	H	-0.489334	1.619938	0.224007
Cl298	Cl	-0.915881	0.813474	-0.202261
Cl299	Cl	-0.582548	1.146807	0.131073
Cl300	Cl	-0.249214	1.480141	0.464406
Cl301	Cl	-1.216206	0.223790	-0.931488
Cl302	Cl	-0.882873	0.557123	-0.598155
Cl303	Cl	-0.549540	0.890457	-0.264821
H304	H	-1.155891	0.549976	-0.442552
H305	H	-0.822557	0.883309	-0.109218
H306	H	-0.489224	1.216642	0.224115
H307	H	-0.994438	0.182913	-0.921174
H308	H	-0.661105	0.516246	-0.587840
H309	H	-0.327771	0.849580	-0.254507
Cl310	Cl	-1.224226	0.689943	-0.510977
Cl311	Cl	-0.890892	1.023277	-0.177644
Cl312	Cl	-0.557559	1.356610	0.155689
Cl313	Cl	-0.915854	0.690244	-0.202232
Cl314	Cl	-0.582521	1.023578	0.131101
Cl315	Cl	-0.249188	1.356911	0.464434
Cl316	Cl	-0.963267	0.941382	-0.249677
Cl317	Cl	-0.629933	1.274715	0.083657
Cl318	Cl	-0.296600	1.608049	0.416990
H319	H	-1.156019	1.052337	-0.442683
H320	H	-0.822686	1.385670	-0.109350
H321	H	-0.489353	1.719004	0.223984
H322	H	-1.192184	0.238464	-0.793476
H323	H	-0.858850	0.571798	-0.460142
H324	H	-0.525517	0.905131	-0.126809
Cl325	Cl	-1.174673	0.328649	-0.780707
Cl326	Cl	-0.841340	0.661983	-0.447373
Cl327	Cl	-0.508006	0.995316	-0.114040
H328	H	-0.984141	0.550163	-0.270547
H329	H	-0.650808	0.883496	0.062786
H330	H	-0.317475	1.216830	0.396119
H331	H	-0.991189	0.185580	-0.793605
H332	H	-0.657855	0.518913	-0.460272
H333	H	-0.324522	0.852247	-0.126939
Cl334	Cl	-1.108531	0.148077	-0.780910
Cl335	Cl	-0.775197	0.481410	-0.447576
Cl336	Cl	-0.441864	0.814743	-0.114243
H337	H	-1.092204	0.166538	-0.919840
H338	H	-0.758871	0.499872	-0.586507
H339	H	-0.425537	0.833205	-0.253173
H340	H	-0.634215	0.333298	-0.400361
H341	H	-0.300881	0.666632	-0.067027
H342	H	0.032452	0.999965	0.266306
H343	H	-0.508028	0.185290	-0.435652
H344	H	-0.174695	0.518624	-0.102318
H345	H	0.158639	0.851957	0.231015
