data_functionalizedCrystal
_audit_creation_method	'MofGen! by Chris Wilmer'
_symmetry_space_group_name_H-M	'P1'
_symmetry_Int_Tables_number	1
_symmetry_cell_setting	triclinic
loop_
_symmetry_equiv_pos_as_xyz
  x,y,z
_cell_length_a	16.793024
_cell_length_b	16.793047
_cell_length_c	33.586455
_cell_angle_alpha	113.253857
_cell_angle_beta	66.219990
_cell_angle_gamma	112.758327
loop_
_atom_site_label
_atom_site_type_symbol
_atom_site_fract_x
_atom_site_fract_y
_atom_site_fract_z
O1	O	0.005016	-0.570216	-0.583573
O2	O	-0.034529	-0.474528	-0.453458
O3	O	0.114723	-0.474535	-0.528082
O4	O	-0.144235	-0.570209	-0.508949
O5	O	0.108729	-0.346329	-0.530229
O6	O	-0.040523	-0.346322	-0.455605
O7	O	-0.000977	-0.442010	-0.585721
Cu8	Cu	-0.021297	-0.382459	-0.520859
Cu9	Cu	-0.014209	-0.534079	-0.518320
O10	O	-0.150229	-0.442003	-0.511097
C11	C	0.005100	-0.790970	-0.238461
C12	C	-0.040584	-0.395375	-0.435637
C13	C	-0.044693	-0.353446	-0.386631
C14	C	-0.039275	-0.401741	-0.363054
C15	C	-0.040566	-0.125547	-0.300731
C16	C	-0.044689	-0.223451	-0.321635
C17	C	-0.039266	-0.270752	-0.297563
C18	C	0.005118	-0.521142	-0.103554
C19	C	-0.046224	-0.263935	-0.366370
C20	C	-0.036476	-0.360146	-0.318399
C21	C	-0.030850	-0.408530	-0.294565
C22	C	-0.028014	-0.367522	-0.249895
C23	C	-0.030804	-0.278128	-0.229058
C24	C	-0.036430	-0.229743	-0.252892
C25	C	-0.027971	-0.237122	-0.184383
C26	C	-0.022345	-0.285507	-0.160550
C27	C	-0.019555	-0.374900	-0.181386
C28	C	-0.022391	-0.415909	-0.226057
C29	C	-0.019601	-0.505302	-0.246894
C30	C	-0.013975	-0.553687	-0.223060
C31	C	-0.011142	-0.512684	-0.178391
C32	C	-0.013932	-0.423291	-0.157554
C33	C	-0.005516	-0.561069	-0.154557
C34	C	-0.002726	-0.650463	-0.175394
C35	C	-0.005562	-0.691471	-0.220064
C36	C	-0.011185	-0.643081	-0.243897
C37	C	-0.022434	-0.546309	-0.291568
C38	C	-0.019644	-0.635702	-0.312405
C39	C	-0.014021	-0.684089	-0.288567
C40	C	-0.022480	-0.676711	-0.357076
C41	C	-0.028106	-0.628326	-0.380910
C42	C	-0.030896	-0.538933	-0.360073
C43	C	-0.028060	-0.497924	-0.315402
C44	C	-0.036522	-0.490548	-0.383907
C45	C	0.815184	-0.521162	-0.508596
C46	C	0.415541	-0.125553	-0.528781
C47	C	0.375032	-0.223457	-0.531493
C48	C	0.423813	-0.270761	-0.529101
C49	C	0.149318	-0.395376	-0.530584
C50	C	0.246774	-0.353455	-0.532364
C51	C	0.294574	-0.401748	-0.529976
C52	C	0.548961	-0.790984	-0.510398
C53	C	0.286104	-0.263940	-0.532530
C54	C	0.383336	-0.360149	-0.528302
C55	C	0.432207	-0.407971	-0.525810
C56	C	0.392316	-0.497392	-0.524993
C57	C	0.303554	-0.538991	-0.526667
C58	C	0.254683	-0.491169	-0.529159
C59	C	0.263666	-0.628421	-0.525851
C60	C	0.312537	-0.676243	-0.523359
C61	C	0.401299	-0.634644	-0.521685
C62	C	0.441190	-0.545223	-0.522502
C63	C	0.529952	-0.503624	-0.520828
C64	C	0.578823	-0.551446	-0.518336
C65	C	0.538939	-0.640864	-0.517520
C66	C	0.450177	-0.682463	-0.519194
C67	C	0.587810	-0.688687	-0.515028
C68	C	0.676572	-0.647088	-0.513354
C69	C	0.716463	-0.557666	-0.514172
C70	C	0.667586	-0.509847	-0.516662
C71	C	0.569840	-0.414195	-0.521644
C72	C	0.658602	-0.372596	-0.519970
C73	C	0.707476	-0.420426	-0.517480
C74	C	0.698493	-0.283174	-0.520788
C75	C	0.649622	-0.235352	-0.523280
C76	C	0.560860	-0.276951	-0.524954
C77	C	0.520969	-0.366372	-0.524136
C78	C	0.511989	-0.229129	-0.527446
C79	C	-0.040530	-0.395407	-0.935652
C80	C	0.005063	-0.791004	-0.738448
C81	C	0.009186	-0.693099	-0.717543
C82	C	0.003779	-0.645796	-0.741620
C83	C	0.005077	-0.521171	-0.603544
C84	C	0.009198	-0.563096	-0.652550
C85	C	0.003786	-0.514804	-0.676131
C86	C	-0.040516	-0.125574	-0.800747
C87	C	0.010719	-0.652613	-0.672809
C88	C	0.000994	-0.556406	-0.720789
C89	C	-0.004621	-0.508585	-0.744908
C90	C	-0.007444	-0.419162	-0.724369
C91	C	-0.004651	-0.377560	-0.679711
C92	C	0.000964	-0.425381	-0.655592
C93	C	-0.007471	-0.288129	-0.659174
C94	C	-0.013086	-0.240308	-0.683293
C95	C	-0.015878	-0.281910	-0.727951
C96	C	-0.013056	-0.371333	-0.748490
C97	C	-0.015848	-0.412935	-0.793148
C98	C	-0.021463	-0.365114	-0.817267
C99	C	-0.024282	-0.275694	-0.796731
C100	C	-0.021490	-0.234092	-0.752073
C101	C	-0.029897	-0.227873	-0.820850
C102	C	-0.032690	-0.269476	-0.865508
C103	C	-0.029867	-0.358899	-0.886047
C104	C	-0.024255	-0.406717	-0.861925
C105	C	-0.013028	-0.502367	-0.813685
C106	C	-0.015821	-0.543969	-0.858343
C107	C	-0.021433	-0.496140	-0.882464
C108	C	-0.012998	-0.633392	-0.878882
C109	C	-0.007383	-0.681213	-0.854763
C110	C	-0.004591	-0.639611	-0.810105
C111	C	-0.007414	-0.550188	-0.789566
C112	C	0.001024	-0.687432	-0.785986
O113	O	-0.000965	0.173549	-0.277957
O114	O	-0.040516	-0.085616	-0.325254
O115	O	0.108737	0.059592	-0.327284
O116	O	-0.150219	0.028341	-0.275927
O117	O	0.114753	0.055151	-0.263265
O118	O	-0.034500	-0.090057	-0.261234
O119	O	0.005051	0.169108	-0.213937
Cu120	Cu	-0.014175	0.039120	-0.231740
Cu121	Cu	-0.021290	0.044372	-0.307451
O122	O	-0.144202	0.023900	-0.211907
O123	O	-0.034458	-0.474571	0.046517
O124	O	0.005076	-0.570190	-0.083599
O125	O	-0.144170	-0.570237	-0.008972
O126	O	0.114787	-0.474523	-0.028110
O127	O	-0.150200	-0.442024	-0.011093
O128	O	-0.000954	-0.441976	-0.085720
O129	O	-0.040488	-0.346357	0.044396
Cu130	Cu	-0.021272	-0.382460	-0.020856
Cu131	Cu	-0.014141	-0.534087	-0.018347
O132	O	0.108757	-0.346309	-0.030231
C133	C	-0.850734	0.086244	-0.289716
C134	C	-0.450996	0.035117	-0.097351
C135	C	-0.410501	0.028587	-0.146852
C136	C	-0.459292	0.034683	-0.169840
C137	C	-0.184802	0.024283	-0.235878
C138	C	-0.282257	0.023363	-0.213592
C139	C	-0.330068	0.029423	-0.237088
C140	C	-0.584541	0.075410	-0.428242
C141	C	-0.321573	0.024104	-0.168302
C142	C	-0.418828	0.035176	-0.215083
C143	C	-0.467711	0.041476	-0.238329
C144	C	-0.427833	0.042022	-0.283580
C145	C	-0.339073	0.036269	-0.305586
C146	C	-0.290190	0.029970	-0.282340
C147	C	-0.299198	0.036812	-0.350842
C148	C	-0.348081	0.043111	-0.374088
C149	C	-0.436841	0.048864	-0.352082
C150	C	-0.476719	0.048318	-0.306830
C151	C	-0.565480	0.054071	-0.284825
C152	C	-0.614362	0.060370	-0.308071
C153	C	-0.574491	0.060913	-0.353321
C154	C	-0.485730	0.055160	-0.375326
C155	C	-0.623374	0.067212	-0.376567
C156	C	-0.712134	0.072965	-0.354561
C157	C	-0.752012	0.072419	-0.309309
C158	C	-0.703123	0.066123	-0.286065
C159	C	-0.605355	0.053528	-0.239569
C160	C	-0.694115	0.059281	-0.217564
C161	C	-0.743001	0.065577	-0.240813
C162	C	-0.733993	0.058735	-0.172312
C163	C	-0.685110	0.052436	-0.149066
C164	C	-0.596350	0.046683	-0.171072
C165	C	-0.556472	0.047229	-0.216323
C166	C	-0.547467	0.040383	-0.147826
O167	O	0.585213	0.169090	-0.504004
O168	O	0.494056	-0.090076	-0.525516
O169	O	0.488081	0.055124	-0.449918
O170	O	0.591189	0.023889	-0.579602
O171	O	0.359978	0.059584	-0.452885
O172	O	0.365953	-0.085616	-0.528483
O173	O	0.457110	0.173550	-0.506971
Cu174	Cu	0.399835	0.044374	-0.517998
Cu175	Cu	0.551332	0.039099	-0.514489
O176	O	0.463086	0.028349	-0.582569
C177	C	0.815354	-0.521094	-0.008709
C178	C	0.415547	-0.125494	-0.028771
C179	C	0.375059	-0.223405	-0.031498
C180	C	0.423859	-0.270708	-0.029121
C181	C	0.149365	-0.395355	-0.030599
C182	C	0.246820	-0.353421	-0.032381
C183	C	0.294640	-0.401713	-0.030008
C184	C	0.549171	-0.790955	-0.010537
C185	C	0.286131	-0.263897	-0.032533
C186	C	0.383402	-0.360104	-0.028335
C187	C	0.432293	-0.407926	-0.025859
C188	C	0.392422	-0.497356	-0.025055
C189	C	0.303660	-0.538965	-0.026727
C190	C	0.254769	-0.491143	-0.029204
C191	C	0.263791	-0.628403	-0.025925
C192	C	0.312683	-0.676224	-0.023448
C193	C	0.401445	-0.634615	-0.021775
C194	C	0.441316	-0.545185	-0.022579
C195	C	0.530078	-0.503576	-0.020906
C196	C	0.578969	-0.551398	-0.018429
C197	C	0.539104	-0.640825	-0.017627
C198	C	0.450342	-0.682434	-0.019300
C199	C	0.587995	-0.688646	-0.015150
C200	C	0.676757	-0.647037	-0.013477
C201	C	0.716628	-0.557607	-0.014281
C202	C	0.667731	-0.509789	-0.016757
C203	C	0.569946	-0.414138	-0.021709
C204	C	0.658708	-0.372530	-0.020036
C205	C	0.707602	-0.420359	-0.017561
C206	C	0.698579	-0.283100	-0.020840
C207	C	0.649688	-0.235278	-0.023317
C208	C	0.560926	-0.276887	-0.024990
C209	C	0.521055	-0.366317	-0.024186
C210	C	0.512035	-0.229066	-0.027467
O211	O	-0.620614	0.089309	0.052274
O212	O	-0.529507	0.043784	-0.078544
O213	O	-0.523494	0.194833	-0.006033
O214	O	-0.626628	-0.061740	-0.020236
O215	O	-0.395386	0.185419	-0.005549
O216	O	-0.401400	0.034370	-0.078059
O217	O	-0.492507	0.079895	0.052758
Cu218	Cu	-0.435256	0.056273	-0.012607
Cu219	Cu	-0.586758	0.067406	-0.013179
O220	O	-0.498521	-0.071154	-0.019752
C221	C	-0.437537	0.048335	0.402491
C222	C	-0.837226	0.099430	0.210091
C223	C	-0.739773	0.100339	0.187806
C224	C	-0.691967	0.094287	0.211308
C225	C	-0.571027	0.088563	0.071568
C226	C	-0.611521	0.095108	0.121070
C227	C	-0.562739	0.089011	0.144061
C228	C	-0.171338	0.037467	0.263967
C229	C	-0.700452	0.099593	0.142516
C230	C	-0.603213	0.088528	0.189308
C231	C	-0.554892	0.082255	0.212848
C232	C	-0.466098	0.076466	0.191141
C233	C	-0.425624	0.076949	0.145894
C234	C	-0.473945	0.083222	0.122354
C235	C	-0.336822	0.071163	0.124188
C236	C	-0.288502	0.064890	0.147728
C237	C	-0.328975	0.064407	0.192975
C238	C	-0.417770	0.070196	0.214682
C239	C	-0.458244	0.069713	0.259929
C240	C	-0.409923	0.063441	0.283469
C241	C	-0.321132	0.057655	0.261765
C242	C	-0.280658	0.058138	0.216518
C243	C	-0.272811	0.051382	0.285305
C244	C	-0.313285	0.050899	0.330552
C245	C	-0.402079	0.056688	0.352259
C246	C	-0.450397	0.062957	0.328716
C247	C	-0.547046	0.075500	0.281635
C248	C	-0.587520	0.075016	0.326882
C249	C	-0.539191	0.068747	0.350423
C250	C	-0.676314	0.080806	0.348589
C251	C	-0.724634	0.087078	0.325049
C252	C	-0.684160	0.087561	0.279802
C253	C	-0.595366	0.081772	0.258095
C254	C	-0.732481	0.093834	0.256262
O255	O	-0.040608	-1.085661	-0.825229
O256	O	-0.001018	-0.826491	-0.777938
O257	O	-0.150287	-0.971682	-0.775894
O258	O	0.108661	-0.940470	-0.827272
O259	O	-0.144253	-0.976123	-0.711878
O260	O	0.005016	-0.830932	-0.713922
O261	O	-0.034575	-1.090102	-0.761213
Cu262	Cu	-0.014228	-0.960923	-0.731722
Cu263	Cu	-0.021364	-0.955670	-0.807428
O264	O	0.114695	-0.944911	-0.763256
C265	C	-0.049919	-0.210816	-0.392921
C266	C	-0.128258	-0.252632	-0.406757
C267	C	-0.131694	-0.203715	-0.431212
H268	H	0.001716	-0.208811	-0.418831
H269	H	-0.050760	-0.151270	-0.374209
H270	H	-0.127409	-0.312161	-0.425468
H271	H	-0.179906	-0.254636	-0.380856
H272	H	-0.132536	-0.144170	-0.412500
H273	H	-0.080056	-0.201714	-0.457119
H274	H	-0.184851	-0.232075	-0.440599
C275	C	0.232166	-0.210681	-0.033820
C276	C	0.155818	-0.208081	0.004301
C277	C	0.106087	-0.159059	0.003137
H278	H	0.213685	-0.238798	-0.060558
H279	H	0.268703	-0.151062	-0.033722
H280	H	0.119287	-0.267690	0.004199
H281	H	0.174273	-0.179958	0.031044
H282	H	0.142624	-0.099439	0.003234
H283	H	0.087612	-0.187180	-0.023603
H284	H	0.054283	-0.157281	0.029003
H285	H	0.710969	-0.684436	-0.006165
H286	H	0.682288	-0.162154	-0.023969
H287	H	-0.023718	-0.530163	-0.918978
C288	C	-0.039414	-0.132284	-0.230105
C289	C	-0.035690	-0.106615	-0.185704
C290	C	-0.038418	-0.016836	-0.164702
H291	H	-0.093935	-0.126257	-0.229435
H292	H	0.010746	-0.094816	-0.246645
H293	H	-0.085845	-0.144073	-0.169168
H294	H	0.018828	-0.112620	-0.186362
H295	H	0.011742	0.020632	-0.181242
H296	H	-0.092940	-0.010818	-0.164035
H297	H	-0.035883	0.000594	-0.134576
C298	C	0.167098	-0.673796	-0.027858
C299	C	0.160826	-0.673325	-0.068084
C300	C	0.071772	-0.715160	-0.069891
H301	H	0.127758	-0.642125	-0.002611
H302	H	0.150287	-0.734176	-0.027051
H303	H	0.177625	-0.612956	-0.068886
H304	H	0.200145	-0.705000	-0.093338
H305	H	0.054961	-0.775540	-0.069084
H306	H	0.032439	-0.683485	-0.044642
H307	H	0.067506	-0.714854	-0.097186
H308	H	0.279916	-0.749353	-0.522691
C309	C	-0.267790	0.020001	-0.142353
C310	C	-0.261965	0.097113	-0.105349
C311	C	-0.212435	0.093362	-0.081431
H312	H	-0.208729	0.017149	-0.161805
H313	H	-0.297217	-0.031997	-0.131770
H314	H	-0.232535	0.149097	-0.115932
H315	H	-0.321010	0.099980	-0.085886
H316	H	-0.241862	0.041363	-0.070848
H317	H	-0.153378	0.090507	-0.100887
H318	H	-0.208483	0.145676	-0.056319
H319	H	-0.208057	0.053400	0.198770
H320	H	-0.717713	0.052007	-0.112064
H321	H	0.771070	-0.249160	-0.519423
H322	H	-0.217624	0.025258	-0.300336
C323	C	-0.202431	0.030595	-0.374903
C324	C	-0.177866	0.032449	-0.419688
C325	C	-0.088726	0.026734	-0.441868
H326	H	-0.197881	-0.024046	-0.374894
H327	H	-0.163169	0.080116	-0.359581
H328	H	-0.217116	-0.017068	-0.435007
H329	H	-0.182394	0.087085	-0.419711
H330	H	-0.049464	0.076255	-0.426546
H331	H	-0.084185	-0.027908	-0.441856
H332	H	-0.072045	0.027999	-0.472256
H333	H	0.013347	-0.692513	-0.652885
C334	C	0.004130	-0.784904	-0.808460
C335	C	0.000489	-0.811208	-0.852917
C336	C	0.003359	-0.900987	-0.873636
H337	H	-0.045994	-0.822226	-0.791833
H338	H	0.058685	-0.790636	-0.808990
H339	H	-0.054060	-0.805484	-0.852384
H340	H	0.050609	-0.773910	-0.869555
H341	H	0.057914	-0.906719	-0.874166
H342	H	-0.046765	-0.938302	-0.857006
H343	H	0.000898	-0.918844	-0.903804
H344	H	0.417564	-0.755580	-0.518528
H345	H	0.191099	-0.662437	-0.527221
H346	H	-0.580066	0.039960	-0.110823
H347	H	-0.047834	-0.232081	-0.882358
C348	C	-0.016064	-0.678913	-0.927559
C349	C	-0.012391	-0.767831	-0.940435
C350	C	-0.015226	-0.809795	-0.985270
H351	H	0.034061	-0.647255	-0.947004
H352	H	-0.070617	-0.678734	-0.929792
H353	H	0.042156	-0.768004	-0.938206
H354	H	-0.062512	-0.799513	-0.921002
H355	H	-0.069779	-0.809617	-0.987502
H356	H	0.034900	-0.778130	-1.004710
H357	H	-0.012742	-0.870133	-0.994010
C358	C	0.232161	-0.210721	-0.533833
C359	C	0.155810	-0.208094	-0.495714
C360	C	0.106099	-0.159069	-0.496894
H361	H	0.213683	-0.238849	-0.560572
H362	H	0.268710	-0.151109	-0.533743
H363	H	0.119268	-0.267695	-0.495808
H364	H	0.174262	-0.179959	-0.468970
H365	H	0.142648	-0.099456	-0.496804
H366	H	0.087627	-0.187202	-0.523634
H367	H	0.054294	-0.157273	-0.471029
H368	H	0.682238	-0.162236	-0.523943
C369	C	0.722032	-0.696924	-0.503485
C370	C	0.672799	-0.712788	-0.461107
C371	C	0.714647	-0.758674	-0.451987
H372	H	0.781807	-0.661500	-0.503245
H373	H	0.724025	-0.752726	-0.526283
H374	H	0.670815	-0.656994	-0.438314
H375	H	0.613026	-0.748220	-0.461336
H376	H	0.716641	-0.814476	-0.474786
H377	H	0.774421	-0.723245	-0.451750
H378	H	0.681245	-0.769451	-0.423236
C379	C	0.003955	-0.379881	-0.606904
C380	C	0.000247	-0.290974	-0.594024
C381	C	0.002985	-0.249037	-0.549174
H382	H	0.058474	-0.380025	-0.604631
H383	H	-0.046207	-0.411595	-0.587488
H384	H	0.050405	-0.259269	-0.613435
H385	H	-0.054268	-0.290804	-0.596287
H386	H	-0.047177	-0.280750	-0.529758
H387	H	0.057505	-0.249187	-0.546904
H388	H	0.000462	-0.188712	-0.540427
C389	C	0.555616	-0.131634	-0.528311
C390	C	0.644168	-0.105322	-0.526295
C391	C	0.684377	-0.015511	-0.527079
H392	H	0.521832	-0.094359	-0.502989
H393	H	0.556621	-0.125839	-0.555539
H394	H	0.643157	-0.111110	-0.499070
H395	H	0.677975	-0.142573	-0.551615
H396	H	0.685382	-0.009716	-0.554307
H397	H	0.650586	0.021756	-0.501756
H398	H	0.744466	0.002350	-0.525715
C399	C	0.157914	-0.536665	-0.530959
C400	C	0.133333	-0.625571	-0.529695
C401	C	0.044190	-0.667505	-0.531344
H402	H	0.153367	-0.536524	-0.558218
H403	H	0.118659	-0.504948	-0.505668
H404	H	0.172577	-0.657280	-0.554984
H405	H	0.137859	-0.625738	-0.502437
H406	H	0.004936	-0.635788	-0.506053
H407	H	0.039652	-0.667358	-0.558604
H408	H	0.027498	-0.727829	-0.530483
C409	C	-0.757597	0.093862	-0.378890
C410	C	-0.708386	0.177263	-0.387519
C411	C	-0.750233	0.196540	-0.409933
H412	H	-0.817381	0.095949	-0.360383
H413	H	-0.759565	0.048280	-0.406755
H414	H	-0.706429	0.222834	-0.359658
H415	H	-0.648603	0.175197	-0.406030
H416	H	-0.752200	0.150958	-0.437797
H417	H	-0.810016	0.198622	-0.391423
H418	H	-0.716845	0.253124	-0.415794
H419	H	0.280077	-0.749342	-0.022791
C420	C	-0.019438	-0.240948	-0.111817
C421	C	-0.093416	-0.288295	-0.083495
C422	C	-0.090778	-0.247279	-0.038598
H423	H	-0.021970	-0.180546	-0.102728
H424	H	0.035066	-0.241426	-0.109662
H425	H	-0.147906	-0.287808	-0.085649
H426	H	-0.090899	-0.348696	-0.092570
H427	H	-0.036275	-0.247757	-0.036443
H428	H	-0.093308	-0.186878	-0.029514
H429	H	-0.140966	-0.279403	-0.019377
H430	H	-0.005182	-0.254109	-0.622664
H431	H	-0.015393	-0.167196	-0.666497
C432	C	-0.839725	0.072020	-0.216873
C433	C	-0.845968	0.152631	-0.217055
C434	C	-0.935052	0.158603	-0.195019
H435	H	-0.856677	0.070853	-0.186452
H436	H	-0.878969	0.022559	-0.232230
H437	H	-0.806736	0.202079	-0.201696
H438	H	-0.829034	0.153816	-0.247469
H439	H	-0.974296	0.109142	-0.210376
H440	H	-0.951996	0.157433	-0.164599
H441	H	-0.939301	0.213292	-0.195143
H442	H	-0.315470	0.043557	-0.411085
C443	C	-0.024514	-0.136594	-0.729607
C444	C	-0.020830	-0.110282	-0.685157
C445	C	-0.023604	-0.020473	-0.664452
H446	H	-0.079036	-0.130781	-0.729057
H447	H	0.025645	-0.099331	-0.746262
H448	H	-0.070984	-0.147534	-0.668505
H449	H	0.033689	-0.116073	-0.685694
H450	H	0.026555	0.016790	-0.681107
H451	H	-0.078127	-0.014668	-0.663905
H452	H	-0.021097	-0.002606	-0.634292
C453	C	0.406730	-0.779943	-0.018457
C454	C	0.318178	-0.806263	-0.020474
C455	C	0.277986	-0.896084	-0.019706
H456	H	0.405712	-0.785779	0.008759
H457	H	0.440548	-0.817186	-0.043791
H458	H	0.284368	-0.769030	0.004859
H459	H	0.319170	-0.800448	-0.047688
H460	H	0.311805	-0.933327	-0.045041
H461	H	0.276975	-0.901912	0.007510
H462	H	0.217903	-0.913956	-0.021078
H463	H	-0.020209	-0.749804	-0.374113
C464	C	-0.830728	0.065066	-0.148233
C465	C	-0.855279	0.063264	-0.103440
C466	C	-0.944372	0.069124	-0.081241
H467	H	-0.870067	0.015596	-0.163520
H468	H	-0.835166	0.119748	-0.148267
H469	H	-0.850849	0.008589	-0.103409
H470	H	-0.815964	0.112731	-0.088141
H471	H	-0.948810	0.123805	-0.081275
H472	H	-0.983703	0.019653	-0.096531
H473	H	-0.961039	0.067911	-0.050845
C474	C	-0.031206	-0.673195	-0.429604
C475	C	-0.027553	-0.762205	-0.442803
C476	C	-0.030410	-0.803568	-0.487656
H477	H	0.018918	-0.641294	-0.448941
H478	H	-0.085761	-0.672789	-0.431736
H479	H	0.026995	-0.762606	-0.440675
H480	H	-0.077674	-0.794130	-0.423478
H481	H	-0.084964	-0.803162	-0.489788
H482	H	0.019715	-0.771660	-0.506989
H483	H	-0.027940	-0.863968	-0.496616
C484	C	-0.292555	0.071637	0.074859
C485	C	-0.204093	0.065182	0.060829
C486	C	-0.163284	0.065610	0.015388
H487	H	-0.291297	0.126043	0.071829
H488	H	-0.326132	0.021885	0.056579
H489	H	-0.170524	0.114930	0.079104
H490	H	-0.205325	0.010779	0.063848
H491	H	-0.196862	0.015858	-0.002892
H492	H	-0.162033	0.120016	0.012362
H493	H	-0.103262	0.061222	0.005862
H494	H	0.012418	-0.684570	-0.156900
C495	C	0.795308	-0.237807	-0.018942
C496	C	0.801609	-0.238316	0.021269
C497	C	0.890699	-0.196608	0.023034
H498	H	0.812217	-0.177427	-0.019753
H499	H	0.834561	-0.269563	-0.044211
H500	H	0.762369	-0.206558	0.046531
H501	H	0.784718	-0.298684	0.022089
H502	H	0.929952	-0.228364	-0.002234
H503	H	0.907600	-0.136231	0.022222
H504	H	0.894987	-0.196956	0.050315
H505	H	-0.453130	0.055597	-0.412328
C506	C	0.555641	-0.131561	-0.028317
C507	C	0.644197	-0.105241	-0.026306
C508	C	0.684386	-0.015421	-0.027075
H509	H	0.521851	-0.094301	-0.002988
H510	H	0.556636	-0.125751	-0.055539
H511	H	0.643197	-0.111043	0.000913
H512	H	0.678010	-0.142476	-0.051632
H513	H	0.685381	-0.009610	-0.054298
H514	H	0.650589	0.021831	-0.001746
H515	H	0.744478	0.002447	-0.025715
C516	C	-0.754136	0.103974	0.116602
C517	C	-0.710665	0.180800	0.101167
C518	C	-0.760086	0.184858	0.077288
H519	H	-0.813208	0.106796	0.136047
H520	H	-0.758062	0.051791	0.091420
H521	H	-0.706749	0.232970	0.126345
H522	H	-0.651597	0.177995	0.081716
H523	H	-0.764013	0.132675	0.052107
H524	H	-0.819156	0.187677	0.096736
H525	H	-0.730594	0.236979	0.066809
C526	C	-0.263327	0.029829	0.352545
C527	C	-0.250345	-0.056104	0.328815
C528	C	-0.204318	-0.075539	0.349058
H529	H	-0.297903	0.031591	0.383145
H530	H	-0.206323	0.073172	0.351766
H531	H	-0.307340	-0.099436	0.329598
H532	H	-0.215761	-0.057887	0.298216
H533	H	-0.147314	-0.032195	0.348280
H534	H	-0.238899	-0.073772	0.379657
H535	H	-0.195497	-0.133842	0.332958
H536	H	-0.440845	0.083623	0.085362
C537	C	-0.583491	0.068182	0.399742
C538	C	-0.671968	0.074596	0.413770
C539	C	-0.712805	0.074063	0.459196
H540	H	-0.549971	0.117898	0.418054
H541	H	-0.584710	0.013739	0.402728
H542	H	-0.670744	0.129032	0.410788
H543	H	-0.705511	0.024884	0.395471
H544	H	-0.714023	0.019620	0.462182
H545	H	-0.679277	0.123780	0.477503
H546	H	-0.772842	0.078407	0.468718
C547	C	-0.821398	0.093480	0.348806
C548	C	-0.846589	0.091753	0.393660
C549	C	-0.935705	0.097687	0.415565
H550	H	-0.860551	0.044012	0.333407
H551	H	-0.825603	0.148161	0.348645
H552	H	-0.842391	0.037079	0.393819
H553	H	-0.807460	0.141219	0.409071
H554	H	-0.939911	0.152368	0.415404
H555	H	-0.974850	0.048218	0.400163
H556	H	-0.952806	0.096525	0.446002
H557	H	-0.030255	-0.164038	-0.167345
H558	H	0.182201	-0.525171	-0.030575
H559	H	-0.011621	-0.389765	-0.121028
H560	H	-0.011748	-0.757184	-0.305606
H561	H	-0.215904	0.060157	0.129977
H562	H	-0.038841	-0.524079	-0.420431
H563	H	-0.005085	-0.754331	-0.871556
H564	H	0.780052	-0.386407	-0.516111
H565	H	-0.709407	0.080425	0.385586
H566	H	0.780178	-0.386331	-0.016193
H567	H	-0.805083	0.098565	0.274011
