data_functionalizedCrystal
_audit_creation_method	'MofGen! by Chris Wilmer'
_symmetry_space_group_name_H-M	'P1'
_symmetry_Int_Tables_number	1
_symmetry_cell_setting	triclinic
loop_
_symmetry_equiv_pos_as_xyz
  x,y,z
_cell_length_a	19.077105
_cell_length_b	19.076808
_cell_length_c	21.395355
_cell_angle_alpha	92.317436
_cell_angle_beta	92.321224
_cell_angle_gamma	89.927608
loop_
_atom_site_label
_atom_site_type_symbol
_atom_site_fract_x
_atom_site_fract_y
_atom_site_fract_z
Zn1	Zn	1.063037	-0.323083	0.380673
Zn2	Zn	1.396370	0.010250	0.714006
Zn3	Zn	1.729703	0.343583	1.047340
Zn4	Zn	1.058217	-0.440575	0.271519
Zn5	Zn	1.391551	-0.107241	0.604853
Zn6	Zn	1.724884	0.226092	0.938186
Zn7	Zn	0.945519	-0.318353	0.271881
Zn8	Zn	1.278852	0.014980	0.605215
Zn9	Zn	1.612185	0.348313	0.938548
Zn10	Zn	0.940775	-0.435829	0.372234
Zn11	Zn	1.274108	-0.102496	0.705568
Zn12	Zn	1.607441	0.230837	1.038901
O13	O	1.001887	-0.379460	0.324077
O14	O	1.335220	-0.046127	0.657410
O15	O	1.668554	0.287207	0.990744
O16	O	1.160729	-0.342634	0.369574
O17	O	1.494063	-0.009301	0.702907
O18	O	1.827396	0.324033	1.036240
O19	O	1.043236	-0.424368	0.183888
O20	O	1.376569	-0.091035	0.517221
O21	O	1.709903	0.242299	0.850555
O22	O	0.965110	-0.220646	0.289996
O23	O	1.298443	0.112687	0.623329
O24	O	1.631776	0.446021	0.956662
O25	O	1.157189	-0.428954	0.289379
O26	O	1.490522	-0.095621	0.622712
O27	O	1.823855	0.237712	0.956046
O28	O	1.051450	-0.224121	0.369925
O29	O	1.384783	0.109212	0.703258
O30	O	1.718117	0.442545	1.036591
O31	O	0.960437	-0.334573	0.184154
O32	O	1.293770	-0.001239	0.517487
O33	O	1.627103	0.332094	0.850821
O34	O	0.846557	-0.329971	0.281813
O35	O	1.179891	0.003362	0.615146
O36	O	1.513224	0.336695	0.948480
O37	O	0.957025	-0.420867	0.461033
O38	O	1.290358	-0.087534	0.794366
O39	O	1.623691	0.245800	1.127700
O40	O	0.843072	-0.416281	0.355542
O41	O	1.176406	-0.082947	0.688875
O42	O	1.509739	0.250386	1.022209
O43	O	1.046850	-0.338033	0.467233
O44	O	1.380183	-0.004700	0.800566
O45	O	1.713517	0.328634	1.133900
O46	O	1.038636	-0.538280	0.281196
O47	O	1.371970	-0.204946	0.614530
O48	O	1.705303	0.128387	0.947863
O49	O	0.952352	-0.534793	0.355191
O50	O	1.285685	-0.201460	0.688524
O51	O	1.619018	0.131873	1.021858
C52	C	0.819318	-0.372098	0.317801
C53	C	1.152652	-0.038765	0.651135
C54	C	1.485985	0.294568	0.984468
C55	C	0.741214	-0.368966	0.315131
C56	C	1.074548	-0.035632	0.648464
C57	C	1.407881	0.297701	0.981798
C58	C	0.702722	-0.412498	0.352198
C59	C	1.036055	-0.079165	0.685531
C60	C	1.369388	0.254168	1.018864
C61	C	0.629335	-0.409546	0.349692
C62	C	0.962668	-0.076213	0.683025
C63	C	1.296002	0.257121	1.016358
C64	C	0.594442	-0.363064	0.310116
C65	C	0.927775	-0.029730	0.643449
C66	C	1.261108	0.303603	0.976782
C67	C	0.632939	-0.319526	0.273048
C68	C	0.966273	0.013807	0.606381
C69	C	1.299606	0.347140	0.939714
C70	C	0.706325	-0.322476	0.275557
C71	C	1.039658	0.010858	0.608890
C72	C	1.372992	0.344191	0.942224
C73	C	0.375155	-0.349413	0.298504
C74	C	0.708489	-0.016080	0.631837
C75	C	1.041822	0.317254	0.965170
C76	C	0.301764	-0.346468	0.295996
C77	C	0.635098	-0.013135	0.629329
C78	C	0.968431	0.320198	0.962662
C79	C	0.298165	-0.436487	0.372641
C80	C	0.631498	-0.103154	0.705974
C81	C	0.964831	0.230179	1.039308
C82	C	0.371552	-0.439436	0.375144
C83	C	0.704885	-0.106102	0.708478
C84	C	1.038218	0.227231	1.041811
C85	C	0.410043	-0.395896	0.338079
C86	C	0.743377	-0.062562	0.671412
C87	C	1.076710	0.270771	1.004745
N88	N	0.519428	-0.360046	0.307552
N89	N	0.852762	-0.026713	0.640885
N90	N	1.186095	0.306621	0.974218
N91	N	0.485055	-0.398910	0.340646
N92	N	0.818389	-0.065577	0.673980
N93	N	1.151722	0.267757	1.007313
C94	C	0.994475	-0.562034	0.317253
C95	C	1.327809	-0.228701	0.650586
C96	C	1.661142	0.104632	0.983920
C97	C	0.991369	-0.640143	0.314357
C98	C	1.324702	-0.306810	0.647690
C99	C	1.658036	0.026524	0.981024
C100	C	1.034828	-0.678586	0.354642
C101	C	1.368162	-0.345253	0.687976
C102	C	1.701495	-0.011919	1.021309
C103	C	1.031907	-0.751977	0.351922
C104	C	1.365240	-0.418644	0.685255
C105	C	1.698573	-0.085311	1.018589
C106	C	0.985529	-0.786924	0.308913
C107	C	1.318862	-0.453591	0.642246
C108	C	1.652195	-0.120258	0.975580
C109	C	0.942064	-0.748476	0.268626
C110	C	1.275398	-0.415143	0.601959
C111	C	1.608731	-0.081809	0.935293
C112	C	0.944983	-0.675086	0.271350
C113	C	1.278316	-0.341753	0.604683
C114	C	1.611649	-0.008419	0.938016
C115	C	0.971980	-1.006230	0.296304
C116	C	1.305313	-0.672896	0.629637
C117	C	1.638646	-0.339563	0.962971
C118	C	0.969066	-1.079625	0.293582
C119	C	1.302399	-0.746292	0.626915
C120	C	1.635733	-0.412958	0.960249
C121	C	1.058908	-1.083121	0.376879
C122	C	1.392241	-0.749788	0.710213
C123	C	1.725575	-0.416454	1.043546
C124	C	1.061825	-1.009730	0.379597
C125	C	1.395159	-0.676396	0.712930
C126	C	1.728492	-0.343063	1.046263
C127	C	1.018358	-0.971288	0.339312
C128	C	1.351692	-0.637954	0.672645
C129	C	1.685025	-0.304621	1.005978
N130	N	0.982543	-0.861942	0.306130
N131	N	1.315876	-0.528609	0.639463
N132	N	1.649209	-0.195275	0.972797
N133	N	1.021341	-0.896271	0.342098
N134	N	1.354675	-0.562938	0.675432
N135	N	1.688008	-0.229604	1.008765
C136	C	1.185168	-0.386851	0.330377
C137	C	1.518502	-0.053518	0.663711
C138	C	1.851835	0.279815	0.997044
C139	C	1.263272	-0.390001	0.333062
C140	C	1.596605	-0.056668	0.666396
C141	C	1.929938	0.276666	0.999729
C142	C	1.001946	-0.379448	0.487503
C143	C	1.335279	-0.046115	0.820836
C144	C	1.668612	0.287218	1.154170
C145	C	1.001971	-0.379443	0.557145
C146	C	1.335304	-0.046110	0.890479
C147	C	1.668638	0.287223	1.223812
C148	C	1.009347	-0.196174	0.330942
C149	C	1.342680	0.137160	0.664275
C150	C	1.676013	0.470493	0.997609
C151	C	1.012525	-0.118068	0.333867
C152	C	1.345859	0.215265	0.667201
C153	C	1.679192	0.548599	1.000534
C154	C	1.001871	-0.379423	0.161290
C155	C	1.335204	-0.046090	0.494623
C156	C	1.668537	0.287244	0.827957
C157	C	1.001990	-0.379235	0.091660
C158	C	1.335323	-0.045902	0.424994
C159	C	1.668656	0.287431	0.758327
C160	C	1.048741	-0.336310	0.593088
C161	C	1.382074	-0.002976	0.926421
C162	C	1.715408	0.330357	1.259754
C163	C	1.048741	-0.336279	0.658524
C164	C	1.382075	-0.002946	0.991858
C165	C	1.715408	0.330387	1.325191
C166	C	1.001978	-0.379396	0.688016
C167	C	1.335312	-0.046062	1.021349
C168	C	1.668645	0.287271	1.354682
C169	C	0.955199	-0.422532	0.652065
C170	C	1.288533	-0.089199	0.985398
C171	C	1.621866	0.244135	1.318731
C172	C	0.955196	-0.422556	0.586630
C173	C	1.288529	-0.089223	0.919963
C174	C	1.621862	0.244111	1.253296
C175	C	0.993861	-0.442445	0.789135
C176	C	1.327195	-0.109111	1.122468
C177	C	1.660528	0.224222	1.455802
C178	C	0.993870	-0.442422	0.854569
C179	C	1.327203	-0.109089	1.187903
C180	C	1.660537	0.224244	1.521236
C181	C	1.001986	-0.379321	0.889839
C182	C	1.335319	-0.045988	1.223173
C183	C	1.668652	0.287345	1.556506
C184	C	1.010108	-0.316242	0.859668
C185	C	1.343441	0.017092	1.193001
C186	C	1.676774	0.350425	1.526335
C187	C	1.010104	-0.316266	0.794233
C188	C	1.343437	0.017068	1.127566
C189	C	1.676771	0.350401	1.460899
C190	C	1.001977	-0.379374	0.758969
C191	C	1.335310	-0.046041	1.092302
C192	C	1.668643	0.287293	1.425635
C193	C	1.048759	-0.336151	0.996736
C194	C	1.382092	-0.002818	1.330069
C195	C	1.715425	0.330515	1.663402
C196	C	1.048754	-0.336120	1.062173
C197	C	1.382087	-0.002786	1.395507
C198	C	1.715421	0.330547	1.728840
C199	C	0.955215	-0.422379	1.055713
C200	C	1.288549	-0.089045	1.389046
C201	C	1.621882	0.244288	1.722379
C202	C	0.955217	-0.422404	0.990276
C203	C	1.288550	-0.089071	1.323610
C204	C	1.621883	0.244263	1.656943
C205	C	1.001992	-0.379291	0.960792
C206	C	1.335325	-0.045958	1.294125
C207	C	1.668659	0.287375	1.627459
H208	H	0.399957	-0.477288	0.407370
H209	H	0.733290	-0.143955	0.740703
H210	H	1.066623	0.189379	1.074037
Br211	Br	1.117894	-1.135296	0.431550
Br212	Br	1.451227	-0.801962	0.764883
Br213	Br	1.784560	-0.468629	1.098217
H214	H	1.086826	-0.301151	0.687794
H215	H	1.420159	0.032183	1.021128
H216	H	1.753493	0.365516	1.354461
Br217	Br	0.758566	-0.263390	0.225254
Br218	Br	1.091900	0.069944	0.558587
Br219	Br	1.425233	0.403277	0.891921
Br220	Br	0.885997	-0.622912	0.216677
Br221	Br	1.219330	-0.289579	0.550010
Br222	Br	1.552663	0.043755	0.883344
H223	H	1.016715	-0.264904	0.769670
H224	H	1.350049	0.068430	1.103003
H225	H	1.683382	0.401763	1.436336
H226	H	0.917135	-0.457533	0.961011
H227	H	1.250469	-0.124199	1.294345
H228	H	1.583802	0.209134	1.627678
H229	H	0.273357	-0.308609	0.263772
H230	H	0.606690	0.024725	0.597105
H231	H	0.940023	0.358058	0.930439
Br232	Br	1.097779	-0.631165	0.413010
Br233	Br	1.431112	-0.297832	0.746343
Br234	Br	1.764446	0.035501	1.079677
H235	H	1.067302	-0.783275	0.384722
H236	H	1.400635	-0.449941	0.718055
H237	H	1.733968	-0.116608	1.051389
Br238	Br	0.750069	-0.475590	0.405906
Br239	Br	1.083403	-0.142257	0.739239
Br240	Br	1.416736	0.191077	1.072573
Br241	Br	0.245923	-0.495577	0.422939
Br242	Br	0.579256	-0.162243	0.756272
Br243	Br	0.912590	0.171090	1.089606
Br244	Br	0.585586	-0.256436	0.219342
Br245	Br	0.918919	0.076898	0.552676
Br246	Br	1.252252	0.410231	0.886009
H247	H	0.406486	-0.313965	0.268317
H248	H	0.739819	0.019368	0.601651
H249	H	1.073153	0.352702	0.934984
H250	H	0.931296	-1.108076	0.258558
H251	H	1.264629	-0.774743	0.591892
H252	H	1.597962	-0.441410	0.925225
H253	H	1.099590	-0.981277	0.414618
H254	H	1.432923	-0.647944	0.747951
H255	H	1.766257	-0.314611	1.081285
Br256	Br	0.912980	-0.954067	0.241639
Br257	Br	1.246313	-0.620734	0.574972
Br258	Br	1.579646	-0.287400	0.908306
H259	H	0.904299	-0.776936	0.233609
H260	H	1.237633	-0.443602	0.566943
H261	H	1.570966	-0.110269	0.900276
H262	H	1.086828	-0.301203	0.569086
H263	H	1.420162	0.032130	0.902419
H264	H	1.753495	0.365464	1.235752
H265	H	0.917133	-0.457477	1.079724
H266	H	1.250466	-0.124144	1.413057
H267	H	1.583800	0.209189	1.746390
Br268	Br	0.891716	-0.481098	0.537847
Br269	Br	1.225049	-0.147765	0.871180
Br270	Br	1.558382	0.185569	1.204514
H271	H	1.016717	-0.264859	0.888384
H272	H	1.350051	0.068474	1.221717
H273	H	1.683384	0.401808	1.555050
H274	H	0.987261	-0.493786	0.879130
H275	H	1.320594	-0.160453	1.212463
H276	H	1.653927	0.172881	1.545797
Br277	Br	0.982867	-0.528092	0.741276
Br278	Br	1.316200	-0.194759	1.074609
Br279	Br	1.649534	0.138574	1.407942
H280	H	0.917122	-0.457635	0.676081
H281	H	1.250456	-0.124302	1.009414
H282	H	1.583789	0.209031	1.342748
H283	H	0.597997	-0.444995	0.379875
H284	H	0.931331	-0.111662	0.713208
H285	H	1.264664	0.221671	1.046541
H286	H	1.086842	-0.301042	0.972728
H287	H	1.420175	0.032291	1.306062
H288	H	1.753509	0.365624	1.639395
Br289	Br	1.112244	-0.277587	1.110954
Br290	Br	1.445577	0.055747	1.444288
Br291	Br	1.778911	0.389080	1.777621
