data_functionalizedCrystal
_audit_creation_method	'MofGen! by Chris Wilmer'
_symmetry_space_group_name_H-M	'P1'
_symmetry_Int_Tables_number	1
_symmetry_cell_setting	triclinic
loop_
_symmetry_equiv_pos_as_xyz
  x,y,z
_cell_length_a	17.038272
_cell_length_b	16.109301
_cell_length_c	14.586319
_cell_angle_alpha	89.996198
_cell_angle_beta	90.002130
_cell_angle_gamma	87.286570
loop_
_atom_site_label
_atom_site_type_symbol
_atom_site_fract_x
_atom_site_fract_y
_atom_site_fract_z
O1	O	-1.037364	-0.180538	0.076126
O2	O	-0.787364	0.069462	0.326126
O3	O	-0.537364	0.319462	0.576126
O4	O	-0.287364	0.569462	0.826126
O5	O	-0.809734	-0.177672	0.076153
O6	O	-0.559734	0.072328	0.326153
O7	O	-0.309734	0.322328	0.576153
O8	O	-0.059734	0.572328	0.826153
O9	O	-0.929802	-0.058518	0.076133
O10	O	-0.679802	0.191482	0.326133
O11	O	-0.429802	0.441482	0.576133
O12	O	-0.179802	0.691482	0.826133
O13	O	-0.917296	-0.299692	0.076146
O14	O	-0.667296	-0.049692	0.326146
O15	O	-0.417296	0.200308	0.576146
O16	O	-0.167296	0.450308	0.826146
O17	O	-0.929794	-0.058516	-0.076348
O18	O	-0.679794	0.191484	0.173652
O19	O	-0.429794	0.441484	0.423652
O20	O	-0.179794	0.691484	0.673652
O21	O	-0.809725	-0.177669	-0.076328
O22	O	-0.559725	0.072331	0.173672
O23	O	-0.309725	0.322331	0.423672
O24	O	-0.059725	0.572331	0.673672
O25	O	-1.037356	-0.180536	-0.076355
O26	O	-0.787356	0.069464	0.173645
O27	O	-0.537356	0.319464	0.423645
O28	O	-0.287356	0.569464	0.673645
Cu29	Cu	-0.923540	-0.179102	-0.090264
Cu30	Cu	-0.673540	0.070898	0.159736
Cu31	Cu	-0.423540	0.320898	0.409736
Cu32	Cu	-0.173540	0.570898	0.659736
Cu33	Cu	-0.923550	-0.179105	0.090062
Cu34	Cu	-0.673550	0.070895	0.340062
Cu35	Cu	-0.423550	0.320895	0.590062
Cu36	Cu	-0.173550	0.570895	0.840062
O37	O	-0.917288	-0.299689	-0.076335
O38	O	-0.667288	-0.049689	0.173665
O39	O	-0.417288	0.200311	0.423665
O40	O	-0.167288	0.450311	0.673665
C41	C	-0.780601	-0.175063	-0.000084
C42	C	-0.530601	0.074937	0.249916
C43	C	-0.280601	0.324937	0.499916
C44	C	-0.030601	0.574937	0.749916
C45	C	-0.693808	-0.167284	-0.000074
C46	C	-0.443808	0.082716	0.249926
C47	C	-0.193808	0.332716	0.499926
C48	C	0.056192	0.582716	0.749926
C49	C	-1.066488	-0.183145	-0.000116
C50	C	-0.816488	0.066855	0.249884
C51	C	-0.566488	0.316855	0.499884
C52	C	-0.316488	0.566855	0.749884
C53	C	-1.153281	-0.190924	-0.000120
C54	C	-0.903281	0.059076	0.249880
C55	C	-0.653281	0.309076	0.499880
C56	C	-0.403281	0.559076	0.749880
C57	C	-0.643694	-0.238705	-0.000071
C58	C	-0.393694	0.011295	0.249929
C59	C	-0.143694	0.261295	0.499929
C60	C	0.106306	0.511295	0.749929
C61	C	-0.562143	-0.231391	-0.000084
C62	C	-0.312143	0.018609	0.249916
C63	C	-0.062143	0.268609	0.499916
C64	C	0.187857	0.518609	0.749916
C65	C	-0.530709	-0.152655	-0.000093
C66	C	-0.280709	0.097345	0.249907
C67	C	-0.030709	0.347345	0.499907
C68	C	0.219291	0.597345	0.749907
C69	C	-0.580830	-0.081229	-0.000100
C70	C	-0.330830	0.168771	0.249900
C71	C	-0.080830	0.418771	0.499900
C72	C	0.169170	0.668771	0.749900
C73	C	-0.662379	-0.088544	-0.000093
C74	C	-0.412379	0.161456	0.249907
C75	C	-0.162379	0.411456	0.499907
C76	C	0.087621	0.661456	0.749907
C77	C	-0.284951	-0.126813	-0.000119
C78	C	-0.034951	0.123187	0.249881
C79	C	0.215049	0.373187	0.499881
C80	C	0.465049	0.623187	0.749881
C81	C	-0.203396	-0.119503	-0.000123
C82	C	0.046604	0.130497	0.249877
C83	C	0.296604	0.380497	0.499877
C84	C	0.546604	0.630497	0.749877
C85	C	-0.184715	-0.269665	-0.000109
C86	C	0.065285	-0.019665	0.249891
C87	C	0.315285	0.230335	0.499891
C88	C	0.565285	0.480335	0.749891
C89	C	-0.266266	-0.276973	-0.000097
C90	C	-0.016266	-0.026973	0.249903
C91	C	0.233734	0.223027	0.499903
C92	C	0.483734	0.473027	0.749903
C93	C	-0.316380	-0.205547	-0.000108
C94	C	-0.066380	0.044453	0.249892
C95	C	0.183620	0.294453	0.499892
C96	C	0.433620	0.544453	0.749892
C97	C	-0.447352	-0.145177	-0.000104
C98	C	-0.197352	0.104823	0.249896
C99	C	0.052648	0.354823	0.499896
C100	C	0.302648	0.604823	0.749896
C101	C	-0.399736	-0.213026	-0.000104
C102	C	-0.149736	0.036974	0.249896
C103	C	0.100264	0.286974	0.499896
C104	C	0.350264	0.536974	0.749896
C105	C	-0.929291	-0.027506	-0.000107
C106	C	-0.679291	0.222494	0.249893
C107	C	-0.429291	0.472494	0.499893
C108	C	-0.179291	0.722494	0.749893
C109	C	-0.927773	0.064897	-0.000106
C110	C	-0.677773	0.314897	0.249894
C111	C	-0.427773	0.564897	0.499894
C112	C	-0.177773	0.814897	0.749894
C113	C	-0.917798	-0.330702	-0.000093
C114	C	-0.667798	-0.080702	0.249907
C115	C	-0.417798	0.169298	0.499907
C116	C	-0.167798	0.419298	0.749907
C117	C	-0.919317	-0.423105	-0.000088
C118	C	-0.669317	-0.173105	0.249912
C119	C	-0.419317	0.076895	0.499912
C120	C	-0.169317	0.326895	0.749912
C121	C	-0.994054	0.369188	-0.000098
C122	C	-0.744054	0.619188	0.249902
C123	C	-0.494054	0.869188	0.499902
C124	C	-0.244054	1.119188	0.749902
C125	C	-0.995488	0.282366	-0.000103
C126	C	-0.745488	0.532366	0.249897
C127	C	-0.495488	0.782366	0.499897
C128	C	-0.245488	1.032366	0.749897
C129	C	-0.853031	0.272610	-0.000099
C130	C	-0.603031	0.522610	0.249901
C131	C	-0.353031	0.772610	0.499901
C132	C	-0.103031	1.022610	0.749901
C133	C	-0.851597	0.359430	-0.000100
C134	C	-0.601597	0.609430	0.249900
C135	C	-0.351597	0.859430	0.499900
C136	C	-0.101597	1.109430	0.749900
C137	C	-0.922111	0.407717	-0.000095
C138	C	-0.672111	0.657717	0.249905
C139	C	-0.422111	0.907717	0.499905
C140	C	-0.172111	1.157717	0.749905
C141	C	-0.924979	0.234075	-0.000099
C142	C	-0.674979	0.484075	0.249901
C143	C	-0.424979	0.734075	0.499901
C144	C	-0.174979	0.984075	0.749901
C145	C	-0.926534	0.139938	-0.000105
C146	C	-0.676534	0.389938	0.249895
C147	C	-0.426534	0.639938	0.499895
C148	C	-0.176534	0.889938	0.749895
C149	C	-0.920556	0.501860	-0.000091
C150	C	-0.670556	0.751860	0.249909
C151	C	-0.420556	1.001860	0.499909
C152	C	-0.170556	1.251860	0.749909
N153	N	-0.923539	-0.179100	-0.217096
N154	N	-0.673539	0.070900	0.032904
N155	N	-0.423539	0.320900	0.282904
N156	N	-0.173539	0.570900	0.532904
C157	C	-0.976723	-0.126359	-0.452111
C158	C	-0.726723	0.123641	-0.202111
C159	C	-0.476723	0.373641	0.047889
C160	C	-0.226723	0.623641	0.297889
C161	C	-0.976725	-0.126357	-0.548092
C162	C	-0.726725	0.123643	-0.298092
C163	C	-0.476725	0.373643	-0.048092
C164	C	-0.226725	0.623643	0.201908
C165	C	-0.870368	-0.231845	-0.548084
C166	C	-0.620368	0.018155	-0.298084
C167	C	-0.370368	0.268155	-0.048084
C168	C	-0.120368	0.518155	0.201916
C169	C	-0.870362	-0.231842	-0.452104
C170	C	-0.620362	0.018158	-0.202104
C171	C	-0.370362	0.268158	0.047896
C172	C	-0.120362	0.518158	0.297896
C173	C	-0.923544	-0.179100	-0.404121
C174	C	-0.673544	0.070900	-0.154121
C175	C	-0.423544	0.320900	0.095879
C176	C	-0.173544	0.570900	0.345879
C177	C	-0.923552	-0.179101	-0.596081
C178	C	-0.673552	0.070899	-0.346081
C179	C	-0.423552	0.320899	-0.096081
C180	C	-0.173552	0.570899	0.153919
C181	C	-0.923554	-0.179100	-0.700148
C182	C	-0.673554	0.070900	-0.450148
C183	C	-0.423554	0.320900	-0.200148
C184	C	-0.173554	0.570900	0.049852
C185	C	-0.923541	-0.179100	-0.300047
C186	C	-0.673541	0.070900	-0.050047
C187	C	-0.423541	0.320900	0.199953
C188	C	-0.173541	0.570900	0.449953
N189	N	-0.923557	-0.179101	0.216894
N190	N	-0.673557	0.070899	0.466894
N191	N	-0.423557	0.320899	0.716894
N192	N	-0.173557	0.570899	0.966894
H193	H	-0.669281	-0.302820	-0.000062
H194	H	-0.419281	-0.052820	0.249938
H195	H	-0.169281	0.197180	0.499938
H196	H	0.080719	0.447180	0.749938
H197	H	-1.020025	-0.083413	-0.413045
H198	H	-0.770025	0.166587	-0.163045
H199	H	-0.520025	0.416587	0.086955
H200	H	-0.270025	0.666587	0.336955
H201	H	-0.793009	0.390801	-0.000101
H202	H	-0.543009	0.640801	0.249899
H203	H	-0.293009	0.890801	0.499899
H204	H	-0.043009	1.140801	0.749899
H205	H	-0.555230	-0.017121	-0.000121
H206	H	-0.305230	0.232879	0.249879
H207	H	-0.055230	0.482879	0.499879
H208	H	0.194770	0.732879	0.749879
H209	H	-0.827054	-0.274790	-0.413028
H210	H	-0.577054	-0.024790	-0.163028
H211	H	-0.327054	0.225210	0.086972
H212	H	-0.077054	0.475210	0.336972
F213	F	-0.777989	0.221212	-0.000099
F214	F	-0.527989	0.471212	0.249901
F215	F	-0.277989	0.721212	0.499901
F216	F	-0.027989	0.971212	0.749901
H217	H	-0.521343	-0.289549	-0.000080
H218	H	-0.271343	-0.039549	0.249920
H219	H	-0.021343	0.210451	0.499920
H220	H	0.228657	0.460451	0.749920
H221	H	-1.020027	-0.083410	-0.587164
H222	H	-0.770027	0.166590	-0.337164
H223	H	-0.520027	0.416590	-0.087164
H224	H	-0.270027	0.666590	0.162836
H225	H	-0.291853	-0.341088	-0.000078
H226	H	-0.041853	-0.091088	0.249922
H227	H	0.208147	0.158912	0.499922
H228	H	0.458147	0.408912	0.749922
F229	F	-0.131375	-0.345676	-0.000099
F230	F	0.118625	-0.095676	0.249901
F231	F	0.368625	0.154324	0.499901
F232	F	0.618625	0.404324	0.749901
F233	F	-0.715715	-0.012528	-0.000100
F234	F	-0.465715	0.237472	0.249900
F235	F	-0.215715	0.487472	0.499900
F236	F	0.034285	0.737472	0.749900
F237	F	-0.169944	-0.035698	-0.000150
F238	F	0.080056	0.214302	0.249850
F239	F	0.330056	0.464302	0.499850
F240	F	0.580056	0.714302	0.749850
F241	F	-0.813772	-0.287975	-0.599158
F242	F	-0.563772	-0.037975	-0.349158
F243	F	-0.313772	0.212025	-0.099158
F244	F	-0.063772	0.462025	0.150842
F245	F	-0.413890	-0.061382	-0.000111
F246	F	-0.163890	0.188618	0.249889
F247	F	0.086110	0.438618	0.499889
F248	F	0.336110	0.688618	0.749889
H249	H	-0.325745	-0.068652	-0.000129
H250	H	-0.075745	0.181348	0.249871
H251	H	0.174255	0.431348	0.499871
H252	H	0.424255	0.681348	0.749871
H253	H	-0.425333	-0.277132	-0.000101
H254	H	-0.175333	-0.027132	0.249899
H255	H	0.074667	0.222868	0.499899
H256	H	0.324667	0.472868	0.749899
H257	H	-1.051471	0.408501	-0.000094
H258	H	-0.801471	0.658501	0.249906
H259	H	-0.551471	0.908501	0.499906
H260	H	-0.301471	1.158501	0.749906
F261	F	-1.072059	0.241364	-0.000105
F262	F	-0.822059	0.491364	0.249895
F263	F	-0.572059	0.741364	0.499895
F264	F	-0.322059	0.991364	0.749895
