data_functionalizedCrystal
_audit_creation_method	'MofGen! by Chris Wilmer'
_symmetry_space_group_name_H-M	'P1'
_symmetry_Int_Tables_number	1
_symmetry_cell_setting	triclinic
loop_
_symmetry_equiv_pos_as_xyz
  x,y,z
_cell_length_a	26.809956
_cell_length_b	14.971486
_cell_length_c	14.971486
_cell_angle_alpha	83.614129
_cell_angle_beta	89.995252
_cell_angle_gamma	89.988893
loop_
_atom_site_label
_atom_site_type_symbol
_atom_site_fract_x
_atom_site_fract_y
_atom_site_fract_z
O1	O	0.041422	-1.186960	-0.116561
O2	O	0.541422	-0.686960	0.383439
O3	O	0.041436	-0.926560	-0.130520
O4	O	0.541436	-0.426560	0.369480
O5	O	0.041425	-1.063739	0.006660
O6	O	0.541425	-0.563739	0.506660
O7	O	0.041433	-1.049780	-0.253740
O8	O	0.541433	-0.549780	0.246260
O9	O	-0.041534	-1.063697	0.006660
O10	O	0.458466	-0.563697	0.506660
O11	O	-0.041523	-0.926517	-0.130519
O12	O	0.458477	-0.426517	0.369481
O13	O	-0.041537	-1.186918	-0.116560
O14	O	0.458463	-0.686918	0.383440
Zn15	Zn	-0.054702	-1.056711	-0.123540
Zn16	Zn	0.445298	-0.556711	0.376460
Zn17	Zn	0.054601	-1.056767	-0.123540
Zn18	Zn	0.554601	-0.556767	0.376460
O19	O	-0.041526	-1.049738	-0.253740
O20	O	0.458474	-0.549738	0.246260
C21	C	-0.000042	-0.893214	-0.129895
C22	C	0.499958	-0.393214	0.370105
C23	C	-0.000037	-0.793917	-0.128024
C24	C	0.499963	-0.293917	0.371976
C25	C	-0.000054	-1.063094	0.039985
C26	C	0.499946	-0.563094	0.539985
C27	C	-0.000054	-1.061223	0.139282
C28	C	0.499946	-0.561223	0.639282
N29	N	-0.129298	-1.056679	-0.123539
N30	N	0.370702	-0.556679	0.376461
C31	C	-0.473925	-1.111059	-0.177869
C32	C	0.026075	-0.611059	0.322131
C33	C	-0.682803	-1.111088	-0.177869
C34	C	-0.182803	-0.611088	0.322131
O35	O	-0.709808	-1.157299	-0.224052
O36	O	-0.209808	-0.657299	0.275948
N37	N	-0.708925	-1.056788	-0.123531
N38	N	-0.208925	-0.556788	0.376469
C39	C	-0.682824	-1.002482	-0.069185
C40	C	-0.182824	-0.502482	0.430815
O41	O	-0.709835	-0.956304	-0.022961
O42	O	-0.209835	-0.456304	0.477039
C43	C	-0.473947	-1.002458	-0.069182
C44	C	0.026053	-0.502458	0.430818
C45	C	-0.447828	-1.056754	-0.123530
C46	C	0.052172	-0.556754	0.376470
C47	C	-0.447806	-1.165351	-0.232212
C48	C	0.052194	-0.665351	0.267788
C49	C	-0.395589	-1.165340	-0.232215
C50	C	0.104411	-0.665340	0.267785
C51	C	-0.369492	-1.111036	-0.177876
C52	C	0.130508	-0.611036	0.322124
C53	C	-0.395612	-1.056743	-0.123533
C54	C	0.104388	-0.556743	0.376467
C55	C	-0.447848	-0.948157	-0.014832
C56	C	0.052152	-0.448157	0.485168
C57	C	-0.395625	-0.948158	-0.014834
C58	C	0.104375	-0.448158	0.485166
C59	C	-0.369506	-1.002454	-0.069182
C60	C	0.130494	-0.502454	0.430818
C61	C	-0.317298	-1.002427	-0.069197
C62	C	0.182702	-0.502427	0.430803
N63	N	-0.291176	-1.056727	-0.123534
N64	N	0.208824	-0.556727	0.376466
C65	C	-0.317273	-1.111031	-0.177874
C66	C	0.182727	-0.611031	0.322126
C67	C	-0.792487	-1.002496	-0.069192
C68	C	-0.292487	-0.502496	0.430808
C69	C	-0.844706	-1.002501	-0.069194
C70	C	-0.344706	-0.502501	0.430806
C71	C	-0.844681	-1.111108	-0.177877
C72	C	-0.344681	-0.611108	0.322123
C73	C	-0.792461	-1.111098	-0.177879
C74	C	-0.292461	-0.611098	0.322121
C75	C	-0.766365	-1.056796	-0.123530
C76	C	-0.266365	-0.556796	0.376470
C77	C	-0.207615	-1.111003	-0.177877
C78	C	0.292385	-0.611003	0.322123
C79	C	-0.155394	-1.110983	-0.177878
C80	C	0.344606	-0.610983	0.322122
C81	C	-0.155424	-1.002380	-0.069193
C82	C	0.344576	-0.502380	0.430807
C83	C	-0.207640	-1.002395	-0.069195
C84	C	0.292360	-0.502395	0.430805
C85	C	-0.233735	-1.056713	-0.123540
C86	C	0.266265	-0.556713	0.376460
O87	O	-0.290261	-0.956248	-0.023030
O88	O	0.209739	-0.456248	0.476970
O89	O	-0.290253	-1.157217	-0.224077
O90	O	0.209747	-0.657217	0.275923
C91	C	-0.526141	-1.111070	-0.177866
C92	C	-0.026141	-0.611070	0.322134
C93	C	-0.552261	-1.056777	-0.123523
C94	C	-0.052261	-0.556777	0.376477
C95	C	-0.526164	-1.002473	-0.069184
C96	C	-0.026164	-0.502473	0.430816
C97	C	-0.604479	-1.056782	-0.123525
C98	C	-0.104479	-0.556782	0.376475
C99	C	-0.630576	-1.111086	-0.177865
C100	C	-0.130576	-0.611086	0.322135
C101	C	-0.604454	-1.165386	-0.232202
C102	C	-0.104454	-0.665386	0.267798
C103	C	-0.552238	-1.165374	-0.232206
C104	C	-0.052238	-0.665374	0.267794
C105	C	-0.552286	-0.948174	-0.014846
C106	C	-0.052286	-0.448174	0.485154
C107	C	-0.604502	-0.948189	-0.014848
C108	C	-0.104502	-0.448189	0.485152
C109	C	-0.630599	-1.002493	-0.069188
C110	C	-0.130599	-0.502493	0.430812
N111	N	0.129197	-1.056805	-0.123534
N112	N	0.629197	-0.556805	0.376466
C113	C	-0.000058	-1.220263	-0.117185
C114	C	0.499942	-0.720263	0.382815
C115	C	-0.000060	-1.319561	-0.119056
C116	C	0.499940	-0.819561	0.380944
C117	C	-0.000035	-0.736691	-0.208614
C118	C	0.499965	-0.236691	0.291386
C119	C	-0.000042	-0.643392	-0.206850
C120	C	0.499958	-0.143392	0.293150
C121	C	-0.000048	-0.607320	-0.124497
C122	C	0.499952	-0.107320	0.375503
C123	C	-0.000051	-0.664552	-0.043902
C124	C	0.499949	-0.164552	0.456098
C125	C	-0.000047	-0.757850	-0.045666
C126	C	0.499953	-0.257850	0.454334
C127	C	-0.000058	-0.470090	-0.040231
C128	C	0.499942	0.029910	0.459769
C129	C	-0.000061	-0.376786	-0.038466
C130	C	0.499939	0.123214	0.461534
C131	C	-0.000053	-0.355632	-0.201415
C132	C	0.499947	0.144368	0.298585
C133	C	-0.000049	-0.448930	-0.203179
C134	C	0.499951	0.051070	0.296821
C135	C	-0.000052	-0.506156	-0.122584
C136	C	0.499948	-0.006156	0.377416
C137	C	-0.000046	-1.050383	-0.287065
C138	C	0.499954	-0.550383	0.212935
C139	C	-0.000043	-1.052254	-0.386362
C140	C	0.499957	-0.552254	0.113638
C141	C	-0.000058	-1.141812	0.196507
C142	C	0.499942	-0.641812	0.696507
C143	C	-0.000053	-1.140049	0.289807
C144	C	0.499947	-0.640049	0.789807
C145	C	-0.000047	-1.057696	0.325879
C146	C	0.499953	-0.557696	0.825879
C147	C	-0.000041	-0.977101	0.268646
C148	C	0.499959	-0.477101	0.768646
C149	C	-0.000042	-0.978865	0.175349
C150	C	0.499958	-0.478865	0.675349
C151	C	-0.000039	-0.973430	0.463109
C152	C	0.499961	-0.473430	0.963109
C153	C	-0.000038	-0.971665	0.556413
C154	C	0.499962	-0.471665	1.056413
C155	C	-0.000049	-1.134614	0.577567
C156	C	0.499951	-0.634614	1.077567
C157	C	-0.000051	-1.136378	0.484269
C158	C	0.499949	-0.636378	0.984269
C159	C	-0.000046	-1.055782	0.427043
C160	C	0.499954	-0.555782	0.927043
H161	H	-0.134130	-1.155198	-0.222139
H162	H	0.365870	-0.655198	0.277861
Cl163	Cl	-0.000071	-1.245348	0.151169
Cl164	Cl	0.499929	-0.745348	0.651169
H165	H	-0.000040	-0.478296	-0.270239
H166	H	0.499960	0.021704	0.229761
H167	H	-0.000058	-1.205673	0.336396
H168	H	0.499942	-0.705673	0.836396
Cl169	Cl	-0.000062	-0.619204	0.059629
Cl170	Cl	0.499938	-0.119204	0.559629
H171	H	-0.771198	-1.155311	-0.222134
H172	H	-0.271198	-0.655311	0.277866
H173	H	-0.134166	-0.958164	-0.024954
H174	H	0.365834	-0.458164	0.475046
H175	H	-0.000054	-0.309033	-0.267039
H176	H	0.499946	0.190967	0.232961
H177	H	-0.000049	-0.804443	0.019958
H178	H	0.499951	-0.304443	0.519958
Cl179	Cl	-0.240412	-1.179288	-0.246198
Cl180	Cl	0.259588	-0.679288	0.253802
Cl181	Cl	-0.000085	-0.331439	0.065065
Cl182	Cl	0.499915	0.168561	0.565065
H183	H	-0.625712	-1.209598	-0.276452
H184	H	-0.125712	-0.709598	0.223548
Cl185	Cl	-0.000025	-0.782030	-0.312150
Cl186	Cl	0.499975	-0.282030	0.187850
H187	H	-0.000041	-0.904606	0.585780
H188	H	0.499959	-0.404606	1.085780
H189	H	-0.228908	-0.958171	-0.024952
H190	H	0.271092	-0.458171	0.475048
Cl191	Cl	-0.000032	-0.872107	0.391168
Cl192	Cl	0.499968	-0.372107	0.891168
H193	H	-0.000061	-0.516682	0.025399
H194	H	0.499939	-0.016682	0.525399
Cl195	Cl	-0.362761	-1.233588	-0.300556
Cl196	Cl	0.137239	-0.733588	0.199444
Cl197	Cl	-0.000056	-1.239909	0.438922
Cl198	Cl	0.499944	-0.739909	0.938922
Cl199	Cl	-0.000053	-1.235935	0.649508
Cl200	Cl	0.499947	-0.735935	1.149508
Cl201	Cl	-0.000027	-0.873570	0.313995
Cl202	Cl	0.499973	-0.373570	0.813995
Cl203	Cl	-0.759688	-0.934205	-0.000879
Cl204	Cl	-0.259688	-0.434205	0.499121
Cl205	Cl	-0.480604	-1.233628	-0.300535
Cl206	Cl	0.019396	-0.733628	0.199465
Cl207	Cl	-0.877498	-1.179379	-0.246186
Cl208	Cl	-0.377498	-0.679379	0.253814
H209	H	-0.531043	-0.903953	0.029406
H210	H	-0.031043	-0.403953	0.529406
Cl211	Cl	-0.877535	-0.934226	-0.000882
Cl212	Cl	-0.377535	-0.434226	0.499118
Cl213	Cl	-0.480670	-0.879894	0.053496
Cl214	Cl	0.019330	-0.379894	0.553496
Cl215	Cl	-0.000035	-0.877548	0.103407
Cl216	Cl	0.499965	-0.377548	0.603407
H217	H	-0.374380	-0.903938	0.029425
H218	H	0.125620	-0.403938	0.529425
H219	H	-0.530976	-1.209588	-0.276461
H220	H	-0.030976	-0.709588	0.223539
H221	H	-0.625764	-0.903965	0.029406
H222	H	-0.125764	-0.403965	0.529406
H223	H	-0.000041	-0.596802	-0.272474
H224	H	0.499959	-0.096802	0.227526
