data_functionalizedCrystal
_audit_creation_method	'MofGen! by Chris Wilmer'
_symmetry_space_group_name_H-M	'P1'
_symmetry_Int_Tables_number	1
_symmetry_cell_setting	triclinic
loop_
_symmetry_equiv_pos_as_xyz
  x,y,z
_cell_length_a	14.971486
_cell_length_b	12.837942
_cell_length_c	13.448316
_cell_angle_alpha	89.994234
_cell_angle_beta	89.998199
_cell_angle_gamma	89.221535
loop_
_atom_site_label
_atom_site_type_symbol
_atom_site_fract_x
_atom_site_fract_y
_atom_site_fract_z
O1	O	1.198338	0.135106	-0.082576
O2	O	0.939302	0.151285	-0.082603
O3	O	1.063076	-0.007715	-0.082584
O4	O	1.074564	0.294105	-0.082595
O5	O	1.063058	-0.007724	0.082800
O6	O	0.939284	0.151275	0.082781
O7	O	1.198320	0.135096	0.082808
Cu8	Cu	1.068800	0.143185	0.097895
Cu9	Cu	1.068822	0.143196	-0.097690
O10	O	1.074546	0.294095	0.082789
C11	C	0.905907	0.150556	0.000086
C12	C	0.806427	0.148388	0.000075
C13	C	0.757077	0.241796	0.000073
C14	C	0.663606	0.239752	0.000088
C15	C	0.619486	0.144300	0.000098
C16	C	0.668842	0.050885	0.000103
C17	C	0.762313	0.052930	0.000095
C18	C	0.474021	0.046630	0.000117
C19	C	0.380545	0.044585	0.000123
C20	C	0.375314	0.233453	0.000110
C21	C	0.468784	0.235497	0.000102
C22	C	0.518135	0.142082	0.000105
C23	C	1.059187	-0.046345	0.000107
C24	C	1.047612	-0.161436	0.000104
C25	C	1.186755	-0.402222	0.000098
C26	C	1.175884	-0.510362	0.000095
C27	C	1.015001	-0.485856	0.000089
C28	C	1.025872	-0.377717	0.000092
C29	C	1.111751	-0.335904	0.000098
C30	C	1.122621	-0.227763	0.000108
C31	C	0.961739	-0.203260	0.000094
C32	C	0.950868	-0.311399	0.000091
C33	C	1.231715	0.135824	0.000117
C34	C	1.331195	0.137993	0.000121
C35	C	1.078436	0.332726	0.000096
C36	C	1.090010	0.447817	0.000092
N37	N	1.068792	0.143176	0.235460
N38	N	1.068837	0.143197	-0.235255
C39	C	1.123620	0.072800	0.287508
C40	C	1.123626	0.072799	0.391612
C41	C	1.068807	0.143180	0.443664
C42	C	1.013972	0.213559	0.391608
C43	C	1.013963	0.213554	0.287507
C44	C	1.013998	0.213566	0.608588
C45	C	1.014008	0.213573	0.712697
C46	C	1.123661	0.072811	0.712693
C47	C	1.123651	0.072806	0.608592
C48	C	1.068818	0.143187	0.556543
H49	H	0.344625	-0.033141	0.000132
N50	N	1.256776	-0.581898	0.000100
H51	H	1.293840	-0.568428	-0.061205
H52	H	1.293762	-0.568409	0.061451
N53	N	0.954821	0.289454	0.231363
H54	H	0.920095	0.334042	0.280133
H55	H	0.992964	0.335353	0.188155
H56	H	1.168271	0.015493	0.433989
H57	H	0.514200	-0.029439	0.000121
N58	N	0.804657	0.344752	0.000070
H59	H	0.871359	0.331877	0.000064
H60	H	0.787172	0.385636	-0.061239
N61	N	0.610377	0.340499	0.000198
H62	H	0.652510	0.401277	0.000222
H63	H	0.571434	0.343845	-0.061070
H64	H	1.256681	-0.368178	0.000113
N65	N	0.621258	-0.052068	0.000104
H66	H	0.666707	-0.110931	0.000106
H67	H	0.582590	-0.057035	0.061415
N68	N	0.322126	0.334234	0.000130
H69	H	0.283217	0.337633	-0.061166
H70	H	0.283296	0.337547	0.061491
N71	N	0.954850	0.289469	0.447755
H72	H	0.971417	0.363069	0.429623
H73	H	0.890361	0.277316	0.429632
H74	H	1.168308	0.015504	0.755077
N75	N	1.215245	-0.182663	0.000114
H76	H	1.210753	-0.104094	0.000121
H77	H	1.248464	-0.206929	0.061425
N78	N	0.922380	-0.530964	0.000071
H79	H	0.926879	-0.609533	0.000066
H80	H	0.889147	-0.506727	0.061381
N81	N	0.516374	0.338447	0.000073
H82	H	0.470930	0.397315	0.000071
H83	H	0.555048	0.343410	0.061375
H84	H	0.880947	-0.345458	0.000082
H85	H	1.168264	0.015492	0.245134
N86	N	0.815545	-0.047817	0.000105
H87	H	0.773414	-0.108597	0.000112
H88	H	0.854441	-0.051083	-0.061205
N89	N	0.880835	-0.131731	0.000099
H90	H	0.900750	-0.056880	0.000104
H91	H	0.843811	-0.145272	-0.061213
N92	N	1.182782	-0.003096	0.552445
H93	H	1.217519	-0.047682	0.601212
H94	H	1.144625	-0.048995	0.509264
H95	H	0.969368	0.270883	0.755073
N96	N	0.954853	0.289471	0.552446
H97	H	0.920128	0.334060	0.601216
H98	H	0.993001	0.335367	0.509242
