data_functionalizedCrystal
_audit_creation_method	'MofGen! by Chris Wilmer'
_symmetry_space_group_name_H-M	'P1'
_symmetry_Int_Tables_number	1
_symmetry_cell_setting	triclinic
loop_
_symmetry_equiv_pos_as_xyz
  x,y,z
_cell_length_a	14.519731
_cell_length_b	13.596369
_cell_length_c	10.723024
_cell_angle_alpha	89.995193
_cell_angle_beta	95.921639
_cell_angle_gamma	90.005416
loop_
_atom_site_label
_atom_site_type_symbol
_atom_site_fract_x
_atom_site_fract_y
_atom_site_fract_z
O1	O	1.224692	0.081791	-0.163703
O2	O	1.724692	0.581791	0.336297
O3	O	0.956316	0.081792	-0.182938
O4	O	1.456316	0.581792	0.317062
O5	O	1.096695	0.081788	0.008313
O6	O	1.596695	0.581788	0.508313
O7	O	1.084314	0.081795	-0.354954
O8	O	1.584314	0.581795	0.145046
O9	O	1.096681	-0.081795	0.008323
O10	O	1.596681	0.418205	0.508323
O11	O	0.956302	-0.081791	-0.182928
O12	O	1.456302	0.418209	0.317072
O13	O	1.224678	-0.081792	-0.163693
O14	O	1.724678	0.418208	0.336307
Zn15	Zn	1.090488	-0.107764	-0.173309
Zn16	Zn	1.590488	0.392236	0.326691
Zn17	Zn	1.090507	0.107764	-0.173322
Zn18	Zn	1.590507	0.607764	0.326678
O19	O	1.084300	-0.081788	-0.354944
O20	O	1.584300	0.418212	0.145056
C21	C	0.921945	0.000001	-0.182032
C22	C	1.421945	0.500001	0.317968
C23	C	0.819551	0.000001	-0.179331
C24	C	1.319551	0.500001	0.320669
N25	N	1.090482	-0.254856	-0.173299
N26	N	1.590482	0.245144	0.326701
C27	C	0.736396	0.000005	-0.177137
C28	C	1.236396	0.500005	0.322863
C29	C	0.632073	0.000006	-0.174395
C30	C	1.132073	0.500006	0.325605
C31	C	0.548923	0.000005	-0.172218
C32	C	1.048923	0.500005	0.327782
C33	C	0.444594	0.000008	-0.169476
C34	C	0.944594	0.500008	0.330524
C35	C	1.090505	-0.656146	-0.173324
C36	C	1.590505	-0.156146	0.326676
C37	C	1.090496	-0.544495	-0.173321
C38	C	1.590496	-0.044495	0.326679
C39	C	1.090494	-0.455505	-0.173312
C40	C	1.590494	0.044495	0.326688
C41	C	1.090484	-0.343846	-0.173308
C42	C	1.590484	0.156154	0.326692
C43	C	1.259049	0.000001	-0.164599
C44	C	1.759049	0.500001	0.335401
C45	C	1.361443	0.000007	-0.167300
C46	C	1.861443	0.500007	0.332700
C47	C	1.095787	-0.000002	0.054809
C48	C	1.595787	0.499998	0.554809
C49	C	1.093091	0.000001	0.193338
C50	C	1.593091	0.500001	0.693338
N51	N	1.090520	0.254856	-0.173322
N52	N	1.590520	0.754856	0.326678
C53	C	1.085208	0.000005	-0.401440
C54	C	1.585208	0.500005	0.098560
C55	C	1.087904	0.000008	-0.539970
C56	C	1.587904	0.500008	-0.039970
C57	C	1.171640	0.000002	0.269047
C58	C	1.671640	0.500002	0.769047
C59	C	1.168855	0.000006	0.412225
C60	C	1.668855	0.500006	0.912225
H61	H	1.236099	0.000002	0.477280
H62	H	1.736099	0.500002	0.977280
O63	O	0.998818	0.000000	0.373882
O64	O	1.498818	0.500000	0.873882
H65	H	0.996012	0.066675	0.313877
H66	H	1.496012	0.566675	0.813877
O67	O	1.263456	0.000001	0.214518
O68	O	1.763456	0.500001	0.714518
H69	H	1.251234	-0.000008	0.110618
H70	H	1.751234	0.499992	0.610618
O71	O	1.001280	-0.000003	0.247880
O72	O	1.501280	0.499997	0.747880
H73	H	0.961504	0.066672	0.215927
H74	H	1.461504	0.566672	0.715927
