data_functionalizedCrystal
_audit_creation_method	'MofGen! by Chris Wilmer'
_symmetry_space_group_name_H-M	'P1'
_symmetry_Int_Tables_number	1
_symmetry_cell_setting	triclinic
loop_
_symmetry_equiv_pos_as_xyz
  x,y,z
_cell_length_a	34.408637
_cell_length_b	34.407814
_cell_length_c	34.404193
_cell_angle_alpha	60.004510
_cell_angle_beta	60.009006
_cell_angle_gamma	59.994604
loop_
_atom_site_label
_atom_site_type_symbol
_atom_site_fract_x
_atom_site_fract_y
_atom_site_fract_z
O1	O	0.053973	-0.567860	0.474801
O2	O	0.553973	-0.067860	0.974801
O3	O	0.020377	-0.442124	0.382567
O4	O	0.520377	0.057876	0.882567
O5	O	0.100004	-0.521670	0.382483
O6	O	0.600004	-0.021670	0.882483
O7	O	-0.025653	-0.488314	0.474886
O8	O	0.474347	0.011686	0.974886
O9	O	0.126426	-0.495253	0.408816
O10	O	0.626426	0.004747	0.908816
O11	O	0.046800	-0.415707	0.408900
O12	O	0.546800	0.084293	0.908900
O13	O	0.080396	-0.541443	0.501134
O14	O	0.580396	-0.041443	1.001134
Zn15	Zn	0.067793	-0.474381	0.459198
Zn16	Zn	0.567793	0.025619	0.959198
Zn17	Zn	0.032980	-0.509186	0.424503
Zn18	Zn	0.532980	-0.009186	0.924503
O19	O	0.000769	-0.461897	0.501219
O20	O	0.500769	0.038103	1.001219
N21	N	0.091552	-0.450631	0.482879
N22	N	0.591552	0.049369	0.982879
N23	N	0.009225	-0.532940	0.400823
N24	N	0.509225	-0.032940	0.900823
C25	C	0.142848	-0.268847	0.534081
C26	C	0.642848	0.231153	1.034081
C27	C	0.142979	-0.399386	0.664559
C28	C	0.642979	0.100614	1.164559
C29	C	0.142862	-0.399365	0.534081
C30	C	0.642862	0.100635	1.034081
C31	C	0.273409	-0.399338	0.533986
C32	C	0.773409	0.100662	1.033986
C33	C	0.157225	-0.311914	0.548422
C34	C	0.657225	0.188086	1.048422
C35	C	0.157300	-0.385019	0.621491
C36	C	0.657300	0.114981	1.121491
C37	C	0.230339	-0.384991	0.548370
C38	C	0.730339	0.115009	1.048370
C39	C	0.157235	-0.385007	0.548422
C40	C	0.657235	0.114993	1.048422
C41	C	0.124548	-0.214028	0.515827
C42	C	0.624548	0.285972	1.015827
C43	C	0.124571	-0.417639	0.515827
C44	C	0.624571	0.082361	1.015827
C45	C	0.175526	-0.366733	0.566676
C46	C	0.675526	0.133267	1.066676
C47	C	0.353121	-0.385580	0.491988
C48	C	0.853121	0.114420	0.991988
C49	C	0.402952	-0.402180	0.475348
C50	C	0.902952	0.097820	0.975348
C51	C	0.402981	-0.482812	0.506096
C52	C	0.902981	0.017188	1.006096
C53	C	0.353151	-0.466211	0.522737
C54	C	0.853151	0.033789	1.022737
C55	C	0.136544	-0.189099	0.466839
C56	C	0.636544	0.310901	0.966839
C57	C	0.119905	-0.139265	0.450247
C58	C	0.619905	0.360735	0.950247
C59	C	0.079280	-0.139291	0.531632
C60	C	0.579280	0.360709	1.031632
C61	C	0.095918	-0.189125	0.548224
C62	C	0.595918	0.310875	1.048224
C63	C	0.075577	-0.405615	0.527900
C64	C	0.575577	0.094385	1.027900
C65	C	0.058953	-0.422228	0.511301
C66	C	0.558953	0.077772	1.011301
C67	C	0.140315	-0.462889	0.470566
C68	C	0.640315	0.037111	0.970566
C69	C	0.156941	-0.446276	0.487159
C70	C	0.656941	0.053724	0.987159
C71	C	0.075772	-0.405653	0.744326
C72	C	0.575772	0.094347	1.244326
C73	C	0.059206	-0.422280	0.794159
C74	C	0.559206	0.077720	1.294159
C75	C	0.140607	-0.462951	0.794094
C76	C	0.640607	0.037049	1.294094
C77	C	0.157172	-0.446325	0.744260
C78	C	0.657172	0.053675	1.244260
C79	C	0.124753	-0.417674	0.719377
C80	C	0.624753	0.082326	1.219377
C81	C	0.328223	-0.417595	0.515681
C82	C	0.828223	0.082405	1.015681
C83	C	-0.172390	-0.583988	0.349141
C84	C	0.327610	-0.083988	0.849141
C85	C	-0.041751	-0.584138	0.218783
C86	C	0.458249	-0.084138	0.718783
C87	C	-0.041941	-0.584130	0.349402
C88	C	0.458059	-0.084130	0.849402
C89	C	-0.041957	-0.714607	0.349338
C90	C	0.458043	-0.214607	0.849338
C91	C	-0.129326	-0.598388	0.334853
C92	C	0.370674	-0.098388	0.834853
C93	C	-0.056165	-0.598473	0.261852
C94	C	0.443835	-0.098473	0.761852
C95	C	-0.056282	-0.671535	0.334962
C96	C	0.443718	-0.171535	0.834962
C97	C	-0.056272	-0.598469	0.334999
C98	C	0.443728	-0.098469	0.834999
C99	C	-0.227205	-0.565659	0.367327
C100	C	0.272795	-0.065659	0.867327
C101	C	-0.023703	-0.565882	0.367734
C102	C	0.476297	-0.065882	0.867734
C103	C	-0.074511	-0.616717	0.316667
C104	C	0.425489	-0.116717	0.816667
C105	C	-0.055754	-0.794298	0.391257
C106	C	0.444246	-0.294298	0.891257
C107	C	-0.039181	-0.844132	0.407888
C108	C	0.460819	-0.344132	0.907888
C109	C	0.041447	-0.844215	0.377269
C110	C	0.541447	-0.344215	0.877269
C111	C	0.024873	-0.794381	0.360637
C112	C	0.524873	-0.294381	0.860637
C113	C	-0.252183	-0.577666	0.416302
C114	C	0.247817	-0.077666	0.916302
C115	C	-0.302014	-0.561001	0.432833
C116	C	0.197986	-0.061001	0.932833
C117	C	-0.301886	-0.520329	0.351410
C118	C	0.198114	-0.020329	0.851410
C119	C	-0.252055	-0.536994	0.334880
C120	C	0.247945	-0.036994	0.834880
C121	C	-0.035709	-0.516892	0.355682
C122	C	0.464291	-0.016892	0.855682
C123	C	-0.019129	-0.500308	0.372353
C124	C	0.480871	-0.000308	0.872353
C125	C	0.021465	-0.581700	0.413115
C126	C	0.521465	-0.081700	0.913115
C127	C	0.004884	-0.598286	0.396450
C128	C	0.504884	-0.098286	0.896450
C129	C	-0.035389	-0.516907	0.139026
C130	C	0.464611	-0.016907	0.639026
C131	C	-0.018707	-0.500324	0.089193
C132	C	0.481293	-0.000324	0.589193
C133	C	0.021949	-0.581721	0.089240
C134	C	0.521949	-0.081721	0.589240
C135	C	0.005268	-0.598303	0.139074
C136	C	0.505268	-0.098303	0.639074
C137	C	-0.023402	-0.565894	0.163965
C138	C	0.476598	-0.065894	0.663965
C139	C	-0.023728	-0.769425	0.367633
C140	C	0.476272	-0.269425	0.867633
N141	N	0.427173	-0.450553	0.482630
N142	N	0.927173	0.049447	0.982630
O143	O	0.589997	-0.458460	0.365361
O144	O	1.089997	0.041540	0.865361
O145	O	0.590185	-0.550997	0.490963
O146	O	1.090185	-0.050997	0.990963
O147	O	0.590104	-0.550786	0.411309
O148	O	1.090104	-0.050786	0.911309
O149	O	0.590077	-0.458671	0.445016
O150	O	1.090077	0.041329	0.945016
O151	O	0.510940	-0.524462	0.437777
O152	O	1.010940	-0.024462	0.937777
O153	O	0.511020	-0.524674	0.517432
O154	O	1.011020	-0.024674	1.017432
O155	O	0.510832	-0.432136	0.391830
O156	O	1.010832	0.067864	0.891830
Zn157	Zn	0.498357	-0.474225	0.458833
Zn158	Zn	0.998357	0.025775	0.958833
Zn159	Zn	0.602660	-0.508908	0.423960
Zn160	Zn	1.102660	-0.008908	0.923960
O161	O	0.510913	-0.432348	0.471484
O162	O	1.010913	0.067652	0.971484
N163	N	0.673844	-0.532580	0.400158
N164	N	1.173844	-0.032580	0.900158
N165	N	0.091520	-0.115070	0.482873
N166	N	0.591520	0.384930	0.982873
O167	O	-0.025663	0.047841	0.474857
O168	O	0.474337	0.547841	0.974857
O169	O	0.099940	0.047877	0.382299
O170	O	0.599940	0.547877	0.882299
O171	O	0.020247	0.047844	0.382560
O172	O	0.520247	0.547844	0.882560
O173	O	0.054030	0.047874	0.474596
O174	O	0.554030	0.547874	0.974596
O175	O	0.046674	-0.031326	0.408942
O176	O	0.546674	0.468674	0.908942
O177	O	0.126367	-0.031293	0.408680
O178	O	0.626367	0.468707	0.908680
O179	O	0.000764	-0.031329	0.501238
O180	O	0.500764	0.468671	1.001238
Zn181	Zn	0.067761	-0.043881	0.459148
Zn182	Zn	0.567761	0.456119	0.959148
Zn183	Zn	0.032943	0.060429	0.424389
Zn184	Zn	0.532943	0.560429	0.924389
O185	O	0.080457	-0.031296	0.500977
O186	O	0.580457	0.468704	1.000977
N187	N	0.009178	0.131618	0.400665
N188	N	0.509178	0.631618	0.900665
N189	N	0.091852	-0.450680	0.818332
N190	N	0.591852	0.049320	1.318332
O191	O	0.083862	-0.567845	0.981235
O192	O	0.583862	-0.067845	1.481235
O193	O	-0.008657	-0.442198	0.981276
O194	O	0.491343	0.057802	1.481276
O195	O	-0.008441	-0.521875	0.981252
O196	O	0.491559	-0.021875	1.481252
O197	O	0.083646	-0.488168	0.981258
O198	O	0.583646	0.011832	1.481258
O199	O	0.017919	-0.495468	0.902085
O200	O	0.517919	0.004532	1.402085
O201	O	0.017703	-0.415791	0.902109
O202	O	0.517703	0.084209	1.402109
O203	O	0.110222	-0.541438	0.902067
O204	O	0.610222	-0.041438	1.402067
Zn205	Zn	0.068148	-0.474422	0.889518
Zn206	Zn	0.568148	0.025578	1.389518
Zn207	Zn	0.033417	-0.509214	0.993825
Zn208	Zn	0.533417	-0.009214	1.493825
O209	O	0.110006	-0.461761	0.902091
O210	O	0.610006	0.038239	1.402091
N211	N	0.009712	-0.532961	1.065011
N212	N	0.509712	-0.032961	1.565011
C213	C	0.030439	-0.413071	0.383027
C214	C	0.530439	0.086929	0.883027
C215	C	0.129046	-0.511580	0.382922
C216	C	0.629046	-0.011580	0.882922
C217	C	0.070334	-0.570496	0.500675
C218	C	0.570334	-0.070496	1.000675
C219	C	-0.028274	-0.471987	0.500780
C220	C	0.471726	0.028013	1.000780
C221	C	0.550625	-0.550579	0.520021
C222	C	1.050625	-0.050579	1.020021
C223	C	0.550527	-0.550317	0.421379
C224	C	1.050527	-0.050317	0.921379
C225	C	0.550389	-0.432554	0.362773
C226	C	1.050389	0.067446	0.862773
C227	C	0.550491	-0.432816	0.461414
C228	C	1.050491	0.067184	0.961414
C229	C	0.128944	0.008394	0.382712
C230	C	0.628944	0.508394	0.882712
C231	C	0.030287	0.008256	0.383068
C232	C	0.530287	0.508256	0.883068
C233	C	-0.028273	0.008252	0.500793
C234	C	0.471727	0.508252	1.000793
C235	C	0.070417	0.008292	0.500470
C236	C	0.570417	0.508292	1.000470
C237	C	-0.008218	-0.413165	0.941698
C238	C	0.491782	0.086835	1.441698
C239	C	-0.007945	-0.511830	0.941653
C240	C	0.492055	-0.011830	1.441653
C241	C	0.109783	-0.570471	0.941646
C242	C	0.609783	-0.070471	1.441646
C243	C	0.109516	-0.471800	0.941673
C244	C	0.609516	0.028200	1.441673
H245	H	0.019320	-0.412483	0.814467
H246	H	0.519320	0.087517	1.314467
H247	H	0.550674	-0.579628	0.556096
H248	H	1.050674	-0.079628	1.056096
H249	H	0.077514	-0.606615	0.529644
H250	H	0.577514	-0.106615	1.029644
H251	H	-0.064365	-0.464880	0.529794
H252	H	0.435635	0.035120	1.029794
H253	H	0.550540	-0.579254	0.414165
H254	H	1.050540	-0.079254	0.914165
C255	C	0.103427	-0.265526	0.609798
C256	C	0.603427	0.234474	1.109798
C257	C	0.082766	-0.216526	0.602073
C258	C	0.582766	0.283474	1.102073
H259	H	0.095313	-0.282442	0.643043
H260	H	0.595313	0.217558	1.143043
H261	H	0.137039	-0.273664	0.595755
H262	H	0.637039	0.226336	1.095755
H263	H	0.091934	-0.273705	0.595841
H264	H	0.591934	0.226295	1.095841
H265	H	0.094261	-0.208347	0.616027
H266	H	0.594261	0.291653	1.116027
H267	H	0.049147	-0.208385	0.616122
H268	H	0.549147	0.291615	1.116122
H269	H	0.164941	0.008624	0.353583
H270	H	0.664941	0.508624	0.853583
H271	H	0.023260	-0.376951	0.354059
H272	H	0.523260	0.123049	0.854059
C273	C	0.180085	-0.265477	0.456136
C274	C	0.680085	0.234523	0.956136
C275	C	0.168012	-0.216472	0.431227
C276	C	0.668012	0.283528	0.931227
H277	H	0.199515	-0.282376	0.434150
H278	H	0.699515	0.217624	0.934150
H279	H	0.151922	-0.273654	0.475590
H280	H	0.651922	0.226346	0.975590
H281	H	0.197014	-0.273637	0.475555
H282	H	0.697014	0.226363	0.975555
H283	H	0.151080	-0.208311	0.411811
H284	H	0.651080	0.291689	0.911811
H285	H	0.196180	-0.208292	0.411765
H286	H	0.696180	0.291708	0.911765
H287	H	0.165136	-0.518689	0.353905
H288	H	0.665136	-0.018689	0.853905
C289	C	0.222414	-0.501415	0.431966
C290	C	0.722414	-0.001415	0.931966
C291	C	0.175900	-0.494369	0.439055
C292	C	0.675900	0.005631	0.939055
H293	H	0.244380	-0.520846	0.412511
H294	H	0.744380	-0.020846	0.912511
H295	H	0.227228	-0.516636	0.461821
H296	H	0.727228	-0.016636	0.961821
H297	H	0.227182	-0.471539	0.416752
H298	H	0.727182	0.028461	0.916752
H299	H	0.171131	-0.524245	0.454273
H300	H	0.671131	-0.024245	0.954273
H301	H	0.171084	-0.479149	0.409195
H302	H	0.671084	0.020851	0.909195
H303	H	0.550329	-0.403500	0.326702
H304	H	1.050329	0.096500	0.826702
C305	C	0.297157	-0.499534	0.594798
C306	C	0.797157	0.000466	1.094798
C307	C	0.325780	-0.501401	0.548774
C308	C	0.825780	-0.001401	1.048774
H309	H	0.280261	-0.521261	0.610870
H310	H	0.780261	-0.021261	1.110870
H311	H	0.275182	-0.468208	0.592978
H312	H	0.775182	0.031792	1.092978
H313	H	0.316619	-0.507876	0.611761
H314	H	0.816619	-0.007876	1.111761
H315	H	0.306318	-0.493056	0.531810
H316	H	0.806318	0.006944	1.031810
H317	H	0.347758	-0.532734	0.550592
H318	H	0.847758	-0.032734	1.050592
C319	C	-0.059748	-0.489154	0.900903
C320	C	0.440252	0.010846	1.400903
C321	C	-0.046987	-0.521544	0.941606
C322	C	0.453013	-0.021544	1.441606
H323	H	-0.083853	-0.495150	0.900877
H324	H	0.416147	0.004850	1.400877
H325	H	-0.032672	-0.492703	0.873306
H326	H	0.467328	0.007297	1.373306
H327	H	-0.071380	-0.457641	0.900926
H328	H	0.428620	0.042359	1.400926
H329	H	-0.035352	-0.553057	0.941580
H330	H	0.464648	-0.053057	1.441580
H331	H	-0.074068	-0.517999	0.969210
H332	H	0.425932	-0.017999	1.469210
H333	H	-0.064344	0.008241	0.529850
H334	H	0.435656	0.508241	1.029850
C335	C	0.030406	-0.610234	0.488694
C336	C	0.530406	-0.110234	0.988694
C337	C	0.052893	-0.617322	0.444677
C338	C	0.552893	-0.117322	0.944677
H339	H	0.049809	-0.632222	0.508177
H340	H	0.549809	-0.132222	1.008177
H341	H	0.000535	-0.614991	0.503857
H342	H	0.500535	-0.114991	1.003857
H343	H	0.025630	-0.578682	0.483900
H344	H	0.525630	-0.078682	0.983900
H345	H	0.057666	-0.648872	0.449470
H346	H	0.557666	-0.148872	0.949470
H347	H	0.082772	-0.612568	0.429511
H348	H	0.582772	-0.112568	0.929511
C349	C	0.025716	0.048942	0.304132
C350	C	0.525716	0.548942	0.804132
C351	C	0.020517	0.008242	0.344037
C352	C	0.520517	0.508242	0.844037
H353	H	0.019680	0.048933	0.280040
H354	H	0.519680	0.548933	0.780040
H355	H	0.057230	0.048950	0.292483
H356	H	0.557230	0.548950	0.792483
H357	H	0.003756	0.076547	0.312809
H358	H	0.503756	0.576547	0.812809
H359	H	0.042479	-0.019362	0.335360
H360	H	0.542479	0.480638	0.835360
H361	H	-0.011001	0.008230	0.355688
H362	H	0.488999	0.508230	0.855688
C363	C	0.132051	-0.648660	0.941619
C364	C	0.632051	-0.148660	1.441619
C365	C	0.148998	-0.619183	0.941628
C366	C	0.648998	-0.119183	1.441628
H367	H	0.156261	-0.678733	0.941611
H368	H	0.656261	-0.178733	1.441611
H369	H	0.123395	-0.634413	0.914016
H370	H	0.623395	-0.134413	1.414016
H371	H	0.105009	-0.652830	0.969231
H372	H	0.605009	-0.152830	1.469231
H373	H	0.176039	-0.615010	0.914014
H374	H	0.676039	-0.115010	1.414014
H375	H	0.157661	-0.633433	0.969234
H376	H	0.657661	-0.133433	1.469234
H377	H	0.077653	0.008301	0.529384
H378	H	0.577653	0.508301	1.029384
C379	C	0.591201	-0.409942	0.482240
C380	C	1.091201	0.090058	0.982240
C381	C	0.550478	-0.393752	0.471149
C382	C	1.050478	0.106248	0.971149
H383	H	0.591191	-0.385826	0.488253
H384	H	1.091191	0.114174	0.988253
H385	H	0.618783	-0.417322	0.456255
H386	H	1.118783	0.082678	0.956255
H387	H	0.591242	-0.437656	0.509742
H388	H	1.091242	0.062344	1.009742
H389	H	0.550439	-0.366040	0.443645
H390	H	1.050439	0.133960	0.943645
H391	H	0.522889	-0.386366	0.497137
H392	H	1.022889	0.113634	0.997137
H393	H	-0.037264	-0.377079	0.941710
H394	H	0.462736	0.122921	1.441710
C395	C	0.159468	-0.423787	0.900973
C396	C	0.659468	0.076213	1.400973
C397	C	0.148576	-0.462066	0.941665
C398	C	0.648576	0.037934	1.441665
H399	H	0.183583	-0.417781	0.900968
H400	H	0.683583	0.082219	1.400968
H401	H	0.131763	-0.396280	0.900989
H402	H	0.631763	0.103720	1.400989
H403	H	0.170452	-0.431345	0.873366
H404	H	0.670452	0.068655	1.373366
H405	H	0.137588	-0.454507	0.969273
H406	H	0.637588	0.045493	1.469273
H407	H	0.176286	-0.489580	0.941654
H408	H	0.676286	0.010420	1.441654
C409	C	0.011490	-0.399096	0.729041
C410	C	0.511490	0.100904	1.229041
C411	C	0.040135	-0.374160	0.716977
C412	C	0.540135	0.125840	1.216977
H413	H	-0.010508	-0.379655	0.712154
H414	H	0.489492	0.120345	1.212154
H415	H	-0.005382	-0.407274	0.762286
H416	H	0.494618	0.092726	1.262286
H417	H	0.030934	-0.427267	0.720858
H418	H	0.530934	0.072733	1.220858
H419	H	0.020691	-0.345990	0.725164
H420	H	0.520691	0.154010	1.225164
H421	H	0.057008	-0.365975	0.683725
H422	H	0.557008	0.134025	1.183725
C423	C	0.204888	-0.535965	0.809385
C424	C	0.704888	-0.035965	1.309385
C425	C	0.176238	-0.494441	0.821450
C426	C	0.676238	0.005559	1.321450
H427	H	0.226882	-0.555410	0.826277
H428	H	0.726882	-0.055410	1.326277
H429	H	0.221765	-0.527781	0.776142
H430	H	0.721765	-0.027781	1.276142
H431	H	0.185446	-0.552870	0.817563
H432	H	0.685446	-0.052870	1.317563
H433	H	0.195680	-0.477534	0.813269
H434	H	0.695680	0.022466	1.313269
H435	H	0.159360	-0.502624	0.854701
H436	H	0.659360	-0.002624	1.354701
C437	C	0.218713	-0.438902	0.667843
C438	C	0.718713	0.061098	1.167843
C439	C	0.211016	-0.459541	0.716837
C440	C	0.711016	0.040459	1.216837
H441	H	0.251954	-0.447064	0.650915
H442	H	0.751954	0.052936	1.150915
H443	H	0.204706	-0.405283	0.659692
H444	H	0.704706	0.094717	1.159692
H445	H	0.204706	-0.450368	0.659695
H446	H	0.704706	0.049632	1.159695
H447	H	0.225021	-0.448072	0.724986
H448	H	0.725021	0.051928	1.224986
H449	H	0.225029	-0.493166	0.724992
H450	H	0.725029	0.006834	1.224992
C451	C	0.011316	-0.332600	0.534500
C452	C	0.511316	0.167400	1.034500
C453	C	0.039995	-0.374132	0.559405
C454	C	0.539995	0.125868	1.059405
H455	H	-0.010649	-0.313163	0.553950
H456	H	0.489351	0.186837	1.053950
H457	H	-0.005593	-0.340776	0.526346
H458	H	0.494407	0.159224	1.026346
H459	H	0.030742	-0.315692	0.506318
H460	H	0.530742	0.184308	1.006318
H461	H	0.020569	-0.391043	0.587586
H462	H	0.520569	0.108957	1.087586
H463	H	0.056905	-0.365957	0.567566
H464	H	0.556905	0.134043	1.067566
C465	C	-0.006905	-0.450567	0.549480
C466	C	0.493095	0.049433	1.049480
C467	C	0.005098	-0.409016	0.524567
C468	C	0.505098	0.090984	1.024567
H469	H	-0.040152	-0.442410	0.557666
H470	H	0.459848	0.057590	1.057666
H471	H	0.001290	-0.467474	0.577641
H472	H	0.501290	0.032526	1.077641
H473	H	0.010000	-0.469993	0.530024
H474	H	0.510000	0.030007	1.030024
H475	H	-0.011805	-0.389592	0.544024
H476	H	0.488195	0.110408	1.044024
H477	H	-0.003103	-0.392102	0.496402
H478	H	0.496897	0.107898	0.996402
C479	C	0.218555	-0.438862	0.494511
C480	C	0.718555	0.061138	0.994511
C481	C	0.210797	-0.459491	0.473891
C482	C	0.710797	0.040509	0.973891
H483	H	0.251803	-0.447020	0.486316
H484	H	0.751803	0.052980	0.986316
H485	H	0.204589	-0.450335	0.528131
H486	H	0.704589	0.049665	1.028131
H487	H	0.204539	-0.405239	0.483062
H488	H	0.704539	0.094761	0.983062
H489	H	0.224810	-0.493115	0.485342
H490	H	0.724810	0.006885	0.985342
H491	H	0.224769	-0.448021	0.440263
H492	H	0.724769	0.051979	0.940263
C493	C	0.398005	-0.560847	0.538161
C494	C	0.898005	-0.060847	1.038161
C495	C	0.430383	-0.536250	0.513849
C496	C	0.930383	-0.036250	1.013849
H497	H	0.414925	-0.593839	0.542949
H498	H	0.914925	-0.093839	1.042949
H499	H	0.378549	-0.549162	0.519921
H500	H	0.878549	-0.049162	1.019921
H501	H	0.378589	-0.556228	0.568106
H502	H	0.878589	-0.056228	1.068106
H503	H	0.449797	-0.540867	0.483903
H504	H	0.949797	-0.040867	0.983903
H505	H	0.449847	-0.547939	0.532090
H506	H	0.949847	-0.047939	1.032090
H507	H	-0.028474	-0.460433	0.068892
H508	H	0.471526	0.039567	0.568892
C509	C	0.397922	-0.320809	0.446618
C510	C	0.897922	0.179191	0.946618
C511	C	0.430324	-0.366988	0.449299
C512	C	0.930324	0.133012	0.949299
H513	H	0.414822	-0.299084	0.430531
H514	H	0.914822	0.200916	0.930531
H515	H	0.378511	-0.319542	0.477837
H516	H	0.878511	0.180458	0.977837
H517	H	0.378463	-0.312481	0.429658
H518	H	0.878463	0.187519	0.929658
H519	H	0.449781	-0.375318	0.466263
H520	H	0.949781	0.124682	0.966263
H521	H	0.449744	-0.368256	0.418074
H522	H	0.949744	0.131744	0.918074
H523	H	0.129672	-0.118967	0.410356
H524	H	0.629672	0.381033	0.910356
C525	C	0.297038	-0.314921	0.457343
C526	C	0.797038	0.185079	0.957343
C527	C	0.325718	-0.332139	0.484233
C528	C	0.825718	0.167861	0.984233
H529	H	0.280125	-0.281928	0.452552
H530	H	0.780125	0.218072	0.952552
H531	H	0.275078	-0.331609	0.473836
H532	H	0.775078	0.168391	0.973836
H533	H	0.316464	-0.319542	0.427400
H534	H	0.816464	0.180458	0.927400
H535	H	0.306292	-0.327521	0.514178
H536	H	0.806292	0.172479	1.014178
H537	H	0.347681	-0.315446	0.467741
H538	H	0.847681	0.184554	0.967741
H539	H	0.055974	-0.119015	0.558014
H540	H	0.555974	0.380985	1.058014
H541	H	0.045284	-0.608113	0.068976
H542	H	0.545284	-0.108113	0.568976
C543	C	-0.041973	-0.452663	0.154391
C544	C	0.458027	0.047337	0.654391
C545	C	-0.066907	-0.481280	0.166383
C546	C	0.433093	0.018720	0.666383
H547	H	-0.061430	-0.430671	0.171283
H548	H	0.438570	0.069329	0.671283
H549	H	-0.033756	-0.435781	0.121147
H550	H	0.466244	0.064219	0.621147
H551	H	-0.013826	-0.472130	0.162618
H552	H	0.486174	0.027870	0.662618
H553	H	-0.095052	-0.461813	0.158153
H554	H	0.404948	0.038187	0.658153
H555	H	-0.075130	-0.498163	0.199634
H556	H	0.424870	0.001837	0.699634
C557	C	0.001564	-0.672748	0.154391
C558	C	0.501564	-0.172748	0.654391
C559	C	0.018441	-0.652154	0.166488
C560	C	0.518441	-0.152154	0.666488
H561	H	0.009693	-0.705992	0.171317
H562	H	0.509693	-0.205992	0.671317
H563	H	0.015602	-0.667510	0.121155
H564	H	0.515602	-0.167510	0.621155
H565	H	-0.032053	-0.658712	0.162504
H566	H	0.467947	-0.158712	0.662504
H567	H	0.052059	-0.666188	0.158372
H568	H	0.552059	-0.166188	0.658372
H569	H	0.004404	-0.657395	0.199732
H570	H	0.504404	-0.157395	0.699732
C571	C	-0.108682	-0.452589	0.349011
C572	C	0.391318	0.047411	0.849011
C573	C	-0.067139	-0.481271	0.324126
C574	C	0.432861	0.018729	0.824126
H575	H	-0.128087	-0.430599	0.329530
H576	H	0.371913	0.069401	0.829530
H577	H	-0.100522	-0.435705	0.357211
H578	H	0.399478	0.064295	0.857211
H579	H	-0.125616	-0.472012	0.377166
H580	H	0.374384	0.027988	0.877166
H581	H	-0.050203	-0.461847	0.295972
H582	H	0.449797	0.038153	0.795972
H583	H	-0.075299	-0.498156	0.315919
H584	H	0.424701	0.001844	0.815919
C585	C	-0.015327	-0.425874	0.309543
C586	C	0.484673	0.074126	0.809543
C587	C	-0.032308	-0.446458	0.359102
C588	C	0.467692	0.053542	0.859102
H589	H	-0.023457	-0.392631	0.301363
H590	H	0.476543	0.107369	0.801363
H591	H	-0.029299	-0.431105	0.295509
H592	H	0.470701	0.068895	0.795509
H593	H	0.018293	-0.439922	0.298150
H594	H	0.518293	0.060078	0.798150
H595	H	-0.065929	-0.432412	0.370496
H596	H	0.434071	0.067588	0.870496
H597	H	-0.018338	-0.441223	0.373142
H598	H	0.481662	0.058777	0.873142
H599	H	0.050956	-0.774133	0.341399
H600	H	0.550956	-0.274133	0.841399
C601	C	0.046677	-0.677077	0.438416
C602	C	0.546677	-0.177077	0.938416
C603	C	0.018083	-0.652138	0.409693
C604	C	0.518083	-0.152138	0.909693
H605	H	0.054828	-0.710322	0.446588
H606	H	0.554828	-0.210322	0.946588
H607	H	0.029736	-0.668890	0.466582
H608	H	0.529736	-0.168890	0.966582
H609	H	0.074864	-0.668936	0.421552
H610	H	0.574864	-0.168936	0.921552
H611	H	-0.010106	-0.660276	0.426557
H612	H	0.489894	-0.160276	0.926557
H613	H	0.035024	-0.660328	0.381522
H614	H	0.535024	-0.160328	0.881522
H615	H	0.081021	-0.864532	0.371574
H616	H	0.581021	-0.364532	0.871574
H617	H	-0.065262	-0.864385	0.427124
H618	H	0.434738	-0.364385	0.927124
C619	C	-0.124313	-0.778883	0.376663
C620	C	0.375687	-0.278883	0.876663
C621	C	-0.109176	-0.766856	0.398928
C622	C	0.390824	-0.266856	0.898928
H623	H	-0.157291	-0.761938	0.381392
H624	H	0.342709	-0.261938	0.881392
H625	H	-0.119033	-0.812117	0.389955
H626	H	0.380967	-0.312117	0.889955
H627	H	-0.106885	-0.770742	0.343539
H628	H	0.393115	-0.270742	0.843539
H629	H	-0.126602	-0.775000	0.432052
H630	H	0.373398	-0.275000	0.932052
H631	H	-0.114460	-0.733615	0.385637
H632	H	0.385540	-0.233615	0.885637
C633	C	-0.257318	-0.616185	0.498449
C634	C	0.242682	-0.116185	0.998449
C635	C	-0.224870	-0.609172	0.451970
C636	C	0.275130	-0.109172	0.951970
H637	H	-0.240454	-0.635634	0.520467
H638	H	0.259546	-0.135634	1.020467
H639	H	-0.276755	-0.631374	0.503196
H640	H	0.223245	-0.131374	1.003196
H641	H	-0.276747	-0.586301	0.503209
H642	H	0.223253	-0.086301	1.003209
H643	H	-0.205443	-0.639056	0.447209
H644	H	0.294557	-0.139056	0.947209
H645	H	-0.205425	-0.593984	0.447221
H646	H	0.294575	-0.093984	0.947221
H647	H	-0.322352	-0.570775	0.472713
H648	H	0.177648	-0.070775	0.972713
H649	H	-0.231721	-0.527215	0.295000
H650	H	0.268279	-0.027215	0.795000
C651	C	-0.296754	-0.481810	0.269264
C652	C	0.203246	0.018190	0.769264
C653	C	-0.329203	-0.488823	0.315744
C654	C	0.170797	0.011177	0.815744
H655	H	-0.313619	-0.462356	0.247246
H656	H	0.186381	0.037644	0.747246
H657	H	-0.277328	-0.511688	0.264503
H658	H	0.222672	-0.011688	0.764503
H659	H	-0.277314	-0.466621	0.264520
H660	H	0.222686	0.033379	0.764520
H661	H	-0.348641	-0.504015	0.320489
H662	H	0.151359	-0.004015	0.820489
H663	H	-0.348637	-0.458938	0.320507
H664	H	0.151363	0.041062	0.820507
