data_functionalizedCrystal
_audit_creation_method	'MofGen! by Chris Wilmer'
_symmetry_space_group_name_H-M	'P1'
_symmetry_Int_Tables_number	1
_symmetry_cell_setting	triclinic
loop_
_symmetry_equiv_pos_as_xyz
  x,y,z
_cell_length_a	9.065218
_cell_length_b	19.188930
_cell_length_c	7.540329
_cell_angle_alpha	89.991297
_cell_angle_beta	89.996962
_cell_angle_gamma	84.080333
loop_
_atom_site_label
_atom_site_type_symbol
_atom_site_fract_x
_atom_site_fract_y
_atom_site_fract_z
O1	O	1.956847	0.102369	-0.147510
O2	O	1.527271	0.110766	-0.147515
O3	O	1.754456	0.005009	-0.147478
O4	O	1.729662	0.208127	-0.147547
O5	O	1.754442	0.005007	0.147487
O6	O	1.527257	0.110765	0.147450
O7	O	1.956833	0.102368	0.147455
Cu8	Cu	1.742044	0.106566	0.174385
Cu9	Cu	1.742060	0.106568	-0.174445
O10	O	1.729649	0.208126	0.147418
C11	C	1.472305	0.109959	-0.000032
C12	C	1.308546	0.107546	-0.000033
C13	C	1.753646	-0.021009	0.000010
C14	C	1.751236	-0.098533	0.000025
C15	C	1.884540	-0.142421	0.000035
C16	C	1.882276	-0.215262	0.000006
C17	C	1.746699	-0.244212	0.000004
C18	C	1.613377	-0.200314	-0.000016
C19	C	1.615646	-0.127474	-0.000006
N20	N	1.643063	-0.353023	0.100385
N21	N	1.640917	-0.422218	0.100379
C22	C	1.739858	-0.463674	-0.000032
N23	N	1.841047	-0.433322	-0.100414
N24	N	1.843197	-0.364120	-0.100400
C25	C	1.744225	-0.323194	-0.000009
C26	C	1.870716	-0.586546	-0.000056
C27	C	1.868446	-0.659388	-0.000095
C28	C	1.599544	-0.644438	-0.000100
C29	C	1.601818	-0.571598	-0.000078
C30	C	1.737408	-0.542656	-0.000048
C31	C	2.011799	0.103176	-0.000032
C32	C	2.175558	0.105589	-0.000043
C33	C	1.730458	0.234144	-0.000074
C34	C	1.732869	0.311667	-0.000101
N35	N	1.742044	0.106565	0.419734
N36	N	1.742072	0.106564	-0.419794
H37	H	1.994948	-0.118862	0.000054
H38	H	1.981122	-0.562980	-0.000039
C39	C	1.455180	-0.523314	-0.000064
C40	C	1.419763	-0.471195	0.153110
C41	C	1.273118	-0.422910	0.153118
C42	C	1.161892	-0.426745	-0.000049
C43	C	1.197306	-0.478866	-0.153235
C44	C	1.343950	-0.527151	-0.153243
H45	H	1.502102	-0.468354	0.266504
H46	H	1.246903	-0.384326	0.266518
H47	H	1.053337	-0.391002	-0.000043
H48	H	1.114967	-0.481707	-0.266629
H49	H	1.370166	-0.565735	-0.266642
C50	C	1.450402	-0.676271	-0.000095
C51	C	1.411857	-0.724301	0.153069
C52	C	1.262709	-0.756136	0.153071
C53	C	1.152107	-0.739941	-0.000092
C54	C	1.190649	-0.691909	-0.153268
C55	C	1.339797	-0.660074	-0.153269
H56	H	1.493735	-0.736291	0.266460
H57	H	1.234179	-0.791693	0.266462
H58	H	1.041699	-0.763507	-0.000091
H59	H	1.108772	-0.679919	-0.266658
H60	H	1.368328	-0.624517	-0.266661
C61	C	2.028917	-0.263553	0.000033
C62	C	2.140119	-0.259717	0.153226
C63	C	2.286758	-0.308006	0.153257
C64	C	2.322195	-0.360129	0.000096
C65	C	2.210990	-0.363967	-0.153109
C66	C	2.064351	-0.315678	-0.153140
H67	H	2.113889	-0.221131	0.266615
H68	H	2.369079	-0.305165	0.266670
H69	H	2.430746	-0.395875	0.000119
H70	H	2.237220	-0.402554	-0.266498
H71	H	1.982030	-0.318519	-0.266553
C72	C	1.469001	-0.079193	-0.000000
C73	C	1.357777	-0.083025	-0.153171
C74	C	1.211130	-0.034742	-0.153160
C75	C	1.175709	0.017374	0.000021
C76	C	1.286936	0.021209	0.153203
C77	C	1.433582	-0.027075	0.153192
H78	H	1.383995	-0.121607	-0.266575
H79	H	1.128793	-0.037581	-0.266556
H80	H	1.067153	0.053116	0.000029
H81	H	1.260717	0.059790	0.266607
H82	H	1.515919	-0.024236	0.266588
H83	H	1.502990	-0.223890	-0.000022
H84	H	1.977004	-0.695122	-0.000097
