data_functionalizedCrystal
_audit_creation_method	'MofGen! by Chris Wilmer'
_symmetry_space_group_name_H-M	'P1'
_symmetry_Int_Tables_number	1
_symmetry_cell_setting	triclinic
loop_
_symmetry_equiv_pos_as_xyz
  x,y,z
_cell_length_a	19.121241
_cell_length_b	25.639240
_cell_length_c	19.120904
_cell_angle_alpha	87.584599
_cell_angle_beta	90.124528
_cell_angle_gamma	92.466443
loop_
_atom_site_label
_atom_site_type_symbol
_atom_site_fract_x
_atom_site_fract_y
_atom_site_fract_z
Zn1	Zn	1.054837	-0.188777	0.442205
Zn2	Zn	1.554837	0.311223	0.942205
Zn3	Zn	1.059743	-0.272333	0.324973
Zn4	Zn	1.559743	0.227667	0.824973
Zn5	Zn	0.942604	-0.188466	0.319974
Zn6	Zn	1.442604	0.311534	0.819974
Zn7	Zn	0.937550	-0.279740	0.437160
Zn8	Zn	1.437550	0.220260	0.937160
O9	O	0.998684	-0.232329	0.381078
O10	O	1.498684	0.267671	0.881078
O11	O	1.153596	-0.196891	0.430857
O12	O	1.653596	0.303109	0.930857
O13	O	1.048372	-0.257978	0.226205
O14	O	1.548372	0.242022	0.726205
O15	O	0.957553	-0.115341	0.336208
O16	O	1.457553	0.384659	0.836208
O17	O	1.157200	-0.258279	0.344727
O18	O	1.657200	0.241721	0.844727
O19	O	1.040011	-0.115569	0.426010
O20	O	1.540011	0.384431	0.926010
O21	O	0.962310	-0.196362	0.222533
O22	O	1.462310	0.303638	0.722533
O23	O	0.843825	-0.203544	0.331316
O24	O	1.343825	0.296456	0.831316
O25	O	0.948941	-0.270903	0.535934
O26	O	1.448941	0.229097	1.035934
O27	O	0.840113	-0.270602	0.417412
O28	O	1.340113	0.229398	0.917412
O29	O	1.035111	-0.204073	0.539640
O30	O	1.535111	0.295927	1.039640
O31	O	1.043472	-0.346482	0.339835
O32	O	1.543472	0.153518	0.839835
O33	O	0.953698	-0.351924	0.422258
O34	O	1.453698	0.148076	0.922258
C35	C	0.816531	-0.237844	0.373275
C36	C	1.316531	0.262156	0.873275
C37	C	0.738604	-0.240216	0.369953
C38	C	1.238604	0.259784	0.869953
C39	C	0.700115	-0.209424	0.413304
C40	C	1.200115	0.290576	0.913304
C41	C	0.626895	-0.211651	0.410177
C42	C	1.126895	0.288349	0.910177
C43	C	0.592165	-0.244672	0.363702
C44	C	1.092165	0.255328	0.863702
C45	C	0.630660	-0.275465	0.320346
C46	C	1.130660	0.224535	0.820346
C47	C	0.703878	-0.273235	0.323470
C48	C	1.203878	0.226765	0.823470
C49	C	0.371186	-0.252997	0.352019
C50	C	0.871186	0.247003	0.852019
C51	C	0.297962	-0.255226	0.348899
C52	C	0.797962	0.244774	0.848899
C53	C	0.294203	-0.191411	0.438730
C54	C	0.794203	0.308589	0.938730
C55	C	0.367423	-0.189186	0.441853
C56	C	0.867423	0.310814	0.941853
C57	C	0.405911	-0.219977	0.398495
C58	C	0.905911	0.280023	0.898495
C59	C	0.517323	-0.246950	0.360506
C60	C	1.017323	0.253050	0.860506
C61	C	0.480752	-0.217696	0.401688
C62	C	0.980752	0.282304	0.901688
C63	C	0.998587	-0.368174	0.381058
C64	C	1.498587	0.131826	0.881058
C65	C	0.998609	-0.426288	0.381075
C66	C	1.498609	0.073712	0.881075
C67	C	1.041613	-0.677548	0.427884
C68	C	1.541613	-0.177548	0.927884
C69	C	1.041592	-0.622944	0.427877
C70	C	1.541592	-0.122944	0.927877
O71	O	1.078076	-0.594766	0.467649
O72	O	1.578076	-0.094766	0.967649
N73	N	0.998686	-0.595560	0.381087
N74	N	1.498686	-0.095560	0.881087
C75	C	0.955802	-0.622781	0.334295
C76	C	1.455802	-0.122781	0.834295
O77	O	0.919306	-0.594475	0.294496
O78	O	1.419306	-0.094475	0.794496
C79	C	0.955827	-0.677384	0.334299
C80	C	1.455827	-0.177384	0.834299
C81	C	0.998732	-0.704766	0.381097
C82	C	1.498732	-0.204766	0.881097
C83	C	1.084514	-0.704930	0.474677
C84	C	1.584514	-0.204930	0.974677
C85	C	1.084534	-0.759530	0.474684
C86	C	1.584534	-0.259530	0.974684
C87	C	1.041653	-0.786748	0.427897
C88	C	1.541653	-0.286748	0.927897
C89	C	0.998751	-0.759366	0.381104
C90	C	1.498751	-0.259366	0.881104
C91	C	0.912948	-0.704605	0.287504
C92	C	1.412948	-0.204605	0.787504
C93	C	0.912977	-0.759211	0.287511
C94	C	1.412977	-0.259211	0.787511
C95	C	0.955882	-0.786593	0.334309
C96	C	1.455882	-0.286593	0.834309
C97	C	0.955889	-0.841184	0.334324
C98	C	1.455889	-0.341184	0.834324
N99	N	0.998796	-0.868569	0.381114
N100	N	1.498796	-0.368569	0.881114
C101	C	1.041678	-0.841351	0.427901
C102	C	1.541678	-0.341351	0.927901
C103	C	0.955754	-0.508112	0.334291
C104	C	1.455754	-0.008112	0.834291
C105	C	0.955725	-0.453511	0.334291
C106	C	1.455725	0.046489	0.834291
C107	C	1.041516	-0.453677	0.427872
C108	C	1.541516	0.046323	0.927872
C109	C	1.041541	-0.508280	0.427875
C110	C	1.541541	-0.008280	0.927875
C111	C	0.998661	-0.535497	0.381081
C112	C	1.498661	-0.035497	0.881081
C113	C	1.041715	-0.956015	0.427912
C114	C	1.541715	-0.456015	0.927912
C115	C	1.041729	-1.010620	0.427917
C116	C	1.541729	-0.510620	0.927917
C117	C	0.955941	-1.010449	0.334333
C118	C	1.455941	-0.510449	0.834333
C119	C	0.955924	-0.955849	0.334331
C120	C	1.455924	-0.455849	0.834331
C121	C	0.998817	-0.928633	0.381123
C122	C	1.498817	-0.428633	0.881123
O123	O	0.919427	-0.869397	0.294571
O124	O	1.419427	-0.369397	0.794571
O125	O	1.078175	-0.869664	0.467687
O126	O	1.578175	-0.369664	0.967687
C127	C	1.181548	-0.226793	0.388912
C128	C	1.681548	0.273207	0.888912
C129	C	1.259473	-0.224434	0.392251
C130	C	1.759473	0.275566	0.892251
C131	C	0.990915	-0.238349	0.563935
C132	C	1.490915	0.261651	1.063935
C133	C	0.987605	-0.240914	0.641858
C134	C	1.487605	0.259086	1.141858
C135	C	0.998798	-0.095953	0.381114
C136	C	1.498798	0.404047	0.881114
C137	C	0.998847	-0.037838	0.381130
C138	C	1.498847	0.462162	0.881130
C139	C	1.006462	-0.226293	0.198933
C140	C	1.506462	0.273707	0.698933
C141	C	1.009909	-0.223577	0.121017
C142	C	1.509909	0.276423	0.621017
C143	C	1.030911	-0.207326	0.680398
C144	C	1.530911	0.292674	1.180398
C145	C	1.027792	-0.209735	0.753614
C146	C	1.527792	0.290265	1.253614
C147	C	0.981369	-0.245735	0.788290
C148	C	1.481369	0.254265	1.288290
C149	C	0.938058	-0.279324	0.749746
C150	C	1.438058	0.220676	1.249746
C151	C	0.941174	-0.276912	0.676530
C152	C	1.441174	0.223088	1.176530
C153	C	0.969713	-0.254754	1.009257
C154	C	1.469713	0.245246	1.509257
C155	C	0.966602	-0.257165	1.082477
C156	C	1.466602	0.242835	1.582477
C157	C	1.056335	-0.187575	1.086341
C158	C	1.556335	0.312425	1.586341
C159	C	1.059450	-0.185168	1.013124
C160	C	1.559450	0.314832	1.513124
C161	C	1.016136	-0.218756	0.974586
C162	C	1.516136	0.281244	1.474586
C163	C	0.978182	-0.248199	0.863130
C164	C	1.478182	0.251801	1.363130
C165	C	1.019321	-0.216289	0.899748
C166	C	1.519321	0.283711	1.399748
H167	H	0.489038	-0.273835	0.322665
H168	H	0.989038	0.226165	0.822665
H169	H	1.076643	-0.933862	0.466014
H170	H	1.576643	-0.433862	0.966014
O171	O	0.894462	-0.313140	0.634963
O172	O	1.394462	0.186860	1.134963
H173	H	0.904421	-0.305411	0.578226
H174	H	1.404421	0.194589	1.078226
H175	H	0.920780	-0.431220	0.296191
H176	H	1.420780	0.068780	0.796191
H177	H	1.057115	-0.186976	0.871511
H178	H	1.557115	0.313024	1.371511
H179	H	1.097254	-0.155855	0.984896
H180	H	1.597254	0.344145	1.484896
O181	O	1.130815	-0.789061	0.525153
O182	O	1.630815	-0.289061	1.025153
H183	H	1.160631	-0.760953	0.557677
H184	H	1.660631	-0.260953	1.057677
O185	O	0.404883	-0.153563	0.491969
O186	O	0.904883	0.346437	0.991969
H187	H	0.365818	-0.132519	0.521582
H188	H	0.865818	0.367481	1.021582
O189	O	0.518205	-0.182079	0.451812
O190	O	1.018205	0.317921	0.951812
H191	H	0.550041	-0.205681	0.488849
H192	H	1.050041	0.294319	0.988849
O193	O	0.909492	-0.537461	0.283820
O194	O	1.409492	-0.037461	0.783820
H195	H	0.942421	-0.560192	0.249515
H196	H	1.442421	-0.060192	0.749515
H197	H	1.119437	-0.682774	0.512777
H198	H	1.619437	-0.182774	1.012777
O199	O	0.585380	-0.178440	0.456933
O200	O	1.085380	0.321560	0.956933
H201	H	0.621830	-0.155108	0.489780
H202	H	1.121830	0.344892	0.989780
O203	O	1.087820	-0.537813	0.478344
O204	O	1.587820	-0.037813	0.978344
H205	H	1.117634	-0.509707	0.510872
H206	H	1.617634	-0.009707	1.010872
O207	O	0.887985	-0.318150	0.787147
O208	O	1.387985	0.181850	1.287147
H209	H	0.858389	-0.341097	0.748045
H210	H	1.358389	0.158903	1.248045
H211	H	0.920980	-0.933554	0.296231
H212	H	1.420980	-0.433554	0.796231
O213	O	0.916522	-0.295988	1.119884
O214	O	1.416522	0.204012	1.619884
H215	H	0.929096	-0.336200	1.106335
H216	H	1.429096	0.163800	1.606335
O217	O	0.737567	-0.173804	0.463430
O218	O	1.237567	0.326196	0.963430
H219	H	0.769402	-0.197401	0.500474
H220	H	1.269402	0.302599	1.000474
H221	H	0.402514	-0.278070	0.316714
H222	H	0.902514	0.221930	0.816714
H223	H	0.262858	-0.166342	0.474029
H224	H	0.762858	0.333658	0.974029
H225	H	1.076665	-1.032912	0.466030
H226	H	1.576665	-0.532912	0.966030
O227	O	1.087777	-0.424316	0.478331
O228	O	1.587777	0.075684	0.978331
H229	H	1.080555	-0.381747	0.470456
H230	H	1.580555	0.118253	0.970456
H231	H	0.269687	-0.282118	0.311053
H232	H	0.769687	0.217882	0.811053
H233	H	0.878012	-0.682318	0.249397
H234	H	1.378012	-0.182318	0.749397
H235	H	0.878059	-0.781368	0.249404
H236	H	1.378059	-0.281368	0.749404
H237	H	0.921026	-1.032620	0.296242
H238	H	1.421026	-0.532620	0.796242
O239	O	0.593207	-0.311080	0.270215
O240	O	1.093207	0.188920	0.770215
H241	H	0.535826	-0.307461	0.275329
H242	H	1.035826	0.192539	0.775329
O243	O	0.922963	-0.290953	0.967692
O244	O	1.422963	0.209047	1.467692
H245	H	0.890152	-0.316384	1.004107
H246	H	1.390152	0.183616	1.504107
O247	O	0.745397	-0.306446	0.276714
O248	O	1.245397	0.193554	0.776714
H249	H	0.708948	-0.329786	0.243876
H250	H	1.208948	0.170214	0.743876
H251	H	1.068716	-0.178013	0.652170
H252	H	1.568716	0.321987	1.152170
O253	O	1.074505	-0.173511	0.795185
O254	O	1.574505	0.326489	1.295185
H255	H	1.107316	-0.148079	0.758772
H256	H	1.607316	0.351921	1.258772
H257	H	0.940387	-0.277512	0.891371
H258	H	1.440387	0.222488	1.391371
O259	O	1.103030	-0.151334	1.127904
O260	O	1.603030	0.348666	1.627904
H261	H	1.093057	-0.159050	1.184641
H262	H	1.593057	0.340950	1.684641
