data_functionalizedCrystal
_audit_creation_method	'MofGen! by Chris Wilmer'
_symmetry_space_group_name_H-M	'P1'
_symmetry_Int_Tables_number	1
_symmetry_cell_setting	triclinic
loop_
_symmetry_equiv_pos_as_xyz
  x,y,z
_cell_length_a	29.839134
_cell_length_b	29.839131
_cell_length_c	25.639234
_cell_angle_alpha	89.974256
_cell_angle_beta	89.979476
_cell_angle_gamma	90.021992
loop_
_atom_site_label
_atom_site_type_symbol
_atom_site_fract_x
_atom_site_fract_y
_atom_site_fract_z
Zn1	Zn	0.686756	-0.179114	-0.295616
Zn2	Zn	1.020090	0.154220	0.037717
Zn3	Zn	1.353423	0.487553	0.371051
Zn4	Zn	0.686678	-0.254236	-0.208179
Zn5	Zn	1.020011	0.079097	0.125154
Zn6	Zn	1.353344	0.412431	0.458488
Zn7	Zn	0.611628	-0.179095	-0.208194
Zn8	Zn	0.944962	0.154238	0.125140
Zn9	Zn	1.278295	0.487571	0.458473
Zn10	Zn	0.611587	-0.254192	-0.295582
Zn11	Zn	0.944920	0.079142	0.037751
Zn12	Zn	1.278254	0.412475	0.371084
O13	O	0.649162	-0.216659	-0.251893
O14	O	0.982496	0.116674	0.081441
O15	O	1.315829	0.450007	0.414774
O16	O	0.749613	-0.189105	-0.284025
O17	O	1.082946	0.144228	0.049308
O18	O	1.416280	0.477562	0.382641
O19	O	0.676707	-0.244280	-0.135016
O20	O	1.010040	0.089054	0.198318
O21	O	1.343373	0.422387	0.531651
O22	O	0.621644	-0.116231	-0.219810
O23	O	0.954978	0.217103	0.113523
O24	O	1.288311	0.550436	0.446856
O25	O	0.749555	-0.244297	-0.219786
O26	O	1.082889	0.089036	0.113548
O27	O	1.416222	0.422370	0.446881
O28	O	0.676841	-0.116244	-0.284039
O29	O	1.010174	0.217089	0.049294
O30	O	1.343507	0.550423	0.382627
O31	O	0.621568	-0.189074	-0.135026
O32	O	0.954901	0.144259	0.198307
O33	O	1.288235	0.477593	0.531640
O34	O	0.548756	-0.189031	-0.219778
O35	O	0.882089	0.144302	0.113555
O36	O	1.215422	0.477636	0.446889
O37	O	0.621574	-0.244222	-0.368752
O38	O	0.954907	0.089112	-0.035419
O39	O	1.288241	0.422445	0.297915
O40	O	0.548725	-0.244204	-0.283982
O41	O	0.882059	0.089129	0.049351
O42	O	1.215392	0.422463	0.382685
O43	O	0.676801	-0.189062	-0.368777
O44	O	1.010134	0.144271	-0.035443
O45	O	1.343467	0.477605	0.297890
O46	O	0.676666	-0.317097	-0.219753
O47	O	1.010000	0.016236	0.113580
O48	O	1.343333	0.349569	0.446914
O49	O	0.621498	-0.317065	-0.283968
O50	O	0.954831	0.016269	0.049365
O51	O	1.288164	0.349602	0.382699
C52	C	0.532440	-0.216611	-0.251878
C53	C	0.865773	0.116722	0.081455
C54	C	1.199106	0.450056	0.414788
C55	C	0.482505	-0.216601	-0.251884
C56	C	0.815839	0.116732	0.081449
C57	C	1.149172	0.450065	0.414782
C58	C	0.125944	-0.187981	-0.285408
C59	C	0.459278	0.145353	0.047925
C60	C	0.792611	0.478686	0.381259
C61	C	0.313617	-0.187944	-0.285396
C62	C	0.646951	0.145389	0.047937
C63	C	0.980284	0.478722	0.381271
O64	O	0.337904	-0.163553	-0.313897
O65	O	0.671237	0.169781	0.019437
O66	O	1.004571	0.503114	0.352770
N67	N	0.337060	-0.216631	-0.251897
N68	N	0.670394	0.116703	0.081437
N69	N	1.003727	0.450036	0.414770
C70	C	0.313582	-0.245330	-0.218400
C71	C	0.646915	0.088003	0.114933
C72	C	0.980249	0.421336	0.448266
O73	O	0.337828	-0.269732	-0.189911
O74	O	0.671161	0.063601	0.143423
O75	O	1.004495	0.396935	0.476756
C76	C	0.125910	-0.245368	-0.218416
C77	C	0.459243	0.087965	0.114918
C78	C	0.792576	0.421298	0.448251
C79	C	0.102469	-0.216677	-0.251913
C80	C	0.435803	0.116656	0.081420
C81	C	0.769136	0.449990	0.414753
C82	C	0.102504	-0.159292	-0.318903
C83	C	0.435837	0.174041	0.014430
C84	C	0.769170	0.507375	0.347763
C85	C	0.055588	-0.159299	-0.318904
C86	C	0.388922	0.174034	0.014429
C87	C	0.722255	0.507367	0.347763
C88	C	0.032113	-0.187996	-0.285409
C89	C	0.365447	0.145338	0.047924
C90	C	0.698780	0.478671	0.381257
C91	C	0.055554	-0.216684	-0.251914
C92	C	0.388887	0.116649	0.081419
C93	C	0.722221	0.449982	0.414753
C94	C	0.102432	-0.274070	-0.184922
C95	C	0.435766	0.059264	0.148411
C96	C	0.769099	0.392597	0.481744
C97	C	0.055511	-0.274077	-0.184930
C98	C	0.388845	0.059256	0.148403
C99	C	0.722178	0.392589	0.481737
C100	C	0.032071	-0.245386	-0.218428
C101	C	0.365404	0.087947	0.114906
C102	C	0.698738	0.421281	0.448239
C103	C	-0.014837	-0.245388	-0.218420
C104	C	0.318497	0.087945	0.114913
C105	C	0.651830	0.421278	0.448247
N106	N	-0.038279	-0.216702	-0.251919
N107	N	0.295054	0.116631	0.081414
N108	N	0.628387	0.449965	0.414747
C109	C	-0.014805	-0.188006	-0.285414
C110	C	0.318529	0.145328	0.047919
C111	C	0.651862	0.478661	0.381253
C112	C	0.412113	-0.245308	-0.218394
C113	C	0.745446	0.088026	0.114939
C114	C	1.078779	0.421359	0.448272
C115	C	0.459031	-0.245298	-0.218390
C116	C	0.792364	0.088036	0.114944
C117	C	1.125697	0.421369	0.448277
C118	C	0.459063	-0.187912	-0.285386
C119	C	0.792396	0.145421	0.047947
C120	C	1.125729	0.478754	0.381281
C121	C	0.412144	-0.187920	-0.285388
C122	C	0.745477	0.145413	0.047946
C123	C	1.078810	0.478746	0.381279
C124	C	0.388670	-0.216621	-0.251893
C125	C	0.722003	0.116712	0.081440
C126	C	1.055336	0.450045	0.414773
C127	C	-0.113330	-0.188024	-0.285412
C128	C	0.220003	0.145310	0.047921
C129	C	0.553336	0.478643	0.381254
C130	C	-0.160250	-0.188032	-0.285409
C131	C	0.173083	0.145301	0.047925
C132	C	0.506417	0.478634	0.381258
C133	C	-0.160278	-0.245419	-0.218414
C134	C	0.173055	0.087914	0.114919
C135	C	0.506389	0.421248	0.448252
C136	C	-0.113362	-0.245409	-0.218416
C137	C	0.219971	0.087924	0.114917
C138	C	0.553304	0.421258	0.448251
C139	C	-0.089890	-0.216710	-0.251919
C140	C	0.243444	0.116624	0.081414
C141	C	0.576777	0.449957	0.414747
O142	O	-0.039152	-0.269771	-0.189938
O143	O	0.294181	0.063563	0.143395
O144	O	0.627515	0.396896	0.476728
O145	O	-0.039059	-0.163615	-0.313908
O146	O	0.294275	0.169719	0.019426
O147	O	0.627608	0.503052	0.352759
C148	C	0.172860	-0.187973	-0.285407
C149	C	0.506193	0.145360	0.047926
C150	C	0.839526	0.478694	0.381259
C151	C	0.196300	-0.216662	-0.251912
C152	C	0.529634	0.116672	0.081421
C153	C	0.862967	0.450005	0.414755
C154	C	0.172825	-0.245358	-0.218417
C155	C	0.506159	0.087975	0.114916
C156	C	0.839492	0.421309	0.448249
C157	C	0.243218	-0.216652	-0.251907
C158	C	0.576551	0.116682	0.081426
C159	C	0.909885	0.450015	0.414759
C160	C	0.266693	-0.187955	-0.285402
C161	C	0.600026	0.145378	0.047931
C162	C	0.933360	0.478711	0.381264
C163	C	0.243250	-0.159269	-0.318901
C164	C	0.576583	0.174064	0.014432
C165	C	0.909917	0.507398	0.347765
C166	C	0.196335	-0.159277	-0.318902
C167	C	0.529668	0.174057	0.014431
C168	C	0.863001	0.507390	0.347765
C169	C	0.196268	-0.274044	-0.184918
C170	C	0.529602	0.059289	0.148415
C171	C	0.862935	0.392622	0.481749
C172	C	0.243184	-0.274034	-0.184920
C173	C	0.576517	0.059299	0.148414
C174	C	0.909850	0.392633	0.481747
C175	C	0.266659	-0.245338	-0.218414
C176	C	0.599992	0.087996	0.114919
C177	C	0.933325	0.421329	0.448252
C178	C	0.649081	-0.333382	-0.251867
C179	C	0.982415	-0.000048	0.081467
C180	C	1.315748	0.333285	0.414800
C181	C	0.649088	-0.383316	-0.251873
C182	C	0.982421	-0.049983	0.081460
C183	C	1.315754	0.283350	0.414793
C184	C	0.677941	-0.692964	-0.218505
C185	C	1.011274	-0.359631	0.114828
C186	C	1.344608	-0.026297	0.448162
C187	C	0.677996	-0.880637	-0.218525
C188	C	1.011330	-0.547304	0.114808
C189	C	1.344663	-0.213970	0.448141
O190	O	0.702464	-0.904905	-0.190134
O191	O	1.035798	-0.571572	0.143199
O192	O	1.369131	-0.238239	0.476532
N193	N	0.649256	-0.904101	-0.251932
N194	N	0.982589	-0.570768	0.081401
N195	N	1.315922	-0.237435	0.414735
C196	C	0.620501	-0.880644	-0.285339
C197	C	0.953834	-0.547311	0.047994
C198	C	1.287167	-0.213978	0.381328
O199	O	0.596059	-0.904909	-0.313758
O200	O	0.929393	-0.571575	0.019576
O201	O	1.262726	-0.238242	0.352909
C202	C	0.620448	-0.692972	-0.285321
C203	C	0.953781	-0.359639	0.048013
C204	C	1.287115	-0.026306	0.381346
C205	C	0.649187	-0.669510	-0.251908
C206	C	0.982521	-0.336177	0.081425
C207	C	1.315854	-0.002844	0.414759
C208	C	0.706679	-0.669502	-0.185095
C209	C	1.040012	-0.336169	0.148238
C210	C	1.373345	-0.002835	0.481572
C211	C	0.706663	-0.622587	-0.185088
C212	C	1.039996	-0.289253	0.148245
C213	C	1.373329	0.044080	0.481578
C214	C	0.677909	-0.599133	-0.218491
C215	C	1.011243	-0.265800	0.114842
C216	C	1.344576	0.067534	0.448175
C217	C	0.649172	-0.622595	-0.251901
C218	C	0.982505	-0.289262	0.081432
C219	C	1.315838	0.044072	0.414766
C220	C	0.591696	-0.669516	-0.318730
C221	C	0.925029	-0.336183	0.014604
C222	C	1.258362	-0.002850	0.347937
C223	C	0.591686	-0.622595	-0.318723
C224	C	0.925019	-0.289262	0.014610
C225	C	1.258353	0.044071	0.347943
C226	C	0.620425	-0.599133	-0.285310
C227	C	0.953759	-0.265800	0.048023
C228	C	1.287092	0.067533	0.381356
C229	C	0.620402	-0.552226	-0.285297
C230	C	0.953736	-0.218893	0.048036
C231	C	1.287069	0.114441	0.381369
N232	N	0.649143	-0.528762	-0.251890
N233	N	0.982477	-0.195428	0.081443
N234	N	1.315810	0.137905	0.414776
C235	C	0.677897	-0.552215	-0.218487
C236	C	1.011230	-0.218882	0.114846
C237	C	1.344563	0.114451	0.448179
C238	C	0.620530	-0.979175	-0.285345
C239	C	0.953863	-0.645842	0.047988
C240	C	1.287197	-0.312508	0.381321
C241	C	0.620542	-1.026093	-0.285349
C242	C	0.953876	-0.692760	0.047984
C243	C	1.287209	-0.359426	0.381317
C244	C	0.678039	-1.026082	-0.218536
C245	C	1.011372	-0.692749	0.114797
C246	C	1.344706	-0.359416	0.448131
C247	C	0.678024	-0.979163	-0.218530
C248	C	1.011357	-0.645830	0.114803
C249	C	1.344690	-0.312497	0.448137
C250	C	0.649271	-0.955711	-0.251938
C251	C	0.982604	-0.622377	0.081395
C252	C	1.315938	-0.289044	0.414728
C253	C	0.677861	-0.453689	-0.218475
C254	C	1.011194	-0.120356	0.114858
C255	C	1.344528	0.212977	0.448191
C256	C	0.677841	-0.406770	-0.218470
C257	C	1.011174	-0.073436	0.114863
C258	C	1.344508	0.259897	0.448197
C259	C	0.620347	-0.406785	-0.285285
C260	C	0.953680	-0.073451	0.048048
C261	C	1.287013	0.259882	0.381382
C262	C	0.620364	-0.453700	-0.285289
C263	C	0.953698	-0.120367	0.048045
C264	C	1.287031	0.212967	0.381378
C265	C	0.649125	-0.477151	-0.251882
C266	C	0.982459	-0.143818	0.081451
C267	C	1.315792	0.189515	0.414785
O268	O	0.595951	-0.527929	-0.313678
O269	O	0.929284	-0.194595	0.019656
O270	O	1.262617	0.138738	0.352989
O271	O	0.702341	-0.527943	-0.190081
O272	O	1.035675	-0.194610	0.143252
O273	O	1.369008	0.138724	0.476586
C274	C	0.677957	-0.739879	-0.218512
C275	C	1.011290	-0.406546	0.114822
C276	C	1.344624	-0.073213	0.448155
C277	C	0.649219	-0.763341	-0.251921
C278	C	0.982553	-0.430008	0.081412
C279	C	1.315886	-0.096675	0.414745
C280	C	0.620466	-0.739888	-0.285324
C281	C	0.953799	-0.406554	0.048009
C282	C	1.287132	-0.073221	0.381342
C283	C	0.649232	-0.810259	-0.251925
C284	C	0.982565	-0.476926	0.081408
C285	C	1.315898	-0.143592	0.414741
C286	C	0.677985	-0.833713	-0.218522
C287	C	1.011319	-0.500379	0.114811
C288	C	1.344652	-0.167046	0.448144
C289	C	0.706726	-0.810248	-0.185115
C290	C	1.040060	-0.476915	0.148218
C291	C	1.373393	-0.143582	0.481551
C292	C	0.706710	-0.763333	-0.185109
C293	C	1.040044	-0.430000	0.148225
C294	C	1.373377	-0.096666	0.481558
C295	C	0.591725	-0.763352	-0.318731
C296	C	0.925058	-0.430019	0.014602
C297	C	1.258392	-0.096685	0.347935
C298	C	0.591743	-0.810268	-0.318735
C299	C	0.925076	-0.476934	0.014598
C300	C	1.258409	-0.143601	0.347932
C301	C	0.620496	-0.833721	-0.285332
C302	C	0.953830	-0.500388	0.048001
C303	C	1.287163	-0.167054	0.381335
C304	C	0.766341	-0.216708	-0.251908
C305	C	1.099674	0.116625	0.081426
C306	C	1.433007	0.449959	0.414759
C307	C	0.816275	-0.216729	-0.251914
C308	C	1.149608	0.116605	0.081419
C309	C	1.482942	0.449938	0.414753
C310	C	0.649192	-0.216639	-0.388266
C311	C	0.982525	0.116695	-0.054932
C312	C	1.315858	0.450028	0.278401
C313	C	0.649204	-0.216630	-0.446380
C314	C	0.982537	0.116703	-0.113046
C315	C	1.315871	0.450037	0.220287
C316	C	0.649256	-0.099481	-0.251930
C317	C	0.982589	0.233852	0.081403
C318	C	1.315923	0.567186	0.414736
C319	C	0.649296	-0.049546	-0.251946
C320	C	0.982629	0.283787	0.081387
C321	C	1.315963	0.617120	0.414721
C322	C	0.620506	-0.187831	-0.806754
C323	C	0.953839	0.145502	-0.473421
C324	C	1.287173	0.478836	-0.140087
C325	C	0.620508	-0.187823	-0.861358
C326	C	0.953842	0.145510	-0.528025
C327	C	1.287175	0.478844	-0.194692
O328	O	0.596086	-0.163386	-0.889605
O329	O	0.929419	0.169947	-0.556271
O330	O	1.262752	0.503280	-0.222938
N331	N	0.649219	-0.216560	-0.888663
N332	N	0.982552	0.116774	-0.555329
N333	N	1.315886	0.450107	-0.221996
C334	C	0.677926	-0.245309	-0.861359
C335	C	1.011259	0.088024	-0.528026
C336	C	1.344592	0.421357	-0.194693
O337	O	0.702346	-0.269752	-0.889598
O338	O	1.035679	0.063582	-0.556264
O339	O	1.369013	0.396915	-0.222931
C340	C	0.677921	-0.245320	-0.806756
C341	C	1.011254	0.088014	-0.473423
C342	C	1.344587	0.421347	-0.140089
C343	C	0.649211	-0.216578	-0.779455
C344	C	0.982545	0.116756	-0.446121
C345	C	1.315878	0.450089	-0.112788
C346	C	0.591799	-0.159092	-0.779453
C347	C	0.925132	0.174241	-0.446119
C348	C	1.258466	0.507575	-0.112786
C349	C	0.591797	-0.159100	-0.724852
C350	C	0.925131	0.174234	-0.391519
C351	C	1.258464	0.507567	-0.058186
C352	C	0.620503	-0.187846	-0.697553
C353	C	0.953836	0.145487	-0.364220
C354	C	1.287169	0.478820	-0.030886
C355	C	0.649210	-0.216585	-0.724854
C356	C	0.982543	0.116748	-0.391521
C357	C	1.315876	0.450081	-0.058188
C358	C	0.706625	-0.274071	-0.779454
C359	C	1.039958	0.059262	-0.446121
C360	C	1.373291	0.392595	-0.112787
C361	C	0.706617	-0.274079	-0.724847
C362	C	1.039950	0.059254	-0.391514
C363	C	1.373284	0.392587	-0.058180
C364	C	0.677908	-0.245337	-0.697546
C365	C	1.011241	0.087996	-0.364212
C366	C	1.344575	0.421329	-0.030879
C367	C	0.677913	-0.245340	-0.642954
C368	C	1.011247	0.087993	-0.309621
C369	C	1.344580	0.421327	0.023712
N370	N	0.649203	-0.216603	-0.615650
N371	N	0.982536	0.116730	-0.282317
N372	N	1.315870	0.450064	0.051016
C373	C	0.620498	-0.187856	-0.642950
C374	C	0.953831	0.145477	-0.309616
C375	C	1.287164	0.478810	0.023717
C376	C	0.677933	-0.245287	-0.976030
C377	C	1.011267	0.088047	-0.642697
C378	C	1.344600	0.421380	-0.309363
C379	C	0.677941	-0.245275	-1.030632
C380	C	1.011274	0.088059	-0.697299
C381	C	1.344608	0.421392	-0.363966
C382	C	0.620523	-0.187789	-1.030628
C383	C	0.953857	0.145545	-0.697294
C384	C	1.287190	0.478878	-0.363961
C385	C	0.620518	-0.187799	-0.976024
C386	C	0.953851	0.145535	-0.642691
C387	C	1.287185	0.478868	-0.309358
C388	C	0.649223	-0.216550	-0.948726
C389	C	0.982556	0.116783	-0.615393
C390	C	1.315890	0.450117	-0.282059
C391	C	0.620496	-0.187874	-0.528284
C392	C	0.953830	0.145459	-0.194951
C393	C	1.287163	0.478792	0.138382
C394	C	0.620499	-0.187883	-0.473679
C395	C	0.953832	0.145450	-0.140346
C396	C	1.287165	0.478783	0.192988
C397	C	0.677915	-0.245371	-0.473689
C398	C	1.011248	0.087962	-0.140355
C399	C	1.344581	0.421296	0.192978
C400	C	0.677914	-0.245361	-0.528289
C401	C	1.011248	0.087973	-0.194956
C402	C	1.344581	0.421306	0.138377
C403	C	0.649202	-0.216611	-0.555586
C404	C	0.982535	0.116723	-0.222253
C405	C	1.315868	0.450056	0.111081
O406	O	0.702322	-0.269765	-0.614674
O407	O	1.035656	0.063568	-0.281340
O408	O	1.368989	0.396902	0.051993
O409	O	0.596077	-0.163422	-0.614705
O410	O	0.929410	0.169911	-0.281371
O411	O	1.262744	0.503244	0.051962
C412	C	0.649159	-0.216647	-0.116050
C413	C	0.982492	0.116686	0.217283
C414	C	1.315826	0.450019	0.550616
C415	C	0.649234	-0.216529	-0.057936
C416	C	0.982567	0.116804	0.275397
C417	C	1.315900	0.450137	0.608730
H418	H	0.121612	-0.135924	-0.346182
H419	H	0.454945	0.197410	-0.012848
H420	H	0.788279	0.530743	0.320485
H421	H	0.597116	-0.164463	-0.550503
H422	H	0.930449	0.168870	-0.217170
H423	H	1.263783	0.502203	0.116164
O424	O	0.268462	-0.304982	-0.148785
O425	O	0.601795	0.028351	0.184548
O426	O	0.935129	0.361685	0.517881
H427	H	0.289831	-0.284844	-0.122220
H428	H	0.623165	0.048489	0.211113
H429	H	0.956498	0.381823	0.544446
H430	H	0.701287	-0.268774	-0.451452
H431	H	1.034620	0.064559	-0.118118
H432	H	1.367954	0.397892	0.215215
O433	O	0.560841	-0.128077	-0.808891
O434	O	0.894174	0.205256	-0.475557
O435	O	1.227507	0.538589	-0.142224
H436	H	0.537962	-0.148161	-0.833756
H437	H	0.871295	0.185173	-0.500423
H438	H	1.204629	0.518506	-0.167090
O439	O	0.737580	-0.305091	-0.695407
O440	O	1.070913	0.028242	-0.362074
O441	O	1.404247	0.361576	-0.028740
H442	H	0.732755	-0.300274	-0.652850
H443	H	1.066089	0.033060	-0.319517
H444	H	1.399422	0.366393	0.013816
H445	H	0.597141	-0.164394	-0.953799
H446	H	0.930474	0.168939	-0.620466
H447	H	1.263808	0.502272	-0.287133
H448	H	0.701324	-0.268674	-1.052857
H449	H	1.034657	0.064659	-0.719523
H450	H	1.367991	0.397992	-0.386190
O451	O	0.560701	-0.738058	-0.354749
O452	O	0.894034	-0.404725	-0.021416
O453	O	1.227368	-0.071391	0.311917
H454	H	0.540716	-0.762261	-0.377971
H455	H	0.874049	-0.428927	-0.044638
H456	H	1.207383	-0.095594	0.288695
H457	H	0.730137	-0.829352	-0.157916
H458	H	1.063470	-0.496019	0.175417
H459	H	1.396804	-0.162686	0.508751
H460	H	0.596934	-0.387681	-0.312480
H461	H	0.930268	-0.054348	0.020853
H462	H	1.263601	0.278985	0.354187
O463	O	0.708882	-0.276356	-0.557739
O464	O	1.042216	0.056977	-0.224406
O465	O	1.375549	0.390311	0.108928
H466	H	0.688756	-0.299200	-0.582601
H467	H	1.022090	0.034134	-0.249268
H468	H	1.355423	0.367467	0.084065
O469	O	0.708900	-0.276294	-0.946587
O470	O	1.042233	0.057039	-0.613254
O471	O	1.375567	0.390372	-0.279920
H472	H	0.731768	-0.256200	-0.921720
H473	H	1.065101	0.077134	-0.588387
H474	H	1.398435	0.410467	-0.255054
H475	H	-0.094225	-0.164654	-0.312694
H476	H	0.239109	0.168680	0.020640
H477	H	0.572442	0.502013	0.353973
O478	O	0.589560	-0.156782	-1.060076
O479	O	0.922893	0.176552	-0.726743
O480	O	1.256227	0.509885	-0.393410
H481	H	0.594387	-0.161608	-1.102631
H482	H	0.927720	0.171725	-0.769298
H483	H	1.261053	0.505058	-0.435964
H484	H	0.730002	-0.297476	-0.801673
H485	H	1.063336	0.035857	-0.468340
H486	H	1.396669	0.369190	-0.135007
H487	H	-0.179333	-0.164666	-0.312686
H488	H	0.154000	0.168667	0.020647
H489	H	0.487333	0.502000	0.353980
H490	H	0.177160	-0.297413	-0.157642
H491	H	0.510493	0.035920	0.175691
H492	H	0.843826	0.369253	0.509024
O493	O	0.708847	-0.381467	-0.182435
O494	O	1.042180	-0.048134	0.150898
O495	O	1.375513	0.285200	0.484231
H496	H	0.704006	-0.344901	-0.188038
H497	H	1.037340	-0.011568	0.145295
H498	H	1.370673	0.321766	0.478629
H499	H	0.262371	-0.135902	-0.346172
H500	H	0.595705	0.197432	-0.012839
H501	H	0.929038	0.530765	0.320495
H502	H	0.036507	-0.135938	-0.346184
H503	H	0.369840	0.197395	-0.012850
H504	H	0.703174	0.530729	0.320483
O505	O	0.709059	-1.051387	-0.182518
O506	O	1.042392	-0.718053	0.150815
O507	O	1.375725	-0.384720	0.484149
H508	H	0.688975	-1.072795	-0.155900
H509	H	1.022309	-0.739461	0.177433
H510	H	1.355642	-0.406128	0.510767
H511	H	0.036401	-0.297451	-0.157656
H512	H	0.369735	0.035882	0.175677
H513	H	0.703068	0.369216	0.509011
H514	H	0.701282	-0.472778	-0.191274
H515	H	1.034615	-0.139444	0.142059
H516	H	1.367948	0.193889	0.475393
H517	H	0.393062	-0.164557	-0.312664
H518	H	0.726395	0.168777	0.020669
H519	H	1.059728	0.502110	0.354003
H520	H	0.568417	-0.135697	-0.702628
H521	H	0.901751	0.197637	-0.369295
H522	H	1.235084	0.530970	-0.035962
O523	O	0.589535	-0.156880	-0.444231
O524	O	0.922868	0.176453	-0.110898
O525	O	1.256202	0.509787	0.222435
H526	H	0.569573	-0.136892	-0.472391
H527	H	0.902907	0.196441	-0.139058
H528	H	1.236240	0.529774	0.194275
H529	H	0.730096	-0.688593	-0.157894
H530	H	1.063429	-0.355260	0.175439
H531	H	1.396762	-0.021926	0.508772
H532	H	0.730066	-0.603487	-0.157882
H533	H	1.063400	-0.270153	0.175451
H534	H	1.396733	0.063180	0.508784
H535	H	0.568336	-0.829366	-0.345943
H536	H	0.901669	-0.496033	-0.012610
H537	H	1.235002	-0.162700	0.320723
O538	O	0.484384	-0.156960	-0.321515
O539	O	0.817717	0.176373	0.011818
O540	O	1.151051	0.509707	0.345151
H541	H	0.505763	-0.177098	-0.348071
H542	H	0.839096	0.156235	-0.014738
H543	H	1.172429	0.489568	0.318595
O544	O	0.484312	-0.276237	-0.182254
O545	O	0.817645	0.057096	0.151079
O546	O	1.150978	0.390429	0.484412
H547	H	0.460101	-0.296194	-0.158969
H548	H	0.793434	0.037139	0.174364
H549	H	1.126768	0.370472	0.507698
H550	H	0.393004	-0.268680	-0.191117
H551	H	0.726338	0.064653	0.142216
H552	H	1.059671	0.397986	0.475549
H553	H	0.597136	-1.045192	-0.312552
H554	H	0.930469	-0.711858	0.020781
H555	H	1.263802	-0.378525	0.354114
O556	O	0.737713	-0.738030	-0.149076
O557	O	1.071046	-0.404696	0.184257
O558	O	1.404379	-0.071363	0.517591
H559	H	0.757710	-0.762227	-0.125857
H560	H	1.091043	-0.428894	0.207476
H561	H	1.424377	-0.095560	0.540810
H562	H	0.121510	-0.297433	-0.157645
H563	H	0.454843	0.035900	0.175688
H564	H	0.788176	0.369233	0.509022
O565	O	0.560701	-0.694815	-0.354772
O566	O	0.894034	-0.361482	-0.021438
O567	O	1.227367	-0.028149	0.311895
H568	H	0.540712	-0.670617	-0.378000
H569	H	0.874046	-0.337284	-0.044666
H570	H	1.207379	-0.003950	0.288667
H571	H	-0.179400	-0.268781	-0.191142
H572	H	0.153934	0.064552	0.142191
H573	H	0.487267	0.397886	0.475525
O574	O	-0.088074	-0.276349	-0.182285
O575	O	0.245259	0.056984	0.151049
O576	O	0.578593	0.390318	0.484382
H577	H	-0.097083	-0.311620	-0.191182
H578	H	0.236250	0.021714	0.142152
H579	H	0.569584	0.355047	0.475485
O580	O	0.171054	-0.128333	-0.355034
O581	O	0.504388	0.205000	-0.021701
O582	O	0.837721	0.538334	0.311632
H583	H	0.195267	-0.108383	-0.378325
H584	H	0.528600	0.224951	-0.044991
H585	H	0.861933	0.558284	0.288342
H586	H	0.701426	-0.960064	-0.191323
H587	H	1.034759	-0.626730	0.142011
H588	H	1.368093	-0.293397	0.475344
O589	O	0.589505	-0.953881	-0.321368
O590	O	0.922839	-0.620548	0.011965
O591	O	1.256172	-0.287215	0.345299
H592	H	0.569519	-0.978084	-0.344588
H593	H	0.902852	-0.644751	-0.011255
H594	H	1.236186	-0.311418	0.322078
H595	H	0.568272	-0.603502	-0.345930
H596	H	0.901606	-0.270169	-0.012597
H597	H	1.234939	0.063164	0.320737
H598	H	0.596964	-0.472804	-0.312498
H599	H	0.930297	-0.139470	0.020836
H600	H	1.263630	0.193863	0.354169
