data_functionalizedCrystal
_audit_creation_method	'MofGen! by Chris Wilmer'
_symmetry_space_group_name_H-M	'P1'
_symmetry_Int_Tables_number	1
_symmetry_cell_setting	triclinic
loop_
_symmetry_equiv_pos_as_xyz
  x,y,z
_cell_length_a	13.897449
_cell_length_b	11.169416
_cell_length_c	11.169409
_cell_angle_alpha	90.030874
_cell_angle_beta	89.977985
_cell_angle_gamma	89.988380
loop_
_atom_site_label
_atom_site_type_symbol
_atom_site_fract_x
_atom_site_fract_y
_atom_site_fract_z
Zn1	Zn	1.474764	0.477669	-0.678625
Zn2	Zn	1.808097	0.811002	-0.345292
Zn3	Zn	2.141431	1.144336	-0.011958
Zn4	Zn	1.474675	0.678409	-0.477947
Zn5	Zn	1.808009	1.011743	-0.144614
Zn6	Zn	2.141342	1.345076	0.188720
Zn7	Zn	1.313450	0.477743	-0.477952
Zn8	Zn	1.646783	0.811077	-0.144618
Zn9	Zn	1.980116	1.144410	0.188715
Zn10	Zn	1.313456	0.678313	-0.678584
Zn11	Zn	1.646789	1.011646	-0.345251
Zn12	Zn	1.980122	1.344980	-0.011918
O13	O	1.394086	0.578034	-0.578277
O14	O	1.727419	0.911367	-0.244944
O15	O	2.060753	1.244700	0.088390
O16	O	1.609734	0.504307	-0.652020
O17	O	1.943067	0.837640	-0.318687
O18	O	2.276401	1.170973	0.014647
O19	O	1.453249	0.651862	-0.309998
O20	O	1.786582	0.985196	0.023335
O21	O	2.119915	1.318529	0.356669
O22	O	1.334883	0.309784	-0.504591
O23	O	1.668216	0.643117	-0.171257
O24	O	2.001550	0.976451	0.162076
O25	O	1.609669	0.651790	-0.504583
O26	O	1.943002	0.985123	-0.171249
O27	O	2.276335	1.318457	0.162084
O28	O	1.453400	0.309729	-0.652024
O29	O	1.786733	0.643062	-0.318691
O30	O	2.120067	0.976396	0.014642
O31	O	1.334797	0.504434	-0.310001
O32	O	1.668130	0.837767	0.023332
O33	O	2.001463	1.171100	0.356665
O34	O	1.178469	0.504340	-0.504551
O35	O	1.511802	0.837674	-0.171218
O36	O	1.845135	1.171007	0.162116
O37	O	1.334893	0.651626	-0.846540
O38	O	1.668227	0.984959	-0.513206
O39	O	2.001560	1.318292	-0.179873
O40	O	1.178473	0.651698	-0.651955
O41	O	1.511807	0.985031	-0.318622
O42	O	1.845140	1.318365	0.014712
O43	O	1.453406	0.504213	-0.846570
O44	O	1.786739	0.837547	-0.513236
O45	O	2.120073	1.170880	-0.179903
O46	O	1.453254	0.846346	-0.504543
O47	O	1.786588	1.179680	-0.171210
O48	O	2.119921	1.513013	0.162124
O49	O	1.334807	0.846276	-0.651950
O50	O	1.668140	1.179609	-0.318617
O51	O	2.001474	1.512942	0.014716
C52	C	1.143472	0.578018	-0.578250
C53	C	1.476805	0.911351	-0.244916
C54	C	1.810138	1.244684	0.088417
C55	C	1.036258	0.578040	-0.578267
C56	C	1.369591	0.911373	-0.244933
C57	C	1.702925	1.244706	0.088400
C58	C	1.394048	0.889858	-0.578268
C59	C	1.727381	1.223192	-0.244935
C60	C	2.060715	1.556525	0.088399
C61	C	1.394120	1.023258	-0.578304
C62	C	1.727453	1.356592	-0.244971
C63	C	2.060786	1.689925	0.088362
C64	C	1.394160	0.577900	-0.891320
C65	C	1.727494	0.911234	-0.557986
C66	C	2.060827	1.244567	-0.224653
C67	C	1.394192	0.577844	-1.024720
C68	C	1.727525	0.911177	-0.691386
C69	C	2.060858	1.244510	-0.358053
C70	C	0.839963	0.578044	-0.578298
C71	C	1.173296	0.911377	-0.244965
C72	C	1.506629	1.244711	0.088369
C73	C	0.949195	0.578038	-0.578277
C74	C	1.282529	0.911371	-0.244944
C75	C	1.615862	1.244705	0.088390
C76	C	1.645679	0.578051	-0.578305
C77	C	1.979012	0.911384	-0.244972
C78	C	2.312346	1.244717	0.088361
C79	C	1.752893	0.578058	-0.578317
C80	C	2.086226	0.911391	-0.244984
C81	C	2.419560	1.244725	0.088349
C82	C	1.394151	0.264991	-0.578313
C83	C	1.727484	0.598325	-0.244979
C84	C	2.060817	0.931658	0.088354
C85	C	1.394178	0.131591	-0.578328
C86	C	1.727512	0.464925	-0.244994
C87	C	2.060845	0.798258	0.088339
C88	C	1.394068	0.578080	-0.266452
C89	C	1.727401	0.911413	0.066881
C90	C	2.060735	1.244747	0.400214
C91	C	1.394223	0.577799	-0.133053
C92	C	1.727556	0.911132	0.200280
C93	C	2.060890	1.244465	0.533614
