data_functionalizedCrystal
_audit_creation_method	'MofGen! by Chris Wilmer'
_symmetry_space_group_name_H-M	'P1'
_symmetry_Int_Tables_number	1
_symmetry_cell_setting	triclinic
loop_
_symmetry_equiv_pos_as_xyz
  x,y,z
_cell_length_a	15.995350
_cell_length_b	11.792254
_cell_length_c	10.268362
_cell_angle_alpha	89.995475
_cell_angle_beta	90.001163
_cell_angle_gamma	96.154514
loop_
_atom_site_label
_atom_site_type_symbol
_atom_site_fract_x
_atom_site_fract_y
_atom_site_fract_z
O1	O	-0.114814	1.505943	-0.108286
O2	O	0.385186	2.005943	0.391714
O3	O	-0.126630	1.175505	-0.108288
O4	O	0.373370	1.675505	0.391712
O5	O	0.001124	1.349756	-0.108292
O6	O	0.501124	1.849756	0.391708
O7	O	-0.242568	1.331691	-0.108282
O8	O	0.257432	1.831691	0.391718
O9	O	0.001130	1.349741	0.108309
O10	O	0.501130	1.849741	0.608309
O11	O	-0.126625	1.175490	0.108313
O12	O	0.373375	1.675490	0.608313
O13	O	-0.114809	1.505927	0.108314
O14	O	0.385191	2.005927	0.608314
Cu15	Cu	-0.120716	1.340707	0.128091
Cu16	Cu	0.379284	1.840707	0.628091
Cu17	Cu	-0.120723	1.340725	-0.128064
Cu18	Cu	0.379277	1.840725	0.371936
O19	O	-0.242563	1.331676	0.108319
O20	O	0.257437	1.831676	0.608319
C21	C	-0.125883	1.133213	0.000012
C22	C	0.374117	1.633213	0.500012
C23	C	-0.123655	1.007218	0.000011
C24	C	0.376345	1.507218	0.500011
C25	C	-0.121845	0.904897	0.000005
C26	C	0.378155	1.404897	0.500005
C27	C	-0.119581	0.776529	0.000004
C28	C	0.380419	1.276529	0.500004
C29	C	-0.273764	1.332430	0.000019
C30	C	0.226236	1.832430	0.500019
C31	C	-0.366725	1.334669	0.000023
C32	C	0.133275	1.834669	0.500023
C33	C	-0.704509	1.342710	0.000003
C34	C	-0.204509	1.842710	0.500003
C35	C	-0.657642	1.466809	-0.000480
C36	C	-0.157642	1.966809	0.499520
C37	C	-0.560942	1.464570	0.000015
C38	C	-0.060942	1.964570	0.500015
C39	C	-0.536930	1.338722	0.000012
C40	C	-0.036930	1.838722	0.500012
C41	C	-0.577730	1.277503	0.123697
C42	C	-0.077730	1.777503	0.623697
C43	C	-0.674380	1.280621	0.123793
C44	C	-0.174380	1.780621	0.623793
C45	C	-0.674722	1.278074	-0.122522
C46	C	-0.174722	1.778074	0.377478
C47	C	-0.577776	1.278104	-0.124150
C48	C	-0.077776	1.778104	0.375850
C49	C	-0.442222	1.336461	0.000022
C50	C	0.057778	1.836461	0.500022
C51	C	-0.799217	1.344967	0.000002
C52	C	-0.299217	1.844967	0.500002
C53	C	0.032325	1.349002	0.000004
C54	C	0.532325	1.849002	0.500004
C55	C	0.125286	1.346763	-0.000008
C56	C	0.625286	1.846763	0.499992
C57	C	-0.115556	1.548220	0.000012
C58	C	0.384444	2.048220	0.500012
C59	C	-0.117784	1.674214	0.000004
C60	C	0.382216	2.174214	0.500004
N61	N	-0.120711	1.340703	0.308257
N62	N	0.379289	1.840703	0.808257
N63	N	-0.120721	1.340738	-0.308230
N64	N	0.379279	1.840738	0.191770
C65	C	-0.120721	1.340719	0.573927
C66	C	0.379279	1.840719	1.073927
C67	C	-0.120718	1.340707	0.426089
C68	C	0.379282	1.840707	0.926089
H69	H	-0.532738	1.512697	-0.088642
H70	H	-0.032738	2.012697	0.411358
H71	H	-0.533301	1.512998	0.088835
H72	H	-0.033301	2.012998	0.588835
Cl73	Cl	-0.702957	1.349524	0.266543
Cl74	Cl	-0.202957	1.849524	0.766543
Cl75	Cl	-0.555272	1.134755	0.130802
Cl76	Cl	-0.055272	1.634755	0.630802
H77	H	-0.706211	1.189510	0.129414
H78	H	-0.206211	1.689510	0.629414
Cl79	Cl	-0.723107	1.136808	-0.123812
Cl80	Cl	-0.223107	1.636808	0.376188
Cl81	Cl	-0.534225	1.343137	0.265818
Cl82	Cl	-0.034225	1.843137	0.765818
Cl83	Cl	-0.706725	1.340718	-0.267265
Cl84	Cl	-0.206725	1.840718	0.232735
Cl85	Cl	-0.535940	1.347112	-0.265425
Cl86	Cl	-0.035940	1.847112	0.234575
H87	H	-0.676389	1.516410	-0.089191
H88	H	-0.176389	2.016410	0.410809
Cl89	Cl	-0.553325	1.136455	-0.135777
Cl90	Cl	-0.053325	1.636455	0.364223
H91	H	-0.677541	1.516229	0.087637
H92	H	-0.177541	2.016229	0.587637
