data_functionalizedCrystal
_audit_creation_method	'MofGen! by Chris Wilmer'
_symmetry_space_group_name_H-M	'P1'
_symmetry_Int_Tables_number	1
_symmetry_cell_setting	triclinic
loop_
_symmetry_equiv_pos_as_xyz
  x,y,z
_cell_length_a	19.805407
_cell_length_b	18.101395
_cell_length_c	19.805399
_cell_angle_alpha	90.025118
_cell_angle_beta	90.019573
_cell_angle_gamma	90.031104
loop_
_atom_site_label
_atom_site_type_symbol
_atom_site_fract_x
_atom_site_fract_y
_atom_site_fract_z
Zn1	Zn	1.034714	-0.294847	0.382731
Zn2	Zn	1.534714	0.205153	0.882731
Zn3	Zn	1.034619	-0.418690	0.269548
Zn4	Zn	1.534619	0.081310	0.769548
Zn5	Zn	0.921528	-0.294867	0.269556
Zn6	Zn	1.421528	0.205133	0.769556
Zn7	Zn	0.921482	-0.418651	0.382695
Zn8	Zn	1.421482	0.081349	0.882695
O9	O	0.978086	-0.356764	0.326132
O10	O	1.478086	0.143236	0.826132
O11	O	1.129418	-0.311283	0.367729
O12	O	1.629418	0.188717	0.867729
O13	O	1.019597	-0.402290	0.174832
O14	O	1.519597	0.097710	0.674832
O15	O	0.936601	-0.191232	0.284587
O16	O	1.436601	0.308768	0.784587
O17	O	1.129348	-0.402270	0.284574
O18	O	1.629348	0.097730	0.784574
O19	O	1.019758	-0.191217	0.367737
O20	O	1.519758	0.308783	0.867737
O21	O	0.936510	-0.311318	0.174838
O22	O	1.436510	0.188682	0.674838
O23	O	0.826806	-0.311279	0.284552
O24	O	1.326806	0.188721	0.784552
O25	O	0.936523	-0.402203	0.477416
O26	O	1.436523	0.097797	0.977416
O27	O	0.826772	-0.402223	0.367674
O28	O	1.326772	0.097777	0.867674
O29	O	1.019714	-0.311245	0.477443
O30	O	1.519714	0.188755	0.977443
O31	O	1.019553	-0.522318	0.284538
O32	O	1.519553	-0.022318	0.784538
O33	O	0.936432	-0.522289	0.367667
O34	O	1.436432	-0.022289	0.867667
C35	C	0.802230	-0.356750	0.326110
C36	C	1.302230	0.143250	0.826110
C37	C	0.726998	-0.356761	0.326117
C38	C	1.226998	0.143239	0.826117
C39	C	0.691654	-0.404187	0.369329
C40	C	1.191654	0.095813	0.869329
C41	C	0.620965	-0.404188	0.369339
C42	C	1.120965	0.095812	0.869339
C43	C	0.585622	-0.356767	0.326132
C44	C	1.085622	0.143233	0.826132
C45	C	0.620971	-0.309336	0.282919
C46	C	1.120971	0.190664	0.782919
C47	C	0.691658	-0.309332	0.282913
C48	C	1.191658	0.190668	0.782913
C49	C	0.335898	-0.309353	0.282941
C50	C	0.835898	0.190647	0.782941
C51	C	0.265206	-0.309363	0.282948
C52	C	0.765206	0.190637	0.782948
C53	C	0.265205	-0.404209	0.369367
C54	C	0.765205	0.095791	0.869367
C55	C	0.335892	-0.404205	0.369361
C56	C	0.835892	0.095795	0.869361
C57	C	0.371235	-0.356771	0.326150
C58	C	0.871235	0.143229	0.826150
C59	C	0.447883	-0.356770	0.326141
C60	C	0.947883	0.143230	0.826141
C61	C	0.508975	-0.356772	0.326137
C62	C	1.008975	0.143228	0.826137
C63	C	0.977995	-0.549174	0.326112
C64	C	1.477995	-0.049174	0.826112
C65	C	0.978018	-0.631489	0.326127
C66	C	1.478018	-0.131489	0.826127
C67	C	0.978167	-0.930579	0.326163
C68	C	1.478167	-0.430579	0.826163
C69	C	0.925991	-0.899267	0.378595
C70	C	1.425991	-0.399267	0.878595
C71	C	0.925743	-0.813649	0.378431
C72	C	1.425743	-0.313649	0.878431
C73	C	0.978093	-0.782197	0.326146
C74	C	1.478093	-0.282197	0.826146
C75	C	0.958782	-0.813345	0.254811
C76	C	1.458782	-0.313345	0.754811
C77	C	0.958446	-0.898990	0.255125
C78	C	1.458446	-0.398990	0.755125
C79	C	1.049768	-0.898924	0.344438
C80	C	1.549768	-0.398924	0.844438
C81	C	1.049347	-0.813273	0.346002
C82	C	1.549347	-0.313273	0.846002
C83	C	0.978053	-0.698337	0.326131
C84	C	1.478053	-0.198337	0.826131
C85	C	0.978206	-1.014439	0.326173
C86	C	1.478206	-0.514439	0.826173
C87	C	1.154629	-0.356779	0.326155
C88	C	1.654629	0.143221	0.826155
C89	C	1.229861	-0.356785	0.326164
C90	C	1.729861	0.143215	0.826164
C91	C	0.978124	-0.356717	0.502675
C92	C	1.478124	0.143283	1.002675
C93	C	0.978140	-0.356697	0.577907
C94	C	1.478140	0.143303	1.077907
C95	C	0.978195	-0.163602	0.326167
C96	C	1.478195	0.336398	0.826167
C97	C	0.978242	-0.081288	0.326182
C98	C	1.478242	0.418712	0.826182
C99	C	0.978087	-0.356757	0.150276
C100	C	1.478087	0.143243	0.650276
C101	C	0.978202	-0.356568	0.075045
C102	C	1.478202	0.143432	0.575045
C103	C	1.021458	-0.309333	0.613266
C104	C	1.521458	0.190667	1.113266
C105	C	1.021465	-0.309311	0.683955
C106	C	1.521465	0.190689	1.183955
C107	C	0.978157	-0.356659	0.719283
C108	C	1.478157	0.143341	1.219283
C109	C	0.934834	-0.404025	0.683919
C110	C	1.434834	0.095975	1.183919
C111	C	0.934824	-0.404042	0.613231
C112	C	1.434824	0.095958	1.113231
C113	C	0.934872	-0.403956	0.968992
C114	C	1.434872	0.096044	1.468992
C115	C	0.934887	-0.403937	1.039684
C116	C	1.434887	0.096063	1.539684
C117	C	1.021513	-0.309225	1.039716
C118	C	1.521513	0.190775	1.539716
C119	C	1.021503	-0.309242	0.969028
C120	C	1.521503	0.190758	1.469028
C121	C	0.978178	-0.356606	0.933670
C122	C	1.478178	0.143394	1.433670
C123	C	0.978170	-0.356628	0.857022
C124	C	1.478170	0.143372	1.357022
C125	C	0.978168	-0.356641	0.795930
C126	C	1.478168	0.143359	1.295930
H127	H	0.364665	-0.442822	0.404542
H128	H	0.864665	0.057178	0.904542
N129	N	0.729780	-0.258185	0.236300
N130	N	1.229780	0.241815	0.736300
H131	H	0.779923	-0.265376	0.242853
H132	H	1.279923	0.234624	0.742853
H133	H	0.717452	-0.205311	0.246921
H134	H	1.217452	0.294689	0.746921
N135	N	0.941741	-0.785742	0.448493
N136	N	1.441741	-0.285742	0.948493
H137	H	0.949018	-0.829076	0.479763
H138	H	1.449018	-0.329076	0.979763
H139	H	0.902866	-0.754860	0.465559
H140	H	1.402866	-0.254860	0.965559
H141	H	1.056741	-0.270744	0.712741
H142	H	1.556741	0.229256	1.212741
H143	H	0.937953	-0.919817	0.431660
H144	H	1.437953	-0.419817	0.931660
H145	H	1.056772	-0.270690	0.940268
H146	H	1.556772	0.229310	1.440268
H147	H	0.592189	-0.270722	0.247742
H148	H	1.092189	0.229278	0.747742
N149	N	1.007533	-0.786366	0.201647
N150	N	1.507533	-0.286366	0.701647
H151	H	1.042690	-0.753613	0.223345
H152	H	1.542690	-0.253613	0.723345
H153	H	0.982096	-0.757380	0.166284
H154	H	1.482096	-0.257380	0.666284
N155	N	1.068243	-0.258136	1.077851
N156	N	1.568243	0.241864	1.577851
H157	H	1.061678	-0.265305	1.127992
H158	H	1.561678	0.234695	1.627992
H159	H	1.057739	-0.205248	1.065501
H160	H	1.557739	0.294752	1.565501
H161	H	0.236420	-0.442829	0.404554
H162	H	0.736420	0.057171	0.904554
H163	H	0.899617	-0.442494	1.068446
H164	H	1.399617	0.057506	1.568446
N165	N	0.888096	-0.455121	0.575090
N166	N	1.388096	0.044879	1.075090
H167	H	0.860661	-0.485112	0.608195
H168	H	1.360661	0.014888	1.108195
H169	H	0.915618	-0.489404	0.545757
H170	H	1.415618	0.010596	1.045757
N171	N	1.101263	-0.925748	0.293860
N172	N	1.601263	-0.425748	0.793860
H173	H	1.147162	-0.905236	0.305854
H174	H	1.647162	-0.405236	0.805854
H175	H	1.088081	-0.908473	0.247203
H176	H	1.588081	-0.408473	0.747203
H177	H	0.364665	-0.270735	0.247751
H178	H	0.864665	0.229265	0.747751
H179	H	0.873241	-0.920853	0.366642
H180	H	1.373241	-0.420853	0.866642
H181	H	0.236431	-0.270742	0.247765
H182	H	0.736431	0.229258	0.747765
N183	N	0.889117	-0.925550	0.234627
N184	N	1.389117	-0.425550	0.734627
H185	H	0.892779	-0.956653	0.192439
H186	H	1.392779	-0.456653	0.692439
H187	H	0.859097	-0.881585	0.225508
H188	H	1.359097	-0.381585	0.725508
N189	N	0.888123	-0.455014	0.930861
N190	N	1.388123	0.044986	1.430861
H191	H	0.860685	-0.484998	0.963969
H192	H	1.360685	0.015002	1.463969
H193	H	0.915625	-0.489305	0.901516
H194	H	1.415625	0.010695	1.401516
H195	H	0.899569	-0.442573	0.712688
H196	H	1.399569	0.057427	1.212688
N197	N	0.582844	-0.455350	0.415936
N198	N	1.082844	0.044650	0.915936
H199	H	0.615959	-0.485398	0.443299
H200	H	1.115959	0.014602	0.943299
H201	H	0.553493	-0.489578	0.388320
H202	H	1.053493	0.010422	0.888320
H203	H	0.720425	-0.442805	0.404510
H204	H	1.220425	0.057195	0.904510
N205	N	0.855446	-0.786586	0.362392
N206	N	1.355446	-0.286586	0.862392
H207	H	0.824499	-0.830293	0.355396
H208	H	1.324499	-0.330293	0.855396
H209	H	0.856662	-0.755730	0.319935
H210	H	1.356662	-0.255730	0.819935
N211	N	0.890187	-0.785019	0.233938
N212	N	1.390187	-0.285019	0.733938
H213	H	0.855261	-0.801439	0.267921
H214	H	1.355261	-0.301439	0.767921
H215	H	0.878269	-0.805375	0.187964
H216	H	1.378269	-0.305375	0.687964
H217	H	0.994801	-0.919706	0.214727
H218	H	1.494801	-0.419706	0.714727
N219	N	1.073105	-0.927467	0.412161
N220	N	1.573105	-0.427467	0.912161
H221	H	1.039990	-0.911896	0.448224
H222	H	1.539990	-0.411896	0.948224
H223	H	1.119144	-0.906458	0.422818
H224	H	1.619144	-0.406458	0.922818
N225	N	1.068644	-0.786305	0.415541
N226	N	1.568644	-0.286305	0.915541
H227	H	1.031392	-0.754091	0.434109
H228	H	1.531392	-0.254091	0.934109
H229	H	1.111817	-0.756760	0.412635
H230	H	1.611817	-0.256760	0.912635
H231	H	1.090278	-0.791859	0.310597
H232	H	1.590278	-0.291859	0.810597
H233	H	1.056727	-0.270779	0.584508
H234	H	1.556727	0.229221	1.084508
