data_functionalizedCrystal
_audit_creation_method	'MofGen! by Chris Wilmer'
_symmetry_space_group_name_H-M	'P1'
_symmetry_Int_Tables_number	1
_symmetry_cell_setting	triclinic
loop_
_symmetry_equiv_pos_as_xyz
  x,y,z
_cell_length_a	14.853567
_cell_length_b	16.109301
_cell_length_c	15.186229
_cell_angle_alpha	90.000638
_cell_angle_beta	90.000050
_cell_angle_gamma	96.451795
loop_
_atom_site_label
_atom_site_type_symbol
_atom_site_fract_x
_atom_site_fract_y
_atom_site_fract_z
O1	O	0.115881	-1.103293	-0.073165
O2	O	0.130302	-0.861252	-0.073178
O3	O	-0.008149	-0.988738	-0.073174
O4	O	0.254332	-0.975807	-0.073170
O5	O	-0.008151	-0.988729	0.073283
O6	O	0.130300	-0.861243	0.073279
O7	O	0.115879	-1.103285	0.073292
Zn8	Zn	0.123089	-0.982263	0.096539
Zn9	Zn	0.123092	-0.982274	-0.096425
O10	O	0.254330	-0.975799	0.073288
C11	C	0.129717	-0.830272	0.000048
C12	C	0.127965	-0.737974	0.000043
C13	C	-0.041738	-0.988148	0.000052
C14	C	-0.141819	-0.986392	0.000044
C15	C	0.116464	-1.134265	0.000063
C16	C	0.118215	-1.226563	0.000063
C17	C	-0.554215	-0.903241	0.000056
C18	C	-0.575746	-1.054697	0.000064
C19	C	-0.481715	-1.056348	0.000059
C20	C	-0.423930	-0.981444	0.000054
C21	C	-0.460175	-0.904889	0.000054
C22	C	-0.445463	-1.132901	0.000068
C23	C	-0.351426	-1.134555	0.000064
C24	C	-0.293639	-1.059650	0.000053
C25	C	-0.329890	-0.983093	0.000052
C26	C	-0.272104	-0.908189	0.000046
C27	C	-0.308353	-0.831630	0.000039
C28	C	-0.402388	-0.829984	0.000042
C29	C	-0.199604	-1.061296	0.000049
C30	C	-0.178064	-0.909837	0.000044
C31	C	0.287918	-0.976389	0.000060
C32	C	0.387999	-0.978145	0.000062
N33	N	0.123087	-0.982261	0.228231
C34	C	0.206047	-0.515811	0.000055
C35	C	0.204395	-0.429089	0.000060
C36	C	0.040127	-0.448732	0.000054
C37	C	0.041781	-0.535453	0.000054
C38	C	0.124743	-0.568990	0.000050
C39	C	0.121437	-0.395546	0.000055
C40	C	0.119645	-0.301518	0.000061
C41	C	0.126536	-0.663025	0.000046
N42	N	0.123087	-0.982282	-0.228118
C43	C	0.061801	-1.038731	0.453956
C44	C	0.061799	-1.038734	0.546146
C45	C	0.184375	-0.925806	0.546151
C46	C	0.184372	-0.925800	0.453963
C47	C	0.123086	-0.982267	0.407868
C48	C	0.123087	-0.982276	0.592246
C49	C	0.123085	-0.982278	0.692202
C50	C	0.123087	-0.982264	0.307905
H51	H	-0.131020	-0.848840	0.000036
O52	O	0.243941	-0.870878	0.590793
C53	C	0.298045	-0.821052	0.530343
H54	H	0.261080	-0.820069	0.464629
H55	H	0.365028	-0.848118	0.520534
C56	C	0.361997	-0.732596	0.647038
C57	C	0.316592	-0.731383	0.566330
H58	H	0.373442	-0.677285	0.669238
H59	H	0.325549	-0.766167	0.687766
H60	H	0.417811	-0.755155	0.638854
H61	H	0.260775	-0.708834	0.574517
H62	H	0.353032	-0.697807	0.525604
O63	O	0.283290	-0.377312	0.000097
C64	C	0.264046	-0.293577	0.000076
H65	H	0.193236	-0.290171	0.027806
H66	H	0.267468	-0.268503	-0.070187
C67	C	0.421026	-0.244765	0.023450
C68	C	0.334059	-0.240581	0.057516
H69	H	0.464215	-0.212072	0.058878
H70	H	0.433992	-0.301178	0.023461
H71	H	0.423865	-0.223870	-0.035102
H72	H	0.331219	-0.261484	0.116062
H73	H	0.321094	-0.184169	0.057516
O74	O	0.002234	-1.093665	0.590779
C75	C	-0.051871	-1.143484	0.530322
H76	H	-0.014906	-1.144461	0.464607
H77	H	-0.118853	-1.116415	0.520518
C78	C	-0.115825	-1.231951	0.647006
C79	C	-0.070420	-1.233156	0.566296
H80	H	-0.127271	-1.287264	0.669197
H81	H	-0.079376	-1.198385	0.687738
H82	H	-0.171638	-1.209389	0.638825
H83	H	-0.014604	-1.255707	0.574480
H84	H	-0.106861	-1.266728	0.525566
O85	O	-0.589314	-0.828823	0.000166
C86	C	-0.559803	-0.783159	0.076025
H87	H	-0.494592	-0.805891	0.101319
H88	H	-0.614222	-0.792720	0.129137
C89	C	-0.622236	-0.661736	0.021908
C90	C	-0.542139	-0.689651	0.052970
H91	H	-0.611344	-0.604055	0.007690
H92	H	-0.642122	-0.692501	-0.029198
H93	H	-0.667577	-0.669711	0.066174
H94	H	-0.496803	-0.681686	0.008701
H95	H	-0.522245	-0.658882	0.104069
H96	H	0.234278	-0.879816	0.416436
H97	H	-0.024431	-0.578754	0.000053
H98	H	-0.261292	-0.770643	0.000041
H99	H	0.011897	-1.084709	0.416427
O100	O	-0.040380	-0.416014	0.000011
C101	C	-0.024408	-0.328068	0.000031
H102	H	0.045954	-0.307784	-0.027692
H103	H	-0.028774	-0.303922	0.070293
C104	C	-0.182528	-0.316934	-0.023359
C105	C	-0.096111	-0.292020	-0.057417
H106	H	-0.226760	-0.294696	-0.058792
H107	H	-0.193290	-0.376184	-0.023369
H108	H	-0.186154	-0.296810	0.035192
H109	H	-0.092483	-0.312152	-0.115962
H110	H	-0.085350	-0.232771	-0.057418
H111	H	-0.170094	-1.123629	0.000061
O112	O	-0.437450	-0.755549	0.000000
C113	C	-0.366287	-0.689788	0.000014
H114	H	-0.302412	-0.713162	-0.027716
H115	H	-0.352971	-0.666673	0.070275
C116	C	-0.471275	-0.588896	-0.023364
C117	C	-0.392825	-0.617602	-0.057430
H118	H	-0.487645	-0.544366	-0.058795
H119	H	-0.519220	-0.633199	-0.023370
H120	H	-0.460169	-0.569640	0.035186
H121	H	-0.403936	-0.636867	-0.115975
H122	H	-0.344882	-0.573300	-0.057436
H123	H	-0.622800	-1.115680	0.000076
H124	H	-0.492518	-1.193884	0.000081
H125	H	-0.321921	-1.196894	0.000069
H126	H	0.273601	-0.543114	0.000058
