data_functionalizedCrystal
_audit_creation_method	'MofGen! by Chris Wilmer'
_symmetry_space_group_name_H-M	'P1'
_symmetry_Int_Tables_number	1
_symmetry_cell_setting	triclinic
loop_
_symmetry_equiv_pos_as_xyz
  x,y,z
_cell_length_a	16.109301
_cell_length_b	17.699083
_cell_length_c	15.186229
_cell_angle_alpha	90.004632
_cell_angle_beta	90.000994
_cell_angle_gamma	83.372299
loop_
_atom_site_label
_atom_site_type_symbol
_atom_site_fract_x
_atom_site_fract_y
_atom_site_fract_z
O1	O	1.102963	0.097285	0.073182
O2	O	1.602963	0.597285	0.573182
O3	O	0.860880	0.109392	0.073195
O4	O	1.360880	0.609392	0.573195
O5	O	0.988761	-0.006841	0.073180
O6	O	1.488761	0.493159	0.573180
O7	O	0.975082	0.213518	0.073196
O8	O	1.475082	0.713518	0.573196
O9	O	0.988752	-0.006842	-0.073277
O10	O	1.488752	0.493158	0.426723
O11	O	0.860872	0.109391	-0.073263
O12	O	1.360872	0.609391	0.426737
O13	O	1.102954	0.097284	-0.073275
O14	O	1.602954	0.597284	0.426725
Zn15	Zn	0.981912	0.103337	-0.096522
Zn16	Zn	1.481912	0.603337	0.403478
Zn17	Zn	0.981923	0.103339	0.096441
Zn18	Zn	1.481923	0.603339	0.596441
O19	O	0.975074	0.213517	-0.073261
O20	O	1.475074	0.713517	0.426739
C21	C	0.829902	0.108901	-0.000033
C22	C	1.329902	0.608901	0.499967
C23	C	0.737609	0.107430	-0.000028
C24	C	1.237609	0.607430	0.499972
C25	C	0.428500	0.171594	-0.000039
C26	C	0.928500	0.671594	0.499961
C27	C	0.515218	0.172983	-0.000033
C28	C	1.015218	0.672983	0.499967
C29	C	0.535329	0.035076	-0.000032
C30	C	1.035329	0.535076	0.499968
C31	C	0.448613	0.033689	-0.000031
C32	C	0.948613	0.533689	0.499969
C33	C	0.395200	0.101950	-0.000039
C34	C	0.895200	0.601950	0.499961
C35	C	0.568634	0.104726	-0.000034
C36	C	1.068634	0.604726	0.499966
C37	C	0.662658	0.106231	-0.000029
C38	C	1.162658	0.606231	0.499971
C39	C	0.301171	0.100445	-0.000043
C40	C	0.801171	0.600445	0.499957
C41	C	0.988267	-0.035039	-0.000049
C42	C	1.488267	0.464961	0.499951
C43	C	0.986796	-0.119059	-0.000049
C44	C	1.486796	0.380941	0.499951
C45	C	1.061859	-0.167573	-0.000054
C46	C	1.561859	0.332427	0.499946
C47	C	1.060473	-0.246518	-0.000046
C48	C	1.560473	0.253482	0.499954
C49	C	0.984022	-0.276948	-0.000039
C50	C	1.484022	0.223052	0.499961
C51	C	0.908953	-0.228428	-0.000032
C52	C	1.408953	0.271572	0.499968
C53	C	0.910340	-0.149485	-0.000033
C54	C	1.410340	0.350515	0.499967
C55	C	0.903356	-0.546799	-0.000024
C56	C	1.403356	-0.046799	0.499976
C57	C	0.901974	-0.625749	-0.000025
C58	C	1.401974	-0.125749	0.499975
C59	C	1.053488	-0.643833	-0.000037
C60	C	1.553488	-0.143833	0.499963
C61	C	1.054876	-0.564889	-0.000039
C62	C	1.554876	-0.064889	0.499961
C63	C	0.979807	-0.516376	-0.000026
C64	C	1.479807	-0.016376	0.499974
C65	C	0.981312	-0.430775	-0.000033
C66	C	1.481312	0.069225	0.499967
C67	C	0.982517	-0.362548	-0.000039
C68	C	1.482517	0.137452	0.499961
C69	C	1.133933	0.097775	-0.000046
C70	C	1.633933	0.597775	0.499954
C71	C	1.226225	0.099245	-0.000045
C72	C	1.726225	0.599245	0.499955
C73	C	0.975568	0.241715	-0.000030
C74	C	1.475568	0.741715	0.499970
C75	C	0.977038	0.325735	-0.000024
C76	C	1.477038	0.825735	0.499976
N77	N	0.981910	0.103335	-0.228215
N78	N	1.481910	0.603335	0.271785
C79	C	1.038555	0.051884	-0.453944
C80	C	1.538555	0.551884	0.046056
C81	C	1.038558	0.051883	-0.546134
C82	C	1.538558	0.551883	-0.046134
C83	C	0.925280	0.154788	-0.546130
C84	C	1.425280	0.654788	-0.046130
C85	C	0.925274	0.154786	-0.453942
C86	C	1.425274	0.654786	0.046058
C87	C	0.981916	0.103335	-0.407852
C88	C	1.481916	0.603335	0.092148
C89	C	0.981925	0.103335	-0.592229
C90	C	1.481925	0.603335	-0.092229
C91	C	0.981927	0.103334	-0.692185
C92	C	1.481927	0.603334	-0.192185
C93	C	0.981913	0.103335	-0.307889
C94	C	1.481913	0.603335	0.192111
N95	N	0.981931	0.103335	0.228134
N96	N	1.481931	0.603335	0.728134
H97	H	0.542326	0.229694	-0.000033
H98	H	1.042326	0.729694	0.499967
H99	H	0.846705	-0.253211	-0.000021
H100	H	1.346705	0.246789	0.499979
O101	O	0.592936	-0.038547	-0.000041
O102	O	1.092936	0.461453	0.499959
H103	H	0.658831	-0.025883	-0.000055
H104	H	1.158831	0.474117	0.499945
H105	H	1.084675	0.009989	-0.416419
H106	H	1.584675	0.509989	0.083581
O107	O	1.099646	-0.003609	-0.595852
O108	O	1.599646	0.496391	-0.095852
H109	H	1.139981	0.028266	-0.637852
H110	H	1.639981	0.528266	-0.137852
H111	H	0.879165	0.196679	-0.583666
H112	H	1.379165	0.696679	-0.083666
O113	O	0.412694	-0.041435	-0.000031
O114	O	0.912694	0.458565	0.499969
H115	H	0.343421	-0.030930	-0.000021
H116	H	0.843421	0.469070	0.499979
O117	O	0.864186	0.210283	-0.404217
O118	O	1.364186	0.710283	0.095783
H119	H	0.824809	0.246069	-0.451753
H120	H	1.324809	0.746069	0.048247
O121	O	1.144318	-0.134753	-0.000053
O122	O	1.644318	0.365247	0.499947
H123	H	1.196280	-0.181754	-0.000044
H124	H	1.696280	0.318246	0.499956
H125	H	0.842230	-0.507309	-0.000014
H126	H	1.342230	-0.007309	0.499986
H127	H	1.121597	-0.286016	-0.000052
H128	H	1.621597	0.213984	0.499948
O129	O	1.137332	-0.532066	-0.000033
O130	O	1.637332	-0.032066	0.499967
H131	H	1.189297	-0.579065	-0.000023
H132	H	1.689297	-0.079065	0.499977
H133	H	1.114613	-0.683342	-0.000043
H134	H	1.614613	-0.183342	0.499957
H135	H	0.385014	0.227177	-0.000044
H136	H	0.885014	0.727177	0.499956
O137	O	0.819513	-0.658575	-0.000011
O138	O	1.319513	-0.158575	0.499989
H139	H	0.767546	-0.611579	0.000006
H140	H	1.267546	-0.111579	0.500006
H141	H	0.849216	-0.109985	-0.000029
H142	H	1.349216	0.390015	0.499971
