data_functionalizedCrystal
_audit_creation_method	'MofGen! by Chris Wilmer'
_symmetry_space_group_name_H-M	'P1'
_symmetry_Int_Tables_number	1
_symmetry_cell_setting	triclinic
loop_
_symmetry_equiv_pos_as_xyz
  x,y,z
_cell_length_a	12.759401
_cell_length_b	17.077402
_cell_length_c	17.077396
_cell_angle_alpha	89.970216
_cell_angle_beta	89.983593
_cell_angle_gamma	90.023044
loop_
_atom_site_label
_atom_site_type_symbol
_atom_site_fract_x
_atom_site_fract_y
_atom_site_fract_z
Zn1	Zn	1.606174	-0.312505	-0.443771
Zn2	Zn	2.106174	0.187495	0.056229
Zn3	Zn	1.606050	-0.443780	-0.312502
Zn4	Zn	2.106050	0.056220	0.187498
Zn5	Zn	1.430482	-0.312532	-0.312526
Zn6	Zn	1.930482	0.187468	0.187474
Zn7	Zn	1.430439	-0.443733	-0.443732
Zn8	Zn	1.930439	0.056267	0.056268
O9	O	1.518286	-0.378137	-0.378133
O10	O	2.018286	0.121863	0.121867
O11	O	1.753178	-0.329927	-0.426364
O12	O	2.253178	0.170073	0.073636
O13	O	1.582726	-0.426400	-0.202658
O14	O	2.082726	0.073600	0.297342
O15	O	1.453858	-0.202682	-0.329962
O16	O	1.953858	0.297318	0.170038
O17	O	1.753087	-0.426374	-0.329921
O18	O	2.253087	0.073626	0.170079
O19	O	1.582938	-0.202661	-0.426387
O20	O	2.082938	0.297339	0.073613
O21	O	1.453738	-0.329973	-0.202676
O22	O	1.953738	0.170027	0.297324
O23	O	1.283456	-0.329928	-0.329925
O24	O	1.783456	0.170072	0.170075
O25	O	1.453785	-0.426294	-0.553585
O26	O	1.953785	0.073706	-0.053585
O27	O	1.283424	-0.426321	-0.426322
O28	O	1.783424	0.073679	0.073678
O29	O	1.582897	-0.329881	-0.553613
O30	O	2.082897	0.170119	-0.053613
O31	O	1.582685	-0.553620	-0.329884
O32	O	2.082685	-0.053620	0.170116
O33	O	1.453665	-0.553586	-0.426298
O34	O	1.953665	-0.053586	0.073702
C35	C	1.518185	-0.582085	-0.378101
C36	C	2.018185	-0.082085	0.121899
C37	C	1.518238	-0.669335	-0.378114
C38	C	2.018238	-0.169335	0.121886
C39	C	1.245319	-0.378123	-0.378122
C40	C	1.745319	0.121877	0.121878
C41	C	1.128542	-0.378136	-0.378136
C42	C	1.628542	0.121864	0.121864
C43	C	1.585487	-0.710317	-0.327965
C44	C	2.085487	-0.210317	0.172035
C45	C	1.585538	-0.792297	-0.327985
C46	C	2.085538	-0.292297	0.172015
C47	C	1.518334	-0.833294	-0.378151
C48	C	2.018334	-0.333294	0.121849
C49	C	1.451082	-0.792307	-0.428306
C50	C	1.951082	-0.292307	0.071694
C51	C	1.451037	-0.710328	-0.428289
C52	C	1.951037	-0.210328	0.071711
C53	C	1.451179	-0.963177	-0.428335
C54	C	1.951179	-0.463177	0.071665
C55	C	1.451223	-1.045161	-0.428351
C56	C	1.951223	-0.545161	0.071649
C57	C	1.585681	-1.045146	-0.328032
C58	C	2.085681	-0.545146	0.171968
C59	C	1.585636	-0.963167	-0.328015
C60	C	2.085636	-0.463167	0.171985
C61	C	1.518382	-0.922185	-0.378169
C62	C	2.018382	-0.422185	0.121831
C63	C	1.073691	-0.428408	-0.428247
C64	C	1.573691	0.071592	0.071753
C65	C	0.963967	-0.428418	-0.428256
C66	C	1.463967	0.071582	0.071744
C67	C	0.963955	-0.327881	-0.328036
C68	C	1.463955	0.172119	0.171964
C69	C	1.073677	-0.327868	-0.328032
C70	C	1.573677	0.172132	0.171968
C71	C	1.073698	-0.486454	-0.486106
C72	C	1.573698	0.013546	0.013894
C73	C	0.963974	-0.486464	-0.486114
C74	C	1.463974	0.013536	0.013886
C75	C	1.792320	-0.378152	-0.378144
C76	C	2.292320	0.121848	0.121856
C77	C	1.909096	-0.378159	-0.378149
C78	C	2.409096	0.121841	0.121851
C79	C	1.518350	-0.378080	-0.582877
C80	C	2.018350	0.121920	-0.082877
C81	C	1.518377	-0.378055	-0.670127
C82	C	2.018377	0.121945	-0.170127
C83	C	1.518417	-0.173393	-0.378181
C84	C	2.018417	0.326607	0.121819
C85	C	1.518472	-0.086143	-0.378202
C86	C	2.018472	0.413857	0.121798
C87	C	1.585608	-0.327849	-0.711133
C88	C	2.085608	0.172151	-0.211133
C89	C	1.585620	-0.327822	-0.793114
C90	C	2.085620	0.172178	-0.293114
C91	C	1.518407	-0.378007	-0.834086
C92	C	2.018407	0.121993	-0.334086
C93	C	1.451169	-0.428216	-0.793075
C94	C	1.951169	0.071784	-0.293075
C95	C	1.451152	-0.428237	-0.711096
C96	C	1.951152	0.071763	-0.211096
C97	C	1.451211	-0.428168	-0.963945
C98	C	1.951211	0.071832	-0.463945
C99	C	1.451229	-0.428148	-1.045929
C100	C	1.951229	0.071852	-0.545929
C101	C	1.585680	-0.327754	-1.045963
C102	C	2.085680	0.172246	-0.545963
C103	C	1.585663	-0.327775	-0.963984
C104	C	2.085663	0.172225	-0.463984
C105	C	1.518426	-0.377985	-0.922978
C106	C	2.018426	0.122015	-0.422978
C107	C	1.518283	-0.378138	-0.174185
C108	C	2.018283	0.121862	0.325815
C109	C	1.518460	-0.377942	-0.086936
C110	C	2.018460	0.122058	0.413064
H111	H	1.640208	-0.676943	-0.287111
H112	H	2.140208	-0.176943	0.212889
Br113	Br	0.907299	-0.450304	-0.582438
Br114	Br	1.407299	0.049696	-0.082438
H115	H	1.396368	-0.825693	-0.469155
H116	H	1.896368	-0.325693	0.030845
Br117	Br	1.148115	-0.259622	-0.260039
Br118	Br	1.648115	0.240378	0.239961
H119	H	1.640369	-0.286941	-0.826497
H120	H	2.140369	0.213059	-0.326497
H121	H	0.934167	-0.547243	-0.469723
H122	H	1.434167	-0.047243	0.030277
Br123	Br	1.676816	-0.847913	-0.259927
Br124	Br	2.176816	-0.347913	0.240073
Br125	Br	1.360000	-0.496249	-1.101536
Br126	Br	1.860000	0.003751	-0.601536
Br127	Br	1.359956	-0.496308	-0.908294
Br128	Br	1.859956	0.003692	-0.408294
H129	H	1.396418	-0.929812	-0.469179
H130	H	1.896418	-0.429812	0.030821
Br131	Br	1.676839	-0.259743	-0.655535
Br132	Br	2.176839	0.240257	-0.155535
Br133	Br	1.359773	-0.654708	-0.496356
Br134	Br	1.859773	-0.154708	0.003644
H135	H	1.640425	-0.286870	-1.079354
H136	H	2.140425	0.213130	-0.579354
Br137	Br	0.889488	-0.259662	-0.260042
Br138	Br	1.389488	0.240338	0.239958
Br139	Br	1.676891	-0.259674	-0.908377
Br140	Br	2.176891	0.240326	-0.408377
H141	H	1.103506	-0.470248	-0.546930
H142	H	1.603506	0.029752	-0.046930
Br143	Br	1.676840	-0.907529	-0.259930
Br144	Br	2.176840	-0.407529	0.240070
H145	H	1.396438	-0.469074	-0.826441
H146	H	1.896438	0.030926	-0.326441
Br147	Br	1.130385	-0.582680	-0.449712
Br148	Br	1.630385	-0.082680	0.050288
Br149	Br	1.359900	-0.496372	-0.655443
Br150	Br	1.859900	0.003628	-0.155443
H151	H	1.640445	-1.078518	-0.287197
H152	H	2.140445	-0.578518	0.212803
H153	H	1.396519	-1.078539	-0.469215
H154	H	1.896519	-0.578539	0.030785
