data_functionalizedCrystal
_audit_creation_method	'MofGen! by Chris Wilmer'
_symmetry_space_group_name_H-M	'P1'
_symmetry_Int_Tables_number	1
_symmetry_cell_setting	triclinic
loop_
_symmetry_equiv_pos_as_xyz
  x,y,z
_cell_length_a	33.592126
_cell_length_b	33.591377
_cell_length_c	33.588093
_cell_angle_alpha	60.004089
_cell_angle_beta	60.008299
_cell_angle_gamma	59.994549
loop_
_atom_site_label
_atom_site_type_symbol
_atom_site_fract_x
_atom_site_fract_y
_atom_site_fract_z
O1	O	0.055297	-0.581666	0.486338
O2	O	0.020882	-0.452873	0.391864
O3	O	0.102445	-0.534352	0.391775
O4	O	-0.026266	-0.500187	0.486427
O5	O	0.129510	-0.507292	0.418747
O6	O	0.047947	-0.425814	0.418835
O7	O	0.082362	-0.554606	0.513309
Cu8	Cu	0.067626	-0.487739	0.468535
Cu9	Cu	0.035618	-0.519740	0.436638
O10	O	0.000799	-0.473128	0.513398
N11	N	0.090139	-0.465235	0.490972
N12	N	0.013110	-0.542249	0.414202
C13	C	0.124394	-0.431229	0.734914
C14	C	0.334265	-0.431145	0.524799
C15	C	0.124204	-0.431200	0.524965
C16	C	0.124184	-0.221175	0.524955
C17	C	0.158017	-0.322536	0.558710
C18	C	0.158027	-0.397406	0.558711
C19	C	0.176763	-0.378688	0.577408
C20	C	0.258412	-0.364594	0.534386
C21	C	0.309454	-0.381596	0.517340
C22	C	0.309485	-0.464188	0.548836
C23	C	0.258444	-0.447186	0.565883
C24	C	0.170304	-0.297002	0.508532
C25	C	0.153260	-0.245956	0.491537
C26	C	0.111648	-0.245983	0.574901
C27	C	0.128691	-0.297029	0.591896
C28	C	0.107841	-0.385091	0.571080
C29	C	0.090813	-0.402108	0.554078
C30	C	0.174153	-0.443755	0.512351
C31	C	0.191183	-0.426739	0.529347
C32	C	0.107923	-0.385106	0.659111
C33	C	0.090955	-0.402138	0.710156
C34	C	0.174335	-0.443795	0.710087
C35	C	0.191302	-0.426764	0.659041
C36	C	0.158095	-0.397418	0.633555
C37	C	0.232909	-0.397388	0.558656
C38	C	0.105069	-0.449619	0.791057
C39	C	0.390406	-0.449193	0.505789
C40	C	0.104813	-0.449599	0.506607
C41	C	0.105125	-0.165028	0.506915
C42	C	-0.020560	-0.576246	0.169890
C43	C	-0.020889	-0.786183	0.379970
C44	C	-0.020859	-0.576235	0.380063
C45	C	-0.230772	-0.576015	0.379658
C46	C	-0.129417	-0.609898	0.346025
C47	C	-0.054587	-0.609979	0.346172
C48	C	-0.073269	-0.628671	0.327396
C49	C	-0.087401	-0.710299	0.370335
C50	C	-0.070424	-0.761345	0.387369
C51	C	0.012165	-0.761428	0.356003
C52	C	-0.004813	-0.710383	0.338967
C53	C	-0.155001	-0.622196	0.396191
C54	C	-0.206043	-0.605128	0.413125
C55	C	-0.205914	-0.563467	0.329724
C56	C	-0.154872	-0.580535	0.312790
C57	C	-0.066886	-0.559797	0.333828
C58	C	-0.049903	-0.542809	0.350903
C59	C	-0.008321	-0.626180	0.392654
C60	C	-0.025304	-0.643170	0.375585
C61	C	-0.066758	-0.559805	0.245702
C62	C	-0.049671	-0.542819	0.194658
C63	C	-0.008026	-0.626194	0.194706
C64	C	-0.025111	-0.643179	0.245752
C65	C	-0.054479	-0.609983	0.271248
C66	C	-0.054597	-0.684821	0.346135
C67	C	-0.002109	-0.556901	0.113746
C68	C	-0.002869	-0.842328	0.398966
C69	C	-0.002496	-0.556887	0.398501
C70	C	-0.286914	-0.556929	0.397631
N71	N	0.436349	-0.465146	0.490703
O72	O	0.592194	-0.469605	0.374236
O73	O	0.592389	-0.564393	0.502890
O74	O	0.592305	-0.564176	0.421300
O75	O	0.592277	-0.469822	0.455826
O76	O	0.511216	-0.537214	0.448415
O77	O	0.511300	-0.537431	0.530004
O78	O	0.511104	-0.442643	0.401350
Cu79	Cu	0.503798	-0.487575	0.468153
Cu80	Cu	0.599695	-0.519461	0.436087
O81	O	0.511188	-0.442860	0.482940
N82	N	0.667145	-0.541890	0.413532
N83	N	0.090108	-0.119085	0.490958
O84	O	-0.026275	0.036848	0.486394
O85	O	0.102381	0.036888	0.391584
O86	O	0.020751	0.036852	0.391854
O87	O	0.055356	0.036884	0.486124
O88	O	0.047821	-0.044242	0.418876
O89	O	0.129452	-0.044207	0.418606
O90	O	0.000796	-0.044246	0.513417
Cu91	Cu	0.067596	-0.051631	0.468479
Cu92	Cu	0.035582	0.044273	0.436522
O93	O	0.082426	-0.044211	0.513146
N94	N	0.013063	0.111726	0.414043
N95	N	0.090453	-0.465282	0.837001
O96	O	0.085913	-0.581648	0.992925
O97	O	-0.008857	-0.452947	0.992970
O98	O	-0.008635	-0.534562	0.992946
O99	O	0.085691	-0.500033	0.992949
O100	O	0.018365	-0.507512	0.911855
O101	O	0.018143	-0.425898	0.911878
O102	O	0.112912	-0.554598	0.911834
Cu103	Cu	0.067993	-0.487778	0.904452
Cu104	Cu	0.036063	-0.519767	1.000352
O105	O	0.112691	-0.472984	0.911857
N106	N	0.013602	-0.542269	1.067803
C107	C	0.031188	-0.423114	0.392334
C108	C	0.132194	-0.524016	0.392223
C109	C	0.072056	-0.584366	0.512840
C110	C	-0.028950	-0.483464	0.512950
C111	C	0.551868	-0.563965	0.532655
C112	C	0.551766	-0.563697	0.431617
C113	C	0.551623	-0.443070	0.371586
C114	C	0.551728	-0.443339	0.472623
C115	C	0.132090	-0.003555	0.392006
C116	C	0.031035	-0.003698	0.392374
C117	C	-0.028947	-0.003703	0.512961
C118	C	0.072143	-0.003661	0.512626
C119	C	-0.008408	-0.423209	0.952430
C120	C	-0.008128	-0.524272	0.952385
C121	C	0.112464	-0.584336	0.952374
C122	C	0.112190	-0.483267	0.952401
H123	H	0.080878	-0.361206	0.638363
H124	H	0.551560	-0.413310	0.334638
C125	C	0.551714	-0.403294	0.482599
C126	C	0.551774	-0.413278	0.532589
C127	C	0.551760	-0.373233	0.542564
C128	C	0.551687	-0.323204	0.502549
C129	C	0.551627	-0.313218	0.452556
C130	C	0.551641	-0.353263	0.442580
H131	H	0.551828	-0.450314	0.562213
H132	H	0.551804	-0.380626	0.579573
H133	H	0.551676	-0.293560	0.509933
H134	H	0.551573	-0.276181	0.422931
H135	H	0.551597	-0.345870	0.405572
C136	C	0.021027	-0.003709	0.352361
C137	C	0.052582	-0.045817	0.331377
C138	C	0.042574	-0.045827	0.291364
C139	C	0.001011	-0.003730	0.272334
C140	C	-0.030548	0.038382	0.293317
C141	C	-0.020540	0.038392	0.333331
H142	H	0.083352	-0.076983	0.345464
H143	H	0.065936	-0.077001	0.275830
H144	H	-0.006398	-0.003737	0.242713
H145	H	-0.061318	0.069548	0.279230
H146	H	-0.043901	0.069566	0.348864
C147	C	0.079397	-0.217918	0.611400
C148	C	0.098975	-0.224932	0.648087
C149	C	0.066725	-0.196867	0.684585
C150	C	0.014896	-0.161788	0.684396
C151	C	-0.004684	-0.154773	0.647708
C152	C	0.027566	-0.182838	0.611210
H153	H	0.137344	-0.250901	0.648227
H154	H	0.081220	-0.202060	0.711744
H155	H	-0.008977	-0.141012	0.711415
H156	H	-0.043053	-0.128804	0.647568
H157	H	0.013071	-0.177645	0.584051
H158	H	0.168963	-0.003318	0.362168
C159	C	-0.078890	-0.473635	0.553104
C160	C	-0.097396	-0.432149	0.572242
C161	C	-0.147336	-0.422319	0.612396
C162	C	-0.178770	-0.453976	0.633413
C163	C	-0.160264	-0.495465	0.614276
C164	C	-0.110324	-0.505295	0.574122
H165	H	-0.074126	-0.408712	0.556683
H166	H	-0.161034	-0.391606	0.626563
H167	H	-0.215738	-0.446700	0.663138
H168	H	-0.183534	-0.518902	0.629835
H169	H	-0.096625	-0.536008	0.559955
C170	C	0.551941	-0.604168	0.582571
C171	C	0.551981	-0.654116	0.592313
C172	C	0.552054	-0.694320	0.642229
C173	C	0.552086	-0.684575	0.682402
C174	C	0.552045	-0.634624	0.672662
C175	C	0.551973	-0.594421	0.622746
H176	H	0.551958	-0.661332	0.562573
H177	H	0.552084	-0.731296	0.649439
H178	H	0.552140	-0.714336	0.719353
H179	H	0.552069	-0.627409	0.702402
H180	H	0.551942	-0.557445	0.615536
H181	H	-0.065895	-0.003715	0.542725
C182	C	0.082152	-0.003652	0.552641
C183	C	0.132161	-0.003634	0.542631
C184	C	0.142170	-0.003626	0.582645
C185	C	0.102169	-0.003636	0.632669
C186	C	0.052156	-0.003654	0.642681
C187	C	0.042147	-0.003663	0.602667
H188	H	0.161775	-0.003626	0.505598
H189	H	0.179193	-0.003612	0.575234
H190	H	0.109578	-0.003630	0.662290
H191	H	0.022542	-0.003662	0.679713
H192	H	0.005124	-0.003676	0.610078
H193	H	0.142219	-0.621297	0.952354
H194	H	-0.038161	-0.386246	0.952443
H195	H	0.169160	-0.531297	0.362501
C196	C	0.551781	-0.603743	0.421641
C197	C	0.551722	-0.593759	0.371651
C198	C	0.551738	-0.633805	0.361675
C199	C	0.551812	-0.683834	0.401689
C200	C	0.551870	-0.693820	0.451683
C201	C	0.551855	-0.653774	0.461659
H202	H	0.551668	-0.556722	0.342026
H203	H	0.551694	-0.626412	0.324666
H204	H	0.551823	-0.713478	0.394305
H205	H	0.551925	-0.730856	0.481307
H206	H	0.551898	-0.661167	0.498668
C207	C	-0.048146	-0.534232	0.952337
C208	C	-0.038154	-0.584231	0.952298
C209	C	-0.078172	-0.594191	0.952249
C210	C	-0.128182	-0.554152	0.952241
C211	C	-0.138176	-0.504150	0.952280
C212	C	-0.098158	-0.494190	0.952328
H213	H	-0.001132	-0.613873	0.952304
H214	H	-0.070773	-0.631205	0.952220
H215	H	-0.157806	-0.561525	0.952205
H216	H	-0.175199	-0.474508	0.952273
H217	H	-0.105557	-0.457175	0.952357
H218	H	0.141823	-0.475877	0.952395
H219	H	0.201378	-0.467681	0.730833
C220	C	0.035762	-0.388584	0.738262
C221	C	0.003700	-0.403435	0.731271
C222	C	-0.051493	-0.389881	0.759378
C223	C	-0.074623	-0.361475	0.794476
C224	C	-0.042561	-0.346622	0.801468
C225	C	0.012632	-0.360176	0.773361
H226	H	0.020822	-0.424464	0.705288
H227	H	-0.075227	-0.400877	0.754201
H228	H	-0.115480	-0.351442	0.815282
H229	H	-0.059683	-0.325593	0.827451
H230	H	0.036366	-0.349181	0.778538
C231	C	0.071367	-0.352823	0.603377
C232	C	0.034679	-0.372371	0.652622
C233	C	-0.001796	-0.340104	0.684921
C234	C	-0.001583	-0.288288	0.667974
C235	C	0.035106	-0.268737	0.618726
C236	C	0.071581	-0.301004	0.586427
H237	H	0.034521	-0.410731	0.665169
H238	H	-0.028956	-0.354577	0.721378
H239	H	-0.028584	-0.264401	0.691883
H240	H	0.035265	-0.230377	0.606179
H241	H	0.098741	-0.286531	0.549971
C242	C	0.035609	-0.388566	0.567678
C243	C	0.003606	-0.403442	0.621599
C244	C	-0.051597	-0.389901	0.635198
C245	C	-0.074797	-0.361484	0.594875
C246	C	-0.042794	-0.346606	0.540951
C247	C	0.012409	-0.360147	0.527352
H248	H	0.020780	-0.424480	0.651451
H249	H	-0.075287	-0.400915	0.675117
H250	H	-0.115662	-0.351460	0.604942
H251	H	-0.059968	-0.325568	0.511098
H252	H	0.036099	-0.349133	0.487433
C253	C	0.246495	-0.440310	0.630930
C254	C	0.269622	-0.399947	0.595828
C255	C	0.324814	-0.413492	0.567717
C256	C	0.356878	-0.467401	0.574709
C257	C	0.333751	-0.507767	0.609813
C258	C	0.278560	-0.494222	0.637923
H259	H	0.245886	-0.360037	0.590651
H260	H	0.341934	-0.383610	0.541731
H261	H	0.397735	-0.477428	0.553900
H262	H	0.357488	-0.547677	0.614990
H263	H	0.261440	-0.524104	0.663909
H264	H	0.201155	-0.467643	0.488446
C265	C	-0.063432	-0.487610	0.337331
C266	C	-0.044754	-0.468922	0.356115
C267	C	-0.058286	-0.413723	0.342546
C268	C	-0.090496	-0.377211	0.310193
C269	C	-0.109176	-0.395898	0.291408
C270	C	-0.095644	-0.451097	0.304977
H271	H	-0.020909	-0.495951	0.380066
H272	H	-0.044458	-0.399891	0.356452
H273	H	-0.100513	-0.336350	0.300149
H274	H	-0.133021	-0.368869	0.267457
H275	H	-0.109472	-0.464930	0.291071
H276	H	0.232048	-0.436761	0.519270
H277	H	-0.134040	-0.570516	0.271939
H278	H	0.237680	-0.473893	0.585645
H279	H	0.023834	-0.386116	0.362662
C280	C	0.081986	-0.634346	0.552928
C281	C	0.123515	-0.652835	0.572001
C282	C	0.133445	-0.702815	0.612090
C283	C	0.101846	-0.734307	0.633105
C284	C	0.060314	-0.715818	0.614032
C285	C	0.050384	-0.665838	0.573943
H286	H	0.146909	-0.629523	0.556444
H287	H	0.164190	-0.716502	0.626209
H288	H	0.109196	-0.771305	0.662781
H289	H	0.036920	-0.739130	0.629589
H290	H	0.019639	-0.652151	0.559825
C291	C	0.337580	-0.518966	0.556780
C292	C	0.330612	-0.556090	0.608861
C293	C	0.358706	-0.610867	0.616806
C294	C	0.393769	-0.628520	0.572669
C295	C	0.400738	-0.591396	0.520584
C296	C	0.372644	-0.536619	0.512640
H297	H	0.304655	-0.543023	0.641537
H298	H	0.353547	-0.638349	0.655363
H299	H	0.414566	-0.669069	0.578551
H300	H	0.426695	-0.604463	0.487909
H301	H	0.377803	-0.509137	0.474083
C302	C	0.337510	-0.345522	0.490638
C303	C	0.309422	-0.290746	0.482684
C304	C	0.337479	-0.254671	0.455980
C305	C	0.393623	-0.273373	0.437229
C306	C	0.421714	-0.328153	0.445183
C307	C	0.393657	-0.364227	0.471887
H308	H	0.267858	-0.276899	0.496565
H309	H	0.316684	-0.214120	0.450093
H310	H	0.414393	-0.246669	0.417461
H311	H	0.463278	-0.341999	0.431302
H312	H	0.414452	-0.404779	0.477774
H313	H	-0.226640	-0.539563	0.302661
C314	C	0.230326	-0.309817	0.526437
C315	C	0.195264	-0.292159	0.570571
C316	C	0.167178	-0.237381	0.562622
C317	C	0.174152	-0.200260	0.510539
C318	C	0.209215	-0.217917	0.466402
C319	C	0.237302	-0.272695	0.474351
H320	H	0.190100	-0.319639	0.609129
H321	H	0.141222	-0.224310	0.595296
H322	H	0.153361	-0.159710	0.504655
H323	H	0.214380	-0.190437	0.427844
H324	H	0.263258	-0.285766	0.441677
C325	C	0.202561	-0.325061	0.472031
C326	C	0.216069	-0.296972	0.416834
C327	C	0.248327	-0.325031	0.380331
C328	C	0.267077	-0.381179	0.399023
C329	C	0.253569	-0.409271	0.454223
C330	C	0.221310	-0.381212	0.490726
H331	H	0.202190	-0.255406	0.402995
H332	H	0.258327	-0.304236	0.339469
H333	H	0.290956	-0.401950	0.372001
H334	H	0.267448	-0.450838	0.468062
H335	H	0.211311	-0.402008	0.531588
H336	H	0.118680	-0.317820	0.632757
C337	C	0.166774	-0.217865	0.436338
C338	C	0.126393	-0.182778	0.413214
C339	C	0.139908	-0.154688	0.358015
C340	C	0.193805	-0.161685	0.325940
C341	C	0.234190	-0.196773	0.349063
C342	C	0.220674	-0.224863	0.404262
H343	H	0.086492	-0.177597	0.436959
H344	H	0.110012	-0.128713	0.340898
H345	H	0.203810	-0.140891	0.285079
H346	H	0.274091	-0.201954	0.325319
H347	H	0.250570	-0.250838	0.421379
C348	C	-0.063189	-0.487618	0.166563
C349	C	-0.095494	-0.451108	0.194612
C350	C	-0.109011	-0.395908	0.166515
C351	C	-0.090223	-0.377219	0.110369
C352	C	-0.057915	-0.413731	0.082317
C353	C	-0.044398	-0.468930	0.110414
H354	H	-0.109404	-0.464942	0.236177
H355	H	-0.132927	-0.368880	0.187281
H356	H	-0.100229	-0.336358	0.089570
H357	H	-0.044005	-0.399897	0.040752
H358	H	-0.020482	-0.495958	0.089648
H359	H	0.015877	-0.653227	0.173952
C360	C	-0.011602	-0.698379	0.273852
C361	C	0.042290	-0.730471	0.266919
C362	C	0.055799	-0.785670	0.295018
C363	C	0.015416	-0.808777	0.330049
C364	C	-0.038480	-0.776684	0.336983
C365	C	-0.051989	-0.721485	0.308885
H366	H	0.072188	-0.713366	0.240985
H367	H	0.095697	-0.809426	0.289884
H368	H	0.025416	-0.849638	0.350849
H369	H	-0.068378	-0.793789	0.362917
H370	H	-0.091887	-0.697729	0.314018
H371	H	-0.090673	-0.532769	0.266460
H372	H	-0.090726	-0.532768	0.309877
H373	H	-0.015291	-0.684031	0.385637
C374	C	0.023896	-0.662699	0.424999
C375	C	0.073125	-0.699460	0.405521
C376	C	0.105344	-0.735984	0.437866
C377	C	0.088333	-0.735746	0.489689
C378	C	0.039102	-0.698983	0.509170
C379	C	0.006883	-0.662459	0.476825
H380	H	0.085720	-0.699638	0.367156
H381	H	0.141788	-0.763198	0.423445
H382	H	0.112183	-0.762783	0.513633
H383	H	0.026507	-0.698805	0.547535
H384	H	-0.029561	-0.635245	0.491247
C385	C	0.031274	-0.682354	0.312349
C386	C	0.062237	-0.689398	0.338530
C387	C	0.098323	-0.661370	0.311911
C388	C	0.103447	-0.626297	0.259110
C389	C	0.072483	-0.619251	0.232925
C390	C	0.036396	-0.647280	0.259545
H391	H	0.058445	-0.715363	0.377620
H392	H	0.121245	-0.666586	0.331295
H393	H	0.130160	-0.605549	0.239405
H394	H	0.076275	-0.593287	0.193836
H395	H	0.013475	-0.642064	0.240161
C396	C	0.066927	-0.789551	0.348125
C397	C	0.103014	-0.761525	0.321506
C398	C	0.157775	-0.789647	0.313628
C399	C	0.176450	-0.845795	0.332369
C400	C	0.140362	-0.873824	0.358989
C401	C	0.085601	-0.845702	0.366867
H402	H	0.089190	-0.719958	0.307632
H403	H	0.184489	-0.768898	0.293922
H404	H	0.216987	-0.866613	0.326537
H405	H	0.154186	-0.915391	0.372863
H406	H	0.058887	-0.866451	0.386573
H407	H	-0.127938	-0.689491	0.376175
C408	C	-0.106509	-0.789374	0.413992
C409	C	-0.161270	-0.761256	0.421879
C410	C	-0.197355	-0.789287	0.448503
C411	C	-0.178680	-0.845434	0.467239
C412	C	-0.123917	-0.873555	0.459353
C413	C	-0.087831	-0.845525	0.432729
H414	H	-0.175096	-0.719690	0.408009
H415	H	-0.237895	-0.768470	0.454341
H416	H	-0.205393	-0.866184	0.486948
H417	H	-0.110090	-0.915122	0.473223
H418	H	-0.047292	-0.866342	0.426891
H419	H	-0.134277	-0.646110	0.423254
C420	C	-0.234192	-0.618650	0.468311
C421	C	-0.227224	-0.603807	0.500400
C422	C	-0.255373	-0.617328	0.555585
C423	C	-0.290490	-0.645691	0.578680
C424	C	-0.297460	-0.660535	0.546590
C425	C	-0.269311	-0.647015	0.491406
H426	H	-0.201227	-0.582809	0.483304
H427	H	-0.250213	-0.606339	0.579340
H428	H	-0.311327	-0.655700	0.619531
H429	H	-0.323457	-0.681533	0.563686
H430	H	-0.274471	-0.658004	0.467651
