data_functionalizedCrystal
_audit_creation_method	'MofGen! by Chris Wilmer'
_symmetry_space_group_name_H-M	'P1'
_symmetry_Int_Tables_number	1
_symmetry_cell_setting	triclinic
loop_
_symmetry_equiv_pos_as_xyz
  x,y,z
_cell_length_a	17.699083
_cell_length_b	9.016244
_cell_length_c	17.699083
_cell_angle_alpha	90.003133
_cell_angle_beta	96.716985
_cell_angle_gamma	89.999126
loop_
_atom_site_label
_atom_site_type_symbol
_atom_site_fract_x
_atom_site_fract_y
_atom_site_fract_z
O1	O	-1.004079	0.123120	0.095708
O2	O	-0.783701	0.123173	0.108161
O3	O	-0.900116	0.123132	-0.008255
O4	O	-0.887664	0.123161	0.212123
O5	O	-0.900099	-0.123549	-0.008252
O6	O	-0.783684	-0.123508	0.108163
O7	O	-1.004062	-0.123560	0.095711
Cu8	Cu	-0.893872	-0.146058	0.101937
Cu9	Cu	-0.893892	0.145671	0.101934
O10	O	-0.887647	-0.123520	0.212126
C11	C	-0.755495	-0.000161	0.107716
C12	C	-0.671477	-0.000142	0.106377
N13	N	-0.893863	-0.351244	0.101939
C14	C	-0.622856	-0.000132	0.174710
C15	C	-0.543913	-0.000151	0.173448
C16	C	-0.513592	-0.000167	0.103852
C17	C	-0.562219	-0.000181	0.035513
C18	C	-0.641161	-0.000173	0.036776
C19	C	-0.243856	-0.000214	0.030418
C20	C	-0.164908	-0.000217	0.029160
C21	C	-0.146608	-0.000191	0.167090
C22	C	-0.225550	-0.000183	0.168353
C23	C	-0.274170	-0.000205	0.100015
C24	C	-0.359769	-0.000188	0.101384
C25	C	-0.427995	-0.000174	0.102481
C26	C	-0.831402	-0.586255	0.164009
C27	C	-0.831536	-0.414364	0.164237
C28	C	-0.972805	-0.413599	0.119044
C29	C	-0.972463	-0.585544	0.119482
C30	C	-0.878170	-0.585794	0.022555
C31	C	-0.876349	-0.413839	0.023090
C32	C	-0.032268	-0.000219	0.096156
C33	C	-0.116286	-0.000218	0.097494
C34	C	-0.899662	-0.000208	-0.036451
C35	C	-0.898323	-0.000209	-0.120469
N36	N	-0.893906	0.350857	0.101926
C37	C	-0.966656	-0.000227	-0.169090
C38	C	-0.965394	-0.000214	-0.248033
C39	C	-0.895798	-0.000192	-0.278354
C40	C	-0.827459	-0.000170	-0.229727
C41	C	-0.828722	-0.000173	-0.150785
C42	C	-0.822364	-0.000156	-0.548090
C43	C	-0.821106	-0.000158	-0.627038
C44	C	-0.959036	-0.000198	-0.645338
C45	C	-0.960299	-0.000200	-0.566396
C46	C	-0.891961	-0.000170	-0.517776
C47	C	-0.893330	-0.000181	-0.432177
C48	C	-0.894427	-0.000191	-0.363951
C49	C	-0.888102	-0.000176	0.240322
C50	C	-0.889440	-0.000166	0.324340
H51	H	-0.647537	-0.000118	0.231384
H52	H	-0.987025	-0.370517	0.176265
H53	H	-1.014680	-0.000215	-0.684934
H54	H	-0.821868	-0.629230	0.006070
N55	N	-0.750018	-0.000140	-0.658024
N56	N	-0.733919	-0.104119	-0.700035
H57	H	-0.683717	-0.104110	-0.721922
H58	H	-1.023330	-0.000253	-0.144409
H59	H	-0.772532	-0.627636	0.154007
H60	H	-1.016971	-0.000225	-0.541714
N61	N	-0.096953	-0.000173	0.236905
N62	N	-0.099643	0.103822	0.283220
H63	H	-0.064576	0.103839	0.332527
H64	H	-0.766718	-0.000132	-0.508512
N65	N	-0.843817	-0.640445	0.237484
N66	N	-0.898499	-0.725179	0.244323
H67	H	-0.907270	-0.763453	0.296214
N68	N	-0.133948	-0.000230	-0.041942
N69	N	-0.177366	-0.000249	-0.102952
H70	H	-0.155500	-0.000255	-0.153166
N71	N	-0.494259	-0.000149	0.243256
N72	N	-0.521341	-0.000127	0.305391
H73	H	-0.486273	-0.000129	0.354697
N74	N	-0.293503	-0.000229	-0.039392
N75	N	-0.266418	-0.000236	-0.101525
H76	H	-0.301483	-0.000244	-0.150832
H77	H	-1.021038	-0.000232	-0.287618
H78	H	-0.537526	-0.000216	-0.021154
H79	H	-0.818279	-0.373085	0.010106
N80	N	-0.989873	-0.635812	0.192100
N81	N	-0.947900	-0.600334	0.251079
H82	H	-0.960194	-0.635826	0.302369
H83	H	-0.680748	-0.000180	-0.018868
H84	H	-0.841565	-0.373213	0.223142
N85	N	-0.929757	-0.359927	-0.037563
N86	N	-0.981834	-0.274118	-0.023600
H87	H	-1.019560	-0.236041	-0.066435
H88	H	-0.770792	-0.000143	-0.254420
H89	H	-0.923753	-0.626462	-0.023644
N90	N	-0.757811	-0.361494	0.151849
N91	N	-0.705901	-0.451586	0.142964
H92	H	-0.653789	-0.414256	0.134356
N93	N	-1.032553	-0.637717	0.064902
N94	N	-1.074612	-0.547136	0.026612
H95	H	-1.117052	-0.583976	-0.011932
N96	N	-0.758922	-0.000122	-0.101115
N97	N	-0.712617	0.103883	-0.103802
H98	H	-0.663318	0.103930	-0.068722
N99	N	-0.256508	-0.000151	0.239451
N100	N	-0.213087	-0.000144	0.300459
H101	H	-0.234950	-0.000124	0.350674
N102	N	-1.032537	-0.362331	0.063818
N103	N	-1.031366	-0.392566	-0.004960
H104	H	-1.073551	-0.356358	-0.043965
