data_functionalizedCrystal
_audit_creation_method	'MofGen! by Chris Wilmer'
_symmetry_space_group_name_H-M	'P1'
_symmetry_Int_Tables_number	1
_symmetry_cell_setting	triclinic
loop_
_symmetry_equiv_pos_as_xyz
  x,y,z
_cell_length_a	14.971487
_cell_length_b	9.730223
_cell_length_c	10.654550
_cell_angle_alpha	90.004929
_cell_angle_beta	95.950333
_cell_angle_gamma	90.005721
loop_
_atom_site_label
_atom_site_type_symbol
_atom_site_fract_x
_atom_site_fract_y
_atom_site_fract_z
O1	O	-1.187830	0.114093	0.163662
O2	O	-0.687830	0.614093	0.663662
O3	O	-0.927536	0.114138	0.183259
O4	O	-0.427536	0.614138	0.683259
O5	O	-1.063667	0.114106	-0.009343
O6	O	-0.563667	0.614106	0.490657
O7	O	-1.051698	0.114125	0.356264
O8	O	-0.551698	0.614125	0.856264
O9	O	-1.063666	-0.114474	-0.009352
O10	O	-0.563666	0.385526	0.490648
O11	O	-0.927535	-0.114441	0.183250
O12	O	-0.427535	0.385559	0.683250
O13	O	-1.187828	-0.114487	0.163653
O14	O	-0.687828	0.385513	0.663653
Zn15	Zn	-1.057681	-0.150756	0.173450
Zn16	Zn	-0.557681	0.349244	0.673450
Zn17	Zn	-1.057683	0.150407	0.173462
Zn18	Zn	-0.557683	0.650407	0.673462
O19	O	-1.051697	-0.114455	0.356255
O20	O	-0.551697	0.385545	0.856255
C21	C	-0.894206	-0.000146	0.182378
C22	C	-0.394206	0.499854	0.682378
C23	C	-0.794895	-0.000128	0.179751
C24	C	-0.294895	0.499872	0.679751
C25	C	-1.062788	-0.000183	-0.056136
C26	C	-0.562788	0.499817	0.443864
C27	C	-1.060159	-0.000181	-0.195551
C28	C	-0.560159	0.499819	0.304449
C29	C	-0.738285	-0.000123	0.292900
C30	C	-0.238285	0.499877	0.792900
C31	C	-0.644972	-0.000140	0.290424
C32	C	-0.144972	0.499860	0.790424
C33	C	-0.608271	-0.000154	0.174799
C34	C	-0.108271	0.499846	0.674799
C35	C	-0.664888	-0.000164	0.061641
C36	C	-0.164888	0.499836	0.561641
C37	C	-0.758199	-0.000156	0.064118
C38	C	-0.258199	0.499844	0.564118
C39	C	-0.470397	-0.000176	0.056486
C40	C	0.029603	0.499824	0.556486
C41	C	-0.377080	-0.000182	0.054009
C42	C	0.122920	0.499818	0.554009
C43	C	-0.357171	-0.000161	0.282792
C44	C	0.142829	0.499839	0.782792
C45	C	-0.450482	-0.000153	0.285269
C46	C	0.049518	0.499847	0.785269
C47	C	-0.507092	-0.000160	0.172111
C48	C	-0.007092	0.499840	0.672111
C49	C	-0.221159	-0.000192	0.164533
C50	C	0.278841	0.499808	0.664533
C51	C	-0.320470	-0.000176	0.167157
C52	C	0.179530	0.499824	0.667157
N53	N	-1.057685	0.355944	0.173461
N54	N	-0.557685	0.855944	0.673461
N55	N	-1.057687	-0.356293	0.173442
N56	N	-0.557687	0.143707	0.673442
C57	C	-1.118078	0.427855	0.088343
C58	C	-0.618078	0.927855	0.588343
C59	C	-1.118082	0.571738	0.088336
C60	C	-0.618082	1.071738	0.588336
C61	C	-0.997291	0.571786	0.258568
C62	C	-0.497291	1.071786	0.758568
C63	C	-0.997292	0.427905	0.258580
C64	C	-0.497292	0.927905	0.758580
C65	C	-1.140311	-0.000194	-0.275896
C66	C	-0.640311	0.499806	0.224104
C67	C	-1.137835	-0.000177	-0.406890
C68	C	-0.637835	0.499823	0.093110
C69	C	-0.975048	-0.000138	-0.377181
C70	C	-0.475048	0.499862	0.122819
C71	C	-0.977525	-0.000146	-0.246190
C72	C	-0.477525	0.499854	0.253810
C73	C	-1.052576	-0.000163	0.403048
C74	C	-0.552576	0.499837	0.903048
C75	C	-1.055206	-0.000156	0.542463
C76	C	-0.555206	0.499844	1.042463
H77	H	-0.768160	-0.000111	0.387056
H78	H	-0.268160	0.499889	0.887056
H79	H	-0.598884	-0.000134	0.382562
H80	H	-0.098884	0.499866	0.882562
H81	H	-0.480361	-0.000129	0.379422
H82	H	0.019639	0.499871	0.879422
H83	H	-0.311074	-0.000161	0.374930
H84	H	0.188926	0.499839	0.874930
H85	H	-1.207596	-0.000220	-0.234671
H86	H	-0.707596	0.499780	0.265329
H87	H	-0.347201	-0.000194	-0.040144
H88	H	0.152799	0.499806	0.459856
H89	H	-0.516488	-0.000184	-0.035659
H90	H	-0.016488	0.499816	0.464341
H91	H	-0.907770	-0.000113	-0.418428
H92	H	-0.407770	0.499887	0.081572
H93	H	-0.912251	-0.000131	-0.180769
H94	H	-0.412251	0.499869	0.319231
H95	H	-0.634998	-0.000194	-0.032503
H96	H	-0.134998	0.499806	0.467497
H97	H	-0.804290	-0.000160	-0.028019
H98	H	-0.304290	0.499840	0.471981
H99	H	-0.948112	0.369351	0.327900
H100	H	-0.448112	0.869351	0.827900
H101	H	-1.203103	-0.000185	-0.472303
H102	H	-0.703103	0.499815	0.027697
H103	H	-1.167254	0.369268	0.019035
H104	H	-0.667254	0.869268	0.519035
H105	H	-0.948119	0.630391	0.327870
H106	H	-0.448119	1.130391	0.827870
H107	H	-1.167260	0.630285	0.019027
H108	H	-0.667260	1.130285	0.519027
