data_functionalizedCrystal
_audit_creation_method	'MofGen! by Chris Wilmer'
_symmetry_space_group_name_H-M	'P1'
_symmetry_Int_Tables_number	1
_symmetry_cell_setting	triclinic
loop_
_symmetry_equiv_pos_as_xyz
  x,y,z
_cell_length_a	10.654550
_cell_length_b	16.109301
_cell_length_c	15.186229
_cell_angle_alpha	90.000638
_cell_angle_beta	89.997420
_cell_angle_gamma	96.026808
loop_
_atom_site_label
_atom_site_type_symbol
_atom_site_fract_x
_atom_site_fract_y
_atom_site_fract_z
O1	O	0.161419	-1.104090	-0.073171
O2	O	0.181507	-0.862148	-0.073184
O3	O	-0.011352	-0.988682	-0.073174
O4	O	0.354278	-0.977556	-0.073181
O5	O	-0.011354	-0.988673	0.073283
O6	O	0.181505	-0.862139	0.073273
O7	O	0.161416	-1.104082	0.073287
Zn8	Zn	0.171460	-0.983109	0.096533
Zn9	Zn	0.171463	-0.983120	-0.096431
O10	O	0.354275	-0.977548	0.073276
C11	C	0.180692	-0.831164	0.000043
C12	C	0.178253	-0.738854	0.000037
C13	C	-0.058140	-0.987861	0.000054
C14	C	-0.197550	-0.985417	0.000050
N15	N	0.171457	-0.983108	0.228226
C16	C	-0.278046	-1.059918	0.000057
C17	C	-0.409036	-1.057616	0.000051
C18	C	-0.379020	-0.906306	0.000035
C19	C	-0.248033	-0.908608	0.000035
C20	C	-0.227564	-1.136726	0.000073
C21	C	-0.308061	-1.211233	0.000081
C22	C	-0.439051	-1.208932	0.000075
C23	C	-0.489543	-1.132123	0.000061
C24	C	0.401063	-0.978369	0.000047
C25	C	0.540473	-0.980813	0.000044
C26	C	0.162231	-1.135066	0.000058
C27	C	0.164671	-1.227376	0.000057
C28	C	0.287019	-0.517228	0.000045
C29	C	0.284717	-0.430494	0.000051
C30	C	0.055896	-0.449008	0.000052
C31	C	0.058199	-0.535741	0.000052
C32	C	0.173764	-0.569848	0.000045
C33	C	0.169159	-0.396382	0.000050
C34	C	0.166662	-0.302341	0.000056
C35	C	0.176262	-0.663895	0.000040
N36	N	0.171457	-0.983129	-0.228123
C37	C	0.086088	-1.039156	0.453953
C38	C	0.086085	-1.039159	0.546143
C39	C	0.256830	-0.927074	0.546143
C40	C	0.256826	-0.927068	0.453955
C41	C	0.171456	-0.983114	0.407862
C42	C	0.171457	-0.983122	0.592240
C43	C	0.171455	-0.983125	0.692196
C44	C	0.171457	-0.983111	0.307900
H45	H	-0.120907	-1.138609	0.000081
Cl46	Cl	0.427100	-0.364347	0.000053
Cl47	Cl	-0.084189	-0.601896	0.000059
H48	H	0.326344	-0.881427	0.416425
H49	H	-0.266942	-1.273768	0.000070
H50	H	0.016573	-1.084791	0.416427
H51	H	-0.038193	-0.421227	0.000063
Cl52	Cl	-0.021243	-1.109613	0.604083
H53	H	-0.504589	-1.269599	0.000072
Cl54	Cl	-0.654218	-1.129233	0.000092
H55	H	-0.420141	-0.843772	0.000024
H56	H	-0.182490	-0.847943	0.000030
H57	H	0.381119	-0.544995	0.000046
H58	H	0.326338	-0.881444	0.583680
