data_functionalizedCrystal
_audit_creation_method	'MofGen! by Chris Wilmer'
_symmetry_space_group_name_H-M	'P1'
_symmetry_Int_Tables_number	1
_symmetry_cell_setting	triclinic
loop_
_symmetry_equiv_pos_as_xyz
  x,y,z
_cell_length_a	13.339070
_cell_length_b	15.944493
_cell_length_c	12.376457
_cell_angle_alpha	101.280268
_cell_angle_beta	75.589755
_cell_angle_gamma	99.552169
loop_
_atom_site_label
_atom_site_type_symbol
_atom_site_fract_x
_atom_site_fract_y
_atom_site_fract_z
O1	O	1.361605	0.409515	-0.093990
O2	O	1.067088	0.354244	-0.093991
O3	O	1.222422	0.261481	-0.094000
O4	O	1.206272	0.502277	-0.093981
O5	O	1.183602	0.284631	0.094014
O6	O	1.028269	0.377394	0.094023
O7	O	1.322786	0.432665	0.094024
Zn8	Zn	1.169364	0.408705	0.123875
Zn9	Zn	1.220510	0.378204	-0.123842
O10	O	1.167452	0.525427	0.094033
C11	C	1.009991	0.356483	0.000016
C12	C	0.897695	0.328653	0.000015
C13	C	0.532862	0.545039	0.000014
C14	C	0.638371	0.571188	0.000011
C15	C	0.703207	0.510557	0.000013
C16	C	0.662524	0.423771	0.000016
C17	C	0.557007	0.397618	0.000009
C18	C	0.727352	0.363136	0.000008
C19	C	0.686669	0.276351	0.000011
C20	C	0.581162	0.250202	0.000005
C21	C	0.516326	0.310834	0.000004
C22	C	0.832869	0.389289	0.000014
C23	C	0.857014	0.241868	0.000010
C24	C	0.751505	0.215719	0.000012
C25	C	1.202353	0.241607	0.000002
C26	C	1.200378	0.147896	-0.000012
C27	C	1.291805	-0.066556	0.000010
C28	C	1.261639	-0.140028	-0.092691
C29	C	1.196709	-0.023678	0.000002
C30	C	1.223344	-0.117185	0.092677
C31	C	1.193171	-0.189409	0.000020
C32	C	1.166584	-0.095924	-0.092775
C33	C	1.128286	-0.073065	0.092676
C34	C	1.098055	-0.146522	-0.000047
C35	C	1.198750	0.071796	-0.000010
C36	C	1.191124	-0.284882	0.000024
C37	C	1.379883	0.430426	0.000015
C38	C	1.492181	0.458254	0.000009
C39	C	1.187521	0.545301	0.000028
C40	C	1.189498	0.639012	0.000035
N41	N	1.134465	0.429522	0.292936
N42	N	1.255417	0.357382	-0.292902
C43	C	1.336428	0.309041	0.647909
C44	C	1.360848	0.294470	0.529568
C45	C	1.304254	0.328231	0.470404
C46	C	1.223236	0.376568	0.529593
C47	C	1.198819	0.391146	0.647946
C48	C	1.166645	0.410336	0.470441
C49	C	1.085628	0.458673	0.529630
C50	C	1.061214	0.473248	0.647971
C51	C	1.117808	0.439487	0.707135
C52	C	1.191063	0.395758	0.352088
C53	C	1.053454	0.477863	0.352124
C54	C	1.029034	0.492434	0.470466
H55	H	1.373739	-0.031852	-0.000083
C56	C	0.819261	0.539321	0.000023
H57	H	0.834202	0.599692	0.000032
H58	H	0.861136	0.509940	-0.065535
H59	H	0.834038	0.526093	0.065602
C60	C	0.706749	0.120259	0.000003
H61	H	0.634628	0.113371	-0.000009
H62	H	0.715460	0.102328	0.065565
H63	H	0.742541	0.086186	-0.065573
C64	C	1.134265	-0.082682	-0.198773
H65	H	1.135780	-0.022811	-0.198154
H66	H	1.065708	-0.110821	-0.199047
H67	H	1.181393	-0.106233	-0.264519
H68	H	1.324140	0.316365	0.374045
H69	H	0.671489	0.641848	0.000000
H70	H	1.426812	0.255116	0.481380
C71	C	0.928321	0.175170	0.000014
H72	H	0.996984	0.203176	0.000029
H73	H	0.929534	0.132524	-0.065553
H74	H	0.902449	0.148674	0.065585
H75	H	1.317982	-0.169265	-0.171063
C76	C	1.280178	0.342598	0.286988
H77	H	1.286626	0.338757	0.208032
H78	H	1.265219	0.286363	0.306380
H79	H	1.343682	0.369892	0.306378
C80	C	0.987328	-0.193237	-0.000107
H81	H	0.961809	-0.219402	0.065774
H82	H	0.989261	-0.236266	-0.065363
H83	H	0.942600	-0.152854	-0.000753
C84	C	1.398672	0.271912	0.712989
H85	H	1.372522	0.287514	0.791948
H86	H	1.470182	0.294410	0.693581
H87	H	1.391698	0.210894	0.693600
C88	C	1.052224	-0.033526	0.198551
H89	H	1.072538	-0.040318	0.264357
H90	H	0.983630	-0.061915	0.199219
H91	H	1.053599	0.026060	0.197409
C92	C	1.255756	-0.130577	0.198550
H93	H	1.324575	-0.102899	0.198426
H94	H	1.253633	-0.190479	0.198162
H95	H	1.209066	-0.106594	0.264379
C96	C	0.461545	0.611722	0.000012
H97	H	0.392880	0.583716	0.000014
H98	H	0.487413	0.638222	-0.065549
H99	H	0.460329	0.654366	0.065588
C100	C	0.939927	0.545608	0.535581
H101	H	0.933500	0.549458	0.614535
H102	H	0.876417	0.518335	0.516203
H103	H	0.954905	0.601849	0.516189
H104	H	1.097923	0.451347	0.803498
H105	H	0.995253	0.512614	0.696163
C106	C	0.400266	0.282071	0.000007
H107	H	0.367483	0.330612	0.000005
H108	H	0.367319	0.257005	0.065568
H109	H	0.394394	0.240861	-0.065569
H110	H	1.007372	0.505356	0.303954
H111	H	0.548045	0.179534	-0.000005
H112	H	0.865981	0.459951	0.000016
