data_functionalizedCrystal
_audit_creation_method	'MofGen! by Chris Wilmer'
_symmetry_space_group_name_H-M	'P1'
_symmetry_Int_Tables_number	1
_symmetry_cell_setting	triclinic
loop_
_symmetry_equiv_pos_as_xyz
  x,y,z
_cell_length_a	12.645331
_cell_length_b	21.295417
_cell_length_c	12.645323
_cell_angle_alpha	90.032945
_cell_angle_beta	90.015738
_cell_angle_gamma	90.028938
loop_
_atom_site_label
_atom_site_type_symbol
_atom_site_fract_x
_atom_site_fract_y
_atom_site_fract_z
Zn1	Zn	1.620643	-0.250617	0.599191
Zn2	Zn	1.620487	-0.355892	0.421906
Zn3	Zn	1.443357	-0.250639	0.421956
Zn4	Zn	1.443302	-0.355851	0.599142
O5	O	1.531947	-0.303250	0.510549
O6	O	1.768969	-0.264590	0.575672
O7	O	1.596949	-0.341956	0.273565
O8	O	1.466963	-0.162547	0.445508
O9	O	1.768855	-0.341935	0.445422
O10	O	1.597214	-0.162531	0.575721
O11	O	1.466812	-0.264627	0.273602
O12	O	1.295003	-0.264588	0.445462
O13	O	1.466868	-0.341865	0.747496
O14	O	1.294962	-0.341886	0.575639
O15	O	1.597160	-0.264551	0.747532
O16	O	1.596895	-0.443976	0.445375
O17	O	1.466718	-0.443946	0.575590
C18	C	1.256518	-0.303235	0.510551
C19	C	1.138688	-0.303244	0.510578
C20	C	0.971133	-0.352140	0.592046
C21	C	1.093693	-0.351982	0.592386
C22	C	1.094233	-0.236943	0.541115
C23	C	0.971635	-0.237242	0.541689
C24	C	0.971436	-0.320116	0.398314
C25	C	1.094041	-0.321566	0.398920
C26	C	1.531812	-0.466801	0.510495
C27	C	1.531851	-0.536769	0.510508
C28	C	1.599634	-0.569571	0.578358
C29	C	1.599672	-0.635313	0.578384
C30	C	1.531937	-0.668252	0.510541
C31	C	1.464141	-0.635443	0.442686
C32	C	1.464098	-0.569702	0.442669
N33	N	1.523925	-0.771516	0.417766
N34	N	1.523972	-0.833967	0.417784
C35	C	1.532061	-0.866327	0.510589
N36	N	1.540122	-0.833875	0.603376
N37	N	1.540080	-0.771418	0.603356
C38	C	1.531976	-0.739537	0.510552
C39	C	1.599888	-0.970413	0.578473
C40	C	1.599918	-1.036157	0.578501
C41	C	1.464393	-1.036285	0.442793
C42	C	1.464358	-0.970543	0.442775
C43	C	1.532111	-0.937611	0.510613
C44	C	1.808452	-0.303264	0.510547
C45	C	1.926282	-0.303271	0.510546
C46	C	1.532025	-0.303201	0.787054
C47	C	1.532059	-0.303180	0.904884
C48	C	1.532112	-0.139059	0.510626
C49	C	1.532182	-0.069091	0.510659
C50	C	1.531930	-0.303253	0.235119
C51	C	1.532103	-0.303096	0.117290
C52	C	1.449839	-0.351590	1.072426
C53	C	1.450055	-0.351830	0.949866
C54	C	1.643752	-0.321184	0.949386
C55	C	1.643301	-0.321488	1.071985
C56	C	1.503641	-0.236496	1.072101
C57	C	1.501149	-0.236895	0.949495
H58	H	0.940346	-0.341136	0.674721
H59	H	1.556690	-0.198855	0.918876
H60	H	1.423614	-0.220085	1.103019
H61	H	1.409167	-0.943834	0.387520
Cl62	Cl	1.378983	-0.676851	0.357404
Cl63	Cl	1.139020	-0.334769	0.720777
Cl64	Cl	0.925824	-0.179120	0.454043
H65	H	1.408900	-0.542994	0.387416
Cl66	Cl	1.680549	-0.396656	1.116140
Cl67	Cl	1.741081	-0.269289	1.117812
H68	H	1.418952	-0.223318	0.920409
H69	H	1.655054	-0.943599	0.633715
H70	H	1.655115	-1.062863	0.633758
Cl71	Cl	0.926653	-0.265162	0.304559
Cl72	Cl	1.322180	-0.334432	0.903406
Cl73	Cl	1.140101	-0.427897	0.562881
H74	H	1.409236	-1.063104	0.387561
Cl75	Cl	1.141671	-0.214479	0.666417
Cl76	Cl	1.321577	-0.334361	1.117940
Cl77	Cl	1.596146	-0.180714	1.116897
H78	H	0.943065	-0.222953	0.623735
Cl79	Cl	1.478498	-0.427335	1.120063
Cl80	Cl	0.923654	-0.393482	0.355456
H81	H	1.123379	-0.199543	0.483609
H82	H	1.654860	-0.662025	0.633649
H83	H	1.468842	-0.401203	0.920538
H84	H	1.706686	-0.286981	0.920252
Cl85	Cl	1.681646	-0.395565	0.901988
Cl86	Cl	1.138898	-0.396897	0.363365
Cl87	Cl	1.141319	-0.270595	0.300132
Cl88	Cl	0.925566	-0.428302	0.562832
H89	H	1.654800	-0.542759	0.633599
