data_functionalizedCrystal
_audit_creation_method	'MofGen! by Chris Wilmer'
_symmetry_space_group_name_H-M	'P1'
_symmetry_Int_Tables_number	1
_symmetry_cell_setting	triclinic
loop_
_symmetry_equiv_pos_as_xyz
  x,y,z
_cell_length_a	17.038272
_cell_length_b	17.038272
_cell_length_c	16.098538
_cell_angle_alpha	92.920305
_cell_angle_beta	87.069734
_cell_angle_gamma	91.111556
loop_
_atom_site_label
_atom_site_type_symbol
_atom_site_fract_x
_atom_site_fract_y
_atom_site_fract_z
O1	O	1.052033	0.167266	-0.069152
O2	O	0.824222	0.164557	-0.069177
O3	O	0.936773	0.052006	-0.069158
O4	O	0.939482	0.279817	-0.069171
O5	O	0.930197	0.058553	0.069354
O6	O	0.817646	0.171104	0.069335
O7	O	1.045456	0.173813	0.069359
Zn8	Zn	0.930507	0.173498	0.091339
Zn9	Zn	0.939172	0.164872	-0.091156
O10	O	0.932905	0.286364	0.069341
C11	C	0.791641	0.165367	0.000076
C12	C	0.704358	0.158019	0.000067
C13	C	0.658749	0.225482	0.000064
C14	C	0.576737	0.218574	0.000075
C15	C	0.540335	0.144201	0.000085
C16	C	0.585950	0.076733	0.000090
C17	C	0.667961	0.083642	0.000084
C18	C	0.292946	0.119792	0.000108
C19	C	0.210929	0.112887	0.000112
C20	C	0.201722	0.254729	0.000098
C21	C	0.283734	0.261632	0.000088
C22	C	0.329342	0.194164	0.000098
C23	C	0.456505	0.137138	0.000094
C24	C	0.413170	0.201228	0.000094
C25	C	0.931022	0.025987	0.000097
C26	C	0.923674	-0.061297	0.000096
C27	C	0.991137	-0.106906	0.000104
C28	C	0.984229	-0.188918	0.000096
C29	C	0.909856	-0.225320	0.000085
C30	C	0.842388	-0.179705	0.000074
C31	C	0.849297	-0.097694	0.000077
C32	C	0.885446	-0.472708	0.000071
C33	C	0.878541	-0.554725	0.000071
C34	C	1.020383	-0.563932	0.000091
C35	C	1.027286	-0.481920	0.000098
C36	C	0.959818	-0.436312	0.000083
C37	C	0.902792	-0.309149	0.000079
C38	C	0.966882	-0.352485	0.000084
C39	C	1.078037	0.173002	0.000105
C40	C	1.165320	0.180351	0.000108
C41	C	0.938656	0.312383	0.000083
C42	C	0.946005	0.399666	0.000079
N43	N	0.924599	0.179385	0.215887
N44	N	0.945085	0.158979	-0.215705
C45	C	0.972390	0.131633	0.259480
C46	C	0.968265	0.135759	0.346668
C47	C	0.916352	0.187642	0.390262
C48	C	0.868556	0.235395	0.346663
C49	C	0.872678	0.231265	0.259476
C50	C	0.901410	0.202602	0.653510
C51	C	0.897294	0.206731	0.740702
C52	C	0.997003	0.107093	0.740702
C53	C	1.001123	0.102971	0.653513
C54	C	0.953324	0.150721	0.609922
C55	C	0.912136	0.191862	0.479383
C56	C	0.957536	0.146496	0.520803
H57	H	0.688381	0.286045	0.000056
H58	H	1.027437	-0.322844	0.000074
H59	H	0.539605	0.273510	0.000072
H60	H	1.075312	-0.601075	0.000101
H61	H	0.817975	-0.584359	0.000075
H62	H	0.794361	-0.060560	0.000070
H63	H	0.842238	-0.338796	0.000072
O64	O	0.175475	0.040684	0.000237
C65	C	0.124929	0.035835	0.071985
H66	H	0.107512	0.097508	0.095892
H67	H	0.069972	0.000198	0.055858
H68	H	0.156428	0.005879	0.122223
O69	O	0.337127	0.054173	0.000078
C70	C	0.287408	-0.012947	0.000105
H71	H	0.228842	0.001682	-0.026120
H72	H	0.316227	-0.062457	-0.040103
H73	H	0.276952	-0.032344	0.066559
H74	H	0.313367	0.322194	0.000070
H75	H	0.705095	0.028706	0.000086
H76	H	0.781832	-0.209350	0.000060
O77	O	0.861671	0.242158	0.521826
C78	C	0.808033	0.199232	0.572255
H79	H	0.834607	0.140493	0.585311
H80	H	0.794898	0.234075	0.633567
H81	H	0.751222	0.188419	0.538668
H82	H	1.087848	-0.452287	0.000107
H83	H	0.855019	0.248983	0.776192
O84	O	0.818056	0.285809	0.388878
C85	C	0.776770	0.327082	0.331703
H86	H	0.776684	0.291880	0.269559
H87	H	0.713658	0.336043	0.356899
H88	H	0.806581	0.386696	0.322416
O89	O	1.022837	0.081166	0.217266
C90	C	1.064147	0.039918	0.274443
H91	H	1.028951	0.039817	0.336597
H92	H	1.073149	-0.023189	0.249263
H93	H	1.123742	0.069771	0.283704
H94	H	0.164579	0.309658	0.000092
O95	O	0.421175	0.064882	0.000241
C96	C	0.440636	0.026800	0.071963
H97	H	0.458116	0.072560	0.122103
H98	H	0.387650	-0.008773	0.096045
H99	H	0.491876	-0.014179	0.055739
O100	O	1.049841	-0.233103	0.000146
C101	C	1.116966	-0.183389	0.000143
H102	H	1.099851	-0.122342	0.026364
H103	H	1.162657	-0.208407	0.040367
H104	H	1.142669	-0.179218	-0.066303
H105	H	0.442811	0.261782	0.000091
H106	H	1.007180	0.096876	0.382161
H107	H	0.556305	0.016177	0.000110
H108	H	1.051699	-0.077274	0.000118
H109	H	1.043394	0.060724	0.618021
O110	O	1.043387	0.060590	0.782958
C111	C	1.026438	-0.019015	0.761681
H112	H	0.999169	-0.023943	0.698381
H113	H	1.083035	-0.053878	0.758700
H114	H	0.983408	-0.043595	0.810758
H115	H	0.862492	0.241484	0.618024
O116	O	0.826286	0.277573	0.216998
C117	C	0.841068	0.262816	0.130698
H118	H	0.866833	0.201784	0.118798
H119	H	0.783742	0.265991	0.097569
H120	H	0.884579	0.308737	0.105941
O121	O	0.819828	-0.428527	0.000104
C122	C	0.752707	-0.478246	0.000080
H123	H	0.767334	-0.536818	0.026301
H124	H	0.703193	-0.449435	0.040294
H125	H	0.733317	-0.488688	-0.066372
H126	H	0.999800	0.104250	0.485307
