data_functionalizedCrystal
_audit_creation_method	'MofGen! by Chris Wilmer'
_symmetry_space_group_name_H-M	'P1'
_symmetry_Int_Tables_number	1
_symmetry_cell_setting	triclinic
loop_
_symmetry_equiv_pos_as_xyz
  x,y,z
_cell_length_a	16.992694
_cell_length_b	8.559649
_cell_length_c	15.455313
_cell_angle_alpha	92.289439
_cell_angle_beta	87.142206
_cell_angle_gamma	80.223444
loop_
_atom_site_label
_atom_site_type_symbol
_atom_site_fract_x
_atom_site_fract_y
_atom_site_fract_z
O1	O	1.023967	0.329735	-0.072017
O2	O	0.795905	0.326044	-0.072043
O3	O	0.930028	0.097853	-0.072027
O4	O	0.889844	0.557925	-0.072033
O5	O	0.922362	0.110845	0.072234
O6	O	0.788239	0.339035	0.072218
O7	O	1.016301	0.342726	0.072244
Cu8	Cu	0.901570	0.342067	0.085403
Cu9	Cu	0.910636	0.326703	-0.085202
O10	O	0.882177	0.570917	0.072228
C11	C	0.763145	0.327794	0.000084
C12	C	0.676954	0.313635	0.000075
C13	C	0.618488	0.450242	0.000073
C14	C	0.537502	0.436931	0.000086
C15	C	0.514985	0.287010	0.000093
C16	C	0.573459	0.150392	0.000096
C17	C	0.654442	0.163706	0.000090
C18	C	0.274709	0.231831	0.000117
C19	C	0.193718	0.218527	0.000120
C20	C	0.157767	0.505067	0.000111
C21	C	0.238755	0.518367	0.000099
C22	C	0.297221	0.381750	0.000108
N23	N	0.432205	0.273400	0.000102
N24	N	0.379998	0.395362	0.000104
C25	C	0.929241	0.045208	0.000102
C26	C	0.938306	-0.131015	0.000099
C27	C	1.049061	0.340976	0.000115
C28	C	1.135252	0.355134	0.000119
C29	C	0.882965	0.623562	0.000097
C30	C	0.873900	0.799784	0.000095
N31	N	0.895199	0.352873	0.205398
N32	N	0.917014	0.315885	-0.205197
C33	C	0.952194	0.255970	0.250799
C34	C	0.947382	0.264158	0.341606
C35	C	0.885578	0.369258	0.387011
C36	C	0.828576	0.466164	0.341604
C37	C	0.833386	0.457968	0.250798
C38	C	0.864822	0.404595	0.658590
C39	C	0.860018	0.412788	0.749402
C40	C	0.978824	0.210778	0.749398
C41	C	0.983631	0.202598	0.658591
C42	C	0.926627	0.299499	0.613191
N43	N	0.880659	0.377633	0.479831
N44	N	0.931543	0.291114	0.520373
H45	H	0.110156	0.616293	0.000106
O46	O	0.799807	-0.110252	-0.000034
C47	C	0.762021	-0.151316	-0.074763
H48	H	0.789935	-0.276622	-0.099664
H49	H	0.695519	-0.146289	-0.057969
H50	H	0.770055	-0.064243	-0.127084
O51	O	0.799899	0.514909	0.793375
C52	C	0.750624	0.598700	0.733834
H53	H	0.757094	0.527741	0.669107
H54	H	0.685646	0.617220	0.760081
H55	H	0.769287	0.718893	0.724168
O56	O	0.171709	0.073004	0.000097
C57	C	0.087692	0.090559	0.000119
H58	H	0.062635	0.209401	-0.027203
H59	H	0.070613	-0.009776	-0.041754
H60	H	0.061891	0.086245	0.069330
O61	O	1.012311	-0.221403	0.000071
C62	C	1.005195	-0.383132	0.000101
H63	H	0.945889	-0.399592	-0.027215
H64	H	1.056621	-0.456235	-0.041775
H65	H	1.007320	-0.424347	0.069313
O66	O	1.012264	0.153738	0.206831
C67	C	1.061548	0.069993	0.266380
H68	H	1.026328	0.069935	0.331114
H69	H	1.082435	-0.057480	0.240153
H70	H	1.115731	0.129799	0.276026
H71	H	0.993792	0.185251	0.378571
H72	H	1.033957	0.117017	0.621624
H73	H	0.702046	0.052465	0.000091
H74	H	1.025233	0.131884	0.786371
H75	H	0.818408	0.483499	0.621633
H76	H	0.778250	0.551733	0.378578
O77	O	0.777976	0.552265	0.206827
C78	C	0.722383	0.646761	0.266372
H79	H	0.750745	0.658510	0.331096
H80	H	0.704273	0.769494	0.240126
H81	H	0.667178	0.588694	0.276043
H82	H	0.636813	0.572324	0.000067
H83	H	0.257081	0.640447	0.000084
O84	O	0.480748	0.569668	-0.000073
C85	C	0.493575	0.653355	-0.074784
H86	H	0.529120	0.568471	-0.127003
H87	H	0.433493	0.707334	-0.099860
H88	H	0.528484	0.751928	-0.057903
O89	O	0.331472	0.099061	-0.000035
C90	C	0.326562	0.001906	-0.074736
H91	H	0.296555	0.077377	-0.126958
H92	H	0.389302	-0.056601	-0.099815
H93	H	0.289860	-0.093618	-0.057841
O94	O	0.551453	0.004876	0.000066
C95	C	0.467436	0.022416	0.000091
H96	H	0.442373	0.141262	-0.027224
H97	H	0.450361	-0.077915	-0.041788
H98	H	0.441637	0.018083	0.069301
