data_functionalizedCrystal
_audit_creation_method	'MofGen! by Chris Wilmer'
_symmetry_space_group_name_H-M	'P1'
_symmetry_Int_Tables_number	1
_symmetry_cell_setting	triclinic
loop_
_symmetry_equiv_pos_as_xyz
  x,y,z
_cell_length_a	14.519709
_cell_length_b	14.044209
_cell_length_c	12.996460
_cell_angle_alpha	90.008693
_cell_angle_beta	90.000034
_cell_angle_gamma	91.565951
loop_
_atom_site_label
_atom_site_type_symbol
_atom_site_fract_x
_atom_site_fract_y
_atom_site_fract_z
O1	O	1.233892	-0.124273	-0.085439
O2	O	1.567225	0.209060	0.247895
O3	O	1.900558	0.542394	0.581228
O4	O	0.966595	-0.138907	-0.085471
O5	O	1.299928	0.194426	0.247862
O6	O	1.633262	0.527759	0.581196
O7	O	1.096232	0.006401	-0.085441
O8	O	1.429566	0.339735	0.247893
O9	O	1.762899	0.673068	0.581226
O10	O	1.104254	-0.269582	-0.085469
O11	O	1.437588	0.063752	0.247864
O12	O	1.770921	0.397085	0.581198
O13	O	1.096217	0.006409	0.085693
O14	O	1.429550	0.339743	0.419026
O15	O	1.762884	0.673076	0.752360
O16	O	0.966580	-0.138899	0.085663
O17	O	1.299913	0.194434	0.418996
O18	O	1.633246	0.527767	0.752330
O19	O	1.233876	-0.124265	0.085695
O20	O	1.567210	0.209069	0.419028
O21	O	1.900543	0.542402	0.752362
Cu22	Cu	1.100227	-0.131581	0.101305
Cu23	Cu	1.433560	0.201752	0.434638
Cu24	Cu	1.766893	0.535085	0.767972
Cu25	Cu	1.100245	-0.131591	-0.101081
Cu26	Cu	1.433578	0.201742	0.232253
Cu27	Cu	1.766911	0.535076	0.565586
O28	O	1.104239	-0.269574	0.085665
O29	O	1.437572	0.063760	0.418998
O30	O	1.770906	0.397093	0.752331
C31	C	0.932173	-0.138221	0.000092
C32	C	1.265506	0.195112	0.333425
C33	C	1.598839	0.528445	0.666759
C34	C	0.829626	-0.136178	0.000080
C35	C	1.162960	0.197156	0.333414
C36	C	1.496293	0.530489	0.666747
C37	C	1.092712	0.041726	0.000127
C38	C	1.426046	0.375059	0.333461
C39	C	1.759379	0.708392	0.666794
C40	C	1.082236	0.146969	0.000131
C41	C	1.415569	0.480303	0.333464
C42	C	1.748903	0.813636	0.666797
C43	C	0.454124	-0.128654	0.000128
C44	C	0.787457	0.204680	0.333461
C45	C	1.120790	0.538013	0.666795
C46	C	0.558600	-0.130743	0.000114
C47	C	0.891934	0.202590	0.333448
C48	C	1.225267	0.535924	0.666781
C49	C	0.641872	-0.132415	0.000103
C50	C	0.975205	0.200918	0.333436
C51	C	1.308538	0.534251	0.666770
C52	C	0.746355	-0.134505	0.000091
C53	C	1.079688	0.198828	0.333425
C54	C	1.413022	0.532161	0.666758
C55	C	1.063083	0.339664	0.000120
C56	C	1.396417	0.672997	0.333453
C57	C	1.729750	1.006330	0.666787
C58	C	1.137392	0.397171	0.000127
C59	C	1.470725	0.730504	0.333461
C60	C	1.804058	1.063837	0.666794
C61	C	1.126735	0.504392	0.000121
C62	C	1.460068	0.837726	0.333455
C63	C	1.793401	1.171059	0.666788
C64	C	1.073739	0.232432	0.000126
C65	C	1.407072	0.565765	0.333459
C66	C	1.740405	0.899099	0.666793
C67	C	1.268299	-0.124951	0.000130
C68	C	1.601632	0.208382	0.333463
C69	C	1.934965	0.541716	0.666796
C70	C	1.370845	-0.126995	0.000135
C71	C	1.704178	0.206339	0.333468
C72	C	2.037511	0.539672	0.666801
N73	N	1.100220	-0.131574	0.243652
N74	N	1.433554	0.201759	0.576985
N75	N	1.766887	0.535093	0.910319
C76	C	1.107761	0.695102	0.000103
C77	C	1.441094	1.028435	0.333436
C78	C	1.774427	1.361769	0.666769
C79	C	1.118243	0.589859	0.000117
C80	C	1.451576	0.923193	0.333450
C81	C	1.784910	1.256526	0.666783
N82	N	1.100258	-0.131591	-0.243428
N83	N	1.433591	0.201743	0.089906
N84	N	1.766924	0.535076	0.423239
C85	C	1.100244	-0.131592	0.663466
C86	C	1.433577	0.201741	0.996800
C87	C	1.766910	0.535075	1.330133
C88	C	1.100235	-0.131590	0.546661
C89	C	1.433568	0.201743	0.879994
C90	C	1.766901	0.535077	1.213328
C91	C	1.100232	-0.131584	0.453563
C92	C	1.433566	0.201750	0.786896
C93	C	1.766899	0.535083	1.120229
C94	C	1.100223	-0.131581	0.336750
C95	C	1.433556	0.201753	0.670084
C96	C	1.766889	0.535086	1.003417
H97	H	1.209013	0.365878	0.000066
H98	H	1.542346	0.699212	0.333399
H99	H	1.875680	1.032545	0.666733
Br100	Br	0.943716	0.391817	0.000099
Br101	Br	1.277049	0.725150	0.333432
Br102	Br	1.610383	1.058484	0.666765
