data_functionalizedCrystal
_audit_creation_method	'MofGen! by Chris Wilmer'
_symmetry_space_group_name_H-M	'P1'
_symmetry_Int_Tables_number	1
_symmetry_cell_setting	triclinic
loop_
_symmetry_equiv_pos_as_xyz
  x,y,z
_cell_length_a	35.277628
_cell_length_b	35.288095
_cell_length_c	35.277682
_cell_angle_alpha	59.997929
_cell_angle_beta	89.998958
_cell_angle_gamma	60.000166
loop_
_atom_site_label
_atom_site_type_symbol
_atom_site_fract_x
_atom_site_fract_y
_atom_site_fract_z
O1	O	-0.323087	-0.271234	0.011271
O2	O	-0.267964	-0.193634	-0.011228
O3	O	-0.267962	-0.271233	0.066395
O4	O	-0.323089	-0.193635	-0.066351
O5	O	-0.204915	-0.334261	0.066394
O6	O	-0.204918	-0.256661	-0.011228
O7	O	-0.260040	-0.334261	0.011271
Cu8	Cu	-0.226722	-0.301216	0.000022
Cu9	Cu	-0.301282	-0.226679	0.000022
O10	O	-0.260043	-0.256662	-0.066351
C11	C	-0.163481	-0.071298	-0.023519
C12	C	-0.186872	-0.024531	-0.020298
C13	C	-0.117860	-0.093995	-0.023838
C14	C	-0.163483	-0.139918	-0.023524
C15	C	-0.186875	-0.166518	-0.020308
C16	C	-0.117862	-0.162510	-0.023843
C17	C	-0.094838	-0.139921	-0.023519
C18	C	-0.044836	-0.166525	-0.020298
C19	C	-0.186401	-0.093991	-0.023843
C20	C	-0.004439	-0.188019	-0.017694
C21	C	-0.205769	0.013252	-0.017695
C22	C	-0.205774	-0.188010	-0.017709
C23	C	0.046241	-0.214983	-0.014429
C24	C	-0.229477	0.060653	-0.014430
C25	C	-0.229483	-0.214971	-0.014450
C26	C	-0.500364	-0.466062	0.034181
C27	C	-0.477341	-0.511990	0.034503
C28	C	-0.431722	-0.466060	0.034178
C29	C	-0.408804	-0.511988	0.034500
C30	C	-0.431721	-0.534685	0.034181
C31	C	-0.477342	-0.443470	0.034500
C32	C	-0.665895	-0.342485	0.021756
C33	C	-0.712772	-0.317221	0.018243
C34	C	-0.736287	-0.338907	0.016481
C35	C	-0.787116	-0.311512	0.012664
C36	C	-0.712921	-0.385861	0.018236
C37	C	-0.666047	-0.411125	0.021755
C38	C	-0.642533	-0.389434	0.023515
C39	C	-0.389805	-0.687746	0.021758
C40	C	-0.368199	-0.731097	0.018245
C41	C	-0.322995	-0.752841	0.016478
C42	C	-0.299567	-0.799839	0.012662
C43	C	-0.299393	-0.731235	0.018230
C44	C	-0.320995	-0.687892	0.021751
C45	C	-0.366205	-0.666148	0.023512
C46	C	-0.389808	-0.342477	0.021744
C47	C	-0.368205	-0.317208	0.018222
C48	C	-0.322998	-0.338892	0.016457
C49	C	-0.299573	-0.311495	0.012637
C50	C	-0.299398	-0.385842	0.018210
C51	C	-0.321003	-0.411107	0.021730
C52	C	-0.366208	-0.389423	0.023501
C53	C	-0.591706	-0.416830	0.027326
C54	C	-0.551191	-0.438667	0.030366
C55	C	-0.408299	-0.438663	0.030360
C56	C	-0.389629	-0.416824	0.027317
C57	C	-0.408298	-0.581682	0.030365
C58	C	-0.389627	-0.619146	0.027325
C59	C	-0.432024	-0.061845	-0.438511
C60	C	-0.477645	-0.015917	-0.461431
C61	C	-0.432025	-0.061844	-0.369869
C62	C	-0.477645	-0.015916	-0.392892
C63	C	-0.500668	0.006779	-0.438513
C64	C	-0.409106	-0.084435	-0.392891
C65	C	-0.320834	-0.185425	-0.480424
C66	C	-0.299076	-0.210690	-0.502029
C67	C	-0.322531	-0.189005	-0.547237
C68	C	-0.298945	-0.216401	-0.570661
C69	C	-0.367745	-0.142051	-0.570839
C70	C	-0.389497	-0.116787	-0.549237
C71	C	-0.366040	-0.138476	-0.504027
C72	C	-0.666200	0.159838	-0.549704
C73	C	-0.713077	0.203188	-0.571462
C74	C	-0.736595	0.224934	-0.548009
C75	C	-0.787423	0.271931	-0.571594
C76	C	-0.713230	0.203329	-0.502796
C77	C	-0.666353	0.159987	-0.481041
C78	C	-0.642841	0.138241	-0.504500
C79	C	-0.320836	-0.185423	-0.204335
C80	C	-0.299080	-0.210691	-0.157455
C81	C	-0.322536	-0.189006	-0.133940
C82	C	-0.298950	-0.216402	-0.083110
C83	C	-0.367748	-0.142056	-0.157305
C84	C	-0.389502	-0.116792	-0.204182
C85	C	-0.366040	-0.138478	-0.227695
C86	C	-0.389632	-0.111079	-0.480604
C87	C	-0.408436	-0.089241	-0.461934
C88	C	-0.408437	-0.089240	-0.319041
C89	C	-0.389634	-0.111078	-0.278525
C90	C	-0.551496	0.053776	-0.462102
C91	C	-0.592011	0.091239	-0.480906
O92	O	0.196122	-0.334274	0.011291
O93	O	0.063378	-0.256674	-0.011208
O94	O	0.140994	-0.334276	0.066414
O95	O	0.118506	-0.256671	-0.066331
O96	O	0.140996	-0.271251	0.066419
O97	O	0.063380	-0.193649	-0.011203
O98	O	0.196124	-0.271249	0.011296
Cu99	Cu	0.129752	-0.226694	0.000047
Cu100	Cu	0.129750	-0.301228	0.000041
O101	O	0.118508	-0.193647	-0.066327
O102	O	-0.260036	0.184774	0.011294
O103	O	-0.204910	0.074561	-0.011204
O104	O	-0.204913	0.074554	0.066418
O105	O	-0.260033	0.184781	-0.066328
O106	O	-0.267961	0.074557	0.066413
O107	O	-0.267958	0.074564	-0.011209
O108	O	-0.323083	0.184777	0.011289
Cu109	Cu	-0.301278	0.129670	0.000040
Cu110	Cu	-0.226716	0.129668	0.000045
O111	O	-0.323081	0.184784	-0.066333
O112	O	-0.936929	0.397535	-0.602582
O113	O	-0.804185	0.287317	-0.547454
O114	O	-0.881802	0.287315	-0.547452
O115	O	-0.859312	0.397537	-0.602584
O116	O	-0.881801	0.287314	-0.610498
O117	O	-0.804183	0.287316	-0.610500
O118	O	-0.936927	0.397533	-0.665628
Cu119	Cu	-0.870555	0.342425	-0.643820
Cu120	Cu	-0.870557	0.342426	-0.569261
O121	O	-0.859310	0.397536	-0.665629
O122	O	-0.267961	-0.271234	-0.665316
O123	O	-0.323086	-0.193638	-0.610192
O124	O	-0.323085	-0.271236	-0.610189
O125	O	-0.267962	-0.193636	-0.665319
O126	O	-0.260038	-0.334264	-0.547142
O127	O	-0.260039	-0.256666	-0.547145
O128	O	-0.204914	-0.334262	-0.602269
Cu129	Cu	-0.226720	-0.301219	-0.568950
Cu130	Cu	-0.301280	-0.226681	-0.643511
O131	O	-0.204915	-0.256664	-0.602272
C132	C	-0.094840	-0.456607	0.293255
C133	C	-0.044837	-0.503376	0.316647
C134	C	-0.117862	-0.433912	0.316174
C135	C	-0.163483	-0.387984	0.224612
C136	C	-0.186875	-0.361381	0.174609
C137	C	-0.186401	-0.365393	0.247634
C138	C	-0.163483	-0.387984	0.293255
C139	C	-0.186874	-0.361382	0.316646
C140	C	-0.117862	-0.433912	0.247635
C141	C	-0.205772	-0.339889	0.335543
C142	C	-0.004440	-0.541160	0.335545
C143	C	-0.205773	-0.339888	0.134212
C144	C	-0.229480	-0.312925	0.359250
C145	C	0.046239	-0.588562	0.359254
C146	C	-0.229481	-0.312924	0.083532
C147	C	0.153295	-0.388013	0.293279
C148	C	0.150076	-0.361413	0.316673
C149	C	0.153614	-0.433940	0.316196
C150	C	0.153297	-0.388008	0.224634
C151	C	0.150079	-0.361403	0.174632
C152	C	0.153616	-0.433935	0.247655
C153	C	0.153293	-0.456633	0.293275
C154	C	0.150072	-0.503401	0.316665
C155	C	0.153617	-0.365420	0.247659
C156	C	0.147469	-0.541185	0.335561
C157	C	0.147474	-0.339922	0.335572
C158	C	0.147479	-0.339908	0.134234
C159	C	0.144204	-0.588587	0.359267
C160	C	0.144211	-0.312962	0.359282
C161	C	0.144218	-0.312942	0.083555
C162	C	-0.163482	-0.139963	0.293267
C163	C	-0.186875	-0.166567	0.316654
C164	C	-0.117861	-0.162559	0.316187
C165	C	-0.163482	-0.071333	0.224628
C166	C	-0.186873	-0.024557	0.174627
C167	C	-0.117860	-0.094033	0.247653
C168	C	-0.094838	-0.139967	0.293272
C169	C	-0.044835	-0.166574	0.316665
C170	C	-0.186401	-0.094030	0.247648
C171	C	-0.004438	-0.188070	0.335563
C172	C	-0.205773	-0.188061	0.335549
C173	C	-0.205771	0.013233	0.134231
C174	C	0.046242	-0.215038	0.359273
C175	C	-0.229482	-0.215026	0.359253
C176	C	-0.229479	0.060643	0.083553
C177	C	0.095627	0.006487	-0.438489
C178	C	0.095306	-0.016206	-0.461409
C179	C	0.095623	-0.062137	-0.369847
C180	C	0.095303	-0.084726	-0.392871
C181	C	0.095625	-0.062133	-0.438492
C182	C	0.095305	-0.016210	-0.392868
C183	C	0.108059	0.159543	-0.480399
C184	C	0.111575	0.202893	-0.502003
C185	C	0.113340	0.224640	-0.547210
C186	C	0.117161	0.271637	-0.570634
C187	C	0.111587	0.203038	-0.570814
C188	C	0.108065	0.159695	-0.549212
C189	C	0.106302	0.137948	-0.504002
C190	C	0.108054	-0.116452	-0.549685
C191	C	0.111568	-0.141562	-0.571444
C192	C	0.113332	-0.188519	-0.547992
C193	C	0.117148	-0.215753	-0.571578
C194	C	0.111577	-0.210363	-0.502779
C195	C	0.108055	-0.185249	-0.481023
C196	C	0.106297	-0.138292	-0.504481
C197	C	0.108046	-0.116473	-0.204312
C198	C	0.111564	-0.141591	-0.157432
C199	C	0.113326	-0.188548	-0.133918
C200	C	0.117142	-0.215786	-0.083088
C201	C	0.111574	-0.210388	-0.157283
C202	C	0.108058	-0.185270	-0.204161
C203	C	0.106290	-0.138308	-0.227673
C204	C	0.102487	0.090947	-0.480580
C205	C	0.099445	0.053484	-0.461911
C206	C	0.099438	-0.089371	-0.319019
C207	C	0.102477	-0.111078	-0.278503
C208	C	0.099442	-0.089362	-0.462081
C209	C	0.102482	-0.111066	-0.480886
O210	O	0.118477	-0.256700	0.452885
O211	O	0.140984	-0.334299	0.397762
O212	O	0.063360	-0.256699	0.397752
O213	O	0.196101	-0.334300	0.452895
O214	O	0.063367	-0.193672	0.334708
O215	O	0.140992	-0.271271	0.334718
O216	O	0.118484	-0.193673	0.389842
Cu217	Cu	0.129739	-0.226717	0.356523
Cu218	Cu	0.129730	-0.301254	0.431080
O219	O	0.196108	-0.271272	0.389852
C220	C	-0.500364	0.533998	-0.438484
C221	C	-0.477341	0.556591	-0.461399
C222	C	-0.431721	0.465364	-0.369840
C223	C	-0.408802	0.488061	-0.392859
C224	C	-0.431720	0.533995	-0.438478
C225	C	-0.477342	0.488064	-0.392865
C226	C	-0.665898	0.588334	-0.480407
C227	C	-0.712776	0.613450	-0.502014
C228	C	-0.736291	0.660414	-0.547220
C229	C	-0.787122	0.687654	-0.570647
C230	C	-0.712926	0.682257	-0.570819
C231	C	-0.666050	0.657138	-0.549214
C232	C	-0.642536	0.610174	-0.504006
C233	C	-0.389802	0.657585	-0.549654
C234	C	-0.368196	0.682850	-0.571408
C235	C	-0.322990	0.661164	-0.547952
C236	C	-0.299561	0.688558	-0.571532
C237	C	-0.299388	0.614205	-0.502740
C238	C	-0.320990	0.588935	-0.480990
C239	C	-0.366202	0.610633	-0.504452
C240	C	-0.389804	0.312282	-0.204314
C241	C	-0.368201	0.268929	-0.157436
C242	C	-0.322993	0.247179	-0.133918
C243	C	-0.299567	0.200174	-0.083089
C244	C	-0.299392	0.268786	-0.157278
C245	C	-0.320998	0.312139	-0.204154
C246	C	-0.366204	0.333881	-0.227670
C247	C	-0.591708	0.582942	-0.480581
C248	C	-0.551193	0.561234	-0.461909
C249	C	-0.408297	0.418359	-0.319013
C250	C	-0.389626	0.380890	-0.278499
C251	C	-0.408296	0.561393	-0.462062
C252	C	-0.389624	0.583232	-0.480862
H253	H	-0.223885	-0.074993	-0.024363
H254	H	-0.099381	-0.199518	0.353671
C255	C	-0.252342	-0.300384	0.252547
C256	C	-0.237002	-0.315503	0.222684
H257	H	-0.283578	-0.269584	0.237143
H258	H	-0.250572	-0.328928	0.279509
H259	H	-0.233281	-0.292379	0.261234
H260	H	-0.256061	-0.323512	0.213999
H261	H	-0.238776	-0.286954	0.195713
C262	C	-0.122786	-0.429933	0.382124
C263	C	-0.092920	-0.459564	0.366781
H264	H	-0.107391	-0.445775	0.413369
H265	H	-0.131464	-0.394195	0.363079
H266	H	-0.149756	-0.429742	0.380336
H267	H	-0.065951	-0.459752	0.368566
H268	H	-0.084235	-0.495312	0.385832
C269	C	0.152251	-0.301797	-0.132227
C270	C	0.113508	-0.262003	-0.131436
H271	H	0.153445	-0.333661	-0.116267
H272	H	0.149904	-0.289966	-0.163485
H273	H	0.179679	-0.308759	-0.117457
H274	H	0.086079	-0.255038	-0.146208
H275	H	0.115851	-0.273837	-0.100172
H276	H	-0.099380	-0.199466	-0.024359
C277	C	-0.661827	0.546974	-0.400554
C278	C	-0.640054	0.536710	-0.430718
H279	H	-0.645872	0.515102	-0.369880
H280	H	-0.661286	0.573963	-0.401272
H281	H	-0.693088	0.558808	-0.410052
H282	H	-0.608794	0.524879	-0.421223
H283	H	-0.640591	0.509711	-0.429998
H284	H	-0.301729	-0.203089	-0.443614
C285	C	0.114823	-0.459834	0.220371
C286	C	0.154304	-0.459566	0.222696
H287	H	0.115245	-0.475652	0.204958
H288	H	0.114689	-0.479944	0.250892
H289	H	0.087759	-0.424086	0.203678
H290	H	0.181368	-0.495315	0.239392
H291	H	0.154443	-0.439457	0.192169
C292	C	-0.708366	0.747741	-0.636657
C293	C	-0.738772	0.733876	-0.620507
H294	H	-0.724322	0.779608	-0.667335
H295	H	-0.697193	0.753490	-0.616927
H296	H	-0.682964	0.719531	-0.636670
H297	H	-0.764172	0.762085	-0.620491
H298	H	-0.749952	0.728131	-0.640243
H299	H	-0.496128	0.003076	-0.374407
C300	C	-0.122792	-0.023110	-0.024834
C301	C	-0.092928	-0.068313	-0.024599
H302	H	-0.107405	-0.007246	-0.025322
H303	H	-0.149773	0.002044	-0.051592
H304	H	-0.131445	-0.033475	0.002257
H305	H	-0.084278	-0.057947	-0.051692
H306	H	-0.065939	-0.093471	0.002162
C307	C	-0.504621	-0.537914	-0.004268
C308	C	-0.502294	-0.537633	0.035206
H309	H	-0.520023	-0.553747	-0.003830
H310	H	-0.521319	-0.502172	-0.031335
H311	H	-0.474097	-0.558021	-0.004405
H312	H	-0.532818	-0.517522	0.035341
H313	H	-0.485596	-0.573380	0.062280
C314	C	-0.468347	-0.073589	-0.550306
C315	C	-0.439192	-0.065179	-0.575180
H316	H	-0.499026	-0.041727	-0.566322
H317	H	-0.468303	-0.101848	-0.547437
H318	H	-0.457487	-0.082888	-0.520292
H319	H	-0.450050	-0.055884	-0.605193
H320	H	-0.439238	-0.036911	-0.578054
H321	H	-0.262264	-0.248919	-0.482808
C322	C	-0.365634	0.202537	-0.085647
C323	C	-0.394142	0.245180	-0.131758
H324	H	-0.381651	0.187878	-0.069796
H325	H	-0.338091	0.175676	-0.085053
H326	H	-0.357831	0.215142	-0.070819
H327	H	-0.401942	0.232574	-0.146588
H328	H	-0.421694	0.272046	-0.132355
H329	H	-0.099376	-0.075038	0.229168
C330	C	0.154502	-0.429940	0.382138
C331	C	0.154300	-0.459580	0.366794
H332	H	0.154919	-0.445767	0.413372
H333	H	0.181283	-0.429759	0.380379
H334	H	0.127433	-0.394195	0.363073
H335	H	0.181370	-0.495325	0.385858
H336	H	0.127515	-0.459767	0.368557
C337	C	0.154518	-0.300398	0.252561
C338	C	0.154313	-0.315529	0.222706
H339	H	0.154949	-0.269600	0.237155
H340	H	0.127450	-0.292390	0.261242
H341	H	0.181299	-0.328942	0.279531
H342	H	0.127530	-0.286986	0.195737
H343	H	0.181384	-0.323535	0.214018
C344	C	-0.472723	-0.019872	-0.527395
C345	C	-0.502584	0.009755	-0.512046
H346	H	-0.488117	-0.004015	-0.558644
H347	H	-0.445748	-0.020083	-0.525592
H348	H	-0.464060	-0.055609	-0.508360
H349	H	-0.511244	0.045491	-0.531078
H350	H	-0.529568	0.009971	-0.513852
H351	H	-0.099372	-0.452898	0.229148
H352	H	0.112999	-0.123775	-0.608256
C353	C	-0.472426	0.621604	-0.527336
C354	C	-0.502290	0.606486	-0.511999
H355	H	-0.487827	0.652404	-0.558574
H356	H	-0.463739	0.629606	-0.508276
H357	H	-0.445461	0.593057	-0.525565
H358	H	-0.529253	0.635032	-0.513766
H359	H	-0.510984	0.598486	-0.531064
H360	H	-0.426617	-0.324814	0.023182
H361	H	-0.371321	-0.530978	0.035012
H362	H	-0.495829	-0.406511	0.035012
H363	H	-0.223884	-0.075035	0.229163
C364	C	0.143700	-0.221963	-0.246303
C365	C	0.106130	-0.209272	-0.229846
H366	H	0.142510	-0.236784	-0.262157
H367	H	0.142144	-0.190405	-0.267011
H368	H	0.171924	-0.247316	-0.220898
H369	H	0.077905	-0.183916	-0.255251
H370	H	0.107681	-0.240834	-0.209136
C371	C	0.094371	-0.149732	-0.322940
C372	C	0.094586	-0.134603	-0.367929
H373	H	0.093921	-0.180518	-0.307547
H374	H	0.121444	-0.157761	-0.306236
H375	H	0.067595	-0.121180	-0.324527
H376	H	0.121364	-0.163154	-0.366341
H377	H	0.067510	-0.126576	-0.384636
C378	C	0.094464	0.054581	-0.527333
C379	C	0.094651	0.009410	-0.511997
H380	H	0.094074	0.070383	-0.558559
H381	H	0.067674	0.079793	-0.525597
H382	H	0.121524	0.044198	-0.508248
H383	H	0.067589	0.019793	-0.531081
H384	H	0.121444	-0.015807	-0.513737
C385	C	-0.438385	-0.251906	0.018592
C386	C	-0.394147	-0.265601	0.016295
H387	H	-0.454399	-0.220048	0.017406
H388	H	-0.455253	-0.246206	-0.006890
H389	H	-0.435505	-0.280174	0.046824
H390	H	-0.397027	-0.237334	-0.011938
H391	H	-0.377275	-0.271298	0.041779
C392	C	0.094393	0.054618	-0.397769
C393	C	0.094601	0.009432	-0.367915
H394	H	0.093954	0.070448	-0.382364
H395	H	0.121464	0.044247	-0.406445
H396	H	0.067615	0.079807	-0.424741
H397	H	0.121381	-0.015759	-0.340944
H398	H	0.067527	0.019801	-0.359232
H399	H	-0.301778	0.329728	-0.223172
C400	C	-0.670446	-0.272121	0.021446
C401	C	-0.640045	-0.318657	0.023716
H402	H	-0.654483	-0.257419	0.022664
H403	H	-0.695842	-0.246704	-0.006786
H404	H	-0.681626	-0.280684	0.046927
H405	H	-0.628868	-0.310094	-0.001767
H406	H	-0.614641	-0.344079	0.051951
H407	H	0.113001	-0.123813	-0.138408
C408	C	-0.469655	-0.645198	-0.016734
C409	C	-0.439496	-0.663852	0.023700
H410	H	-0.500331	-0.630449	-0.015533
H411	H	-0.468933	-0.618387	-0.043013
H412	H	-0.460158	-0.674111	-0.019073
H413	H	-0.448990	-0.634938	0.026038
H414	H	-0.440220	-0.690665	0.049986
C415	C	0.108393	-0.050995	-0.199749
C416	C	0.106107	-0.064857	-0.230156
H417	H	0.107200	-0.019132	-0.215705
H418	H	0.082911	-0.045241	-0.188577
H419	H	0.136624	-0.079209	-0.174346
H420	H	0.077875	-0.036644	-0.255557
H421	H	0.131591	-0.070607	-0.241335
H422	H	0.106623	0.141841	-0.443588
H423	H	-0.731792	-0.278991	0.016812
H424	H	-0.262581	0.251075	-0.138127
C425	C	0.152243	-0.301765	-0.436393
C426	C	0.113506	-0.261972	-0.476996
H427	H	0.153431	-0.333625	-0.420474
H428	H	0.179672	-0.308734	-0.444192
H429	H	0.149893	-0.289926	-0.416972
H430	H	0.115858	-0.273809	-0.496418
H431	H	0.086070	-0.255003	-0.469198
C432	C	-0.784847	-0.377608	0.012840
C433	C	-0.738768	-0.409697	0.016300
H434	H	-0.800803	-0.392324	0.011642
H435	H	-0.785381	-0.376350	0.039120
H436	H	-0.799609	-0.342387	-0.014594
H437	H	-0.724005	-0.444917	0.043735
H438	H	-0.738232	-0.410961	-0.009983
C439	C	-0.290915	-0.171788	-0.267630
C440	C	-0.295053	-0.209256	-0.230185
H441	H	-0.274998	-0.186501	-0.283589
H442	H	-0.320952	-0.140216	-0.288246
H443	H	-0.273982	-0.163246	-0.256446
H444	H	-0.311989	-0.217795	-0.241369
H445	H	-0.265011	-0.240837	-0.209566
H446	H	0.113004	0.220477	-0.482781
C447	C	0.116996	0.269541	-0.634479
C448	C	0.113532	0.226938	-0.620502
H449	H	0.118202	0.284292	-0.665153
H450	H	0.090715	0.296351	-0.633759
H451	H	0.144427	0.256871	-0.614005
H452	H	0.086100	0.239609	-0.640973
H453	H	0.139816	0.200123	-0.621225
C454	C	0.108434	0.164188	-0.619395
C455	C	0.106140	0.135950	-0.575154
H456	H	0.107250	0.149524	-0.635408
H457	H	0.082951	0.200825	-0.636262
H458	H	0.136664	0.161356	-0.616516
H459	H	0.077909	0.138785	-0.578033
H460	H	0.131626	0.099303	-0.558283
H461	H	0.106619	-0.078217	-0.568789
H462	H	0.106623	-0.203035	-0.444212
H463	H	-0.426614	0.329984	-0.223458
C464	C	-0.342858	0.417230	-0.322917
C465	C	-0.358201	0.462419	-0.367907
H466	H	-0.311620	0.401400	-0.307515
H467	H	-0.361913	0.427597	-0.306222
H468	H	-0.344628	0.392041	-0.324504
H469	H	-0.356434	0.487610	-0.366319
H470	H	-0.339140	0.452053	-0.384606
H471	H	-0.495832	0.469078	-0.374381
H472	H	-0.647026	-0.449354	0.023185
C473	C	-0.775894	0.626820	-0.471846
C474	C	-0.738460	0.589446	-0.476074
H475	H	-0.791751	0.612001	-0.455833
H476	H	-0.764719	0.635423	-0.454975
H477	H	-0.796602	0.658380	-0.501863
H478	H	-0.717749	0.557887	-0.446056
H479	H	-0.749634	0.580836	-0.492945
C480	C	-0.405646	-0.773417	0.056759
C481	C	-0.394141	-0.754843	0.016317
H482	H	-0.421663	-0.788074	0.055566
H483	H	-0.378100	-0.800284	0.083032
H484	H	-0.424983	-0.744485	0.059101
H485	H	-0.374800	-0.783775	0.013976
H486	H	-0.421690	-0.727973	-0.009964
H487	H	-0.262584	-0.748943	0.016794
C488	C	-0.290830	-0.668304	0.065278
C489	C	-0.295060	-0.664136	0.023669
H490	H	-0.274818	-0.653637	0.066459
H491	H	-0.320842	-0.649155	0.066830
H492	H	-0.273953	-0.704948	0.090763
H493	H	-0.311940	-0.627491	-0.001816
H494	H	-0.265042	-0.683284	0.022112
C495	C	-0.623906	0.693827	-0.550268
C496	C	-0.640367	0.681146	-0.575150
H497	H	-0.608048	0.708646	-0.566279
H498	H	-0.649304	0.719172	-0.547398
H499	H	-0.603195	0.662259	-0.520255
H500	H	-0.661081	0.712715	-0.605162
H501	H	-0.614966	0.655800	-0.578026
C502	C	-0.250817	-0.476419	0.021376
C503	C	-0.295059	-0.462718	0.023664
H504	H	-0.234799	-0.508284	0.022573
H505	H	-0.253690	-0.448161	-0.006853
H506	H	-0.233954	-0.482113	0.046861
H507	H	-0.311923	-0.457021	-0.001823
H508	H	-0.292187	-0.490983	0.051896
H509	H	-0.371622	-0.121391	-0.374409
C510	C	-0.235718	-0.377603	0.012825
C511	C	-0.249702	-0.409687	0.016279
H512	H	-0.205037	-0.392327	0.011638
H513	H	-0.256176	-0.342387	-0.014607
H514	H	-0.236449	-0.376342	0.039107
H515	H	-0.248974	-0.410944	-0.010005
H516	H	-0.229238	-0.444912	0.043714
C517	C	-0.233387	-0.275992	-0.162314
C518	C	-0.249384	-0.262296	-0.131775
H519	H	-0.202705	-0.307848	-0.146461
H520	H	-0.253166	-0.281695	-0.173478
H521	H	-0.233435	-0.247722	-0.187712
H522	H	-0.249339	-0.290564	-0.106378
H523	H	-0.229600	-0.256596	-0.120604
H524	H	-0.426614	0.675254	-0.568760
C525	C	-0.438389	0.748182	-0.637089
C526	C	-0.394143	0.734474	-0.621095
H527	H	-0.454409	0.780057	-0.667761
H528	H	-0.435520	0.719934	-0.637064
H529	H	-0.455245	0.753862	-0.617291
H530	H	-0.377285	0.728791	-0.640891
H531	H	-0.397011	0.762729	-0.621123
C532	C	-0.235716	0.622455	-0.505590
C533	C	-0.249696	0.590362	-0.476955
H534	H	-0.205040	0.607737	-0.489669
H535	H	-0.236440	0.623719	-0.533131
H536	H	-0.256185	0.657673	-0.513384
H537	H	-0.229229	0.555144	-0.469163
H538	H	-0.248969	0.589092	-0.449405
H539	H	-0.301770	0.550701	-0.444180
C540	C	-0.364887	-0.150310	-0.634506
C541	C	-0.393526	-0.118218	-0.620528
H542	H	-0.380808	-0.135596	-0.665182
H543	H	-0.337350	-0.151565	-0.633785
H544	H	-0.357088	-0.185531	-0.614034
H545	H	-0.401323	-0.082998	-0.640998
H546	H	-0.421072	-0.116957	-0.621252
H547	H	-0.647059	0.142138	-0.568809
C548	C	-0.708224	0.198682	-0.637144
C549	C	-0.738760	0.226926	-0.621153
H550	H	-0.724082	0.213334	-0.667820
H551	H	-0.682833	0.201520	-0.637112
H552	H	-0.697053	0.162039	-0.617350
H553	H	-0.749928	0.263568	-0.640946
H554	H	-0.764159	0.224093	-0.621189
H555	H	-0.732378	0.221040	-0.483702
H556	H	-0.647332	0.142401	-0.444230
H557	H	-0.426314	-0.078564	-0.223203
C558	C	-0.364894	-0.150299	-0.085381
C559	C	-0.393533	-0.118214	-0.131460
H560	H	-0.380812	-0.135576	-0.069429
H561	H	-0.357096	-0.185515	-0.070615
H562	H	-0.337352	-0.151556	-0.084851
H563	H	-0.421073	-0.116960	-0.131990
H564	H	-0.401337	-0.082988	-0.146230
