data_functionalizedCrystal
_audit_creation_method	'MofGen! by Chris Wilmer'
_symmetry_space_group_name_H-M	'P1'
_symmetry_Int_Tables_number	1
_symmetry_cell_setting	triclinic
loop_
_symmetry_equiv_pos_as_xyz
  x,y,z
_cell_length_a	16.959455
_cell_length_b	17.637651
_cell_length_c	16.959447
_cell_angle_alpha	78.752498
_cell_angle_beta	89.985299
_cell_angle_gamma	101.218339
loop_
_atom_site_label
_atom_site_type_symbol
_atom_site_fract_x
_atom_site_fract_y
_atom_site_fract_z
Zn1	Zn	1.144790	-0.314761	-0.383218
Zn2	Zn	1.117997	-0.446988	-0.224281
Zn3	Zn	1.012612	-0.314791	-0.251049
Zn4	Zn	0.985878	-0.446935	-0.356430
O5	O	1.065319	-0.380869	-0.303744
O6	O	1.251844	-0.332311	-0.362144
O7	O	1.103993	-0.429487	-0.117214
O8	O	1.052546	-0.204147	-0.290995
O9	O	1.232160	-0.429457	-0.245373
O10	O	1.149657	-0.204125	-0.388100
O11	O	1.026567	-0.332363	-0.136880
O12	O	0.898457	-0.332311	-0.265019
O13	O	1.006983	-0.429367	-0.470601
O14	O	0.878816	-0.429396	-0.342442
O15	O	1.123734	-0.332259	-0.490283
O16	O	1.078070	-0.557621	-0.219397
O17	O	0.981003	-0.557582	-0.316486
C18	C	0.859956	-0.380852	-0.303728
C19	C	0.772097	-0.380863	-0.303737
C20	C	1.023750	-0.586289	-0.262147
C21	C	1.006039	-0.674169	-0.244378
C22	C	0.720587	-0.431371	-0.242882
C23	C	0.741053	-0.330362	-0.364596
C24	C	0.658506	-0.330368	-0.364604
C25	C	0.606995	-0.380876	-0.303750
C26	C	0.638033	-0.431377	-0.242887
C27	C	0.627463	-0.279862	-0.425461
C28	C	0.544912	-0.279865	-0.425471
C29	C	0.493399	-0.330378	-0.364619
C30	C	0.524441	-0.380882	-0.303755
C31	C	0.472931	-0.431390	-0.242900
C32	C	0.503970	-0.481898	-0.182038
C33	C	0.586520	-0.481890	-0.182035
C34	C	0.410849	-0.330386	-0.364622
C35	C	0.390376	-0.431396	-0.242905
C36	C	1.200383	-0.962841	-0.438983
C37	C	1.183715	-1.045418	-0.422273
C38	C	1.082662	-1.045548	-0.321060
C39	C	1.099323	-0.962970	-0.337759
C40	C	1.158184	-0.921623	-0.396722
C41	C	1.057125	-0.921752	-0.295499
C42	C	1.073783	-0.839182	-0.312200
C43	C	1.132639	-0.797829	-0.371162
C44	C	1.174842	-0.839053	-0.413423
C45	C	0.998260	-0.963101	-0.236540
C46	C	0.956062	-0.921883	-0.194279
C47	C	0.972723	-0.839311	-0.210976
C48	C	1.031579	-0.797958	-0.269938
C49	C	0.930520	-0.798087	-0.168714
C50	C	0.947178	-0.715516	-0.185415
C51	C	1.048237	-0.715387	-0.286639
C52	C	1.271484	-0.380887	-0.303761
C53	C	1.359339	-0.380894	-0.303768
C54	C	1.065365	-0.380803	-0.509926
C55	C	1.065385	-0.380775	-0.597788
C56	C	1.107072	-0.174646	-0.345521
C57	C	1.124865	-0.086767	-0.363324
C58	C	1.004709	-0.431252	-0.959036
C59	C	1.126283	-0.330133	-0.979526
C60	C	1.126259	-0.330149	-0.896977
C61	C	1.065459	-0.380719	-0.845453
C62	C	1.004684	-0.431271	-0.876479
C63	C	1.187038	-0.279603	-0.865943
C64	C	1.187016	-0.279619	-0.783389
C65	C	1.126212	-0.330185	-0.731865
C66	C	1.065434	-0.380739	-0.762895
C67	C	1.004635	-0.431308	-0.711372
C68	C	0.943853	-0.481859	-0.742401
C69	C	0.943880	-0.481838	-0.824954
C70	C	1.126185	-0.330206	-0.649312
C71	C	1.004610	-0.431328	-0.628814
C72	C	1.065330	-0.380877	-0.098377
C73	C	1.065509	-0.380682	-0.010560
H74	H	0.348440	-0.472529	-0.193352
H75	H	1.236508	-0.238457	-0.758133
Br76	Br	1.269553	-0.210986	-0.935868
Br77	Br	0.368728	-0.261836	-0.447207
H78	H	0.669409	-0.238738	-0.475003
H79	H	0.894397	-0.522996	-0.850226
H80	H	0.745863	-0.472496	-0.193331
H81	H	1.096174	-0.681721	-0.334647
H82	H	1.175674	-0.289051	-0.624051
H83	H	0.519647	-0.238739	-0.475030
H84	H	1.146201	-0.730594	-0.384758
Br85	Br	0.975783	-1.075163	-0.213744
H86	H	0.908135	-0.955559	-0.146273
Br87	Br	0.850626	-0.854210	-0.088711
Br88	Br	0.434056	-0.550434	-0.099447
Br89	Br	1.254738	-0.782931	-0.493433
Br90	Br	0.628650	-0.550429	-0.099443
H91	H	1.175787	-0.288966	-1.021480
Br92	Br	0.810959	-0.261814	-0.447177
H93	H	1.248319	-0.929175	-0.486991
Br94	Br	1.240996	-1.101355	-0.479630
H95	H	1.034735	-1.079224	-0.273054
H96	H	0.912814	-0.681956	-0.151003
H97	H	0.955093	-0.472501	-0.586869
Br98	Br	0.861347	-0.550493	-0.672466
Br99	Br	0.922219	-0.499849	-1.001145
