data_functionalizedCrystal
_audit_creation_method	'MofGen! by Chris Wilmer'
_symmetry_space_group_name_H-M	'P1'
_symmetry_Int_Tables_number	1
_symmetry_cell_setting	triclinic
loop_
_symmetry_equiv_pos_as_xyz
  x,y,z
_cell_length_a	12.594516
_cell_length_b	12.759401
_cell_length_c	12.759393
_cell_angle_alpha	90.020011
_cell_angle_beta	89.970876
_cell_angle_gamma	89.987869
loop_
_atom_site_label
_atom_site_type_symbol
_atom_site_fract_x
_atom_site_fract_y
_atom_site_fract_z
Zn1	Zn	-0.423791	-1.606246	-0.594042
Zn2	Zn	-0.601810	-1.606136	-0.418369
Zn3	Zn	-0.423834	-1.430547	-0.418376
Zn4	Zn	-0.601715	-1.430532	-0.594006
O5	O	-0.512787	-1.518365	-0.506198
O6	O	-0.447427	-1.753252	-0.570750
O7	O	-0.578259	-1.582804	-0.271349
O8	O	-0.274882	-1.453907	-0.441697
O9	O	-0.578217	-1.753171	-0.441684
O10	O	-0.274851	-1.582991	-0.570757
O11	O	-0.447500	-1.453800	-0.271354
O12	O	-0.447409	-1.283524	-0.441662
O13	O	-0.578056	-1.453880	-0.741032
O14	O	-0.578097	-1.283513	-0.570696
O15	O	-0.447335	-1.582976	-0.741058
O16	O	-0.750743	-1.582789	-0.441650
O17	O	-0.750674	-1.453774	-0.570690
C18	C	-0.512748	-1.245398	-0.506177
C19	C	-0.512757	-1.128621	-0.506193
C20	C	-0.444780	-1.073794	-0.573500
C21	C	-0.444795	-0.964070	-0.573504
C22	C	-0.580772	-0.964010	-0.438890
C23	C	-0.580751	-1.073732	-0.438882
C24	C	-0.376786	-1.128684	-0.640811
C25	C	-0.308804	-1.073857	-0.708124
C26	C	-0.308819	-0.964132	-0.708128
C27	C	-0.376815	-0.909235	-0.640818
C28	C	-0.789328	-1.518296	-0.506188
C29	C	-0.907634	-1.518363	-0.506219
C30	C	-0.976888	-1.448185	-0.576354
C31	C	-1.047756	-1.422585	-0.480487
C32	C	-1.047564	-1.544058	-0.602102
C33	C	-0.976944	-1.492713	-0.410301
C34	C	-0.976746	-1.614230	-0.531981
C35	C	-1.047582	-1.588667	-0.436048
C36	C	-0.235167	-1.518463	-0.506232
C37	C	-0.116861	-1.518505	-0.506246
C38	C	-0.512680	-1.518439	-0.780232
C39	C	-0.512634	-1.518470	-0.897008
C40	C	-0.512815	-0.792398	-0.506214
C41	C	-0.512792	-0.909175	-0.506205
C42	C	-0.444562	-1.585700	-0.951886
C43	C	-0.444523	-1.585725	-1.061610
C44	C	-0.580639	-1.451288	-1.061570
C45	C	-0.580672	-1.451258	-0.951848
C46	C	-0.376524	-1.652912	-0.897047
C47	C	-0.308447	-1.720147	-0.951924
C48	C	-0.308409	-1.720172	-1.061648
C49	C	-0.376448	-1.652962	-1.116495
C50	C	-0.512818	-1.518352	-0.233231
C51	C	-0.512564	-1.518525	-0.116455
H52	H	-0.376799	-0.819891	-0.640805
H53	H	-0.945534	-1.695219	-0.553795
H54	H	-0.253046	-1.774861	-0.907261
H55	H	-0.252969	-1.774911	-1.106327
H56	H	-0.253438	-1.118561	-0.762919
H57	H	-0.376398	-1.652975	-1.205840
H58	H	-0.946051	-1.470943	-0.329202
H59	H	-0.636033	-1.396567	-1.106235
H60	H	-0.636133	-0.919304	-0.384092
H61	H	-0.945846	-1.388731	-0.635579
H62	H	-0.636086	-1.396498	-0.907165
H63	H	-1.078427	-1.648075	-0.376680
H64	H	-0.376766	-1.218026	-0.640815
H65	H	-1.078971	-1.341578	-0.458719
H66	H	-1.078585	-1.565734	-0.683179
H67	H	-0.376550	-1.652901	-0.807704
H68	H	-0.253458	-0.919495	-0.762930
H69	H	-0.636104	-1.118373	-0.384074
