data_functionalizedCrystal
_audit_creation_method	'MofGen! by Chris Wilmer'
_symmetry_space_group_name_H-M	'P1'
_symmetry_Int_Tables_number	1
_symmetry_cell_setting	triclinic
loop_
_symmetry_equiv_pos_as_xyz
  x,y,z
_cell_length_a	19.077105
_cell_length_b	19.077068
_cell_length_c	19.077174
_cell_angle_alpha	94.657148
_cell_angle_beta	85.483752
_cell_angle_gamma	90.115316
loop_
_atom_site_label
_atom_site_type_symbol
_atom_site_fract_x
_atom_site_fract_y
_atom_site_fract_z
Zn1	Zn	1.080478	-0.341972	-0.455027
Zn2	Zn	1.071301	-0.454742	-0.341487
Zn3	Zn	0.958244	-0.332134	-0.332045
Zn4	Zn	0.958197	-0.454696	-0.454603
O5	O	1.017055	-0.395886	-0.395791
O6	O	1.177751	-0.361068	-0.444095
O7	O	1.052483	-0.434380	-0.241427
O8	O	0.978319	-0.234951	-0.344585
O9	O	1.171009	-0.443920	-0.360677
O10	O	1.068124	-0.242180	-0.434939
O11	O	0.969420	-0.344300	-0.234490
O12	O	0.859748	-0.344255	-0.344174
O13	O	0.978239	-0.443841	-0.553467
O14	O	0.859713	-0.434301	-0.434217
O15	O	1.068079	-0.361024	-0.553779
O16	O	1.052438	-0.553224	-0.360266
O17	O	0.969340	-0.553190	-0.443372
C18	C	0.834193	-0.388206	-0.388125
C19	C	0.755964	-0.384938	-0.384863
C20	C	0.719207	-0.430350	-0.430143
C21	C	0.645702	-0.427270	-0.427081
C22	C	0.608956	-0.378782	-0.378736
C23	C	0.645719	-0.333365	-0.333454
C24	C	0.719222	-0.336442	-0.336520
C25	C	0.389126	-0.364542	-0.364550
C26	C	0.315618	-0.361471	-0.361486
C27	C	0.315607	-0.455375	-0.455114
C28	C	0.389111	-0.458451	-0.458173
C29	C	0.425867	-0.413032	-0.412894
N30	N	0.533823	-0.375634	-0.375603
N31	N	0.500999	-0.416176	-0.416030
C32	C	1.009908	-0.578745	-0.402813
C33	C	1.006916	-0.656976	-0.405844
C34	C	1.048810	-0.693727	-0.364038
C35	C	1.046000	-0.767234	-0.366893
C36	C	1.001291	-0.803989	-0.411551
C37	C	0.959395	-0.767233	-0.453361
C38	C	0.962209	-0.693728	-0.450510
C39	C	0.988234	-1.023827	-0.424718
C40	C	0.985422	-1.097337	-0.427565
C41	C	1.072029	-1.097333	-0.341097
C42	C	1.074836	-1.023826	-0.338247
C43	C	1.032942	-0.987077	-0.380060
N44	N	0.998416	-0.879124	-0.414468
N45	N	1.035821	-0.911943	-0.377146
C46	C	1.200631	-0.403597	-0.403486
C47	C	1.278861	-0.406882	-0.406766
C48	C	1.024177	-0.403525	-0.579959
C49	C	1.027212	-0.406780	-0.658440
C50	C	1.024250	-0.212315	-0.388757
C51	C	1.027316	-0.134088	-0.385759
C52	C	0.985394	-0.361410	-0.691699
C53	C	0.988242	-0.364475	-0.765441
C54	C	1.032914	-0.412906	-0.805923
C55	C	1.074734	-0.458280	-0.772659
C56	C	1.071881	-0.455219	-0.698918
C57	C	1.046080	-0.427094	-1.026851
C58	C	1.048931	-0.430150	-1.100597
C59	C	0.962438	-0.336345	-1.093373
C60	C	0.959592	-0.333285	-1.019632
C61	C	1.001410	-0.378662	-0.986374
N62	N	1.035828	-0.416037	-0.881299
N63	N	0.998491	-0.375533	-0.911000
C64	C	1.010004	-0.388228	-0.212338
C65	C	1.007113	-0.384781	-0.133855
H66	H	0.285672	-0.492352	-0.491979
Cl67	Cl	0.269423	-0.300514	-0.300700
H68	H	0.928095	-0.663806	-0.484553
H69	H	1.111103	-0.497717	-0.805625
Cl70	Cl	0.935566	-0.977638	-0.477283
Cl71	Cl	0.909868	-0.279307	-1.135187
H72	H	0.954186	-0.327532	-0.792517
H73	H	1.085214	-0.663806	-0.327670
Cl74	Cl	0.765431	-0.279349	-0.279596
H75	H	0.419024	-0.497937	-0.497539
Cl76	Cl	0.929202	-1.143542	-0.483701
Cl77	Cl	1.098673	-0.813432	-0.314336
Cl78	Cl	1.124452	-0.512260	-0.657107
Cl79	Cl	0.765394	-0.491314	-0.490920
H80	H	0.419044	-0.327564	-0.327676
Cl81	Cl	1.105100	-0.491033	-1.151487
Cl82	Cl	0.599496	-0.484363	-0.484007
Cl83	Cl	1.131054	-0.977626	-0.282114
Cl84	Cl	1.124696	-1.143536	-0.288540
H85	H	0.922995	-0.797165	-0.489726
H86	H	0.949021	-0.321969	-0.658744
H87	H	0.615795	-0.293882	-0.294093
Cl88	Cl	1.098657	-0.484134	-0.985052
H89	H	0.923214	-0.293850	-0.986676
