data_functionalizedCrystal
_audit_creation_method	'MofGen! by Chris Wilmer'
_symmetry_space_group_name_H-M	'P1'
_symmetry_Int_Tables_number	1
_symmetry_cell_setting	triclinic
loop_
_symmetry_equiv_pos_as_xyz
  x,y,z
_cell_length_a	25.639239
_cell_length_b	21.295418
_cell_length_c	21.295411
_cell_angle_alpha	90.043738
_cell_angle_beta	89.980474
_cell_angle_gamma	89.945501
loop_
_atom_site_label
_atom_site_type_symbol
_atom_site_fract_x
_atom_site_fract_y
_atom_site_fract_z
Zn1	Zn	-0.207990	-0.962320	-0.356243
Zn2	Zn	0.125344	-0.628987	-0.022910
Zn3	Zn	0.458677	-0.295653	0.310424
Zn4	Zn	-0.295410	-0.962207	-0.250972
Zn5	Zn	0.037924	-0.628874	0.082361
Zn6	Zn	0.371257	-0.295541	0.415695
Zn7	Zn	-0.208014	-0.857043	-0.250953
Zn8	Zn	0.125319	-0.523710	0.082381
Zn9	Zn	0.458652	-0.190377	0.415714
Zn10	Zn	-0.295420	-0.856998	-0.356169
Zn11	Zn	0.037913	-0.523664	-0.022835
Zn12	Zn	0.371247	-0.190331	0.310498
O13	O	-0.251708	-0.909642	-0.303584
O14	O	0.081625	-0.576309	0.029749
O15	O	0.414958	-0.242975	0.363083
O16	O	-0.219572	-1.050395	-0.342318
O17	O	0.113762	-0.717061	-0.008984
O18	O	0.447095	-0.383728	0.324349
O19	O	-0.283822	-0.948229	-0.162880
O20	O	0.049511	-0.614896	0.170453
O21	O	0.382844	-0.281562	0.503787
O22	O	-0.134846	-0.871075	-0.264943
O23	O	0.198488	-0.537741	0.068391
O24	O	0.531821	-0.204408	0.401724
O25	O	-0.283799	-1.050312	-0.264976
O26	O	0.049535	-0.716978	0.068358
O27	O	0.382868	-0.383645	0.401691
O28	O	-0.134828	-0.948421	-0.342299
O29	O	0.198506	-0.615088	-0.008965
O30	O	0.531839	-0.281754	0.324368
O31	O	-0.219613	-0.870965	-0.162866
O32	O	0.113720	-0.537632	0.170468
O33	O	0.447053	-0.204299	0.503801
O34	O	-0.219623	-0.768948	-0.264871
O35	O	0.113710	-0.435614	0.068463
O36	O	0.447043	-0.102281	0.401796
O37	O	-0.283816	-0.870997	-0.444268
O38	O	0.049517	-0.537664	-0.110935
O39	O	0.382850	-0.204330	0.222399
O40	O	-0.283840	-0.768914	-0.342172
O41	O	0.049493	-0.435581	-0.008839
O42	O	0.382827	-0.102248	0.324494
O43	O	-0.219582	-0.948377	-0.444322
O44	O	0.113752	-0.615043	-0.110989
O45	O	0.447085	-0.281710	0.222344
O46	O	-0.368576	-0.948185	-0.264904
O47	O	-0.035243	-0.614852	0.068430
O48	O	0.298090	-0.281518	0.401763
O49	O	-0.368584	-0.870888	-0.342191
O50	O	-0.035251	-0.537554	-0.008858
O51	O	0.298083	-0.204221	0.324476
C52	C	-0.387551	-0.909536	-0.303555
C53	C	-0.054218	-0.576203	0.029778
C54	C	0.279116	-0.242870	0.363111
C55	C	-0.445665	-0.909548	-0.303564
C56	C	-0.112332	-0.576215	0.029769
C57	C	0.221002	-0.242882	0.363103
C58	C	-0.251736	-0.746090	-0.303512
C59	C	0.081597	-0.412757	0.029822
C60	C	0.414931	-0.079424	0.363155
C61	C	-0.251760	-0.676122	-0.303496
C62	C	0.081573	-0.342789	0.029838
C63	C	0.414906	-0.009456	0.363171
C64	C	-0.251697	-0.909694	-0.467774
C65	C	0.081636	-0.576361	-0.134441
C66	C	0.414969	-0.243028	0.198892
C67	C	-0.251693	-0.909717	-0.537743
C68	C	0.081641	-0.576383	-0.204409
C69	C	0.414974	-0.243050	0.128924
C70	C	-0.806011	-0.949996	-0.263409
C71	C	-0.472678	-0.616662	0.069924
C72	C	-0.139345	-0.283329	0.403258
C73	C	-0.860616	-0.950020	-0.263418
C74	C	-0.527282	-0.616687	0.069916
C75	C	-0.193949	-0.283353	0.403249
O76	O	-0.888838	-0.984300	-0.229245
O77	O	-0.555505	-0.650967	0.104088
O78	O	-0.222172	-0.317633	0.437422
N79	N	-0.887947	-0.909753	-0.303626
N80	N	-0.554614	-0.576419	0.029708
N81	N	-0.221281	-0.243086	0.363041
C82	C	-0.860672	-0.869463	-0.343833
C83	C	-0.527339	-0.536129	-0.010499
C84	C	-0.194005	-0.202796	0.322834
O85	O	-0.888934	-0.835215	-0.378034
O86	O	-0.555600	-0.501881	-0.044701
O87	O	-0.222267	-0.168548	0.288632
C88	C	-0.806069	-0.869442	-0.343827
C89	C	-0.472735	-0.536109	-0.010494
C90	C	-0.139402	-0.202775	0.322840
C91	C	-0.778740	-0.909708	-0.303612
C92	C	-0.445406	-0.576374	0.029722
C93	C	-0.112073	-0.243041	0.363055
C94	C	-0.778683	-0.990259	-0.223198
C95	C	-0.445349	-0.656925	0.110136
C96	C	-0.112016	-0.323592	0.443469
C97	C	-0.724082	-0.990233	-0.223188
C98	C	-0.390749	-0.656900	0.110145
C99	C	-0.057415	-0.323567	0.443478
C100	C	-0.696810	-0.949945	-0.263391
C101	C	-0.363477	-0.616612	0.069942
C102	C	-0.030144	-0.283278	0.403276
C103	C	-0.724139	-0.909682	-0.303603
C104	C	-0.390806	-0.576349	0.029731
C105	C	-0.057473	-0.243016	0.363064
C106	C	-0.778794	-0.829156	-0.384037
C107	C	-0.445461	-0.495822	-0.050703
C108	C	-0.112127	-0.162489	0.282630
C109	C	-0.724187	-0.829139	-0.384028
C110	C	-0.390854	-0.495805	-0.050695
C111	C	-0.057520	-0.162472	0.282639
C112	C	-0.696858	-0.869404	-0.343812
C113	C	-0.363525	-0.536071	-0.010479
C114	C	-0.030192	-0.202738	0.322854
C115	C	-0.642267	-0.869369	-0.343796
C116	C	-0.308934	-0.536035	-0.010463
C117	C	0.024400	-0.202702	0.322871
N118	N	-0.614935	-0.909636	-0.303588
N119	N	-0.281602	-0.576303	0.029746
N120	N	0.051731	-0.242969	0.363079
C121	C	-0.642207	-0.949924	-0.263385
C122	C	-0.308874	-0.616591	0.069948
C123	C	0.024460	-0.283258	0.403281
C124	C	-0.975343	-0.869510	-0.343842
C125	C	-0.642009	-0.536177	-0.010509
C126	C	-0.308676	-0.202844	0.322824
C127	C	-1.029945	-0.869527	-0.343845
C128	C	-0.696611	-0.536194	-0.010512
C129	C	-0.363278	-0.202861	0.322821
C130	C	-1.029885	-0.950086	-0.263431
C131	C	-0.696552	-0.616752	0.069902
C132	C	-0.363218	-0.283419	0.403236
C133	C	-0.975282	-0.950065	-0.263425
C134	C	-0.641948	-0.616732	0.069908
C135	C	-0.308615	-0.283398	0.403241
C136	C	-0.948011	-0.909778	-0.303634
C137	C	-0.614678	-0.576444	0.029699
C138	C	-0.281344	-0.243111	0.363032
C139	C	-0.527542	-0.949868	-0.263369
C140	C	-0.194209	-0.616534	0.069965
C141	C	0.139125	-0.283201	0.403298
C142	C	-0.472937	-0.949837	-0.263361
C143	C	-0.139603	-0.616503	0.069972
C144	C	0.193730	-0.283170	0.403305
C145	C	-0.473001	-0.869281	-0.343778
C146	C	-0.139668	-0.535948	-0.010445
C147	C	0.193665	-0.202614	0.322889
C148	C	-0.527602	-0.869309	-0.343783
C149	C	-0.194269	-0.535976	-0.010450
C150	C	0.139065	-0.202642	0.322883
C151	C	-0.554871	-0.909607	-0.303577
C152	C	-0.221538	-0.576274	0.029757
C153	C	0.111796	-0.242941	0.363090
O154	O	-0.614010	-0.835108	-0.377953
O155	O	-0.280676	-0.501775	-0.044620
O156	O	0.052657	-0.168441	0.288714
O157	O	-0.613939	-0.984172	-0.229195
O158	O	-0.280605	-0.650839	0.104138
O159	O	0.052728	-0.317506	0.437471
C160	C	-0.115335	-0.909766	-0.303627
C161	C	0.217998	-0.576432	0.029707
C162	C	0.551331	-0.243099	0.363040
C163	C	-0.057221	-0.909818	-0.303645
C164	C	0.276112	-0.576485	0.029688
C165	C	0.609445	-0.243151	0.363022
C166	C	-0.251681	-1.073832	-0.303657
C167	C	0.081652	-0.740499	0.029676
C168	C	0.414985	-0.407166	0.363010
C169	C	-0.251670	-1.143801	-0.303688
C170	C	0.081664	-0.810467	0.029645
C171	C	0.414997	-0.477134	0.362978
C172	C	-0.285242	-0.643255	-0.343686
C173	C	0.048091	-0.309921	-0.010353
C174	C	0.381424	0.023412	0.322980
C175	C	-0.285229	-0.577512	-0.343715
C176	C	0.048104	-0.244179	-0.010381
C177	C	0.381437	0.089155	0.322952
C178	C	-0.251740	-0.544640	-0.303541
C179	C	0.081593	-0.211306	0.029793
C180	C	0.414927	0.122027	0.363126
C181	C	-0.218252	-0.577515	-0.263347
C182	C	0.115082	-0.244182	0.069986
C183	C	0.448415	0.089151	0.403320
C184	C	-0.218262	-0.643257	-0.263325
C185	C	0.115072	-0.309923	0.070009
C186	C	0.448405	0.023410	0.403342
N187	N	-0.247648	-0.441365	-0.248483
N188	N	0.085686	-0.108031	0.084850
N189	N	0.419019	0.225302	0.418184
N190	N	-0.247641	-0.378913	-0.248506
N191	N	0.085692	-0.045580	0.084827
N192	N	0.419026	0.287754	0.418160
C193	C	-0.251707	-0.346565	-0.303608
C194	C	0.081627	-0.013232	0.029726
C195	C	0.414960	0.320102	0.363059
N196	N	-0.255789	-0.379028	-0.358686
N197	N	0.077544	-0.045695	-0.025353
N198	N	0.410877	0.287639	0.307981
N199	N	-0.255799	-0.441485	-0.358662
N200	N	0.077535	-0.108152	-0.025328
N201	N	0.410868	0.225182	0.308005
C202	C	-0.251725	-0.473354	-0.303561
C203	C	0.081608	-0.140021	0.029772
C204	C	0.414942	0.193312	0.363106
C205	C	-0.285176	-0.242412	-0.343832
C206	C	0.048157	0.090921	-0.010499
C207	C	0.381490	0.424255	0.322834
C208	C	-0.285160	-0.176668	-0.343862
C209	C	0.048173	0.156665	-0.010528
C210	C	0.381507	0.489998	0.322805
C211	C	-0.218185	-0.176673	-0.263489
C212	C	0.115148	0.156661	0.069845
C213	C	0.448482	0.489994	0.403178
C214	C	-0.218199	-0.242415	-0.263465
C215	C	0.115135	0.090918	0.069868
C216	C	0.448468	0.424251	0.403202
C217	C	-0.251697	-0.275281	-0.303636
C218	C	0.081636	0.058052	0.029697
C219	C	0.414969	0.391386	0.363031
C220	C	-0.218244	-0.950007	-0.570639
C221	C	0.115089	-0.616673	-0.237305
C222	C	0.448423	-0.283340	0.096028
C223	C	-0.218221	-0.950006	-0.636381
C224	C	0.115112	-0.616672	-0.303048
C225	C	0.448445	-0.283339	0.030286
C226	C	-0.251657	-0.909721	-0.669225
C227	C	0.081677	-0.576388	-0.335892
C228	C	0.415010	-0.243055	-0.002558
C229	C	-0.285108	-0.869424	-0.636321
C230	C	0.048226	-0.536090	-0.302988
C231	C	0.381559	-0.202757	0.030346
C232	C	-0.285126	-0.869421	-0.570580
C233	C	0.048208	-0.536088	-0.237246
C234	C	0.381541	-0.202755	0.096087
N235	N	-0.297396	-0.904857	-0.772441
N236	N	0.035937	-0.571524	-0.439108
N237	N	0.369271	-0.238190	-0.105774
N238	N	-0.297377	-0.904863	-0.834892
N239	N	0.035956	-0.571530	-0.501559
N240	N	0.369289	-0.238196	-0.168226
C241	C	-0.251604	-0.909725	-0.867300
C242	C	0.081730	-0.576392	-0.533967
C243	C	0.415063	-0.243059	-0.200633
N244	N	-0.205848	-0.914594	-0.834897
N245	N	0.127485	-0.581261	-0.501563
N246	N	0.460818	-0.247927	-0.168230
N247	N	-0.205867	-0.914591	-0.772440
N248	N	0.127466	-0.581258	-0.439106
N249	N	0.460799	-0.247925	-0.105773
C250	C	-0.251641	-0.909719	-0.740511
C251	C	0.081693	-0.576386	-0.407177
C252	C	0.415026	-0.243053	-0.073844
C253	C	-0.218128	-0.950017	-0.971482
C254	C	0.115206	-0.616683	-0.638148
C255	C	0.448539	-0.283350	-0.304815
C256	C	-0.218104	-0.950011	-1.037225
C257	C	0.115229	-0.616678	-0.703892
C258	C	0.448562	-0.283345	-0.370559
C259	C	-0.284995	-0.869433	-1.037164
C260	C	0.048338	-0.536099	-0.703831
C261	C	0.381672	-0.202766	-0.370497
C262	C	-0.285014	-0.869435	-0.971422
C263	C	0.048320	-0.536101	-0.638088
C264	C	0.381653	-0.202768	-0.304755
C265	C	-0.251581	-0.909730	-0.938584
C266	C	0.081752	-0.576397	-0.605251
C267	C	0.415086	-0.243063	-0.271918
C268	C	-0.251682	-0.909626	-0.140032
C269	C	0.081652	-0.576293	0.193301
C270	C	0.414985	-0.242960	0.526634
C271	C	-0.251539	-0.909726	-0.070065
C272	C	0.081794	-0.576393	0.263269
C273	C	0.415128	-0.243059	0.596602
H274	H	-0.549738	-0.982684	-0.230630
H275	H	-0.216405	-0.649350	0.102703
H276	H	0.116929	-0.316017	0.436037
H277	H	-0.312450	-0.269173	-0.376545
H278	H	0.020883	0.064161	-0.043212
H279	H	0.354216	0.397494	0.290121
O280	O	-0.321206	-0.825963	-0.535098
O281	O	0.012127	-0.492630	-0.201764
O282	O	0.345461	-0.159296	0.131569
H283	H	-0.315600	-0.832728	-0.483867
H284	H	0.017734	-0.499394	-0.150533
H285	H	0.351067	-0.166061	0.182800
H286	H	-0.190981	-0.982813	-0.663170
H287	H	0.142353	-0.649480	-0.329837
H288	H	0.475686	-0.316147	0.003496
H289	H	-0.312494	-0.550746	-0.376445
H290	H	0.020839	-0.217413	-0.043112
H291	H	0.354173	0.115921	0.290222
O292	O	-0.557085	-0.825871	-0.387144
O293	O	-0.223752	-0.492538	-0.053811
O294	O	0.109582	-0.159204	0.279522
H295	H	-0.581922	-0.854038	-0.419210
H296	H	-0.248588	-0.520705	-0.085876
H297	H	0.084745	-0.187372	0.247457
O298	O	-0.182065	-0.993468	-0.936057
O299	O	0.151269	-0.660134	-0.602723
O300	O	0.484602	-0.326801	-0.269390
H301	H	-0.158794	-1.021477	-0.969979
H302	H	0.174539	-0.688144	-0.636646
H303	H	0.507872	-0.354810	-0.303313
O304	O	-0.321343	-0.141213	-0.387129
O305	O	0.011990	0.192121	-0.053796
O306	O	0.345324	0.525454	0.279538
H307	H	-0.344665	-0.175114	-0.415021
H308	H	-0.011332	0.158220	-0.081688
H309	H	0.322001	0.491553	0.251645
O310	O	-0.182027	-0.993470	-1.072711
O311	O	0.151306	-0.660137	-0.739378
O312	O	0.484640	-0.326803	-0.406045
H313	H	-0.158788	-1.021492	-1.038830
H314	H	0.174546	-0.688159	-0.705497
H315	H	0.507879	-0.354825	-0.372163
O316	O	-0.182129	-0.542070	-0.220013
O317	O	0.151204	-0.208737	0.113321
O318	O	0.484538	0.124597	0.446654
H319	H	-0.191037	-0.554632	-0.170586
H320	H	0.142296	-0.221299	0.162747
H321	H	0.475630	0.112034	0.496080
H322	H	-0.190915	-0.149909	-0.230781
H323	H	0.142419	0.183425	0.102552
H324	H	0.475752	0.516758	0.435885
O325	O	-0.182100	-0.277872	-0.220100
O326	O	0.151234	0.055461	0.113234
O327	O	0.484567	0.388794	0.446567
H328	H	-0.158815	-0.243971	-0.192161
H329	H	0.174518	0.089362	0.141173
H330	H	0.507851	0.422695	0.474506
O331	O	-0.443464	-0.993274	-0.219988
O332	O	-0.110130	-0.659941	0.113346
O333	O	0.223203	-0.326608	0.446679
H334	H	-0.418540	-1.025273	-0.248202
H335	H	-0.085206	-0.691939	0.085132
H336	H	0.248127	-0.358606	0.418465
O337	O	-0.321076	-0.825962	-0.935934
O338	O	0.012257	-0.492629	-0.602601
O339	O	0.345590	-0.159295	-0.269267
H340	H	-0.344319	-0.797944	-0.969815
H341	H	-0.010986	-0.464610	-0.636482
H342	H	0.322348	-0.131277	-0.303148
H343	H	-0.190995	-0.670017	-0.230596
H344	H	0.142338	-0.336684	0.102737
H345	H	0.475672	-0.003350	0.436071
O346	O	-0.182184	-0.993463	-0.535220
O347	O	0.151149	-0.660130	-0.201886
O348	O	0.484482	-0.326797	0.131447
H349	H	-0.158919	-1.021477	-0.569144
H350	H	0.174414	-0.688144	-0.235810
H351	H	0.507748	-0.354810	0.097523
H352	H	-0.312213	-0.836626	-1.063905
H353	H	0.021120	-0.503293	-0.730572
H354	H	0.354453	-0.169959	-0.397238
H355	H	-0.701834	-1.023023	-0.190444
H356	H	-0.368501	-0.689689	0.142890
H357	H	-0.035167	-0.356356	0.476223
H358	H	-0.800881	-1.023070	-0.190460
H359	H	-0.467548	-0.689736	0.142874
H360	H	-0.134215	-0.356403	0.476207
H361	H	-1.052191	-0.836733	-0.376587
H362	H	-0.718858	-0.503400	-0.043254
H363	H	-0.385525	-0.170066	0.290080
O364	O	-0.945806	-0.993500	-0.220058
O365	O	-0.612473	-0.660167	0.113276
O366	O	-0.279139	-0.326833	0.446609
H367	H	-0.973949	-1.021519	-0.192109
H368	H	-0.640615	-0.688185	0.141224
H369	H	-0.307282	-0.354852	0.474558
H370	H	-0.312329	-0.836622	-0.663067
H371	H	0.021004	-0.503289	-0.329734
H372	H	0.354338	-0.169955	0.003600
H373	H	-1.052099	-0.982893	-0.230698
H374	H	-0.718766	-0.649559	0.102635
H375	H	-0.385433	-0.316226	0.435969
H376	H	-0.953141	-0.836698	-0.376584
H377	H	-0.619808	-0.503365	-0.043250
H378	H	-0.286475	-0.170032	0.290083
O379	O	-0.808263	-0.785730	-0.427416
O380	O	-0.474930	-0.452397	-0.094083
O381	O	-0.141596	-0.119063	0.239250
H382	H	-0.780117	-0.757723	-0.455372
H383	H	-0.446784	-0.424389	-0.122039
H384	H	-0.113450	-0.091056	0.211294
H385	H	-0.701986	-0.796333	-0.416773
H386	H	-0.368653	-0.462999	-0.083440
H387	H	-0.035319	-0.129666	0.249894
O388	O	-0.443583	-0.825831	-0.387142
O389	O	-0.110249	-0.492497	-0.053808
O390	O	0.223084	-0.159164	0.279525
H391	H	-0.401023	-0.832588	-0.380381
H392	H	-0.067690	-0.499255	-0.047048
H393	H	0.265643	-0.165921	0.286285
H394	H	-0.312519	-0.670010	-0.376398
H395	H	0.020815	-0.336676	-0.043064
H396	H	0.354148	-0.003343	0.290269
