data_functionalizedCrystal
_audit_creation_method	'MofGen! by Chris Wilmer'
_symmetry_space_group_name_H-M	'P1'
_symmetry_Int_Tables_number	1
_symmetry_cell_setting	triclinic
loop_
_symmetry_equiv_pos_as_xyz
  x,y,z
_cell_length_a	10.723024
_cell_length_b	10.723023
_cell_length_c	17.766277
_cell_angle_alpha	89.994693
_cell_angle_beta	89.990957
_cell_angle_gamma	84.467709
loop_
_atom_site_label
_atom_site_type_symbol
_atom_site_fract_x
_atom_site_fract_y
_atom_site_fract_z
O1	O	1.657197	0.175029	-0.062588
O2	O	2.157197	0.675029	0.437412
O3	O	1.294044	0.191783	-0.062590
O4	O	1.794044	0.691783	0.437410
O5	O	1.483998	0.001830	-0.062586
O6	O	1.983998	0.501830	0.437414
O7	O	1.467243	0.364982	-0.062592
O8	O	1.967243	0.864982	0.437408
O9	O	1.483964	0.001820	0.062603
O10	O	1.983964	0.501820	0.562603
O11	O	1.294010	0.191773	0.062599
O12	O	1.794010	0.691773	0.562599
O13	O	1.657163	0.175019	0.062601
O14	O	2.157163	0.675019	0.562601
Cu15	Cu	1.475584	0.183395	0.074030
Cu16	Cu	1.975584	0.683395	0.574030
Cu17	Cu	1.475623	0.183407	-0.074019
Cu18	Cu	1.975623	0.683407	0.425981
O19	O	1.467209	0.364972	0.062597
O20	O	1.967209	0.864972	0.562597
C21	C	1.247528	0.190558	0.000004
C22	C	1.747528	0.690558	0.500004
C23	C	1.108973	0.186911	0.000003
C24	C	1.608973	0.686911	0.500003
C25	C	1.033991	0.293198	0.000001
C26	C	1.533991	0.793198	0.500001
C27	C	0.890787	0.289431	-0.000000
C28	C	1.390787	0.789431	0.500000
C29	C	1.482762	-0.044675	0.000008
C30	C	1.982762	0.455325	0.500008
C31	C	1.479114	-0.183229	0.000005
C32	C	1.979114	0.316771	0.500005
C33	C	1.477506	-0.244990	-0.064847
C34	C	1.977506	0.255010	0.435153
C35	C	1.473736	-0.388193	-0.064851
C36	C	1.973736	0.111807	0.435149
C37	C	1.703679	0.176243	0.000005
C38	C	2.203679	0.676243	0.500005
C39	C	1.842234	0.179891	0.000001
C40	C	2.342234	0.679891	0.500001
C41	C	1.468445	0.411477	0.000002
C42	C	1.968445	0.911477	0.500002
C43	C	1.472093	0.550031	-0.000001
C44	C	1.972093	1.050031	0.499999
N45	N	1.475565	0.183386	0.178161
N46	N	1.975565	0.683386	0.678161
N47	N	1.475652	0.183406	-0.178150
N48	N	1.975652	0.683406	0.321850
C49	C	1.559704	0.099317	0.217550
C50	C	2.059704	0.599317	0.717550
C51	C	1.559711	0.099311	0.296351
C52	C	2.059711	0.599311	0.796351
C53	C	1.475591	0.183396	0.335761
C54	C	1.975591	0.683396	0.835761
C55	C	1.391436	0.267472	0.296363
C56	C	1.891436	0.767472	0.796363
C57	C	1.391423	0.267467	0.217563
C58	C	1.891423	0.767467	0.717563
C59	C	1.460213	0.296909	0.460597
C60	C	1.960213	0.796909	0.960597
C61	C	1.460235	0.296915	0.539396
C62	C	1.960235	0.796915	1.039396
C63	C	1.475624	0.183411	0.578808
C64	C	1.975624	0.683411	1.078808
C65	C	1.491019	0.069896	0.539411
C66	C	1.991019	0.569896	1.039411
C67	C	1.491006	0.069891	0.460610
C68	C	1.991006	0.569891	0.960610
C69	C	1.475595	0.183410	0.421207
C70	C	1.975595	0.683410	0.921207
C71	C	1.559776	0.099329	0.703642
C72	C	2.059776	0.599329	1.203642
C73	C	1.559775	0.099322	0.782446
C74	C	2.059775	0.599322	1.282446
C75	C	1.391505	0.267493	0.782456
C76	C	1.891505	0.767493	1.282456
C77	C	1.391501	0.267490	0.703654
C78	C	1.891501	0.767490	1.203654
C79	C	1.475643	0.183409	0.664252
C80	C	1.975643	0.683409	1.164252
H81	H	1.075812	0.386984	0.000003
H82	H	1.575812	0.886984	0.500003
H83	H	0.906659	0.088896	-0.000001
H84	H	1.406659	0.588896	0.499999
Br85	Br	1.471446	-0.476710	-0.157398
Br86	Br	1.971446	0.023290	0.342602
H87	H	1.628286	0.030861	0.671560
H88	H	2.128286	0.530861	1.171560
Br89	Br	1.277328	0.381597	0.835934
Br90	Br	1.777328	0.881597	1.335934
Br91	Br	0.783403	0.441098	-0.000013
Br92	Br	1.283403	0.941098	0.499987
H93	H	1.067152	0.093125	-0.000015
H94	H	1.567152	0.593125	0.499985
Br95	Br	1.479890	-0.156433	-0.157389
Br96	Br	1.979890	0.343567	0.342611
Br97	Br	1.474413	-0.361463	0.092549
Br98	Br	1.974413	0.138537	0.592549
H99	H	1.477693	-0.236370	0.055525
H100	H	1.977693	0.263630	0.555525
Br101	Br	1.673889	-0.014793	0.164075
Br102	Br	2.173889	0.485207	0.664075
Br103	Br	1.673908	-0.014795	0.349817
Br104	Br	2.173908	0.485205	0.849817
Br105	Br	1.511885	-0.084157	0.407145
Br106	Br	2.011885	0.415843	0.907145
Br107	Br	1.511922	-0.084156	0.592887
Br108	Br	2.011922	0.415844	1.092887
H109	H	1.628287	0.030856	0.814517
H110	H	2.128287	0.530856	1.314517
Br111	Br	1.277311	0.381593	0.650192
Br112	Br	1.777311	0.881593	1.150192
H113	H	1.447708	0.389346	0.571467
H114	H	1.947708	0.889346	1.071467
Br115	Br	1.439450	0.450969	0.407118
Br116	Br	1.939450	0.950969	0.907118
H117	H	1.322942	0.335933	0.328454
H118	H	1.822942	0.835933	0.828454
H119	H	1.322905	0.335927	0.185492
H120	H	1.822905	0.835927	0.685492
