data_functionalizedCrystal
_audit_creation_method	'MofGen! by Chris Wilmer'
_symmetry_space_group_name_H-M	'P1'
_symmetry_Int_Tables_number	1
_symmetry_cell_setting	triclinic
loop_
_symmetry_equiv_pos_as_xyz
  x,y,z
_cell_length_a	16.992694
_cell_length_b	23.532407
_cell_length_c	16.053802
_cell_angle_alpha	92.544672
_cell_angle_beta	87.249047
_cell_angle_gamma	86.758451
loop_
_atom_site_label
_atom_site_type_symbol
_atom_site_fract_x
_atom_site_fract_y
_atom_site_fract_z
O1	O	1.042772	0.118472	-0.069339
O2	O	0.814498	0.117146	-0.069363
O3	O	0.935518	0.035219	-0.069335
O4	O	0.921752	0.200399	-0.069367
O5	O	0.928857	0.039709	0.069523
O6	O	0.807837	0.121636	0.069494
O7	O	1.036111	0.122961	0.069519
Zn8	Zn	0.920917	0.123011	0.091553
Zn9	Zn	0.929693	0.117096	-0.091397
O10	O	0.915091	0.204888	0.069490
C11	C	0.781969	0.117687	0.000063
C12	C	0.694964	0.112604	0.000054
C13	C	0.644342	0.161650	0.000045
C14	C	0.562592	0.156871	0.000058
C15	C	0.531466	0.103045	0.000073
C16	C	0.582095	0.053995	0.000084
C17	C	0.663843	0.058775	0.000078
C18	C	0.288022	0.083234	0.000099
C19	C	0.206267	0.078457	0.000103
C20	C	0.186770	0.181334	0.000078
C21	C	0.268521	0.186109	0.000066
C22	C	0.319142	0.137059	0.000082
N23	N	0.447905	0.098158	0.000083
N24	N	0.402702	0.141946	0.000078
C25	C	0.931837	0.016231	0.000096
C26	C	0.930783	-0.047038	0.000102
C27	C	0.995791	-0.442917	0.000063
C28	C	0.994812	-0.502366	0.000057
O29	O	1.055075	-0.536121	0.000033
N30	N	0.922865	-0.528562	0.000050
C31	C	0.851893	-0.495307	0.000041
O32	O	0.790607	-0.523048	0.000033
C33	C	0.852873	-0.435859	0.000041
C34	C	0.924824	-0.409666	0.000057
C35	C	1.067736	-0.416723	0.000078
C36	C	1.068715	-0.357278	0.000086
C37	C	0.997748	-0.324027	0.000079
C38	C	0.925803	-0.350221	0.000065
C39	C	0.781902	-0.402605	0.000026
C40	C	0.782889	-0.343154	0.000026
C41	C	0.854840	-0.316960	0.000042
C42	C	0.855814	-0.257525	0.000066
N43	N	0.927761	-0.231328	0.000073
C44	C	0.998728	-0.264579	0.000080
C45	C	0.849841	-0.620151	0.000038
C46	C	0.848860	-0.679598	0.000044
C47	C	0.991779	-0.686653	0.000058
C48	C	0.992759	-0.627205	0.000059
C49	C	0.921788	-0.593955	0.000045
C50	C	1.000777	-0.139740	0.000097
C51	C	1.001749	-0.080289	0.000109
C52	C	0.858831	-0.073240	0.000090
C53	C	0.857858	-0.132685	0.000083
C54	C	0.928838	-0.165934	0.000084
O55	O	0.795583	-0.223734	0.000087
O56	O	1.060004	-0.236831	0.000076
C57	C	1.068641	0.122420	0.000091
C58	C	1.155645	0.127503	0.000094
C59	C	0.918773	0.223877	0.000058
C60	C	0.919827	0.287146	0.000046
N61	N	0.914933	0.127048	0.216412
N62	N	0.935683	0.113055	-0.216256
C63	C	0.966445	0.092202	0.260118
C64	C	0.962267	0.095032	0.347524
C65	C	0.906579	0.132711	0.391222
C66	C	0.855061	0.167558	0.347510
C67	C	0.859236	0.164725	0.260106
C68	C	0.888340	0.145069	0.652627
C69	C	0.884170	0.147901	0.740038
C70	C	0.991376	0.075374	0.740045
C71	C	0.995550	0.072546	0.652640
C72	C	0.944029	0.107392	0.608935
N73	N	0.902308	0.135606	0.480565
N74	N	0.948296	0.104494	0.519594
H75	H	0.705059	0.018836	0.000085
H76	H	0.723313	-0.423922	0.000008
H77	H	0.809714	0.198235	0.383094
C78	C	1.073362	-0.562150	0.071449
C79	C	1.071850	-0.598418	0.000069
H80	H	1.122195	-0.544384	0.071455
H81	H	1.031248	-0.533837	0.071437
H82	H	1.067682	-0.583638	0.119867
H83	H	1.077525	-0.576929	-0.048349
H84	H	1.113976	-0.626735	0.000074
C85	C	0.551533	0.259037	0.000021
C86	C	0.506949	0.210784	0.000044
H87	H	0.517179	0.292322	0.000008
H88	H	0.581507	0.260330	0.048437
H89	H	0.586139	0.257189	-0.048409
H90	H	0.472346	0.212630	0.048477
H91	H	0.476960	0.209492	-0.048377
C92	C	1.077881	0.081522	0.161770
C93	C	1.027625	0.050768	0.212067
H94	H	1.115642	0.055935	0.132105
H95	H	1.047798	0.101879	0.123249
H96	H	1.104296	0.107604	0.195848
H97	H	1.001205	0.024689	0.177988
H98	H	1.057711	0.030402	0.250592
C99	C	1.106693	0.061526	0.553848
C100	C	1.056398	0.030964	0.604385
H101	H	1.144153	0.035806	0.523996
H102	H	1.076580	0.082016	0.515494
H103	H	1.133464	0.087477	0.587786
H104	H	1.029622	0.005016	0.570447
H105	H	1.086514	0.010465	0.642745
C106	C	0.875423	0.218586	0.554326
C107	C	0.831719	0.183381	0.604598
H108	H	0.840466	0.242239	0.524670
H109	H	0.906259	0.241660	0.588413
H110	H	0.909176	0.195734	0.515789
H111	H	0.797971	0.206233	0.643139
H112	H	0.800870	0.160305	0.570507
H113	H	1.125529	-0.443790	0.000080
H114	H	0.838820	0.178586	0.775613
C115	C	1.053728	-0.780920	0.000039
C116	C	1.069790	-0.723211	0.000051
H117	H	1.101886	-0.803490	0.000028
H118	H	1.021894	-0.787649	0.048458
H119	H	1.026520	-0.790761	-0.048388
H120	H	1.096992	-0.713369	0.048481
H121	H	1.101636	-0.716479	-0.048373
H122	H	0.556745	0.010169	0.000109
H123	H	1.060343	-0.058966	0.000124
C124	C	1.097754	0.003394	0.731272
C125	C	1.047996	0.037066	0.788086
H126	H	1.132710	-0.020256	0.760932
H127	H	1.066914	-0.019682	0.697193
H128	H	1.127392	0.027287	0.697170
H129	H	1.018353	0.013173	0.822184
H130	H	1.078839	0.060143	0.822180
C131	C	0.752857	0.236705	0.268872
C132	C	0.802615	0.203032	0.212061
H133	H	0.717903	0.260355	0.239209
H134	H	0.723222	0.212818	0.302973
H135	H	0.783702	0.259786	0.302952
H136	H	0.771771	0.179948	0.177985
H137	H	0.832252	0.226922	0.177945
C138	C	1.142145	-0.140726	0.000124
C139	C	1.078798	-0.176281	0.000106
H140	H	1.190310	-0.163285	0.000139
H141	H	1.141876	-0.118954	-0.048294
H142	H	1.137216	-0.115830	0.048551
H143	H	1.083725	-0.201174	-0.048325
H144	H	1.079069	-0.198063	0.048529
H145	H	0.180928	0.034624	0.000115
C146	C	1.209881	-0.370241	0.000091
C147	C	1.147807	-0.328492	0.000092
H148	H	1.258711	-0.352472	0.000088
H149	H	1.204201	-0.391718	0.048511
H150	H	1.208834	-0.394843	-0.048335
H151	H	1.148850	-0.303893	0.048522
H152	H	1.153488	-0.307006	-0.048332
C153	C	0.975206	0.021513	0.445829
C154	C	1.018897	0.056728	0.395559
H155	H	1.010172	-0.002137	0.475477
H156	H	0.941452	0.044355	0.484363
H157	H	0.944374	-0.001567	0.411733
H158	H	1.049725	0.079812	0.429655
H159	H	1.052665	0.033885	0.357020
H160	H	0.293858	0.229939	0.000044
H161	H	0.669678	0.205481	0.000032
H162	H	0.329228	0.043294	0.000113
C163	C	0.175712	0.283500	0.000049
C164	C	0.131127	0.235247	0.000066
H165	H	0.141359	0.316785	0.000038
H166	H	0.205684	0.284790	0.048468
H167	H	0.210321	0.281653	-0.048378
H168	H	0.096522	0.237092	0.048497
H169	H	0.101141	0.233957	-0.048358
H170	H	0.792043	-0.593082	0.000034
C171	C	0.707692	-0.666638	0.000028
C172	C	0.769769	-0.708385	0.000033
H173	H	0.658864	-0.684411	0.000012
H174	H	0.708726	-0.642042	0.048451
H175	H	0.713380	-0.645156	-0.048395
H176	H	0.764083	-0.729865	0.048459
H177	H	0.768733	-0.732992	-0.048395
C178	C	0.641519	-0.342156	0.000002
C179	C	0.704872	-0.306606	0.000015
H180	H	0.593357	-0.319593	0.000001
H181	H	0.646438	-0.367048	-0.048420
H182	H	0.641793	-0.363932	0.048426
H183	H	0.704602	-0.284833	-0.048413
H184	H	0.699952	-0.281705	0.048441
H185	H	0.799269	-0.154012	0.000093
H186	H	0.801051	-0.046156	0.000087
