data_functionalizedCrystal
_audit_creation_method	'MofGen! by Chris Wilmer'
_symmetry_space_group_name_H-M	'P1'
_symmetry_Int_Tables_number	1
_symmetry_cell_setting	triclinic
loop_
_symmetry_equiv_pos_as_xyz
  x,y,z
_cell_length_a	18.215405
_cell_length_b	18.215407
_cell_length_c	18.215399
_cell_angle_alpha	90.013852
_cell_angle_beta	89.967040
_cell_angle_gamma	89.978982
loop_
_atom_site_label
_atom_site_type_symbol
_atom_site_fract_x
_atom_site_fract_y
_atom_site_fract_z
Zn1	Zn	-0.293050	-1.125050	-0.416044
Zn2	Zn	0.040283	-0.791717	-0.082711
Zn3	Zn	0.373616	-0.458383	0.250623
Zn4	Zn	-0.416127	-1.124965	-0.292972
Zn5	Zn	-0.082793	-0.791632	0.040361
Zn6	Zn	0.250540	-0.458298	0.373694
Zn7	Zn	-0.293070	-1.001989	-0.292998
Zn8	Zn	0.040263	-0.668656	0.040335
Zn9	Zn	0.373596	-0.335322	0.373669
Zn10	Zn	-0.416071	-1.001949	-0.416004
Zn11	Zn	-0.082738	-0.668615	-0.082670
Zn12	Zn	0.250595	-0.335282	0.250663
O13	O	-0.354580	-1.063488	-0.354504
O14	O	-0.021246	-0.730155	-0.021171
O15	O	0.312087	-0.396821	0.312162
O16	O	-0.309391	-1.228023	-0.399725
O17	O	0.023942	-0.894690	-0.066391
O18	O	0.357275	-0.561356	0.266942
O19	O	-0.399835	-1.108633	-0.189991
O20	O	-0.066501	-0.775300	0.143342
O21	O	0.266832	-0.441967	0.476675
O22	O	-0.190083	-1.018366	-0.309348
O23	O	0.143250	-0.685033	0.023985
O24	O	0.476583	-0.351699	0.357319
O25	O	-0.399815	-1.227960	-0.309304
O26	O	-0.066482	-0.894627	0.024029
O27	O	0.266851	-0.561294	0.357362
O28	O	-0.190069	-1.108778	-0.399750
O29	O	0.143265	-0.775445	-0.066416
O30	O	0.476598	-0.442112	0.266917
O31	O	-0.309426	-1.018283	-0.190010
O32	O	0.023908	-0.684950	0.143323
O33	O	0.357241	-0.351617	0.476656
O34	O	-0.309372	-0.898999	-0.309309
O35	O	0.023962	-0.565666	0.024025
O36	O	0.357295	-0.232333	0.357358
O37	O	-0.399721	-1.018297	-0.518993
O38	O	-0.066387	-0.684964	-0.185660
O39	O	0.266946	-0.351630	0.147673
O40	O	-0.399740	-0.898970	-0.399680
O41	O	-0.066407	-0.565636	-0.066347
O42	O	0.266927	-0.232303	0.266986
O43	O	-0.309338	-1.108739	-0.519023
O44	O	0.023996	-0.775406	-0.185690
O45	O	0.357329	-0.442072	0.147644
O46	O	-0.519104	-1.108594	-0.309265
O47	O	-0.185770	-0.775261	0.024068
O48	O	0.147563	-0.441927	0.357402
O49	O	-0.519063	-1.018214	-0.399656
O50	O	-0.185730	-0.684881	-0.066322
O51	O	0.147604	-0.351548	0.267011
C52	C	-0.354553	-0.872282	-0.354493
C53	C	-0.021219	-0.538949	-0.021160
C54	C	0.312114	-0.205615	0.312173
C55	C	-0.354559	-0.790483	-0.354506
C56	C	-0.021226	-0.457150	-0.021173
C57	C	0.312108	-0.123816	0.312161
C58	C	-0.401699	-0.525429	-0.401497
C59	C	-0.068366	-0.192096	-0.068163
C60	C	0.264967	0.141238	0.265170
C61	C	-0.401695	-0.602288	-0.401493
C62	C	-0.068361	-0.268955	-0.068160
C63	C	0.264972	0.064379	0.265173
C64	C	-0.307453	-0.602288	-0.307526
C65	C	0.025880	-0.268955	0.025808
C66	C	0.359213	0.064378	0.359141
C67	C	-0.307462	-0.525431	-0.307526
C68	C	0.025871	-0.192098	0.025807
C69	C	0.359204	0.141236	0.359140
C70	C	-0.354584	-0.487003	-0.354516
C71	C	-0.021251	-0.153670	-0.021183
C72	C	0.312083	0.179663	0.312151
C73	C	-0.354571	-0.640720	-0.354512
C74	C	-0.021237	-0.307386	-0.021179
C75	C	0.312096	0.025947	0.312155
C76	C	-0.354566	-0.724053	-0.354508
C77	C	-0.021232	-0.390720	-0.021174
C78	C	0.312101	-0.057386	0.312159
C79	C	-0.354590	-0.403664	-0.354519
C80	C	-0.021257	-0.070331	-0.021186
C81	C	0.312076	0.263002	0.312147
C82	C	-0.545786	-1.063410	-0.354469
C83	C	-0.212453	-0.730077	-0.021136
C84	C	0.120881	-0.396744	0.312198
C85	C	-0.627585	-1.063445	-0.354479
C86	C	-0.294252	-0.730111	-0.021145
C87	C	0.039082	-0.396778	0.312188
C88	C	-0.815775	-1.110616	-0.307499
C89	C	-0.482442	-0.777282	0.025835
C90	C	-0.149109	-0.443949	0.359168
C91	C	-0.892634	-1.110649	-0.307517
C92	C	-0.559301	-0.777315	0.025817
C93	C	-0.225968	-0.443982	0.359150
C94	C	-0.892632	-1.016455	-0.401563
C95	C	-0.559298	-0.683121	-0.068230
C96	C	-0.225965	-0.349788	0.265104
C97	C	-0.815774	-1.016426	-0.401548
C98	C	-0.482441	-0.683093	-0.068215
C99	C	-0.149108	-0.349759	0.265118
C100	C	-0.777348	-1.063505	-0.354512
C101	C	-0.444015	-0.730172	-0.021179
C102	C	-0.110682	-0.396839	0.312155
C103	C	-0.931064	-1.063567	-0.354545
C104	C	-0.597731	-0.730234	-0.021211
C105	C	-0.264398	-0.396900	0.312122
C106	C	-1.014398	-1.063602	-0.354564
C107	C	-0.681065	-0.730269	-0.021231
C108	C	-0.347731	-0.396936	0.312102
C109	C	-0.694009	-1.063471	-0.354493
C110	C	-0.360676	-0.730138	-0.021160
C111	C	-0.027343	-0.396805	0.312173
C112	C	-0.162627	-1.063586	-0.354556
C113	C	0.170707	-0.730253	-0.021223
C114	C	0.504040	-0.396920	0.312111
C115	C	-0.080828	-1.063628	-0.354578
C116	C	0.252506	-0.730295	-0.021245
C117	C	0.585839	-0.396961	0.312089
C118	C	-0.354521	-1.063523	-0.546457
C119	C	-0.021188	-0.730190	-0.213124
C120	C	0.312146	-0.396856	0.120209
C121	C	-0.354496	-1.063538	-0.628256
C122	C	-0.021162	-0.730204	-0.294923
C123	C	0.312171	-0.396871	0.038410
C124	C	-0.354601	-0.255441	-0.354516
C125	C	-0.021268	0.077892	-0.021183
C126	C	0.312065	0.411226	0.312150
C127	C	-0.354596	-0.337240	-0.354522
C128	C	-0.021263	-0.003907	-0.021188
C129	C	0.312071	0.329427	0.312145
C130	C	-0.307388	-1.016532	-0.816461
C131	C	0.025945	-0.683199	-0.483128
C132	C	0.359279	-0.349866	-0.149794
C133	C	-0.307373	-1.016545	-0.893320
C134	C	0.025960	-0.683212	-0.559987
C135	C	0.359293	-0.349878	-0.226653
C136	C	-0.401516	-1.110631	-0.893290
C137	C	-0.068182	-0.777298	-0.559956
C138	C	0.265151	-0.443964	-0.226623
C139	C	-0.401534	-1.110614	-0.816432
C140	C	-0.068200	-0.777281	-0.483099
C141	C	0.265133	-0.443947	-0.149766
C142	C	-0.354466	-1.063566	-0.778020
C143	C	-0.021132	-0.730232	-0.444687
C144	C	0.312201	-0.396899	-0.111353
C145	C	-0.354433	-1.063596	-0.931736
C146	C	-0.021100	-0.730262	-0.598403
C147	C	0.312234	-0.396929	-0.265070
C148	C	-0.354417	-1.063610	-1.015070
C149	C	-0.021084	-0.730276	-0.681737
C150	C	0.312249	-0.396943	-0.348403
C151	C	-0.354482	-1.063550	-0.694681
C152	C	-0.021149	-0.730217	-0.361348
C153	C	0.312184	-0.396884	-0.028014
C154	C	-0.354585	-1.063496	-0.163298
C155	C	-0.021252	-0.730163	0.170035
C156	C	0.312082	-0.396829	0.503368
C157	C	-0.354403	-1.063624	-0.081500
C158	C	-0.021070	-0.730290	0.251834
C159	C	0.312264	-0.396957	0.585167
H160	H	-0.440069	-0.494144	-0.439759
H161	H	-0.106736	-0.160810	-0.106425
H162	H	0.226597	0.172523	0.226908
C163	C	-0.773502	-0.964614	-0.453284
C164	C	-0.440169	-0.631280	-0.119951
C165	C	-0.106835	-0.297947	0.213382
N166	N	-0.741662	-0.925597	-0.492257
N167	N	-0.408329	-0.592263	-0.158924
N168	N	-0.074996	-0.258930	0.174410
H169	H	-0.923928	-0.978123	-0.439857
H170	H	-0.590594	-0.644790	-0.106524
H171	H	-0.257261	-0.311457	0.226809
C172	C	-0.773509	-1.162408	-0.255762
C173	C	-0.440176	-0.829075	0.077572
C174	C	-0.106843	-0.495742	0.410905
N175	N	-0.741677	-1.201422	-0.216793
N176	N	-0.408343	-0.868089	0.116540
N177	N	-0.075010	-0.534755	0.449873
H178	H	-0.269039	-0.978245	-0.924615
H179	H	0.064295	-0.644912	-0.591282
H180	H	0.397628	-0.311578	-0.257949
C181	C	-0.934901	-1.162471	-0.255795
C182	C	-0.601567	-0.829137	0.077538
C183	C	-0.268234	-0.495804	0.410872
N184	N	-0.966735	-1.201505	-0.216836
N185	N	-0.633402	-0.868171	0.116498
N186	N	-0.300069	-0.534838	0.449831
H187	H	-0.269062	-0.978222	-0.785188
H188	H	0.064271	-0.644889	-0.451855
H189	H	0.397604	-0.311556	-0.118522
H190	H	-0.440062	-0.633571	-0.439749
H191	H	-0.106728	-0.300237	-0.106416
H192	H	0.226605	0.033096	0.226918
H193	H	-0.269094	-0.494144	-0.269265
H194	H	0.064239	-0.160811	0.064068
H195	H	0.397573	0.172523	0.397401
C196	C	-0.255611	-0.644566	-0.255851
C197	C	0.077722	-0.311233	0.077482
C198	C	0.411056	0.022101	0.410815
N199	N	-0.216558	-0.676409	-0.216933
N200	N	0.116776	-0.343075	0.116400
N201	N	0.450109	-0.009742	0.449733
H202	H	-0.439836	-1.148937	-0.924574
H203	H	-0.106503	-0.815603	-0.591241
H204	H	0.226830	-0.482270	-0.257908
C205	C	-0.453312	-1.162371	-0.774144
C206	C	-0.119979	-0.829037	-0.440811
C207	C	0.213355	-0.495704	-0.107478
N208	N	-0.492306	-1.201356	-0.742293
N209	N	-0.158973	-0.868023	-0.408960
N210	N	0.174360	-0.534689	-0.075627
