data_functionalizedCrystal
_audit_creation_method	'MofGen! by Chris Wilmer'
_symmetry_space_group_name_H-M	'P1'
_symmetry_Int_Tables_number	1
_symmetry_cell_setting	triclinic
loop_
_symmetry_equiv_pos_as_xyz
  x,y,z
_cell_length_a	13.339070
_cell_length_b	15.995350
_cell_length_c	11.804783
_cell_angle_alpha	76.705338
_cell_angle_beta	80.565097
_cell_angle_gamma	99.560835
loop_
_atom_site_label
_atom_site_type_symbol
_atom_site_fract_x
_atom_site_fract_y
_atom_site_fract_z
O1	O	1.324057	0.400427	0.099040
O2	O	1.029531	0.345331	0.099036
O3	O	1.184845	0.252862	0.099037
O4	O	1.168742	0.492896	0.099039
O5	O	1.221276	0.291519	-0.099003
O6	O	1.065962	0.383988	-0.099004
O7	O	1.360488	0.439084	-0.099000
Cu8	Cu	1.216551	0.415066	-0.117085
Cu9	Cu	1.173467	0.369350	0.117121
O10	O	1.205173	0.531553	-0.099001
C11	C	1.010057	0.355353	0.000015
C12	C	0.897755	0.327612	0.000014
C13	C	1.202394	0.240841	0.000019
C14	C	1.200397	0.147426	0.000026
C15	C	0.532959	0.543311	0.000035
C16	C	0.638471	0.569378	0.000040
C17	C	0.703297	0.508938	0.000033
C18	C	0.662601	0.422429	0.000022
C19	C	0.557077	0.396358	0.000026
C20	C	0.727415	0.361985	0.000024
C21	C	0.686720	0.275475	0.000013
C22	C	0.581206	0.249409	0.000017
C23	C	0.516380	0.309848	0.000024
C24	C	0.832939	0.388056	0.000020
C25	C	0.857058	0.241102	0.000012
C26	C	0.751546	0.215036	0.000007
C27	C	1.193231	-0.191986	0.000022
C28	C	1.082537	-0.170336	0.000464
C29	C	1.084616	-0.073095	0.000018
C30	C	1.196786	-0.023600	0.000025
C31	C	1.272147	-0.029929	-0.113063
C32	C	1.269386	-0.127191	-0.113158
C33	C	1.230242	-0.170979	0.112051
C34	C	1.229940	-0.074331	0.113545
C35	C	1.198801	0.071566	0.000022
C36	C	1.191220	-0.287150	0.000016
C37	C	1.379961	0.429062	0.000023
C38	C	1.492261	0.456802	0.000032
C39	C	1.187624	0.543574	0.000019
C40	C	1.189619	0.636988	0.000020
N41	N	1.246861	0.447222	-0.281812
C42	C	1.070343	0.259957	-0.655838
C43	C	1.047394	0.235622	-0.531186
C44	C	1.097258	0.288520	-0.468836
C45	C	1.170077	0.365757	-0.531151
C46	C	1.193034	0.390091	-0.655815
C47	C	1.219950	0.418654	-0.468813
C48	C	1.292768	0.495891	-0.531128
C49	C	1.315721	0.520222	-0.655779
C50	C	1.265856	0.467323	-0.718129
C51	C	1.196992	0.394320	-0.344149
C52	C	1.319684	0.524454	-0.344126
C53	C	1.342633	0.548789	-0.468778
N54	N	1.143165	0.337189	0.281848
H55	H	0.866064	0.458493	0.000024
H56	H	0.671596	0.639812	0.000058
H57	H	0.480167	0.592509	0.000050
H58	H	0.548073	0.178965	0.000021
Cl59	Cl	1.354292	-0.023332	0.124104
H60	H	1.401923	0.611677	-0.519532
Cl61	Cl	1.231967	-0.144245	-0.243675
Cl62	Cl	0.955828	0.138545	-0.452857
Cl63	Cl	0.383730	0.277083	0.000015
Cl64	Cl	1.007670	0.193463	-0.734225
Cl65	Cl	0.700372	0.106283	-0.000005
Cl66	Cl	0.938545	0.165114	0.000013
H67	H	1.137703	0.331434	-0.293425
Cl68	Cl	0.995377	-0.069023	0.125176
H69	H	1.178309	-0.216651	0.197765
Cl70	Cl	0.991240	-0.239244	0.125674
H71	H	1.053359	-0.184413	-0.080182
Cl72	Cl	0.835943	0.541710	0.000035
Cl73	Cl	1.041018	-0.021081	-0.125354
H74	H	1.351538	-0.139572	-0.118284
Cl75	Cl	1.382380	0.590956	-0.265753
H76	H	1.355329	0.004162	-0.117264
H77	H	1.078568	0.268701	-0.367339
H78	H	1.174662	-0.072680	0.197205
Cl79	Cl	1.294695	0.497919	-0.874841
Cl80	Cl	1.237548	0.025658	-0.243004
Cl81	Cl	1.355935	-0.190996	0.113235
Cl82	Cl	1.407275	0.617313	-0.734115
