data_functionalizedCrystal
_audit_creation_method	'MofGen! by Chris Wilmer'
_symmetry_space_group_name_H-M	'P1'
_symmetry_Int_Tables_number	1
_symmetry_cell_setting	triclinic
loop_
_symmetry_equiv_pos_as_xyz
  x,y,z
_cell_length_a	16.992694
_cell_length_b	9.565339
_cell_length_c	16.992695
_cell_angle_alpha	90.000721
_cell_angle_beta	89.331777
_cell_angle_gamma	89.998463
loop_
_atom_site_label
_atom_site_type_symbol
_atom_site_fract_x
_atom_site_fract_y
_atom_site_fract_z
O1	O	1.050850	0.116086	-0.166910
O2	O	0.822450	0.116127	-0.165079
O3	O	0.935734	0.116096	-0.051794
O4	O	0.937566	0.116118	-0.280194
O5	O	0.935725	-0.116424	-0.051803
O6	O	0.822440	-0.116393	-0.165088
O7	O	1.050840	-0.116434	-0.166919
Zn8	Zn	0.936639	-0.153331	-0.166005
Zn9	Zn	0.936652	0.153024	-0.165993
O10	O	0.937556	-0.116403	-0.280203
C11	C	0.793085	-0.000128	-0.162727
C12	C	0.705600	-0.000112	-0.155699
N13	N	0.936636	-0.362410	-0.166012
C14	C	0.659610	-0.000107	-0.223517
C15	C	0.577409	-0.000127	-0.216908
C16	C	0.541201	-0.000142	-0.142480
C17	C	0.587198	-0.000152	-0.074657
C18	C	0.669397	-0.000142	-0.081267
C19	C	0.295886	-0.000182	-0.115086
C20	C	0.213681	-0.000188	-0.108481
C21	C	0.203898	-0.000166	-0.250732
C22	C	0.286099	-0.000147	-0.257336
C23	C	0.332089	-0.000164	-0.189512
N24	N	0.457178	-0.000158	-0.135723
N25	N	0.416110	-0.000158	-0.196270
C26	C	0.884729	-0.546769	-0.218859
C27	C	0.864364	-0.453546	-0.146950
C28	C	0.956965	-0.453564	-0.237913
C29	C	0.916258	-0.546725	-0.094033
C30	C	1.008893	-0.546752	-0.185044
C31	C	0.988555	-0.453571	-0.113086
C32	C	1.080205	-0.000176	-0.169270
C33	C	1.167690	-0.000182	-0.176299
C34	C	0.933374	-0.000164	-0.022439
C35	C	0.926345	-0.000162	0.065046
N36	N	0.936661	0.362104	-0.165980
C37	C	0.939917	-0.000140	-0.309559
C38	C	0.946945	-0.000132	-0.397044
C39	C	0.994163	-0.000176	0.111037
C40	C	0.987554	-0.000161	0.193238
C41	C	0.913127	-0.000143	0.229446
C42	C	0.845303	-0.000125	0.183449
C43	C	0.851913	-0.000130	0.101250
C44	C	0.885732	-0.000119	0.474760
C45	C	0.879127	-0.000119	0.556966
C46	C	1.021379	-0.000152	0.566749
C47	C	1.027982	-0.000165	0.484547
C48	C	0.960159	-0.000140	0.438558
N49	N	0.906369	-0.000133	0.313468
N50	N	0.966917	-0.000140	0.354537
H51	H	0.689084	-0.000093	-0.284124
H52	H	0.557710	-0.000184	-0.014056
H53	H	1.032460	-0.412909	-0.068330
C54	C	0.892941	-0.601773	-0.011847
N55	N	0.875376	-0.643239	0.050054
H56	H	0.333322	-0.000197	-0.059859
H57	H	0.974160	-0.412668	-0.298735
C58	C	0.797248	-0.000088	0.596792
N59	N	0.735579	-0.000065	0.626790
H60	H	0.796688	-0.000118	0.063804
H61	H	1.069971	-0.587727	-0.201182
C62	C	1.076040	-0.000196	0.071216
N63	N	1.137712	-0.000205	0.041225
C64	C	0.526822	-0.000146	-0.291514
N65	N	0.488721	-0.000170	-0.347710
C66	C	0.811124	-0.000084	0.424182
N67	N	0.754925	-0.000053	0.386083
H68	H	0.803269	-0.412596	-0.130838
H69	H	1.042779	-0.000176	0.230680
H70	H	1.088589	-0.000180	0.455073
H71	H	0.315574	-0.000119	-0.317942
H72	H	1.076596	-0.000170	0.604202
H73	H	0.784703	-0.000102	0.212936
H74	H	0.166444	-0.000155	-0.305950
H75	H	0.840788	-0.587690	-0.263507
H76	H	0.184203	-0.000199	-0.047870
H77	H	0.706842	-0.000145	-0.026042
