data_functionalizedCrystal
_audit_creation_method	'MofGen! by Chris Wilmer'
_symmetry_space_group_name_H-M	'P1'
_symmetry_Int_Tables_number	1
_symmetry_cell_setting	triclinic
loop_
_symmetry_equiv_pos_as_xyz
  x,y,z
_cell_length_a	18.050591
_cell_length_b	21.295417
_cell_length_c	18.050582
_cell_angle_alpha	89.974292
_cell_angle_beta	89.979078
_cell_angle_gamma	90.025707
loop_
_atom_site_label
_atom_site_type_symbol
_atom_site_fract_x
_atom_site_fract_y
_atom_site_fract_z
Zn1	Zn	1.135285	-0.250716	-0.420015
Zn2	Zn	1.135192	-0.355977	-0.295818
Zn3	Zn	1.011104	-0.250719	-0.295826
Zn4	Zn	1.011049	-0.355944	-0.419954
O5	O	1.073158	-0.303339	-0.357903
O6	O	1.239197	-0.264692	-0.403563
O7	O	1.118716	-0.342030	-0.191895
O8	O	1.027639	-0.162629	-0.312329
O9	O	1.239129	-0.342027	-0.312316
O10	O	1.118874	-0.162627	-0.403570
O11	O	1.027549	-0.264697	-0.191901
O12	O	0.907172	-0.264664	-0.312270
O13	O	1.027545	-0.341970	-0.523887
O14	O	0.907132	-0.341973	-0.403466
O15	O	1.118820	-0.264660	-0.523932
O16	O	1.118663	-0.444062	-0.312256
O17	O	1.027455	-0.444038	-0.403458
C18	C	0.880205	-0.303316	-0.357862
C19	C	0.797660	-0.303321	-0.357862
C20	C	0.598210	-0.261232	-0.308384
C21	C	0.548788	-0.318646	-0.290105
C22	C	0.646529	-0.303340	-0.357896
C23	C	0.548869	-0.245945	-0.376174
C24	C	0.500544	-0.303353	-0.357927
C25	C	0.598195	-0.360785	-0.339581
C26	C	0.598280	-0.288045	-0.425682
C27	C	0.548881	-0.345499	-0.407428
C28	C	0.730628	-0.303331	-0.357876
C29	C	0.416448	-0.303368	-0.357947
C30	C	1.073063	-0.466891	-0.357866
C31	C	1.073090	-0.536859	-0.357875
C32	C	1.120569	-0.569667	-0.405418
C33	C	1.120595	-0.635410	-0.405436
C34	C	1.073151	-0.668341	-0.357898
C35	C	1.025662	-0.635525	-0.310352
C36	C	1.025632	-0.569784	-0.310340
N37	N	1.067546	-0.771598	-0.292903
N38	N	1.067579	-0.834050	-0.292916
C39	C	1.073237	-0.866416	-0.357932
N40	N	1.078876	-0.833972	-0.422935
N41	N	1.078846	-0.771515	-0.422920
C42	C	1.073178	-0.739627	-0.357906
C43	C	1.120747	-0.970510	-0.405499
C44	C	1.120768	-1.036254	-0.405518
C45	C	1.025839	-1.036368	-0.310427
C46	C	1.025814	-0.970625	-0.310414
C47	C	1.073272	-0.937700	-0.357949
C48	C	1.266863	-0.303363	-0.357945
C49	C	1.349409	-0.303373	-0.357963
C50	C	1.073187	-0.303311	-0.551609
C51	C	1.073199	-0.303299	-0.634155
C52	C	1.073273	-0.139149	-0.357957
C53	C	1.073322	-0.069181	-0.357980
C54	C	1.023601	-0.345283	-0.833581
C55	C	1.091356	-0.360675	-0.882979
C56	C	1.073236	-0.303251	-0.785285
C57	C	1.005518	-0.287842	-0.882970
C58	C	1.073265	-0.303206	-0.931271
C59	C	1.141026	-0.318673	-0.833596
C60	C	1.055142	-0.245814	-0.833582
C61	C	1.122944	-0.261183	-0.882958
C62	C	1.073218	-0.303279	-0.701187
C63	C	1.073291	-0.303178	-1.015367
C64	C	1.073171	-0.303322	-0.164951
C65	C	1.073303	-0.303156	-0.082406
H66	H	0.527163	-0.197408	-0.391595
H67	H	1.106677	-0.409229	-0.904676
H68	H	0.620036	-0.275080	-0.482976
O69	O	1.216922	-0.335987	-0.804992
H70	H	1.254647	-0.344547	-0.852494
H71	H	1.159210	-0.542862	-0.444125
O72	O	0.968064	-0.392429	-0.804847
H73	H	0.940799	-0.416195	-0.852283
H74	H	0.527359	-0.381156	-0.449311
O75	O	0.974661	-1.071877	-0.259155
H76	H	0.987428	-1.059276	-0.200880
H77	H	1.164979	-0.225619	-0.904500
O78	O	1.171812	-0.670809	-0.456710
H79	H	1.204811	-0.636869	-0.489758
O80	O	1.034818	-0.181526	-0.804791
H81	H	0.978539	-0.168862	-0.824521
H82	H	0.619772	-0.409343	-0.324071
H83	H	0.948238	-0.274828	-0.904659
O84	O	0.519991	-0.335794	-0.214189
H85	H	0.540607	-0.383103	-0.198679
H86	H	0.619868	-0.225660	-0.266468
H87	H	0.987031	-0.662342	-0.271647
H88	H	0.986968	-0.543070	-0.271624
O89	O	1.171927	-0.934991	-0.456768
H90	H	1.159152	-0.947580	-0.515045
O91	O	1.171979	-1.071645	-0.456800
H92	H	1.204976	-1.037703	-0.489845
O93	O	0.974619	-0.935232	-0.259121
H94	H	0.941637	-0.969174	-0.226060
