data_functionalizedCrystal
_audit_creation_method	'MofGen! by Chris Wilmer'
_symmetry_space_group_name_H-M	'P1'
_symmetry_Int_Tables_number	1
_symmetry_cell_setting	triclinic
loop_
_symmetry_equiv_pos_as_xyz
  x,y,z
_cell_length_a	17.019383
_cell_length_b	16.098538
_cell_length_c	14.971486
_cell_angle_alpha	92.725922
_cell_angle_beta	96.493178
_cell_angle_gamma	96.605849
loop_
_atom_site_label
_atom_site_type_symbol
_atom_site_fract_x
_atom_site_fract_y
_atom_site_fract_z
O1	O	1.054150	0.144783	-0.105654
O2	O	0.823660	0.128271	-0.121125
O3	O	0.945082	0.136964	0.016851
O4	O	0.932728	0.136091	-0.243630
O5	O	0.937989	-0.002057	0.008822
O6	O	0.816567	-0.010750	-0.129153
O7	O	1.047057	0.005763	-0.113683
Zn8	Zn	0.930686	-0.024566	-0.122693
Zn9	Zn	0.940031	0.158600	-0.112115
O10	O	0.925635	-0.002930	-0.251658
C11	C	0.790617	0.056648	-0.124708
C12	C	0.702725	0.050351	-0.123414
C13	C	0.665292	0.123167	-0.118433
C14	C	0.582707	0.117238	-0.117231
C15	C	0.537556	0.038493	-0.121006
C16	C	0.574994	-0.034329	-0.125991
C17	C	0.657578	-0.028399	-0.127198
C18	C	0.288014	0.016798	-0.117585
C19	C	0.205425	0.010874	-0.116375
C20	C	0.213143	0.162441	-0.107617
C21	C	0.295728	0.168364	-0.108820
C22	C	0.333159	0.095543	-0.113809
C23	C	0.453141	0.032431	-0.119776
C24	C	0.417572	0.101606	-0.115046
N25	N	0.924314	-0.149571	-0.129911
C26	C	0.975869	-0.189466	-0.071369
C27	C	0.971419	-0.276973	-0.076428
C28	C	0.915417	-0.324585	-0.140032
C29	C	0.863856	-0.284685	-0.198577
C30	C	0.868303	-0.197179	-0.193514
C31	C	0.899296	-0.588989	-0.158371
C32	C	0.894854	-0.676500	-0.163431
C33	C	1.002417	-0.668783	-0.041280
C34	C	1.006862	-0.581275	-0.036226
C35	C	0.955299	-0.541383	-0.094768
C36	C	0.910868	-0.414032	-0.145206
C37	C	0.959844	-0.451938	-0.089589
C38	C	1.080100	0.077388	-0.110099
C39	C	1.167992	0.083690	-0.111393
C40	C	0.940983	0.067414	0.046157
C41	C	0.939328	0.067296	0.145444
N42	N	0.946410	0.283606	-0.104889
C43	C	0.929734	0.066621	-0.280965
C44	C	0.931390	0.066745	-0.380251
C45	C	1.010660	0.072406	0.203137
C46	C	1.009100	0.072302	0.296427
C47	C	0.936206	0.067083	0.332021
C48	C	0.864868	0.061976	0.274321
C49	C	0.866430	0.062085	0.181033
C50	C	0.861619	0.061746	0.468762
C51	C	0.860057	0.061635	0.562056
C52	C	1.004289	0.071963	0.584156
C53	C	1.005851	0.072073	0.490868
C54	C	0.934512	0.066964	0.433174
H55	H	0.454337	0.165719	-0.111978
H56	H	1.067186	0.076461	0.343397
O57	O	0.789261	0.056425	0.596665
C58	C	0.780368	-0.015937	0.645828
H59	H	0.819187	-0.063302	0.621082
H60	H	0.715333	-0.044666	0.635718
H61	H	0.799393	0.001642	0.720438
O62	O	0.709220	0.199613	-0.114891
C63	C	0.748317	0.206950	-0.192803
H64	H	0.754378	0.141830	-0.222608
H65	H	0.810020	0.243336	-0.174379
H66	H	0.712169	0.241617	-0.244423
O67	O	0.546477	0.188055	-0.112340
C68	C	0.604035	0.258828	-0.109280
H69	H	0.665020	0.241064	-0.083112
H70	H	0.587855	0.310466	-0.062437
H71	H	0.605772	0.282184	-0.179816
H72	H	1.065207	0.076316	0.461890
H73	H	1.021475	-0.150705	-0.019579
O74	O	0.339463	0.244924	-0.105183
C75	C	0.288717	0.307924	-0.100501
H76	H	0.225470	0.281255	-0.129249
H77	H	0.310299	0.362289	-0.141203
H78	H	0.289347	0.331172	-0.027267
O79	O	0.693961	-0.099110	-0.132192
C80	C	0.732628	-0.100837	-0.210606
H81	H	0.703717	-0.060062	-0.261901
H82	H	0.727171	-0.168008	-0.240494
H83	H	0.798262	-0.075842	-0.192833
O84	O	1.021592	-0.315590	-0.019528
C85	C	1.071968	-0.254804	0.037702
H86	H	1.076054	-0.192354	0.004644
H87	H	1.133898	-0.275541	0.050165
H88	H	1.046689	-0.247362	0.104575
O89	O	1.014125	-0.405626	-0.027734
C90	C	0.974222	-0.358111	0.030187
H91	H	0.912981	-0.349438	-0.004993
H92	H	1.010375	-0.294207	0.048093
H93	H	0.967044	-0.392263	0.094296
H94	H	1.044397	-0.701271	0.006382
H95	H	0.849248	-0.715262	-0.215230
O96	O	0.161678	-0.065690	-0.120089
C97	C	0.212425	-0.128693	-0.124729
H98	H	0.269174	-0.102486	-0.152629
H99	H	0.180878	-0.183760	-0.170866
H100	H	0.228257	-0.150781	-0.054448
H101	H	0.318480	-0.042498	-0.121642
H102	H	0.865271	-0.452804	-0.196996
H103	H	0.182658	0.221728	-0.103557
H104	H	1.062376	0.076126	0.631135
H105	H	1.052464	-0.542511	0.015566
H106	H	0.416370	-0.031684	-0.122846
O107	O	0.849177	-0.550376	-0.215334
C108	C	0.798786	-0.611168	-0.272544
H109	H	0.828080	-0.671209	-0.277008
H110	H	0.788055	-0.586739	-0.342571
H111	H	0.739475	-0.624712	-0.244316
O112	O	1.081541	0.077520	0.168716
C113	C	1.144165	0.081989	0.239646
H114	H	1.123250	0.106714	0.304422
H115	H	1.197110	0.125999	0.222752
H116	H	1.162773	0.016872	0.249119
H117	H	0.803528	0.057588	0.421789
H118	H	0.538225	-0.098445	-0.129069
O119	O	0.794114	0.057022	0.309008
C120	C	0.792562	0.128657	0.366445
H121	H	0.856166	0.157130	0.391401
H122	H	0.760118	0.110199	0.426434
H123	H	0.760148	0.176569	0.327948
H124	H	0.818253	-0.323456	-0.250362
O125	O	0.818188	-0.158555	-0.250478
C126	C	0.767792	-0.219341	-0.307689
H127	H	0.797082	-0.279384	-0.312158
H128	H	0.757062	-0.194908	-0.377715
H129	H	0.708482	-0.232882	-0.279459
O130	O	0.797062	0.057079	0.125112
C131	C	0.732389	0.052471	0.176531
H132	H	0.751072	0.027583	0.244750
H133	H	0.680342	0.008533	0.139517
H134	H	0.713457	0.117568	0.186904
