data_functionalizedCrystal
_audit_creation_method	'MofGen! by Chris Wilmer'
_symmetry_space_group_name_H-M	'P1'
_symmetry_Int_Tables_number	1
_symmetry_cell_setting	triclinic
loop_
_symmetry_equiv_pos_as_xyz
  x,y,z
_cell_length_a	21.295418
_cell_length_b	12.645330
_cell_length_c	12.645324
_cell_angle_alpha	90.031766
_cell_angle_beta	89.958037
_cell_angle_gamma	89.966493
loop_
_atom_site_label
_atom_site_type_symbol
_atom_site_fract_x
_atom_site_fract_y
_atom_site_fract_z
Zn1	Zn	0.962401	0.421511	-0.599984
Zn2	Zn	1.462401	0.921511	-0.099984
Zn3	Zn	0.962330	0.598820	-0.422724
Zn4	Zn	1.462330	1.098820	0.077276
Zn5	Zn	0.857127	0.421620	-0.422670
Zn6	Zn	1.357127	0.921620	0.077330
Zn7	Zn	0.857117	0.598782	-0.599881
Zn8	Zn	1.357117	1.098782	-0.099881
O9	O	0.909744	0.510184	-0.511315
O10	O	1.409744	1.010184	-0.011315
O11	O	1.050481	0.445002	-0.576536
O12	O	1.550481	0.945002	-0.076536
O13	O	0.948349	0.575376	-0.274369
O14	O	1.448349	1.075376	0.225631
O15	O	0.871126	0.273259	-0.446211
O16	O	1.371126	0.773259	0.053789
O17	O	1.050429	0.575270	-0.446304
O18	O	1.550429	1.075270	0.053696
O19	O	0.948470	0.273178	-0.576483
O20	O	1.448470	0.773178	-0.076483
O21	O	0.871057	0.445188	-0.274329
O22	O	1.371057	0.945188	0.225671
O23	O	0.769036	0.445151	-0.446111
O24	O	1.269036	0.945151	0.053889
O25	O	0.871108	0.575205	-0.748242
O26	O	1.371108	1.075205	-0.248242
O27	O	0.769029	0.575311	-0.576307
O28	O	1.269029	1.075311	-0.076307
O29	O	0.948460	0.444965	-0.748318
O30	O	1.448460	0.944965	-0.248318
O31	O	0.948339	0.747163	-0.446204
O32	O	1.448339	1.247163	0.053796
O33	O	0.871040	0.747134	-0.576360
O34	O	1.371040	1.247134	-0.076360
C35	C	0.746192	0.510239	-0.511193
C36	C	1.246192	1.010239	-0.011193
C37	C	0.676224	0.510289	-0.511165
C38	C	1.176224	1.010289	-0.011165
C39	C	0.909698	0.785613	-0.511300
C40	C	1.409698	1.285613	-0.011300
C41	C	0.909736	0.903443	-0.511329
C42	C	1.409736	1.403443	-0.011329
C43	C	0.909791	0.510068	-0.787820
C44	C	1.409791	1.010068	-0.287820
C45	C	0.909811	0.510019	-0.905650
C46	C	1.409811	1.010019	-0.405650
C47	C	0.643370	0.578153	-0.578857
C48	C	1.143370	1.078153	-0.078857
C49	C	0.577627	0.578127	-0.578905
C50	C	1.077627	1.078127	-0.078905
C51	C	0.544742	0.510248	-0.511242
C52	C	1.044742	1.010248	-0.011242
C53	C	0.577604	0.442370	-0.443545
C54	C	1.077604	0.942370	0.056455
C55	C	0.643345	0.442391	-0.443507
C56	C	1.143345	0.942391	0.056493
N57	N	0.441466	0.501981	-0.418520
N58	N	0.941466	1.001981	0.081480
N59	N	0.379015	0.501968	-0.418560
N60	N	0.879015	1.001968	0.081440
C61	C	0.346667	0.510180	-0.511354
C62	C	0.846667	1.010180	-0.011354
N63	N	0.379130	0.518426	-0.604110
N64	N	0.879130	1.018426	-0.104110
N65	N	0.441587	0.518445	-0.604070
N66	N	0.941587	1.018445	-0.104070
C67	C	0.473456	0.510217	-0.511276
C68	C	0.973456	1.010217	-0.011276
C69	C	0.242527	0.578019	-0.579103
C70	C	0.742527	1.078019	-0.079103
C71	C	0.176784	0.577986	-0.579153
C72	C	0.676784	1.077986	-0.079153
C73	C	0.176761	0.442235	-0.443784
C74	C	0.676761	0.942235	0.056216
C75	C	0.242503	0.442263	-0.443744
C76	C	0.742503	0.942263	0.056256
C77	C	0.275383	0.510161	-0.511402
C78	C	0.775383	1.010161	-0.011402
C79	C	1.073934	0.510128	-0.511438
C80	C	1.573934	1.010128	-0.011438
C81	C	1.143902	0.510105	-0.511490
C82	C	1.643902	1.010105	-0.011490
C83	C	0.909807	0.233678	-0.511353
C84	C	1.409807	0.733678	-0.011353
C85	C	0.909834	0.115848	-0.511369
C86	C	1.409834	0.615848	-0.011369
C87	C	0.861307	1.071033	-0.593463
C88	C	1.361307	1.571033	-0.093463
C89	C	0.861059	0.948474	-0.593199
C90	C	1.361059	1.448474	-0.093199
C91	C	0.891776	0.948059	-0.399597
C92	C	1.391776	1.448059	0.100403
C93	C	0.891480	1.070658	-0.400095
C94	C	1.391480	1.570658	0.099905
C95	C	0.976421	1.070498	-0.540021
C96	C	1.476421	1.570498	-0.040021
C97	C	0.976012	0.947891	-0.542464
C98	C	1.476012	1.447891	-0.042464
C99	C	0.958662	0.428322	-1.073262
C100	C	1.458662	0.928322	-0.573262
C101	C	0.958506	0.428027	-0.950702
C102	C	1.458506	0.928027	-0.450702
C103	C	0.843494	0.479692	-0.950091
C104	C	1.343494	0.979692	-0.450091
C105	C	0.843790	0.479072	-1.072690
C106	C	1.343790	0.979072	-0.572690
C107	C	0.926739	0.622163	-1.072858
C108	C	1.426739	1.122163	-0.572858
C109	C	0.928190	0.621598	-0.950253
C110	C	1.428190	1.121598	-0.450253
C111	C	0.909733	0.510222	-0.235885
C112	C	1.409733	1.010222	0.264115
C113	C	0.909835	0.509972	-0.118055
C114	C	1.409835	1.009972	0.381945
H115	H	0.670136	0.633439	-0.633952
H116	H	1.170136	1.133439	-0.133952
H117	H	0.550872	0.633389	-0.634032
H118	H	1.050872	1.133389	-0.134032
C119	C	0.679489	0.367743	-0.369041
C120	C	1.179489	0.867743	0.130959
H121	H	0.723351	0.377474	-0.378713
H122	H	1.223351	0.877474	0.121287
H123	H	0.668661	0.383167	-0.297794
H124	H	1.168661	0.883167	0.202206
H125	H	0.668760	0.296526	-0.384694
H126	H	1.168760	0.796526	0.115306
H127	H	0.947313	0.344918	-0.921383
H128	H	1.447313	0.844918	-0.421383
C129	C	0.826703	0.906758	-0.366216
C130	C	1.326703	1.406758	0.133784
H131	H	0.816253	0.934195	-0.298494
H132	H	1.316253	1.434195	0.201506
H133	H	0.796175	0.928889	-0.416283
H134	H	1.296175	1.428889	0.083717
H135	H	0.827541	0.831703	-0.363264
H136	H	1.327541	1.331703	0.136736
H137	H	0.150035	0.633247	-0.634282
H138	H	0.650035	1.133247	-0.134282
C139	C	0.278648	0.367621	-0.369276
C140	C	0.778648	0.867621	0.130724
H141	H	0.322510	0.377349	-0.378950
H142	H	0.822510	0.877349	0.121050
H143	H	0.267822	0.383048	-0.298028
H144	H	0.767822	0.883048	0.201972
H145	H	0.267916	0.296405	-0.384926
H146	H	0.767916	0.796405	0.115074
H147	H	1.012575	1.099477	-0.480229
H148	H	1.512575	1.599477	0.019771
C149	C	0.994313	0.908504	-0.653550
C150	C	1.494313	1.408504	-0.153550
H151	H	1.034445	0.935668	-0.671938
H152	H	1.534445	1.435668	-0.171938
H153	H	0.995694	0.833418	-0.653797
H154	H	1.495694	1.333418	-0.153797
H155	H	0.964090	0.932150	-0.703457
H156	H	1.464090	1.432150	-0.203457
C157	C	0.793004	0.557555	-0.910668
C158	C	1.293004	1.057555	-0.410668
H159	H	0.753280	0.537760	-0.938481
H160	H	1.253280	1.037760	-0.438481
H161	H	0.791435	0.555944	-0.835610
H162	H	1.291435	1.055944	-0.335610
H163	H	0.803146	0.627004	-0.933614
H164	H	1.303146	1.127004	-0.433614
C165	C	0.541432	0.367706	-0.369118
C166	C	1.041432	0.867706	0.130882
H167	H	0.497573	0.377420	-0.378828
H168	H	0.997573	0.877420	0.121172
H169	H	0.552247	0.296500	-0.384747
H170	H	1.052247	0.796500	0.115253
H171	H	0.552154	0.383147	-0.297854
H172	H	1.052154	0.883147	0.202146
C173	C	0.998553	1.112133	-0.648220
C174	C	1.498553	1.612133	-0.148220
H175	H	0.967387	1.157566	-0.676934
H176	H	1.467387	1.657566	-0.176934
H177	H	1.036641	1.150243	-0.639661
H178	H	1.536641	1.650243	-0.139661
H179	H	1.005270	1.054267	-0.694827
H180	H	1.505270	1.554267	-0.194827
H181	H	0.269299	0.633300	-0.634200
H182	H	0.769299	1.133300	-0.134200
H183	H	0.806172	0.535956	-1.102316
H184	H	1.306172	1.035956	-0.602316
H185	H	0.149986	0.386962	-0.388696
H186	H	0.649986	0.886962	0.111304
H187	H	0.976994	0.644467	-0.921209
H188	H	1.476994	1.144467	-0.421209
C189	C	0.876217	0.907712	-0.705123
C190	C	1.376217	1.407712	-0.205123
H191	H	0.882581	0.966080	-0.751164
H192	H	1.382581	1.466080	-0.251164
H193	H	0.913206	0.865747	-0.702985
H194	H	1.413206	1.365747	-0.202985
H195	H	0.842198	0.866178	-0.730284
H196	H	1.342198	1.366178	-0.230284
C197	C	0.990952	0.659427	-1.114667
C198	C	1.490952	1.159427	-0.614667
H199	H	1.008055	0.606905	-1.160083
H200	H	1.508055	1.106905	-0.660083
H201	H	0.985809	0.723529	-1.152832
H202	H	1.485809	1.223529	-0.652832
H203	H	1.018616	0.670810	-1.056871
H204	H	1.518616	1.170810	-0.556871
H205	H	0.828902	0.398598	-0.919388
H206	H	1.328902	0.898598	-0.419388
H207	H	0.872441	1.100430	-0.676582
H208	H	1.372441	1.600430	-0.176582
H209	H	0.829461	0.397063	-1.101291
H210	H	1.329461	0.897063	-0.601291
H211	H	1.014071	0.917230	-0.487028
H212	H	1.514071	1.417230	0.012972
C213	C	1.024939	0.453657	-0.910110
C214	C	1.524939	0.953657	-0.410110
H215	H	1.052267	0.464339	-0.968548
H216	H	1.552267	0.964339	-0.468548
H217	H	1.023596	0.515994	-0.868213
H218	H	1.523596	1.015994	-0.368213
H219	H	1.039945	0.396430	-0.868543
H220	H	1.539945	0.896430	-0.368543
C221	C	1.025314	0.453633	-1.113155
C222	C	1.525314	0.953633	-0.613155
H223	H	1.023963	0.514218	-1.157491
H224	H	1.523963	1.014218	-0.657491
H225	H	1.051987	0.467197	-1.054522
H226	H	1.551987	0.967197	-0.554522
H227	H	1.041109	0.395098	-1.152091
H228	H	1.541109	0.895098	-0.652091
H229	H	0.947614	0.345673	-1.104079
H230	H	1.447614	0.845673	-0.604079
H231	H	0.812251	1.101959	-0.574720
H232	H	1.312251	1.601959	-0.074720
C233	C	0.883636	0.708202	-0.908834
C234	C	1.383636	1.208202	-0.408834
H235	H	0.853103	0.677306	-0.863602
H236	H	1.353103	1.177306	-0.363602
H237	H	0.907072	0.759365	-0.870553
H238	H	1.407072	1.259365	-0.370553
H239	H	0.863231	0.741352	-0.966804
H240	H	1.363231	1.241352	-0.466804
H241	H	0.811695	0.919265	-0.574213
H242	H	1.311695	1.419265	-0.074213
C243	C	0.825724	1.109458	-0.367323
C244	C	1.325724	1.609458	0.132677
H245	H	0.799442	1.050293	-0.353836
H246	H	1.299442	1.550293	0.146164
H247	H	0.828949	1.151339	-0.305180
H248	H	1.328949	1.651339	0.194820
H249	H	0.808208	1.150663	-0.422753
H250	H	1.308208	1.650663	0.077247
H251	H	0.891178	0.683001	-1.101830
H252	H	1.391178	1.183001	-0.601830
H253	H	0.925291	1.100307	-0.336841
H254	H	1.425291	1.600307	0.163159
H255	H	0.926000	0.918892	-0.336757
H256	H	1.426000	1.418892	0.163243
