data_functionalizedCrystal
_audit_creation_method	'MofGen! by Chris Wilmer'
_symmetry_space_group_name_H-M	'P1'
_symmetry_Int_Tables_number	1
_symmetry_cell_setting	triclinic
loop_
_symmetry_equiv_pos_as_xyz
  x,y,z
_cell_length_a	14.971486
_cell_length_b	12.837942
_cell_length_c	14.048226
_cell_angle_alpha	89.994377
_cell_angle_beta	89.998499
_cell_angle_gamma	89.221535
loop_
_atom_site_label
_atom_site_type_symbol
_atom_site_fract_x
_atom_site_fract_y
_atom_site_fract_z
O1	O	1.198338	0.135106	-0.079050
O2	O	0.939302	0.151285	-0.079075
O3	O	1.063076	-0.007715	-0.079057
O4	O	1.074564	0.294105	-0.079068
O5	O	1.063059	-0.007724	0.079264
O6	O	0.939284	0.151275	0.079246
O7	O	1.198320	0.135096	0.079272
Zn8	Zn	1.068800	0.143184	0.104396
Zn9	Zn	1.068822	0.143197	-0.104199
O10	O	1.074546	0.294096	0.079254
C11	C	0.905907	0.150556	0.000082
C12	C	0.806427	0.148388	0.000072
C13	C	0.757077	0.241796	0.000070
C14	C	0.663606	0.239752	0.000085
C15	C	0.619486	0.144300	0.000094
C16	C	0.668842	0.050885	0.000099
C17	C	0.762313	0.052930	0.000091
C18	C	0.474021	0.046630	0.000112
C19	C	0.380545	0.044585	0.000118
C20	C	0.375314	0.233453	0.000105
C21	C	0.468784	0.235498	0.000098
C22	C	0.518135	0.142082	0.000101
C23	C	1.059187	-0.046345	0.000103
C24	C	1.047612	-0.161436	0.000100
C25	C	1.186755	-0.402222	0.000094
C26	C	1.175884	-0.510362	0.000091
C27	C	1.015001	-0.485856	0.000085
C28	C	1.025872	-0.377717	0.000088
C29	C	1.111751	-0.335904	0.000093
C30	C	1.122621	-0.227763	0.000103
C31	C	0.961739	-0.203260	0.000090
C32	C	0.950868	-0.311399	0.000087
C33	C	1.231715	0.135824	0.000112
C34	C	1.331195	0.137993	0.000116
C35	C	1.078436	0.332726	0.000092
C36	C	1.090010	0.447817	0.000088
N37	N	1.068791	0.143175	0.246756
N38	N	1.068838	0.143197	-0.246560
C39	C	1.123619	0.072799	0.296583
C40	C	1.123625	0.072799	0.396240
C41	C	1.068807	0.143180	0.446070
C42	C	1.013972	0.213559	0.396237
C43	C	1.013962	0.213554	0.296581
C44	C	1.013998	0.213567	0.603951
C45	C	1.014009	0.213573	0.703614
C46	C	1.123662	0.072811	0.703610
C47	C	1.123652	0.072806	0.603954
C48	C	1.068818	0.143187	0.554128
H49	H	0.632913	-0.026834	0.000120
H50	H	1.168309	0.015505	0.744185
H51	H	0.514200	-0.029439	0.000116
H52	H	0.344625	-0.033141	0.000127
C53	C	0.609324	0.342501	0.000079
H54	H	0.648987	0.399641	0.000061
H55	H	0.572757	0.345632	0.055293
H56	H	0.572750	0.345629	-0.055134
C57	C	0.321037	0.336211	0.000107
H58	H	0.360701	0.393351	0.000089
H59	H	0.284470	0.339342	0.055321
H60	H	0.284463	0.339338	-0.055106
H61	H	0.504704	0.313223	0.000081
C62	C	0.816598	-0.049819	0.000084
H63	H	0.776936	-0.106960	0.000080
H64	H	0.853174	-0.052954	0.055289
H65	H	0.853164	-0.052940	-0.055138
H66	H	1.192549	-0.193721	0.000111
C67	C	1.183950	-0.004611	0.549143
H68	H	1.216602	-0.046534	0.593089
H69	H	1.224358	0.032753	0.510254
H70	H	1.148081	-0.047833	0.510281
C71	C	0.953654	0.290967	0.241768
H72	H	0.961492	0.280878	0.175280
H73	H	0.969261	0.360180	0.258087
H74	H	0.892991	0.279585	0.258111
H75	H	0.945081	-0.519920	0.000070
C76	C	1.281215	-0.356224	0.000108
H77	H	1.324329	-0.411210	0.000106
H78	H	1.288791	-0.314554	0.055319
H79	H	1.288806	-0.314543	-0.055108
C80	C	0.856409	-0.357400	0.000087
H81	H	0.860675	-0.431302	0.000092
H82	H	0.825136	-0.334635	-0.055120
H83	H	0.825143	-0.334651	0.055307
C84	C	1.258384	-0.583313	0.000090
H85	H	1.239613	-0.653706	0.000079
H86	H	1.293218	-0.570634	0.055299
H87	H	1.293215	-0.570614	-0.055128
C88	C	0.879232	-0.130308	0.000082
H89	H	0.898003	-0.059914	0.000078
H90	H	0.844391	-0.143003	0.055287
H91	H	0.844408	-0.142989	-0.055140
C92	C	1.183919	-0.004623	0.241778
H93	H	1.216567	-0.046542	0.285730
H94	H	1.224331	0.032737	0.202890
H95	H	1.148052	-0.047847	0.202916
H96	H	1.168270	0.015493	0.436808
H97	H	0.969343	0.270875	0.563386
C98	C	0.953648	0.290924	0.758425
H99	H	0.920962	0.332812	0.714480
H100	H	0.989454	0.334173	0.797321
H101	H	0.913257	0.253484	0.797281
H102	H	0.792993	0.319524	0.000062
C103	C	0.953641	0.290948	0.451042
H104	H	0.920971	0.332845	0.407092
H105	H	0.989474	0.334182	0.489922
H106	H	0.913236	0.253546	0.489913
