data_functionalizedCrystal
_audit_creation_method	'MofGen! by Chris Wilmer'
_symmetry_space_group_name_H-M	'P1'
_symmetry_Int_Tables_number	1
_symmetry_cell_setting	triclinic
loop_
_symmetry_equiv_pos_as_xyz
  x,y,z
_cell_length_a	16.992694
_cell_length_b	19.188924
_cell_length_c	15.455301
_cell_angle_alpha	86.989818
_cell_angle_beta	87.178730
_cell_angle_gamma	86.905094
loop_
_atom_site_label
_atom_site_type_symbol
_atom_site_fract_x
_atom_site_fract_y
_atom_site_fract_z
O1	O	1.042929	0.150912	-0.072029
O2	O	1.376262	0.484246	0.261304
O3	O	1.709596	0.817579	0.594637
O4	O	0.814650	0.149289	-0.072055
O5	O	1.147984	0.482623	0.261278
O6	O	1.481317	0.815956	0.594612
O7	O	0.935380	0.048830	-0.072031
O8	O	1.268713	0.382163	0.261302
O9	O	1.602046	0.715497	0.594635
O10	O	0.922200	0.251372	-0.072053
O11	O	1.255533	0.584705	0.261280
O12	O	1.588866	0.918038	0.594614
O13	O	0.929262	0.043030	0.072231
O14	O	1.262595	0.376364	0.405565
O15	O	1.595928	0.709697	0.738898
O16	O	0.808532	0.143490	0.072208
O17	O	1.141866	0.476823	0.405541
O18	O	1.475199	0.810156	0.738874
O19	O	1.036811	0.145112	0.072233
O20	O	1.370144	0.478446	0.405566
O21	O	1.703478	0.811779	0.738900
Cu22	Cu	0.922113	0.143771	0.085393
Cu23	Cu	1.255446	0.477105	0.418726
Cu24	Cu	1.588780	0.810438	0.752059
Cu25	Cu	0.929348	0.150630	-0.085214
Cu26	Cu	1.262682	0.483964	0.248119
Cu27	Cu	1.596015	0.817297	0.581452
O28	O	0.916082	0.245572	0.072209
O29	O	1.249415	0.578905	0.405543
O30	O	1.582748	0.912238	0.738876
C31	C	0.782386	0.144301	0.000073
C32	C	1.115720	0.477634	0.333407
C33	C	1.449053	0.810967	0.666740
C34	C	0.695364	0.138068	0.000064
C35	C	1.028697	0.471401	0.333397
C36	C	1.362031	0.804735	0.666731
C37	C	0.644916	0.198208	0.000058
C38	C	0.978249	0.531541	0.333391
C39	C	1.311583	0.864874	0.666725
C40	C	0.563149	0.192347	0.000071
C41	C	0.896482	0.525680	0.333404
C42	C	1.229816	0.859013	0.666737
C43	C	0.531832	0.126345	0.000083
C44	C	0.865165	0.459679	0.333416
C45	C	1.198499	0.793012	0.666750
C46	C	0.582287	0.066201	0.000091
C47	C	0.915620	0.399534	0.333425
C48	C	1.248953	0.732867	0.666758
C49	C	0.664052	0.072062	0.000085
C50	C	0.997385	0.405396	0.333418
C51	C	1.330718	0.738729	0.666752
C52	C	0.288317	0.102051	0.000109
C53	C	0.621651	0.435385	0.333442
C54	C	0.954984	0.768718	0.666775
C55	C	0.206546	0.096194	0.000113
C56	C	0.539879	0.429528	0.333446
C57	C	0.873213	0.762861	0.666779
C58	C	0.187414	0.222341	0.000093
C59	C	0.520747	0.555674	0.333427
C60	C	0.854081	0.889007	0.666760
C61	C	0.269182	0.228197	0.000082
C62	C	0.602515	0.561530	0.333415
C63	C	0.935848	0.894863	0.666749
C64	C	0.319629	0.168052	0.000095
C65	C	0.652962	0.501385	0.333428
C66	C	0.986295	0.834719	0.666762
N67	N	0.448254	0.120353	0.000093
N68	N	0.781587	0.453686	0.333426
N69	N	1.114920	0.787019	0.666760
N70	N	0.403205	0.174045	0.000091
N71	N	0.736539	0.507378	0.333424
N72	N	1.069872	0.840712	0.666758
C73	C	0.931895	0.019894	0.000101
C74	C	1.265228	0.353227	0.333434
C75	C	1.598561	0.686561	0.666767
C76	C	0.930616	-0.057686	0.000103
C77	C	1.263949	0.275648	0.333436
C78	C	1.597283	0.608981	0.666770
C79	C	0.933354	-0.090958	-0.078535
C80	C	1.266688	0.242375	0.254799
C81	C	1.600021	0.575709	0.588132
C82	C	0.932142	-0.163851	-0.078542
C83	C	1.265475	0.169482	0.254792
C84	C	1.598809	0.502815	0.588125
C85	C	0.928207	-0.203471	0.000094
C86	C	1.261541	0.129863	0.333427
C87	C	1.594874	0.463196	0.666761
C88	C	0.925464	-0.170190	0.078742
C89	C	1.258798	0.163144	0.412075
C90	C	1.592131	0.496477	0.745409
C91	C	0.926669	-0.097297	0.078747
C92	C	1.260002	0.236036	0.412080
C93	C	1.593335	0.569369	0.745413
N94	N	0.968445	-0.322987	0.058625
N95	N	1.301779	0.010346	0.391959
N96	N	1.635112	0.343679	0.725292
N97	N	0.967303	-0.392232	0.058616
N98	N	1.300636	-0.058899	0.391949
N99	N	1.633970	0.274435	0.725282
C100	C	0.924576	-0.423092	0.000085
C101	C	1.257910	-0.089759	0.333419
C102	C	1.591243	0.243575	0.666752
N103	N	0.883045	-0.382091	-0.058449
N104	N	1.216379	-0.048758	0.274885
N105	N	1.549712	0.284575	0.608218
N106	N	0.884192	-0.312840	-0.058441
N107	N	1.217525	0.020493	0.274892
N108	N	1.550858	0.353826	0.608225
C109	C	0.926900	-0.282511	0.000098
C110	C	1.260234	0.050822	0.333431
C111	C	1.593567	0.384156	0.666765
C112	C	0.925999	-0.535403	-0.078565
C113	C	1.259332	-0.202070	0.254768
C114	C	1.592666	0.131263	0.588101
C115	C	0.924782	-0.608298	-0.078569
C116	C	1.258115	-0.274965	0.254765
C117	C	1.591449	0.058369	0.588098
C118	C	0.918112	-0.614636	0.078717
C119	C	1.251445	-0.281302	0.412051
C120	C	1.584779	0.052031	0.745384
C121	C	0.919321	-0.541742	0.078718
C122	C	1.252655	-0.208409	0.412052
C123	C	1.585988	0.124925	0.745385
C124	C	0.923269	-0.502130	0.000075
C125	C	1.256602	-0.168797	0.333408
C126	C	1.589935	0.164536	0.666741
C127	C	1.069075	0.150101	0.000103
C128	C	1.402409	0.483435	0.333436
C129	C	1.735742	0.816768	0.666770
C130	C	1.156098	0.156334	0.000107
C131	C	1.489431	0.489667	0.333440
C132	C	1.822764	0.823001	0.666773
C133	C	0.919567	0.274508	0.000075
C134	C	1.252900	0.607841	0.333409
C135	C	1.586233	0.941174	0.666742
C136	C	0.920846	0.352088	0.000068
C137	C	1.254179	0.685421	0.333401
C138	C	1.587512	1.018754	0.666734
N139	N	0.917030	0.138947	0.205389
N140	N	1.250363	0.472280	0.538722
N141	N	1.583697	0.805614	0.872055
N142	N	0.934438	0.155449	-0.205210
N143	N	1.267771	0.488783	0.128123
N144	N	1.601104	0.822116	0.461456
C145	C	0.962505	0.182140	0.250780
C146	C	1.295838	0.515473	0.584113
C147	C	1.629171	0.848806	0.917446
C148	C	0.958671	0.178488	0.341588
C149	C	1.292004	0.511821	0.674921
C150	C	1.625338	0.845154	1.008255
C151	C	0.909358	0.131646	0.387003
C152	C	1.242691	0.464979	0.720336
C153	C	1.576025	0.798312	1.053670
C154	C	0.863881	0.088448	0.341605
C155	C	1.197215	0.421782	0.674939
C156	C	1.530548	0.755115	1.008272
C157	C	0.867720	0.092097	0.250799
C158	C	1.201053	0.425431	0.584132
C159	C	1.534387	0.758764	0.917466
C160	C	0.892800	0.115901	0.658586
C161	C	1.226133	0.449235	0.991919
C162	C	1.559466	0.782568	1.325252
C163	C	0.888963	0.112257	0.749398
C164	C	1.222296	0.445590	1.082732
C165	C	1.555630	0.778923	1.416065
C166	C	0.983754	0.202296	0.749375
C167	C	1.317087	0.535629	1.082708
C168	C	1.650421	0.868962	1.416041
C169	C	0.987585	0.205944	0.658566
C170	C	1.320918	0.539277	0.991900
C171	C	1.654251	0.872610	1.325233
C172	C	0.942111	0.162744	0.613177
C173	C	1.275445	0.496077	0.946510
C174	C	1.608778	0.829410	1.279843
N175	N	0.905436	0.127913	0.479824
N176	N	1.238769	0.461246	0.813157
N177	N	1.572103	0.794580	1.146490
N178	N	0.946038	0.166473	0.520358
N179	N	1.279371	0.499807	0.853691
N180	N	1.612704	0.833140	1.187024
H181	H	0.181052	0.042445	0.000122
H182	H	0.514385	0.375779	0.333455
H183	H	0.847718	0.709112	0.666788
H184	H	0.556782	0.012460	0.000114
H185	H	0.890115	0.345794	0.333447
H186	H	1.223448	0.679127	0.666780
O187	O	0.913875	-0.657361	0.163533
O188	O	1.247208	-0.324027	0.496866
O189	O	1.580541	0.009306	0.830199
H190	H	0.859750	-0.687483	0.167286
H191	H	1.193084	-0.354150	0.500619
H192	H	1.526417	-0.020816	0.833952
O193	O	0.930238	-0.492672	-0.163383
O194	O	1.263572	-0.159339	0.169950
O195	O	1.596905	0.173994	0.503284
H196	H	0.985019	-0.508391	-0.201096
H197	H	1.318353	-0.175058	0.132237
H198	H	1.651686	0.158276	0.465570
O199	O	0.835777	0.061728	0.798385
O200	O	1.169110	0.395061	1.131718
O201	O	1.502444	0.728394	1.465052
H202	H	0.773806	0.074080	0.780952
H203	H	1.107139	0.407414	1.114286
H204	H	1.440472	0.740747	1.447619
H205	H	0.670407	0.251953	0.000047
H206	H	1.003740	0.585287	0.333381
H207	H	1.337074	0.918620	0.666714
H208	H	0.146331	0.271307	0.000085
H209	H	0.479665	0.604640	0.333418
H210	H	0.812998	0.937973	0.666751
H211	H	0.924436	-0.070208	0.142785
H212	H	1.257769	0.263126	0.476118
H213	H	1.591102	0.596459	0.809452
H214	H	0.705126	0.023090	0.000089
H215	H	1.038460	0.356423	0.333423
H216	H	1.371793	0.689757	0.666756
O217	O	0.916377	-0.505854	0.163539
O218	O	1.249710	-0.172521	0.496873
O219	O	1.583043	0.160812	0.830206
H220	H	0.917869	-0.448512	0.150332
H221	H	1.251203	-0.115178	0.483666
H222	H	1.584536	0.218155	0.816999
H223	H	1.027743	0.244085	0.621595
H224	H	1.361076	0.577419	0.954929
H225	H	1.694410	0.910752	1.288262
O226	O	0.843747	0.069317	0.609634
O227	O	1.177081	0.402650	0.942967
O228	O	1.510414	0.735984	1.276300
H229	H	0.808805	0.036141	0.656472
H230	H	1.142138	0.369474	0.989806
H231	H	1.475472	0.702807	1.323139
O232	O	0.937592	-0.048231	-0.163353
O233	O	1.270925	0.285102	0.169980
O234	O	1.604258	0.618436	0.503314
H235	H	0.939281	-0.083618	-0.218037
H236	H	1.272615	0.249715	0.115297
H237	H	1.605948	0.583049	0.448630
O238	O	0.302949	0.299387	0.000088
O239	O	0.636282	0.632720	0.333422
O240	O	0.969616	0.966054	0.666755
H241	H	0.285146	0.330877	-0.058705
H242	H	0.618480	0.664210	0.274628
H243	H	0.951813	0.997543	0.607961
H244	H	0.823734	0.050305	0.378590
H245	H	1.157067	0.383638	0.711923
H246	H	1.490400	0.716972	1.045256
H247	H	1.020776	0.237466	0.786341
H248	H	1.354110	0.570799	1.119674
H249	H	1.687443	0.904133	1.453007
O250	O	0.935093	-0.199748	-0.163363
O251	O	1.268427	0.133586	0.169970
O252	O	1.601760	0.466919	0.503304
H253	H	0.988121	-0.236054	-0.167111
H254	H	1.321454	0.097279	0.166222
H255	H	1.654787	0.430613	0.499555
O256	O	0.342724	0.037184	0.000122
O257	O	0.676057	0.370518	0.333456
O258	O	1.009391	0.703851	0.666789
H259	H	0.307208	-0.009693	0.000124
H260	H	0.640541	0.323641	0.333458
H261	H	0.973875	0.656974	0.666791
O262	O	0.921234	-0.212917	0.163559
O263	O	1.254568	0.120417	0.496893
O264	O	1.587901	0.453750	0.830226
H265	H	0.920870	-0.269195	0.150346
H266	H	1.254203	0.064139	0.483679
H267	H	1.587536	0.397472	0.817012
O268	O	0.927705	-0.644189	-0.163389
O269	O	1.261038	-0.310855	0.169944
O270	O	1.594372	0.022478	0.503278
H271	H	0.930648	-0.604395	-0.218069
H272	H	1.263982	-0.271061	0.115264
H273	H	1.597315	0.062272	0.448597
O274	O	0.508734	0.257211	0.000065
O275	O	0.842067	0.590544	0.333398
O276	O	1.175401	0.923878	0.666731
H277	H	0.544248	0.304090	0.000045
H278	H	0.877581	0.637424	0.333378
H279	H	1.210914	0.970757	0.666712
O280	O	1.015689	0.232666	0.201796
O281	O	1.349022	0.565999	0.535130
O282	O	1.682355	0.899332	0.868463
H283	H	1.077661	0.220302	0.219215
H284	H	1.410995	0.553635	0.552549
H285	H	1.744328	0.886968	0.885882
O286	O	1.007715	0.225076	0.390549
O287	O	1.341049	0.558409	0.723882
O288	O	1.674382	0.891742	1.057216
H289	H	1.042642	0.258267	0.343713
H290	H	1.375976	0.591600	0.677047
H291	H	1.709309	0.924934	1.010380
O292	O	0.818669	0.045516	0.201834
O293	O	1.152002	0.378849	0.535168
O294	O	1.485335	0.712182	0.868501
H295	H	0.783726	0.012335	0.248668
H296	H	1.117060	0.345669	0.582001
H297	H	1.450393	0.679002	0.915335
