data_functionalizedCrystal
_audit_creation_method	'MofGen! by Chris Wilmer'
_symmetry_space_group_name_H-M	'P1'
_symmetry_Int_Tables_number	1
_symmetry_cell_setting	triclinic
loop_
_symmetry_equiv_pos_as_xyz
  x,y,z
_cell_length_a	6.817900
_cell_length_b	10.773894
_cell_length_c	9.514063
_cell_angle_alpha	94.042441
_cell_angle_beta	61.156686
_cell_angle_gamma	83.354078
loop_
_atom_site_label
_atom_site_type_symbol
_atom_site_fract_x
_atom_site_fract_y
_atom_site_fract_z
V1	V	4.031209	-0.389903	-0.216290
O2	O	3.931676	-0.381467	0.016466
O3	O	4.066332	-0.388211	-0.434706
O4	O	3.946591	-0.559508	-0.210298
O5	O	4.052246	-0.208984	-0.209496
V6	V	4.508708	-0.368145	-0.188764
O7	O	4.305683	-0.437630	-0.276669
O8	O	4.684431	-0.320418	-0.128385
O9	O	4.250378	-0.369837	0.029652
O10	O	4.725637	-0.376581	-0.421520
O11	O	4.605067	-0.549064	-0.195558
O12	O	4.370119	-0.198540	-0.194756
C13	C	3.932824	-0.382312	-0.488035
C14	C	4.042586	-0.382059	-0.666576
C15	C	3.780080	-0.600817	-0.201778
C16	C	3.792732	-0.739476	-0.198324
C17	C	3.973095	-0.807365	-0.204310
C18	C	3.986175	-0.950677	-0.200740
C19	C	4.047232	-0.375733	0.082973
C20	C	3.916707	-0.375994	0.261512
C21	C	4.199975	-0.157225	-0.203281
C22	C	4.166559	-0.018564	-0.206727
H23	H	3.724950	-0.370992	-0.663456
H24	H	4.311311	-0.970595	-0.214500
C25	C	4.298210	-0.388461	-0.766465
C26	C	4.360193	-0.284373	-0.710657
C27	C	4.595657	-0.290219	-0.802657
H28	H	4.373531	-0.464140	-0.756000
H29	H	4.340563	-0.387331	-0.877201
H30	H	4.317863	-0.285515	-0.599947
H31	H	4.284932	-0.208679	-0.721125
H32	H	4.638010	-0.289089	-0.913394
H33	H	4.670957	-0.365902	-0.792186
H34	H	4.637741	-0.219592	-0.764815
C35	C	4.166235	-0.743381	-0.214998
C36	C	4.257303	-0.686400	-0.355884
C37	C	4.435250	-0.627463	-0.365795
H38	H	4.110231	-0.680918	-0.122797
H39	H	4.281203	-0.804530	-0.218382
H40	H	4.142356	-0.625256	-0.352486
H41	H	4.313353	-0.748835	-0.448109
H42	H	4.550218	-0.688612	-0.369179
H43	H	4.379227	-0.565006	-0.273588
H44	H	4.497075	-0.588804	-0.461393
C45	C	3.793168	-1.014762	-0.190132
C46	C	3.702171	-1.071793	-0.049284
C47	C	3.524396	-1.130854	-0.039468
H48	H	3.678103	-0.953713	-0.186746
H49	H	3.849386	-1.077211	-0.282400
H50	H	3.645949	-1.009350	0.042961
H51	H	3.817177	-1.132860	-0.052638
H52	H	3.580614	-1.193304	-0.131736
H53	H	3.409347	-1.069797	-0.036087
H54	H	3.462646	-1.169566	0.056089
H55	H	3.647993	-0.787451	-0.190547
