data_functionalizedCrystal
_audit_creation_method	'MofGen! by Chris Wilmer'
_symmetry_space_group_name_H-M	'P1'
_symmetry_Int_Tables_number	1
_symmetry_cell_setting	triclinic
loop_
_symmetry_equiv_pos_as_xyz
  x,y,z
_cell_length_a	23.532407
_cell_length_b	23.532407
_cell_length_c	10.868271
_cell_angle_alpha	89.990218
_cell_angle_beta	90.001021
_cell_angle_gamma	82.848678
loop_
_atom_site_label
_atom_site_type_symbol
_atom_site_fract_x
_atom_site_fract_y
_atom_site_fract_z
O1	O	0.755259	0.069135	-0.102181
O2	O	0.589396	0.079138	-0.102219
O3	O	0.677329	-0.008795	-0.102176
O4	O	0.667326	0.157068	-0.102224
O5	O	0.677322	-0.008798	0.102468
O6	O	0.589389	0.079135	0.102426
O7	O	0.755252	0.069132	0.102464
Zn8	Zn	0.672319	0.074133	0.134936
Zn9	Zn	0.672329	0.074137	-0.134692
O10	O	0.667319	0.157065	0.102421
C11	C	0.568176	0.078882	0.000099
C12	C	0.504959	0.078116	0.000085
C13	C	0.105856	0.125350	0.000128
C14	C	0.046456	0.124638	0.000135
O15	O	0.009711	0.168424	0.000168
N16	N	0.023830	0.072362	0.000148
C17	C	0.060607	0.020794	0.000166
O18	O	0.035908	-0.023737	0.000179
C19	C	0.120006	0.021506	0.000167
C20	C	0.142629	0.073785	0.000142
C21	C	0.128479	0.177625	0.000104
C22	C	0.187876	0.178336	0.000094
C23	C	0.224649	0.126772	0.000108
C24	C	0.202025	0.074496	0.000132
C25	C	0.156783	-0.030062	0.000193
C26	C	0.216185	-0.029345	0.000195
C27	C	0.238808	0.022934	0.000170
C28	C	0.298194	0.023643	0.000136
N29	N	0.320820	0.075920	0.000123
C30	C	0.284048	0.127484	0.000109
C31	C	-0.064135	0.019302	0.000166
C32	C	-0.123533	0.018589	0.000156
C33	C	-0.137680	0.122434	0.000128
C34	C	-0.078281	0.123146	0.000129
C35	C	-0.041509	0.071578	0.000153
C36	C	0.408784	0.128974	0.000087
C37	C	0.468186	0.129680	0.000071
C38	C	0.482329	0.025836	0.000106
C39	C	0.422932	0.025129	0.000115
C40	C	0.386160	0.076702	0.000109
O41	O	0.334974	-0.020119	0.000108
O42	O	0.308755	0.172007	0.000112
C43	C	0.677071	-0.030013	0.000149
C44	C	0.676305	-0.093230	0.000158
C45	C	0.723539	-0.492333	0.000102
C46	C	0.722827	-0.551733	0.000092
O47	O	0.766613	-0.588478	0.000057
N48	N	0.670551	-0.574359	0.000081
C49	C	0.618983	-0.537582	0.000067
O50	O	0.574452	-0.562281	0.000056
C51	C	0.619695	-0.478182	0.000068
C52	C	0.671974	-0.455560	0.000091
C53	C	0.775814	-0.469710	0.000124
C54	C	0.776525	-0.410313	0.000136
C55	C	0.724961	-0.373540	0.000125
C56	C	0.672685	-0.396164	0.000103
C57	C	0.568127	-0.441406	0.000045
C58	C	0.568844	-0.382004	0.000045
C59	C	0.621123	-0.359381	0.000068
C60	C	0.621832	-0.299995	0.000105
N61	N	0.674109	-0.277368	0.000116
C62	C	0.725673	-0.314141	0.000126
C63	C	0.617491	-0.662324	0.000063
C64	C	0.616778	-0.721722	0.000072
C65	C	0.720623	-0.735869	0.000094
C66	C	0.721335	-0.676470	0.000095
C67	C	0.669767	-0.639698	0.000075
C68	C	0.727163	-0.189405	0.000152
C69	C	0.727869	-0.130003	0.000169
C70	C	0.624025	-0.115860	0.000139
C71	C	0.623318	-0.175257	0.000129
C72	C	0.674891	-0.212029	0.000131
O73	O	0.578070	-0.263215	0.000135
O74	O	0.770196	-0.289433	0.000121
C75	C	0.776472	0.069388	0.000143
C76	C	0.839689	0.070154	0.000148
C77	C	0.667577	0.178283	0.000093
C78	C	0.668343	0.241500	0.000075
N79	N	0.672317	0.074129	0.318950
N80	N	0.672336	0.074136	-0.318706
C81	C	0.672326	0.074136	0.569956
C82	C	0.672319	0.074134	0.430279
H83	H	0.378851	0.170970	0.000086
H84	H	0.525555	-0.459814	0.000018
H85	H	-0.034198	-0.022693	0.000175
C86	C	0.131911	-0.087573	0.000226
C87	C	0.145928	-0.130303	0.106516
C88	C	0.121059	-0.187819	0.106550
C89	C	0.082173	-0.202604	0.000294
C90	C	0.068154	-0.159872	-0.106003
C91	C	0.093023	-0.102357	-0.106037
H92	H	0.174716	-0.119360	0.185180
H93	H	0.131438	-0.219451	0.185239
H94	H	0.063764	-0.245180	0.000319
H95	H	0.039367	-0.170816	-0.184667
H96	H	0.082645	-0.070724	-0.184726
H97	H	0.575496	-0.632386	0.000057
C98	C	0.834033	-0.385432	0.000143
C99	C	0.848806	-0.346536	-0.106123
C100	C	0.906317	-0.321658	-0.106122
C101	C	0.949055	-0.335676	0.000145
C102	C	0.934283	-0.374574	0.106418
C103	C	0.876772	-0.399452	0.106417
H104	H	0.817168	-0.336157	-0.184794
H105	H	0.917252	-0.292863	-0.184793
H106	H	0.991627	-0.317260	0.000145
H107	H	0.965921	-0.384953	0.185090
H108	H	0.865837	-0.428247	0.185089
H109	H	0.574207	-0.740136	0.000074
C110	C	0.512117	-0.341554	0.000026
C111	C	0.469190	-0.343877	-0.106256
C112	C	0.412464	-0.303428	-0.106272
C113	C	0.398665	-0.260658	-0.000006
C114	C	0.441592	-0.258334	0.106284
C115	C	0.498318	-0.298782	0.106300
H116	H	0.479405	-0.375539	-0.184928
H117	H	0.380687	-0.305149	-0.184955
H118	H	0.356673	-0.230715	-0.000017
H119	H	0.431377	-0.226671	0.184956
H120	H	0.530095	-0.297061	0.184984
C121	C	0.212751	0.235847	0.000098
C122	C	0.251634	0.250615	0.106374
C123	C	0.276503	0.308130	0.106392
C124	C	0.262489	0.350878	0.000133
C125	C	0.223604	0.336112	-0.106151
C126	C	0.198735	0.278596	-0.106169
H127	H	0.262010	0.218969	0.185040
H128	H	0.305289	0.319061	0.185071
H129	H	0.280899	0.393454	0.000146
H130	H	0.213229	0.367757	-0.184818
H131	H	0.169950	0.267666	-0.184848
C132	C	0.832541	-0.510153	0.000142
C133	C	0.875463	-0.507819	0.106429
C134	C	0.932195	-0.548258	0.106458
C135	C	0.946005	-0.591031	0.000201
C136	C	0.903082	-0.593368	-0.106094
C137	C	0.846351	-0.552929	-0.106123
H138	H	0.865241	-0.476154	0.185094
H139	H	0.963969	-0.546528	0.185145
H140	H	0.988001	-0.620967	0.000223
H141	H	0.913305	-0.625033	-0.184759
H142	H	0.814576	-0.554658	-0.184810
C143	C	0.398041	-0.032377	0.000139
C144	C	0.412053	-0.075111	0.106424
C145	C	0.387165	-0.132617	0.106465
C146	C	0.348266	-0.147388	0.000222
C147	C	0.334252	-0.104653	-0.106071
C148	C	0.359139	-0.047147	-0.106112
H149	H	0.440850	-0.064177	0.185078
H150	H	0.397540	-0.164252	0.185150
H151	H	0.329843	-0.189957	0.000252
H152	H	0.305455	-0.115586	-0.184725
H153	H	0.348765	-0.015512	-0.184797
H154	H	0.580748	-0.193677	0.000144
H155	H	0.486602	0.172255	0.000050
H156	H	0.098544	0.219617	0.000097
C157	C	-0.053399	0.180654	0.000112
C158	C	-0.067408	0.223388	0.106366
C159	C	-0.042529	0.280898	0.106352
C160	C	-0.003642	0.295675	0.000085
C161	C	0.010369	0.252940	-0.106177
C162	C	-0.014509	0.195429	-0.106164
H163	H	-0.096197	0.212450	0.185038
H164	H	-0.052902	0.312533	0.185015
H165	H	0.014775	0.338247	0.000074
H166	H	0.039158	0.263877	-0.184850
H167	H	-0.004137	0.163794	-0.184826
H168	H	-0.167632	0.164421	0.000122
H169	H	-0.141947	-0.023982	0.000157
H170	H	0.246123	-0.071339	0.000216
H171	H	0.582043	-0.085909	0.000135
H172	H	0.770443	-0.111587	0.000191
H173	H	0.769159	-0.219337	0.000149
H174	H	0.512280	-0.016146	0.000113
H175	H	0.763906	-0.658056	0.000113
H176	H	0.762610	-0.765821	0.000098
