data_functionalizedCrystal
_audit_creation_method	'MofGen! by Chris Wilmer'
_symmetry_space_group_name_H-M	'P1'
_symmetry_Int_Tables_number	1
_symmetry_cell_setting	triclinic
loop_
_symmetry_equiv_pos_as_xyz
  x,y,z
_cell_length_a	21.395362
_cell_length_b	13.897448
_cell_length_c	13.897449
_cell_angle_alpha	90.009266
_cell_angle_beta	90.024426
_cell_angle_gamma	90.033571
loop_
_atom_site_label
_atom_site_type_symbol
_atom_site_fract_x
_atom_site_fract_y
_atom_site_fract_z
Zn1	Zn	0.957795	-0.383779	0.545910
Zn2	Zn	1.457795	0.116221	1.045910
Zn3	Zn	0.957757	-0.545040	0.384611
Zn4	Zn	1.457757	-0.045040	0.884611
Zn5	Zn	0.853046	-0.383805	0.384570
Zn6	Zn	1.353046	0.116195	0.884570
Zn7	Zn	0.853003	-0.545078	0.545806
Zn8	Zn	1.353003	-0.045078	1.045806
O9	O	0.905400	-0.464426	0.465224
O10	O	1.405400	0.035574	0.965224
O11	O	1.045468	-0.405143	0.524574
O12	O	1.545468	0.094857	1.024574
O13	O	0.943869	-0.523647	0.249624
O14	O	1.443869	-0.023647	0.749624
O15	O	0.866975	-0.248820	0.405999
O16	O	1.366975	0.251180	0.905999
O17	O	1.045440	-0.523621	0.406068
O18	O	1.545440	-0.023621	0.906068
O19	O	0.943934	-0.248800	0.524534
O20	O	1.443934	0.251200	1.024534
O21	O	0.866938	-0.405189	0.249594
O22	O	1.366938	0.094811	0.749594
O23	O	0.765362	-0.405226	0.405898
O24	O	1.265362	0.094774	0.905898
O25	O	0.866902	-0.523686	0.680801
O26	O	1.366902	-0.023686	1.180801
O27	O	0.765331	-0.523712	0.524357
O28	O	1.265331	-0.023712	1.024357
O29	O	0.943892	-0.405180	0.680878
O30	O	1.443892	0.094820	1.180878
O31	O	0.943828	-0.680027	0.405968
O32	O	1.443828	-0.180027	0.905968
O33	O	0.866865	-0.680055	0.524397
O34	O	1.366865	-0.180055	1.024397
C35	C	0.742613	-0.464477	0.465112
C36	C	1.242613	0.035523	0.965112
C37	C	0.672972	-0.464522	0.465087
C38	C	1.172972	0.035478	0.965087
C39	C	0.640259	-0.526299	0.526677
C40	C	1.140259	-0.026299	1.026677
C41	C	0.574823	-0.526275	0.526720
C42	C	1.074823	-0.026275	1.026720
C43	C	0.542103	-0.464484	0.465156
C44	C	1.042103	0.035516	0.965156
C45	C	0.574824	-0.402695	0.403563
C46	C	1.074824	0.097305	0.903563
C47	C	0.640258	-0.402714	0.403528
C48	C	1.140258	0.097286	0.903528
C49	C	0.438397	-0.456704	0.378319
C50	C	0.938397	0.043296	0.878319
C51	C	0.372964	-0.456692	0.378352
C52	C	0.872964	0.043308	0.878352
C53	C	0.340283	-0.464422	0.465263
C54	C	0.840283	0.035578	0.965263
C55	C	0.373042	-0.472183	0.552143
C56	C	0.873042	0.027817	1.052143
C57	C	0.438477	-0.472201	0.552109
C58	C	0.938477	0.027799	1.052109
C59	C	0.471151	-0.464457	0.465187
C60	C	0.971151	0.035543	0.965187
C61	C	0.236617	-0.526177	0.526904
C62	C	0.736617	-0.026177	1.026904
C63	C	0.171180	-0.526146	0.526948
C64	C	0.671180	-0.026146	1.026948
C65	C	0.171183	-0.402571	0.403783
C66	C	0.671183	0.097429	0.903783
C67	C	0.236618	-0.402596	0.403747
C68	C	0.736618	0.097404	0.903747
C69	C	0.269331	-0.464404	0.465306
C70	C	0.769331	0.035596	0.965306
C71	C	0.905355	-0.715040	0.465196
C72	C	1.405355	-0.215040	0.965196
C73	C	0.905393	-0.822254	0.465217
C74	C	1.405393	-0.322254	0.965217
C75	C	0.905458	-1.018549	0.465277
C76	C	1.405458	-0.518549	0.965277
C77	C	0.905420	-0.909316	0.465246
C78	C	1.405420	-0.409316	0.965246
C79	C	1.068824	-0.464375	0.465337
C80	C	1.568824	0.035625	0.965337
C81	C	1.138465	-0.464353	0.465385
C82	C	1.638465	0.035647	0.965385
C83	C	0.905397	-0.464434	0.716817
C84	C	1.405397	0.035566	1.216817
C85	C	0.905395	-0.464438	0.824031
C86	C	1.405395	0.035562	1.324031
C87	C	0.905463	-0.212833	0.465273
C88	C	1.405463	0.287167	0.965273
C89	C	0.905490	-0.105619	0.465294
C90	C	1.405490	0.394381	0.965294
C91	C	0.905394	-0.464441	0.911101
C92	C	1.405394	0.035559	1.411101
C93	C	0.905393	-0.464437	1.020333
C94	C	1.405393	0.035563	1.520333
C95	C	0.905398	-0.464437	1.214610
C96	C	1.405398	0.035563	1.714610
C97	C	0.905396	-0.464428	1.107396
C98	C	1.405396	0.035572	1.607396
H99	H	0.465147	-0.478518	0.622851
H100	H	0.965147	0.021482	1.122851
H101	H	0.465000	-0.450406	0.307541
H102	H	0.965000	0.049594	0.807541
H103	H	0.666893	-0.352404	0.353375
H104	H	1.166893	0.147596	0.853375
Cl105	Cl	0.331787	-0.446934	0.269132
Cl106	Cl	0.831787	0.053066	0.769132
H107	H	0.346435	-0.478475	0.622915
H108	H	0.846435	0.021525	1.122915
H109	H	0.548179	-0.352383	0.353439
H110	H	1.048179	0.147617	0.853439
H111	H	0.144547	-0.576451	0.577108
H112	H	0.644547	-0.076451	1.077108
H113	H	0.666890	-0.576627	0.576804
H114	H	1.166890	-0.076627	1.076804
H115	H	0.263254	-0.576499	0.577034
H116	H	0.763254	-0.076499	1.077034
Cl117	Cl	0.130055	-0.324884	0.326393
Cl118	Cl	0.630055	0.175116	0.826393
Cl119	Cl	0.533689	-0.603945	0.604152
Cl120	Cl	1.033689	-0.103945	1.104152
Cl121	Cl	0.277745	-0.324931	0.326313
Cl122	Cl	0.777745	0.175069	0.826313
