data_functionalizedCrystal
_audit_creation_method	'MofGen! by Chris Wilmer'
_symmetry_space_group_name_H-M	'P1'
_symmetry_Int_Tables_number	1
_symmetry_cell_setting	triclinic
loop_
_symmetry_equiv_pos_as_xyz
  x,y,z
_cell_length_a	16.992694
_cell_length_b	19.188930
_cell_length_c	15.455313
_cell_angle_alpha	92.650876
_cell_angle_beta	87.142206
_cell_angle_gamma	86.906503
loop_
_atom_site_label
_atom_site_type_symbol
_atom_site_fract_x
_atom_site_fract_y
_atom_site_fract_z
O1	O	1.043326	0.145160	-0.072038
O2	O	0.815047	0.143535	-0.072064
O3	O	0.935773	0.043078	-0.072033
O4	O	0.922600	0.245617	-0.072069
O5	O	0.928870	0.048798	0.072227
O6	O	0.808144	0.149255	0.072197
O7	O	1.036422	0.150879	0.072222
Cu8	Cu	0.921653	0.150589	0.085382
Cu9	Cu	0.929817	0.143825	-0.085223
O10	O	0.915696	0.251336	0.072192
C11	C	0.782390	0.144306	0.000064
C12	C	0.695368	0.138072	0.000055
C13	C	0.644922	0.198212	0.000045
C14	C	0.563155	0.192351	0.000058
C15	C	0.531836	0.126351	0.000075
C16	C	0.582288	0.066208	0.000087
C17	C	0.664053	0.072069	0.000080
C18	C	0.288320	0.102059	0.000102
C19	C	0.206548	0.096203	0.000106
C20	C	0.187420	0.222347	0.000079
C21	C	0.269188	0.228202	0.000067
C22	C	0.319633	0.168059	0.000084
N23	N	0.448257	0.120360	0.000085
N24	N	0.403210	0.174051	0.000079
C25	C	0.931895	0.019902	0.000099
C26	C	0.930614	-0.057677	0.000107
C27	C	1.001452	-0.098455	0.000119
C28	C	1.000250	-0.171350	0.000105
C29	C	0.928204	-0.203463	0.000096
C30	C	0.857356	-0.162676	0.000079
C31	C	0.858561	-0.089783	0.000085
N32	N	0.870784	-0.312744	0.049185
N33	N	0.869644	-0.381990	0.049181
C34	C	0.924569	-0.423085	0.000078
N35	N	0.980688	-0.392319	-0.049011
N36	N	0.981830	-0.323067	-0.049004
C37	C	0.926889	-0.282503	0.000090
C38	C	0.994108	-0.542904	0.000074
C39	C	0.992903	-0.615801	0.000054
C40	C	0.850007	-0.607124	0.000038
C41	C	0.851215	-0.534230	0.000048
C42	C	0.923267	-0.502124	0.000070
C43	C	1.069079	0.150109	0.000093
C44	C	1.156102	0.156342	0.000096
C45	C	0.919575	0.274513	0.000057
C46	C	0.920856	0.352092	0.000044
N47	N	0.915916	0.155346	0.205376
N48	N	0.935560	0.139063	-0.205217
C49	C	0.967222	0.112686	0.250783
C50	C	0.962891	0.116291	0.341590
C51	C	0.907257	0.162559	0.386988
C52	C	0.855945	0.205221	0.341574
C53	C	0.860273	0.201613	0.250769
C54	C	0.888576	0.178116	0.658564
C55	C	0.884253	0.181723	0.749376
C56	C	0.991199	0.092792	0.749385
C57	C	0.995525	0.089190	0.658578
C58	C	0.944211	0.131849	0.613173
N59	N	0.902830	0.166246	0.479807
N60	N	0.948634	0.128158	0.520355
H61	H	0.329383	0.053086	0.000117
N62	N	0.550312	-0.001215	0.000114
N63	N	0.562949	-0.040378	0.060932
H64	H	0.540368	-0.087998	0.060950
N65	N	0.799122	0.252491	0.387942
N66	N	0.800453	0.316671	0.377778
H67	H	0.760321	0.350059	0.410522
H68	H	1.004668	0.081553	0.378560
N69	N	0.715574	0.010631	0.000100
N70	N	0.687603	-0.048294	0.000119
H71	H	0.723988	-0.091687	0.000138
N72	N	0.783755	-0.195463	0.000086
N73	N	0.720509	-0.159041	0.000083
H74	H	0.668525	-0.182195	0.000087
H75	H	0.294682	0.281946	0.000043
H76	H	0.670415	0.251956	0.000031
N77	N	1.052493	0.042051	0.612221
N78	N	1.098387	0.004048	0.652775
H79	H	1.138673	-0.029196	0.620036
N80	N	0.836178	0.221709	0.612196
N81	N	0.863316	0.264431	0.561515
H82	H	0.826309	0.295224	0.528765
H83	H	0.818493	0.236350	0.213800
H84	H	1.052778	-0.516763	0.000088
N85	N	1.065275	-0.657447	0.000055
N86	N	1.129597	-0.628769	0.000071
H87	H	1.180712	-0.658182	0.000071
N88	N	1.043606	0.049224	0.795779
N89	N	1.039738	0.052450	0.876855
H90	H	1.076751	0.021677	0.909622
N91	N	1.075056	-0.065673	0.000139
N92	N	1.138301	-0.102097	0.000147
H93	H	1.190286	-0.078943	0.000160
H94	H	0.522084	0.241323	0.000049
H95	H	0.800874	-0.056581	0.000075
N96	N	0.135890	0.283779	0.000089
N97	N	0.135718	0.329071	0.060895
H98	H	0.099324	0.372460	0.060907
H99	H	0.181052	0.042455	0.000119
N100	N	1.072620	-0.213004	0.000116
N101	N	1.136944	-0.184330	0.000134
H102	H	1.188056	-0.213746	0.000143
N103	N	0.827411	0.228987	0.795737
N104	N	0.781595	0.267067	0.755188
H105	H	0.741451	0.300444	0.787930
H106	H	0.791346	-0.633270	0.000026
H107	H	0.793530	-0.501027	0.000043
N108	N	1.024042	0.065422	0.204400
N109	N	1.027900	0.062203	0.123325
H110	H	1.068028	0.028819	0.090568
