data_functionalizedCrystal
_audit_creation_method	'MofGen! by Chris Wilmer'
_symmetry_space_group_name_H-M	'P1'
_symmetry_Int_Tables_number	1
_symmetry_cell_setting	triclinic
loop_
_symmetry_equiv_pos_as_xyz
  x,y,z
_cell_length_a	23.532407
_cell_length_b	19.188905
_cell_length_c	22.010155
_cell_angle_alpha	89.976716
_cell_angle_beta	89.991245
_cell_angle_gamma	82.991616
loop_
_atom_site_label
_atom_site_type_symbol
_atom_site_fract_x
_atom_site_fract_y
_atom_site_fract_z
O1	O	0.071031	0.925941	-0.050631
O2	O	0.571031	1.425941	0.449369
O3	O	0.080618	0.722597	-0.050611
O4	O	0.580618	1.222597	0.449389
O5	O	-0.007095	0.830401	-0.050611
O6	O	0.492905	1.330401	0.449389
O7	O	0.158744	0.818137	-0.050632
O8	O	0.658744	1.318137	0.449368
O9	O	-0.007094	0.830368	0.050439
O10	O	0.492906	1.330368	0.550439
O11	O	0.080619	0.722564	0.050439
O12	O	0.580619	1.222564	0.550439
O13	O	0.071032	0.925908	0.050419
O14	O	0.571032	1.425908	0.550419
Cu15	Cu	0.075825	0.824233	0.059656
Cu16	Cu	0.575825	1.324233	0.559656
Cu17	Cu	0.075825	0.824272	-0.059848
Cu18	Cu	0.575825	1.324272	0.440152
O19	O	0.158744	0.818104	0.050418
O20	O	0.658744	1.318104	0.550418
C21	C	0.080310	0.696570	-0.000084
C22	C	0.580310	1.196570	0.499916
C23	C	0.079385	0.619067	-0.000075
C24	C	0.579385	1.119067	0.499925
C25	C	-0.028311	0.830072	-0.000084
C26	C	0.471689	1.330072	0.499916
C27	C	-0.091530	0.829133	-0.000079
C28	C	0.408470	1.329133	0.499921
C29	C	0.078941	0.582695	-0.055160
C30	C	0.578941	1.082695	0.444840
C31	C	0.078065	0.509874	-0.055167
C32	C	0.578065	1.009874	0.444833
C33	C	0.077623	0.473430	-0.000087
C34	C	0.577623	0.973430	0.499913
C35	C	0.078071	0.509811	0.055004
C36	C	0.578071	1.009811	0.555004
C37	C	0.078952	0.582629	0.055010
C38	C	0.578952	1.082629	0.555010
N39	N	0.043831	0.364505	0.040908
N40	N	0.543831	0.864505	0.540908
N41	N	0.042993	0.295330	0.040898
N42	N	0.542993	0.795330	0.540898
C43	C	0.074970	0.254032	-0.000102
C44	C	0.574970	0.754032	0.499898
N45	N	0.107810	0.284523	-0.041101
N46	N	0.607810	0.784523	0.458899
N47	N	0.108646	0.353704	-0.041093
N48	N	0.608646	0.853704	0.458907
C49	C	0.076668	0.394471	-0.000087
C50	C	0.576668	0.894471	0.499913
C51	C	0.073577	0.138699	-0.055198
C52	C	0.573577	0.638699	0.444802
C53	C	0.072706	0.065877	-0.055203
C54	C	0.572706	0.565877	0.444797
C55	C	0.072706	0.065815	0.054970
C56	C	0.572706	0.565815	0.554970
C57	C	0.073583	0.138636	0.054974
C58	C	0.573583	0.638636	0.554974
C59	C	0.074016	0.175074	-0.000112
C60	C	0.574016	0.675074	0.499888
C61	C	-0.490514	0.887040	-0.000118
C62	C	0.009486	1.387040	0.499882
C63	C	-0.549916	0.886168	-0.000123
C64	C	-0.049916	1.386168	0.499877
O65	O	-0.586551	0.939848	-0.000151
O66	O	-0.086551	1.439848	0.499849
N67	N	-0.572674	0.822078	-0.000116
N68	N	-0.072674	1.322078	0.499884
C69	C	-0.536026	0.758857	-0.000111
C70	C	-0.036026	1.258857	0.499889
O71	O	-0.560837	0.704264	-0.000106
O72	O	-0.060837	1.204264	0.499894
C73	C	-0.476625	0.759730	-0.000111
C74	C	0.023375	1.259730	0.499889
C75	C	-0.453871	0.823824	-0.000111
C76	C	0.046129	1.323824	0.499889
C77	C	-0.467759	0.951129	-0.000120
C78	C	0.032241	1.451129	0.499880
C79	C	-0.408362	0.952000	-0.000114
C80	C	0.091638	1.452000	0.499886
C81	C	-0.371718	0.888784	-0.000107
C82	C	0.128282	1.388784	0.499893
C83	C	-0.394473	0.824696	-0.000106
C84	C	0.105527	1.324696	0.499894
C85	C	-0.439978	0.696509	-0.000110
C86	C	0.060022	1.196509	0.499890
C87	C	-0.380574	0.697388	-0.000110
C88	C	0.119426	1.197388	0.499890
C89	C	-0.357820	0.761482	-0.000111
C90	C	0.142180	1.261482	0.499889
C91	C	-0.298432	0.762351	-0.000093
C92	C	0.201568	1.262351	0.499907
N93	N	-0.275674	0.826440	-0.000100
N94	N	0.224326	1.326440	0.499900
C95	C	-0.312317	0.889657	-0.000107
C96	C	0.187683	1.389657	0.499893
C97	C	-0.660772	0.757029	-0.000112
C98	C	-0.160772	1.257029	0.499888
C99	C	-0.720172	0.756155	-0.000108
C100	C	-0.220172	1.256155	0.499892
C101	C	-0.734058	0.883466	-0.000121
C102	C	-0.234058	1.383466	0.499879
C103	C	-0.674657	0.884339	-0.000121
C104	C	-0.174657	1.384339	0.499879
C105	C	-0.638014	0.821118	-0.000119
C106	C	-0.138014	1.321118	0.499881
C107	C	-0.187577	0.891483	-0.000094
C108	C	0.312423	1.391483	0.499906
C109	C	-0.128173	0.892350	-0.000086
C110	C	0.371827	1.392350	0.499914
C111	C	-0.114292	0.765039	-0.000077
C112	C	0.385708	1.265039	0.499923
C113	C	-0.173691	0.764172	-0.000081
C114	C	0.326309	1.264172	0.499919
C115	C	-0.210332	0.827400	-0.000093
C116	C	0.289668	1.327400	0.499907
O117	O	-0.261762	0.708699	-0.000068
O118	O	0.238238	1.208699	0.499932
O119	O	-0.287498	0.944241	-0.000120
O120	O	0.212502	1.444241	0.499880
C121	C	0.179961	0.818433	-0.000110
C122	C	0.679961	1.318433	0.499890
C123	C	0.243180	0.819372	-0.000118
C124	C	0.743180	1.319372	0.499882
C125	C	0.071340	0.951935	-0.000110
C126	C	0.571340	1.451935	0.499890
C127	C	0.072265	1.029437	-0.000122
C128	C	0.572265	1.529437	0.499878
N129	N	0.075826	0.824210	0.143708
N130	N	0.575826	1.324210	0.643708
C131	C	0.110277	0.866372	0.563479
C132	C	0.610277	1.366372	1.063479
C133	C	0.110276	0.866380	0.627086
C134	C	0.610276	1.366380	1.127086
O135	O	0.139560	0.902206	0.659970
O136	O	0.639560	1.402206	1.159970
N137	N	0.075824	0.824278	0.658915
N138	N	0.575824	1.324278	1.158915
C139	C	0.041367	0.782172	0.627133
C140	C	0.541367	1.282172	1.127133
O141	O	0.012062	0.746362	0.660047
O142	O	0.512062	1.246362	1.160047
C143	C	0.041365	0.782168	0.563527
C144	C	0.541365	1.282168	1.063527
C145	C	0.075823	0.824267	0.531701
C146	C	0.575823	1.324267	1.031701
C147	C	0.144731	0.908469	0.531653
C148	C	0.644731	1.408469	1.031653
C149	C	0.144733	0.908460	0.468050
C150	C	0.644733	1.408460	0.968050
C151	C	0.110280	0.866355	0.436272
C152	C	0.610280	1.366355	0.936272
C153	C	0.075825	0.824259	0.468098
C154	C	0.575825	1.324259	0.968098
C155	C	0.006905	0.740066	0.531746
C156	C	0.506905	1.240066	1.031746
C157	C	0.006906	0.740067	0.468135
C158	C	0.506906	1.240067	0.968135
C159	C	0.041364	0.782166	0.436310
C160	C	0.541364	1.282166	0.936310
C161	C	0.041373	0.782145	0.372717
C162	C	0.541373	1.282145	0.872717
N163	N	0.075824	0.824247	0.340888
N164	N	0.575824	1.324247	0.840888
C165	C	0.110278	0.866352	0.372666
C166	C	0.610278	1.366352	0.872666
C167	C	0.041372	0.782183	0.760711
C168	C	0.541372	1.282183	1.260711
C169	C	0.041377	0.782182	0.824316
C170	C	0.541377	1.282182	1.324316
C171	C	0.110285	0.866391	0.824265
C172	C	0.610285	1.366391	1.324265
C173	C	0.110283	0.866388	0.760658
C174	C	0.610283	1.366388	1.260658
C175	C	0.075824	0.824284	0.728882
C176	C	0.575824	1.324284	1.228882
C177	C	0.110279	0.866330	0.239094
C178	C	0.610279	1.366330	0.739094
C179	C	0.110279	0.866315	0.175486
C180	C	0.610279	1.366315	0.675486
C181	C	0.041369	0.782109	0.175543
C182	C	0.541369	1.282109	0.675543
C183	C	0.041371	0.782120	0.239146
C184	C	0.541371	1.282120	0.739146
C185	C	0.075827	0.824236	0.270920
C186	C	0.575827	1.324236	0.770920
O187	O	0.012101	0.746339	0.339793
O188	O	0.512101	1.246339	0.839793
O189	O	0.139572	0.902162	0.339744
O190	O	0.639572	1.402162	0.839744
N191	N	0.075828	0.824290	0.856099
N192	N	0.575828	1.324290	1.356099
H193	H	0.079293	0.612359	-0.100015
H194	H	0.579293	1.112359	0.399985
N195	N	0.179925	0.951475	0.564118
N196	N	0.679925	1.451475	1.064118
N197	N	0.157602	0.997796	0.599601
N198	N	0.657602	1.497796	1.099601
H199	H	0.182463	1.028167	0.622528
H200	H	0.682463	1.528167	1.122528
N201	N	-0.463212	0.631039	-0.000127
N202	N	0.036788	1.131039	0.499873
N203	N	-0.494796	0.616365	-0.042729
N204	N	0.005204	1.116365	0.457271
H205	H	-0.511205	0.570123	-0.042744
H206	H	-0.011205	1.070123	0.457256
H207	H	-0.350741	0.645904	-0.000110
H208	H	0.149259	1.145904	0.499890
H209	H	0.072349	0.036143	0.099817
H210	H	0.572349	0.536143	0.599817
H211	H	0.077704	0.480254	-0.100024
H212	H	0.577704	0.980254	0.399976
H213	H	-0.656135	0.936530	-0.000122
H214	H	-0.156135	1.436530	0.499878
N215	N	0.006183	0.739181	0.856831
N216	N	0.506183	1.239181	1.356831
N217	N	0.006181	0.739188	0.913622
N218	N	0.506181	1.239188	1.413622
H219	H	-0.018677	0.708820	0.936585
H220	H	0.481323	1.208820	1.436585
N221	N	-0.104941	0.957829	-0.000082
N222	N	0.395059	1.457829	0.499918
N223	N	-0.137669	1.014266	-0.000088
N224	N	0.362331	1.514266	0.499912
H225	H	-0.121264	1.060510	-0.000085
H226	H	0.378736	1.560510	0.499915
H227	H	0.077713	0.480133	0.099851
H228	H	0.577713	0.980133	0.599851
H229	H	0.079315	0.612243	0.099868
H230	H	0.579315	1.112243	0.599868
N231	N	-0.196927	0.698698	-0.000062
N232	N	0.303073	1.198698	0.499938
N233	N	-0.164201	0.642260	-0.000047
N234	N	0.335799	1.142260	0.499953
H235	H	-0.180607	0.596016	-0.000035
H236	H	0.319393	1.096016	0.499965
H237	H	-0.497589	1.002610	-0.000127
H238	H	0.002411	1.502610	0.499873
H239	H	0.013313	0.747890	0.734843
H240	H	0.513313	1.247890	1.234843
H241	H	-0.084446	0.713570	-0.000069
H242	H	0.415554	1.213570	0.499931
N243	N	0.074020	0.175914	-0.111468
N244	N	0.574020	0.675914	0.388532
N245	N	0.073628	0.143426	-0.160649
N246	N	0.573628	0.643426	0.339351
H247	H	0.073940	0.169706	-0.200391
H248	H	0.573940	0.669706	0.299609
H249	H	0.172790	0.942744	0.442143
H250	H	0.672790	1.442744	0.942143
H251	H	0.072347	0.036263	-0.100061
H252	H	0.572347	0.536263	0.399939
N253	N	-0.743420	0.690691	-0.000094
N254	N	-0.243420	1.190691	0.499906
N255	N	-0.775024	0.675985	0.042500
N256	N	-0.275024	1.175985	0.542500
H257	H	-0.791443	0.629750	0.042508
H258	H	-0.291443	1.129750	0.542508
H259	H	-0.021156	0.705781	0.442267
H260	H	0.478844	1.205781	0.942267
N261	N	-0.028297	0.697057	0.564235
N262	N	0.471703	1.197057	1.064235
N263	N	-0.059056	0.659475	0.535843
N264	N	0.440944	1.159475	1.035843
H265	H	-0.083921	0.629098	0.558787
H266	H	0.416079	1.129098	1.058787
H267	H	0.073942	0.168251	0.099829
H268	H	0.573942	0.668251	0.599829
N269	N	-0.224991	0.956074	-0.000108
N270	N	0.275009	1.456074	0.499892
N271	N	-0.204657	1.013287	-0.000108
N272	N	0.295343	1.513287	0.499892
H273	H	-0.231081	1.058905	-0.000114
H274	H	0.268919	1.558905	0.499886
H275	H	0.138336	0.900625	0.264957
H276	H	0.638336	1.400625	0.764957
N277	N	0.006184	0.739115	0.271671
N278	N	0.506184	1.239115	0.771671
N279	N	0.028516	0.692808	0.307187
N280	N	0.528516	1.192808	0.807187
H281	H	0.003662	0.662440	0.330156
H282	H	0.503662	1.162440	0.830156
H283	H	-0.389841	1.004192	-0.000117
H284	H	0.110159	1.504192	0.499883
H285	H	0.138342	0.900597	0.149576
H286	H	0.638342	1.400597	0.649576
H287	H	0.138343	0.900668	0.734750
H288	H	0.638343	1.400668	1.234750
N289	N	0.145482	0.909391	0.856741
N290	N	0.645482	1.409391	1.356741
N291	N	0.145476	0.909381	0.913532
N292	N	0.645476	1.409381	1.413532
H293	H	0.170335	0.939744	0.936470
H294	H	0.670335	1.439744	1.436470
N295	N	-0.771503	0.948036	-0.000125
N296	N	-0.271503	1.448036	0.499875
N297	N	-0.824537	0.947240	-0.000126
N298	N	-0.324537	1.447240	0.499874
H299	H	-0.850985	0.992839	-0.000127
H300	H	-0.350985	1.492839	0.499873
N301	N	0.006184	0.739101	0.143067
N302	N	0.506184	1.239101	0.643067
N303	N	0.006193	0.739107	0.086276
N304	N	0.506193	1.239107	0.586276
H305	H	-0.018659	0.708736	0.063337
H306	H	0.481341	1.208736	0.563337
N307	N	-0.623352	0.692439	-0.000108
N308	N	-0.123352	1.192439	0.499892
N309	N	-0.643685	0.635225	-0.000103
N310	N	-0.143685	1.135225	0.499897
H311	H	-0.617260	0.589608	-0.000102
H312	H	-0.117260	1.089608	0.499898
