data_functionalizedCrystal
_audit_creation_method	'MofGen! by Chris Wilmer'
_symmetry_space_group_name_H-M	'P1'
_symmetry_Int_Tables_number	1
_symmetry_cell_setting	triclinic
loop_
_symmetry_equiv_pos_as_xyz
  x,y,z
_cell_length_a	6.817900
_cell_length_b	16.306198
_cell_length_c	15.301140
_cell_angle_alpha	95.154347
_cell_angle_beta	104.177739
_cell_angle_gamma	103.467075
loop_
_atom_site_label
_atom_site_type_symbol
_atom_site_fract_x
_atom_site_fract_y
_atom_site_fract_z
V1	V	-4.034345	-0.117290	-0.281465
O2	O	-4.021777	0.005049	-0.275779
O3	O	-3.985751	-0.232002	-0.279856
O4	O	-3.989280	-0.115744	-0.404078
O5	O	-4.018223	-0.112014	-0.150697
V6	V	-4.517566	-0.102627	-0.265786
O7	O	-4.296266	-0.149456	-0.315859
O8	O	-4.705843	-0.070461	-0.231392
O9	O	-4.342955	0.012085	-0.267396
O10	O	-4.647532	-0.224966	-0.271472
O11	O	-4.651086	-0.107903	-0.396554
O12	O	-4.339426	-0.104173	-0.143173
C13	C	-3.830596	-0.259958	-0.275497
C14	C	-3.872173	-0.353738	-0.274999
C15	C	-3.835097	-0.111659	-0.433954
C16	C	-3.879533	-0.111153	-0.534193
C17	C	-4.082642	-0.115140	-0.585890
C18	C	-4.124383	-0.114664	-0.680075
C19	C	-3.963013	-0.110209	-0.722561
C20	C	-3.759885	-0.106219	-0.670856
C21	C	-3.718145	-0.106689	-0.576672
C22	C	-3.846900	-0.105244	-0.867165
C23	C	-3.888643	-0.104776	-0.961356
C24	C	-4.253138	-0.113219	-0.970568
C25	C	-4.211397	-0.113689	-0.876384
C26	C	-4.008272	-0.109701	-0.824686
C27	C	-4.023074	-0.694486	-0.273176
C28	C	-4.227311	-0.663950	-0.278479
C29	C	-4.184400	-0.566460	-0.279346
C30	C	-3.948211	-0.525437	-0.274080
C31	C	-3.899037	-0.571051	-0.357723
C32	C	-3.943721	-0.668669	-0.357308
C33	C	-3.850613	-0.643188	-0.184855
C34	C	-3.810923	-0.545537	-0.184336
C35	C	-3.905892	-0.429898	-0.274593
C36	C	-4.065390	-0.790025	-0.272668
C37	C	-4.161451	0.040037	-0.271752
C38	C	-4.099112	0.133816	-0.272256
C39	C	-4.156951	-0.108261	-0.113293
C40	C	-4.091753	-0.108762	-0.013053
H41	H	-4.214057	-0.118774	-0.551306
H42	H	-4.289768	-0.117906	-0.722162
H43	H	-3.898266	-0.659773	-0.120876
Br44	Br	-3.614663	-0.526802	-0.356609
Br45	Br	-4.256571	-0.514652	-0.179706
H46	H	-3.847491	-0.514817	-0.122413
Br47	Br	-3.571221	-0.099818	-0.797002
Br48	Br	-4.430406	-0.119748	-0.818726
H49	H	-4.418531	-0.116468	-1.012665
H50	H	-3.757237	-0.101143	-0.995945
H51	H	-3.628496	-0.102587	-0.705455
Br52	Br	-3.520518	-0.497322	-0.169226
Br53	Br	-3.695246	-0.702632	-0.357004
H54	H	-3.552744	-0.103422	-0.534577
H55	H	-4.292337	-0.680352	-0.218476
Br56	Br	-4.062780	-0.549186	-0.468421
H57	H	-4.355922	-0.699625	-0.342194
H58	H	-4.292355	-0.554348	-0.343755
Br59	Br	-3.596751	-0.675118	-0.176982
H60	H	-4.064799	-0.702830	-0.423802
