data_functionalizedCrystal
_audit_creation_method	'MofGen! by Chris Wilmer'
_symmetry_space_group_name_H-M	'P1'
_symmetry_Int_Tables_number	1
_symmetry_cell_setting	triclinic
loop_
_symmetry_equiv_pos_as_xyz
  x,y,z
_cell_length_a	27.732048
_cell_length_b	19.188930
_cell_length_c	17.666332
_cell_angle_alpha	89.988397
_cell_angle_beta	89.996139
_cell_angle_gamma	82.893719
loop_
_atom_site_label
_atom_site_type_symbol
_atom_site_fract_x
_atom_site_fract_y
_atom_site_fract_z
O1	O	-0.641184	-0.083079	0.062859
O2	O	-0.141184	0.416921	0.562859
O3	O	-0.500430	-0.095711	0.062883
O4	O	-0.000430	0.404289	0.562883
O5	O	-0.574869	0.012286	0.062856
O6	O	-0.074869	0.512286	0.562856
O7	O	-0.566745	-0.191077	0.062887
O8	O	-0.066745	0.308923	0.562887
O9	O	-0.574856	0.012292	-0.063041
O10	O	-0.074856	0.512292	0.436959
O11	O	-0.500417	-0.095706	-0.063014
O12	O	-0.000417	0.404294	0.436986
O13	O	-0.641171	-0.083074	-0.063038
O14	O	-0.141171	0.416926	0.436962
Cu15	Cu	-0.570793	-0.089389	-0.074521
Cu16	Cu	-0.070793	0.410611	0.425479
Cu17	Cu	-0.570808	-0.089396	0.074367
Cu18	Cu	-0.070808	0.410604	0.574367
O19	O	-0.566732	-0.191071	-0.063010
O20	O	-0.066732	0.308929	0.436990
C21	C	-0.482415	-0.095443	-0.000062
C22	C	0.017585	0.404557	0.499938
C23	C	-0.428758	-0.094645	-0.000054
C24	C	0.071242	0.405355	0.499946
C25	C	-0.574599	0.038299	-0.000095
C26	C	-0.074599	0.538299	0.499905
C27	C	-0.573810	0.115798	-0.000101
C28	C	-0.073810	0.615798	0.499899
C29	C	-0.659186	-0.083341	-0.000090
C30	C	-0.159186	0.416659	0.499910
C31	C	-0.712843	-0.084140	-0.000094
C32	C	-0.212843	0.415860	0.499906
C33	C	-0.090123	-0.153438	-0.000078
C34	C	0.409877	0.346562	0.499922
C35	C	0.111546	-0.150475	-0.000085
C36	C	0.611546	0.349525	0.499915
O37	O	0.142637	-0.204237	-0.000109
O38	O	0.642637	0.295763	0.499891
N39	N	0.130866	-0.086437	-0.000093
N40	N	0.630866	0.413563	0.499907
C41	C	0.099764	-0.023135	-0.000105
C42	C	0.599764	0.476865	0.499895
O43	O	0.120824	0.031401	-0.000120
O44	O	0.620824	0.531401	0.499880
C45	C	-0.101903	-0.026098	-0.000103
C46	C	0.398097	0.473902	0.499897
C47	C	-0.121220	-0.090140	-0.000087
C48	C	0.378780	0.409860	0.499913
C49	C	-0.109440	-0.217475	-0.000062
C50	C	0.390560	0.282525	0.499938
C51	C	-0.159854	-0.218215	-0.000056
C52	C	0.340146	0.281785	0.499944
C53	C	-0.190951	-0.154917	-0.000066
C54	C	0.309049	0.345083	0.499934
C55	C	-0.171634	-0.090880	-0.000081
C56	C	0.328366	0.409120	0.499919
C57	C	-0.133003	0.037203	-0.000120
C58	C	0.366997	0.537203	0.499880
C59	C	-0.183423	0.036457	-0.000121
C60	C	0.316577	0.536457	0.499879
C61	C	-0.202740	-0.027586	-0.000105
C62	C	0.297260	0.472414	0.499895
C63	C	-0.253145	-0.028323	-0.000084
C64	C	0.246855	0.471677	0.499916
N65	N	-0.272465	-0.092361	-0.000076
N66	N	0.227535	0.407639	0.499924
C67	C	-0.241368	-0.155658	-0.000067
C68	C	0.258632	0.344342	0.499933
C69	C	0.205643	-0.021584	-0.000104
C70	C	0.705643	0.478416	0.499896
C71	C	0.256060	-0.020843	-0.000103
C72	C	0.756060	0.479157	0.499897
C73	C	0.267838	-0.148183	-0.000085
C74	C	0.767838	0.351817	0.499915
C75	C	0.217420	-0.148923	-0.000080
C76	C	0.717420	0.351077	0.499920
C77	C	0.186324	-0.085622	-0.000096
C78	C	0.686324	0.414378	0.499904
C79	C	-0.347242	-0.157208	-0.000054
C80	C	0.152758	0.342792	0.499946
C81	C	-0.397661	-0.157942	-0.000044
C82	C	0.102339	0.342058	0.499956
C83	C	-0.409435	-0.030602	-0.000067
C84	C	0.090565	0.469398	0.499933
C85	C	-0.359020	-0.029867	-0.000072
C86	C	0.140980	0.470133	0.499928
C87	C	-0.327924	-0.093176	-0.000068
C88	C	0.172076	0.406824	0.499932
O89	O	-0.284265	0.025410	-0.000068
O90	O	0.215735	0.525410	0.499932
O91	O	-0.262437	-0.210187	-0.000068
O92	O	0.237563	0.289813	0.499932
C93	C	-0.039708	-0.152698	-0.000084
C94	C	0.460292	0.347302	0.499916
C95	C	-0.020391	-0.088661	-0.000099
C96	C	0.479609	0.411339	0.499901
C97	C	-0.051489	-0.025363	-0.000108
C98	C	0.448511	0.474637	0.499892
C99	C	0.030025	-0.087920	-0.000098
C100	C	0.530025	0.412080	0.499902
C101	C	0.061122	-0.151217	-0.000089
C102	C	0.561122	0.348783	0.499911
C103	C	0.041803	-0.215255	-0.000080
C104	C	0.541803	0.284745	0.499920
C105	C	-0.008611	-0.215995	-0.000074
C106	C	0.491389	0.284005	0.499926
C107	C	-0.032169	0.038675	-0.000116
C108	C	0.467831	0.538675	0.499884
C109	C	0.018246	0.039409	-0.000122
C110	C	0.518246	0.539409	0.499878
C111	C	0.049343	-0.023888	-0.000112
C112	C	0.549343	0.476112	0.499888
C113	C	-0.567002	-0.217083	-0.000058
C114	C	-0.067002	0.282917	0.499942
C115	C	-0.567791	-0.294583	-0.000047
C116	C	-0.067791	0.205417	0.499953
N117	N	-0.570786	-0.089384	-0.179240
N118	N	-0.070786	0.410616	0.320760
C119	C	-0.617488	0.161001	-0.000112
C120	C	-0.117488	0.661001	0.499888
C121	C	-0.616746	0.233820	-0.000100
C122	C	-0.116746	0.733820	0.499900
C123	C	-0.572323	0.261433	-0.000092
C124	C	-0.072323	0.761433	0.499908
C125	C	-0.528639	0.216220	-0.000077
C126	C	-0.028639	0.716220	0.499923
C127	C	-0.529382	0.143403	-0.000081
C128	C	-0.029382	0.643403	0.499919
N129	N	-0.538363	0.369223	-0.042931
N130	N	-0.038363	0.869223	0.457069
N131	N	-0.537660	0.438397	-0.042928
N132	N	-0.037660	0.938397	0.457072
C133	C	-0.570081	0.480827	-0.000076
C134	C	-0.070081	0.980827	0.499924
N135	N	-0.603240	0.451471	0.042764
N136	N	-0.103240	0.951471	0.542764
N137	N	-0.603944	0.382291	0.042757
N138	N	-0.103944	0.882291	0.542757
C139	C	-0.571512	0.340390	-0.000086
C140	C	-0.071512	0.840390	0.499914
C141	C	-0.612959	0.604989	-0.000073
C142	C	-0.112959	1.104989	0.499927
C143	C	-0.612215	0.677809	-0.000056
C144	C	-0.112215	1.177809	0.499944
C145	C	-0.524106	0.660208	-0.000040
C146	C	-0.024106	1.160208	0.499960
C147	C	-0.524851	0.587390	-0.000049
C148	C	-0.024851	1.087390	0.499951
C149	C	-0.569279	0.559785	-0.000069
C150	C	-0.069279	1.059785	0.499931
C151	C	-0.603758	-0.041586	-0.218862
C152	C	-0.103758	0.458414	0.281138
C153	C	-0.603761	-0.041582	-0.298110
C154	C	-0.103761	0.458418	0.201890
C155	C	-0.570796	-0.089389	-0.337733
C156	C	-0.070796	0.410611	0.162267
C157	C	-0.537817	-0.137191	-0.298101
C158	C	-0.037817	0.362809	0.201899
C159	C	-0.537812	-0.137188	-0.218855
C160	C	-0.037812	0.362812	0.281145
N161	N	-0.564512	-0.151237	-0.462141
N162	N	-0.064512	0.348763	0.037859
N163	N	-0.564520	-0.151237	-0.537422
N164	N	-0.064520	0.348763	-0.037422
C165	C	-0.570808	-0.089399	-0.576497
C166	C	-0.070808	0.410601	-0.076497
N167	N	-0.577098	-0.027558	-0.537447
N168	N	-0.077098	0.472442	-0.037447
N169	N	-0.577093	-0.027559	-0.462160
N170	N	-0.077093	0.472441	0.037840
C171	C	-0.570797	-0.089397	-0.423662
C172	C	-0.070797	0.410603	0.076338
C173	C	-0.603786	-0.041593	-0.702048
C174	C	-0.103786	0.458407	-0.202048
C175	C	-0.603785	-0.041589	-0.781297
C176	C	-0.103785	0.458411	-0.281297
C177	C	-0.537844	-0.137203	-0.781286
C178	C	-0.037844	0.362797	-0.281286
C179	C	-0.537842	-0.137202	-0.702039
C180	C	-0.037842	0.362798	-0.202039
C181	C	-0.570816	-0.089397	-0.662424
C182	C	-0.070816	0.410603	-0.162424
N183	N	-0.570819	-0.089395	0.179086
N184	N	-0.070819	0.410605	0.679086
H185	H	-0.413385	-0.210095	-0.000031
H186	H	0.086615	0.289905	0.499969
Cl187	Cl	-0.673340	0.126301	-0.000116
Cl188	Cl	-0.173340	0.626301	0.499884
Cl189	Cl	-0.667130	0.734637	-0.000065
Cl190	Cl	-0.167130	1.234637	0.499935
H191	H	-0.321929	-0.208759	-0.000053
H192	H	0.178071	0.291241	0.499947
H193	H	-0.487936	0.682690	-0.000030
H194	H	0.012064	1.182690	0.499970
Cl195	Cl	-0.469938	0.530561	-0.000039
Cl196	Cl	0.030062	1.030561	0.499961
Cl197	Cl	-0.496399	-0.197298	-0.831092
Cl198	Cl	0.003601	0.302702	-0.331092
H199	H	-0.652316	0.270631	-0.000106
H200	H	-0.152316	0.770631	0.499894
H201	H	-0.493813	0.106598	-0.000072
H202	H	0.006187	0.606598	0.499928
Cl203	Cl	0.166557	0.058004	-0.000122
Cl204	Cl	0.666557	0.558004	0.499878
H205	H	-0.510961	-0.176112	-0.186594
H206	H	-0.010961	0.323888	0.313406
Cl207	Cl	-0.645207	0.018513	-0.169062
Cl208	Cl	-0.145207	0.518513	0.330938
H209	H	-0.208740	0.088006	-0.000135
H210	H	0.291260	0.588006	0.499865
Cl211	Cl	-0.668809	0.570282	-0.000102
Cl212	Cl	-0.168809	1.070282	0.499898
Cl213	Cl	-0.645237	0.018510	-0.831110
Cl214	Cl	-0.145237	0.518510	-0.331110
H215	H	-0.630633	-0.002665	-0.669792
H216	H	-0.130633	0.497335	-0.169792
Cl217	Cl	0.280337	0.059671	-0.000105
Cl218	Cl	0.780337	0.559671	0.499895
Cl219	Cl	-0.472793	0.250933	-0.000060
Cl220	Cl	0.027207	0.750933	0.499940
H221	H	-0.630612	-0.002658	-0.330376
H222	H	-0.130612	0.497342	0.169624
Cl223	Cl	-0.184130	-0.298729	-0.000042
Cl224	Cl	0.315870	0.201271	0.499958
H225	H	-0.510995	-0.176126	-0.669777
H226	H	-0.010995	0.323874	-0.169777
Cl227	Cl	-0.070354	-0.297060	-0.000049
Cl228	Cl	0.429646	0.202940	0.499951
Cl229	Cl	-0.496373	-0.197289	-0.347910
Cl230	Cl	0.003627	0.302711	0.152090
Cl231	Cl	-0.108733	0.117719	-0.000128
Cl232	Cl	0.391267	0.617719	0.499872
H233	H	0.201697	-0.201072	-0.000071
H234	H	0.701697	0.298928	0.499929
H235	H	-0.343292	0.022281	-0.000074
H236	H	0.156708	0.522281	0.499926
Cl237	Cl	0.042522	0.119928	-0.000132
Cl238	Cl	0.542522	0.619928	0.499868
Cl239	Cl	-0.448537	0.048967	-0.000082
Cl240	Cl	0.051463	0.548967	0.499918
H241	H	0.293166	-0.199722	-0.000077
H242	H	0.793166	0.300278	0.499923
H243	H	0.067131	-0.266794	-0.000070
H244	H	0.567131	0.233206	0.499930
Cl245	Cl	-0.032887	-0.296509	-0.000055
Cl246	Cl	0.467113	0.203491	0.499945
H247	H	-0.057484	0.090220	-0.000126
H248	H	0.442516	0.590220	0.499874
