data_functionalizedCrystal
_audit_creation_method	'MofGen! by Chris Wilmer'
_symmetry_space_group_name_H-M	'P1'
_symmetry_Int_Tables_number	1
_symmetry_cell_setting	triclinic
loop_
_symmetry_equiv_pos_as_xyz
  x,y,z
_cell_length_a	9.482900
_cell_length_b	9.065218
_cell_length_c	9.065218
_cell_angle_alpha	94.984115
_cell_angle_beta	80.524781
_cell_angle_gamma	80.570867
loop_
_atom_site_label
_atom_site_type_symbol
_atom_site_fract_x
_atom_site_fract_y
_atom_site_fract_z
O1	O	0.120893	-1.983090	0.193561
O2	O	0.120895	-1.553806	0.211307
O3	O	0.120891	-1.777321	-0.012208
O4	O	0.120897	-1.759575	0.417076
O5	O	-0.120901	-1.731922	0.033378
O6	O	-0.120897	-1.508407	0.256893
O7	O	-0.120899	-1.937692	0.239147
Cu8	Cu	-0.142975	-1.718904	0.252182
Cu9	Cu	0.142971	-1.772593	0.198272
O10	O	-0.120895	-1.714177	0.462661
C11	C	-0.000001	-1.476120	0.232394
C12	C	-0.000000	-1.312277	0.227295
N13	N	-0.344095	-1.681153	0.290099
C14	C	-0.000003	-1.752916	-0.044402
C15	C	0.000004	-1.747818	-0.208246
C16	C	-0.416296	-1.761448	0.209448
C17	C	-0.583712	-1.730049	0.241007
N18	N	0.344091	-1.810356	0.160343
C19	C	0.000000	-2.015378	0.218059
C20	C	0.000009	-2.179223	0.223157
C21	C	0.000002	-1.738582	0.494855
C22	C	0.000004	-1.743682	0.658698
H23	H	-0.354169	-1.853432	0.117029
H24	H	-0.593786	-1.902346	0.067919
H25	H	-0.645835	-1.638049	0.333420
H26	H	-0.406223	-1.589159	0.382506
