data_functionalizedCrystal
_audit_creation_method	'MofGen! by Chris Wilmer'
_symmetry_space_group_name_H-M	'P1'
_symmetry_Int_Tables_number	1
_symmetry_cell_setting	triclinic
loop_
_symmetry_equiv_pos_as_xyz
  x,y,z
_cell_length_a	13.635800
_cell_length_b	11.102193
_cell_length_c	17.078481
_cell_angle_alpha	84.886598
_cell_angle_beta	80.693839
_cell_angle_gamma	108.604125
loop_
_atom_site_label
_atom_site_type_symbol
_atom_site_fract_x
_atom_site_fract_y
_atom_site_fract_z
V1	V	-2.002847	-0.175543	0.247365
O2	O	-1.983374	0.008741	0.242653
O3	O	-1.991594	-0.348366	0.245676
O4	O	-1.968159	-0.172709	0.355247
O5	O	-2.006971	-0.168132	0.132322
V6	V	-2.244342	-0.153516	0.233604
O7	O	-2.134060	-0.223860	0.277549
O8	O	-2.338227	-0.105199	0.203420
O9	O	-2.143992	0.019307	0.235293
O10	O	-2.322513	-0.337800	0.238316
O11	O	-2.298917	-0.160927	0.348646
O12	O	-2.167426	-0.156351	0.125721
C13	C	-1.917583	-0.390501	0.241774
C14	C	-1.948956	-0.531785	0.241112
V15	V	-1.502847	-0.175543	0.247365
O16	O	-1.483374	0.008741	0.242653
O17	O	-1.491594	-0.348366	0.245676
O18	O	-1.468159	-0.172709	0.355247
O19	O	-1.506971	-0.168132	0.132322
V20	V	-1.744342	-0.153516	0.233604
O21	O	-1.634060	-0.223860	0.277549
O22	O	-1.838227	-0.105199	0.203420
O23	O	-1.643992	0.019307	0.235293
O24	O	-1.822513	-0.337800	0.238316
O25	O	-1.798917	-0.160927	0.348646
O26	O	-1.667426	-0.156351	0.125721
C27	C	-1.978818	-0.761142	0.094547
C28	C	-1.949532	-0.676699	0.022204
C29	C	-1.920055	-0.543951	0.022828
C30	C	-1.919862	-0.495645	0.095802
C31	C	-1.949147	-0.580089	0.168145
C32	C	-1.978626	-0.712838	0.167514
C33	C	-1.978242	-0.616228	0.313456
C34	C	-2.007726	-0.748977	0.312834
C35	C	-1.978049	-0.567923	0.386430
C36	C	-2.007342	-0.652367	0.458775
C37	C	-2.036821	-0.785123	0.458149
C38	C	-2.037012	-0.833421	0.385177
C39	C	-1.887690	-0.166431	0.381543
C40	C	-1.900056	-0.165257	0.469738
C41	C	-2.049674	0.061435	0.239192
C42	C	-2.007920	0.202717	0.239859
C43	C	-2.079568	-0.162633	0.099422
C44	C	-2.056820	-0.163800	0.011226
C45	C	-1.417583	-0.390501	0.241774
C46	C	-1.448956	-0.531785	0.241112
C47	C	-1.387690	-0.166431	0.381543
C48	C	-1.400056	-0.165257	0.469738
C49	C	-1.997007	-0.171050	0.515213
C50	C	-2.008621	-0.169946	0.598082
C51	C	-1.923284	-0.163059	0.635473
C52	C	-1.826324	-0.157262	0.589991
C53	C	-1.814710	-0.158356	0.507123
C54	C	-1.948245	-0.159097	0.882876
C55	C	-1.959869	-0.158007	0.965750
C56	C	-2.142164	-0.170689	0.973835
C57	C	-2.130543	-0.171791	0.890966
C58	C	-2.033583	-0.165987	0.845491
N59	N	-1.935154	-0.161935	0.720178
N60	N	-2.021712	-0.167102	0.760787
C61	C	-1.549674	0.061435	0.239192
C62	C	-1.507920	0.202717	0.239859
C63	C	-1.579568	-0.162633	0.099422
C64	C	-1.556820	-0.163800	0.011226
C65	C	-1.497012	-0.171038	0.515199
C66	C	-1.508642	-0.169918	0.598066
C67	C	-1.423317	-0.163027	0.635472
C68	C	-1.326352	-0.157243	0.590004
C69	C	-1.314721	-0.158353	0.507137
C70	C	-1.459912	-0.170676	-0.026159
C71	C	-1.438519	-0.171758	-0.109029
C72	C	-1.514039	-0.165972	-0.154512
C73	C	-1.610954	-0.159092	-0.117121
C74	C	-1.632342	-0.158001	-0.034254
C75	C	-1.631283	-0.544740	0.249021
C76	C	-1.737181	-0.617592	0.252663
C77	C	-1.766652	-0.750340	0.252042
C78	C	-1.690218	-0.810240	0.247781
C79	C	-1.584320	-0.737389	0.244140
C80	C	-1.554857	-0.604637	0.244759
C81	C	-1.401996	-0.724434	0.236237
C82	C	-1.372521	-0.591685	0.236852
C83	C	-1.325562	-0.784334	0.231977
C84	C	-1.219661	-0.711482	0.228330
C85	C	-1.190191	-0.578725	0.228950
C86	C	-1.266624	-0.518833	0.233211
H87	H	-2.002827	-0.869231	0.094033
H88	H	-1.157438	-0.760264	0.224867
F89	F	-1.211526	-0.152214	0.458763
F90	F	-1.435712	-0.161850	0.723668
F91	F	-2.007123	-0.600948	0.536431
H92	H	-1.896201	-0.475195	-0.036081
F93	F	-1.356931	-0.925619	0.231321
F94	F	-1.879361	-0.827877	0.255923
H95	H	-1.103961	-0.519418	0.225991
F96	F	-1.379522	-0.176834	0.022233
H97	H	-1.256885	-0.151633	0.620472
F98	F	-1.691322	-0.152945	-0.165538
H99	H	-1.711258	-0.152409	-0.003821
H100	H	-1.607293	-0.436648	0.249516
H101	H	-1.496615	-0.166877	-0.221986
H102	H	-1.869307	-0.154416	0.845864
H103	H	-1.566501	-0.176652	0.484755
F104	F	-1.818522	-0.553834	0.257199
H105	H	-1.714225	-0.918333	0.247286
H106	H	-1.359602	-0.177360	-0.139460
F107	F	-1.235268	-0.377550	0.233868
H108	H	-1.756841	-0.151646	0.620441
F109	F	-1.949738	-0.728118	-0.055457
H110	H	-1.895847	-0.387552	0.096303
F111	F	-1.946668	-0.426639	0.387092
H112	H	-2.060659	-0.853871	0.517060
H113	H	-2.061016	-0.941509	0.384660
F114	F	-2.087840	-0.178389	0.475427
H115	H	-2.087566	-0.174656	0.635104
H116	H	-2.200035	-0.177398	0.860528
H117	H	-2.221105	-0.175413	1.010870
H118	H	-1.890371	-0.152394	0.996191
F119	F	-1.711519	-0.152181	0.458724
F120	F	-1.611849	-0.176083	0.646442
