data_functionalizedCrystal
_audit_creation_method	'MofGen! by Chris Wilmer'
_symmetry_space_group_name_H-M	'P1'
_symmetry_Int_Tables_number	1
_symmetry_cell_setting	triclinic
loop_
_symmetry_equiv_pos_as_xyz
  x,y,z
_cell_length_a	19.377369
_cell_length_b	18.878441
_cell_length_c	18.878441
_cell_angle_alpha	89.999813
_cell_angle_beta	48.637841
_cell_angle_gamma	72.127666
loop_
_atom_site_label
_atom_site_type_symbol
_atom_site_fract_x
_atom_site_fract_y
_atom_site_fract_z
Zr1	Zr	0.779886	0.049018	0.541076
O2	O	0.928517	-0.037020	0.401043
O3	O	0.631250	0.056626	0.602679
O4	O	0.779883	-0.064087	0.575749
O5	O	0.779887	0.200262	0.427972
O6	O	0.779887	-0.064091	0.692316
O7	O	0.779883	0.083693	0.427973
O8	O	0.514010	0.151843	0.740488
O9	O	1.045765	-0.015672	0.379800
O10	O	0.692391	0.082542	0.693381
O11	O	0.692391	0.169538	0.606387
O12	O	0.867388	0.027414	0.574681
O13	O	0.867388	0.114410	0.487688
Zr14	Zr	0.779899	0.234926	0.726985
Zr15	Zr	0.779893	0.049012	0.726987
Zr16	Zr	0.779893	0.234931	0.541074
Zr17	Zr	0.966884	0.083065	0.507194
Zr18	Zr	0.592901	0.200878	0.760866
O19	O	0.928536	0.227318	0.665382
O20	O	0.928526	-0.037027	0.665385
O21	O	0.928526	0.227325	0.401040
O22	O	0.631269	0.320964	0.867017
O23	O	0.631259	0.056619	0.867020
O24	O	0.631259	0.320971	0.602676
O25	O	0.779898	0.083682	0.840089
O26	O	0.779902	0.348031	0.692311
O27	O	0.779898	0.348034	0.575744
O28	O	0.779902	0.200250	0.840088
O29	O	1.045771	-0.015676	0.527574
O30	O	0.514015	0.299620	0.740486
O31	O	0.514020	0.299616	0.888261
O32	O	0.514015	0.151839	0.888263
O33	O	1.045771	0.132104	0.379798
O34	O	1.045776	0.132100	0.527572
O35	O	0.692398	0.256530	0.693379
O36	O	0.692398	0.169533	0.780373
O37	O	0.867394	0.114405	0.661673
O38	O	0.867394	0.201402	0.574679
C39	C	0.545987	0.099384	0.676411
C40	C	0.466601	0.084929	0.690794
C41	C	0.779884	0.141978	0.401484
C42	C	0.779882	0.141980	0.322560
C43	C	0.779901	0.374521	0.634028
C44	C	0.779904	0.453446	0.634027
C45	C	0.205202	0.264694	0.511420
C46	C	0.130517	0.251174	0.525054
C47	C	0.130526	0.160356	0.615869
C48	C	0.205210	0.173871	0.602246
C49	C	0.242543	0.226040	0.550020
C50	C	0.242550	0.135218	0.640847
C51	C	0.317231	0.148729	0.627220
C52	C	0.354572	0.200894	0.574994
C53	C	0.317224	0.239551	0.536394
C54	C	0.205221	0.083045	0.693067
C55	C	0.242562	0.044392	0.731667
C56	C	0.317239	0.057907	0.718047
C57	C	0.354579	0.110072	0.665820
C58	C	0.354587	0.019249	0.756647
C59	C	0.429268	0.032761	0.743021
C60	C	0.429260	0.123583	0.652194
C61	C	1.013799	0.184560	0.591650
C62	C	1.093185	0.199014	0.577266
C63	C	0.779884	-0.090578	0.634033
C64	C	0.779882	-0.169503	0.634034
C65	C	0.871249	0.461751	0.572068
C66	C	0.871246	0.535911	0.572065
C67	C	0.779896	0.601766	0.634025
C68	C	0.688544	0.593458	0.695986
C69	C	0.688548	0.519299	0.695984
C70	C	0.688541	0.748028	0.695988
C71	C	0.688536	0.822192	0.695992
C72	C	0.871239	0.764640	0.572069
C73	C	0.871243	0.690481	0.572067
C74	C	0.779890	0.682178	0.634029
C75	C	0.688536	0.170753	0.347438
C76	C	0.688540	0.170755	0.273277
C77	C	0.779889	0.141977	0.174237
C78	C	0.871242	0.113204	0.149359
C79	C	0.871237	0.113208	0.223520
C80	C	0.871245	0.113196	-0.005212
C81	C	0.871249	0.113190	-0.079378
C82	C	0.688547	0.170742	0.044545
C83	C	0.688542	0.170746	0.118706
C84	C	0.779895	0.141972	0.093823
C85	C	0.779901	0.141965	0.866577
C86	C	0.779904	0.141963	0.945501
C87	C	0.545995	0.099377	0.908957
C88	C	0.466612	0.084921	1.002265
C89	C	0.545995	0.331933	0.676408
C90	C	0.466612	0.396404	0.690791
C91	C	0.546003	0.331927	0.908954
C92	C	0.466623	0.396395	1.002261
C93	C	1.013782	-0.047983	0.359106
C94	C	1.093162	-0.112452	0.265799
C95	C	1.013791	0.184566	0.359103
C96	C	1.093174	0.199022	0.265796
C97	C	1.013791	-0.047989	0.591652
C98	C	1.093174	-0.112461	0.577270
C99	C	0.429330	0.032716	1.000674
C100	C	0.354752	0.019117	1.088338
C101	C	0.317452	0.057729	1.177592
C102	C	0.354741	0.109937	1.179179
C103	C	0.429323	0.123530	1.091516
C104	C	0.429336	0.472097	0.742954
C105	C	0.354758	0.532683	0.756463
C106	C	0.317452	0.517574	0.717814
C107	C	0.354735	0.441874	0.665644
C108	C	0.429317	0.381290	0.652130
C109	C	0.429346	0.381260	1.091497
C110	C	0.354770	0.441830	1.179173
C111	C	0.317468	0.517534	1.177614
C112	C	0.354753	0.532670	1.088368
C113	C	0.429333	0.472101	1.000693
C114	C	1.130449	-0.097315	0.176562
C115	C	1.205048	-0.157881	0.088881
C116	C	1.242353	-0.233584	0.090440
C117	C	1.205064	-0.248721	0.179687
C118	C	1.130471	-0.188154	0.267365
C119	C	1.130464	0.251221	0.267385
C120	C	1.205062	0.264803	0.179718
C121	C	1.242365	0.226190	0.090463
C122	C	1.205072	0.173985	0.088877
C123	C	1.130479	0.160399	0.176542
C124	C	1.130456	-0.097328	0.615932
C125	C	1.205035	-0.157900	0.602437
C126	C	1.242335	-0.233603	0.550273
C127	C	1.205045	-0.248735	0.511611
C128	C	1.130462	-0.188165	0.525112
H129	H	0.459659	0.166064	0.609667
Cl130	Cl	0.476181	0.491142	0.888516
Cl131	Cl	0.223688	0.040632	1.287790
H132	H	0.945634	0.089781	-0.025481
Cl133	Cl	0.476163	0.286134	0.586556
H134	H	0.614151	0.875812	0.746441
Cl135	Cl	1.251904	-0.138859	0.651041
Cl136	Cl	0.476217	0.491110	0.791554
Cl137	Cl	1.336137	0.243279	-0.019737
H138	H	0.459706	0.319621	1.092785
Cl139	Cl	0.573700	0.206938	0.304560
Cl140	Cl	1.336100	-0.309741	0.533304
Cl141	Cl	0.307823	0.422892	0.617065
Cl142	Cl	1.083566	-0.002150	0.174577
Cl143	Cl	0.307835	0.158474	1.291394
H144	H	0.459698	0.001262	0.928006
Cl145	Cl	0.307908	0.422784	1.291355
H146	H	0.256741	0.566846	1.249012
Cl147	Cl	0.573703	0.676247	0.773875
H148	H	1.235397	-0.145542	0.016223
H149	H	0.324371	0.594316	1.087113
H150	H	1.235426	-0.310380	0.469138
H151	H	1.100113	-0.200490	0.340023
Cl152	Cl	0.083589	0.094773	0.681519
H153	H	0.945629	0.542667	0.521613
H154	H	1.100115	-0.200496	0.493623
H155	H	1.100098	0.282673	0.340052
H156	H	1.100120	0.117896	0.175235
H157	H	0.945622	0.771403	0.521614
H158	H	1.235447	-0.310366	0.180944
Cl159	Cl	0.307884	-0.046514	1.086320
H160	H	1.303091	-0.282894	0.019040
H161	H	0.415386	0.211890	0.563896
H162	H	0.945621	0.089778	0.068714
H163	H	0.256723	0.566913	0.728825
Cl164	Cl	0.986077	0.077038	0.192241
Cl165	Cl	0.307900	0.627840	0.822054
H166	H	1.235414	0.307315	0.181029
Cl167	Cl	0.476177	0.189170	1.093533
H168	H	1.235455	0.142549	0.016194
H169	H	0.347622	0.282033	0.493866
Cl170	Cl	0.083580	0.299770	0.476518
Cl171	Cl	0.252135	0.330283	0.445770
Cl172	Cl	0.111340	0.066058	0.710189
H173	H	0.324188	-0.023232	0.799161
Cl174	Cl	0.195625	-0.021191	0.797317
Cl175	Cl	1.083579	-0.002165	0.681515
H176	H	0.459672	0.001284	0.774452
H177	H	0.945637	0.408134	0.521616
H178	H	0.945628	0.636862	0.521618
H179	H	0.614152	0.741273	0.746441
H180	H	0.614165	0.512541	0.746435
H181	H	0.945635	0.089756	-0.160020
H182	H	0.614148	0.194191	0.428079
H183	H	0.614164	0.194165	0.064804
Cl184	Cl	0.573701	0.206918	0.243214
