data_functionalizedCrystal
_audit_creation_method	'MofGen! by Chris Wilmer'
_symmetry_space_group_name_H-M	'P1'
_symmetry_Int_Tables_number	1
_symmetry_cell_setting	triclinic
loop_
_symmetry_equiv_pos_as_xyz
  x,y,z
_cell_length_a	17.699083
_cell_length_b	16.776229
_cell_length_c	17.699083
_cell_angle_alpha	89.995692
_cell_angle_beta	83.283015
_cell_angle_gamma	90.000703
loop_
_atom_site_label
_atom_site_type_symbol
_atom_site_fract_x
_atom_site_fract_y
_atom_site_fract_z
O1	O	-1.004077	0.066170	-0.095710
O2	O	-0.783699	0.066198	-0.108162
O3	O	-0.900114	0.066176	0.008253
O4	O	-0.887662	0.066192	-0.212125
O5	O	-0.900101	-0.066400	0.008254
O6	O	-0.783686	-0.066378	-0.108162
O7	O	-1.004064	-0.066406	-0.095709
Zn8	Zn	-0.893873	-0.087442	-0.101935
Zn9	Zn	-0.893890	0.087233	-0.101936
O10	O	-0.887649	-0.066385	-0.212125
C11	C	-0.755495	-0.000087	-0.107716
C12	C	-0.671477	-0.000076	-0.106377
N13	N	-0.893867	-0.206653	-0.101935
C14	C	-0.622856	-0.000071	-0.174710
C15	C	-0.543913	-0.000081	-0.173448
C16	C	-0.513592	-0.000090	-0.103852
C17	C	-0.562219	-0.000097	-0.035513
C18	C	-0.641161	-0.000093	-0.036776
C19	C	-0.243856	-0.000115	-0.030418
C20	C	-0.164908	-0.000117	-0.029160
C21	C	-0.146608	-0.000103	-0.167090
C22	C	-0.225550	-0.000098	-0.168353
C23	C	-0.274170	-0.000110	-0.100015
C24	C	-0.359769	-0.000101	-0.101384
C25	C	-0.427995	-0.000093	-0.102481
C26	C	-0.032268	-0.000118	-0.096156
C27	C	-0.116286	-0.000117	-0.097494
C28	C	-0.939682	-0.248369	-0.147783
C29	C	-0.939690	-0.331822	-0.147781
C30	C	-0.893879	-0.373556	-0.101933
C31	C	-0.848062	-0.331834	-0.056079
C32	C	-0.848058	-0.248383	-0.056078
C33	C	-0.848077	-0.668381	-0.056080
C34	C	-0.848083	-0.751837	-0.056085
C35	C	-0.939709	-0.751819	-0.147782
C36	C	-0.939705	-0.668369	-0.147781
C37	C	-0.893892	-0.626654	-0.101925
C38	C	-0.893884	-0.536165	-0.101927
C39	C	-0.893882	-0.464043	-0.101933
N40	N	-0.893903	0.206445	-0.101931
C41	C	-0.899662	-0.000112	0.036451
C42	C	-0.898323	-0.000112	0.120469
C43	C	-0.888102	-0.000095	-0.240322
C44	C	-0.889440	-0.000089	-0.324340
C45	C	-0.966656	-0.000122	0.169090
C46	C	-0.965394	-0.000115	0.248033
C47	C	-0.895798	-0.000103	0.278354
C48	C	-0.827459	-0.000091	0.229727
C49	C	-0.828722	-0.000093	0.150785
C50	C	-0.822364	-0.000084	0.548090
C51	C	-0.821106	-0.000085	0.627038
C52	C	-0.959036	-0.000106	0.645338
C53	C	-0.960299	-0.000108	0.566396
C54	C	-0.891961	-0.000091	0.517776
C55	C	-0.893330	-0.000098	0.432177
C56	C	-0.894427	-0.000103	0.363951
H57	H	-0.647537	-0.000063	-0.231384
C58	C	-0.490430	-0.000078	-0.248616
C59	C	-0.523780	-0.000065	-0.325171
C60	C	-0.470297	-0.000067	-0.400343
C61	C	-0.383463	-0.000082	-0.398960
C62	C	-0.350108	-0.000095	-0.322402
C63	C	-0.403592	-0.000093	-0.247231
H64	H	-0.588064	-0.000054	-0.326197
H65	H	-0.494988	-0.000058	-0.457016
H66	H	-0.343871	-0.000084	-0.454607
H67	H	-0.285825	-0.000107	-0.321376
H68	H	-0.378900	-0.000103	-0.190558
C69	C	-0.990111	-0.797708	-0.198222
C70	C	-0.990123	-0.889500	-0.198227
C71	C	-1.040519	-0.935385	-0.248669
C72	C	-1.090903	-0.889478	-0.299107
C73	C	-1.090893	-0.797681	-0.299103
C74	C	-1.040497	-0.751795	-0.248661
H75	H	-0.952823	-0.923488	-0.160889
H76	H	-1.040526	-1.003340	-0.248671
H77	H	-1.128210	-0.923445	-0.336447
H78	H	-1.128192	-0.763693	-0.336442
H79	H	-1.040490	-0.683840	-0.248659
H80	H	-1.021038	-0.000125	0.287618
H81	H	-1.014680	-0.000115	0.684934
C82	C	-1.036856	-0.000116	0.533044
C83	C	-1.112024	-0.000119	0.586526
C84	C	-1.188582	-0.000122	0.553175
C85	C	-1.189973	-0.000122	0.466343
C86	C	-1.114802	-0.000119	0.412855
C87	C	-1.038244	-0.000116	0.446206
H88	H	-1.110997	-0.000119	0.650809
H89	H	-1.244229	-0.000125	0.592771
H90	H	-1.246646	-0.000124	0.441654
H91	H	-1.115829	-0.000119	0.348572
H92	H	-0.982598	-0.000113	0.406611
H93	H	-0.537526	-0.000116	0.021154
C94	C	-0.297332	-0.000114	0.044752
C95	C	-0.263977	-0.000113	0.121305
C96	C	-0.317457	-0.000108	0.196479
C97	C	-0.404291	-0.000103	0.195101
C98	C	-0.437650	-0.000104	0.118545
C99	C	-0.384171	-0.000109	0.043371
H100	H	-0.199693	-0.000116	0.122327
H101	H	-0.292762	-0.000107	0.253150
H102	H	-0.443880	-0.000099	0.250749
H103	H	-0.501934	-0.000101	0.117523
H104	H	-0.408866	-0.000110	-0.013300
C105	C	-0.990076	-0.202465	-0.198217
C106	C	-1.076990	-0.213936	-0.186950
C107	C	-1.127388	-0.168034	-0.237383
C108	C	-1.090872	-0.110661	-0.299083
C109	C	-1.003954	-0.099187	-0.310353
C110	C	-0.953556	-0.145089	-0.259920
H111	H	-1.104025	-0.256410	-0.141273
H112	H	-1.191731	-0.176528	-0.229040
H113	H	-1.128180	-0.076682	-0.336417
H114	H	-0.976918	-0.056714	-0.356030
H115	H	-0.889213	-0.136595	-0.268263
H116	H	-0.976999	-0.365783	-0.185114
C117	C	-0.747194	-0.000083	0.494614
C118	C	-0.670641	-0.000084	0.527969
C119	C	-0.595467	-0.000089	0.474489
C120	C	-0.596845	-0.000093	0.387655
C121	C	-0.673401	-0.000092	0.354296
C122	C	-0.748575	-0.000087	0.407775
H123	H	-0.669618	-0.000081	0.592253
H124	H	-0.538796	-0.000090	0.499184
H125	H	-0.541197	-0.000097	0.348066
H126	H	-0.674423	-0.000095	0.290012
H127	H	-0.805246	-0.000087	0.383080
C128	C	-0.797692	-0.797747	-0.005644
C129	C	-0.747301	-0.751865	0.044799
C130	C	-0.696914	-0.797776	0.095236
C131	C	-0.696917	-0.889568	0.095230
C132	C	-0.747309	-0.935455	0.044784
C133	C	-0.797697	-0.889545	-0.005653
H134	H	-0.747298	-0.683910	0.044806
H135	H	-0.659609	-0.763806	0.132580
H136	H	-0.659616	-0.923554	0.132566
H137	H	-0.747313	-1.003410	0.044777
H138	H	-0.835001	-0.923514	-0.042996
H139	H	-0.810773	-0.634427	-0.018740
H140	H	-0.770792	-0.000077	0.254420
C141	C	-0.797660	-0.377739	-0.005653
C142	C	-0.797651	-0.469531	-0.005661
C143	C	-0.747242	-0.515434	0.044760
C144	C	-0.696841	-0.469545	0.095189
C145	C	-0.696848	-0.377747	0.095198
C146	C	-0.747257	-0.331844	0.044777
H147	H	-0.834963	-0.503506	-0.042992
H148	H	-0.747237	-0.583389	0.044753
H149	H	-0.659525	-0.503525	0.132513
H150	H	-0.659536	-0.343772	0.132530
H151	H	-0.747262	-0.263889	0.044785
H152	H	-0.250232	-0.000087	-0.225025
H153	H	-0.764429	-0.000077	0.651721
H154	H	-0.773078	-0.000085	0.111198
H155	H	-0.107012	-0.000097	-0.222734
C156	C	-0.990099	-0.622463	-0.198215
C157	C	-1.077013	-0.633933	-0.186949
C158	C	-1.127410	-0.588029	-0.237381
C159	C	-1.090893	-0.530655	-0.299080
C160	C	-1.003974	-0.519182	-0.310349
C161	C	-0.953577	-0.565086	-0.259917
H162	H	-1.104049	-0.676407	-0.141273
H163	H	-1.191753	-0.596522	-0.229039
H164	H	-1.128200	-0.496674	-0.336413
H165	H	-0.976938	-0.476708	-0.356025
H166	H	-0.889234	-0.556593	-0.268259
C167	C	-0.797660	-0.202491	-0.005646
C168	C	-0.834176	-0.145128	0.056054
C169	C	-0.783779	-0.099236	0.106491
C170	C	-0.696866	-0.110708	0.095228
C171	C	-0.660344	-0.168074	0.033526
C172	C	-0.710741	-0.213965	-0.016911
H173	H	-0.898519	-0.136633	0.064393
H174	H	-0.810815	-0.056770	0.152167
H175	H	-0.659559	-0.076736	0.132565
H176	H	-0.596002	-0.176568	0.025187
H177	H	-0.683705	-0.256431	-0.062587
H178	H	-0.140225	-0.000125	0.027517
H179	H	-0.680748	-0.000097	0.018868
H180	H	-1.023330	-0.000136	0.144409
