data_functionalizedCrystal
_audit_creation_method	'MofGen! by Chris Wilmer'
_symmetry_space_group_name_H-M	'P1'
_symmetry_Int_Tables_number	1
_symmetry_cell_setting	triclinic
loop_
_symmetry_equiv_pos_as_xyz
  x,y,z
_cell_length_a	14.971486
_cell_length_b	13.596369
_cell_length_c	14.971486
_cell_angle_alpha	90.006197
_cell_angle_beta	83.614129
_cell_angle_gamma	90.000368
loop_
_atom_site_label
_atom_site_type_symbol
_atom_site_fract_x
_atom_site_fract_y
_atom_site_fract_z
O1	O	1.186946	0.081679	0.116564
O2	O	0.926545	0.081706	0.130523
O3	O	1.063725	0.081684	-0.006656
O4	O	1.049766	0.081700	0.253744
O5	O	1.063711	-0.081898	-0.006664
O6	O	0.926532	-0.081877	0.130516
O7	O	1.186932	-0.081904	0.116557
Zn8	Zn	1.056730	-0.107863	0.123535
Zn9	Zn	1.056748	0.107665	0.123545
O10	O	1.049752	-0.081883	0.253736
C11	C	0.893214	-0.000082	0.129895
C12	C	0.793917	-0.000072	0.128024
N13	N	1.056724	-0.254955	0.123528
C14	C	0.736692	-0.000069	0.208614
C15	C	0.643392	-0.000084	0.206850
C16	C	0.607320	-0.000095	0.124497
C17	C	0.664552	-0.000101	0.043902
C18	C	0.757850	-0.000094	0.045666
C19	C	0.470090	-0.000115	0.040231
C20	C	0.376786	-0.000121	0.038466
C21	C	0.355632	-0.000105	0.201415
C22	C	0.448930	-0.000098	0.203179
C23	C	0.506156	-0.000102	0.122584
C24	C	1.056746	-0.656246	0.123546
C25	C	1.056738	-0.544594	0.123544
C26	C	1.056736	-0.455604	0.123538
C27	C	1.056726	-0.343945	0.123534
C28	C	1.220263	-0.000114	0.117185
C29	C	1.319561	-0.000118	0.119056
C30	C	1.063094	-0.000107	-0.039985
C31	C	1.061223	-0.000106	-0.139282
N32	N	1.056761	0.254756	0.123545
C33	C	1.141812	-0.000115	-0.196507
C34	C	1.140049	-0.000105	-0.289807
C35	C	1.057696	-0.000092	-0.325879
C36	C	0.977101	-0.000080	-0.268646
C37	C	0.978865	-0.000084	-0.175349
C38	C	0.973430	-0.000077	-0.463109
C39	C	0.971665	-0.000075	-0.556413
C40	C	1.134614	-0.000098	-0.577567
C41	C	1.136378	-0.000101	-0.484269
C42	C	1.055782	-0.000090	-0.427043
C43	C	1.050384	-0.000090	0.287065
C44	C	1.052254	-0.000084	0.386362
H45	H	0.766054	-0.000059	0.275675
C46	C	0.880874	-0.084159	-0.345921
C47	C	0.884838	-0.000067	-0.400203
H48	H	0.826185	-0.084151	-0.307083
H49	H	0.883565	-0.141191	-0.382765
H50	H	0.930177	-0.084153	-0.311091
H51	H	0.835538	-0.000077	-0.435038
H52	H	0.882138	0.056980	-0.363355
C53	C	0.308871	0.084000	0.339764
C54	C	0.292734	-0.000104	0.290010
H55	H	0.270034	0.084005	0.394454
H56	H	0.369592	0.084002	0.352595
H57	H	0.297917	0.141031	0.305989
H58	H	0.303695	-0.057135	0.323783
H59	H	0.231999	-0.000115	0.277182
H60	H	1.203437	-0.000117	-0.454903
C61	C	0.587284	0.083978	-0.052308
C62	C	0.532999	-0.000117	-0.048358
H63	H	0.626125	0.083976	-0.106995
H64	H	0.550443	0.141009	-0.049611
H65	H	0.622111	0.083972	-0.003002
H66	H	0.498167	-0.000107	-0.097661
H67	H	0.569845	-0.057162	-0.051064
C68	C	0.526203	-0.084167	0.299404
C69	C	0.580487	-0.000071	0.295435
H70	H	0.487371	-0.084159	0.354097
H71	H	0.491374	-0.084174	0.250110
H72	H	0.563052	-0.141203	0.296711
H73	H	0.543638	0.056965	0.298121
H74	H	0.615319	-0.000055	0.344743
H75	H	0.910047	-0.000064	-0.298024
H76	H	1.200238	-0.000103	-0.624165
C77	C	0.407062	-0.000152	-0.122426
C78	C	0.337133	-0.000139	-0.052057
H79	H	0.382579	-0.000168	-0.178311
H80	H	0.443009	0.056891	-0.118355
H81	H	0.443013	-0.057200	-0.118343
H82	H	0.301185	0.056913	-0.056136
H83	H	0.301170	-0.057187	-0.056130
H84	H	1.208874	-0.000130	-0.167145
H85	H	0.635175	-0.000124	-0.023152
C86	C	0.875184	0.084037	-0.649070
C87	C	0.881146	-0.000054	-0.596074
H88	H	0.819303	0.084045	-0.673560
H89	H	0.879259	0.141070	-0.613107
H90	H	0.922940	0.084014	-0.696496
H91	H	0.833394	-0.000028	-0.548644
H92	H	0.877062	-0.057102	-0.632039
C93	C	0.769394	-0.000093	-0.115578
C94	C	0.820756	-0.000088	-0.042920
H95	H	0.808231	-0.000085	-0.170268
H96	H	0.732572	-0.057137	-0.112882
H97	H	0.732558	0.056953	-0.112867
H98	H	0.857588	-0.057138	-0.045628
H99	H	0.857594	0.056962	-0.045618
C100	C	1.232615	0.083988	-0.406976
C101	C	1.228639	-0.000111	-0.352704
H102	H	1.287313	0.083988	-0.445800
H103	H	1.183327	0.083991	-0.441813
H104	H	1.229917	0.141022	-0.370119
H105	H	1.231331	-0.057145	-0.389561
H106	H	1.277941	-0.000123	-0.317864
H107	H	0.913240	-0.000076	-0.128756
H108	H	0.478296	-0.000079	0.270239
