data_functionalizedCrystal
_audit_creation_method	'MofGen! by Chris Wilmer'
_symmetry_space_group_name_H-M	'P1'
_symmetry_Int_Tables_number	1
_symmetry_cell_setting	triclinic
loop_
_symmetry_equiv_pos_as_xyz
  x,y,z
_cell_length_a	14.908783
_cell_length_b	14.908571
_cell_length_c	18.215399
_cell_angle_alpha	86.731625
_cell_angle_beta	86.680129
_cell_angle_gamma	83.202707
loop_
_atom_site_label
_atom_site_type_symbol
_atom_site_fract_x
_atom_site_fract_y
_atom_site_fract_z
Zn1	Zn	1.363021	0.280626	-0.493568
Zn2	Zn	1.354164	0.432005	-0.377206
Zn3	Zn	1.211646	0.289377	-0.363792
Zn4	Zn	1.202865	0.440673	-0.493507
O5	O	1.282924	0.360670	-0.432018
O6	O	1.488516	0.293417	-0.483772
O7	O	1.335227	0.413121	-0.272443
O8	O	1.239108	0.161546	-0.375419
O9	O	1.482009	0.404635	-0.398282
O10	O	1.350322	0.155116	-0.470765
O11	O	1.230520	0.308332	-0.262587
O12	O	1.083811	0.316736	-0.375359
O13	O	1.224141	0.419407	-0.596499
O14	O	1.077360	0.427893	-0.470660
O15	O	1.341807	0.301821	-0.596544
O16	O	1.326712	0.559826	-0.398222
O17	O	1.215553	0.566193	-0.483667
C18	C	1.047741	0.374205	-0.421548
C19	C	0.947128	0.380017	-0.417087
C20	C	0.764829	0.275286	-0.497877
C21	C	0.670294	0.280744	-0.493688
C22	C	0.663521	0.396386	-0.404516
C23	C	0.758056	0.390928	-0.408705
C24	C	0.808707	0.330377	-0.455388
C25	C	0.903244	0.324924	-0.459581
C26	C	0.896469	0.440561	-0.370405
C27	C	0.801934	0.446019	-0.366216
C28	C	1.269243	0.595852	-0.442411
C29	C	1.263473	0.696460	-0.446885
C30	C	1.282983	0.360605	-0.623971
C31	C	1.283008	0.360577	-0.705770
C32	C	1.519025	0.347083	-0.442530
C33	C	1.619637	0.341293	-0.447010
C34	C	1.197422	0.841611	-0.497632
C35	C	1.202841	0.747082	-0.493433
C36	C	1.318692	0.740373	-0.404534
C37	C	1.313273	0.834902	-0.408733
C38	C	1.252635	0.885518	-0.455283
C39	C	1.247211	0.980049	-0.459477
C40	C	1.363067	0.973338	-0.370583
C41	C	1.368486	0.878809	-0.366384
C42	C	1.296654	1.124570	-0.421593
C43	C	1.302430	1.023962	-0.417127
C44	C	1.344300	0.299294	-0.893987
C45	C	1.344313	0.299267	-0.970845
C46	C	1.221787	0.421715	-0.970787
C47	C	1.221771	0.421737	-0.893930
C48	C	1.283033	0.360528	-0.855532
C49	C	1.283061	0.360479	-1.009248
C50	C	1.283074	0.360450	-1.092581
C51	C	1.283019	0.360555	-0.772194
C52	C	1.282921	0.360667	-0.240812
C53	C	1.283086	0.360430	-0.159010
H54	H	0.634573	0.235881	-0.528285
F55	F	1.409528	0.234100	-1.011769
F56	F	1.409498	0.234148	-0.853124
H57	H	1.171874	0.471600	-0.862619
H58	H	1.171912	0.471551	-1.002060
H59	H	0.944482	0.275622	-0.497593
F60	F	0.748019	0.510455	-0.316534
F61	F	1.182672	1.033918	-0.509016
F62	F	0.609601	0.460814	-0.354829
F63	F	0.943173	0.499202	-0.325187
F64	F	0.818737	0.210852	-0.547566
H65	H	1.368069	0.699148	-0.366641
F66	F	1.132875	0.895483	-0.547162
H67	H	1.157882	0.711336	-0.527918
H68	H	1.408025	1.009097	-0.336099
F69	F	1.433021	0.824930	-0.316849
