data_functionalizedCrystal
_audit_creation_method	'MofGen! by Chris Wilmer'
_symmetry_space_group_name_H-M	'P1'
_symmetry_Int_Tables_number	1
_symmetry_cell_setting	triclinic
loop_
_symmetry_equiv_pos_as_xyz
  x,y,z
_cell_length_a	19.121102
_cell_length_b	18.050589
_cell_length_c	18.050582
_cell_angle_alpha	89.981795
_cell_angle_beta	87.546607
_cell_angle_gamma	87.582701
loop_
_atom_site_label
_atom_site_type_symbol
_atom_site_fract_x
_atom_site_fract_y
_atom_site_fract_z
Zn1	Zn	1.073672	-0.344221	-0.468310
Zn2	Zn	1.573672	0.155779	0.031690
Zn3	Zn	1.073587	-0.468400	-0.344126
Zn4	Zn	1.573587	0.031600	0.155874
Zn5	Zn	0.956231	-0.338926	-0.338843
Zn6	Zn	1.456231	0.161074	0.161157
Zn7	Zn	0.956182	-0.463065	-0.462984
Zn8	Zn	1.456182	0.036935	0.037016
O9	O	1.014918	-0.403653	-0.403566
O10	O	1.514918	0.096347	0.096434
O11	O	1.171944	-0.365142	-0.456277
O12	O	1.671944	0.134858	0.043723
O13	O	1.058005	-0.451242	-0.239500
O14	O	1.558005	0.048758	0.260500
O15	O	0.971866	-0.235706	-0.356035
O16	O	1.471866	0.264294	0.143965
O17	O	1.171882	-0.456376	-0.365039
O18	O	1.671882	0.043624	0.134961
O19	O	1.058149	-0.239596	-0.451154
O20	O	1.558149	0.260404	0.048846
O21	O	0.971784	-0.356118	-0.235618
O22	O	1.471784	0.143882	0.264382
O23	O	0.857941	-0.350944	-0.350871
O24	O	1.357941	0.149056	0.149129
O25	O	0.971782	-0.447283	-0.567616
O26	O	1.471782	0.052717	-0.067616
O27	O	0.857905	-0.442148	-0.442077
O28	O	1.357905	0.057852	0.057923
O29	O	1.058101	-0.359969	-0.571529
O30	O	1.558101	0.140031	-0.071529
O31	O	1.057957	-0.571614	-0.359875
O32	O	1.557957	-0.071614	0.140125
O33	O	0.971700	-0.567694	-0.447200
O34	O	1.471700	-0.067694	0.052800
C35	C	1.014833	-0.596601	-0.403550
C36	C	1.514833	-0.096601	0.096450
C37	C	1.014861	-0.679148	-0.403570
C38	C	1.514861	-0.179148	0.096430
C39	C	0.832439	-0.395393	-0.395323
C40	C	1.332439	0.104607	0.104677
C41	C	0.754374	-0.391878	-0.391815
C42	C	1.254374	0.108122	0.108185
C43	C	0.968001	-0.876496	-0.451043
C44	C	1.468001	-0.376496	0.048957
C45	C	0.950885	-0.925157	-0.382504
C46	C	1.450885	-0.425157	0.117496
C47	C	1.014930	-0.830282	-0.403583
C48	C	1.514930	-0.330282	0.096417
C49	C	1.032080	-0.928704	-0.472131
C50	C	1.532080	-0.428704	0.027869
C51	C	1.014996	-0.976270	-0.403602
C52	C	1.514996	-0.476270	0.096398
C53	C	0.997781	-0.877853	-0.335007
C54	C	1.497781	-0.377853	0.164993
C55	C	1.079006	-0.881398	-0.424681
C56	C	1.579006	-0.381398	0.075319
C57	C	1.061915	-0.930037	-0.356097
C58	C	1.561915	-0.430037	0.143903
C59	C	1.014891	-0.746182	-0.403574
C60	C	1.514891	-0.246182	0.096426
C61	C	1.015035	-1.060368	-0.403604
C62	C	1.515035	-0.560368	0.096396
C63	C	0.717698	-0.437783	-0.437578
C64	C	1.217698	0.062217	0.062422
C65	C	0.644347	-0.434470	-0.434285
C66	C	1.144347	0.065530	0.065715
C67	C	0.607673	-0.385255	-0.385224
C68	C	1.107673	0.114745	0.114776
C69	C	0.644354	-0.339345	-0.339459
C70	C	1.144354	0.160655	0.160541
C71	C	0.717704	-0.342654	-0.342756
C72	C	1.217704	0.157346	0.157244
C73	C	0.386206	-0.372879	-0.372900
C74	C	0.886206	0.127121	0.127100
C75	C	0.312851	-0.369574	-0.369604
C76	C	0.812851	0.130426	0.130396
C77	C	0.312849	-0.464698	-0.464431
C78	C	0.812849	0.035302	0.035569
C79	C	0.386200	-0.468007	-0.467721
C80	C	0.886200	0.031993	0.032279
C81	C	0.422874	-0.422094	-0.421959
C82	C	0.922874	0.077906	0.078041
C83	C	0.532697	-0.381869	-0.381855
C84	C	1.032697	0.118131	0.118145
C85	C	0.497849	-0.425477	-0.425332
C86	C	0.997849	0.074523	0.074668
C87	C	1.198110	-0.411945	-0.411841
C88	C	1.698110	0.088055	0.088159
C89	C	1.276175	-0.415479	-0.415367
C90	C	1.776175	0.084521	0.084633
C91	C	1.014946	-0.403621	-0.597273
C92	C	1.514946	0.096379	-0.097273
C93	C	1.014957	-0.403608	-0.679819
C94	C	1.514957	0.096392	-0.179819
C95	C	1.015022	-0.209952	-0.403599
C96	C	1.515022	0.290048	0.096401
C97	C	1.015067	-0.127408	-0.403613
C98	C	1.515067	0.372592	0.096387
C99	C	0.968053	-0.451023	-0.877144
C100	C	1.468053	0.048977	-0.377144
C101	C	1.032131	-0.472072	-0.929423
C102	C	1.532131	0.027928	-0.429423
C103	C	1.014992	-0.403553	-0.830951
C104	C	1.514992	0.096447	-0.330951
C105	C	0.950950	-0.382485	-0.925755
C106	C	1.450950	0.117515	-0.425755
C107	C	1.015020	-0.403500	-0.976938
C108	C	1.515020	0.096500	-0.476938
C109	C	1.079103	-0.424638	-0.882145
C110	C	1.579103	0.075362	-0.382145
C111	C	0.997879	-0.335018	-0.878470
C112	C	1.497879	0.164982	-0.378470
C113	C	1.062001	-0.356043	-0.930729
C114	C	1.562001	0.143957	-0.430729
C115	C	1.014975	-0.403584	-0.746852
C116	C	1.514975	0.096416	-0.246852
C117	C	1.015044	-0.403469	-1.061035
C118	C	1.515044	0.096531	-0.561035
C119	C	1.014931	-0.403633	-0.210614
C120	C	1.514931	0.096367	0.289386
C121	C	1.015056	-0.403443	-0.128075
C122	C	1.515056	0.096557	0.371925
H123	H	0.928256	-0.853053	-0.491115
H124	H	1.428256	-0.353053	0.008885
Cl125	Cl	0.763795	-0.499660	-0.499254
Cl126	Cl	1.263795	0.000340	0.000746
H127	H	0.928395	-0.491224	-0.853688
H128	H	1.428395	0.008776	-0.353688
H129	H	1.101754	-0.315879	-0.954054
H130	H	1.601754	0.184121	-0.454054
H131	H	1.046560	-0.951014	-0.530094
H132	H	1.546560	-0.451014	-0.030094
H133	H	0.282981	-0.502077	-0.501689
H134	H	0.782981	-0.002077	-0.001689
Cl135	Cl	1.054505	-0.561520	-0.963942
Cl136	Cl	1.554505	-0.061520	-0.463942
H137	H	1.133291	-0.442501	-0.862985
H138	H	1.633291	0.057499	-0.362985
H139	H	0.983369	-0.277097	-0.856096
H140	H	1.483369	0.222903	-0.356096
H141	H	0.896778	-0.364687	-0.945007
H142	H	1.396778	0.135313	-0.445007
H143	H	0.896729	-0.944490	-0.364675
H144	H	1.396729	-0.444490	0.135325
H145	H	0.614489	-0.471851	-0.471549
H146	H	1.114489	0.028149	0.028451
Cl147	Cl	0.486587	-0.320000	-0.320181
Cl148	Cl	0.986587	0.180000	0.179819
H149	H	0.983239	-0.855630	-0.277026
H150	H	1.483239	-0.355630	0.222974
Cl151	Cl	1.123233	-0.966020	-0.294073
Cl152	Cl	1.623233	-0.466020	0.205927
H153	H	0.416054	-0.508085	-0.507670
H154	H	0.916054	-0.008085	-0.007670
Cl155	Cl	1.162601	-0.851547	-0.452258
Cl156	Cl	1.662601	-0.351547	0.047742
H157	H	0.282993	-0.329488	-0.329658
H158	H	0.782993	0.170512	0.170342
H159	H	0.416057	-0.335499	-0.335631
H160	H	0.916057	0.164501	0.164369
H161	H	0.614489	-0.299269	-0.299516
H162	H	1.114489	0.200731	0.200484
H163	H	0.747564	-0.305270	-0.305495
H164	H	1.247564	0.194730	0.194505
Cl165	Cl	0.543954	-0.487345	-0.487006
Cl166	Cl	1.043954	0.012655	0.012994
