data_functionalizedCrystal
_audit_creation_method	'MofGen! by Chris Wilmer'
_symmetry_space_group_name_H-M	'P1'
_symmetry_Int_Tables_number	1
_symmetry_cell_setting	triclinic
loop_
_symmetry_equiv_pos_as_xyz
  x,y,z
_cell_length_a	16.109302
_cell_length_b	16.109298
_cell_length_c	15.186229
_cell_angle_alpha	90.001652
_cell_angle_beta	89.994701
_cell_angle_gamma	83.460985
loop_
_atom_site_label
_atom_site_type_symbol
_atom_site_fract_x
_atom_site_fract_y
_atom_site_fract_z
O1	O	1.103129	0.106869	-0.073257
O2	O	1.603129	0.606869	0.426743
O3	O	0.861067	0.120168	-0.073249
O4	O	1.361067	0.620168	0.426751
O5	O	0.988749	-0.007513	-0.073260
O6	O	1.488749	0.492487	0.426740
O7	O	0.975447	0.234550	-0.073247
O8	O	1.475447	0.734550	0.426753
O9	O	0.988741	-0.007514	0.073197
O10	O	1.488741	0.492486	0.573197
O11	O	0.861058	0.120166	0.073208
O12	O	1.361058	0.620166	0.573208
O13	O	1.103121	0.106867	0.073200
O14	O	1.603121	0.606867	0.573200
Zn15	Zn	0.982088	0.113516	0.096457
Zn16	Zn	1.482088	0.613516	0.596457
Zn17	Zn	0.982099	0.113519	-0.096507
Zn18	Zn	1.482099	0.613519	0.403493
O19	O	0.975438	0.234548	0.073210
O20	O	1.475438	0.734548	0.573210
C21	C	0.830088	0.119628	-0.000020
C22	C	1.330088	0.619628	0.499980
C23	C	0.737793	0.118013	-0.000017
C24	C	1.237793	0.618013	0.499983
C25	C	0.988206	-0.038489	-0.000035
C26	C	1.488206	0.461511	0.499965
C27	C	0.986592	-0.130784	-0.000045
C28	C	1.486592	0.369216	0.499955
C29	C	0.525447	0.114277	0.079808
C30	C	1.025447	0.614277	0.579808
C31	C	0.438727	0.112750	0.079805
C32	C	0.938727	0.612750	0.579805
C33	C	0.438747	0.112756	-0.079871
C34	C	0.938747	0.612756	0.420129
C35	C	0.525466	0.114277	-0.079867
C36	C	1.025466	0.614277	0.420133
C37	C	0.568813	0.115041	-0.000025
C38	C	1.068813	0.615041	0.499975
C39	C	0.395374	0.111994	-0.000032
C40	C	0.895374	0.611994	0.499968
C41	C	0.301348	0.110338	-0.000036
C42	C	0.801348	0.610338	0.499964
C43	C	0.662845	0.116695	-0.000021
C44	C	1.162845	0.616695	0.499979
C45	C	0.981330	-0.429852	-0.079860
C46	C	1.481330	0.070148	0.420140
C47	C	0.982858	-0.343132	-0.079866
C48	C	1.482858	0.156868	0.420134
C49	C	0.982860	-0.343119	0.079809
C50	C	1.482860	0.156881	0.579809
C51	C	0.981338	-0.429839	0.079815
C52	C	1.481338	0.070161	0.579815
C53	C	0.980569	-0.473202	-0.000023
C54	C	1.480569	0.026798	0.499977
C55	C	0.983619	-0.299763	-0.000034
C56	C	1.483619	0.200237	0.499966
C57	C	0.985275	-0.205737	-0.000041
C58	C	1.485275	0.294263	0.499959
C59	C	0.978914	-0.567234	-0.000017
C60	C	1.478914	-0.067234	0.499983
C61	C	1.134100	0.107407	-0.000032
C62	C	1.634100	0.607407	0.499968
C63	C	1.226395	0.109022	-0.000040
C64	C	1.726395	0.609022	0.499960
C65	C	0.975981	0.265524	-0.000017
C66	C	1.475981	0.765524	0.499983
C67	C	0.977595	0.357819	-0.000012
C68	C	1.477595	0.857819	0.499988
N69	N	0.982087	0.113514	0.228150
N70	N	1.482087	0.613514	0.728150
N71	N	0.982108	0.113514	-0.228199
N72	N	1.482108	0.613514	0.271801
C73	C	1.038643	0.056996	0.453868
C74	C	1.538643	0.556996	0.953868
C75	C	1.038646	0.056994	0.546058
C76	C	1.538646	0.556994	1.046058
C77	C	0.925545	0.170035	0.546076
C78	C	1.425545	0.670035	1.046076
C79	C	0.925539	0.170032	0.453888
C80	C	1.425539	0.670032	0.953888
C81	C	0.982093	0.113514	0.407787
C82	C	1.482093	0.613514	0.907787
C83	C	0.982101	0.113515	0.592164
C84	C	1.482101	0.613515	1.092164
C85	C	0.982104	0.113513	0.692120
C86	C	1.482104	0.613513	1.192120
C87	C	0.982090	0.113514	0.307824
C88	C	1.482090	0.613514	0.807824
H89	H	0.560738	0.114899	0.144820
H90	H	1.060738	0.614899	0.644820
H91	H	0.879484	0.216056	0.416366
H92	H	1.379484	0.716056	0.916366
C93	C	0.980498	-0.477527	0.167640
C94	C	1.480498	0.022473	0.667640
H95	H	0.981162	-0.439281	0.215188
H96	H	1.481162	0.060719	0.715188
H97	H	1.028358	-0.517712	0.170955
H98	H	1.528358	-0.017712	0.670955
H99	H	0.931444	-0.504998	0.170963
H100	H	1.431444	-0.004998	0.670963
H101	H	0.403422	0.112127	0.144813
H102	H	0.903422	0.612127	0.644813
H103	H	1.084692	0.010975	0.416334
H104	H	1.584692	0.510975	0.916334
H105	H	0.560776	0.114897	-0.144880
H106	H	1.060776	0.614897	0.355120
H107	H	0.879501	0.216052	0.583621
H108	H	1.379501	0.716052	1.083621
C109	C	0.980509	-0.477552	-0.167677
C110	C	1.480509	0.022448	0.332323
H111	H	0.981193	-0.439313	-0.215225
H112	H	1.481193	0.060687	0.284775
H113	H	0.931466	-0.505034	-0.171004
H114	H	1.431466	-0.005034	0.328996
H115	H	1.028381	-0.517731	-0.170986
H116	H	1.528381	-0.017731	0.329014
C117	C	1.100850	-0.005173	0.596748
C118	C	1.600850	0.494827	1.096748
H119	H	1.092750	0.002914	0.658255
H120	H	1.592750	0.502914	1.158255
H121	H	1.156332	0.003870	0.581633
H122	H	1.656332	0.503870	1.081633
H123	H	1.091831	-0.060667	0.581637
H124	H	1.591831	0.439333	1.081637
C125	C	0.983689	-0.295449	-0.167688
C126	C	1.483689	0.204551	0.332312
H127	H	0.983007	-0.333697	-0.215231
H128	H	1.483007	0.166303	0.284769
H129	H	1.032737	-0.267977	-0.171019
H130	H	1.532737	0.232023	0.328981
H131	H	0.935823	-0.255265	-0.171000
H132	H	1.435823	0.244735	0.329000
C133	C	0.983696	-0.295416	0.167623
C134	C	1.483696	0.204584	0.667623
H135	H	0.984702	-0.237559	0.156187
H136	H	1.484702	0.262441	0.656187
H137	H	1.031899	-0.315978	0.200425
H138	H	1.531899	0.184022	0.700425
H139	H	0.934985	-0.303271	0.200428
H140	H	1.434985	0.196729	0.700428
C141	C	0.391061	0.111927	-0.167690
C142	C	0.891061	0.611927	0.332310
H143	H	0.333201	0.110920	-0.156260
H144	H	0.833201	0.610920	0.343740
H145	H	0.411629	0.063725	-0.200501
H146	H	0.911629	0.563725	0.299499
H147	H	0.398923	0.160639	-0.200483
H148	H	0.898923	0.660639	0.299517
