data_functionalizedCrystal
_audit_creation_method	'MofGen! by Chris Wilmer'
_symmetry_space_group_name_H-M	'P1'
_symmetry_Int_Tables_number	1
_symmetry_cell_setting	triclinic
loop_
_symmetry_equiv_pos_as_xyz
  x,y,z
_cell_length_a	15.944551
_cell_length_b	15.021413
_cell_length_c	15.944551
_cell_angle_alpha	89.999557
_cell_angle_beta	83.498738
_cell_angle_gamma	89.988701
loop_
_atom_site_label
_atom_site_type_symbol
_atom_site_fract_x
_atom_site_fract_y
_atom_site_fract_z
O1	O	1.114511	0.073941	0.108326
O2	O	0.869961	0.073964	0.121682
O3	O	0.998914	0.073944	-0.007271
O4	O	0.985558	0.073961	0.237279
O5	O	0.998929	-0.074121	-0.007263
O6	O	0.869976	-0.074101	0.121690
O7	O	1.114526	-0.074123	0.108334
Zn8	Zn	0.992254	-0.097620	0.115013
Zn9	Zn	0.992234	0.097461	0.115003
O10	O	0.985573	-0.074103	0.237287
C11	C	0.838675	-0.000066	0.121132
C12	C	0.745429	-0.000057	0.119470
N13	N	0.992273	-0.230758	0.115020
C14	C	0.530572	-0.000081	0.035565
C15	C	0.469545	0.072926	0.074524
C16	C	0.574703	-0.000068	0.116462
C17	C	0.469582	-0.073054	0.074551
C18	C	0.409790	-0.000083	0.113551
C19	C	0.514904	0.072998	0.155443
C20	C	0.514947	-0.073047	0.155459
C21	C	0.453937	-0.000023	0.194476
C22	C	0.669705	-0.000059	0.118137
C23	C	0.314789	-0.000085	0.111883
C24	C	1.051913	-0.470426	0.055379
C25	C	0.976013	-0.529750	0.039061
C26	C	0.992254	-0.412365	0.115010
C27	C	1.068135	-0.529783	0.131277
C28	C	0.992242	-0.587789	0.114997
C29	C	0.916316	-0.470382	0.098655
C30	C	1.008487	-0.470410	0.190904
C31	C	0.932533	-0.529706	0.174619
C32	C	0.992262	-0.311307	0.115014
C33	C	0.992225	-0.688844	0.114993
C34	C	1.145813	-0.000092	0.108885
C35	C	1.239059	-0.000094	0.110547
C36	C	0.998367	-0.000089	-0.038561
C37	C	0.996705	-0.000089	-0.131807
N38	N	0.992221	0.230598	0.114990
C39	C	0.912801	-0.000069	-0.346663
C40	C	0.951771	-0.073077	-0.407677
C41	C	0.993698	-0.000082	-0.302533
C42	C	0.951775	0.072903	-0.407668
C43	C	0.990787	-0.000071	-0.467445
C44	C	1.032690	-0.073150	-0.362318
C45	C	1.032683	0.072895	-0.362303
C46	C	1.071711	-0.000131	-0.423298
C47	C	0.995372	-0.000089	-0.207530
C48	C	0.989119	-0.000070	-0.562446
C49	C	0.986120	-0.000069	0.268577
C50	C	0.987782	-0.000063	0.361823
H51	H	0.563905	0.000005	-0.031573
H52	H	1.066884	-0.134941	-0.342324
H53	H	1.102312	-0.444397	0.004923
C54	C	0.541896	0.156477	0.201621
N55	N	0.562229	0.219354	0.236398
C56	C	0.542161	-0.156429	0.201646
N57	N	0.562662	-0.219239	0.236427
H58	H	0.449428	0.134642	0.040304
H59	H	0.962271	-0.555816	-0.025126
C60	C	0.409134	0.000039	0.285267
N61	N	0.375385	0.000091	0.353649
H62	H	0.449502	-0.134773	0.040323
H63	H	0.852124	-0.444399	0.084817
H64	H	0.882021	-0.555571	0.225045
H65	H	1.022253	-0.444325	0.255071
H66	H	1.132311	-0.555876	0.145043
H67	H	0.845652	-0.000136	-0.313356
H68	H	1.066863	0.134615	-0.342176
H69	H	0.917561	-0.134794	-0.427782
H70	H	1.138919	-0.000178	-0.456457
H71	H	0.917542	0.134630	-0.427748
