data_functionalizedCrystal
_audit_creation_method	'MofGen! by Chris Wilmer'
_symmetry_space_group_name_H-M	'P1'
_symmetry_Int_Tables_number	1
_symmetry_cell_setting	triclinic
loop_
_symmetry_equiv_pos_as_xyz
  x,y,z
_cell_length_a	12.827893
_cell_length_b	13.032721
_cell_length_c	12.827885
_cell_angle_alpha	97.149059
_cell_angle_beta	89.980538
_cell_angle_gamma	97.204267
loop_
_atom_site_label
_atom_site_type_symbol
_atom_site_fract_x
_atom_site_fract_y
_atom_site_fract_z
Zn1	Zn	1.544800	-0.415987	-0.643644
Zn2	Zn	1.878134	-0.082654	-0.310310
Zn3	Zn	2.211467	0.250680	0.023023
Zn4	Zn	1.522480	-0.590766	-0.491086
Zn5	Zn	1.855813	-0.257433	-0.157753
Zn6	Zn	2.189146	0.075901	0.175581
Zn7	Zn	1.370035	-0.416038	-0.468924
Zn8	Zn	1.703368	-0.082705	-0.135590
Zn9	Zn	2.036701	0.250629	0.197743
Zn10	Zn	1.347823	-0.590688	-0.665776
Zn11	Zn	1.681156	-0.257355	-0.332443
Zn12	Zn	2.014489	0.075978	0.000891
O13	O	1.446284	-0.503370	-0.567357
O14	O	1.779618	-0.170037	-0.234024
O15	O	2.112951	0.163297	0.099309
O16	O	1.688074	-0.439183	-0.623419
O17	O	2.021407	-0.105850	-0.290086
O18	O	2.354741	0.227483	0.043248
O19	O	1.502212	-0.567642	-0.341917
O20	O	1.835545	-0.234309	-0.008584
O21	O	2.168879	0.099025	0.324750
O22	O	1.411855	-0.269794	-0.473563
O23	O	1.745188	0.063539	-0.140230
O24	O	2.078521	0.396873	0.193103
O25	O	1.671675	-0.567593	-0.511336
O26	O	2.005009	-0.234259	-0.178002
O27	O	2.338342	0.099074	0.155331
O28	O	1.540254	-0.269756	-0.601929
O29	O	1.873588	0.063577	-0.268596
O30	O	2.206921	0.396910	0.064737
O31	O	1.390211	-0.439270	-0.325634
O32	O	1.723545	-0.105937	0.007699
O33	O	2.056878	0.227397	0.341032
O34	O	1.220854	-0.439194	-0.495024
O35	O	1.554187	-0.105861	-0.161691
O36	O	1.887520	0.227472	0.171642
O37	O	1.373998	-0.567460	-0.809070
O38	O	1.707331	-0.234127	-0.475736
O39	O	2.040664	0.099207	-0.142403
O40	O	1.204535	-0.567509	-0.639651
O41	O	1.537868	-0.234176	-0.306317
O42	O	1.871201	0.099157	0.027016
O43	O	1.518716	-0.439108	-0.792809
O44	O	1.852050	-0.105774	-0.459476
O45	O	2.185383	0.227559	-0.126142
O46	O	1.480674	-0.736993	-0.532797
O47	O	1.814007	-0.403660	-0.199463
O48	O	2.147341	-0.070327	0.133870
O49	O	1.352354	-0.736936	-0.661141
O50	O	1.685688	-0.403603	-0.327807
O51	O	2.019021	-0.070269	0.005526
C52	C	1.174777	-0.503350	-0.567335
C53	C	1.508110	-0.170016	-0.234002
C54	C	1.841444	0.163317	0.099332
C55	C	1.058622	-0.503366	-0.567353
C56	C	1.391955	-0.170033	-0.234020
C57	C	1.725288	0.163300	0.099313
C58	C	0.998777	-0.566960	-0.638834
C59	C	1.332110	-0.233626	-0.305501
C60	C	1.665444	0.099707	0.027833
C61	C	0.878724	-0.566978	-0.638854
C62	C	1.212058	-0.233645	-0.305521
C63	C	1.545391	0.099688	0.027812
C64	C	1.411710	-0.774882	-0.601798
C65	C	1.745044	-0.441549	-0.268465
C66	C	2.078377	-0.108216	0.064869
C67	C	1.397015	-0.891037	-0.616567
C68	C	1.730348	-0.557703	-0.283233
C69	C	2.063682	-0.224370	0.050100
C70	C	1.454009	-0.942815	-0.559696
C71	C	1.787343	-0.609482	-0.226363
C72	C	2.120676	-0.276149	0.106970
C73	C	1.438823	-1.062867	-0.574959
C74	C	1.772156	-0.729533	-0.241626
C75	C	2.105489	-0.396200	0.091707
C76	C	1.718852	-0.503391	-0.567381
C77	C	2.052185	-0.170058	-0.234047
C78	C	2.385518	0.163276	0.099286
C79	C	1.835004	-0.503400	-0.567391
C80	C	2.168337	-0.170066	-0.234057
C81	C	2.501670	0.163267	0.099276
C82	C	1.446369	-0.503270	-0.839915
C83	C	1.779702	-0.169936	-0.506582
C84	C	2.113036	0.163397	-0.173248
C85	C	1.446405	-0.503227	-0.956063
C86	C	1.779739	-0.169893	-0.622729
C87	C	2.113072	0.163440	-0.289396
C88	C	1.481022	-0.230797	-0.532805
C89	C	1.814355	0.102536	-0.199472
C90	C	2.147689	0.435869	0.133861
C91	C	1.495825	-0.114643	-0.518081
C92	C	1.829158	0.218690	-0.184748
C93	C	2.162492	0.552024	0.148586
C94	C	1.391006	-0.439692	-0.999789
C95	C	1.724339	-0.106358	-0.666455
C96	C	2.057672	0.226975	-0.333122
C97	C	1.391042	-0.439646	-1.119833
C98	C	1.724375	-0.106313	-0.786500
C99	C	2.057708	0.227021	-0.453167
C100	C	1.446270	-0.503394	-0.295851
C101	C	1.779603	-0.170061	0.037483
C102	C	2.112936	0.163272	0.370816
C103	C	1.446473	-0.503143	-0.179666
C104	C	1.779807	-0.169809	0.153667
C105	C	2.113140	0.163524	0.487001
H106	H	0.886431	-0.448956	-0.506187
H107	H	1.219765	-0.115623	-0.172854
H108	H	1.553098	0.217711	0.160480
N109	N	1.533536	-0.883810	-0.480233
N110	N	1.866869	-0.550476	-0.146900
N111	N	2.200203	-0.217143	0.186433
H112	H	1.514959	-0.902817	-0.407952
H113	H	1.848293	-0.569484	-0.074619
H114	H	2.181626	-0.236151	0.258715
H115	H	1.605793	-0.902694	-0.499001
H116	H	1.939127	-0.569361	-0.165667
H117	H	2.272460	-0.236028	0.167666
N118	N	0.810602	-0.639099	-0.719922
N119	N	1.143935	-0.305765	-0.386589
N120	N	1.477268	0.027568	-0.053256
H121	H	0.856278	-0.681525	-0.767610
H122	H	1.189612	-0.348192	-0.434276
H123	H	1.522945	-0.014859	-0.100943
H124	H	0.759156	-0.687375	-0.683392
H125	H	1.092489	-0.354042	-0.350058
H126	H	1.425822	-0.020709	-0.016725
N127	N	1.328204	-0.367595	-1.169672
N128	N	1.661538	-0.034262	-0.836339
N129	N	1.994871	0.299071	-0.503006
H130	H	1.337132	-0.377780	-1.248364
H131	H	1.670466	-0.044446	-0.915030
H132	H	2.003799	0.288887	-0.581697
H133	H	1.251480	-0.383857	-1.152698
H134	H	1.584814	-0.050524	-0.819365
H135	H	1.918147	0.282809	-0.486032
H136	H	1.493910	-0.557536	-1.142038
H137	H	1.827243	-0.224203	-0.808705
H138	H	2.160577	0.109130	-0.475372
H139	H	1.493860	-0.557589	-1.007500
H140	H	1.827194	-0.224255	-0.674167
H141	H	2.160527	0.109078	-0.340833
N142	N	1.008772	-0.431269	-0.486299
N143	N	1.342105	-0.097936	-0.152965
N144	N	1.675439	0.235397	0.180368
H145	H	0.969650	-0.382939	-0.522756
H146	H	1.302983	-0.049605	-0.189423
H147	H	1.636317	0.283728	0.143910
H148	H	0.958115	-0.473814	-0.443265
H149	H	1.291448	-0.140481	-0.109932
H150	H	1.624781	0.192853	0.223401
H151	H	1.036420	-0.621387	-0.700019
H152	H	1.369754	-0.288054	-0.366685
H153	H	1.703087	0.045280	-0.033352
H154	H	1.555872	-1.070100	-0.458092
H155	H	1.889205	-0.736767	-0.124759
H156	H	2.222539	-0.403434	0.208574
N157	N	1.359292	-1.121858	-0.654433
N158	N	1.692626	-0.788524	-0.321100
N159	N	2.025959	-0.455191	0.012233
H160	H	1.359717	-1.199256	-0.654073
H161	H	1.693050	-0.865923	-0.320740
H162	H	2.026384	-0.532589	0.012594
H163	H	1.287047	-1.102912	-0.635710
H164	H	1.620380	-0.769578	-0.302376
H165	H	1.953714	-0.436245	0.030957
H166	H	1.336981	-0.935584	-0.676559
H167	H	1.670314	-0.602251	-0.343226
H168	H	2.003647	-0.268918	-0.009892
N169	N	1.328134	-0.367685	-0.931669
N170	N	1.661467	-0.034352	-0.598335
N171	N	1.994800	0.298982	-0.265002
H172	H	1.337018	-0.377926	-0.855569
H173	H	1.670352	-0.044593	-0.522235
H174	H	2.003685	0.288741	-0.188902
H175	H	1.353901	-0.293027	-0.941227
H176	H	1.687234	0.040306	-0.607894
H177	H	2.020568	0.373639	-0.274561
