data_functionalizedCrystal
_audit_creation_method	'MofGen! by Chris Wilmer'
_symmetry_space_group_name_H-M	'P1'
_symmetry_Int_Tables_number	1
_symmetry_cell_setting	triclinic
loop_
_symmetry_equiv_pos_as_xyz
  x,y,z
_cell_length_a	10.654550
_cell_length_b	10.654546
_cell_length_c	9.730223
_cell_angle_alpha	90.000150
_cell_angle_beta	90.002803
_cell_angle_gamma	95.515773
loop_
_atom_site_label
_atom_site_type_symbol
_atom_site_fract_x
_atom_site_fract_y
_atom_site_fract_z
O1	O	1.667832	-0.176401	-0.114171
O2	O	1.302353	-0.193207	-0.114194
O3	O	1.493497	-0.002064	-0.114190
O4	O	1.476687	-0.367543	-0.114175
O5	O	1.493496	-0.002055	0.114390
O6	O	1.302351	-0.193198	0.114385
O7	O	1.667830	-0.176392	0.114409
Zn8	Zn	1.485090	-0.184794	0.150689
Zn9	Zn	1.485092	-0.184805	-0.150475
O10	O	1.476685	-0.367534	0.114405
C11	C	1.255554	-0.191968	0.000092
C12	C	1.116111	-0.188276	0.000082
C13	C	1.036624	-0.300818	0.000091
C14	C	0.905603	-0.297342	0.000115
C15	C	0.933569	-0.068772	0.000116
C16	C	1.064587	-0.072250	0.000102
C17	C	1.492263	0.044738	0.000095
C18	C	1.488573	0.184182	0.000080
C19	C	1.601115	0.263668	0.000086
C20	C	1.597640	0.394689	0.000066
C21	C	1.369071	0.366725	0.000041
C22	C	1.372547	0.235707	0.000050
C23	C	1.717141	0.212143	0.000115
C24	C	1.829693	0.291630	0.000123
C25	C	1.826218	0.422651	0.000104
C26	C	1.710192	0.474185	0.000077
C27	C	1.714629	-0.177630	0.000119
C28	C	1.854072	-0.181322	0.000120
C29	C	1.477922	0.585664	0.000099
C30	C	1.481622	0.446221	0.000051
N31	N	1.485095	-0.184804	-0.356011
C32	C	1.569894	-0.100334	-0.427935
C33	C	1.569899	-0.100327	-0.571818
C34	C	1.400295	-0.269264	-0.571840
C35	C	1.400296	-0.269276	-0.427960
N36	N	1.485098	-0.184785	0.356226
H37	H	0.891602	0.025693	0.000140
H38	H	1.638944	-0.031553	-0.369358
H39	H	1.719984	0.105460	0.000135
H40	H	1.129309	0.019401	0.000099
C41	C	1.957315	0.234939	0.000151
N42	N	2.053443	0.192242	0.000175
H43	H	1.917863	0.487366	0.000096
C44	C	1.706376	0.618313	0.000048
N45	N	1.703503	0.726870	0.000032
C46	C	1.307004	-0.362203	-0.348839
N47	N	1.236740	-0.432193	-0.289245
C48	C	1.093295	-0.428450	0.000087
N49	N	1.135975	-0.524587	0.000091
C50	C	1.663181	-0.007398	-0.650928
N51	N	1.733444	0.062600	-0.710513
H52	H	1.274607	0.408695	0.000021
H53	H	0.840889	-0.388985	0.000125
C54	C	1.307012	-0.362169	-0.650997
N55	N	1.236745	-0.432143	-0.710617
H56	H	1.280905	0.170987	0.000047
