data_functionalizedCrystal
_audit_creation_method	'MofGen! by Chris Wilmer'
_symmetry_space_group_name_H-M	'P1'
_symmetry_Int_Tables_number	1
_symmetry_cell_setting	triclinic
loop_
_symmetry_equiv_pos_as_xyz
  x,y,z
_cell_length_a	8.140239
_cell_length_b	14.971486
_cell_length_c	9.065218
_cell_angle_alpha	84.315007
_cell_angle_beta	89.998314
_cell_angle_gamma	90.002234
loop_
_atom_site_label
_atom_site_type_symbol
_atom_site_fract_x
_atom_site_fract_y
_atom_site_fract_z
O1	O	0.136418	-1.188375	-0.192256
O2	O	0.136461	-0.928147	-0.215279
O3	O	0.136435	-1.063640	0.010984
O4	O	0.136444	-1.052882	-0.418519
O5	O	-0.136792	-1.063632	0.010986
O6	O	-0.136766	-0.928139	-0.215277
O7	O	-0.136810	-1.188368	-0.192253
Zn8	Zn	-0.180168	-1.058252	-0.203765
Zn9	Zn	0.179820	-1.058262	-0.203768
O10	O	-0.136783	-1.052875	-0.418517
C11	C	-0.000146	-0.894811	-0.214249
C12	C	-0.000129	-0.795491	-0.211163
N13	N	-0.425851	-1.058252	-0.203761
C14	C	-0.000175	-1.062602	0.065951
C15	C	-0.000167	-1.059511	0.229731
N16	N	0.425503	-1.058270	-0.203760
C17	C	-0.000198	-1.221704	-0.193284
C18	C	-0.000204	-1.321024	-0.196370
C19	C	-0.000129	-0.739256	-0.344086
C20	C	-0.000154	-0.645935	-0.341178
C21	C	-0.000167	-0.608850	-0.205345
C22	C	-0.000172	-0.665092	-0.072412
C23	C	-0.000159	-0.758411	-0.075321
C24	C	-0.000195	-0.470584	-0.066357
C25	C	-0.000204	-0.377259	-0.063446
C26	C	-0.000189	-0.358108	-0.332214
C27	C	-0.000176	-0.451427	-0.335123
C28	C	-0.000179	-0.507663	-0.202189
C29	C	-0.000169	-1.053912	-0.473483
C30	C	-0.000167	-1.057004	-0.637264
H31	H	-0.000117	-0.769442	-0.454697
H32	H	-0.000217	-0.347068	0.047161
H33	H	-0.000195	-0.312316	-0.440454
O34	O	-0.000189	-0.531244	0.077018
H35	H	-0.000181	-0.489781	0.171962
H36	H	-0.000206	-0.634890	0.038186
H37	H	-0.000159	-0.804197	0.032919
H38	H	-0.000152	-0.600152	-0.449418
O39	O	-0.000183	-0.491432	-0.481624
H40	H	-0.000208	-0.436652	-0.573573
