data_functionalizedCrystal
_audit_creation_method	'MofGen! by Chris Wilmer'
_symmetry_space_group_name_H-M	'P1'
_symmetry_Int_Tables_number	1
_symmetry_cell_setting	triclinic
loop_
_symmetry_equiv_pos_as_xyz
  x,y,z
_cell_length_a	10.723024
_cell_length_b	10.723023
_cell_length_c	9.198806
_cell_angle_alpha	89.997827
_cell_angle_beta	89.996352
_cell_angle_gamma	84.467709
loop_
_atom_site_label
_atom_site_type_symbol
_atom_site_fract_x
_atom_site_fract_y
_atom_site_fract_z
O1	O	1.657187	0.175025	-0.120880
O2	O	2.157187	0.675025	0.379120
O3	O	1.294035	0.191778	-0.120884
O4	O	1.794035	0.691778	0.379116
O5	O	1.483988	0.001825	-0.120876
O6	O	1.983988	0.501825	0.379124
O7	O	1.467234	0.364977	-0.120888
O8	O	1.967234	0.864977	0.379112
O9	O	1.483973	0.001824	0.120909
O10	O	1.983973	0.501824	0.620909
O11	O	1.294020	0.191777	0.120901
O12	O	1.794020	0.691777	0.620901
O13	O	1.657172	0.175024	0.120905
O14	O	2.157172	0.675024	0.620905
Cu15	Cu	1.475595	0.183401	0.142980
Cu16	Cu	1.975595	0.683401	0.642980
Cu17	Cu	1.475612	0.183401	-0.142959
Cu18	Cu	1.975612	0.683401	0.357041
O19	O	1.467219	0.364977	0.120897
O20	O	1.967219	0.864977	0.620897
C21	C	1.247528	0.190558	0.000008
C22	C	1.747528	0.690558	0.500008
C23	C	1.108973	0.186911	0.000006
C24	C	1.608973	0.686911	0.500006
C25	C	1.033991	0.293198	0.000001
C26	C	1.533991	0.793198	0.500001
C27	C	0.890787	0.289431	-0.000000
C28	C	1.390787	0.789431	0.500000
C29	C	1.482762	-0.044675	0.000015
C30	C	1.982762	0.455325	0.500015
C31	C	1.479114	-0.183229	0.000010
C32	C	1.979114	0.316771	0.500010
C33	C	1.703679	0.176243	0.000010
C34	C	2.203679	0.676243	0.500010
C35	C	1.842234	0.179891	0.000003
C36	C	2.342234	0.679891	0.500003
C37	C	1.477496	-0.244995	-0.125243
C38	C	1.977496	0.255005	0.374757
C39	C	1.473727	-0.388198	-0.125251
C40	C	1.973727	0.111802	0.374749
C41	C	1.468445	0.411477	0.000003
C42	C	1.968445	0.911477	0.500003
C43	C	1.472093	0.550031	-0.000002
C44	C	1.972093	1.050031	0.499998
N45	N	1.475591	0.183399	0.344094
N46	N	1.975591	0.683399	0.844094
N47	N	1.475626	0.183393	-0.344073
N48	N	1.975626	0.683393	0.155927
C49	C	1.555347	0.103292	0.416295
C50	C	2.055347	0.603292	0.916295
C51	C	1.555366	0.103288	0.583707
C52	C	2.055366	0.603288	1.083707
H53	H	1.067152	0.093125	-0.000028
H54	H	1.567152	0.593125	0.499972
Cl55	Cl	1.098549	0.438004	0.000001
Cl56	Cl	1.598549	0.938004	0.500001
Cl57	Cl	0.791314	0.429921	-0.000018
Cl58	Cl	1.291314	0.929921	0.499982
Cl59	Cl	1.370179	0.289280	0.440000
Cl60	Cl	1.870179	0.789280	0.940000
Cl61	Cl	0.941699	0.039396	-0.000003
Cl62	Cl	1.441699	0.539396	0.499997
Cl63	Cl	1.471588	-0.470200	-0.290822
Cl64	Cl	1.971588	0.029800	0.209178
H65	H	1.623611	0.034707	0.354171
H66	H	2.123611	0.534707	0.854171
H67	H	1.478896	-0.191856	-0.232472
H68	H	1.978896	0.308144	0.267528
Cl69	Cl	1.474250	-0.367977	0.165575
Cl70	Cl	1.974250	0.132023	0.665575
H71	H	1.477701	-0.236366	0.107239
H72	H	1.977701	0.263634	0.607239
H73	H	1.623653	0.034709	0.645796
H74	H	2.123653	0.534709	1.145796
H75	H	1.407344	0.251984	0.593847
H76	H	1.907344	0.751984	1.093847
