data_functionalizedCrystal
_audit_creation_method	'MofGen! by Chris Wilmer'
_symmetry_space_group_name_H-M	'P1'
_symmetry_Int_Tables_number	1
_symmetry_cell_setting	triclinic
loop_
_symmetry_equiv_pos_as_xyz
  x,y,z
_cell_length_a	10.654556
_cell_length_b	10.540514
_cell_length_c	9.730223
_cell_angle_alpha	90.001925
_cell_angle_beta	89.998786
_cell_angle_gamma	84.501348
loop_
_atom_site_label
_atom_site_type_symbol
_atom_site_fract_x
_atom_site_fract_y
_atom_site_fract_z
O1	O	1.667876	0.178343	0.114227
O2	O	1.302403	0.195322	0.114241
O3	O	1.493494	0.002121	0.114236
O4	O	1.476785	0.371544	0.114232
O5	O	1.493492	0.002112	-0.114344
O6	O	1.302401	0.195313	-0.114339
O7	O	1.667874	0.178334	-0.114352
Zn8	Zn	1.485137	0.186822	-0.150638
Zn9	Zn	1.485140	0.186834	0.150526
O10	O	1.476783	0.371535	-0.114347
C11	C	1.255604	0.194069	-0.000048
C12	C	1.116160	0.190334	-0.000042
C13	C	0.919614	0.185080	0.124546
C14	C	1.050637	0.188582	0.124555
C15	C	1.050654	0.188572	-0.124656
C16	C	0.919634	0.185061	-0.124663
C17	C	1.492247	-0.045187	-0.000051
C18	C	1.488518	-0.186135	-0.000041
C19	C	1.625184	-0.256887	-0.000049
C20	C	1.621351	-0.403498	-0.000577
C21	C	1.414191	-0.378451	-0.130325
C22	C	1.418993	-0.231913	-0.130426
C23	C	1.416973	-0.231504	0.129522
C24	C	1.415654	-0.378482	0.131225
C25	C	1.714673	0.179587	-0.000061
C26	C	1.854117	0.183322	-0.000058
C27	C	1.478030	0.418842	-0.000058
C28	C	1.481759	0.559791	-0.000059
N29	N	1.485142	0.186832	0.356062
N30	N	1.485145	0.186813	-0.356174
C31	C	1.569917	0.101453	0.427986
C32	C	1.569923	0.101446	0.571869
C33	C	1.400365	0.272202	0.571892
C34	C	1.400367	0.272214	0.428012
H35	H	1.103959	0.190011	0.226020
H36	H	1.313909	-0.402642	0.139488
H37	H	1.104014	0.189991	-0.226105
H38	H	0.866274	0.183662	0.226008
H39	H	1.462464	-0.200019	0.228291
O40	O	1.661360	0.009371	0.350388
H41	H	1.647114	0.023711	0.238254
O42	O	1.481058	-0.432802	0.258886
H43	H	1.433787	-0.388692	0.351213
O44	O	1.661350	0.009350	0.649450
H45	H	1.720287	-0.050023	0.575242
H46	H	0.866305	0.183628	-0.226136
H47	H	1.331342	0.341717	0.630487
O48	O	1.697557	-0.216870	-0.123601
H49	H	1.647988	-0.241478	-0.218881
O50	O	1.308959	0.364339	0.350420
H51	H	1.250009	0.423708	0.424620
H52	H	1.680617	-0.228381	0.093366
O53	O	1.691929	-0.460072	0.122954
H54	H	1.729095	-0.382715	0.183623
H55	H	1.674266	-0.445250	-0.094512
H56	H	1.468340	-0.203707	-0.228179
H57	H	1.318602	-0.183873	-0.135978
H58	H	1.311665	-0.400730	-0.134798
H59	H	1.460548	-0.421027	-0.227644
H60	H	1.316161	-0.184229	0.130772
