data_functionalizedCrystal
_audit_creation_method	'MofGen! by Chris Wilmer'
_symmetry_space_group_name_H-M	'P1'
_symmetry_Int_Tables_number	1
_symmetry_cell_setting	triclinic
loop_
_symmetry_equiv_pos_as_xyz
  x,y,z
_cell_length_a	19.188905
_cell_length_b	19.188930
_cell_length_c	16.776229
_cell_angle_alpha	89.988225
_cell_angle_beta	89.985731
_cell_angle_gamma	83.139668
loop_
_atom_site_label
_atom_site_type_symbol
_atom_site_fract_x
_atom_site_fract_y
_atom_site_fract_z
O1	O	0.926158	0.087086	-0.066428
O2	O	0.722845	0.098839	-0.066402
O3	O	0.830369	-0.008694	-0.066401
O4	O	0.818634	0.194618	-0.066430
O5	O	0.830355	-0.008700	0.066176
O6	O	0.722830	0.098832	0.066174
O7	O	0.926144	0.087079	0.066148
Zn8	Zn	0.824485	0.092955	0.087210
Zn9	Zn	0.824504	0.092963	-0.087465
O10	O	0.818620	0.194612	0.066146
C11	C	0.696826	0.098458	-0.000111
C12	C	0.619321	0.097324	-0.000100
C13	C	0.582937	0.096783	-0.072369
C14	C	0.510113	0.095710	-0.072379
C15	C	0.473678	0.095164	-0.000115
C16	C	0.510071	0.095709	0.072164
C17	C	0.582892	0.096789	0.072171
N18	N	0.364652	0.053733	0.053670
N19	N	0.295475	0.052705	0.053657
C20	C	0.254272	0.091911	-0.000134
N21	N	0.284859	0.132175	-0.053925
N22	N	0.354043	0.133199	-0.053915
C23	C	0.394716	0.093993	-0.000116
C24	C	0.138924	0.090208	-0.072419
C25	C	0.066098	0.089139	-0.072426
C26	C	0.066058	0.089131	0.072119
C27	C	0.138881	0.090207	0.072124
C28	C	0.175310	0.090742	-0.000148
C29	C	0.829982	-0.034708	-0.000110
C30	C	0.828841	-0.112213	-0.000103
C31	C	0.891933	-0.157142	-0.000107
C32	C	0.890861	-0.229966	-0.000120
C33	C	0.826694	-0.257857	-0.000112
C34	C	0.763594	-0.212917	-0.000112
C35	C	0.764668	-0.140095	-0.000108
N36	N	0.777641	-0.365859	0.045012
N37	N	0.776626	-0.435038	0.045010
C38	C	0.823456	-0.477265	-0.000128
N39	N	0.871350	-0.447702	-0.045253
N40	N	0.872368	-0.378517	-0.045246
C41	C	0.825523	-0.336819	-0.000118
C42	C	0.885390	-0.601159	-0.000147
C43	C	0.884315	-0.673984	-0.000165
C44	C	0.757047	-0.656933	-0.000149
C45	C	0.758123	-0.584110	-0.000140
C46	C	0.822296	-0.556228	-0.000135
C47	C	0.952163	0.087460	-0.000145
C48	C	1.029668	0.088594	-0.000161
C49	C	0.819007	0.220626	-0.000146
C50	C	0.820148	0.298131	-0.000158
N51	N	0.824477	0.092948	0.206422
N52	N	0.824517	0.092964	-0.206676
C53	C	0.872103	0.045352	0.248140
C54	C	0.872107	0.045352	0.331592
C55	C	0.824488	0.092951	0.373325
C56	C	0.776857	0.140549	0.331601
C57	C	0.776850	0.140546	0.248150
C58	C	0.776882	0.140563	0.668148
C59	C	0.776894	0.140564	0.751605
C60	C	0.872139	0.045369	0.751590
C61	C	0.872133	0.045366	0.668139
C62	C	0.824499	0.092961	0.626423
C63	C	0.824495	0.092960	0.535934
C64	C	0.824495	0.092956	0.463811
H65	H	0.168585	0.090651	-0.131267
H66	H	0.168506	0.090643	0.130973
H67	H	0.480483	0.095270	-0.131232
Br68	Br	0.936764	-0.019231	0.611504
H69	H	0.612593	0.097219	-0.131218
H70	H	0.706747	-0.547527	-0.000132
H71	H	0.738067	0.179302	0.214184
H72	H	0.480400	0.095266	0.131001
H73	H	0.612515	0.097230	0.131024
H74	H	0.910884	0.006595	0.214166
H75	H	0.944187	-0.134445	-0.000106
Br76	Br	0.016717	0.088414	-0.170515
H77	H	0.036393	0.088691	0.130958
H78	H	0.910923	0.006612	0.785564
Br79	Br	0.976491	-0.290954	-0.000129
Br80	Br	0.676510	-0.250767	-0.000112
Br81	Br	0.679036	-0.079115	-0.000104
Br82	Br	0.972480	-0.563314	-0.000132
Br83	Br	0.969948	-0.734962	-0.000179
Br84	Br	0.712264	0.205168	0.808242
H85	H	0.704801	-0.679641	-0.000147
H86	H	0.910888	0.006595	0.365558
H87	H	0.738099	0.179318	0.634189
H88	H	0.738081	0.179303	0.365585
