data_functionalizedCrystal
_audit_creation_method	'MofGen! by Chris Wilmer'
_symmetry_space_group_name_H-M	'P1'
_symmetry_Int_Tables_number	1
_symmetry_cell_setting	triclinic
loop_
_symmetry_equiv_pos_as_xyz
  x,y,z
_cell_length_a	27.731994
_cell_length_b	14.519709
_cell_length_c	12.996460
_cell_angle_alpha	90.007090
_cell_angle_beta	89.999504
_cell_angle_gamma	83.150340
loop_
_atom_site_label
_atom_site_type_symbol
_atom_site_fract_x
_atom_site_fract_y
_atom_site_fract_z
O1	O	-0.641468	-0.109495	-0.085422
O2	O	-0.500751	-0.126232	-0.085457
O3	O	-0.574841	0.016441	-0.085430
O4	O	-0.567379	-0.252168	-0.085450
O5	O	-0.574833	0.016449	0.085704
O6	O	-0.500743	-0.126224	0.085677
O7	O	-0.641461	-0.109487	0.085711
Cu8	Cu	-0.571101	-0.117855	0.101320
Cu9	Cu	-0.571110	-0.117864	-0.101066
O10	O	-0.567371	-0.252160	0.085684
C11	C	-0.574489	0.050799	0.000137
C12	C	-0.573447	0.153162	0.000138
C13	C	-0.482738	-0.125884	0.000106
C14	C	-0.429077	-0.124850	0.000093
C15	C	-0.659474	-0.109834	0.000146
C16	C	-0.713135	-0.110869	0.000153
C17	C	-0.096323	-0.118329	0.093418
C18	C	0.105354	-0.114396	0.093430
O19	O	0.131433	-0.113844	0.172765
N20	N	0.130567	-0.113911	0.000145
C21	C	0.105357	-0.114404	-0.093150
O22	O	0.131429	-0.113893	-0.172494
C23	C	-0.096320	-0.118331	-0.093160
C24	C	-0.121529	-0.118825	0.000131
C25	C	-0.121533	-0.118821	0.186701
C26	C	-0.171949	-0.119810	0.186697
C27	C	-0.197155	-0.120305	0.093410
C28	C	-0.171945	-0.119813	0.000127
C29	C	-0.121529	-0.118817	-0.186454
C30	C	-0.171951	-0.119797	-0.186448
C31	C	-0.197161	-0.120290	-0.093157
C32	C	-0.247567	-0.121297	-0.093165
N33	N	-0.272780	-0.121781	0.000120
C34	C	-0.247574	-0.121285	0.093408
C35	C	0.211240	-0.112345	-0.093137
C36	C	0.261659	-0.111365	-0.093135
C37	C	0.261652	-0.111354	0.093445
C38	C	0.211233	-0.112341	0.093442
C39	C	0.186027	-0.112829	0.000148
C40	C	-0.353451	-0.123362	0.093392
C41	C	-0.403871	-0.124354	0.093380
C42	C	-0.403860	-0.124359	-0.093199
C43	C	-0.353444	-0.123372	-0.093188
C44	C	-0.328241	-0.122870	0.000117
O45	O	-0.273678	-0.121839	-0.172458
O46	O	-0.273656	-0.121777	0.172740
C47	C	-0.045907	-0.117341	0.093422
C48	C	-0.020697	-0.116848	0.000138
C49	C	-0.045904	-0.117344	-0.093149
C50	C	0.029722	-0.115868	0.000141
C51	C	0.054928	-0.115372	0.093428
C52	C	0.029715	-0.115857	0.186713
C53	C	-0.020701	-0.116845	0.186709
C54	C	-0.020691	-0.116859	-0.186434
C55	C	0.029725	-0.115872	-0.186422
C56	C	0.054931	-0.115377	-0.093135
C57	C	-0.567723	-0.286518	0.000115
C58	C	-0.568765	-0.388880	0.000108
N59	N	-0.571098	-0.117848	0.243667
C60	C	-0.569611	0.527989	0.000110
C61	C	-0.570676	0.423700	0.000118
C62	C	-0.571529	0.340579	0.000125
C63	C	-0.572594	0.236283	0.000131
N64	N	-0.571117	-0.117864	-0.243413
C65	C	-0.571110	-0.117865	0.663481
C66	C	-0.571105	-0.117863	0.546676
C67	C	-0.571104	-0.117857	0.453578
C68	C	-0.571099	-0.117854	0.336765
H69	H	-0.424394	-0.124759	0.169352
F70	F	-0.198774	-0.120313	-0.285748
F71	F	-0.094710	-0.118290	-0.285749
H72	H	-0.192471	-0.120206	0.262665
H73	H	-0.101016	-0.118416	0.262671
H74	H	-0.332936	-0.122961	0.169369
H75	H	-0.424392	-0.124767	-0.169151
H76	H	0.190711	-0.112744	0.169407
F77	F	-0.047510	-0.117386	-0.285729
H78	H	0.282184	-0.110953	0.169403
F79	F	0.056550	-0.115333	0.285997
F80	F	-0.047525	-0.117370	0.286003
F81	F	0.288485	-0.110857	-0.192428
H82	H	0.050247	-0.115478	-0.262397
F83	F	0.184421	-0.112865	-0.192440
F84	F	-0.326612	-0.122862	-0.192477
