data_functionalizedCrystal
_audit_creation_method	'MofGen! by Chris Wilmer'
_symmetry_space_group_name_H-M	'P1'
_symmetry_Int_Tables_number	1
_symmetry_cell_setting	triclinic
loop_
_symmetry_equiv_pos_as_xyz
  x,y,z
_cell_length_a	19.288864
_cell_length_b	14.472311
_cell_length_c	19.288865
_cell_angle_alpha	89.985117
_cell_angle_beta	96.863755
_cell_angle_gamma	90.017990
loop_
_atom_site_label
_atom_site_type_symbol
_atom_site_fract_x
_atom_site_fract_y
_atom_site_fract_z
O1	O	0.921347	0.077148	-0.086653
O2	O	1.421347	0.577148	0.413347
O3	O	0.719087	0.077086	-0.098341
O4	O	1.219087	0.577086	0.401659
O5	O	0.826061	0.077100	0.008633
O6	O	1.326061	0.577100	0.508633
O7	O	0.814373	0.077133	-0.193627
O8	O	1.314373	0.577133	0.306373
O9	O	0.826054	-0.076582	0.008647
O10	O	1.326054	0.423418	0.508647
O11	O	0.719079	-0.076596	-0.098328
O12	O	1.219079	0.423404	0.401672
O13	O	0.921340	-0.076534	-0.086639
O14	O	1.421340	0.423466	0.413361
Cu15	Cu	0.820209	-0.090598	-0.092483
Cu16	Cu	1.320209	0.409402	0.407517
Cu17	Cu	0.820218	0.091149	-0.092498
Cu18	Cu	1.320218	0.591149	0.407502
O19	O	0.814365	-0.076549	-0.193614
O20	O	1.314365	0.423451	0.306386
C21	C	0.693207	0.000237	-0.097959
C22	C	1.193207	0.500237	0.402041
C23	C	0.616103	0.000212	-0.096830
C24	C	1.116103	0.500212	0.403170
N25	N	0.820208	-0.218428	-0.092471
N26	N	1.320208	0.281572	0.407529
C27	C	0.571407	0.000237	-0.159598
C28	C	1.071407	0.500237	0.340402
C29	C	0.498960	0.000247	-0.158537
C30	C	0.998960	0.500247	0.341463
C31	C	0.471212	0.000251	-0.094705
C32	C	0.971212	0.500251	0.405295
C33	C	0.515918	0.000221	-0.031929
C34	C	1.015918	0.500221	0.468071
C35	C	0.588364	0.000202	-0.032991
C36	C	1.088364	0.500202	0.467009
C37	C	0.362953	0.054116	-0.044530
C38	C	0.862953	0.554116	0.455470
C39	C	0.290508	0.054141	-0.043470
C40	C	0.790508	0.554141	0.456530
C41	C	0.247767	0.000306	-0.091425
C42	C	0.747767	0.500306	0.408575
C43	C	0.277477	-0.053541	-0.140451
C44	C	0.777477	0.446459	0.359549
C45	C	0.349922	-0.053560	-0.141514
C46	C	0.849922	0.446440	0.358486
C47	C	0.392658	0.000271	-0.093546
C48	C	0.892658	0.500271	0.406454
C49	C	0.124514	0.000341	-0.153047
C50	C	0.624514	0.500341	0.346953
C51	C	0.052066	0.000345	-0.151984
C52	C	0.552066	0.500345	0.348016
C53	C	0.069026	0.000328	-0.025374
C54	C	0.569026	0.500328	0.474626
C55	C	0.141473	0.000315	-0.026439
C56	C	0.641473	0.500315	0.473561
C57	C	0.169212	0.000325	-0.090278
C58	C	0.669212	0.500325	0.409722
C59	C	0.820218	-0.592520	-0.092493
C60	C	1.320218	-0.092520	0.407507
C61	C	0.877643	-0.553317	-0.035443
C62	C	1.377643	-0.053317	0.464557
C63	C	0.877494	-0.446229	-0.035234
C64	C	1.377494	0.053771	0.464766
C65	C	0.820214	-0.406929	-0.092482
C66	C	1.320214	0.093071	0.407518
C67	C	0.747796	-0.445845	-0.076880
C68	C	1.247796	0.054155	0.423120
C69	C	0.748136	-0.552967	-0.076477
C70	C	1.248136	-0.052967	0.423523
C71	C	0.834559	-0.553007	-0.165315
C72	C	1.334559	-0.053007	0.334685
C73	C	0.836205	-0.445878	-0.164822
C74	C	1.336205	0.054122	0.335178
C75	C	0.820207	-0.302040	-0.092477
C76	C	1.320207	0.197960	0.407523
C77	C	0.820221	-0.697408	-0.092497
C78	C	1.320221	-0.197408	0.407503
C79	C	0.947220	0.000317	-0.087022
C80	C	1.447220	0.500317	0.412978
C81	C	1.024324	0.000347	-0.088151
C82	C	1.524324	0.500347	0.411849
C83	C	0.825682	0.000257	0.034516
C84	C	1.325682	0.500257	0.534516
C85	C	0.824553	0.000248	0.111620
C86	C	1.324553	0.500248	0.611620
N87	N	0.820224	0.218980	-0.092504
N88	N	1.320224	0.718980	0.407496
C89	C	0.814745	0.000297	-0.219497
C90	C	1.314745	0.500297	0.280503
C91	C	0.815874	0.000312	-0.296601
C92	C	1.315874	0.500312	0.203399
C93	C	0.887321	0.000263	0.156316
C94	C	1.387321	0.500263	0.656316
C95	C	0.886260	0.000277	0.228763
C96	C	1.386260	0.500277	0.728763
C97	C	0.822428	0.000258	0.256511
C98	C	1.322428	0.500258	0.756511
C99	C	0.759652	0.000249	0.211805
C100	C	1.259652	0.500249	0.711805
C101	C	0.760714	0.000244	0.139359
C102	C	1.260714	0.500244	0.639359
C103	C	0.772246	-0.053589	0.364803
C104	C	1.272246	0.446411	0.864803
C105	C	0.771186	-0.053589	0.437247
C106	C	1.271186	0.446411	0.937247
C107	C	0.819148	0.000278	0.479956
C108	C	1.319148	0.500278	0.979956
C109	C	0.868182	0.054134	0.450214
C110	C	1.368182	0.554134	0.950214
C111	C	0.869244	0.054129	0.377768
C112	C	1.369244	0.554129	0.877768
C113	C	0.821269	0.000264	0.335065
C114	C	1.321269	0.500264	0.835065
C115	C	0.880770	0.000309	0.603209
C116	C	1.380770	0.500309	1.103209
C117	C	0.879707	0.000329	0.675657
C118	C	1.379707	0.500329	1.175657
C119	C	0.753097	0.000292	0.658697
C120	C	1.253097	0.500292	1.158697
C121	C	0.754162	0.000281	0.586250
C122	C	1.254162	0.500281	1.086250
C123	C	0.818000	0.000285	0.558511
C124	C	1.318000	0.500285	1.058511
H125	H	0.462561	0.000265	-0.209652
H126	H	0.962561	0.500265	0.290348
H127	H	0.931663	-0.579053	-0.044547
H128	H	1.431663	-0.079053	0.455453
H129	H	0.868639	-0.580260	0.018297
H130	H	1.368639	-0.080260	0.518297
H131	H	0.797073	-0.419122	-0.209247
H132	H	1.297073	0.080878	0.290753
H133	H	0.731256	-0.097437	0.461458
H134	H	1.231256	0.402563	0.961458
H135	H	0.886225	-0.579997	-0.180366
H136	H	1.386225	-0.079997	0.319634
N137	N	0.866099	-0.414115	0.032588
N138	N	1.366099	0.085885	0.532588
N139	N	0.858223	-0.470817	0.079913
N140	N	1.358223	0.029183	0.579913
H141	H	0.850200	-0.448138	0.127824
H142	H	1.350200	0.051862	0.627824
H143	H	0.735462	-0.577975	-0.023376
H144	H	1.235462	-0.077975	0.476624
H145	H	0.593987	0.000248	-0.211580
H146	H	1.093987	0.500248	0.288420
H147	H	0.704132	-0.578902	-0.116461
H148	H	1.204132	-0.078902	0.383539
N149	N	0.692913	-0.413913	-0.127635
N150	N	1.192913	0.086087	0.372365
N151	N	0.706594	-0.361992	-0.175987
N152	N	1.206594	0.138008	0.324013
H153	H	0.667835	-0.339438	-0.211835
H154	H	1.167835	0.160562	0.288165
H155	H	0.930822	0.000346	0.712049
H156	H	1.430822	0.500346	1.212049
N157	N	0.040704	0.000342	0.039836
N158	N	0.540704	0.500342	0.539836
N159	N	0.080624	0.000329	0.095877
N160	N	0.580624	0.500329	0.595877
H161	H	0.060620	0.000336	0.141934
H162	H	0.560620	0.500336	0.641934
H163	H	0.792681	-0.578364	-0.207768
H164	H	1.292681	-0.078364	0.292232
N165	N	0.687899	0.000264	0.687042
N166	N	1.187899	0.500264	1.187042
N167	N	0.673179	-0.064517	0.725592
N168	N	1.173179	0.435483	1.225592
H169	H	0.627131	-0.064534	0.745615
H170	H	1.127131	0.435466	1.245615
N171	N	0.731503	-0.412213	-0.011026
N172	N	1.231503	0.087787	0.488974
N173	N	0.773106	-0.359594	0.024525
N174	N	1.273106	0.140406	0.524525
H175	H	0.761603	-0.335841	0.071036
H176	H	1.261603	0.164159	0.571036
H177	H	0.889478	-0.420440	-0.176666
H178	H	1.389478	0.079560	0.323334
N179	N	0.952529	0.000259	0.127984
N180	N	1.452529	0.500259	0.627984
N181	N	0.994790	-0.064512	0.141767
N182	N	1.494790	0.435488	0.641767
H183	H	1.040844	-0.064515	0.121757
H184	H	1.540844	0.435485	0.621757
N185	N	0.945969	0.000317	0.574854
N186	N	1.445969	0.500317	1.074854
N187	N	0.960681	-0.064466	0.536337
N188	N	1.460681	0.435534	1.036337
H189	H	1.006728	-0.064461	0.516311
H190	H	1.506728	0.435539	1.016311
H191	H	0.397748	0.097959	-0.005478
H192	H	0.897748	0.597959	0.494522
N193	N	0.260153	0.109123	0.006609
N194	N	0.760153	0.609123	0.506609
N195	N	0.195470	0.109131	0.007554
N196	N	0.695470	0.609131	0.507554
H197	H	0.174032	0.147961	0.042925
H198	H	0.674032	0.647961	0.542925
H199	H	0.937375	0.000293	0.265162
H200	H	1.437375	0.500293	0.765162
H201	H	0.909168	0.097982	0.353555
H202	H	1.409168	0.597982	0.853555
N203	N	0.233844	-0.108536	-0.189455
N204	N	0.733844	0.391464	0.310545
N205	N	0.233388	-0.094949	-0.253507
N206	N	0.733388	0.405051	0.246493
H207	H	0.202573	-0.133786	-0.288120
H208	H	0.702573	0.366214	0.211880
H209	H	0.374109	-0.097407	-0.181431
H210	H	0.874109	0.402593	0.318569
H211	H	0.907237	0.097998	0.484986
H212	H	1.407237	0.597998	0.984986
N213	N	0.690039	0.000263	0.540600
N214	N	1.190039	0.500263	1.040600
N215	N	0.633049	0.000249	0.565380
N216	N	1.133049	0.500249	1.065380
H217	H	0.587758	0.000239	0.533139
H218	H	1.087758	0.500239	1.033139
H219	H	0.733187	-0.097459	0.330034
H220	H	1.233187	0.402541	0.830034
N221	N	0.694454	0.000238	0.240156
N222	N	1.194454	0.500238	0.740156
N223	N	0.693514	0.000241	0.304840
N224	N	1.193514	0.500241	0.804840
H225	H	0.647466	0.000238	0.324863
H226	H	1.147466	0.500238	0.824863
H227	H	0.709599	0.000231	0.102967
H228	H	1.209599	0.500231	0.602967
H229	H	0.147101	0.000336	-0.205028
H230	H	0.647101	0.500336	0.294972
H231	H	0.493322	0.000237	0.020044
H232	H	0.993322	0.500237	0.520044
N233	N	0.006417	0.000359	-0.216110
N234	N	0.506417	0.500359	0.283890
N235	N	0.031198	0.000366	-0.273099
N236	N	0.531198	0.500366	0.226901
H237	H	-0.001043	0.000375	-0.318391
H238	H	0.498957	0.500375	0.181609
H239	H	0.177866	0.000300	0.024674
H240	H	0.677866	0.500300	0.524674
H241	H	0.624756	0.000182	0.018124
H242	H	1.124756	0.500182	0.518124
N243	N	0.945017	-0.413226	-0.046915
N244	N	1.445017	0.086774	0.453085
N245	N	0.992583	-0.469307	-0.055276
N246	N	1.492583	0.030693	0.444724
H247	H	1.040268	-0.446004	-0.063548
H248	H	1.540268	0.053996	0.436452
