data_functionalizedCrystal
_audit_creation_method	'MofGen! by Chris Wilmer'
_symmetry_space_group_name_H-M	'P1'
_symmetry_Int_Tables_number	1
_symmetry_cell_setting	triclinic
loop_
_symmetry_equiv_pos_as_xyz
  x,y,z
_cell_length_a	16.109301
_cell_length_b	15.944551
_cell_length_c	14.586319
_cell_angle_alpha	89.995256
_cell_angle_beta	89.999213
_cell_angle_gamma	83.480109
loop_
_atom_site_label
_atom_site_type_symbol
_atom_site_fract_x
_atom_site_fract_y
_atom_site_fract_z
O1	O	1.103166	0.107966	-0.076184
O2	O	0.861108	0.121403	-0.076199
O3	O	0.988747	-0.007593	-0.076183
O4	O	0.975527	0.236961	-0.076200
O5	O	0.988738	-0.007595	0.076298
O6	O	0.861099	0.121401	0.076282
O7	O	1.103157	0.107964	0.076296
Cu8	Cu	0.982127	0.114682	0.090212
Cu9	Cu	0.982138	0.114685	-0.090114
O10	O	0.975518	0.236960	0.076280
C11	C	0.830129	0.120857	0.000039
C12	C	0.737833	0.119226	0.000034
C13	C	0.515584	0.191975	0.000040
C14	C	0.428863	0.190435	0.000046
C15	C	0.448688	0.037387	0.000053
C16	C	0.535407	0.038927	0.000053
C17	C	0.568853	0.116224	0.000042
C18	C	0.395412	0.113143	0.000047
C19	C	0.301386	0.111473	0.000054
C20	C	0.662885	0.117894	0.000037
C21	C	0.988194	-0.038887	0.000057
C22	C	0.986548	-0.132133	0.000058
C23	C	0.903499	-0.346962	0.000040
C24	C	0.942060	-0.407993	0.075225
C25	C	0.983572	-0.302858	0.000051
C26	C	0.942088	-0.407975	-0.075109
C27	C	0.980691	-0.467769	0.000040
C28	C	1.022155	-0.362660	0.075297
C29	C	1.022171	-0.362636	-0.075104
C30	C	1.060790	-0.423649	0.000099
C31	C	0.985229	-0.207856	0.000058
C32	C	0.979039	-0.562770	0.000039
C33	C	1.134136	0.108510	0.000056
C34	C	1.226432	0.110141	0.000055
C35	C	0.976071	0.268254	0.000038
C36	C	0.977717	0.361500	0.000031
N37	N	0.982126	0.114680	0.217044
N38	N	0.982146	0.114680	-0.216946
C39	C	1.038663	0.057580	0.452057
C40	C	1.038666	0.057578	0.548038
C41	C	0.925602	0.171783	0.548034
C42	C	0.925597	0.171780	0.452054
C43	C	0.982132	0.114680	0.404068
C44	C	0.982140	0.114680	0.596029
C45	C	0.982142	0.114679	0.700096
C46	C	0.982129	0.114680	0.299995
H47	H	0.837035	-0.313632	0.000111
H48	H	0.421446	-0.025546	0.000067
C49	C	0.594010	-0.044405	0.000053
C50	C	0.557225	-0.129428	0.000053
C51	C	0.615828	-0.212755	0.000058
C52	C	0.711216	-0.211059	0.000062
C53	C	0.748005	-0.126032	0.000062
C54	C	0.689403	-0.042705	0.000058
H55	H	0.486609	-0.130686	0.000050
H56	H	0.588594	-0.275697	0.000057
H57	H	0.754597	-0.272742	0.000065
H58	H	0.818621	-0.124773	0.000065
H59	H	0.716637	0.020237	0.000058
C60	C	0.863422	0.234598	0.600818
C61	C	0.863469	0.234654	0.706392
C62	C	0.801289	0.297473	0.759173
C63	C	0.739061	0.360236	0.706381
C64	C	0.739012	0.360182	0.600802
C65	C	0.801192	0.297363	0.548020
H66	H	0.909536	0.188191	0.745477
H67	H	0.801326	0.297512	0.837331
H68	H	0.693031	0.406738	0.745453
H69	H	0.692945	0.406645	0.561716
H70	H	0.801155	0.297323	0.469863
C71	C	1.067891	-0.335447	-0.160970
C72	C	1.159484	-0.370854	-0.178406
C73	C	1.205196	-0.343663	-0.264280
C74	C	1.159314	-0.281063	-0.332718
C75	C	1.067715	-0.245652	-0.315283
C76	C	1.022003	-0.272843	-0.229409
H77	H	1.193454	-0.417198	-0.127743
H78	H	1.273004	-0.369877	-0.277186
H79	H	1.193152	-0.260934	-0.396287
H80	H	1.033745	-0.199308	-0.365947
H81	H	0.954195	-0.246629	-0.216503
C82	C	0.896305	-0.435150	0.161087
C83	C	0.928990	-0.416175	0.257223
C84	C	0.883229	-0.443326	0.343082
C85	C	0.804784	-0.489452	0.332804
C86	C	0.772095	-0.508428	0.236664
C87	C	0.817856	-0.481277	0.150806
H88	H	0.987064	-0.382028	0.264835
H89	H	0.907429	-0.429278	0.414251
H90	H	0.770909	-0.509550	0.396362
H91	H	0.714021	-0.542575	0.229053
H92	H	0.793657	-0.495326	0.079637
C93	C	1.067861	-0.335679	0.161265
C94	C	1.077826	-0.241872	0.177178
C95	C	1.123528	-0.214888	0.263146
C96	C	1.159265	-0.281711	0.333202
C97	C	1.149301	-0.375525	0.317292
C98	C	1.103599	-0.402509	0.231323
H99	H	1.051371	-0.192400	0.125316
H100	H	1.130904	-0.145441	0.274923
H101	H	1.193097	-0.261736	0.396840
H102	H	1.175757	-0.424997	0.369153
H103	H	1.096223	-0.471956	0.219546
H104	H	1.084697	0.011082	0.587108
C105	C	1.150655	-0.468479	0.000154
C106	C	1.210220	-0.454082	0.079747
C107	C	1.300083	-0.498912	0.079807
C108	C	1.330382	-0.558140	0.000273
C109	C	1.270816	-0.572541	-0.079326
C110	C	1.180952	-0.527710	-0.079385
H111	H	1.187792	-0.410235	0.138628
H112	H	1.344178	-0.488251	0.138732
H113	H	1.396904	-0.591326	0.000317
H114	H	1.293244	-0.616388	-0.138207
H115	H	1.136858	-0.538371	-0.138310
H116	H	0.542812	0.254914	0.000037
H117	H	0.879558	0.218278	0.412979
C118	C	0.896327	-0.435096	-0.160978
C119	C	0.804269	-0.400854	-0.177477
C120	C	0.758502	-0.427972	-0.263340
C121	C	0.804793	-0.489332	-0.332703
C122	C	0.896856	-0.523578	-0.316206
C123	C	0.942623	-0.496460	-0.230343
H124	H	0.769997	-0.355428	-0.126129
H125	H	0.690351	-0.402620	-0.275552
H126	H	0.770914	-0.509406	-0.396264
H127	H	0.931129	-0.569004	-0.367554
H128	H	1.010775	-0.521812	-0.218131
C129	C	1.100844	-0.005235	0.399272
C130	C	1.163023	-0.068046	0.452064
C131	C	1.225203	-0.130865	0.399283
C132	C	1.225204	-0.130873	0.293709
C133	C	1.163023	-0.068059	0.240911
C134	C	1.100842	-0.005240	0.293693
H135	H	1.163024	-0.068043	0.530222
H136	H	1.271234	-0.177364	0.438368
H137	H	1.271234	-0.177375	0.254637
H138	H	1.163021	-0.068062	0.162754
H139	H	1.054811	0.041259	0.254607
H140	H	0.385495	0.252119	0.000045
