data_functionalizedCrystal
_audit_creation_method	'MofGen! by Chris Wilmer'
_symmetry_space_group_name_H-M	'P1'
_symmetry_Int_Tables_number	1
_symmetry_cell_setting	triclinic
loop_
_symmetry_equiv_pos_as_xyz
  x,y,z
_cell_length_a	19.288840
_cell_length_b	19.288857
_cell_length_c	17.766277
_cell_angle_alpha	89.991474
_cell_angle_beta	89.983415
_cell_angle_gamma	83.129562
loop_
_atom_site_label
_atom_site_type_symbol
_atom_site_fract_x
_atom_site_fract_y
_atom_site_fract_z
O1	O	0.921362	0.086566	-0.062723
O2	O	0.719098	0.098273	-0.062698
O3	O	0.826077	-0.008712	-0.062702
O4	O	0.814383	0.193551	-0.062719
O5	O	0.826059	-0.008717	0.062486
O6	O	0.719080	0.098268	0.062491
O7	O	0.921343	0.086561	0.062465
Cu8	Cu	0.820210	0.092414	0.073909
Cu9	Cu	0.820232	0.092420	-0.074141
O10	O	0.814364	0.193546	0.062470
C11	C	0.693212	0.097897	-0.000100
C12	C	0.616108	0.096775	-0.000090
C13	C	0.579914	0.096239	-0.068332
C14	C	0.507468	0.095177	-0.068341
C15	C	0.471219	0.094637	-0.000104
C16	C	0.507420	0.095177	0.068147
C17	C	0.579865	0.096246	0.068154
C18	C	0.361884	0.052256	0.052168
C19	C	0.289442	0.051183	0.052158
C20	C	0.247775	0.091342	-0.000124
C21	C	0.278561	0.132566	-0.052408
C22	C	0.351006	0.133635	-0.052401
C23	C	0.392665	0.093478	-0.000105
C24	C	0.133026	0.089656	-0.068381
C25	C	0.060578	0.088598	-0.068387
C26	C	0.060533	0.088591	0.068103
C27	C	0.132979	0.089656	0.068107
C28	C	0.169222	0.090185	-0.000136
C29	C	0.825693	-0.034591	-0.000107
C30	C	0.824566	-0.111695	-0.000105
C31	C	0.824050	-0.147902	-0.068345
C32	C	0.822981	-0.220348	-0.068351
C33	C	0.822442	-0.256585	-0.000112
C34	C	0.822954	-0.220369	0.068137
C35	C	0.824016	-0.147923	0.068141
C36	C	0.861436	-0.376823	0.052158
C37	C	0.860379	-0.449267	0.052152
C38	C	0.819164	-0.480031	-0.000120
C39	C	0.779016	-0.438342	-0.052398
C40	C	0.780078	-0.365897	-0.052395
C41	C	0.821291	-0.335140	-0.000108
C42	C	0.817489	-0.594793	-0.068371
C43	C	0.816416	-0.667239	-0.068374
C44	C	0.816396	-0.667259	0.068116
C45	C	0.817462	-0.594813	0.068117
C46	C	0.818012	-0.558585	-0.000129
C47	C	0.947229	0.086937	-0.000134
C48	C	1.024334	0.088059	-0.000149
C49	C	0.814749	0.219425	-0.000127
C50	C	0.815876	0.296528	-0.000134
N51	N	0.820199	0.092409	0.178039
N52	N	0.820248	0.092420	-0.178272
C53	C	0.867585	0.045059	0.217424
C54	C	0.867589	0.045056	0.296226
C55	C	0.820214	0.092414	0.335639
C56	C	0.772819	0.139768	0.296245
C57	C	0.772812	0.139765	0.217445
C58	C	0.810913	0.155703	0.460473
C59	C	0.810925	0.155707	0.539272
C60	C	0.820232	0.092423	0.578686
C61	C	0.829542	0.029132	0.539291
C62	C	0.829535	0.029129	0.460491
C63	C	0.820216	0.092422	0.421085
C64	C	0.867625	0.045066	0.703517
C65	C	0.867624	0.045061	0.782320
C66	C	0.772858	0.139779	0.782338
C67	C	0.772855	0.139777	0.703536
C68	C	0.820243	0.092421	0.664130
H69	H	0.162449	0.090088	0.123678
H70	H	0.477901	0.094739	0.123706
C71	C	0.919745	-0.007033	0.660168
N72	N	0.959001	-0.046275	0.627519
H73	H	0.824496	-0.118409	-0.123916
H74	H	0.803322	0.207240	0.428389
H75	H	0.894998	-0.351781	0.094730
C76	C	0.020663	0.087998	0.143165
N77	N	-0.009371	0.087553	0.199704
C78	C	0.735910	-0.320041	-0.109894
N79	N	0.702639	-0.285502	-0.153200
H80	H	0.734224	0.178323	0.185377
C81	C	0.384863	0.179018	-0.109878
N82	N	0.410362	0.213214	-0.153158
H83	H	0.893073	-0.483205	0.094717
C84	C	0.822410	-0.260184	-0.143423
N85	N	0.821978	-0.290186	-0.199968
C86	C	0.619778	0.096819	-0.143403
N87	N	0.649804	0.097255	-0.199947
H88	H	0.395804	0.019552	0.094745
C89	C	0.232732	0.176750	-0.109918
N90	N	0.198211	0.210029	-0.153233
H91	H	0.817888	-0.565333	0.123686
H92	H	0.822513	-0.249877	0.123698
H93	H	0.745455	-0.463388	-0.094963
C94	C	0.619679	0.096830	0.143229
N95	N	0.649669	0.097267	0.199777
C96	C	0.818083	-0.554937	-0.143442
N97	N	0.818529	-0.524920	-0.199986
C98	C	0.919725	-0.007028	0.339558
N99	N	0.958998	-0.046254	0.372193
H100	H	0.837113	-0.022404	0.428419
H101	H	0.824433	-0.118443	0.123712
H102	H	0.837120	-0.022400	0.571380
H103	H	0.815992	-0.696718	-0.123945
H104	H	0.815952	-0.696762	0.123678
H105	H	0.906168	0.006498	0.185342
C106	C	0.020766	0.088005	-0.143463
N107	N	-0.009221	0.087556	-0.200011
H108	H	0.906209	0.006500	0.814388
H109	H	0.734282	0.178337	0.814428
C110	C	0.255583	0.005843	0.109676
N111	N	0.230082	-0.028305	0.153004
C112	C	0.720777	0.191917	0.660211
N113	N	0.681565	0.231206	0.627579
C114	C	0.720704	0.191859	0.339602
N115	N	0.681446	0.231094	0.372258
C116	C	0.467648	0.094582	-0.143416
N117	N	0.437657	0.094132	-0.199962
C118	C	0.172895	0.090250	-0.143449
N119	N	0.202921	0.090700	-0.199992
C120	C	0.800678	0.225327	0.582598
N121	N	0.792955	0.277767	0.615230
