data_functionalizedCrystal
_audit_creation_method	'MofGen! by Chris Wilmer'
_symmetry_space_group_name_H-M	'P1'
_symmetry_Int_Tables_number	1
_symmetry_cell_setting	triclinic
loop_
_symmetry_equiv_pos_as_xyz
  x,y,z
_cell_length_a	12.837943
_cell_length_b	15.186229
_cell_length_c	16.109301
_cell_angle_alpha	89.994833
_cell_angle_beta	89.145210
_cell_angle_gamma	89.997745
loop_
_atom_site_label
_atom_site_type_symbol
_atom_site_fract_x
_atom_site_fract_y
_atom_site_fract_z
O1	O	1.375379	-0.073219	0.216129
O2	O	1.875379	0.426781	0.716129
O3	O	1.073577	-0.073224	0.205453
O4	O	1.573577	0.426776	0.705453
O5	O	1.232769	-0.073212	0.090419
O6	O	1.732769	0.426788	0.590419
O7	O	1.216187	-0.073230	0.331163
O8	O	1.716187	0.426770	0.831163
O9	O	1.232758	0.073245	0.090416
O10	O	1.732758	0.573245	0.590416
O11	O	1.073567	0.073234	0.205450
O12	O	1.573567	0.573234	0.705450
O13	O	1.375369	0.073238	0.216127
O14	O	1.875369	0.573238	0.716127
Zn15	Zn	1.224466	0.096489	0.210788
Zn16	Zn	1.724466	0.596489	0.710788
Zn17	Zn	1.224480	-0.096475	0.210791
Zn18	Zn	1.724480	0.403525	0.710791
O19	O	1.216177	0.073227	0.331161
O20	O	1.716177	0.573227	0.831161
C21	C	1.034953	0.000004	0.201845
C22	C	1.534953	0.500004	0.701845
C23	C	0.919879	0.000003	0.191088
C24	C	1.419879	0.500003	0.691088
N25	N	1.224464	0.228182	0.210786
N26	N	1.724464	0.728182	0.710786
N27	N	1.224490	-0.228167	0.210788
N28	N	1.724490	0.271833	0.710788
C29	C	0.678877	0.000006	0.320405
C30	C	1.178877	0.500006	0.820405
C31	C	0.570755	0.000005	0.310302
C32	C	1.070755	0.500005	0.810302
C33	C	0.595510	0.000007	0.160779
C34	C	1.095510	0.500007	0.660779
C35	C	0.703632	0.000008	0.170882
C36	C	1.203632	0.500008	0.670882
C37	C	0.745312	0.000006	0.250698
C38	C	1.245312	0.500006	0.750698
C39	C	0.853436	0.000000	0.260800
C40	C	1.353436	0.500000	0.760800
C41	C	0.878189	0.000008	0.111278
C42	C	1.378189	0.500008	0.611278
C43	C	0.770067	0.000008	0.101175
C44	C	1.270067	0.500008	0.601175
C45	C	1.413993	0.000008	0.219735
C46	C	1.913993	0.500008	0.719735
C47	C	1.529067	0.000004	0.230491
C48	C	2.029067	0.500004	0.730491
C49	C	1.232092	0.000017	0.059389
C50	C	1.732092	0.500017	0.559389
C51	C	1.230078	0.000018	-0.033066
C52	C	1.730078	0.500018	0.466934
C53	C	1.294978	0.453910	0.159869
C54	C	1.794978	0.953910	0.659869
C55	C	1.294981	0.546099	0.159868
C56	C	1.794981	1.046099	0.659868
C57	C	1.153968	0.546098	0.261706
C58	C	1.653968	1.046098	0.761706
C59	C	1.153961	0.453910	0.261703
C60	C	1.653961	0.953910	0.761703
C61	C	1.224472	0.407818	0.210786
C62	C	1.724472	0.907818	0.710786
C63	C	1.224482	0.592196	0.210787
C64	C	1.724482	1.092196	0.710787
C65	C	1.224485	0.692152	0.210786
C66	C	1.724485	1.192152	0.710786
C67	C	1.224468	0.307856	0.210786
C68	C	1.724468	0.807856	0.710786
C69	C	1.319857	0.000006	-0.248206
C70	C	1.819857	0.500006	0.251794
C71	C	1.317957	-0.000002	-0.335078
C72	C	1.817957	0.499998	0.164922
C73	C	1.129081	-0.000001	-0.330208
C74	C	1.629081	0.499999	0.169792
C75	C	1.130983	-0.000000	-0.243338
C76	C	1.630983	0.500000	0.256662
C77	C	1.226374	0.000008	-0.202340
C78	C	1.726374	0.500008	0.297660
C79	C	1.222572	-0.000001	-0.376081
C80	C	1.722572	0.499999	0.123919
C81	C	1.220511	-0.000009	-0.470271
C82	C	1.720511	0.499991	0.029729
C83	C	1.228435	0.000014	-0.108144
C84	C	1.728435	0.500014	0.391856
C85	C	1.216854	-0.000004	0.362190
C86	C	1.716854	0.499996	0.862190
C87	C	1.218868	-0.000011	0.454645
C88	C	1.718868	0.499989	0.954645
H89	H	0.712813	0.000003	0.385393
H90	H	1.212813	0.500003	0.885393
H91	H	0.516666	0.000007	0.367065
H92	H	1.016666	0.500007	0.867065
H93	H	1.051417	-0.000006	-0.363600
H94	H	1.551417	0.499994	0.136400
H95	H	1.054852	-0.000001	-0.205992
H96	H	1.554852	0.499999	0.294008
H97	H	1.096562	0.583636	0.303163
H98	H	1.596562	1.083636	0.803163
H99	H	0.932293	0.000002	0.054518
H100	H	1.432293	0.500002	0.554518
H101	H	1.352391	0.416384	0.118409
H102	H	1.852391	0.916384	0.618409
H103	H	0.561555	0.000081	0.095797
H104	H	1.061555	0.500081	0.595797
O105	O	0.725112	0.000010	0.015091
O106	O	1.225112	0.500010	0.515091
H107	H	0.638766	0.000006	0.019775
H108	H	1.138766	0.500006	0.519775
H109	H	1.394081	-0.000005	-0.372419
H110	H	1.894081	0.499995	0.127581
H111	H	1.352393	0.583625	0.118406
H112	H	1.852393	1.083625	0.618406
O113	O	0.898399	0.000010	0.346882
O114	O	1.398399	0.500010	0.846882
H115	H	0.834033	0.000022	0.393655
H116	H	1.334033	0.500022	0.893655
O117	O	1.077911	0.404182	0.316618
O118	O	1.577911	0.904182	0.816618
H119	H	1.091097	0.421851	0.382486
H120	H	1.591097	0.921851	0.882486
O121	O	1.422737	-0.000004	-0.203982
O122	O	1.922737	0.499996	0.296018
H123	H	1.487422	-0.000018	-0.250474
H124	H	1.987422	0.499982	0.249526
