data_functionalizedCrystal
_audit_creation_method	'MofGen! by Chris Wilmer'
_symmetry_space_group_name_H-M	'P1'
_symmetry_Int_Tables_number	1
_symmetry_cell_setting	triclinic
loop_
_symmetry_equiv_pos_as_xyz
  x,y,z
_cell_length_a	13.032891
_cell_length_b	13.032721
_cell_length_c	11.169417
_cell_angle_alpha	82.831859
_cell_angle_beta	97.173550
_cell_angle_gamma	90.903621
loop_
_atom_site_label
_atom_site_type_symbol
_atom_site_fract_x
_atom_site_fract_y
_atom_site_fract_z
Zn1	Zn	1.519987	-0.609602	0.988811
Zn2	Zn	2.019987	-0.109602	1.488811
Zn3	Zn	1.498074	-0.781536	0.809995
Zn4	Zn	1.998074	-0.281536	1.309995
Zn5	Zn	1.348063	-0.587715	0.759911
Zn6	Zn	1.848063	-0.087715	1.259911
Zn7	Zn	1.326138	-0.759650	0.982403
Zn8	Zn	1.826138	-0.259650	1.482403
O9	O	1.423066	-0.684625	0.885280
O10	O	1.923066	-0.184625	1.385280
O11	O	1.660987	-0.650728	0.988732
O12	O	2.160987	-0.150728	1.488732
O13	O	1.478180	-0.755825	0.635402
O14	O	1.978180	-0.255825	1.135402
O15	O	1.389216	-0.446708	0.771996
O16	O	1.889216	0.053292	1.271996
O17	O	1.644887	-0.777047	0.857357
O18	O	2.144887	-0.277047	1.357357
O19	O	1.515528	-0.462788	0.940168
O20	O	2.015528	0.037212	1.440168
O21	O	1.367968	-0.613425	0.598605
O22	O	1.867968	-0.113425	1.098605
O23	O	1.201248	-0.592203	0.765783
O24	O	1.701248	-0.092203	1.265783
O25	O	1.351847	-0.739746	1.151202
O26	O	1.851847	-0.239746	1.651202
O27	O	1.185140	-0.718523	0.929247
O28	O	1.685140	-0.218523	1.429247
O29	O	1.494267	-0.629506	1.155909
O30	O	1.994267	-0.129506	1.655909
O31	O	1.456920	-0.922543	0.851144
O32	O	1.956920	-0.422543	1.351144
O33	O	1.330599	-0.906463	0.977811
O34	O	1.830599	-0.406463	1.477811
C35	C	1.155881	-0.650614	0.841386
C36	C	1.655881	-0.150614	1.341386
C37	C	1.041574	-0.636088	0.822639
C38	C	1.541574	-0.136088	1.322639
C39	C	0.864516	-0.677200	0.875700
C40	C	1.364516	-0.177200	1.375700
C41	C	0.982657	-0.692218	0.895074
C42	C	1.482657	-0.192218	1.395074
C43	C	1.389030	-0.951821	0.919248
C44	C	1.889030	-0.451821	1.419248
C45	C	1.374564	-1.066140	0.933835
C46	C	1.874564	-0.566140	1.433835
C47	C	1.430670	-1.125036	0.877729
C48	C	1.930670	-0.625036	1.377729
C49	C	1.415720	-1.243191	0.892805
C50	C	1.915720	-0.743191	1.392805
C51	C	1.691294	-0.718771	0.929346
C52	C	2.191294	-0.218771	1.429346
C53	C	1.805597	-0.733321	0.948124
C54	C	2.305597	-0.233321	1.448124
C55	C	1.423056	-0.684626	1.198321
C56	C	1.923056	-0.184626	1.698321
C57	C	1.423051	-0.684626	1.331720
C58	C	1.923051	-0.184626	1.831720
C59	C	1.457262	-0.416390	0.851210
C60	C	1.957262	0.083610	1.351210
C61	C	1.471835	-0.302085	0.836691
C62	C	1.971835	0.197915	1.336691
C63	C	1.423061	-0.684642	1.573457
C64	C	1.923061	-0.184642	2.073457
C65	C	1.423054	-0.684628	1.440054
C66	C	1.923054	-0.184628	1.940054
H67	H	0.842617	-0.792482	1.024477
H68	H	1.342617	-0.292482	1.524477
O69	O	1.508970	-1.075977	0.799321
O70	O	2.008970	-0.575977	1.299321
H71	H	1.587087	-1.106734	0.835851
H72	H	2.087087	-0.606734	1.335851
O73	O	1.337426	-1.292257	0.971224
O74	O	1.837426	-0.792257	1.471224
H75	H	1.298606	-1.231143	1.010036
H76	H	1.798606	-0.731143	1.510036
O77	O	1.550139	-1.253024	0.758283
O78	O	2.050139	-0.753024	1.258283
H79	H	1.529990	-1.271400	0.663796
H80	H	2.029990	-0.771400	1.163796
H81	H	1.315464	-1.103192	0.993035
H82	H	1.815464	-0.603192	1.493035
O83	O	0.815471	-0.598836	0.774563
O84	O	1.315471	-0.098836	1.274563
H85	H	0.846287	-0.520737	0.788382
H86	H	1.346287	-0.020737	1.288382
O87	O	1.031675	-0.770584	0.996232
O88	O	1.531675	-0.270584	1.496232
H89	H	1.116775	-0.770079	0.995578
H90	H	1.616775	-0.270079	1.495578
H91	H	1.004561	-0.576913	0.746290
H92	H	1.504561	-0.076913	1.246290
