data_functionalizedCrystal
_audit_creation_method	'MofGen! by Chris Wilmer'
_symmetry_space_group_name_H-M	'P1'
_symmetry_Int_Tables_number	1
_symmetry_cell_setting	triclinic
loop_
_symmetry_equiv_pos_as_xyz
  x,y,z
_cell_length_a	13.448316
_cell_length_b	14.971486
_cell_length_c	14.971486
_cell_angle_alpha	96.385871
_cell_angle_beta	90.006811
_cell_angle_gamma	89.998199
loop_
_atom_site_label
_atom_site_type_symbol
_atom_site_fract_x
_atom_site_fract_y
_atom_site_fract_z
O1	O	0.082578	-1.186947	0.116565
O2	O	0.082605	-0.926547	0.130524
O3	O	0.082584	-1.063727	-0.006656
O4	O	0.082599	-1.049768	0.253744
O5	O	-0.082800	-1.063709	-0.006664
O6	O	-0.082779	-0.926530	0.130515
O7	O	-0.082806	-1.186930	0.116556
Cu8	Cu	-0.097893	-1.056728	0.123535
Cu9	Cu	0.097692	-1.056749	0.123545
O10	O	-0.082784	-1.049751	0.253736
C11	C	-0.000083	-0.893214	0.129895
C12	C	-0.000073	-0.793917	0.128024
N13	N	-0.235457	-1.056721	0.123527
C14	C	-0.000108	-1.063094	-0.039985
C15	C	-0.000107	-1.061223	-0.139282
C16	C	-0.287507	-1.117483	0.062809
C17	C	-0.391610	-1.117488	0.062809
C18	C	-0.443662	-1.056735	0.123531
C19	C	-0.391605	-0.995967	0.184252
C20	C	-0.287504	-0.995958	0.184248
C21	C	-0.608585	-0.995992	0.184258
C22	C	-0.712693	-0.996002	0.184264
C23	C	-0.712692	-1.117522	0.062819
C24	C	-0.608591	-1.117513	0.062815
C25	C	-0.556541	-1.056745	0.123537
N26	N	0.235257	-1.056764	0.123545
C27	C	-0.000115	-1.220263	0.117185
C28	C	-0.000119	-1.319561	0.119056
C29	C	-0.000070	-0.736692	0.208614
C30	C	-0.000085	-0.643392	0.206850
C31	C	-0.000096	-0.607320	0.124497
C32	C	-0.000102	-0.664552	0.043902
C33	C	-0.000095	-0.757850	0.045666
C34	C	-0.000116	-0.470090	0.040231
C35	C	-0.000122	-0.376786	0.038466
C36	C	-0.000106	-0.355632	0.201415
C37	C	-0.000099	-0.448930	0.203179
C38	C	-0.000103	-0.506156	0.122584
C39	C	-0.000116	-1.141812	-0.196507
C40	C	-0.000106	-1.140049	-0.289807
C41	C	-0.000093	-1.057696	-0.325879
C42	C	-0.000081	-0.977101	-0.268646
C43	C	-0.000084	-0.978865	-0.175349
C44	C	-0.000077	-0.973430	-0.463109
C45	C	-0.000076	-0.971665	-0.556413
C46	C	-0.000099	-1.134614	-0.577567
C47	C	-0.000102	-1.136378	-0.484269
C48	C	-0.000091	-1.055782	-0.427043
C49	C	-0.000091	-1.050384	0.287065
C50	C	-0.000085	-1.052254	0.386362
H51	H	-0.245134	-1.166958	0.013366
H52	H	-0.000126	-0.635175	-0.023152
C53	C	-0.000322	-0.532265	-0.047246
C54	C	-0.085415	-0.586435	-0.051015
C55	C	-0.085640	-0.643712	-0.131587
H56	H	0.057287	-0.569181	-0.050026
H57	H	-0.000380	-0.497451	-0.096570
H58	H	-0.085349	-0.621246	-0.001704
H59	H	-0.143038	-0.549544	-0.048250
H60	H	-0.085697	-0.608898	-0.180912
H61	H	-0.028027	-0.680622	-0.134360
H62	H	-0.143378	-0.680468	-0.134159
H63	H	-0.433989	-1.166964	0.013367
H64	H	-0.000060	-0.766054	0.275675
H65	H	-0.000097	-0.804443	-0.019958
C66	C	-0.552255	-1.183513	-0.003211
C67	C	-0.620116	-1.236716	-0.056405
C68	C	-0.568256	-1.297516	-0.117247
H69	H	-0.511628	-1.220856	0.028923
H70	H	-0.511678	-1.151317	-0.040548
H71	H	-0.660675	-1.268910	-0.019073
H72	H	-0.660745	-1.199398	-0.088559
H73	H	-0.527680	-1.265320	-0.154585
H74	H	-0.527631	-1.334853	-0.085106
H75	H	-0.614292	-1.333616	-0.153352
C76	C	-0.000115	-0.885829	-0.401124
C77	C	-0.000132	-0.813329	-0.452681
C78	C	-0.000184	-0.732621	-0.395613
H79	H	0.057542	-0.883008	-0.364262
H80	H	-0.057812	-0.883075	-0.364309
H81	H	0.057559	-0.816081	-0.489481
H82	H	-0.057784	-0.816119	-0.489541
H83	H	-0.057881	-0.729867	-0.358797
H84	H	0.057474	-0.729809	-0.358753
H85	H	-0.000204	-0.683420	-0.430585
C86	C	-0.769030	-0.929927	0.250215
C87	C	-0.701168	-0.876682	0.303366
C88	C	-0.753028	-0.815791	0.364117
H89	H	-0.809636	-0.962025	0.287597
H90	H	-0.809625	-0.892629	0.217983
H91	H	-0.660589	-0.913975	0.335596
H92	H	-0.660559	-0.844564	0.266009
H93	H	-0.793624	-0.778493	0.331885
H94	H	-0.793633	-0.847897	0.401493
H95	H	-0.706993	-0.779651	0.400182
C96	C	-0.000075	-1.231318	-0.157521
C97	C	-0.000051	-1.301516	-0.227611
C98	C	0.000005	-1.383983	-0.191734
H99	H	-0.057732	-1.235520	-0.121585
H100	H	0.057621	-1.235445	-0.121585
H101	H	-0.057741	-1.297391	-0.263531
H102	H	0.057602	-1.297344	-0.263553
H103	H	0.057701	-1.388110	-0.155798
H104	H	-0.057653	-1.388175	-0.155798
H105	H	0.000031	-1.431622	-0.239284
C106	C	-0.551943	-0.930160	0.250229
C107	C	-0.492142	-0.977858	0.305043
C108	C	-0.439938	-0.917250	0.365819
H109	H	-0.597735	-0.893955	0.286484
H110	H	-0.511286	-0.892905	0.218014
H111	H	-0.532795	-1.015098	0.337257
H112	H	-0.446331	-1.014060	0.268813
H113	H	-0.399282	-0.879994	0.333604
H114	H	-0.485737	-0.881048	0.402068
H115	H	-0.399351	-0.949604	0.403012
H116	H	-0.000115	-1.205673	-0.336396
H117	H	-0.000119	-1.203437	-0.454903
C118	C	0.000051	-1.222191	-0.639585
C119	C	0.085114	-1.271796	-0.623240
C120	C	0.085274	-1.352478	-0.680348
H121	H	0.000111	-1.209479	-0.700348
H122	H	-0.057599	-1.255995	-0.628636
H123	H	0.142750	-1.237999	-0.634197
H124	H	0.085072	-1.284531	-0.562489
H125	H	0.027623	-1.386282	-0.669398
H126	H	0.085331	-1.339758	-0.741107
H127	H	0.142982	-1.386149	-0.669260
C128	C	0.000080	-0.891298	-0.113319
C129	C	0.085161	-0.841718	-0.129639
C130	C	0.085345	-0.761040	-0.072524
H131	H	0.000130	-0.904016	-0.052559
H132	H	-0.057559	-0.857475	-0.124279
H133	H	0.142784	-0.875534	-0.118673
H134	H	0.085128	-0.828976	-0.190389
H135	H	0.027707	-0.727217	-0.083484
H136	H	0.085393	-0.773767	-0.011767
H137	H	0.143066	-0.727387	-0.083595
H138	H	-0.433991	-0.946496	0.233690
C139	C	-0.231040	-0.930092	0.250317
C140	C	-0.256322	-0.944702	0.338240
C141	C	-0.204319	-0.884048	0.399126
H142	H	-0.248070	-0.870352	0.240625
H143	H	-0.161578	-0.938790	0.241678
H144	H	-0.325769	-0.935997	0.346876
H145	H	-0.239290	-1.004430	0.347961
H146	H	-0.134856	-0.892746	0.390486
H147	H	-0.221352	-0.824312	0.389426
H148	H	-0.221458	-0.893958	0.458788
H149	H	-0.000082	-0.904606	-0.585780
C150	C	0.000085	-0.581160	0.294283
C151	C	0.085155	-0.526961	0.298018
C152	C	0.085340	-0.469615	0.378546
H153	H	0.000151	-0.615897	0.343652
H154	H	-0.057561	-0.544273	0.296997
H155	H	0.142786	-0.563843	0.295313
H156	H	0.085106	-0.492205	0.248667
H157	H	0.027694	-0.432729	0.381260
H158	H	0.085404	-0.504360	0.427909
H159	H	0.143053	-0.432829	0.381088
H160	H	-0.755077	-1.167001	0.013377
H161	H	-0.000080	-0.478296	0.270239
H162	H	-0.000107	-0.309033	0.267039
H163	H	-0.000133	-0.347419	-0.028593
H164	H	-0.000065	-0.910047	-0.298024
