data_functionalizedCrystal
_audit_creation_method	'MofGen! by Chris Wilmer'
_symmetry_space_group_name_H-M	'P1'
_symmetry_Int_Tables_number	1
_symmetry_cell_setting	triclinic
loop_
_symmetry_equiv_pos_as_xyz
  x,y,z
_cell_length_a	10.654558
_cell_length_b	15.944493
_cell_length_c	9.130313
_cell_angle_alpha	90.004626
_cell_angle_beta	90.000369
_cell_angle_gamma	83.981680
loop_
_atom_site_label
_atom_site_type_symbol
_atom_site_fract_x
_atom_site_fract_y
_atom_site_fract_z
O1	O	1.666264	0.118009	-0.121758
O2	O	1.300638	0.129242	-0.121763
O3	O	1.493474	0.001406	-0.121773
O4	O	1.473429	0.245845	-0.121749
O5	O	1.493471	0.001409	0.121826
O6	O	1.300636	0.129245	0.121836
O7	O	1.666262	0.118012	0.121841
Cu8	Cu	1.483449	0.123629	0.144081
Cu9	Cu	1.483452	0.123625	-0.144003
O10	O	1.473427	0.245849	0.121850
C11	C	1.253850	0.128417	0.000035
C12	C	1.114440	0.125945	0.000032
C13	C	0.917949	0.122469	-0.132754
C14	C	1.048941	0.124784	-0.132755
C15	C	1.048943	0.124783	0.132829
C16	C	0.917954	0.122462	0.132829
C17	C	0.852455	0.121316	-0.265550
C18	C	0.917944	0.122476	-0.398348
C19	C	1.048936	0.124792	-0.398350
C20	C	1.114439	0.125946	-0.265553
C21	C	1.492653	-0.029892	0.000021
C22	C	1.490197	-0.123155	0.000002
C23	C	1.603704	-0.358256	0.000031
C24	C	1.542495	-0.409181	-0.120076
C25	C	1.485646	-0.293903	0.000020
C26	C	1.542466	-0.409154	0.120094
C27	C	1.481259	-0.458838	0.000043
C28	C	1.424469	-0.343599	-0.120186
C29	C	1.424456	-0.343569	0.120091
C30	C	1.363160	-0.394462	-0.000046
C31	C	1.488177	-0.198888	0.000005
C32	C	1.478718	-0.553850	0.000048
C33	C	1.713050	0.118837	0.000039
C34	C	1.852460	0.121309	0.000033
C35	C	1.474247	0.277147	0.000054
C36	C	1.476703	0.370410	0.000063
N37	N	1.483456	0.123632	0.346703
N38	N	1.483454	0.123616	-0.346626
C39	C	1.568865	0.067045	0.423351
C40	C	1.568862	0.067035	0.576688
C41	C	1.398036	0.180205	0.576716
C42	C	1.398034	0.180211	0.423382
C43	C	1.654287	0.010466	0.346673
C44	C	1.739704	-0.046125	0.423321
C45	C	1.739700	-0.046135	0.576658
C46	C	1.654280	0.010446	0.653347
H47	H	1.102285	0.125725	0.240946
H48	H	1.592354	-0.437839	-0.221617
C49	C	1.833645	-0.108370	0.338961
N50	N	1.904399	-0.155258	0.275422
H51	H	1.261389	-0.410519	-0.000113
H52	H	1.328491	0.226272	0.639166
H53	H	1.374640	-0.314896	0.221636
H54	H	1.592347	-0.437794	0.221628
H55	H	1.221103	0.127827	-0.265564
C56	C	1.833642	-0.108396	0.660966
N57	N	1.904403	-0.155294	0.724464
H58	H	1.328485	0.226288	0.360974
H59	H	0.864628	0.121533	0.240956
H60	H	0.745794	0.119433	-0.265564
C61	C	1.654282	0.010431	0.822023
N62	N	1.654290	0.010424	0.949068
H63	H	1.374641	-0.315071	-0.221836
H64	H	1.102255	0.125729	-0.506480
C65	C	0.845890	0.121201	-0.544416
N66	N	0.791620	0.120241	-0.654438
H67	H	1.705397	-0.342037	-0.000088
H68	H	1.654300	0.010471	0.221819
