data_functionalizedCrystal
_audit_creation_method	'MofGen! by Chris Wilmer'
_symmetry_space_group_name_H-M	'P1'
_symmetry_Int_Tables_number	1
_symmetry_cell_setting	triclinic
loop_
_symmetry_equiv_pos_as_xyz
  x,y,z
_cell_length_a	13.262402
_cell_length_b	13.262508
_cell_length_c	11.892095
_cell_angle_alpha	109.778227
_cell_angle_beta	101.953897
_cell_angle_gamma	80.095424
loop_
_atom_site_label
_atom_site_type_symbol
_atom_site_fract_x
_atom_site_fract_y
_atom_site_fract_z
O1	O	1.366399	0.168258	0.377864
O2	O	1.067230	0.177282	0.288650
O3	O	1.227673	0.016847	0.288660
O4	O	1.205956	0.328694	0.377853
O5	O	1.214296	0.030202	0.476660
O6	O	1.053853	0.190638	0.476650
O7	O	1.353022	0.181613	0.565864
Zn8	Zn	1.201313	0.188246	0.551106
Zn9	Zn	1.218938	0.170650	0.303407
O10	O	1.192579	0.342049	0.565853
C11	C	1.022308	0.182225	0.370360
C12	C	0.908385	0.177040	0.333737
C13	C	0.862155	0.167322	0.214048
C14	C	0.755117	0.162461	0.179644
C15	C	0.694299	0.167309	0.264921
C16	C	0.740530	0.177019	0.384610
C17	C	0.847578	0.181889	0.419021
C18	C	0.679722	0.181876	0.469893
C19	C	0.725953	0.191586	0.589582
C20	C	0.832990	0.196455	0.623987
C21	C	0.893808	0.191607	0.538709
C22	C	0.572675	0.177006	0.435483
C23	C	0.558098	0.191573	0.640455
C24	C	0.665136	0.196434	0.674860
C25	C	1.220997	-0.016456	0.370371
C26	C	1.221023	-0.135584	0.333748
C27	C	1.191922	-0.442280	0.640441
C28	C	1.191889	-0.330351	0.674849
C29	C	1.199173	-0.281654	0.589577
C30	C	1.206488	-0.344896	0.469891
C31	C	1.206513	-0.456834	0.435477
C32	C	1.213764	-0.296209	0.384613
C33	C	1.221079	-0.359451	0.264927
C34	C	1.221104	-0.471378	0.230519
C35	C	1.213820	-0.520075	0.315791
C36	C	1.213740	-0.184270	0.419026
C37	C	1.228331	-0.198825	0.214062
C38	C	1.228363	-0.310753	0.179654
C39	C	1.397944	0.176671	0.484151
C40	C	1.511868	0.181855	0.520767
C41	C	1.199255	0.375351	0.484140
C42	C	1.199230	0.494479	0.520756
N43	N	1.189292	0.200255	0.720156
N44	N	1.230968	0.158632	0.134358
C45	C	1.314616	0.075008	0.956834
C46	C	1.306221	0.083410	1.075177
C47	C	1.164102	0.225455	1.075185
C48	C	1.172498	0.217053	0.956842
C49	C	1.247758	0.141828	0.897671
C50	C	1.256157	0.133432	0.779328
C51	C	1.114035	0.275472	0.779335
C52	C	1.105640	0.283874	0.897679
H53	H	0.702792	0.204342	0.772313
H54	H	1.044361	0.345118	0.945868
H55	H	0.717483	0.154556	0.082193
H56	H	1.227051	-0.522866	0.133060
H57	H	0.508579	0.195524	0.709896
H58	H	1.102821	0.286695	1.123373
Cl59	Cl	1.409237	-0.019547	0.882452
Cl60	Cl	1.204546	-0.104780	0.569484
H61	H	1.317441	0.072183	0.731154
H62	H	1.234318	-0.362261	0.082204
H63	H	1.360662	0.028997	1.123343
H64	H	1.059597	0.329884	0.731153
H65	H	1.234254	-0.159176	0.144624
H66	H	1.199145	-0.190516	0.617599
H67	H	0.535044	0.169101	0.338032
Cl68	Cl	0.559736	0.161194	0.221666
H69	H	0.911680	0.163384	0.144631
Cl70	Cl	1.028376	0.197717	0.581956
Cl71	Cl	1.213860	-0.660791	0.272540
Cl72	Cl	1.182676	-0.250854	0.825299
Cl73	Cl	0.891104	0.208683	0.774458
Cl74	Cl	1.182746	-0.503502	0.747620
