data_functionalizedCrystal
_audit_creation_method	'MofGen! by Chris Wilmer'
_symmetry_space_group_name_H-M	'P1'
_symmetry_Int_Tables_number	1
_symmetry_cell_setting	triclinic
loop_
_symmetry_equiv_pos_as_xyz
  x,y,z
_cell_length_a	8.559649
_cell_length_b	8.634740
_cell_length_c	9.730223
_cell_angle_alpha	89.997777
_cell_angle_beta	89.996443
_cell_angle_gamma	85.174486
loop_
_atom_site_label
_atom_site_type_symbol
_atom_site_fract_x
_atom_site_fract_y
_atom_site_fract_z
O1	O	2.112216	-0.051376	-0.114285
O2	O	1.659053	0.026835	-0.114287
O3	O	1.864183	-0.234206	-0.114283
O4	O	1.907085	0.209665	-0.114289
O5	O	1.864167	-0.234211	0.114297
O6	O	1.659036	0.026830	0.114293
O7	O	2.112199	-0.051380	0.114295
Zn8	Zn	1.885615	-0.012276	0.150586
Zn9	Zn	1.885637	-0.012270	-0.150578
O10	O	1.907069	0.209661	0.114291
C11	C	1.600427	0.032760	0.000003
C12	C	1.425763	0.050402	0.000002
C13	C	1.854456	-0.290508	0.000005
C14	C	1.825478	-0.458259	-0.000001
C15	C	2.170825	-0.057305	0.000002
C16	C	2.345489	-0.074948	-0.000006
C17	C	1.916796	0.265962	0.000000
C18	C	1.945774	0.433714	-0.000003
N19	N	1.885612	-0.012282	0.356122
N20	N	1.885651	-0.012277	-0.356114
C21	C	1.976486	-0.127832	0.428050
C22	C	1.976502	-0.127834	0.571933
C23	C	1.794766	0.103279	0.571948
C24	C	1.794743	0.103273	0.428068
H25	H	1.410394	-0.195771	-0.000005
H26	H	2.050498	-0.221926	0.630493
Cl27	Cl	2.139019	-0.510946	-0.000009
Cl28	Cl	1.632224	-0.513603	-0.000016
H29	H	2.050475	-0.221926	0.369476
Cl30	Cl	1.680542	0.248547	0.662399
Cl31	Cl	1.325572	0.236938	-0.000024
Cl32	Cl	1.680483	0.248541	0.337635
