data_functionalizedCrystal
_audit_creation_method	'MofGen! by Chris Wilmer'
_symmetry_space_group_name_H-M	'P1'
_symmetry_Int_Tables_number	1
_symmetry_cell_setting	triclinic
loop_
_symmetry_equiv_pos_as_xyz
  x,y,z
_cell_length_a	10.489741
_cell_length_b	10.489741
_cell_length_c	9.565339
_cell_angle_alpha	90.000516
_cell_angle_beta	89.999100
_cell_angle_gamma	84.539174
loop_
_atom_site_label
_atom_site_type_symbol
_atom_site_fract_x
_atom_site_fract_y
_atom_site_fract_z
O1	O	1.694053	0.179959	-0.116173
O2	O	1.322857	0.196852	-0.116194
O3	O	1.516901	0.002807	-0.116175
O4	O	1.500009	0.374003	-0.116192
O5	O	1.516886	0.002819	0.116345
O6	O	1.322842	0.196864	0.116326
O7	O	1.694038	0.179971	0.116347
Zn8	Zn	1.508437	0.188419	0.153254
Zn9	Zn	1.508458	0.188403	-0.153101
O10	O	1.499993	0.374015	0.116328
C11	C	1.275318	0.195582	0.000063
C12	C	1.133688	0.191765	0.000055
C13	C	1.065548	0.068300	0.000074
C14	C	0.973429	0.126617	-0.114571
C15	C	0.973448	0.126659	0.114676
C16	C	1.043435	0.250133	-0.114684
C17	C	1.043463	0.250157	0.114665
C18	C	0.951371	0.308564	-0.000007
C19	C	1.515618	-0.044718	0.000084
C20	C	1.511801	-0.186348	0.000082
C21	C	1.388336	-0.254488	0.000064
C22	C	1.446652	-0.346604	0.114712
C23	C	1.446696	-0.346591	-0.114534
C24	C	1.570168	-0.276599	0.114824
C25	C	1.570195	-0.276576	-0.114525
C26	C	1.628600	-0.368665	0.000150
C27	C	1.741577	0.181241	0.000087
C28	C	1.883206	0.185058	0.000086
C29	C	1.501277	0.421541	0.000066
C30	C	1.505094	0.563170	0.000059
N31	N	1.508433	0.188429	0.362334
N32	N	1.508472	0.188383	-0.362180
C33	C	1.418666	0.278138	0.453528
C34	C	1.534163	0.303949	0.546712
C35	C	1.392986	0.162629	0.546704
C36	C	1.623988	0.214298	0.453466
C37	C	1.482735	0.072928	0.453451
C38	C	1.598314	0.098690	0.546593
H39	H	1.074503	0.302360	0.211590
C40	C	0.968682	0.119580	0.365509
C41	C	0.931618	0.056124	0.245525
H42	H	0.942854	0.076030	0.446281
H43	H	1.059103	0.120815	0.365986
H44	H	0.929206	0.204925	0.365639
H45	H	0.971102	-0.029219	0.245389
H46	H	0.841180	0.054875	0.245048
C47	C	1.699412	-0.003659	0.747803
C48	C	1.700916	-0.003760	0.601426
H49	H	1.762750	-0.066910	0.781653
H50	H	1.716996	0.078145	0.781140
H51	H	1.617472	-0.022165	0.779886
H52	H	1.782854	0.014755	0.569343
H53	H	1.683341	-0.085582	0.568075
C54	C	1.208353	-0.087475	0.120048
C55	C	1.132585	-0.068732	-0.000066
H56	H	1.249732	-0.172073	0.119958
H57	H	1.270925	-0.027716	0.120925
H58	H	1.155778	-0.075368	0.200721
H59	H	1.185161	-0.080831	-0.080739
H60	H	1.070004	-0.128510	-0.000956
C61	C	1.167307	0.227273	0.554994
C62	C	1.261167	0.133179	0.601983
H63	H	1.085926	0.209092	0.589110
H64	H	1.186189	0.308680	0.588307
H65	H	1.166139	0.227845	0.455692
H66	H	1.262341	0.132613	0.701286
H67	H	1.242280	0.051751	0.568677
H68	H	1.460936	-0.024699	0.412454
C69	C	1.269900	-0.450908	0.204891
C70	C	1.376126	-0.388476	0.245548
H71	H	1.226361	-0.476759	0.285662
H72	H	1.213591	-0.394214	0.150927
H73	H	1.297711	-0.524105	0.150530
H74	H	1.348313	-0.315273	0.299901
H75	H	1.432444	-0.445173	0.299536
C76	C	0.989728	-0.069714	-0.245195
C77	C	0.931553	0.056092	-0.245404
H78	H	0.963871	-0.113258	-0.325959
H79	H	1.080147	-0.068471	-0.245718
H80	H	0.964598	-0.112740	-0.163773
H81	H	0.956691	0.099121	-0.326821
H82	H	0.841114	0.054855	-0.244895
C83	C	1.146464	0.427542	-0.205286
C84	C	1.085050	0.320585	-0.245684
H85	H	1.172163	0.471026	-0.286162
H86	H	1.089215	0.483631	-0.151711
H87	H	1.219679	0.400500	-0.150607
H88	H	1.011830	0.347628	-0.300355
H89	H	1.142303	0.264486	-0.299282
C90	C	0.807237	0.463767	-0.119056
C91	C	0.884634	0.445718	-0.000092
H92	H	0.766030	0.548436	-0.119106
H93	H	0.858664	0.450968	-0.200501
H94	H	0.744512	0.404150	-0.118227
H95	H	0.947365	0.505329	-0.000926
H96	H	0.833203	0.458530	0.081374
C97	C	1.643501	-0.101805	0.244680
C98	C	1.640614	-0.234981	0.245826
H99	H	1.686982	-0.076112	0.325560
H100	H	1.687075	-0.077284	0.163384
H101	H	1.558400	-0.061701	0.244345
H102	H	1.725716	-0.275085	0.246151
H103	H	1.597043	-0.259515	0.327144
C104	C	1.575840	-0.269605	-0.365315
C105	C	1.640665	-0.234655	-0.245367
H106	H	1.619335	-0.243714	-0.446097
H107	H	1.573253	-0.359861	-0.366723
H108	H	1.490972	-0.228924	-0.364481
H109	H	1.725530	-0.275345	-0.246197
H110	H	1.643266	-0.144383	-0.243960
C111	C	1.250366	-0.330219	-0.245157
C112	C	1.376165	-0.388414	-0.245387
H113	H	1.206822	-0.356030	-0.325941
H114	H	1.207336	-0.355367	-0.163762
H115	H	1.251629	-0.239790	-0.245635
H116	H	1.374902	-0.478845	-0.244898
H117	H	1.419206	-0.363274	-0.326804
C118	C	1.469405	0.529603	0.555063
C119	C	1.563542	0.435776	0.602029
H120	H	1.487535	0.610987	0.589219
H121	H	1.468837	0.530802	0.455775
H122	H	1.388001	0.510661	0.588368
H123	H	1.644945	0.454713	0.568716
H124	H	1.564124	0.434579	0.701338
C125	C	1.754560	0.243856	0.252043
C126	C	1.755809	0.243998	0.398423
H127	H	1.835926	0.262233	0.218064
H128	H	1.736229	0.162082	0.219316
H129	H	1.690688	0.307175	0.219478
H130	H	1.819674	0.180673	0.430988
H131	H	1.774154	0.325784	0.431163
H132	H	1.286824	-0.204837	0.000174
H133	H	1.730204	-0.418089	0.000220
H134	H	1.342823	0.354073	0.412665
