data_functionalizedCrystal
_audit_creation_method	'MofGen! by Chris Wilmer'
_symmetry_space_group_name_H-M	'P1'
_symmetry_Int_Tables_number	1
_symmetry_cell_setting	triclinic
loop_
_symmetry_equiv_pos_as_xyz
  x,y,z
_cell_length_a	12.827893
_cell_length_b	13.033855
_cell_length_c	12.827885
_cell_angle_alpha	97.207692
_cell_angle_beta	90.019272
_cell_angle_gamma	82.826843
loop_
_atom_site_label
_atom_site_type_symbol
_atom_site_fract_x
_atom_site_fract_y
_atom_site_fract_z
Zn1	Zn	1.650540	-0.415971	0.538054
Zn2	Zn	1.672649	-0.590746	0.341133
Zn3	Zn	1.475788	-0.416023	0.363321
Zn4	Zn	1.497971	-0.590669	0.515842
O5	O	1.574237	-0.503352	0.439588
O6	O	1.799710	-0.439166	0.511942
O7	O	1.646503	-0.567622	0.197833
O8	O	1.480433	-0.269782	0.405082
O9	O	1.815953	-0.567572	0.367264
O10	O	1.608823	-0.269744	0.533458
O11	O	1.501871	-0.439254	0.214135
O12	O	1.332494	-0.439179	0.383544
O13	O	1.518241	-0.567441	0.665032
O14	O	1.348791	-0.567491	0.495600
O15	O	1.630333	-0.439091	0.681351
O16	O	1.668014	-0.736969	0.345726
O17	O	1.539679	-0.736912	0.474085
C18	C	1.302725	-0.503333	0.439570
C19	C	1.186574	-0.503350	0.439584
C20	C	1.126766	-0.439923	0.511260
C21	C	1.006718	-0.439939	0.511276
C22	C	1.608681	-0.774858	0.405110
C23	C	1.623511	-0.891009	0.390395
C24	C	1.566579	-0.942799	0.447288
C25	C	1.581905	-1.062847	0.432081
C26	C	1.846810	-0.503372	0.439606
C27	C	1.962964	-0.503381	0.439613
C28	C	1.574296	-0.503252	0.712171
C29	C	1.574320	-0.503209	0.828329
C30	C	1.539688	-0.230786	0.474223
C31	C	1.524965	-0.114635	0.488982
C32	C	1.574230	-0.503377	0.168075
C33	C	1.574370	-0.503125	0.051954
C34	C	1.629792	-0.439685	0.888191
C35	C	1.629819	-0.439639	1.008247
H36	H	1.014361	-0.557691	0.378251
H37	H	1.641996	-1.107379	0.372108
H38	H	1.464867	-1.070104	0.548949
H39	H	1.677260	-0.385330	0.850560
O40	O	1.517862	-0.568064	0.990467
C41	C	1.585958	-0.635545	0.918783
H42	H	1.660491	-0.598685	0.907232
H43	H	1.545215	-0.649506	0.840207
H44	H	1.607230	-0.713010	0.950942
H45	H	1.164437	-0.385605	0.572609
O46	O	1.517590	-0.568088	0.873047
C47	C	1.466030	-0.627181	0.794075
H48	H	1.456907	-0.584480	0.721668
H49	H	1.385139	-0.638284	0.824277
H50	H	1.514349	-0.706564	0.772423
H51	H	1.148902	-0.557661	0.378230
H52	H	0.955315	-0.385640	0.572643
O53	O	1.695345	-0.944159	0.319016
C54	C	1.770777	-1.007189	0.370671
H55	H	1.772952	-0.974165	0.457140
H56	H	1.851398	-1.008465	0.332822
H57	H	1.748978	-1.089904	0.363821
H58	H	1.506485	-0.898266	0.507251
O59	O	1.686382	-0.374785	1.069774
C60	C	1.673830	-0.389189	1.175944
H61	H	1.597514	-0.423420	1.186391
H62	H	1.670967	-0.310936	1.227442
H63	H	1.742855	-0.444854	1.199852
