data_functionalizedCrystal
_audit_creation_method	'MofGen! by Chris Wilmer'
_symmetry_space_group_name_H-M	'P1'
_symmetry_Int_Tables_number	1
_symmetry_cell_setting	triclinic
loop_
_symmetry_equiv_pos_as_xyz
  x,y,z
_cell_length_a	18.215405
_cell_length_b	18.215407
_cell_length_c	18.215399
_cell_angle_alpha	90.020595
_cell_angle_beta	89.972459
_cell_angle_gamma	89.977347
loop_
_atom_site_label
_atom_site_type_symbol
_atom_site_fract_x
_atom_site_fract_y
_atom_site_fract_z
Zn1	Zn	-0.292993	-1.125083	-0.416133
Zn2	Zn	-0.416065	-1.124996	-0.293068
Zn3	Zn	-0.293016	-1.002016	-0.293079
Zn4	Zn	-0.416023	-1.001986	-0.416091
O5	O	-0.354524	-1.063520	-0.354592
O6	O	-0.309327	-1.228056	-0.399821
O7	O	-0.399769	-1.108658	-0.190085
O8	O	-0.190029	-1.018389	-0.309424
O9	O	-0.399747	-1.227992	-0.309405
O10	O	-0.190012	-1.108807	-0.399832
O11	O	-0.309366	-1.018305	-0.190093
O12	O	-0.309325	-0.899027	-0.309384
O13	O	-0.399675	-1.018339	-0.519081
O14	O	-0.399697	-0.899006	-0.399760
O15	O	-0.309286	-1.108778	-0.519112
O16	O	-0.519043	-1.108630	-0.309365
O17	O	-0.519012	-1.018255	-0.399749
C18	C	-0.354510	-0.872314	-0.354569
C19	C	-0.354521	-0.790515	-0.354576
C20	C	-0.401650	-0.602329	-0.401574
C21	C	-0.401652	-0.525470	-0.401582
C22	C	-0.307402	-0.525463	-0.307614
C23	C	-0.307397	-0.602321	-0.307610
C24	C	-0.354526	-0.640751	-0.354589
C25	C	-0.354532	-0.487035	-0.354601
C26	C	-0.354533	-0.403702	-0.354609
C27	C	-0.354524	-0.724090	-0.354582
C28	C	-0.545730	-1.063450	-0.354567
C29	C	-0.627529	-1.063487	-0.354581
C30	C	-0.815653	-1.110589	-0.401720
C31	C	-0.892512	-1.110616	-0.401734
C32	C	-0.892643	-1.016542	-0.307511
C33	C	-0.815786	-1.016512	-0.307501
C34	C	-0.777293	-1.063540	-0.354605
C35	C	-0.931009	-1.063597	-0.354628
C36	C	-1.014343	-1.063625	-0.354643
C37	C	-0.693954	-1.063511	-0.354591
C38	C	-0.162571	-1.063611	-0.354634
C39	C	-0.080772	-1.063650	-0.354652
C40	C	-0.354473	-1.063565	-0.546545
C41	C	-0.354452	-1.063584	-0.628344
C42	C	-0.354537	-0.255473	-0.354613
C43	C	-0.354536	-0.337272	-0.354614
C44	C	-0.307342	-1.110692	-0.816556
C45	C	-0.307321	-1.110701	-0.893415
C46	C	-0.401448	-1.016528	-0.893371
C47	C	-0.401465	-1.016516	-0.816514
C48	C	-0.354413	-1.063602	-0.778108
C49	C	-0.354375	-1.063623	-0.931824
C50	C	-0.354352	-1.063632	-1.015158
C51	C	-0.354435	-1.063592	-0.694769
C52	C	-0.354522	-1.063518	-0.163386
C53	C	-0.354336	-1.063641	-0.081588
H54	H	-0.269018	-0.633605	-0.269350
O55	O	-0.261516	-1.156340	-0.930793
C56	C	-0.162157	-1.166296	-1.017617
C57	C	-0.213979	-1.114527	-0.975321
H58	H	-0.123720	-1.132512	-1.053640
H59	H	-0.128479	-1.199930	-0.976994
H60	H	-0.195949	-1.204783	-1.053570
H61	H	-0.180244	-1.075995	-0.939367
H62	H	-0.247659	-1.080945	-1.015984
H63	H	-0.923742	-1.148927	-0.440101
H64	H	-0.784315	-1.148881	-0.440075
H65	H	-0.923993	-0.978255	-0.269160
H66	H	-0.439757	-0.978193	-0.924650
H67	H	-0.439795	-0.978164	-0.785209
H68	H	-0.440025	-0.494190	-0.439843
O69	O	-0.778631	-0.970782	-0.261661
C70	C	-0.786865	-0.877443	-0.168239
C71	C	-0.829033	-0.929206	-0.220096
H72	H	-0.827597	-0.843805	-0.134631
H73	H	-0.750897	-0.911205	-0.129738
H74	H	-0.750873	-0.838961	-0.202000
H75	H	-0.865065	-0.967699	-0.186394
H76	H	-0.864955	-0.895399	-0.258598
O77	O	-0.447502	-0.639694	-0.447107
C78	C	-0.546839	-0.726471	-0.456842
C79	C	-0.494972	-0.684191	-0.405188
H80	H	-0.585221	-0.762468	-0.422972
H81	H	-0.580572	-0.685836	-0.490413
H82	H	-0.513080	-0.762447	-0.495393
H83	H	-0.528674	-0.648214	-0.366593
H84	H	-0.461236	-0.724865	-0.371669
O85	O	-0.261695	-0.488016	-0.262004
C86	C	-0.219895	-0.369611	-0.220400
C87	C	-0.271709	-0.411925	-0.272079
H88	H	-0.227962	-0.308084	-0.228538
H89	H	-0.232740	-0.384638	-0.161018
H90	H	-0.160578	-0.384793	-0.233421
H91	H	-0.331043	-0.396766	-0.259124
H92	H	-0.258800	-0.396895	-0.331445
O93	O	-0.261564	-1.156449	-0.779362
C94	C	-0.168228	-1.249883	-0.787521
C95	C	-0.220025	-1.198091	-0.829731
H96	H	-0.134641	-1.283575	-0.828226
H97	H	-0.129705	-1.216142	-0.751561
H98	H	-0.202035	-1.288314	-0.751517
H99	H	-0.186278	-1.159649	-0.865774
H100	H	-0.258550	-1.231878	-0.865644
