data_functionalizedCrystal
_audit_creation_method	'MofGen! by Chris Wilmer'
_symmetry_space_group_name_H-M	'P1'
_symmetry_Int_Tables_number	1
_symmetry_cell_setting	triclinic
loop_
_symmetry_equiv_pos_as_xyz
  x,y,z
_cell_length_a	18.215407
_cell_length_b	12.827892
_cell_length_c	18.215399
_cell_angle_alpha	89.975743
_cell_angle_beta	89.980650
_cell_angle_gamma	90.015840
loop_
_atom_site_label
_atom_site_type_symbol
_atom_site_fract_x
_atom_site_fract_y
_atom_site_fract_z
Zn1	Zn	1.125117	-0.416027	-0.416137
Zn2	Zn	1.625117	0.083973	0.083863
Zn3	Zn	1.125047	-0.590787	-0.293079
Zn4	Zn	1.625047	-0.090787	0.206921
Zn5	Zn	1.002051	-0.416062	-0.293084
Zn6	Zn	1.502051	0.083938	0.206916
Zn7	Zn	1.002036	-0.590728	-0.416104
Zn8	Zn	1.502036	-0.090728	0.083896
O9	O	1.063563	-0.503401	-0.354601
O10	O	1.563563	-0.003401	0.145399
O11	O	1.228092	-0.439219	-0.399825
O12	O	1.728092	0.060781	0.100175
O13	O	1.108708	-0.567650	-0.190096
O14	O	1.608708	-0.067650	0.309904
O15	O	1.018411	-0.269822	-0.309423
O16	O	1.518411	0.230178	0.190577
O17	O	1.228040	-0.567615	-0.309415
O18	O	1.728040	-0.067615	0.190585
O19	O	1.108828	-0.269796	-0.399829
O20	O	1.608828	0.230204	0.100171
O21	O	1.018343	-0.439280	-0.190099
O22	O	1.518343	0.060720	0.309901
O23	O	0.899064	-0.439222	-0.309392
O24	O	1.399064	0.060778	0.190608
O25	O	1.018386	-0.567514	-0.519093
O26	O	1.518386	-0.067514	-0.019093
O27	O	0.899054	-0.567548	-0.399774
O28	O	1.399054	-0.067548	0.100226
O29	O	1.108813	-0.439162	-0.519117
O30	O	1.608813	0.060838	-0.019117
O31	O	1.108694	-0.737016	-0.309383
O32	O	1.608694	-0.237016	0.190617
O33	O	1.018318	-0.736972	-0.399769
O34	O	1.518318	-0.236972	0.100231
C35	C	0.872356	-0.503383	-0.354580
C36	C	1.372356	-0.003383	0.145420
C37	C	0.790557	-0.503401	-0.354589
C38	C	1.290557	-0.003401	0.145411
C39	C	1.063517	-0.774911	-0.354588
C40	C	1.563517	-0.274911	0.145412
C41	C	1.063564	-0.891064	-0.354607
C42	C	1.563564	-0.391064	0.145393
C43	C	0.602377	-0.570325	-0.401592
C44	C	1.102377	-0.070325	0.098408
C45	C	0.525518	-0.570329	-0.401601
C46	C	1.025518	-0.070329	0.098399
C47	C	0.525500	-0.436496	-0.307627
C48	C	1.025500	0.063504	0.192373
C49	C	0.602357	-0.436488	-0.307622
C50	C	1.102357	0.063512	0.192378
C51	C	0.640794	-0.503409	-0.354603
C52	C	1.140794	-0.003409	0.145397
C53	C	0.487078	-0.503420	-0.354617
C54	C	0.987078	-0.003420	0.145383
C55	C	0.403744	-0.503423	-0.354627
C56	C	0.903744	-0.003423	0.145373
C57	C	0.724133	-0.503405	-0.354595
C58	C	1.224133	-0.003405	0.145405
C59	C	1.108338	-0.942836	-0.309931
C60	C	1.608338	-0.442836	0.190069
C61	C	1.108388	-1.062886	-0.309950
C62	C	1.608388	-0.562886	0.190050
C63	C	1.255515	-0.503420	-0.354623
C64	C	1.755515	-0.003420	0.145377
C65	C	1.337314	-0.503428	-0.354632
C66	C	1.837314	-0.003428	0.145368
C67	C	1.063606	-0.503327	-0.546554
C68	C	1.563606	-0.003327	-0.046554
C69	C	1.063624	-0.503296	-0.628353
C70	C	1.563624	-0.003296	-0.128353
C71	C	1.063629	-0.230831	-0.354630
C72	C	1.563629	0.269169	0.145370
C73	C	1.063657	-0.114678	-0.354643
C74	C	1.563657	0.385322	0.145357
C75	C	1.110737	-0.436372	-0.893425
C76	C	1.610737	0.063628	-0.393425
C77	C	1.110728	-0.436401	-0.816566
C78	C	1.610728	0.063599	-0.316566
C79	C	1.016571	-0.570067	-0.816531
C80	C	1.516571	-0.070067	-0.316531
C81	C	1.016584	-0.570043	-0.893388
C82	C	1.516584	-0.070043	-0.393388
C83	C	1.063666	-0.503190	-0.931833
C84	C	1.563666	-0.003190	-0.431833
C85	C	1.063644	-0.503242	-0.778117
C86	C	1.563644	-0.003242	-0.278117
C87	C	1.063635	-0.503273	-0.694783
C88	C	1.563635	-0.003273	-0.194783
C89	C	1.063677	-0.503160	-1.015172
C90	C	1.563677	-0.003160	-0.515172
C91	C	1.063562	-0.503400	-0.163395
C92	C	1.563562	-0.003400	0.336605
C93	C	1.063686	-0.503137	-0.081597
C94	C	1.563686	-0.003137	0.418403
H95	H	0.494243	-0.624817	-0.439864
H96	H	0.994243	-0.124817	0.060136
H97	H	1.025272	-0.935617	-0.392873
H98	H	1.525272	-0.435617	0.107127
H99	H	1.149073	-0.381936	-0.924724
H100	H	1.649073	0.118064	-0.424724
H101	H	1.149059	-0.381992	-0.785297
H102	H	1.649059	0.118008	-0.285297
H103	H	0.633670	-0.624814	-0.439849
H104	H	1.133670	-0.124814	0.060151
H105	H	0.494196	-0.382013	-0.269375
H106	H	0.994196	0.117987	0.230625
H107	H	0.633637	-0.381990	-0.269358
H108	H	1.133637	0.118010	0.230642
O109	O	1.153920	-0.889646	-0.264203
O110	O	1.653920	-0.389646	0.235797
C111	C	1.111982	-0.826584	-0.216677
C112	C	1.611982	-0.326584	0.283323
H113	H	1.054058	-0.859619	-0.212062
H114	H	1.554058	-0.359619	0.287938
H115	H	1.109345	-0.743888	-0.239471
H116	H	1.609345	-0.243888	0.260529
C117	C	1.219121	-0.784209	-0.145875
C118	C	1.719121	-0.284209	0.354125
C119	C	1.147979	-0.824788	-0.140201
C120	C	1.647979	-0.324788	0.359799
H121	H	1.241326	-0.783096	-0.098701
H122	H	1.741326	-0.283096	0.401299
H123	H	1.247377	-0.826692	-0.177895
H124	H	1.747377	-0.326692	0.322105
H125	H	1.216914	-0.715299	-0.164873
H126	H	1.716914	-0.215299	0.335127
H127	H	1.150187	-0.893700	-0.121212
H128	H	1.650187	-0.393700	0.378788
H129	H	1.119724	-0.782317	-0.108175
H130	H	1.619724	-0.282317	0.391825
H131	H	0.978238	-0.624495	-0.785219
H132	H	1.478238	-0.124495	-0.285219
H133	H	1.146719	-1.107409	-0.271699
H134	H	1.646719	-0.607409	0.228301
O135	O	1.017960	-1.061692	-0.400382
O136	O	1.517960	-0.561692	0.099618
C137	C	1.034009	-1.088179	-0.473766
C138	C	1.534009	-0.588179	0.026234
H139	H	1.062281	-1.167418	-0.475380
H140	H	1.562281	-0.667418	0.024620
H141	H	1.071846	-1.026703	-0.498537
H142	H	1.571846	-0.526703	0.001463
C143	C	0.927516	-0.995795	-0.516302
C144	C	1.427516	-0.495795	-0.016302
C145	C	0.962234	-1.093122	-0.518285
C146	C	1.462234	-0.593122	-0.018285
H147	H	0.883243	-0.998840	-0.543766
H148	H	1.383243	-0.498840	-0.043766
H149	H	0.916704	-0.977947	-0.466862
H150	H	1.416704	-0.477947	0.033138
H151	H	0.959054	-0.944576	-0.536944
H152	H	1.459054	-0.444576	-0.036944
H153	H	0.930700	-1.144337	-0.497636
H154	H	1.430700	-0.644337	0.002364
H155	H	0.973039	-1.110979	-0.567723
H156	H	1.473039	-0.610979	-0.067723
H157	H	0.978253	-0.624460	-0.924661
H158	H	1.478253	-0.124460	-0.424661
