data_functionalizedCrystal
_audit_creation_method	'MofGen! by Chris Wilmer'
_symmetry_space_group_name_H-M	'P1'
_symmetry_Int_Tables_number	1
_symmetry_cell_setting	triclinic
loop_
_symmetry_equiv_pos_as_xyz
  x,y,z
_cell_length_a	10.686220
_cell_length_b	12.645330
_cell_length_c	10.685880
_cell_angle_alpha	94.340937
_cell_angle_beta	89.641569
_cell_angle_gamma	94.399208
loop_
_atom_site_label
_atom_site_type_symbol
_atom_site_fract_x
_atom_site_fract_y
_atom_site_fract_z
Zn1	Zn	1.972238	-0.330920	-0.562382
Zn2	Zn	2.472238	0.169080	-0.062382
Zn3	Zn	1.956011	-0.495766	-0.352635
Zn4	Zn	2.456011	0.004234	0.147365
Zn5	Zn	1.746367	-0.333080	-0.368705
Zn6	Zn	2.246367	0.166920	0.131295
Zn7	Zn	1.762427	-0.522712	-0.578407
Zn8	Zn	2.262427	-0.022712	-0.078407
O9	O	1.859261	-0.420620	-0.465532
O10	O	2.359261	0.079380	0.034468
O11	O	2.145629	-0.340606	-0.521127
O12	O	2.645629	0.159394	-0.021127
O13	O	1.914690	-0.463813	-0.179225
O14	O	2.414690	0.036187	0.320775
O15	O	1.776399	-0.184443	-0.394416
O16	O	2.276399	0.315557	0.105584
O17	O	2.133707	-0.461718	-0.367026
O18	O	2.633707	0.038282	0.132974
O19	O	1.942345	-0.182856	-0.536710
O20	O	2.442345	0.317144	-0.036710
O21	O	1.760665	-0.344288	-0.191032
O22	O	2.260665	0.155712	0.308968
O23	O	1.572954	-0.370416	-0.409954
O24	O	2.072954	0.129584	0.090046
O25	O	1.803771	-0.507643	-0.751823
O26	O	2.303771	-0.007643	-0.251823
O27	O	1.584754	-0.509738	-0.564022
O28	O	2.084754	-0.009738	-0.064022
O29	O	1.957918	-0.366734	-0.740050
O30	O	2.457918	0.133266	-0.240050
O31	O	1.930263	-0.647691	-0.382565
O32	O	2.430263	-0.147691	0.117435
O33	O	1.788037	-0.667488	-0.548439
O34	O	2.288037	-0.167488	-0.048439
C35	C	1.533338	-0.443236	-0.490472
C36	C	2.033338	0.056764	0.009528
C37	C	1.393908	-0.452939	-0.501171
C38	C	1.893908	0.047061	-0.001171
C39	C	1.859168	-0.696055	-0.465522
C40	C	2.359168	-0.196055	0.034478
C41	C	1.859246	-0.813881	-0.465550
C42	C	2.359246	-0.313881	0.034450
C43	C	1.770195	-0.993934	-0.570170
C44	C	2.270195	-0.493934	-0.070170
C45	C	1.769677	-0.871390	-0.569895
C46	C	2.269677	-0.371390	-0.069895
C47	C	1.813318	-0.853114	-0.336088
C48	C	2.313318	-0.353114	0.163912
C49	C	1.812774	-0.975788	-0.336723
C50	C	2.312774	-0.475788	0.163277
C51	C	1.994734	-0.973753	-0.489276
C52	C	2.494734	-0.473753	0.010724
C53	C	1.994142	-0.851374	-0.492229
C54	C	2.494142	-0.351374	0.007771
C55	C	2.186457	-0.397915	-0.440496
C56	C	2.686457	0.102085	0.059504
C57	C	2.325888	-0.388240	-0.429828
C58	C	2.825888	0.111760	0.070172
C59	C	1.884446	-0.439953	-0.792725
C60	C	2.384446	0.060047	-0.292725
C61	C	1.895178	-0.448192	-0.932155
C62	C	2.395178	0.051808	-0.432155
C63	C	1.859390	-0.144108	-0.465568
C64	C	2.359390	0.355892	0.034432
C65	C	1.859446	-0.026275	-0.465583
C66	C	2.359446	0.473725	0.034417
C67	C	1.834246	-0.401280	-0.139607
C68	C	2.334246	0.098720	0.360393
C69	C	1.823757	-0.392725	-0.000159
C70	C	2.323757	0.107275	0.499841
H71	H	1.799587	-0.845499	-0.666208
H72	H	2.299587	-0.345499	-0.166208
H73	H	1.715090	-0.827437	-0.314241
H74	H	2.215090	-0.327437	0.185759
H75	H	1.345469	-0.515763	-0.570433
H76	H	1.845469	-0.015763	-0.070433
H77	H	1.964546	-0.501988	-0.980607
H78	H	2.464546	-0.001988	-0.480607
H79	H	1.799924	-1.027642	-0.666821
H80	H	2.299924	-0.527642	-0.166821
H81	H	1.754389	-0.338938	-0.951714
H82	H	2.254389	0.161062	-0.451714
H83	H	1.669585	-0.847657	-0.555000
H84	H	2.169585	-0.347657	-0.055000
H85	H	1.374321	-0.325427	-0.360562
H86	H	1.874321	0.174573	0.139438
H87	H	1.670739	-1.030310	-0.555515
H88	H	2.170739	-0.530310	-0.055515
H89	H	1.713575	-1.009515	-0.315472
H90	H	2.213575	-0.509515	0.184528
H91	H	1.874410	-0.996321	-0.256687
H92	H	2.374410	-0.496321	0.243313
H93	H	1.875814	-0.814803	-0.256479
H94	H	2.375814	-0.314803	0.243521
H95	H	2.061353	-0.993535	-0.412977
H96	H	2.561353	-0.493535	0.087023
H97	H	2.034649	-1.007954	-0.581539
H98	H	2.534649	-0.507954	-0.081539
H99	H	2.064952	-0.811560	-0.420793
H100	H	2.564952	-0.311560	0.079207
H101	H	2.028594	-0.826124	-0.587456
H102	H	2.528594	-0.326124	-0.087456
