data_functionalizedCrystal
_audit_creation_method	'MofGen! by Chris Wilmer'
_symmetry_space_group_name_H-M	'P1'
_symmetry_Int_Tables_number	1
_symmetry_cell_setting	triclinic
loop_
_symmetry_equiv_pos_as_xyz
  x,y,z
_cell_length_a	17.699083
_cell_length_b	10.654550
_cell_length_c	16.176319
_cell_angle_alpha	89.994395
_cell_angle_beta	89.998611
_cell_angle_gamma	83.883959
loop_
_atom_site_label
_atom_site_type_symbol
_atom_site_fract_x
_atom_site_fract_y
_atom_site_fract_z
O1	O	1.005088	0.158809	-0.068628
O2	O	0.784841	0.179470	-0.068655
O3	O	0.900029	-0.013688	-0.068638
O4	O	0.889901	0.351967	-0.068646
O5	O	0.900013	-0.013701	0.068855
O6	O	0.784825	0.179458	0.068838
O7	O	1.005072	0.158797	0.068865
Cu8	Cu	0.894947	0.169126	0.081406
Cu9	Cu	0.894966	0.169141	-0.081196
O10	O	0.889885	0.351955	0.068848
C11	C	0.756632	0.178724	0.000088
C12	C	0.672599	0.176503	0.000078
C13	C	0.624699	0.289883	0.000076
C14	C	0.545743	0.287788	0.000086
C15	C	0.514688	0.172313	0.000093
C16	C	0.562594	0.058924	0.000098
C17	C	0.641549	0.061020	0.000093
C18	C	0.244177	0.050470	0.000118
C19	C	0.165216	0.048383	0.000121
C20	C	0.148371	0.277239	0.000112
C21	C	0.227326	0.279334	0.000107
C22	C	0.275225	0.165946	0.000116
C23	C	0.360839	0.168219	0.000106
C24	C	0.429076	0.170039	0.000097
C25	C	0.899277	-0.060479	0.000107
C26	C	0.897052	-0.199884	0.000104
C27	C	0.964873	-0.280557	0.000115
C28	C	0.962778	-0.411541	0.000109
C29	C	0.825036	-0.381166	0.000085
C30	C	0.827132	-0.250185	0.000085
C31	C	1.034794	-0.230256	0.000134
C32	C	1.102620	-0.310930	0.000146
C33	C	1.100525	-0.441914	0.000140
C34	C	1.030603	-0.492224	0.000122
C35	C	1.033282	0.159543	0.000120
C36	C	1.117314	0.161764	0.000125
C37	C	0.890637	0.398746	0.000100
C38	C	0.892861	0.538151	0.000098
N39	N	0.894940	0.169115	0.195771
N40	N	0.894980	0.169142	-0.195561
C41	C	0.945960	0.083619	0.239042
C42	C	0.945964	0.083618	0.325590
C43	C	0.894950	0.169120	0.368863
C44	C	0.843924	0.254619	0.325586
C45	C	0.843917	0.254614	0.239040
C46	C	0.843950	0.254643	0.674614
C47	C	0.843962	0.254644	0.761165
C48	C	0.945997	0.083647	0.761163
C49	C	0.945990	0.083642	0.674618
C50	C	0.894962	0.169136	0.631348
C51	C	0.894957	0.169135	0.537503
C52	C	0.894958	0.169128	0.462706
H53	H	0.506745	0.380114	0.000084
O54	O	0.532393	-0.053218	-0.000042
C55	C	0.452991	-0.188366	-0.071241
C56	C	0.487156	-0.061333	-0.071193
H57	H	0.416397	-0.194957	-0.128752
H58	H	0.500760	-0.269095	-0.071292
H59	H	0.416480	-0.195054	-0.013674
H60	H	0.523659	-0.054522	-0.128751
H61	H	0.439350	0.019335	-0.071099
H62	H	1.036507	-0.123604	0.000142
H63	H	0.139935	-0.045657	0.000127
O64	O	0.290591	-0.059787	0.000087
C65	C	0.298960	-0.287009	0.000148
C66	C	0.246305	-0.162231	0.000164
H67	H	0.263177	-0.369868	0.000228
H68	H	0.336334	-0.291840	-0.057405
H69	H	0.336361	-0.291686	0.057676
H70	H	0.208858	-0.157471	-0.057325
H71	H	0.208984	-0.157452	0.057755
H72	H	0.768109	-0.422140	0.000072
O73	O	0.687973	-0.049234	0.000054
C74	C	0.696354	-0.276457	0.000109
C75	C	0.643693	-0.151686	0.000131
H76	H	0.660576	-0.359322	0.000189
H77	H	0.733725	-0.281279	-0.057447
H78	H	0.733758	-0.281132	0.057635
H79	H	0.606243	-0.146927	-0.057356
H80	H	0.606375	-0.146915	0.057725
H81	H	0.987533	0.014023	0.639387
O82	O	0.995527	0.000410	0.803108
C83	C	1.038703	-0.218048	0.829636
C84	C	0.982582	-0.123927	0.782070
H85	H	1.028247	-0.318595	0.812658
H86	H	1.099421	-0.201916	0.812599
H87	H	1.029954	-0.203301	0.898921
H88	H	0.991262	-0.138618	0.712774
H89	H	0.921885	-0.140082	0.799177
O90	O	0.257523	0.391479	-0.000054
C91	C	0.336911	0.526641	-0.071283
C92	C	0.302754	0.399602	-0.071213
H93	H	0.373500	0.533238	-0.128800
H94	H	0.289138	0.607364	-0.071338
H95	H	0.373427	0.533333	-0.013721
H96	H	0.266246	0.392786	-0.128764
H97	H	0.350563	0.318940	-0.071115
O98	O	0.995544	0.000441	0.197138
C99	C	1.096780	-0.169125	0.206281
C100	C	1.040656	-0.075008	0.253837
H101	H	1.133279	-0.230132	0.252101
H102	H	1.063814	-0.231884	0.165795
H103	H	1.134835	-0.114964	0.165730
H104	H	1.002588	-0.129066	0.294433
H105	H	1.073669	-0.012250	0.294270
O106	O	0.995426	0.000446	0.367656
C107	C	1.010669	-0.171054	0.465409
C108	C	0.954566	-0.076947	0.417810
H109	H	0.977657	-0.233633	0.505983
H110	H	1.047119	-0.232244	0.419646
H111	H	1.048775	-0.116883	0.505881
H112	H	0.916412	-0.131016	0.377337
H113	H	0.918170	-0.015758	0.463617
O114	O	0.794327	0.337745	0.803075
C115	C	0.693137	0.507390	0.793949
C116	C	0.749292	0.413335	0.746384
H117	H	0.656723	0.568547	0.748135
H118	H	0.655006	0.453304	0.834456
H119	H	0.726154	0.570010	0.834479
H120	H	0.716337	0.350692	0.705809
H121	H	0.787423	0.467499	0.705929
O122	O	0.794495	0.337760	0.632502
C123	C	0.779279	0.509373	0.534832
C124	C	0.835369	0.415282	0.582459
H125	H	0.812304	0.572092	0.494374
H126	H	0.741186	0.455319	0.494266
H127	H	0.742814	0.570427	0.580651
H128	H	0.871884	0.354204	0.536700
H129	H	0.873410	0.469413	0.623038
O130	O	0.794262	0.337547	0.367584
C131	C	0.663053	0.411446	0.394041
C132	C	0.719210	0.317439	0.346443
H133	H	0.602361	0.395240	0.376953
H134	H	0.671757	0.396766	0.463340
H135	H	0.673473	0.512000	0.377024
H136	H	0.708824	0.216848	0.363390
H137	H	0.710492	0.332230	0.277155
H138	H	0.802370	0.324231	0.203809
H139	H	1.159547	-0.269958	0.000140
H140	H	0.771906	-0.184498	0.000077
H141	H	0.109361	0.369564	0.000109
H142	H	0.649978	0.383916	0.000069
H143	H	1.155752	-0.507596	0.000141
H144	H	1.028903	-0.598881	0.000108
