data_functionalizedCrystal
_audit_creation_method	'MofGen! by Chris Wilmer'
_symmetry_space_group_name_H-M	'P1'
_symmetry_Int_Tables_number	1
_symmetry_cell_setting	triclinic
loop_
_symmetry_equiv_pos_as_xyz
  x,y,z
_cell_length_a	14.446369
_cell_length_b	23.196402
_cell_length_c	23.196402
_cell_angle_alpha	90.005244
_cell_angle_beta	60.001144
_cell_angle_gamma	60.000662
loop_
_atom_site_label
_atom_site_type_symbol
_atom_site_fract_x
_atom_site_fract_y
_atom_site_fract_z
Zr1	Zr	1.013226	0.555370	-0.075678
O2	O	1.206345	0.463311	-0.167735
O3	O	0.820107	0.583590	-0.047454
O4	O	1.013223	0.583581	-0.167728
O5	O	1.013231	0.463328	0.047409
O6	O	1.013221	0.678452	-0.167728
O7	O	1.013229	0.463320	-0.047461
O8	O	0.667771	0.678468	0.047421
O9	O	1.358681	0.463312	-0.167739
O10	O	0.899538	0.666428	-0.035421
O11	O	0.899541	0.595632	0.035379
O12	O	1.126911	0.595621	-0.106229
O13	O	1.126914	0.524826	-0.035429
Zr14	Zr	1.013226	0.706691	0.075629
Zr15	Zr	1.013222	0.706679	-0.075677
Zr16	Zr	1.013230	0.555382	0.075628
Zr17	Zr	1.256184	0.555371	-0.075685
Zr18	Zr	0.770268	0.706690	0.075636
O19	O	1.206345	0.678471	0.047405
O20	O	1.206340	0.678453	-0.167733
O21	O	1.206351	0.463330	0.047404
O22	O	0.820107	0.798750	0.167686
O23	O	0.820102	0.798732	-0.047453
O24	O	0.820112	0.583608	0.167684
O25	O	1.013221	0.798733	-0.047458
O26	O	1.013229	0.678480	0.167679
O27	O	1.013231	0.583609	0.167679
O28	O	1.013223	0.798741	0.047411
O29	O	1.358678	0.583583	-0.167738
O30	O	0.667774	0.678478	0.167689
O31	O	0.667771	0.798749	0.167690
O32	O	0.667768	0.798739	0.047421
O33	O	1.358684	0.463322	-0.047471
O34	O	1.358681	0.583593	-0.047470
O35	O	0.899541	0.666440	0.106179
O36	O	0.899538	0.737235	0.035380
O37	O	1.126911	0.666429	-0.035428
O38	O	1.126914	0.595633	0.035372
C39	C	0.709323	0.631029	-0.000016
C40	C	0.606181	0.631028	-0.000013
C41	C	1.013231	0.631047	0.189237
C42	C	1.013232	0.631052	0.253470
C43	C	1.013221	0.820295	-0.000023
C44	C	1.013220	0.884530	-0.000023
C45	C	0.459173	0.586591	0.044845
C46	C	0.566793	0.586350	0.044664
C47	C	0.655176	0.598447	-0.076950
C48	C	0.547943	0.598113	-0.076718
C49	C	0.372722	0.708078	0.031404
C50	C	0.478872	0.707965	0.032974
C51	C	1.317129	0.631032	-0.000033
C52	C	1.420271	0.631033	-0.000036
C53	C	1.013231	0.441766	-0.000026
C54	C	1.013232	0.377532	-0.000026
C55	C	0.894537	0.951663	0.036941
C56	C	0.894535	1.012018	0.036938
C57	C	1.013223	1.005236	-0.000020
C58	C	1.131921	0.938091	-0.036993
C59	C	1.131920	0.877737	-0.036994
C60	C	1.104155	1.072538	0.005256
C61	C	1.104152	1.132892	0.005263
C62	C	1.013233	1.191384	-0.000021
C63	C	0.922296	1.189521	-0.005296
C64	C	0.922294	1.129168	-0.005297
C65	C	1.013238	1.070675	-0.000023
C66	C	0.894540	1.323963	0.036942
C67	C	0.894543	1.384318	0.036933
C68	C	1.131933	1.310389	-0.036993
C69	C	1.131926	1.250036	-0.036989
C70	C	1.013226	1.256828	-0.000018
C71	C	1.013221	0.631015	-0.189286
C72	C	1.013220	0.631009	-0.253520
C73	C	1.131915	0.594095	0.246685
C74	C	1.131917	0.594085	0.307039
C75	C	1.013229	0.631045	0.374179
C76	C	0.894531	0.668004	0.380962
C77	C	0.894532	0.668007	0.320608
C78	C	0.922297	0.692947	0.498119
C79	C	0.922300	0.692946	0.558470
C80	C	1.013219	0.631033	0.560333
C81	C	1.104157	0.569123	0.501829
C82	C	1.104158	0.569126	0.441475
C83	C	1.013214	0.631045	0.439627
C84	C	1.131912	0.594062	0.618988
C85	C	1.131909	0.594049	0.679345
C86	C	0.894519	0.667975	0.753267
C87	C	0.894526	0.667981	0.692910
C88	C	1.013226	0.631025	0.625773
C89	C	0.709318	0.820293	-0.000015
C90	C	0.606174	0.884527	-0.000011
C91	C	0.709327	0.631045	0.189245
C92	C	0.606187	0.631050	0.253482
C93	C	0.709323	0.820309	0.189247
C94	C	0.606181	0.884549	0.253484
C95	C	1.317129	0.441752	-0.189296
C96	C	1.420271	0.377512	-0.253533
C97	C	1.317134	0.441768	-0.000035
C98	C	1.420278	0.377534	-0.000038
C99	C	1.317125	0.631016	-0.189295
C100	C	1.420265	0.631011	-0.253531
C101	C	0.557737	0.877731	-0.036973
C102	C	0.460836	0.938080	-0.036984
C103	C	0.412368	1.005224	-0.000029
C104	C	0.460815	1.012019	0.036935
C105	C	0.557720	0.951671	0.036941
C106	C	0.557751	0.668013	0.320612
C107	C	0.460853	0.668015	0.380975
C108	C	0.412387	0.631057	0.374206
C109	C	0.460832	0.594090	0.307069
C110	C	0.557735	0.594084	0.246708
C111	C	0.557742	0.951677	0.246693
C112	C	0.460843	1.012043	0.307045
C113	C	0.412377	1.005278	0.374186
C114	C	0.460825	0.938143	0.380976
C115	C	0.557729	0.877779	0.320625
C116	C	1.468722	0.310384	-0.246743
C117	C	1.565651	0.250018	-0.307094
C118	C	1.614122	0.256783	-0.374236
C119	C	1.565668	0.323918	-0.381025
C120	C	1.468747	0.384282	-0.320674
C121	C	1.468725	0.384330	0.036918
C122	C	1.565653	0.323981	0.036912
C123	C	1.614125	0.256837	-0.000046
C124	C	1.565673	0.250042	-0.037006
C125	C	1.468754	0.310391	-0.037004
C126	C	1.468701	0.667976	-0.246740
C127	C	1.565600	0.667985	-0.307091
C128	C	1.614067	0.631025	-0.374233
C129	C	1.565621	0.594059	-0.381023
C130	C	1.468718	0.594055	-0.320672
H131	H	0.370306	0.608331	0.101640
H132	H	0.421337	1.066695	0.067022
N133	N	1.416458	0.456744	0.076782
H134	H	1.461873	0.451881	0.100186
H135	H	1.433320	0.483391	0.042844
N136	N	0.518190	0.615280	0.119708
H137	H	0.588170	0.615172	0.119733
H138	H	0.436739	0.665176	0.142359
N139	N	0.338310	0.752147	-0.011687
H140	H	0.307836	0.801585	0.008755
H141	H	0.418042	0.730285	-0.062091
H142	H	1.693043	0.207703	-0.000042
H143	H	1.228571	1.304865	-0.067088
H144	H	1.228571	1.195372	-0.067086
N145	N	1.617897	0.177614	-0.299763
H146	H	1.572468	0.182495	-0.248070
H147	H	1.601043	0.150956	-0.323196
H148	H	1.605154	0.195366	-0.067096
H149	H	0.683959	0.629261	-0.111836
N150	N	1.416505	0.554170	-0.328005
H151	H	1.347764	0.559768	-0.279590
H152	H	1.376373	0.573570	-0.354696
H153	H	1.605098	0.563968	-0.435698
N154	N	1.416465	0.456686	-0.327998
H155	H	1.433310	0.483393	-0.304608
H156	H	1.461898	0.451749	-0.379703
N157	N	0.506509	0.511763	0.016227
H158	H	0.585435	0.489524	-0.034472
H159	H	0.531226	0.483629	0.045400
N160	N	0.684432	0.511074	0.015789
H161	H	0.666503	0.477920	0.003124
H162	H	0.763135	0.504795	-0.027749
H163	H	0.588642	0.541418	-0.101887
H164	H	1.693041	0.207625	-0.423372
H165	H	0.597146	0.957214	0.067044
H166	H	0.848252	1.127654	-0.009594
H167	H	0.848258	1.237147	-0.009596
N168	N	0.408528	0.930859	0.453397
H169	H	0.368306	0.904206	0.459057
H170	H	0.482507	0.904221	0.459018
N171	N	1.259931	0.554233	0.299726
H172	H	1.241916	0.559842	0.348149
H173	H	1.311781	0.502546	0.273029
N174	N	0.766513	0.707858	0.700228
H175	H	0.761209	0.673970	0.676832
H176	H	0.691404	0.731271	0.751932
N177	N	1.617897	0.331318	0.076779
H178	H	1.572468	0.383012	0.100196
H179	H	1.601041	0.307888	0.113933
N180	N	0.777448	0.524066	-0.110525
H181	H	0.801294	0.511355	-0.076027
H182	H	0.761130	0.490250	-0.123641
H183	H	0.421406	1.066702	0.301505
H184	H	1.605145	0.329417	-0.435699
H185	H	0.278976	0.735299	0.087186
H186	H	0.797888	1.329494	0.067043
H187	H	0.525973	0.628391	-0.111974
H188	H	0.333460	1.054358	-0.000039
H189	H	1.429311	0.304847	-0.067096
H190	H	1.692972	0.631035	-0.423369
H191	H	1.429254	0.698073	-0.192075
N192	N	1.617831	0.707859	-0.299752
H193	H	1.658042	0.688467	-0.273094
H194	H	1.686517	0.702252	-0.348189
N195	N	0.426460	0.740232	0.108037
H196	H	0.484923	0.705165	0.120630
H197	H	0.424462	0.784208	0.112592
H198	H	0.500373	0.743867	0.003685
N199	N	0.766510	0.707839	0.825678
H200	H	0.714619	0.759543	0.831340
H201	H	0.714724	0.688400	0.831283
N202	N	0.766517	0.958986	0.076812
H203	H	0.691330	1.010677	0.100227
H204	H	0.761343	0.935556	0.042876
H205	H	0.797894	1.438983	0.067029
N206	N	0.766519	1.084435	0.076810
H207	H	0.714638	1.090091	0.128512
H208	H	0.784640	1.121593	0.071145
N209	N	1.202121	1.134874	0.011094
H210	H	1.293803	1.095831	-0.029936
H211	H	1.188265	1.182003	0.010371
H212	H	1.178201	1.024913	0.009556
H213	H	1.228558	0.932572	-0.067086
N214	N	0.824240	0.759726	0.496106
H215	H	0.768309	0.751413	0.488478
H216	H	0.766725	0.798917	0.542327
H217	H	0.421421	0.698121	0.435634
H218	H	1.228570	0.564002	0.192023
N219	N	1.259932	0.805324	-0.076863
H220	H	1.335124	0.810182	-0.100279
H221	H	1.265101	0.778678	-0.042927
N222	N	1.202222	0.502357	0.378379
H223	H	1.259822	0.463131	0.388711
H224	H	1.154290	0.488594	0.368262
N225	N	1.202234	0.502340	0.503823
H226	H	1.188434	0.511728	0.550934
H227	H	1.190061	0.464232	0.497054
H228	H	1.228564	0.563967	0.564321
N229	N	0.766515	0.707876	0.453373
H230	H	0.714624	0.688492	0.459027
H231	H	0.784632	0.702257	0.490533
N232	N	0.766520	0.707878	0.327923
H233	H	0.691328	0.731293	0.379613
H234	H	0.761363	0.745035	0.304499
H235	H	1.228558	0.563950	0.673813
H236	H	0.597189	0.957198	0.192029
H237	H	0.848260	0.743358	0.606099
N238	N	1.416461	0.303082	-0.174329
H239	H	1.319181	0.326470	-0.147637
H240	H	1.461969	0.251381	-0.179252
N241	N	0.609995	0.805318	-0.076834
H242	H	0.707279	0.778623	-0.114024
H243	H	0.593029	0.778693	-0.042888
N244	N	0.408597	0.930743	-0.076854
H245	H	0.454002	0.879049	-0.100256
H246	H	0.311311	0.954178	-0.042922
N247	N	0.610006	0.707879	0.327928
H248	H	0.650222	0.688489	0.354584
H249	H	0.678693	0.702263	0.279485
N250	N	0.307868	0.631068	0.439313
H251	H	0.284542	0.660096	0.482865
H252	H	0.227513	0.652087	0.439286
H253	H	0.421356	0.564000	0.301569
H254	H	0.597158	0.563987	0.192050
H255	H	0.333471	1.054436	0.423322
H256	H	0.597155	0.823122	0.326163
