data_functionalizedCrystal
_audit_creation_method	'MofGen! by Chris Wilmer'
_symmetry_space_group_name_H-M	'P1'
_symmetry_Int_Tables_number	1
_symmetry_cell_setting	triclinic
loop_
_symmetry_equiv_pos_as_xyz
  x,y,z
_cell_length_a	23.532407
_cell_length_b	12.811457
_cell_length_c	11.892095
_cell_angle_alpha	91.498327
_cell_angle_beta	93.859970
_cell_angle_gamma	83.449296
loop_
_atom_site_label
_atom_site_type_symbol
_atom_site_fract_x
_atom_site_fract_y
_atom_site_fract_z
O1	O	0.078562	1.388390	0.048317
O2	O	0.085705	1.084956	0.017206
O3	O	-0.000711	1.245821	0.033720
O4	O	0.164978	1.227524	0.031803
O5	O	0.006483	1.232409	0.220351
O6	O	0.092899	1.071543	0.203837
O7	O	0.085756	1.374977	0.234947
Zn8	Zn	0.090470	1.221131	0.249024
Zn9	Zn	0.080991	1.238802	0.003130
O10	O	0.172172	1.214112	0.218433
C11	C	0.088681	1.039436	0.106542
C12	C	0.086825	0.923786	0.094686
C13	C	0.091170	0.691843	0.275894
C14	C	0.089426	0.583178	0.264759
C15	C	0.081588	0.597791	0.061283
C16	C	0.083333	0.706456	0.072418
C17	C	0.088124	0.753477	0.179727
C18	C	0.089872	0.862143	0.190860
C19	C	0.082031	0.876754	-0.012615
C20	C	0.080287	0.768090	-0.023749
C21	C	-0.018334	1.238649	0.126990
C22	C	-0.081564	1.237247	0.126855
C23	C	-0.479855	1.323662	0.135653
C24	C	-0.539268	1.322361	0.135511
O25	O	-0.575259	1.402466	0.143683
N26	N	-0.562796	1.226725	0.125707
C27	C	-0.526908	1.132385	0.116032
O28	O	-0.552375	1.050920	0.107679
C29	C	-0.467496	1.133688	0.116166
C30	C	-0.443971	1.229329	0.125983
C31	C	-0.456330	1.419295	0.145468
C32	C	-0.396921	1.420595	0.145612
C33	C	-0.361037	1.326262	0.135941
C34	C	-0.384563	1.230629	0.126127
C35	C	-0.431610	1.039350	0.106484
C36	C	-0.372195	1.040661	0.106618
C37	C	-0.348670	1.136301	0.116435
C38	C	-0.289270	1.137596	0.116601
N39	N	-0.265742	1.233232	0.126405
C40	C	-0.301626	1.327565	0.136075
C41	C	-0.651676	1.129657	0.115750
C42	C	-0.711086	1.128353	0.115624
C43	C	-0.723442	1.318329	0.135100
C44	C	-0.664031	1.319631	0.135234
C45	C	-0.628148	1.225292	0.125554
C46	C	-0.176863	1.330288	0.136378
C47	C	-0.117448	1.331580	0.136526
C48	C	-0.105097	1.141605	0.117043
C49	C	-0.164506	1.140312	0.116901
C50	C	-0.200388	1.234663	0.126566
O51	O	-0.253245	1.057533	0.108429
O52	O	-0.276151	1.409017	0.144413
C53	C	0.189795	1.221284	0.125160
C54	C	0.253025	1.222687	0.125288
C55	C	0.082780	1.420497	0.145608
C56	C	0.084636	1.536148	0.157458
N57	N	0.096938	1.209078	0.416840
N58	N	0.074519	1.250863	-0.164686
C59	C	0.029476	1.334733	0.666388
C60	C	0.034001	1.326315	0.783865
C61	C	0.110512	1.183822	0.769276
C62	C	0.105986	1.192239	0.651798
C63	C	0.065467	1.267698	0.600358
C64	C	0.060945	1.276120	0.482879
C65	C	0.137452	1.133622	0.468291
C66	C	0.141978	1.125204	0.585768
H67	H	0.093777	0.900425	0.278236
H68	H	0.143497	1.122378	0.811172
H69	H	-0.003513	1.396181	0.624506
C70	C	-0.190138	1.036565	0.106086
C71	C	-0.227583	1.037182	0.009428
C72	C	-0.251207	0.941635	-0.000574
H73	H	-0.160318	0.980483	0.100285
H74	H	-0.210592	1.027425	0.170669
H75	H	-0.207129	1.046311	-0.055139
H76	H	-0.257412	1.093244	0.015206
H77	H	-0.271662	0.932494	0.064008
H78	H	-0.221384	0.885560	-0.006372
H79	H	-0.276620	0.942045	-0.066151
H80	H	0.166761	1.079040	0.414516
H81	H	0.004692	1.380900	0.837624
H82	H	0.174966	1.063764	0.627664
H83	H	-0.098297	1.409465	0.144523
H84	H	0.091909	0.532998	0.343069
C85	C	0.096346	0.742713	0.392493
C86	C	0.098629	0.665479	0.474332
C87	C	0.103389	0.712302	0.581757
H88	H	0.130323	0.776508	0.400368
H89	H	0.064041	0.793063	0.401980
H90	H	0.130931	0.615148	0.464849
H91	H	0.064656	0.631679	0.466494
H92	H	0.071084	0.762651	0.591244
H93	H	0.137366	0.746096	0.589620
H94	H	0.104934	0.659908	0.637298
H95	H	0.076383	0.729791	-0.111117
C96	C	0.076502	0.546635	-0.055186
C97	C	0.124164	0.472461	-0.068784
C98	C	0.119501	0.425322	-0.176065
H99	H	0.042554	0.512753	-0.063013
H100	H	0.074967	0.598860	-0.110913
H101	H	0.125693	0.420244	-0.013073
H102	H	0.158118	0.506316	-0.060979
H103	H	0.117966	0.477547	-0.231792
H104	H	0.085551	0.391446	-0.183883
H105	H	0.151841	0.374997	-0.185309
C106	C	0.078839	0.943590	-0.117079
C107	C	0.124945	0.909349	-0.182409
C108	C	0.122030	0.970899	-0.278638
H109	H	0.043840	0.937118	-0.159982
H110	H	0.080594	1.015048	-0.095131
H111	H	0.123185	0.837908	-0.204357
H112	H	0.159950	0.915824	-0.139540
H113	H	0.123785	1.042357	-0.256691
H114	H	0.087030	0.964423	-0.321532
H115	H	0.153315	0.947681	-0.322972
C116	C	-0.215717	1.432832	0.146945
C117	C	-0.182386	1.516849	0.155600
C118	C	-0.218157	1.611325	0.165359
H119	H	-0.241664	1.441110	0.082248
H120	H	-0.236637	1.431654	0.212411
H121	H	-0.161475	1.518028	0.090142
H122	H	-0.156440	1.508606	0.220296
H123	H	-0.239078	1.610147	0.230824
H124	H	-0.244103	1.619592	0.100660
H125	H	-0.195548	1.668341	0.171243
H126	H	-0.377773	1.498476	0.153601
C127	C	-0.736730	1.024615	0.105043
C128	C	-0.796441	1.043648	0.107013
C129	C	-0.820080	0.948107	0.097276
H130	H	-0.727016	0.990400	0.035992
H131	H	-0.721982	0.981113	0.166172
H132	H	-0.811184	1.087133	0.045889
H133	H	-0.806171	1.077847	0.176058
H134	H	-0.805332	0.904604	0.158404
H135	H	-0.810362	0.913899	0.028224
H136	H	-0.860595	0.961007	0.098621
H137	H	-0.485541	1.496117	0.153339
C138	C	0.016898	1.358074	0.427234
C139	C	-0.013664	1.414956	0.510208
C140	C	-0.054252	1.490450	0.458993
H141	H	0.035836	1.404619	0.385821
H142	H	-0.008850	1.324146	0.377629
H143	H	0.012080	1.448883	0.559793
H144	H	-0.032615	1.368440	0.551626
H145	H	-0.080001	1.456523	0.409389
H146	H	-0.035309	1.536988	0.417582
H147	H	-0.074997	1.529048	0.515282
C148	C	-0.638421	1.423407	0.145698
C149	C	-0.608360	1.436598	0.050337
C150	C	-0.584758	1.532181	0.059941
H151	H	-0.668248	1.479491	0.151391
H152	H	-0.612965	1.423204	0.211203
H153	H	-0.633814	1.436810	-0.015150
H154	H	-0.578525	1.380538	0.044626
H155	H	-0.559302	1.531978	0.125446
H156	H	-0.614588	1.588257	0.065636
H157	H	-0.564355	1.541139	-0.004754
C158	C	-0.762347	1.420845	0.145422
C159	C	-0.755307	1.485375	0.055326
C160	C	-0.791132	1.579820	0.064804
H161	H	-0.801120	1.406519	0.143889
H162	H	-0.752643	1.455475	0.214499
H163	H	-0.765015	1.450752	-0.013734
H164	H	-0.716543	1.499730	0.056842
H165	H	-0.781428	1.614450	0.133881
H166	H	-0.829902	1.565483	0.063273
H167	H	-0.786357	1.623619	0.003683
C168	C	-0.612812	1.027106	0.105302
C169	C	-0.646138	0.943082	0.096719
C170	C	-0.610360	0.848598	0.087106
H171	H	-0.591869	1.028182	0.039871
H172	H	-0.586883	1.018927	0.170054
H173	H	-0.672057	0.951260	0.031973
H174	H	-0.667080	0.941972	0.162142
H175	H	-0.584431	0.840418	0.151858
H176	H	-0.589419	0.849684	0.021675
H177	H	-0.632966	0.791575	0.081292
H178	H	-0.450753	0.961469	0.098484
H179	H	-0.342981	0.963837	0.098733
H180	H	-0.075870	1.064802	0.109174
