data_functionalizedCrystal
_audit_creation_method	'MofGen! by Chris Wilmer'
_symmetry_space_group_name_H-M	'P1'
_symmetry_Int_Tables_number	1
_symmetry_cell_setting	triclinic
loop_
_symmetry_equiv_pos_as_xyz
  x,y,z
_cell_length_a	10.685976
_cell_length_b	21.295417
_cell_length_c	10.686551
_cell_angle_alpha	85.587790
_cell_angle_beta	89.651515
_cell_angle_gamma	85.667744
loop_
_atom_site_label
_atom_site_type_symbol
_atom_site_fract_x
_atom_site_fract_y
_atom_site_fract_z
Zn1	Zn	1.972035	-0.304390	-0.561813
Zn2	Zn	2.472035	0.195610	-0.061813
Zn3	Zn	1.955743	-0.417083	-0.352033
Zn4	Zn	2.455743	0.082917	0.147967
Zn5	Zn	1.746163	-0.303208	-0.368188
Zn6	Zn	2.246163	0.196792	0.131812
Zn7	Zn	1.762190	-0.400995	-0.577863
Zn8	Zn	2.262190	0.099005	-0.077863
O9	O	1.859033	-0.356419	-0.464974
O10	O	2.359033	0.143581	0.035026
O11	O	2.145404	-0.326567	-0.520507
O12	O	2.645404	0.173433	-0.020507
O13	O	1.914416	-0.408216	-0.178632
O14	O	2.414416	0.091784	0.321368
O15	O	1.776236	-0.215278	-0.393917
O16	O	2.276236	0.284722	0.106083
O17	O	2.133434	-0.409362	-0.366382
O18	O	2.633434	0.090638	0.133618
O19	O	1.942183	-0.216146	-0.536172
O20	O	2.442183	0.283854	-0.036172
O21	O	1.760439	-0.324552	-0.190502
O22	O	2.260439	0.175448	0.309498
O23	O	1.572759	-0.308952	-0.409481
O24	O	2.072759	0.191048	0.090519
O25	O	1.803552	-0.381942	-0.751278
O26	O	2.303552	0.118058	-0.251278
O27	O	1.584533	-0.380796	-0.563528
O28	O	2.084533	0.119204	-0.063528
O29	O	1.957724	-0.310967	-0.739485
O30	O	2.457724	0.189033	-0.239485
O31	O	1.929957	-0.503036	-0.381946
O32	O	2.429957	-0.003036	0.118054
O33	O	1.787754	-0.491216	-0.547863
O34	O	2.287754	0.008784	-0.047863
C35	C	1.533133	-0.343000	-0.490000
C36	C	2.033133	0.157000	0.010000
C37	C	1.393714	-0.337274	-0.500736
C38	C	1.893714	0.162726	-0.000736
C39	C	1.858863	-0.519966	-0.464917
C40	C	2.358863	-0.019966	0.035083
C41	C	1.858908	-0.589936	-0.464926
C42	C	2.358908	-0.089936	0.035074
C43	C	1.933030	-0.628936	-0.378610
C44	C	2.433030	-0.128936	0.121390
C45	C	1.933091	-0.694680	-0.378634
C46	C	2.433091	-0.194680	0.121366
C47	C	1.859007	-0.721421	-0.464962
C48	C	2.359007	-0.221421	0.035038
C49	C	1.784880	-0.682412	-0.551294
C50	C	2.284880	-0.182412	-0.051294
C51	C	1.784831	-0.616669	-0.551276
C52	C	2.284831	-0.116669	-0.051276
N53	N	1.750012	-0.819834	-0.482952
N54	N	2.250012	-0.319834	0.017048
N55	N	1.750061	-0.882287	-0.482961
N56	N	2.250061	-0.382287	0.017039
C57	C	1.859153	-0.919499	-0.465023
C58	C	2.359153	-0.419499	0.034977
N59	N	1.968193	-0.891899	-0.447051
N60	N	2.468193	-0.391899	0.052949
N61	N	1.968141	-0.829441	-0.447035
N62	N	2.468141	-0.329441	0.052965
C63	C	1.859052	-0.792707	-0.464992
C64	C	2.359052	-0.292707	0.035008
C65	C	1.933348	-1.029786	-0.378728
C66	C	2.433348	-0.529786	0.121272
C67	C	1.933411	-1.095531	-0.378760
C68	C	2.433411	-0.595531	0.121240
C69	C	1.785188	-1.083261	-0.551415
C70	C	2.285188	-0.583261	-0.051415
C71	C	1.785136	-1.017518	-0.551389
C72	C	2.285136	-0.517518	-0.051389
C73	C	1.859213	-0.990785	-0.465038
C74	C	2.359213	-0.490785	0.034962
C75	C	2.186205	-0.369891	-0.439852
C76	C	2.686205	0.130109	0.060148
C77	C	2.325626	-0.375631	-0.429146
C78	C	2.825626	0.124369	0.070854
C79	C	1.884243	-0.344792	-0.792171
C80	C	2.384243	0.155208	-0.292171
C81	C	1.894986	-0.339837	-0.931602
C82	C	2.394986	0.160163	-0.431602
C83	C	1.859239	-0.192233	-0.465056
C84	C	2.359239	0.307767	0.034944
C85	C	1.859327	-0.122267	-0.465091
C86	C	2.359327	0.377733	0.034909
C87	C	1.833993	-0.367959	-0.139045
C88	C	2.333993	0.132041	0.360955
C89	C	1.823493	-0.372746	0.000404
C90	C	2.323493	0.127254	0.500404
H91	H	1.373999	-0.412859	-0.359641
H92	H	1.873999	0.087141	0.140359
Cl93	Cl	1.716303	-0.422104	-0.924785
Cl94	Cl	2.216303	0.077896	-0.424785
H95	H	1.993455	-0.726440	-0.308345
H96	H	2.493455	-0.226440	0.191655
Cl97	Cl	1.319044	-0.279807	-0.608061
Cl98	Cl	1.819044	0.220193	-0.108061
Cl99	Cl	2.026176	-0.595332	-0.270073
Cl100	Cl	2.526176	-0.095332	0.229927
Cl101	Cl	2.002194	-0.290484	-1.006416
Cl102	Cl	2.502194	0.209516	-0.506416
Cl103	Cl	1.691751	-0.716027	-0.659827
Cl104	Cl	2.191751	-0.216027	-0.159827
H105	H	1.724470	-0.584914	-0.621567
H106	H	2.224470	-0.084914	-0.121567
Cl107	Cl	2.026471	-0.996176	-0.270175
Cl108	Cl	2.526471	-0.496176	0.229825
H109	H	1.724873	-1.105033	-0.621711
H110	H	2.224873	-0.605033	-0.121711
Cl111	Cl	2.026613	-1.144562	-0.270246
Cl112	Cl	2.526613	-0.644562	0.229754
Cl113	Cl	1.691942	-0.968486	-0.659902
Cl114	Cl	2.191942	-0.468486	-0.159902
