data_functionalizedCrystal
_audit_creation_method	'MofGen! by Chris Wilmer'
_symmetry_space_group_name_H-M	'P1'
_symmetry_Int_Tables_number	1
_symmetry_cell_setting	triclinic
loop_
_symmetry_equiv_pos_as_xyz
  x,y,z
_cell_length_a	10.489741
_cell_length_b	10.489741
_cell_length_c	14.750779
_cell_angle_alpha	77.226586
_cell_angle_beta	102.775709
_cell_angle_gamma	84.539174
loop_
_atom_site_label
_atom_site_type_symbol
_atom_site_fract_x
_atom_site_fract_y
_atom_site_fract_z
O1	O	1.666638	0.207369	-0.079767
O2	O	1.295437	0.224267	-0.079782
O3	O	1.489486	0.030218	-0.079768
O4	O	1.472589	0.401418	-0.079781
O5	O	1.544342	-0.024631	0.079886
O6	O	1.350293	0.169418	0.079872
O7	O	1.721493	0.152520	0.079887
Zn8	Zn	1.544603	0.152260	0.105228
Zn9	Zn	1.472328	0.224526	-0.105123
O10	O	1.527445	0.346568	0.079874
C11	C	1.275333	0.195567	0.000043
C12	C	1.133701	0.191752	0.000038
C13	C	1.065566	0.068282	0.000051
C14	C	0.946392	0.153649	-0.078667
C15	C	1.000509	0.099602	0.078739
C16	C	1.016371	0.277192	-0.078745
C17	C	1.070522	0.223103	0.078732
C18	C	0.951369	0.308566	-0.000005
C19	C	1.515638	-0.044738	0.000058
C20	C	1.511820	-0.186367	0.000056
C21	C	1.388351	-0.254503	0.000044
C22	C	1.473722	-0.373670	0.078764
C23	C	1.419668	-0.319567	-0.078642
C24	C	1.597264	-0.303691	0.078841
C25	C	1.543169	-0.249555	-0.078636
C26	C	1.628636	-0.368700	0.000103
C27	C	1.741597	0.181220	0.000060
C28	C	1.883227	0.185038	0.000059
C29	C	1.501292	0.421525	0.000045
C30	C	1.505108	0.563156	0.000041
N31	N	1.593937	0.102940	0.248787
N32	N	1.423004	0.273837	-0.248682
C33	C	1.285219	0.411525	0.600584
C34	C	1.319799	0.376973	0.701086
C35	C	1.491665	0.205207	0.701060
C36	C	1.457095	0.239741	0.600557
C37	C	1.353872	0.342902	0.550326
C38	C	1.525749	0.171117	0.550299
C39	C	1.491186	0.205653	0.449804
C40	C	1.387970	0.308812	0.399567
C41	C	1.319309	0.377437	0.449832
C42	C	1.628978	0.067963	0.600531
C43	C	1.697632	-0.000661	0.550273
C44	C	1.663063	0.033868	0.449777
C45	C	1.559846	0.137027	0.399540
C46	C	1.731723	-0.034757	0.399512
C47	C	1.697160	-0.000221	0.299017
C48	C	1.525284	0.171563	0.299045
H49	H	1.124434	0.252437	0.145283
H50	H	1.359834	0.336934	0.317738
F51	F	1.130430	-0.064367	-0.000045
H52	H	0.992397	0.024476	0.145289
H53	H	1.286865	-0.204878	0.000119
H54	H	1.201155	0.495520	0.559685
F55	F	1.770234	-0.073257	0.245529
H56	H	1.730256	-0.418141	0.000151
F57	F	1.026739	0.375339	-0.165830
H58	H	1.672351	-0.295748	0.145468
F59	F	1.209434	0.487223	0.396370
H60	H	1.572499	-0.195646	-0.145188
F61	F	1.415408	0.281349	0.245584
F62	F	1.435330	-0.444088	0.165748
H63	H	0.892513	0.124272	-0.145215
H64	H	1.344543	-0.327665	-0.145200
F65	F	1.246719	0.450027	0.754567
H66	H	0.901930	0.410185	-0.000051
F67	F	1.601524	0.095422	0.754527
F68	F	1.665763	0.031217	0.707488
H69	H	1.781680	-0.084653	0.591182
F70	F	1.841589	-0.144534	0.452982
