data_functionalizedCrystal
_audit_creation_method	'MofGen! by Chris Wilmer'
_symmetry_space_group_name_H-M	'P1'
_symmetry_Int_Tables_number	1
_symmetry_cell_setting	triclinic
loop_
_symmetry_equiv_pos_as_xyz
  x,y,z
_cell_length_a	13.032721
_cell_length_b	19.077236
_cell_length_c	19.076919
_cell_angle_alpha	89.887323
_cell_angle_beta	99.138159
_cell_angle_gamma	99.764912
loop_
_atom_site_label
_atom_site_type_symbol
_atom_site_fract_x
_atom_site_fract_y
_atom_site_fract_z
Zn1	Zn	-0.383250	1.024260	-0.471946
Zn2	Zn	-0.552445	1.013877	-0.368304
Zn3	Zn	-0.382696	0.911525	-0.349681
Zn4	Zn	-0.566531	0.890445	-0.482196
O5	O	-0.471231	0.960027	-0.418032
O6	O	-0.400031	1.121720	-0.461702
O7	O	-0.523801	1.004776	-0.267001
O8	O	-0.235025	0.939647	-0.353816
O9	O	-0.524338	1.114091	-0.385556
O10	O	-0.235432	1.022474	-0.443644
O11	O	-0.399087	0.929579	-0.253318
O12	O	-0.412745	0.809892	-0.363755
O13	O	-0.548344	0.903720	-0.579669
O14	O	-0.547808	0.794405	-0.461114
O15	O	-0.413689	1.002033	-0.572139
O16	O	-0.702058	0.984335	-0.395495
O17	O	-0.712407	0.893651	-0.479171
C18	C	-0.481746	0.776521	-0.411526
C19	C	-0.486271	0.698014	-0.408762
C20	C	-0.423788	0.665091	-0.447186
C21	C	-0.428034	0.591325	-0.444582
C22	C	-0.494769	0.550484	-0.403558
C23	C	-0.557254	0.583412	-0.365129
C24	C	-0.553002	0.657176	-0.367730
C25	C	-0.514410	0.329446	-0.391518
C26	C	-0.518660	0.255676	-0.388922
C27	C	-0.389437	0.263595	-0.468374
C28	C	-0.385196	0.337360	-0.470974
C29	C	-0.447677	0.370283	-0.432543
N30	N	-0.499113	0.475083	-0.400897
N31	N	-0.443326	0.445682	-0.435200
C32	C	-0.745541	0.935597	-0.440483
C33	C	-0.862889	0.925210	-0.450113
C34	C	-0.910052	0.965484	-0.413039
C35	C	-1.031338	0.954749	-0.422991
C36	C	-0.195849	0.984570	-0.395509
C37	C	-0.078498	0.995029	-0.385912
C38	C	-0.482650	0.951683	-0.602247
C39	C	-0.487516	0.948128	-0.680748
C40	C	-0.460675	1.144249	-0.424563
C41	C	-0.456177	1.222753	-0.427346
C42	C	-0.419697	0.997641	-0.713709
C43	C	-0.424266	0.994292	-0.787469
C44	C	-0.496659	0.941432	-0.828267
C45	C	-0.564481	0.891914	-0.795301
C46	C	-0.559906	0.895260	-0.721542
C47	C	-0.517853	0.925932	-1.049283
C48	C	-0.522425	0.922590	-1.123047
C49	C	-0.382208	1.024969	-1.115209
C50	C	-0.377644	1.028313	-1.041450
C51	C	-0.445462	0.978792	-1.008490
N52	N	-0.501333	0.938009	-0.903662
N53	N	-0.440782	0.982213	-0.933096
C54	C	-0.459777	0.968385	-0.234529
C55	C	-0.454606	0.972104	-0.156008
H56	H	-0.369447	0.698339	-0.480595
H57	H	-0.912303	0.882785	-0.489225
H58	H	-1.080748	0.912321	-0.462106
H59	H	-0.318697	1.071359	-1.008237
Br60	Br	-0.827704	1.036209	-0.347859
Br61	Br	-0.290173	1.092171	-1.159944
Br62	Br	-0.620676	0.850845	-1.178417
H63	H	-0.330857	0.370609	-0.504384
Br64	Br	-0.343232	0.546647	-0.496732
Br65	Br	-0.996156	1.065757	-0.320727
Br66	Br	-0.321452	1.069388	-0.658347
Br67	Br	-0.599178	0.374120	-0.339340
H68	H	-0.369043	1.034613	-0.814302
Br69	Br	-0.637802	0.701859	-0.315579
Br70	Br	-0.609890	0.858724	-1.004561
H71	H	-0.623421	0.848871	-0.828525
H72	H	-0.615121	0.854935	-0.694706
H73	H	-0.338567	0.236782	-0.499662
H74	H	-0.573009	0.222424	-0.355515
H75	H	-0.611586	0.550153	-0.331723
