data_functionalizedCrystal
_audit_creation_method	'MofGen! by Chris Wilmer'
_symmetry_space_group_name_H-M	'P1'
_symmetry_Int_Tables_number	1
_symmetry_cell_setting	triclinic
loop_
_symmetry_equiv_pos_as_xyz
  x,y,z
_cell_length_a	19.805407
_cell_length_b	19.076808
_cell_length_c	19.805399
_cell_angle_alpha	92.327057
_cell_angle_beta	90.019573
_cell_angle_gamma	92.323385
loop_
_atom_site_label
_atom_site_type_symbol
_atom_site_fract_x
_atom_site_fract_y
_atom_site_fract_z
Zn1	Zn	1.023914	-0.280233	0.371886
Zn2	Zn	1.357247	0.053101	0.705219
Zn3	Zn	1.690580	0.386434	1.038552
Zn4	Zn	1.019283	-0.397938	0.254147
Zn5	Zn	1.352616	-0.064605	0.587480
Zn6	Zn	1.685950	0.268729	0.920814
Zn7	Zn	0.910727	-0.280252	0.258710
Zn8	Zn	1.244061	0.053081	0.592043
Zn9	Zn	1.577394	0.386414	0.925376
Zn10	Zn	0.906148	-0.397901	0.367295
Zn11	Zn	1.239481	-0.064567	0.700629
Zn12	Zn	1.572814	0.268766	1.033962
O13	O	0.965018	-0.339081	0.313009
O14	O	1.298351	-0.005748	0.646343
O15	O	1.631685	0.327586	0.979676
O16	O	1.118016	-0.295854	0.356279
O17	O	1.451349	0.037479	0.689613
O18	O	1.784682	0.370813	1.022946
O19	O	1.004861	-0.382351	0.160035
O20	O	1.338195	-0.049017	0.493368
O21	O	1.671528	0.284316	0.826701
O22	O	0.929597	-0.181753	0.277553
O23	O	1.262930	0.151580	0.610887
O24	O	1.596263	0.484913	0.944220
O25	O	1.114613	-0.382332	0.269777
O26	O	1.447947	-0.048998	0.603110
O27	O	1.781280	0.284335	0.936444
O28	O	1.012754	-0.181739	0.360703
O29	O	1.346087	0.151594	0.694037
O30	O	1.679421	0.484928	1.027370
O31	O	0.925106	-0.295887	0.163387
O32	O	1.258440	0.037446	0.496720
O33	O	1.591773	0.370779	0.830054
O34	O	0.815404	-0.295851	0.273102
O35	O	1.148737	0.037482	0.606435
O36	O	1.482070	0.370816	0.939769
O37	O	0.921791	-0.382268	0.462622
O38	O	1.255124	-0.048935	0.795955
O39	O	1.588457	0.284399	1.129288
O40	O	0.812039	-0.382287	0.352879
O41	O	1.145372	-0.048953	0.686213
O42	O	1.478706	0.284380	1.019546
O43	O	1.008313	-0.295818	0.465994
O44	O	1.341646	0.037515	0.799328
O45	O	1.674980	0.370849	1.132661
O46	O	1.000421	-0.496429	0.265326
O47	O	1.333754	-0.163096	0.598659
O48	O	1.667087	0.170237	0.931992
O49	O	0.917301	-0.496402	0.348455
O50	O	1.250634	-0.163069	0.681789
O51	O	1.583967	0.170265	1.015122
C52	C	0.789162	-0.339067	0.312988
C53	C	1.122496	-0.005734	0.646321
C54	C	1.455829	0.327599	0.979655
C55	C	0.713930	-0.339079	0.312994
C56	C	1.047263	-0.005745	0.646328
C57	C	1.380597	0.327588	0.979661
C58	C	0.676849	-0.384154	0.354462
C59	C	1.010182	-0.050820	0.687795
C60	C	1.343516	0.282513	1.021128
C61	C	0.606160	-0.384155	0.354471
C62	C	0.939494	-0.050821	0.687805
C63	C	1.272827	0.282512	1.021138
C64	C	0.572554	-0.339084	0.313009
C65	C	0.905888	-0.005751	0.646343
C66	C	1.239221	0.327583	0.979676
C67	C	0.609640	-0.294004	0.271540
C68	C	0.942974	0.039329	0.604873
C69	C	1.276307	0.372662	0.938207
C70	C	0.680328	-0.294000	0.271535
C71	C	1.013661	0.039333	0.604868
C72	C	1.346994	0.372667	0.938201
C73	C	0.324567	-0.294020	0.271562
C74	C	0.657900	0.039314	0.604895
C75	C	0.991233	0.372647	0.938229
C76	C	0.253874	-0.294029	0.271569
C77	C	0.587207	0.039304	0.604902
C78	C	0.920541	0.372638	0.938236
C79	C	0.250399	-0.384175	0.354498
C80	C	0.583733	-0.050841	0.687832
C81	C	0.917066	0.282492	1.021165
C82	C	0.321086	-0.384170	0.354493
C83	C	0.654420	-0.050837	0.687826
C84	C	0.987753	0.282496	1.021160
C85	C	0.358167	-0.339088	0.313027
C86	C	0.691500	-0.005755	0.646360
C87	C	1.024833	0.327578	0.979693
C88	C	0.434815	-0.339086	0.313018
C89	C	0.768148	-0.005753	0.646351
C90	C	1.101482	0.327580	0.979685
C91	C	0.495907	-0.339089	0.313014
C92	C	0.829240	-0.005756	0.646347
C93	C	1.162574	0.327578	0.979681
C94	C	0.957879	-0.521955	0.305912
C95	C	1.291213	-0.188621	0.639245
C96	C	1.624546	0.144712	0.972579
C97	C	0.954888	-0.600189	0.302898
C98	C	1.288221	-0.266856	0.636232
C99	C	1.621554	0.066478	0.969565
C100	C	0.996745	-0.636876	0.344809
C101	C	1.330078	-0.303542	0.678143
C102	C	1.663412	0.029791	1.011476
C103	C	0.993931	-0.710385	0.341979
C104	C	1.327264	-0.377052	0.675312
C105	C	1.660598	-0.043718	1.008645
C106	C	0.949263	-0.747206	0.297233
C107	C	1.282596	-0.413873	0.630567
C108	C	1.615929	-0.080540	0.963900
C109	C	0.907400	-0.710515	0.255321
C110	C	1.240734	-0.377181	0.588654
C111	C	1.574067	-0.043848	0.921987
C112	C	0.910211	-0.637007	0.258155
C113	C	1.243545	-0.303673	0.591489
C114	C	1.576878	0.029660	0.924822
C115	C	0.936213	-0.967059	0.284114
C116	C	1.269547	-0.633726	0.617447
C117	C	1.602880	-0.300392	0.950780
C118	C	0.933407	-1.040572	0.281281
C119	C	1.266740	-0.707239	0.614614
C120	C	1.600073	-0.373905	0.947948
C121	C	1.019937	-1.040437	0.367940
C122	C	1.353270	-0.707104	0.701274
C123	C	1.686604	-0.373771	1.034607
C124	C	1.022747	-0.966928	0.370768
C125	C	1.356080	-0.633595	0.704101
C126	C	1.689414	-0.300261	1.037434
C127	C	0.980882	-0.930243	0.328858
C128	C	1.314216	-0.596909	0.662191
C129	C	1.647549	-0.263576	0.995524
N130	N	0.946387	-0.822345	0.294338
N131	N	1.279720	-0.489011	0.627671
N132	N	1.613053	-0.155678	0.961004
N133	N	0.983755	-0.855106	0.331757
N134	N	1.317089	-0.521772	0.665091
N135	N	1.650422	-0.188439	0.998424
C136	C	1.141560	-0.339095	0.313031
C137	C	1.474893	-0.005762	0.646365
C138	C	1.808227	0.327572	0.979698
C139	C	1.216792	-0.339101	0.313041
C140	C	1.550125	-0.005768	0.646374
C141	C	1.883458	0.327566	0.979707
C142	C	0.965058	-0.339037	0.489554
C143	C	1.298391	-0.005703	0.822887
C144	C	1.631724	0.327630	1.156221
C145	C	0.965074	-0.339018	0.564787
C146	C	1.298408	-0.005684	0.898120
C147	C	1.631741	0.327649	1.231453
C148	C	0.972203	-0.155493	0.320149
C149	C	1.305536	0.177840	0.653483
C150	C	1.638869	0.511174	0.986816
C151	C	0.975264	-0.077259	0.323192
C152	C	1.308598	0.256075	0.656525
C153	C	1.641931	0.589408	0.989859
C154	C	0.965019	-0.339074	0.137154
C155	C	1.298353	-0.005741	0.470487
C156	C	1.631686	0.327592	0.803820
C157	C	0.965141	-0.338895	0.061929
C158	C	1.298475	-0.005562	0.395262
C159	C	1.631808	0.327772	0.728596
C160	C	1.010128	-0.294001	0.601888
C161	C	1.343461	0.039332	0.935221
C162	C	1.676794	0.372666	1.268555
C163	C	1.010135	-0.293980	0.672577
C164	C	1.343469	0.039353	1.005911
C165	C	1.676802	0.372686	1.339244
C166	C	0.965093	-0.338981	0.706164
C167	C	1.298426	-0.005648	1.039497
C168	C	1.631759	0.327686	1.372830
C169	C	0.920035	-0.384000	0.669057
C170	C	1.253368	-0.050666	1.002391
C171	C	1.586701	0.282667	1.335724
C172	C	0.920024	-0.384016	0.598369
C173	C	1.253358	-0.050683	0.931703
C174	C	1.586691	0.282651	1.265036
C175	C	0.920075	-0.383934	0.954133
C176	C	1.253409	-0.050601	1.287467
C177	C	1.586742	0.282733	1.620800
C178	C	0.920091	-0.383916	1.024826
C179	C	1.253424	-0.050582	1.358159
C180	C	1.586757	0.282751	1.691493
C181	C	1.010187	-0.293899	1.028341
C182	C	1.343520	0.039435	1.361675
C183	C	1.676853	0.372768	1.695008
C184	C	1.010176	-0.293915	0.957653
C185	C	1.343509	0.039418	1.290987
C186	C	1.676843	0.372752	1.624320
C187	C	0.965116	-0.338931	0.920553
C188	C	1.298449	-0.005597	1.253887
C189	C	1.631783	0.327736	1.587220
C190	C	0.965107	-0.338951	0.843904
C191	C	1.298441	-0.005618	1.177237
C192	C	1.631774	0.327715	1.510571
C193	C	0.965104	-0.338964	0.782812
C194	C	1.298438	-0.005631	1.116145
C195	C	1.631771	0.327702	1.449478
H196	H	0.575972	-0.420860	0.388237
H197	H	0.909305	-0.087527	0.721571
H198	H	1.242639	0.245807	1.054904
H199	H	0.876126	-0.607137	0.224028
H200	H	1.209459	-0.273804	0.557361
H201	H	1.542792	0.059530	0.890694
H202	H	0.354749	-0.257317	0.237792
H203	H	0.688082	0.076017	0.571126
H204	H	1.021415	0.409350	0.904459
O205	O	0.871459	-0.432486	0.914145
O206	O	1.204793	-0.099153	1.247479
O207	O	1.538126	0.234181	1.580812
H208	H	0.900321	-0.468319	0.880541
H209	H	1.233655	-0.134986	1.213875
H210	H	1.566988	0.198348	1.547208
H211	H	0.582273	-0.257304	0.237784
H212	H	0.915606	0.076029	0.571118
H213	H	1.248939	0.409363	0.904451
O214	O	1.065079	-1.080003	0.413153
O215	O	1.398413	-0.746670	0.746486
O216	O	1.731746	-0.413336	1.079819
H217	H	1.055617	-1.137304	0.403673
H218	H	1.388950	-0.803970	0.737006
H219	H	1.722283	-0.470637	1.070339
H220	H	1.046857	-0.257273	0.930311
H221	H	1.380190	0.076060	1.263644
H222	H	1.713523	0.409393	1.596978
O223	O	0.885222	-1.080291	0.233023
O224	O	1.218555	-0.746958	0.566356
O225	O	1.551888	-0.413625	0.899690
H226	H	0.856577	-1.042433	0.204361
H227	H	1.189910	-0.709100	0.537695
H228	H	1.523244	-0.375766	0.871028
O229	O	0.871431	-0.432568	0.558348
O230	O	1.204764	-0.099235	0.891681
O231	O	1.538097	0.234099	1.225014
H232	H	0.838223	-0.401060	0.527369
H233	H	1.171557	-0.067727	0.860703
H234	H	1.504890	0.265606	1.194036
O235	O	0.871447	-0.432534	0.705277
O236	O	1.204780	-0.099201	1.038611
O237	O	1.538113	0.234133	1.371944
H238	H	0.879025	-0.424964	0.760665
H239	H	1.212359	-0.091631	1.093998
H240	H	1.545692	0.241702	1.427331
O241	O	1.039078	-0.749957	0.387181
O242	O	1.372411	-0.416624	0.720515
O243	O	1.705744	-0.083290	1.053848
H244	H	1.070616	-0.712003	0.418766
H245	H	1.403950	-0.378670	0.752099
H246	H	1.737283	-0.045337	1.085432
O247	O	0.357330	-0.432780	0.399218
O248	O	0.690663	-0.099447	0.732551
O249	O	1.023997	0.233887	1.065884
H250	H	0.390777	-0.401315	0.434916
H251	H	0.724110	-0.067982	0.768250
H252	H	1.057444	0.265351	1.101583
O253	O	0.210407	-0.432794	0.399234
O254	O	0.543741	-0.099460	0.732567
O255	O	0.877074	0.233873	1.065901
H256	H	0.155608	-0.425221	0.392282
H257	H	0.488941	-0.091888	0.725615
H258	H	0.822275	0.241445	1.058948
H259	H	0.226514	-0.257323	0.237806
H260	H	0.559848	0.076011	0.571139
H261	H	0.893181	0.409344	0.904473
H262	H	1.046809	-0.257358	0.574547
H263	H	1.380142	0.075975	0.907881
H264	H	1.713475	0.409308	1.241214
H265	H	0.902127	-0.937196	0.249987
H266	H	1.235460	-0.603862	0.583321
H267	H	1.568793	-0.270529	0.916654
H268	H	0.704206	-0.420858	0.388223
H269	H	1.037539	-0.087524	0.721556
H270	H	1.370872	0.245809	1.054889
H271	H	1.046874	-0.257242	1.058557
H272	H	1.380208	0.076091	1.391890
H273	H	1.713541	0.409425	1.725224
H274	H	0.871028	-0.740500	0.218891
H275	H	1.204361	-0.407167	0.552224
H276	H	1.537694	-0.073834	0.885558
O277	O	0.720328	-0.245392	0.226802
O278	O	1.053661	0.087941	0.560135
O279	O	1.386994	0.421274	0.893468
H280	H	0.685085	-0.214059	0.197964
H281	H	1.018418	0.119274	0.531297
H282	H	1.351751	0.452608	0.864631
H283	H	1.033122	-0.606900	0.381243
H284	H	1.366455	-0.273567	0.714576
H285	H	1.699789	0.059766	1.047909
O286	O	1.070926	-0.927219	0.419031
O287	O	1.404260	-0.593885	0.752365
O288	O	1.737593	-0.260552	1.085698
H289	H	1.065854	-0.869940	0.413956
H290	H	1.399187	-0.536607	0.747289
H291	H	1.732520	-0.203274	1.080622
O292	O	1.058732	-0.245431	0.712597
O293	O	1.392065	0.087902	1.045930
O294	O	1.725398	0.421235	1.379263
H295	H	1.090058	-0.214150	0.677366
H296	H	1.423391	0.119183	1.010699
H297	H	1.756724	0.452516	1.344033
H298	H	0.883409	-0.420562	1.052170
H299	H	1.216742	-0.087229	1.385503
H300	H	1.550075	0.246105	1.718837
