data_functionalizedCrystal
_audit_creation_method	'MofGen! by Chris Wilmer'
_symmetry_space_group_name_H-M	'P1'
_symmetry_Int_Tables_number	1
_symmetry_cell_setting	triclinic
loop_
_symmetry_equiv_pos_as_xyz
  x,y,z
_cell_length_a	6.817900
_cell_length_b	16.255748
_cell_length_c	16.255661
_cell_angle_alpha	95.347428
_cell_angle_beta	103.488922
_cell_angle_gamma	103.490428
loop_
_atom_site_label
_atom_site_type_symbol
_atom_site_fract_x
_atom_site_fract_y
_atom_site_fract_z
V1	V	-4.026718	-0.117775	-0.264162
O2	O	-4.014190	0.004956	-0.258836
O3	O	-3.978277	-0.232852	-0.262642
O4	O	-3.978280	-0.116272	-0.379242
O5	O	-4.014186	-0.112431	-0.141429
V6	V	-4.510357	-0.103059	-0.249447
O7	O	-4.287724	-0.150057	-0.296440
O8	O	-4.699549	-0.070777	-0.217170
O9	O	-4.335592	0.012018	-0.250968
O10	O	-4.640282	-0.225790	-0.254774
O11	O	-4.640286	-0.108403	-0.372181
O12	O	-4.335588	-0.104562	-0.134368
C13	C	-3.823268	-0.260896	-0.258548
C14	C	-3.864948	-0.354974	-0.258072
C15	C	-3.800462	-0.634058	-0.252241
C16	C	-3.906949	-0.591123	-0.324865
C17	C	-4.015121	-0.693616	-0.256396
C18	C	-3.834252	-0.568919	-0.184633
C19	C	-3.941325	-0.527229	-0.257218
C20	C	-4.122189	-0.651929	-0.329071
C21	C	-4.049434	-0.629719	-0.188775
C22	C	-4.156080	-0.586816	-0.261419
C23	C	-4.057627	-0.789466	-0.255923
C24	C	-3.898837	-0.431382	-0.257697
C25	C	-3.823272	-0.112186	-0.407282
C26	C	-3.864952	-0.111718	-0.501362
C27	C	-3.775508	-0.106135	-0.724167
C28	C	-3.931928	-0.178192	-0.793821
C29	C	-3.941336	-0.110842	-0.673609
C30	C	-3.859207	-0.037960	-0.771590
C31	C	-4.015104	-0.109991	-0.839990
C32	C	-4.097238	-0.182963	-0.742033
C33	C	-4.024455	-0.042667	-0.719786
C34	C	-4.181011	-0.114745	-0.789421
C35	C	-3.898835	-0.111332	-0.577760
C36	C	-4.057622	-0.109507	-0.935837
C37	C	-4.153942	0.040057	-0.255059
C38	C	-4.091501	0.134135	-0.255540
C39	C	-4.153938	-0.108651	-0.106323
C40	C	-4.091497	-0.109114	-0.012242
H41	H	-3.712080	-0.532888	-0.123606
H42	H	-4.352884	-0.118404	-0.817776
O43	O	-4.335014	-0.562014	-0.265921
C44	C	-4.307443	-0.502063	-0.192928
H45	H	-4.176752	-0.510282	-0.138717
H46	H	-4.264413	-0.434444	-0.208881
C47	C	-4.672513	-0.506720	-0.231461
C48	C	-4.512007	-0.516819	-0.164875
H49	H	-4.798699	-0.515819	-0.214158
H50	H	-4.691088	-0.547108	-0.280640
H51	H	-4.636627	-0.450371	-0.244749
H52	H	-4.547884	-0.573171	-0.151597
H53	H	-4.493443	-0.476441	-0.115694
H54	H	-3.650608	-0.654960	-0.248445
O55	O	-3.739865	0.035235	-0.787558
C56	C	-3.786831	0.106617	-0.748249
H57	H	-3.950010	0.086300	-0.738020
H58	H	-3.667425	0.132990	-0.683800
C59	C	-3.578589	0.201363	-0.818750
C60	C	-3.779015	0.176411	-0.806193
H61	H	-3.573759	0.244418	-0.854490
H62	H	-3.546939	0.153273	-0.845232
H63	H	-3.479105	0.223335	-0.765038
H64	H	-3.878491	0.154430	-0.859903
H65	H	-3.810682	0.224500	-0.779722
O66	O	-3.885433	-0.246475	-0.832220
C67	C	-3.672100	-0.241722	-0.798771
H68	H	-3.582631	-0.172462	-0.771044
H69	H	-3.654629	-0.283282	-0.746161
C70	C	-3.693413	-0.359017	-0.904810
C71	C	-3.583523	-0.273949	-0.870762
H72	H	-3.638774	-0.378899	-0.949215
H73	H	-3.837142	-0.362221	-0.927343
H74	H	-3.678845	-0.393639	-0.860960
H75	H	-3.598114	-0.239327	-0.914608
H76	H	-3.439794	-0.270739	-0.848237
O77	O	-4.070149	0.025721	-0.681191
C78	C	-3.889362	0.076630	-0.620212
H79	H	-3.776675	0.035921	-0.599506
H80	H	-3.810423	0.131808	-0.649722
C81	C	-4.089139	0.162696	-0.567141
C82	C	-3.950742	0.112695	-0.541704
H83	H	-4.126999	0.184947	-0.518714
H84	H	-4.210938	0.128400	-0.608225
H85	H	-4.023337	0.208671	-0.591733
H86	H	-4.016554	0.066716	-0.517122
H87	H	-3.828955	0.146985	-0.500613
H88	H	-3.846340	-0.573883	-0.382412
H89	H	-3.603754	-0.102588	-0.695678
H90	H	-4.244217	-0.687853	-0.390177
O91	O	-4.216583	-0.256125	-0.726007
C92	C	-4.175490	-0.255706	-0.636826
H93	H	-4.014297	-0.211252	-0.603879
H94	H	-4.298998	-0.232165	-0.611934
C95	C	-4.379485	-0.401695	-0.658009
C96	C	-4.181498	-0.347102	-0.617543
H97	H	-4.383200	-0.458073	-0.646114
H98	H	-4.407178	-0.401978	-0.718092
H99	H	-4.482387	-0.382067	-0.637261
H100	H	-4.078603	-0.366724	-0.638299
H101	H	-4.153787	-0.346825	-0.557463
O102	O	-4.121326	-0.650260	-0.120029
C103	C	-3.969528	-0.607540	-0.044029
H104	H	-3.808909	-0.590551	-0.057135
H105	H	-4.008204	-0.546454	-0.020552
C106	C	-4.165710	-0.687207	0.041077
C107	C	-3.968433	-0.666348	0.024982
H108	H	-4.165039	-0.723480	0.083648
H109	H	-4.267984	-0.715987	-0.010125
H110	H	-4.197918	-0.636297	0.060637
H111	H	-3.936240	-0.717257	0.005412
H112	H	-3.866153	-0.637578	0.076182
