data_functionalizedCrystal
_audit_creation_method	'MofGen! by Chris Wilmer'
_symmetry_space_group_name_H-M	'P1'
_symmetry_Int_Tables_number	1
_symmetry_cell_setting	triclinic
loop_
_symmetry_equiv_pos_as_xyz
  x,y,z
_cell_length_a	21.395362
_cell_length_b	18.101395
_cell_length_c	21.395355
_cell_angle_alpha	90.015727
_cell_angle_beta	90.043940
_cell_angle_gamma	90.046983
loop_
_atom_site_label
_atom_site_type_symbol
_atom_site_fract_x
_atom_site_fract_y
_atom_site_fract_z
Zn1	Zn	0.957858	-0.294602	0.354598
Zn2	Zn	1.207858	-0.044602	0.604598
Zn3	Zn	1.457858	0.205398	0.854598
Zn4	Zn	1.707858	0.455398	1.104598
Zn5	Zn	0.957760	-0.418425	0.249825
Zn6	Zn	1.207760	-0.168425	0.499825
Zn7	Zn	1.457760	0.081575	0.749825
Zn8	Zn	1.707760	0.331575	0.999825
Zn9	Zn	0.853073	-0.294636	0.249799
Zn10	Zn	1.103073	-0.044636	0.499799
Zn11	Zn	1.353073	0.205364	0.749799
Zn12	Zn	1.603073	0.455364	0.999799
Zn13	Zn	0.853041	-0.418440	0.354530
Zn14	Zn	1.103041	-0.168440	0.604530
Zn15	Zn	1.353041	0.081560	0.854530
Zn16	Zn	1.603041	0.331560	1.104530
O17	O	0.905433	-0.356526	0.302188
O18	O	1.155433	-0.106526	0.552188
O19	O	1.405433	0.143474	0.802188
O20	O	1.655433	0.393474	1.052188
O21	O	1.045523	-0.311006	0.340739
O22	O	1.295523	-0.061006	0.590739
O23	O	1.545523	0.188994	0.840739
O24	O	1.795523	0.438994	1.090739
O25	O	0.943845	-0.402012	0.162144
O26	O	1.193845	-0.152012	0.412144
O27	O	1.443845	0.097988	0.662144
O28	O	1.693845	0.347988	0.912144
O29	O	0.867027	-0.190998	0.263718
O30	O	1.117027	0.059002	0.513718
O31	O	1.367027	0.309002	0.763718
O32	O	1.617027	0.559002	1.013718
O33	O	1.045450	-0.401979	0.263763
O34	O	1.295450	-0.151979	0.513763
O35	O	1.545450	0.098021	0.763763
O36	O	1.795450	0.348021	1.013763
O37	O	0.944012	-0.190973	0.340713
O38	O	1.194012	0.059027	0.590713
O39	O	1.444012	0.309027	0.840713
O40	O	1.694012	0.559027	1.090713
O41	O	0.866932	-0.311065	0.162125
O42	O	1.116932	-0.061065	0.412125
O43	O	1.366932	0.188935	0.662125
O44	O	1.616932	0.438935	0.912125
O45	O	0.765391	-0.311080	0.263652
O46	O	1.015391	-0.061080	0.513652
O47	O	1.265391	0.188920	0.763652
O48	O	1.515391	0.438920	1.013652
O49	O	0.866973	-0.402005	0.442217
O50	O	1.116973	-0.152005	0.692217
O51	O	1.366973	0.097995	0.942217
O52	O	1.616973	0.347995	1.192217
O53	O	0.765367	-0.402038	0.340598
O54	O	1.015367	-0.152038	0.590598
O55	O	1.265367	0.097962	0.840598
O56	O	1.515367	0.347962	1.090598
O57	O	0.943982	-0.311021	0.442267
O58	O	1.193982	-0.061021	0.692267
O59	O	1.443982	0.188979	0.942267
O60	O	1.693982	0.438979	1.192267
O61	O	0.943814	-0.522060	0.263697
O62	O	1.193814	-0.272060	0.513697
O63	O	1.443814	-0.022060	0.763697
O64	O	1.693814	0.227940	1.013697
O65	O	0.866878	-0.522071	0.340623
O66	O	1.116878	-0.272071	0.590623
O67	O	1.366878	-0.022071	0.840623
O68	O	1.616878	0.227929	1.090623
C69	C	0.742645	-0.356565	0.302115
C70	C	0.992645	-0.106565	0.552115
C71	C	1.242645	0.143435	0.802115
C72	C	1.492645	0.393435	1.052115
C73	C	0.673004	-0.356599	0.302099
C74	C	0.923004	-0.106599	0.552099
C75	C	1.173004	0.143401	0.802099
C76	C	1.423004	0.393401	1.052099
C77	C	0.640295	-0.404024	0.342105
C78	C	0.890295	-0.154024	0.592105
C79	C	1.140295	0.095976	0.842105
C80	C	1.390295	0.345976	1.092105
C81	C	0.574860	-0.404006	0.342133
C82	C	0.824860	-0.154006	0.592133
C83	C	1.074860	0.095994	0.842133
C84	C	1.324860	0.345994	1.092133
C85	C	0.542136	-0.356571	0.302144
C86	C	0.792136	-0.106571	0.552144
C87	C	1.042136	0.143429	0.802144
C88	C	1.292136	0.393429	1.052144
C89	C	0.574852	-0.309137	0.262135
C90	C	0.824852	-0.059137	0.512135
C91	C	1.074852	0.190863	0.762135
C92	C	1.324852	0.440863	1.012135
C93	C	0.640286	-0.309151	0.262113
C94	C	0.890286	-0.059151	0.512113
C95	C	1.140286	0.190849	0.762113
C96	C	1.390286	0.440849	1.012113
C97	C	0.438411	-0.350605	0.245738
C98	C	0.688411	-0.100605	0.495738
C99	C	0.938411	0.149395	0.745738
C100	C	1.188411	0.399395	0.995738
C101	C	0.372978	-0.350596	0.245760
C102	C	0.622978	-0.100596	0.495760
C103	C	0.872978	0.149404	0.745760
C104	C	1.122978	0.399404	0.995760
C105	C	0.340315	-0.356523	0.302213
C106	C	0.590315	-0.106523	0.552213
C107	C	0.840315	0.143477	0.802213
C108	C	1.090315	0.393477	1.052213
C109	C	0.373093	-0.362474	0.358647
C110	C	0.623093	-0.112474	0.608647
C111	C	0.873093	0.137526	0.858647
C112	C	1.123093	0.387526	1.108647
C113	C	0.438527	-0.362488	0.358624
C114	C	0.688527	-0.112488	0.608624
C115	C	0.938527	0.137512	0.858624
C116	C	1.188527	0.387512	1.108624
C117	C	0.471183	-0.356550	0.302164
C118	C	0.721183	-0.106550	0.552164
C119	C	0.971183	0.143450	0.802164
C120	C	1.221183	0.393450	1.052164
C121	C	0.236654	-0.403930	0.342252
C122	C	0.486654	-0.153930	0.592252
C123	C	0.736654	0.096070	0.842252
C124	C	0.986654	0.346070	1.092252
C125	C	0.171217	-0.403907	0.342281
C126	C	0.421217	-0.153907	0.592281
C127	C	0.671217	0.096093	0.842281
C128	C	0.921217	0.346093	1.092281
C129	C	0.171211	-0.309042	0.262278
C130	C	0.421211	-0.059042	0.512278
C131	C	0.671211	0.190958	0.762278
C132	C	0.921211	0.440958	1.012278
C133	C	0.236646	-0.309061	0.262255
C134	C	0.486646	-0.059061	0.512255
C135	C	0.736646	0.190939	0.762255
C136	C	0.986646	0.440939	1.012255
C137	C	0.269364	-0.356509	0.302241
C138	C	0.519364	-0.106509	0.552241
C139	C	0.769364	0.143491	0.802241
C140	C	1.019364	0.393491	1.052241
C141	C	0.905349	-0.548936	0.302170
C142	C	1.155349	-0.298936	0.552170
C143	C	1.405349	-0.048936	0.802170
C144	C	1.655349	0.201064	1.052170
C145	C	0.905370	-0.631250	0.302183
C146	C	1.155370	-0.381250	0.552183
C147	C	1.405370	-0.131250	0.802183
C148	C	1.655370	0.118750	1.052183
C149	C	0.905508	-0.930341	0.302216
C150	C	1.155508	-0.680341	0.552216
C151	C	1.405508	-0.430341	0.802216
C152	C	1.655508	-0.180341	1.052216
C153	C	0.857214	-0.899054	0.350736
C154	C	1.107214	-0.649054	0.600736
C155	C	1.357214	-0.399054	0.850736
C156	C	1.607214	-0.149054	1.100736
C157	C	0.856985	-0.813436	0.350585
C158	C	1.106985	-0.563436	0.600585
C159	C	1.356985	-0.313436	0.850585
C160	C	1.606985	-0.063436	1.100585
C161	C	0.905440	-0.781959	0.302200
C162	C	1.155440	-0.531959	0.552200
C163	C	1.405440	-0.281959	0.802200
C164	C	1.655440	-0.031959	1.052200
C165	C	0.887557	-0.813100	0.236161
C166	C	1.137557	-0.563100	0.486161
C167	C	1.387557	-0.313100	0.736161
C168	C	1.637557	-0.063100	0.986161
C169	C	0.887246	-0.898745	0.236451
C170	C	1.137246	-0.648745	0.486451
C171	C	1.387246	-0.398745	0.736451
C172	C	1.637246	-0.148745	0.986451
C173	C	0.971790	-0.898667	0.319154
C174	C	1.221790	-0.648667	0.569154
C175	C	1.471790	-0.398667	0.819154
C176	C	1.721790	-0.148667	1.069154
C177	C	0.971400	-0.813017	0.320602
C178	C	1.221400	-0.563017	0.570602
C179	C	1.471400	-0.313017	0.820602
C180	C	1.721400	-0.063017	1.070602
C181	C	0.905402	-0.698099	0.302187
C182	C	1.155402	-0.448099	0.552187
C183	C	1.405402	-0.198099	0.802187
C184	C	1.655402	0.051901	1.052187
C185	C	0.905544	-1.014201	0.302225
C186	C	1.155544	-0.764201	0.552225
C187	C	1.405544	-0.514201	0.802225
C188	C	1.655544	-0.264201	1.052225
C189	C	1.068856	-0.356487	0.302261
C190	C	1.318856	-0.106487	0.552261
C191	C	1.568856	0.143513	0.802261
C192	C	1.818856	0.393513	1.052261
C193	C	1.138497	-0.356470	0.302293
C194	C	1.388497	-0.106470	0.552293
C195	C	1.638497	0.143530	0.802293
C196	C	1.888497	0.393530	1.052293
C197	C	0.905485	-0.356511	0.465611
C198	C	1.155485	-0.106511	0.715611
C199	C	1.405485	0.143489	0.965611
C200	C	1.655485	0.393489	1.215611
C201	C	0.905507	-0.356504	0.535253
C202	C	1.155507	-0.106504	0.785253
C203	C	1.405507	0.143496	1.035253
C204	C	1.655507	0.393496	1.285253
C205	C	0.905534	-0.163364	0.302220
C206	C	1.155534	0.086636	0.552220
C207	C	1.405534	0.336636	0.802220
C208	C	1.655534	0.586636	1.052220
C209	C	0.905577	-0.081050	0.302234
C210	C	1.155577	0.168950	0.552234
C211	C	1.405577	0.418950	0.802234
C212	C	1.655577	0.668950	1.052234
C213	C	0.905417	-0.356487	0.139400
C214	C	1.155417	-0.106487	0.389400
C215	C	1.405417	0.143513	0.639400
C216	C	1.655417	0.393513	0.889400
C217	C	0.905516	-0.356285	0.069760
C218	C	1.155516	-0.106285	0.319760
C219	C	1.405516	0.143715	0.569760
C220	C	1.655516	0.393715	0.819760
C221	C	0.945603	-0.309127	0.567993
C222	C	1.195603	-0.059127	0.817993
C223	C	1.445603	0.190873	1.067993
C224	C	1.695603	0.440873	1.317993
C225	C	0.945603	-0.309095	0.633428
C226	C	1.195603	-0.059095	0.883428
C227	C	1.445603	0.190905	1.133428
C228	C	1.695603	0.440905	1.383428
C229	C	0.905512	-0.356454	0.666121
C230	C	1.155512	-0.106454	0.916121
C231	C	1.405512	0.143546	1.166121
C232	C	1.655512	0.393546	1.416121
C233	C	0.865408	-0.403834	0.633373
C234	C	1.115408	-0.153834	0.883373
C235	C	1.365408	0.096166	1.133373
C236	C	1.615408	0.346166	1.383373
C237	C	0.865405	-0.403859	0.567939
C238	C	1.115405	-0.153859	0.817939
C239	C	1.365405	0.096141	1.067939
C240	C	1.615405	0.346141	1.317939
C241	C	0.900536	-0.423137	0.769788
C242	C	1.150536	-0.173137	1.019788
C243	C	1.400536	0.076863	1.269788
C244	C	1.650536	0.326863	1.519788
C245	C	0.900542	-0.423113	0.835221
C246	C	1.150542	-0.173113	1.085221
C247	C	1.400542	0.076887	1.335221
C248	C	1.650542	0.326887	1.585221
C249	C	0.905516	-0.356375	0.867942
C250	C	1.155516	-0.106375	1.117942
C251	C	1.405516	0.143625	1.367942
C252	C	1.655516	0.393625	1.617942
C253	C	0.910495	-0.289660	0.835222
C254	C	1.160495	-0.039660	1.085222
C255	C	1.410495	0.210340	1.335222
C256	C	1.660495	0.460340	1.585222
C257	C	0.910493	-0.289685	0.769788
C258	C	1.160493	-0.039685	1.019788
C259	C	1.410493	0.210315	1.269788
C260	C	1.660493	0.460315	1.519788
C261	C	0.905510	-0.356431	0.737073
C262	C	1.155510	-0.106431	0.987073
C263	C	1.405510	0.143569	1.237073
C264	C	1.655510	0.393569	1.487073
C265	C	0.945613	-0.308960	0.971635
C266	C	1.195613	-0.058960	1.221635
C267	C	1.445613	0.191040	1.471635
C268	C	1.695613	0.441040	1.721635
C269	C	0.945608	-0.308927	1.037071
C270	C	1.195608	-0.058927	1.287071
C271	C	1.445608	0.191073	1.537071
C272	C	1.695608	0.441073	1.787071
C273	C	0.865416	-0.403672	1.037015
C274	C	1.115416	-0.153672	1.287015
C275	C	1.365416	0.096328	1.537015
C276	C	1.615416	0.346328	1.787015
C277	C	0.865418	-0.403699	0.971580
C278	C	1.115418	-0.153699	1.221580
C279	C	1.365418	0.096301	1.471580
C280	C	1.615418	0.346301	1.721580
C281	C	0.905520	-0.356344	0.938893
C282	C	1.155520	-0.106344	1.188893
C283	C	1.405520	0.143656	1.438893
C284	C	1.655520	0.393656	1.688893
H285	H	0.548223	-0.442625	0.374712
H286	H	0.798223	-0.192625	0.624712
H287	H	1.048223	0.057375	0.874712
H288	H	1.298223	0.307375	1.124712
F289	F	0.473409	-0.368819	0.418684
F290	F	0.723409	-0.118819	0.668684
F291	F	0.973409	0.131181	0.918684
F292	F	1.223409	0.381181	1.168684
F293	F	0.675099	-0.258673	0.219532
F294	F	0.925099	-0.008673	0.469532
F295	F	1.175099	0.241327	0.719532
F296	F	1.425099	0.491327	0.969532
H297	H	1.007771	-0.918897	0.283816
H298	H	1.257771	-0.668897	0.533816
H299	H	1.507771	-0.418897	0.783816
H300	H	1.757771	-0.168897	1.033816
H301	H	0.839618	-0.791728	0.221559
H302	H	1.089618	-0.541728	0.471559
H303	H	1.339618	-0.291728	0.721559
H304	H	1.589618	-0.041728	0.971559
H305	H	0.984886	-0.792661	0.369204
H306	H	1.234886	-0.542661	0.619204
H307	H	1.484886	-0.292661	0.869204
H308	H	1.734886	-0.042661	1.119204
F309	F	0.871691	-0.925923	0.414948
F310	F	1.121691	-0.675923	0.664948
F311	F	1.371691	-0.425923	0.914948
F312	F	1.621691	-0.175923	1.164948
H313	H	0.978257	-0.270566	0.541384
H314	H	1.228257	-0.020566	0.791384
H315	H	1.478257	0.229434	1.041384
H316	H	1.728257	0.479434	1.291384
H317	H	1.009286	-0.791584	0.287841
H318	H	1.259286	-0.541584	0.537841
H319	H	1.509286	-0.291584	0.787841
H320	H	1.759286	-0.041584	1.037841
H321	H	0.868173	-0.792380	0.399551
H322	H	1.118173	-0.542380	0.649551
H323	H	1.368173	-0.292380	0.899551
H324	H	1.618173	-0.042380	1.149551
F325	F	0.823916	-0.924962	0.217701
F326	F	1.073916	-0.674962	0.467701
F327	F	1.323916	-0.424962	0.717701
F328	F	1.573916	-0.174962	0.967701
H329	H	0.808383	-0.920654	0.339656
H330	H	1.058383	-0.670654	0.589656
H331	H	1.308383	-0.420654	0.839656
H332	H	1.558383	-0.170654	1.089656
F333	F	0.792768	-0.786755	0.335920
F334	F	1.042768	-0.536755	0.585920
F335	F	1.292768	-0.286755	0.835920
F336	F	1.542768	-0.036755	1.085920
H337	H	0.978253	-0.270511	0.660090
H338	H	1.228253	-0.020511	0.910090
H339	H	1.478253	0.229489	1.160090
H340	H	1.728253	0.479489	1.410090
F341	F	0.915789	-0.218684	0.734968
F342	F	1.165789	0.031316	0.984968
F343	F	1.415789	0.281316	1.234968
F344	F	1.665789	0.531316	1.484968
F345	F	0.915791	-0.218628	0.870041
F346	F	1.165791	0.031372	1.120041
F347	F	1.415791	0.281372	1.370041
F348	F	1.665791	0.531372	1.620041
F349	F	0.988290	-0.258558	0.936845
F350	F	1.238290	-0.008558	1.186845
F351	F	1.488290	0.241442	1.436845
F352	F	1.738290	0.491442	1.686845
H353	H	0.978259	-0.270342	1.063727
H354	H	1.228259	-0.020342	1.313727
H355	H	1.478259	0.229658	1.563727
H356	H	1.728259	0.479658	1.813727
H357	H	0.896318	-0.477468	0.743152
H358	H	1.146318	-0.227468	0.993152
H359	H	1.396318	0.022532	1.243152
H360	H	1.646318	0.272532	1.493152
F361	F	0.822738	-0.454234	0.668168
F362	F	1.072738	-0.204234	0.918168
F363	F	1.322738	0.045766	1.168168
F364	F	1.572738	0.295766	1.418168
H365	H	0.832767	-0.442225	1.063633
H366	H	1.082767	-0.192225	1.313633
H367	H	1.332767	0.057775	1.563633
H368	H	1.582767	0.307775	1.813633
F369	F	0.136406	-0.454382	0.384866
F370	F	0.386406	-0.204382	0.634866
F371	F	0.636406	0.045618	0.884866
F372	F	0.886406	0.295618	1.134866
F373	F	0.822727	-0.454287	0.533094
F374	F	1.072727	-0.204287	0.783094
F375	F	1.322727	0.045713	1.033094
F376	F	1.572727	0.295713	1.283094
F377	F	0.931222	-0.925801	0.187583
F378	F	1.181222	-0.675801	0.437583
F379	F	1.431222	-0.425801	0.687583
F380	F	1.681222	-0.175801	0.937583
H381	H	0.832771	-0.442283	0.944922
H382	H	1.082771	-0.192283	1.194922
H383	H	1.332771	0.057717	1.444922
H384	H	1.582771	0.307717	1.694922
F385	F	0.895248	-0.494117	0.870037
F386	F	1.145248	-0.244117	1.120037
F387	F	1.395248	0.005883	1.370037
F388	F	1.645248	0.255883	1.620037
F389	F	0.932086	-0.786450	0.187617
F390	F	1.182086	-0.536450	0.437617
F391	F	1.432086	-0.286450	0.687617
F392	F	1.682086	-0.036450	0.937617
H393	H	0.988093	-0.920221	0.366491
H394	H	1.238093	-0.670221	0.616491
H395	H	1.488093	-0.420221	0.866491
H396	H	1.738093	-0.170221	1.116491
H397	H	0.666930	-0.442659	0.374665
H398	H	0.916930	-0.192659	0.624665
H399	H	1.166930	0.057341	0.874665
H400	H	1.416930	0.307341	1.124665
H401	H	0.144568	-0.270415	0.229722
H402	H	0.394568	-0.020415	0.479722
H403	H	0.644568	0.229585	0.729722
H404	H	0.894568	0.479585	0.979722
H405	H	0.346500	-0.367299	0.404617
H406	H	0.596500	-0.117299	0.654617
H407	H	0.846500	0.132701	0.904617
H408	H	1.096500	0.382701	1.154617
H409	H	0.263294	-0.442562	0.374814
H410	H	0.513294	-0.192562	0.624814
H411	H	0.763294	0.057438	0.874814
H412	H	1.013294	0.307438	1.124814
H413	H	0.263278	-0.270446	0.229675
H414	H	0.513278	-0.020446	0.479675
H415	H	0.763278	0.229554	0.729675
H416	H	1.013278	0.479554	0.979675
H417	H	0.465000	-0.345775	0.199764
H418	H	0.715000	-0.095775	0.449764
H419	H	0.965000	0.154225	0.699764
H420	H	1.215000	0.404225	0.949764
H421	H	0.548204	-0.270514	0.229577
H422	H	0.798204	-0.020514	0.479577
H423	H	1.048204	0.229486	0.729577
H424	H	1.298204	0.479486	0.979577
F425	F	0.338099	-0.344262	0.185698
F426	F	0.588099	-0.094262	0.435698
F427	F	0.838099	0.155738	0.685698
F428	F	1.088099	0.405738	0.935698
