data_functionalizedCrystal
_audit_creation_method	'MofGen! by Chris Wilmer'
_symmetry_space_group_name_H-M	'P1'
_symmetry_Int_Tables_number	1
_symmetry_cell_setting	triclinic
loop_
_symmetry_equiv_pos_as_xyz
  x,y,z
_cell_length_a	16.120484
_cell_length_b	25.639242
_cell_length_c	16.120256
_cell_angle_alpha	92.869764
_cell_angle_beta	95.616173
_cell_angle_gamma	92.921537
loop_
_atom_site_label
_atom_site_type_symbol
_atom_site_fract_x
_atom_site_fract_y
_atom_site_fract_z
Zn1	Zn	-0.356869	0.772385	-0.489652
Zn2	Zn	-0.489555	0.772320	-0.356962
Zn3	Zn	-0.349789	0.689622	-0.349877
Zn4	Zn	-0.496587	0.680261	-0.496662
O5	O	-0.423200	0.728647	-0.423288
O6	O	-0.374490	0.845540	-0.472082
O7	O	-0.465108	0.765240	-0.239061
O8	O	-0.233764	0.704546	-0.362519
O9	O	-0.471973	0.845492	-0.374595
O10	O	-0.238965	0.765352	-0.465212
O11	O	-0.362423	0.704483	-0.233855
O12	O	-0.369243	0.615217	-0.369316
O13	O	-0.483960	0.688591	-0.612694
O14	O	-0.477095	0.608339	-0.477159
O15	O	-0.381309	0.756275	-0.607544
O16	O	-0.607452	0.756163	-0.381392
O17	O	-0.612619	0.688528	-0.484029
C18	C	-0.423164	0.592808	-0.423230
C19	C	-0.423170	0.534693	-0.423226
C20	C	-0.640365	0.721336	-0.434259
C21	C	-0.733270	0.718255	-0.438980
C22	C	-0.479445	0.170754	-0.479396
C23	C	-0.479451	0.116149	-0.479409
O24	O	-0.527255	0.084874	-0.527117
N25	N	-0.423226	0.092405	-0.423344
C26	C	-0.366986	0.123270	-0.367267
O27	O	-0.319162	0.098060	-0.319581
C28	C	-0.366976	0.177874	-0.367258
C29	C	-0.423211	0.201614	-0.423322
C30	C	-0.535675	0.194495	-0.535455
C31	C	-0.535670	0.249096	-0.535440
C32	C	-0.479435	0.279956	-0.479366
C33	C	-0.423206	0.256215	-0.423307
C34	C	-0.310733	0.208737	-0.311186
C35	C	-0.310728	0.263345	-0.311183
C36	C	-0.366963	0.287085	-0.367246
C37	C	-0.366967	0.341677	-0.367218
N38	N	-0.423192	0.365421	-0.423283
C39	C	-0.479426	0.334560	-0.479357
C40	C	-0.367008	0.008598	-0.367291
C41	C	-0.367020	-0.046005	-0.367295
C42	C	-0.479485	-0.053122	-0.479438
C43	C	-0.479476	0.001482	-0.479430
C44	C	-0.423233	0.032341	-0.423356
C45	C	-0.479412	0.449227	-0.479322
C46	C	-0.479405	0.503833	-0.479300
C47	C	-0.366937	0.510946	-0.367160
C48	C	-0.366947	0.456344	-0.367179
C49	C	-0.423188	0.425486	-0.423267
O50	O	-0.319185	0.372985	-0.319537
O51	O	-0.527235	0.359777	-0.527043
C52	C	-0.903369	0.712632	-0.447616
C53	C	-0.942191	0.744755	-0.398974
C54	C	-1.036840	0.741627	-0.403779
C55	C	-0.808712	0.715760	-0.442812
C56	C	-0.205189	0.736001	-0.412293
C57	C	-0.112285	0.739134	-0.407608
C58	C	-0.434209	0.721396	-0.641293
C59	C	-0.438900	0.718306	-0.734194
C60	C	-0.423237	0.865017	-0.423347
C61	C	-0.423252	0.923130	-0.423372
C62	C	-0.398715	0.744761	-0.943127
C63	C	-0.447430	0.712648	-0.904278
C64	C	-0.442682	0.715797	-0.809634
C65	C	-0.403461	0.741612	-1.037779
C66	C	-0.412174	0.735902	-0.206128
C67	C	-0.407248	0.739101	-0.113216
H68	H	-0.525207	0.424108	-0.524996
H69	H	-0.492697	0.682788	-0.942097
H70	H	-0.353447	0.774616	-0.905310
C71	C	-0.597539	0.160556	-0.597141
H72	H	-0.631024	0.182523	-0.630517
H73	H	-0.567478	0.139120	-0.632008
H74	H	-0.632302	0.139095	-0.566947
C75	C	-0.541340	-0.087073	-0.541125
H76	H	-0.574834	-0.065117	-0.574513
H77	H	-0.511263	-0.108507	-0.575982
H78	H	-0.576095	-0.108538	-0.510928
C79	C	-0.541261	0.529944	-0.540975
H80	H	-0.574745	0.503741	-0.574378
H81	H	-0.576013	0.551081	-0.510780
H82	H	-0.511178	0.551113	-0.575831
C83	C	-0.305094	0.430228	-0.305509
H84	H	-0.271600	0.456430	-0.272114
H85	H	-0.335164	0.409054	-0.270657
H86	H	-0.270340	0.409097	-0.335718
H87	H	-0.321155	0.536082	-0.321503
C88	C	-0.597519	0.275203	-0.597120
H89	H	-0.630999	0.248997	-0.630519
H90	H	-0.632274	0.296342	-0.566933
H91	H	-0.567433	0.296369	-0.631978
C92	C	-0.305168	-0.072114	-0.305621
H93	H	-0.271675	-0.045909	-0.272230
H94	H	-0.335239	-0.093284	-0.270766
H95	H	-0.270412	-0.093247	-0.335824
C96	C	-0.541327	0.027591	-0.541104
H97	H	-0.574813	0.001387	-0.574501
H98	H	-0.576077	0.048731	-0.510913
H99	H	-0.511243	0.048756	-0.575965
H100	H	-0.264942	0.189418	-0.265532
C101	C	-0.305146	0.042539	-0.305597
H102	H	-0.271671	0.020574	-0.272207
H103	H	-0.270386	0.064005	-0.335780
H104	H	-0.335223	0.063971	-0.270730
C105	C	-0.248859	0.297287	-0.249501
H106	H	-0.215376	0.275324	-0.216114
H107	H	-0.214106	0.318753	-0.279692
H108	H	-0.278931	0.318719	-0.214631
C109	C	-0.891072	0.785079	-0.337834
H110	H	-0.927878	0.804824	-0.307949
H111	H	-0.855219	0.767410	-0.299692
H112	H	-0.858588	0.807888	-0.368150
C113	C	-0.954491	0.672305	-0.508738
H114	H	-1.012320	0.675464	-0.503980
H115	H	-0.943042	0.678516	-0.564201
H116	H	-0.939666	0.638050	-0.495725
