data_functionalizedCrystal
_audit_creation_method	'MofGen! by Chris Wilmer'
_symmetry_space_group_name_H-M	'P1'
_symmetry_Int_Tables_number	1
_symmetry_cell_setting	triclinic
loop_
_symmetry_equiv_pos_as_xyz
  x,y,z
_cell_length_a	14.971486
_cell_length_b	14.971486
_cell_length_c	13.448316
_cell_angle_alpha	90.002432
_cell_angle_beta	90.003553
_cell_angle_gamma	83.614129
loop_
_atom_site_label
_atom_site_type_symbol
_atom_site_fract_x
_atom_site_fract_y
_atom_site_fract_z
O1	O	-1.186950	-0.116559	-0.082578
O2	O	-0.926550	-0.130518	-0.082605
O3	O	-1.063730	0.006662	-0.082584
O4	O	-1.049771	-0.253738	-0.082599
O5	O	-1.063707	0.006658	0.082800
O6	O	-0.926527	-0.130521	0.082779
O7	O	-1.186927	-0.116562	0.082806
Cu8	Cu	-1.056725	-0.123542	0.097893
Cu9	Cu	-1.056752	-0.123538	-0.097692
O10	O	-1.049748	-0.253742	0.082784
C11	C	-0.893214	-0.129895	0.000083
C12	C	-0.793917	-0.128024	0.000073
C13	C	-1.063094	0.039985	0.000108
C14	C	-1.061223	0.139282	0.000107
C15	C	-1.220263	-0.117185	0.000115
C16	C	-1.319561	-0.119056	0.000119
C17	C	-1.050384	-0.287065	0.000091
C18	C	-1.052254	-0.386362	0.000085
C19	C	-0.736691	-0.208614	0.000070
C20	C	-0.643392	-0.206850	0.000085
C21	C	-0.607320	-0.124497	0.000096
C22	C	-0.664552	-0.043902	0.000102
C23	C	-0.757850	-0.045666	0.000095
C24	C	-0.470090	-0.040231	0.000116
C25	C	-0.376786	-0.038466	0.000122
C26	C	-0.355632	-0.201415	0.000106
C27	C	-0.448930	-0.203179	0.000099
C28	C	-0.506156	-0.122584	0.000103
N29	N	-1.056712	-0.123544	0.235457
C30	C	-1.141812	0.196507	0.000116
C31	C	-1.140049	0.289807	0.000106
C32	C	-1.057696	0.325879	0.000093
C33	C	-0.977101	0.268646	0.000081
C34	C	-0.978865	0.175349	0.000084
C35	C	-0.973430	0.463109	0.000077
C36	C	-0.971665	0.556413	0.000076
C37	C	-1.134614	0.577567	0.000099
C38	C	-1.136378	0.484269	0.000102
C39	C	-1.055782	0.427043	0.000091
N40	N	-1.056772	-0.123528	-0.235257
C41	C	-1.117524	-0.062810	0.712685
C42	C	-1.117517	-0.062816	0.608582
C43	C	-1.056752	-0.123537	0.556539
C44	C	-0.995997	-0.184262	0.608604
C45	C	-0.996010	-0.184259	0.712705
C46	C	-0.995974	-0.184261	0.391624
C47	C	-0.995960	-0.184263	0.287515
C48	C	-1.117481	-0.062818	0.287501
C49	C	-1.117493	-0.062816	0.391602
C50	C	-1.056737	-0.123539	0.443660
H51	H	-0.766054	-0.275675	0.000060
C52	C	-1.228697	0.352758	0.000125
C53	C	-1.249912	0.419804	-0.085753
C54	C	-1.338563	0.482757	-0.085734
C55	C	-1.405998	0.478666	0.000164
C56	C	-1.384784	0.411618	0.086048
C57	C	-1.296133	0.348664	0.086029
H58	H	-1.199991	0.422835	-0.149346
H59	H	-1.354266	0.532391	-0.149311
H60	H	-1.471622	0.525268	0.000178
H61	H	-1.434705	0.408587	0.149641
H62	H	-1.280430	0.299031	0.149606
H63	H	-1.166968	-0.013368	0.433975
C64	C	-0.929154	-0.251057	0.551362
C65	C	-0.860705	-0.215991	0.479816
C66	C	-0.793857	-0.282787	0.422577
C67	C	-0.795458	-0.384647	0.436885
C68	C	-0.863910	-0.419718	0.508433
C69	C	-0.930758	-0.352923	0.565672
H70	H	-0.859518	-0.140584	0.469222
H71	H	-0.743185	-0.256824	0.369612
H72	H	-0.745974	-0.434093	0.394513
H73	H	-0.865097	-0.495126	0.519027
H74	H	-0.981430	-0.378885	0.618637
H75	H	-0.309033	-0.267039	0.000107
H76	H	-0.596802	-0.272474	0.000081
C77	C	-1.184367	0.003985	0.769928
C78	C	-1.251212	0.070754	0.712659
C79	C	-1.318060	0.137549	0.769897
C80	C	-1.318063	0.137575	0.884405
C81	C	-1.251216	0.070804	0.941680
C82	C	-1.184368	0.004009	0.884441
H83	H	-1.251213	0.070737	0.627888
H84	H	-1.367545	0.186978	0.727498
H85	H	-1.367548	0.187021	0.926776
H86	H	-1.251216	0.070821	1.026451
H87	H	-1.134883	-0.045420	0.926841
H88	H	-0.804443	0.019958	0.000097
H89	H	-0.910047	0.298024	0.000065
C90	C	-1.184339	0.003977	0.551313
C91	C	-1.182735	0.105837	0.565622
C92	C	-1.249560	0.172632	0.508351
C93	C	-1.317991	0.137565	0.436771
C94	C	-1.319598	0.035699	0.422458
C95	C	-1.252773	-0.031095	0.479729
H96	H	-1.132076	0.131800	0.618613
H97	H	-1.248370	0.248040	0.518947
H98	H	-1.367459	0.187010	0.394376
H99	H	-1.370257	0.009736	0.369467
H100	H	-1.253963	-0.106503	0.469134
C101	C	-0.929124	-0.251063	0.230271
C102	C	-0.862325	-0.317881	0.287535
C103	C	-0.795488	-0.384683	0.230293
C104	C	-0.795449	-0.384668	0.115786
C105	C	-0.862250	-0.317847	0.058514
C106	C	-0.929088	-0.251045	0.115757
H107	H	-0.862352	-0.317895	0.372306
H108	H	-0.746037	-0.434149	0.272690
H109	H	-0.745972	-0.434119	0.073411
H110	H	-0.862223	-0.317833	-0.026257
H111	H	-0.978538	-0.201579	0.073360
H112	H	-0.913240	0.128756	0.000077
C113	C	-0.488607	-0.293770	0.000093
C114	C	-0.549837	-0.317384	0.085971
C115	C	-0.589512	-0.407976	0.085973
C116	C	-0.567959	-0.474954	0.000097
C117	C	-0.506726	-0.451341	-0.085787
C118	C	-0.467051	-0.360749	-0.085789
H119	H	-0.565795	-0.267801	0.149547
H120	H	-0.634841	-0.425455	0.149550
H121	H	-0.597329	-0.542015	0.000098
H122	H	-0.490769	-0.500924	-0.149364
H123	H	-0.421722	-0.343270	-0.149367
C124	C	-0.884775	0.400156	0.000067
C125	C	-0.817327	0.404250	-0.085818
C126	C	-0.728677	0.341297	-0.085824
C127	C	-0.707474	0.274249	0.000055
C128	C	-0.774924	0.270153	0.085945
C129	C	-0.863574	0.333106	0.085951
H130	H	-0.833021	0.453885	-0.149396
H131	H	-0.678746	0.344330	-0.149406
H132	H	-0.641849	0.227647	0.000050
H133	H	-0.759230	0.220518	0.149524
H134	H	-0.913505	0.330073	0.149534
H135	H	-0.347419	0.028593	0.000133
C136	C	-0.624874	0.046688	0.000115
C137	C	-0.563639	0.070304	0.085997
C138	C	-0.523963	0.160896	0.086006
C139	C	-0.545521	0.227871	0.000132
C140	C	-0.606758	0.204257	-0.085757
C141	C	-0.646435	0.113665	-0.085766
H142	H	-0.547678	0.020723	0.149572
H143	H	-0.478630	0.178376	0.149587
H144	H	-0.516150	0.294932	0.000138
H145	H	-0.622720	0.253838	-0.149332
H146	H	-0.691767	0.096185	-0.149347
H147	H	-1.166950	-0.013375	0.245109
H148	H	-0.946503	-0.233712	0.434006
H149	H	-0.516682	0.025399	0.000121
H150	H	-1.208874	0.167145	0.000132
H151	H	-1.203437	0.454903	0.000119
H152	H	-0.946541	-0.233703	0.755090
H153	H	-0.904606	0.585780	0.000082
H154	H	-1.200238	0.624165	0.000104
