data_functionalizedCrystal
_audit_creation_method	'MofGen! by Chris Wilmer'
_symmetry_space_group_name_H-M	'P1'
_symmetry_Int_Tables_number	1
_symmetry_cell_setting	triclinic
loop_
_symmetry_equiv_pos_as_xyz
  x,y,z
_cell_length_a	19.188930
_cell_length_b	12.837942
_cell_length_c	11.892095
_cell_angle_alpha	94.302569
_cell_angle_beta	86.100356
_cell_angle_gamma	88.986860
loop_
_atom_site_label
_atom_site_type_symbol
_atom_site_fract_x
_atom_site_fract_y
_atom_site_fract_z
O1	O	0.939057	0.122707	-0.094371
O2	O	0.736937	0.140129	-0.094294
O3	O	0.833514	-0.019464	-0.094324
O4	O	0.842479	0.282300	-0.094341
O5	O	0.825461	-0.006178	0.093686
O6	O	0.728883	0.153415	0.093716
O7	O	0.931003	0.135993	0.093639
Zn8	Zn	0.828664	0.146814	0.123528
Zn9	Zn	0.839275	0.129309	-0.124183
O10	O	0.834425	0.295586	0.093669
C11	C	0.826460	-0.051427	-0.000319
C12	C	0.817429	-0.166463	-0.000317
C13	C	0.706859	0.146209	-0.000279
C14	C	0.629238	0.144518	-0.000249
C15	C	0.925999	-0.407919	-0.000382
C16	C	0.917517	-0.516006	-0.000381
C17	C	0.791983	-0.490728	-0.000321
C18	C	0.800465	-0.382641	-0.000322
C19	C	0.867475	-0.341240	-0.000351
C20	C	0.875956	-0.233150	-0.000344
C21	C	0.750424	-0.207875	-0.000293
C22	C	0.741941	-0.315962	-0.000292
C23	C	0.590737	0.238159	-0.000273
C24	C	0.517805	0.236568	-0.000285
C25	C	0.483377	0.141328	-0.000297
C26	C	0.521886	0.047675	-0.000267
C27	C	0.594816	0.049270	-0.000244
N28	N	0.373146	0.064005	-0.064326
N29	N	0.303865	0.062496	-0.064351
C30	C	0.263641	0.136517	-0.000366
N31	N	0.295316	0.212118	0.063631
N32	N	0.364603	0.213630	0.063651
C33	C	0.404296	0.139588	-0.000322
C34	C	0.146059	0.228439	-0.000401
C35	C	0.073126	0.226844	-0.000406
C36	C	0.077208	0.037948	-0.000400
C37	C	0.150140	0.039547	-0.000383
C38	C	0.184561	0.134794	-0.000389
C39	C	0.961080	0.129913	-0.000379
C40	C	1.038702	0.131604	-0.000416
C41	C	0.841480	0.327550	-0.000339
C42	C	0.850511	0.442585	-0.000348
N43	N	0.821427	0.158760	0.292584
N44	N	0.846517	0.117354	-0.293240
C45	C	0.896871	0.034169	0.529209
C46	C	0.891818	0.042527	0.647552
C47	C	0.806265	0.183827	0.647617
C48	C	0.811318	0.175470	0.529273
C49	C	0.856623	0.100639	0.470073
C50	C	0.861679	0.092287	0.351728
C51	C	0.776123	0.233582	0.351794
C52	C	0.771070	0.241940	0.470138
H53	H	0.980561	-0.374209	-0.000394
O54	O	0.669671	-0.360626	-0.000260
H55	H	0.630401	-0.296098	-0.000244
O56	O	0.476266	0.337569	-0.000305
H57	H	0.446240	0.335933	-0.076941
O58	O	0.948228	-0.188491	-0.000376
H59	H	0.958370	-0.145255	-0.077004
O60	O	0.484759	-0.055051	-0.000281
H61	H	0.427577	-0.040430	-0.000312
O62	O	0.935235	-0.029153	0.711340
H63	H	0.967591	-0.082581	0.650288
O64	O	0.757391	0.264511	0.711485
H65	H	0.730243	0.309323	0.650485
O66	O	0.980637	-0.587928	-0.000400
H67	H	1.028655	-0.540975	-0.000410
O68	O	0.719712	-0.535388	-0.000282
H69	H	0.723649	-0.621750	-0.000279
O70	O	0.687292	-0.135962	-0.000255
H71	H	0.691425	-0.091524	-0.076884
H72	H	0.618759	0.315717	-0.000279
H73	H	0.049180	-0.039603	-0.000479
O74	O	0.636349	-0.051732	-0.000224
H75	H	0.600159	-0.118229	-0.000238
O76	O	0.191673	-0.061453	-0.000368
H77	H	0.155483	-0.127949	-0.000385
H78	H	0.898571	0.031359	0.303528
O79	O	0.945732	-0.046535	0.465345
H80	H	0.972869	-0.091356	0.526349
O81	O	0.722215	0.322658	0.533990
H82	H	0.683084	0.282982	0.587944
H83	H	0.743353	0.287710	0.303633
O84	O	0.183188	0.331169	-0.000391
H85	H	0.240370	0.316546	-0.000387
H86	H	0.041779	0.303102	-0.000418
