data_functionalizedCrystal
_audit_creation_method	'MofGen! by Chris Wilmer'
_symmetry_space_group_name_H-M	'P1'
_symmetry_Int_Tables_number	1
_symmetry_cell_setting	triclinic
loop_
_symmetry_equiv_pos_as_xyz
  x,y,z
_cell_length_a	19.288862
_cell_length_b	14.586319
_cell_length_c	19.288865
_cell_angle_alpha	90.009016
_cell_angle_beta	96.864237
_cell_angle_gamma	89.979846
loop_
_atom_site_label
_atom_site_type_symbol
_atom_site_fract_x
_atom_site_fract_y
_atom_site_fract_z
O1	O	-0.921348	0.076604	0.086639
O2	O	-0.421348	0.576604	0.586639
O3	O	-0.719088	0.076530	0.098329
O4	O	-0.219088	0.576530	0.598329
O5	O	-0.826062	0.076551	-0.008646
O6	O	-0.326062	0.576551	0.491354
O7	O	-0.814374	0.076583	0.193615
O8	O	-0.314374	0.576583	0.693615
O9	O	-0.826055	-0.075930	-0.008648
O10	O	-0.326055	0.424070	0.491352
O11	O	-0.719080	-0.075951	0.098328
O12	O	-0.219080	0.424049	0.598328
O13	O	-0.921341	-0.075876	0.086637
O14	O	-0.421341	0.424124	0.586637
Cu15	Cu	-0.820210	-0.089836	0.092483
Cu16	Cu	-0.320210	0.410164	0.592483
Cu17	Cu	-0.820219	0.090490	0.092484
Cu18	Cu	-0.320219	0.590490	0.592484
O19	O	-0.814366	-0.075898	0.193613
O20	O	-0.314366	0.424102	0.693613
C21	C	-0.693207	0.000280	0.097953
C22	C	-0.193207	0.500280	0.597953
C23	C	-0.616104	0.000251	0.096824
C24	C	-0.116104	0.500251	0.596824
N25	N	-0.820209	-0.216668	0.092481
N26	N	-0.320209	0.283332	0.592481
C27	C	-0.571407	0.000272	0.159593
C28	C	-0.071407	0.500272	0.659593
C29	C	-0.498960	0.000278	0.158533
C30	C	0.001040	0.500278	0.658533
C31	C	-0.471213	0.000280	0.094701
C32	C	0.028787	0.500280	0.594701
C33	C	-0.515919	0.000253	0.031924
C34	C	-0.015919	0.500253	0.531924
C35	C	-0.588364	0.000238	0.032986
C36	C	-0.088364	0.500238	0.532986
C37	C	-0.362953	0.053716	0.044523
C38	C	0.137047	0.553716	0.544523
C39	C	-0.290509	0.053736	0.043464
C40	C	0.209491	0.553736	0.543464
C41	C	-0.247767	0.000320	0.091423
C42	C	0.252233	0.500320	0.591423
C43	C	-0.277477	-0.053104	0.140453
C44	C	0.222523	0.446896	0.640453
C45	C	-0.349923	-0.053119	0.141515
C46	C	0.150077	0.446881	0.641515
C47	C	-0.392659	0.000295	0.093542
C48	C	0.107341	0.500295	0.593542
C49	C	-0.124514	0.000346	0.153046
C50	C	0.375486	0.500346	0.653046
C51	C	-0.052066	0.000346	0.151983
C52	C	0.447934	0.500346	0.651983
C53	C	-0.069026	0.000330	0.025373
C54	C	0.430974	0.500330	0.525373
C55	C	-0.141473	0.000321	0.026438
C56	C	0.358527	0.500321	0.526438
C57	C	-0.169212	0.000334	0.090276
C58	C	0.330788	0.500334	0.590276
C59	C	-0.867593	-0.451665	0.045128
C60	C	-0.367593	0.048335	0.545128
C61	C	-0.867595	-0.547646	0.045126
C62	C	-0.367595	-0.047646	0.545126
C63	C	-0.772836	-0.547675	0.139836
C64	C	-0.272836	-0.047675	0.639836
C65	C	-0.772831	-0.451695	0.139834
C66	C	-0.272831	0.048305	0.639834
C67	C	-0.820214	-0.403693	0.092480
C68	C	-0.320214	0.096307	0.592480
C69	C	-0.820220	-0.595654	0.092481
C70	C	-0.320220	-0.095654	0.592481
C71	C	-0.820222	-0.699721	0.092479
C72	C	-0.320222	-0.199721	0.592479
C73	C	-0.820211	-0.299619	0.092481
C74	C	-0.320211	0.200381	0.592481
C75	C	0.052779	0.000360	0.087016
C76	C	0.552779	0.500360	0.587016
C77	C	-0.024324	0.000346	0.088151
C78	C	0.475676	0.500346	0.588151
C79	C	-0.825683	0.000308	-0.034523
C80	C	-0.325683	0.500308	0.465477
C81	C	-0.824554	0.000299	-0.111627
C82	C	-0.324554	0.500299	0.388373
N83	N	-0.820225	0.217322	0.092481
N84	N	-0.320225	0.717322	0.592481
C85	C	-0.887322	0.000318	-0.156324
C86	C	-0.387322	0.500318	0.343676
C87	C	-0.886261	0.000332	-0.228771
C88	C	-0.386261	0.500332	0.271229
C89	C	-0.822429	0.000309	-0.256518
C90	C	-0.322429	0.500309	0.243482
C91	C	-0.759652	0.000296	-0.211811
C92	C	-0.259652	0.500296	0.288189
C93	C	-0.760715	0.000291	-0.139366
C94	C	-0.260715	0.500291	0.360634
C95	C	-0.772246	-0.053120	-0.364805
C96	C	-0.272246	0.446880	0.135195
C97	C	-0.771187	-0.053121	-0.437250
C98	C	-0.271187	0.446879	0.062750
C99	C	-0.819149	0.000329	-0.479963
C100	C	-0.319149	0.500329	0.020037
C101	C	-0.868183	0.053767	-0.450225
C102	C	-0.368183	0.553767	0.049775
C103	C	-0.869246	0.053762	-0.377780
C104	C	-0.369246	0.553762	0.122220
C105	C	-0.821269	0.000315	-0.335072
C106	C	-0.321269	0.500315	0.164928
C107	C	-0.880771	0.000364	-0.603216
C108	C	-0.380771	0.500364	-0.103216
C109	C	-0.879708	0.000384	-0.675664
C110	C	-0.379708	0.500384	-0.175664
C111	C	-0.753098	0.000338	-0.658703
C112	C	-0.253098	0.500338	-0.158703
C113	C	-0.754163	0.000328	-0.586257
C114	C	-0.254163	0.500328	-0.086257
C115	C	-0.818001	0.000336	-0.558518
C116	C	-0.318001	0.500336	-0.058518
C117	C	-0.814746	0.000348	0.219490
C118	C	-0.314746	0.500348	0.719490
C119	C	-0.815875	0.000362	0.296594
C120	C	-0.315875	0.500362	0.796594
H121	H	-0.593988	0.000284	0.211575
H122	H	-0.093988	0.500284	0.711575
O123	O	-0.956172	0.000335	-0.126402
O124	O	-0.456172	0.500335	0.373598
H125	H	-0.959683	0.062481	-0.093789
H126	H	-0.459683	0.562481	0.406211
H127	H	-0.937376	0.000351	-0.265170
H128	H	-0.437376	0.500351	0.234830
H129	H	-0.397748	0.097219	0.005467
H130	H	0.102252	0.597219	0.505467
H131	H	-0.734246	-0.412633	0.178394
H132	H	-0.234246	0.087367	0.678394
H133	H	-0.462561	0.000293	0.209648
H134	H	0.037439	0.500293	0.709648
O135	O	-0.918680	-0.399880	-0.005953
O136	O	-0.418680	0.100120	0.494047
H137	H	-0.972803	-0.418265	0.002743
H138	H	-0.472803	0.081735	0.502743
O139	O	-0.720516	-0.110782	-0.318741
O140	O	-0.220516	0.389218	0.181259
H141	H	-0.688252	-0.065748	-0.281343
H142	H	-0.188252	0.434252	0.218657
H143	H	-0.703050	0.000307	-0.549863
H144	H	-0.203050	0.500307	-0.049863
H145	H	-0.909169	0.097275	-0.353570
H146	H	-0.409169	0.597275	0.146430
O147	O	-0.684248	0.000306	-0.688620
O148	O	-0.184248	0.500306	-0.188620
H149	H	-0.680738	0.062452	-0.721215
H150	H	-0.180738	0.562452	-0.221215
H151	H	-0.907238	0.097291	-0.485001
H152	H	-0.407238	0.597291	0.014999
O153	O	-0.485992	0.000255	-0.036922
O154	O	0.014008	0.500255	0.463078
H155	H	-0.503932	-0.061908	-0.067068
H156	H	-0.003932	0.438092	0.432932
O157	O	-0.039113	0.000326	-0.043478
O158	O	0.460887	0.500326	0.456522
H159	H	-0.006540	0.062482	-0.046997
H160	H	0.493460	0.562482	0.453003
O161	O	-0.690806	0.000264	-0.241739
O162	O	-0.190806	0.500264	0.258261
H163	H	-0.660660	0.062405	-0.223768
H164	H	-0.160660	0.562405	0.276232
H165	H	-0.731257	-0.096628	-0.461456
H166	H	-0.231257	0.403372	0.038544
O167	O	-0.693013	0.000255	-0.091150
O168	O	-0.193013	0.500255	0.408850
H169	H	-0.648446	0.000235	-0.122611
H170	H	-0.148446	0.500235	0.377389
O171	O	-0.949621	0.000391	-0.573289
O172	O	-0.449621	0.500391	-0.073289
H173	H	-0.993091	0.000424	-0.616544
H174	H	-0.493091	0.500424	-0.116544
H175	H	-0.734260	-0.586768	0.178391
H176	H	-0.234260	-0.086768	0.678391
O177	O	-0.947411	0.000396	-0.723879
O178	O	-0.447411	0.500396	-0.223879
H179	H	-0.991976	0.000390	-0.692416
H180	H	-0.491976	0.500390	-0.192416
H181	H	-0.906174	-0.586703	0.006566
H182	H	-0.406174	-0.086703	0.506566
H183	H	-0.374110	-0.096622	0.181435
H184	H	0.125890	0.403378	0.681435
H185	H	-0.624757	0.000221	-0.018129
H186	H	-0.124757	0.500221	0.481871
H187	H	-0.177866	0.000309	-0.024675
H188	H	0.322134	0.500309	0.475325
O189	O	-0.258473	0.111347	-0.009425
O190	O	0.241527	0.611347	0.490575
H191	H	-0.271453	0.184575	-0.002066
H192	H	0.228547	0.684575	0.497934
O193	O	-0.231390	-0.110730	0.192184
O194	O	0.268610	0.389270	0.692184
H195	H	-0.176024	-0.101758	0.183204
H196	H	0.323976	0.398242	0.683204
H197	H	-0.147101	0.000343	0.205027
H198	H	0.352899	0.500343	0.705027
H199	H	-0.015674	0.000358	0.203099
H200	H	0.484326	0.500358	0.703099
