data_functionalizedCrystal
_audit_creation_method	'MofGen! by Chris Wilmer'
_symmetry_space_group_name_H-M	'P1'
_symmetry_Int_Tables_number	1
_symmetry_cell_setting	triclinic
loop_
_symmetry_equiv_pos_as_xyz
  x,y,z
_cell_length_a	10.540535
_cell_length_b	8.559649
_cell_length_c	7.681481
_cell_angle_alpha	94.904209
_cell_angle_beta	95.801904
_cell_angle_gamma	102.848847
loop_
_atom_site_label
_atom_site_type_symbol
_atom_site_fract_x
_atom_site_fract_y
_atom_site_fract_z
O1	O	1.675816	-0.209973	0.146324
O2	O	1.304185	-0.231171	0.146347
O3	O	1.522741	0.011657	0.146332
O4	O	1.457259	-0.452800	0.146339
O5	O	1.495765	-0.018200	-0.146524
O6	O	1.277209	-0.261027	-0.146508
O7	O	1.648840	-0.239830	-0.146532
Zn8	Zn	1.458741	-0.255169	-0.193017
Zn9	Zn	1.494283	-0.215831	0.192833
O10	O	1.430283	-0.482657	-0.146516
C11	C	1.243560	-0.244510	-0.000077
C12	C	1.103110	-0.239757	-0.000068
C13	C	1.085001	-0.062464	-0.000078
C14	C	0.938861	-0.057532	-0.000760
C15	C	0.869924	-0.337708	-0.166997
C16	C	1.016284	-0.341493	-0.167120
C17	C	1.046575	-0.310119	0.165924
C18	C	0.901288	-0.301697	0.168100
C19	C	1.514216	0.056202	-0.000093
C20	C	1.528988	0.233415	-0.000084
C21	C	1.709464	-0.226490	-0.000104
C22	C	1.849916	-0.231241	-0.000101
N23	N	1.518542	-0.188973	0.456165
C24	C	1.438809	-0.527202	-0.000088
C25	C	1.424038	-0.704414	-0.000085
N26	N	1.434494	-0.282015	-0.456350
H27	H	1.145120	0.017819	0.119589
C28	C	1.287385	0.184364	-0.000069
H29	H	1.223522	0.247126	-0.000083
H30	H	1.286564	0.129090	0.102060
H31	H	1.267751	0.108262	-0.102204
H32	H	1.604327	-0.093978	0.531365
C33	C	0.924002	0.053467	0.160805
H34	H	1.007433	0.095950	0.227447
H35	H	0.866728	-0.006528	0.231824
H36	H	0.888703	0.139494	0.122809
H37	H	1.124458	-0.007705	-0.119589
C38	C	0.821357	-0.271983	-0.335445
H39	H	0.833877	-0.337224	-0.435738
H40	H	0.869438	-0.164324	-0.337356
H41	H	0.730778	-0.273876	-0.337171
H42	H	1.630145	0.315766	-0.000105
H43	H	1.348706	-0.376992	0.468459
H44	H	1.051244	-0.293850	-0.292358
C45	C	0.895279	0.019915	-0.163346
H46	H	0.966921	0.048468	-0.229245
H47	H	0.866779	0.113812	-0.126405
H48	H	0.825259	-0.054781	-0.234724
C49	C	1.028138	-0.518044	-0.176728
H50	H	0.943565	-0.587140	-0.180554
H51	H	1.082597	-0.532203	-0.075792
H52	H	1.065543	-0.543715	-0.279801
C53	C	0.818411	-0.471563	0.182445
H54	H	0.851630	-0.511097	0.285196
H55	H	0.822561	-0.541755	0.081560
H56	H	0.729896	-0.466621	0.189464
H57	H	0.808644	-0.466241	-0.172731
H58	H	1.106483	-0.241894	0.292469
H59	H	0.890874	-0.224012	0.291572
C60	C	1.058312	-0.486104	0.168129
H61	H	1.097470	-0.516610	0.068441
H62	H	0.973534	-0.554565	0.164717
H63	H	1.111207	-0.495694	0.272579
