data_functionalizedCrystal
_audit_creation_method	'MofGen! by Chris Wilmer'
_symmetry_space_group_name_H-M	'P1'
_symmetry_Int_Tables_number	1
_symmetry_cell_setting	triclinic
loop_
_symmetry_equiv_pos_as_xyz
  x,y,z
_cell_length_a	12.645331
_cell_length_b	12.645330
_cell_length_c	19.805399
_cell_angle_alpha	89.976144
_cell_angle_beta	89.988119
_cell_angle_gamma	90.011881
loop_
_atom_site_label
_atom_site_type_symbol
_atom_site_fract_x
_atom_site_fract_y
_atom_site_fract_z
Zn1	Zn	1.620728	-0.422086	-0.382598
Zn2	Zn	2.120728	0.077914	0.117402
Zn3	Zn	1.620637	-0.599364	-0.269417
Zn4	Zn	2.120637	-0.099364	0.230583
Zn5	Zn	1.443455	-0.422112	-0.269438
Zn6	Zn	1.943455	0.077888	0.230562
Zn7	Zn	1.443440	-0.599305	-0.382579
Zn8	Zn	1.943440	-0.099305	0.117421
O9	O	1.532065	-0.510717	-0.326008
O10	O	2.032065	-0.010717	0.173992
O11	O	1.769063	-0.445615	-0.367584
O12	O	2.269063	0.054385	0.132416
O13	O	1.597102	-0.575887	-0.174704
O14	O	2.097102	-0.075887	0.325296
O15	O	1.467014	-0.273762	-0.284466
O16	O	1.967014	0.226238	0.215534
O17	O	1.768996	-0.575861	-0.284430
O18	O	2.268996	-0.075861	0.215570
O19	O	1.597256	-0.273742	-0.367604
O20	O	2.097256	0.226258	0.132396
O21	O	1.466926	-0.445661	-0.174719
O22	O	1.966926	0.054339	0.325281
O23	O	1.295105	-0.445604	-0.284447
O24	O	1.795105	0.054396	0.215553
O25	O	1.466989	-0.575761	-0.477298
O26	O	1.966989	-0.075761	0.022702
O27	O	1.295095	-0.575787	-0.367572
O28	O	1.795095	-0.075787	0.132428
O29	O	1.597242	-0.445558	-0.477312
O30	O	2.097242	0.054442	0.022688
O31	O	1.597088	-0.747703	-0.284412
O32	O	2.097088	-0.247703	0.215588
O33	O	1.466901	-0.747660	-0.367552
O34	O	1.966901	-0.247660	0.132448
C35	C	1.256635	-0.510693	-0.326010
C36	C	1.756635	-0.010693	0.173990
C37	C	1.138805	-0.510708	-0.326027
C38	C	1.638805	-0.010708	0.173973
C39	C	0.971270	-0.593055	-0.378048
C40	C	1.471270	-0.093055	0.121952
C41	C	1.093830	-0.592789	-0.378265
C42	C	1.593830	-0.092789	0.121735
C43	C	1.094315	-0.399055	-0.345517
C44	C	1.594315	0.100945	0.154483
C45	C	0.971717	-0.399557	-0.345883
C46	C	1.471717	0.100443	0.154117
C47	C	0.971570	-0.539115	-0.254351
C48	C	1.471570	-0.039115	0.245649
C49	C	1.094176	-0.541557	-0.254738
C50	C	1.594176	-0.041557	0.245262
C51	C	1.532012	-0.786146	-0.325992
C52	C	2.032012	-0.286146	0.174008
C53	C	1.532086	-0.903977	-0.326008
C54	C	2.032086	-0.403977	0.173992
C55	C	1.613855	-1.071523	-0.273599
C56	C	2.113855	-0.571523	0.226401
C57	C	1.614121	-0.948963	-0.273727
C58	C	2.114121	-0.448963	0.226273
C59	C	1.562379	-0.948365	-0.397352
C60	C	2.062379	-0.448365	0.102648
C61	C	1.563027	-1.070963	-0.397074
C62	C	2.063027	-0.570963	0.102926
C63	C	1.419993	-1.071301	-0.307776
C64	C	1.919993	-0.571301	0.192224
C65	C	1.420530	-0.948696	-0.306176
C66	C	1.920530	-0.448696	0.193824
C67	C	1.808570	-0.510742	-0.326007
C68	C	2.308570	-0.010742	0.173993
C69	C	1.926400	-0.510752	-0.326006
C70	C	2.426400	-0.010752	0.173994
C71	C	1.532124	-0.510650	-0.502551
C72	C	2.032124	-0.010650	-0.002551
C73	C	1.532150	-0.510622	-0.577783
C74	C	2.032150	-0.010622	-0.077783
C75	C	1.532147	-0.234212	-0.326039
C76	C	2.032147	0.265788	0.173961
C77	C	1.532182	-0.116381	-0.326052
C78	C	2.032182	0.383619	0.173948
C79	C	1.599974	-0.442822	-0.613136
C80	C	2.099974	0.057178	-0.113136
C81	C	1.599985	-0.442791	-0.683824
C82	C	2.099985	0.057209	-0.183824
C83	C	1.532176	-0.510566	-0.719159
C84	C	2.032176	-0.010566	-0.219159
C85	C	1.464344	-0.578369	-0.683801
C86	C	1.964344	-0.078369	-0.183801
C87	C	1.464329	-0.578394	-0.613114
C88	C	1.964329	-0.078394	-0.113114
C89	C	1.464404	-0.578270	-0.968875
C90	C	1.964404	-0.078270	-0.468875
C91	C	1.464427	-0.578242	-1.039567
C92	C	1.964427	-0.078242	-0.539567
C93	C	1.600060	-0.442668	-1.039585
C94	C	2.100060	0.057332	-0.539585
C95	C	1.600045	-0.442692	-0.968897
C96	C	2.100045	0.057308	-0.468897
C97	C	1.532209	-0.510491	-0.933546
C98	C	2.032209	-0.010491	-0.433546
C99	C	1.532197	-0.510522	-0.856898
C100	C	2.032197	-0.010522	-0.356898
C101	C	1.532193	-0.510541	-0.795806
C102	C	2.032193	-0.010541	-0.295806
C103	C	1.532067	-0.510707	-0.150152
C104	C	2.032067	-0.010707	0.349848
C105	C	1.532247	-0.510437	-0.074921
C106	C	2.032247	-0.010437	0.425079
H107	H	0.940657	-0.619144	-0.236637
H108	H	1.440657	-0.119144	0.263363
H109	H	1.123267	-0.623717	-0.240038
H110	H	1.623267	-0.123717	0.259962
C111	C	1.674599	-0.368208	-0.722709
C112	C	2.174599	0.131792	-0.222709
N113	N	1.730801	-0.312028	-0.751996
N114	N	2.230801	0.187972	-0.251996
C115	C	1.725508	-1.113060	-0.289735
C116	C	2.225508	-0.613060	0.210265
N117	N	1.809602	-1.144356	-0.301886
N118	N	2.309602	-0.644356	0.198114
C119	C	0.931614	-0.313900	-0.296916
C120	C	1.431614	0.186100	0.203084
N121	N	0.901413	-0.249379	-0.260037
N122	N	1.401413	0.250621	0.239963
H123	H	1.409130	-0.633549	-0.712576
H124	H	1.909130	-0.133549	-0.212576
C125	C	1.588478	-0.908421	-0.202266
C126	C	2.088478	-0.408421	0.297734
N127	N	1.569154	-0.877890	-0.148439
N128	N	2.069154	-0.377890	0.351561
C129	C	1.484468	-0.908989	-0.451567
C130	C	1.984468	-0.408989	0.048433
N131	N	1.425786	-0.879326	-0.492401
N132	N	1.925786	-0.379326	0.007599
H133	H	1.643457	-0.917580	-0.413093
H134	H	2.143457	-0.417580	0.086907
C135	C	1.333884	-0.907340	-0.354004
C136	C	1.833884	-0.407340	0.145996
N137	N	1.268624	-0.876191	-0.390034
N138	N	1.768624	-0.376191	0.109966
H139	H	1.645032	-1.099478	-0.412556
H140	H	2.145032	-0.599478	0.087444
C141	C	1.726381	-0.909233	-0.290053
C142	C	2.226381	-0.409233	0.209947
N143	N	1.810941	-0.879309	-0.302349
N144	N	2.310941	-0.379309	0.197651
C145	C	1.389719	-0.652980	-0.574227
C146	C	1.889719	-0.152980	-0.074227
N147	N	1.333518	-0.709160	-0.544938
N148	N	1.833518	-0.209160	-0.044938
C149	C	0.932358	-0.458134	-0.201966
C150	C	1.432358	0.041866	0.298034
N151	N	0.902817	-0.397137	-0.162514
N152	N	1.402817	0.102863	0.337486
H153	H	1.506146	-1.100633	-0.437502
H154	H	2.006146	-0.600633	0.062498
H155	H	1.123172	-0.574019	-0.431359
H156	H	1.623172	-0.074019	0.068641
C157	C	1.135520	-0.466435	-0.199544
C158	C	1.635520	0.033565	0.300456
N159	N	1.166656	-0.409842	-0.157974
N160	N	1.666656	0.090158	0.342026
C161	C	1.133629	-0.313966	-0.295892
C162	C	1.633629	0.186034	0.204108
N163	N	1.163227	-0.249881	-0.258507
N164	N	1.663227	0.250119	0.241493
C165	C	1.134470	-0.704647	-0.361767
C166	C	1.634470	-0.204647	0.138233
N167	N	1.165076	-0.788904	-0.349343
N168	N	1.665076	-0.288904	0.150657
H169	H	1.595139	-1.101071	-0.220543
H170	H	2.095139	-0.601071	0.279457
C171	C	1.135804	-0.365962	-0.415520
C172	C	1.635804	0.134038	0.084480
N173	N	1.167051	-0.341043	-0.468249
N174	N	1.667051	0.158957	0.031751
C175	C	1.674668	-0.368074	-1.078477
C176	C	2.174668	0.131926	-0.578477
N177	N	1.730860	-0.311891	-1.107770
N178	N	2.230860	0.188109	-0.607770
C179	C	1.382781	-1.113177	-0.238714
C180	C	1.882781	-0.613177	0.261286
N181	N	1.354765	-1.144717	-0.186694
N182	N	1.854765	-0.644717	0.313306
H183	H	1.397689	-0.919695	-0.253673
H184	H	1.897689	-0.419695	0.246327
C185	C	1.337782	-1.110497	-0.359385
C186	C	1.837782	-0.610497	0.140615
N187	N	1.275869	-1.140026	-0.398259
N188	N	1.775869	-0.640026	0.101741
H189	H	0.943135	-0.375499	-0.398266
H190	H	1.443135	0.124501	0.101734
H191	H	1.655195	-0.387635	-0.584371
H192	H	2.155195	0.112365	-0.084371
C193	C	1.389821	-0.652797	-1.078434
C194	C	1.889821	-0.152797	-0.578434
N195	N	1.333630	-0.708947	-1.107708
N196	N	1.833630	-0.208947	-0.607708
C197	C	0.931432	-0.705283	-0.361733
C198	C	1.431432	-0.205283	0.138267
N199	N	0.901417	-0.789816	-0.349445
N200	N	1.401417	-0.289816	0.150555
H201	H	1.655265	-0.387506	-0.940131
H202	H	2.155265	0.112494	-0.440131
H203	H	1.409184	-0.633491	-0.940100
H204	H	1.909184	-0.133491	-0.440100
H205	H	0.940472	-0.574528	-0.430833
H206	H	1.440472	-0.074528	0.069167
