data_functionalizedCrystal
_audit_creation_method	'MofGen! by Chris Wilmer'
_symmetry_space_group_name_H-M	'P1'
_symmetry_Int_Tables_number	1
_symmetry_cell_setting	triclinic
loop_
_symmetry_equiv_pos_as_xyz
  x,y,z
_cell_length_a	14.044202
_cell_length_b	12.503572
_cell_length_c	14.044190
_cell_angle_alpha	86.160597
_cell_angle_beta	86.807761
_cell_angle_gamma	86.162225
loop_
_atom_site_label
_atom_site_type_symbol
_atom_site_fract_x
_atom_site_fract_y
_atom_site_fract_z
O1	O	-1.282214	0.089288	0.225155
O2	O	-1.032214	0.339288	0.475155
O3	O	-0.782214	0.589288	0.725155
O4	O	-0.532214	0.839288	0.975155
O5	O	-1.005542	0.089301	0.216840
O6	O	-0.755542	0.339301	0.466840
O7	O	-0.505542	0.589301	0.716840
O8	O	-0.255542	0.839301	0.966840
O9	O	-1.139721	0.089274	0.082662
O10	O	-0.889721	0.339274	0.332662
O11	O	-0.639721	0.589274	0.582662
O12	O	-0.389721	0.839274	0.832662
O13	O	-1.148036	0.089316	0.359333
O14	O	-0.898036	0.339316	0.609333
O15	O	-0.648036	0.589316	0.859333
O16	O	-0.398036	0.839316	1.109333
O17	O	-1.129631	-0.089366	0.092772
O18	O	-0.879631	0.160634	0.342772
O19	O	-0.629631	0.410634	0.592772
O20	O	-0.379631	0.660634	0.842772
O21	O	-0.995453	-0.089339	0.226949
O22	O	-0.745453	0.160661	0.476949
O23	O	-0.495453	0.410661	0.726949
O24	O	-0.245453	0.660661	0.976949
O25	O	-1.272125	-0.089352	0.235265
O26	O	-1.022125	0.160648	0.485265
O27	O	-0.772125	0.410648	0.735265
O28	O	-0.522125	0.660648	0.985265
Cu29	Cu	-1.132868	-0.105656	0.232030
Cu30	Cu	-0.882868	0.144344	0.482030
Cu31	Cu	-0.632868	0.394344	0.732030
Cu32	Cu	-0.382868	0.644344	0.982030
Cu33	Cu	-1.144800	0.105606	0.220075
Cu34	Cu	-0.894800	0.355606	0.470075
Cu35	Cu	-0.644800	0.605606	0.720075
Cu36	Cu	-0.394800	0.855606	0.970075
O37	O	-1.137946	-0.089324	0.369442
O38	O	-0.887946	0.160676	0.619442
O39	O	-0.637946	0.410676	0.869442
O40	O	-0.387946	0.660676	1.119442
C41	C	-0.964876	-0.000017	0.218257
C42	C	-0.714876	0.249983	0.468257
C43	C	-0.464876	0.499983	0.718257
C44	C	-0.214876	0.749983	0.968257
C45	C	-0.858733	-0.000013	0.207409
C46	C	-0.608733	0.249987	0.457409
C47	C	-0.358733	0.499987	0.707409
C48	C	-0.108733	0.749987	0.957409
C49	C	-0.613276	-0.000015	0.264508
C50	C	-0.363276	0.249985	0.514508
C51	C	-0.113276	0.499985	0.764508
C52	C	0.136724	0.749985	1.014508
C53	C	-0.664399	-0.000025	0.187592
C54	C	-0.414399	0.249975	0.437592
C55	C	-0.164399	0.499975	0.687592
C56	C	0.085601	0.749975	0.937592
C57	C	-0.772536	-0.000018	0.198621
C58	C	-0.522536	0.249982	0.448621
C59	C	-0.272536	0.499982	0.698621
C60	C	-0.022536	0.749982	0.948621
C61	C	-0.505128	-0.000021	0.253480
C62	C	-0.255128	0.249979	0.503480
C63	C	-0.005128	0.499979	0.753480
C64	C	0.244872	0.749979	1.003480
N65	N	-1.124482	-0.254247	0.240439
N66	N	-0.874482	-0.004247	0.490439
N67	N	-0.624482	0.245753	0.740439
N68	N	-0.374482	0.495753	0.990439
C69	C	-1.112148	-0.473360	0.252816
C70	C	-0.862148	-0.223360	0.502816
C71	C	-0.612148	0.026640	0.752816
C72	C	-0.362148	0.276640	1.002816
C73	C	-1.165524	-0.526698	0.199284
C74	C	-0.915524	-0.276698	0.449284
C75	C	-0.665524	-0.026698	0.699284
C76	C	-0.415524	0.223302	0.949284
C77	C	-1.158661	-0.648620	0.206171
C78	C	-0.908661	-0.398620	0.456171
C79	C	-0.658661	-0.148620	0.706171
C80	C	-0.408661	0.101380	0.956171
C81	C	-1.119010	-0.351427	0.245930
C82	C	-0.869010	-0.101427	0.495930
C83	C	-0.619010	0.148573	0.745930
C84	C	-0.369010	0.398573	0.995930
C85	C	-0.312792	-0.000031	0.233845
C86	C	-0.062792	0.249969	0.483845
C87	C	0.187208	0.499969	0.733845
C88	C	0.437208	0.749969	0.983845
C89	C	-0.418936	-0.000026	0.244687
C90	C	-0.168936	0.249974	0.494687
C91	C	0.081064	0.499974	0.744687
C92	C	0.331064	0.749974	0.994687
C93	C	-1.131039	-0.000049	0.052095
C94	C	-0.881039	0.249951	0.302095
C95	C	-0.631039	0.499951	0.552095
C96	C	-0.381039	0.749951	0.802095
C97	C	-1.120192	-0.000058	-0.054048
C98	C	-0.870192	0.249942	0.195952
C99	C	-0.620192	0.499942	0.445952
C100	C	-0.370192	0.749942	0.695952
N101	N	-1.153192	0.254196	0.211659
N102	N	-0.903192	0.504196	0.461659
N103	N	-0.653192	0.754196	0.711659
N104	N	-0.403192	1.004196	0.961659
C105	C	-1.177294	-0.000019	-0.299507
C106	C	-0.927294	0.249981	-0.049507
C107	C	-0.677294	0.499981	0.200493
C108	C	-0.427294	0.749981	0.450493
C109	C	-1.100378	-0.000022	-0.248384
C110	C	-0.850378	0.249978	0.001616
C111	C	-0.600378	0.499978	0.251616
C112	C	-0.350378	0.749978	0.501616
C113	C	-1.111405	-0.000042	-0.140245
C114	C	-0.861405	0.249958	0.109755
C115	C	-0.611405	0.499958	0.359755
C116	C	-0.361405	0.749958	0.609755
C117	C	-1.166269	0.000001	-0.407655
C118	C	-0.916269	0.250001	-0.157655
C119	C	-0.666269	0.500001	0.092345
C120	C	-0.416269	0.750001	0.342345
C121	C	-1.146628	0.000001	0.400009
C122	C	-0.896628	0.250001	0.650009
C123	C	-0.646628	0.500001	0.900009
C124	C	-0.396628	0.750001	1.150009
C125	C	-1.157476	0.000017	0.506152
C126	C	-0.907476	0.250017	0.756152
C127	C	-0.657476	0.500017	1.006152
C128	C	-0.407476	0.750017	1.256152
H129	H	-0.650719	-0.000000	0.338634
H130	H	-0.400719	0.250000	0.588634
H131	H	-0.150719	0.500000	0.838634
H132	H	0.099281	0.750000	1.088634
Br133	Br	-0.601991	-0.000046	0.064032
Br134	Br	-0.351991	0.249954	0.314032
Br135	Br	-0.101991	0.499954	0.564032
Br136	Br	0.148009	0.749954	0.814032
H137	H	-1.026245	-0.000013	-0.285830
H138	H	-0.776245	0.249987	-0.035830
H139	H	-0.526245	0.499987	0.214170
H140	H	-0.276245	0.749987	0.464170
Br141	Br	-1.250717	-0.450198	0.114714
Br142	Br	-1.000717	-0.200198	0.364714
Br143	Br	-0.750717	0.049802	0.614714
Br144	Br	-0.500717	0.299802	0.864714
Br145	Br	-1.027397	-0.549860	0.337821
Br146	Br	-0.777397	-0.299860	0.587821
Br147	Br	-0.527397	-0.049860	0.837821
Br148	Br	-0.277397	0.200140	1.087821
H149	H	-1.251420	-0.000033	-0.262062
H150	H	-1.001420	0.249967	-0.012062
H151	H	-0.751420	0.499967	0.237938
H152	H	-0.501420	0.749967	0.487938
