data_functionalizedCrystal
_audit_creation_method	'MofGen! by Chris Wilmer'
_symmetry_space_group_name_H-M	'P1'
_symmetry_Int_Tables_number	1
_symmetry_cell_setting	triclinic
loop_
_symmetry_equiv_pos_as_xyz
  x,y,z
_cell_length_a	10.654545
_cell_length_b	8.597304
_cell_length_c	9.730223
_cell_angle_alpha	82.295717
_cell_angle_beta	89.997167
_cell_angle_gamma	84.908900
loop_
_atom_site_label
_atom_site_type_symbol
_atom_site_fract_x
_atom_site_fract_y
_atom_site_fract_z
O1	O	1.669013	0.220431	-0.140372
O2	O	1.303645	0.241442	-0.142865
O3	O	1.493519	0.002547	-0.114572
O4	O	1.479139	0.459326	-0.168665
O5	O	1.493507	0.002541	0.114009
O6	O	1.303633	0.241436	0.085716
O7	O	1.669001	0.220424	0.088209
Zn8	Zn	1.486315	0.230929	0.123254
Zn9	Zn	1.486331	0.230937	-0.177911
O10	O	1.479127	0.459319	0.059915
C11	C	1.256833	0.239898	-0.028393
C12	C	1.117365	0.235286	-0.027849
C13	C	1.051842	0.233112	0.097008
C14	C	0.920799	0.228753	0.097524
C15	C	0.920814	0.228750	-0.151686
C16	C	1.051855	0.233097	-0.152199
C17	C	1.491969	-0.055944	0.006642
C18	C	1.487351	-0.230222	0.027272
C19	C	1.715813	0.221969	-0.026266
C20	C	1.855281	0.226580	-0.026819
C21	C	1.480678	0.517811	-0.061302
C22	C	1.485295	0.692088	-0.081940
N23	N	1.486313	0.230922	0.328792
N24	N	1.486343	0.230932	-0.383446
C25	C	1.570418	0.125184	0.413241
C26	C	1.570431	0.125185	0.557123
C27	C	1.402228	0.336675	0.532094
C28	C	1.402211	0.336665	0.388215
H29	H	0.867459	0.226969	-0.252927
H30	H	1.638898	0.039080	0.364863
C31	C	1.662952	0.008880	0.650011
H32	H	1.713040	-0.054086	0.594008
H33	H	1.616987	-0.056990	0.713953
H34	H	1.715931	0.065970	0.699361
H35	H	1.333756	0.422771	0.580491
C36	C	1.487704	-0.217665	-0.229588
H37	H	1.490612	-0.108445	-0.224559
H38	H	1.413951	-0.233247	-0.278978
H39	H	1.560059	-0.255609	-0.276312
C40	C	0.848729	0.226372	0.234866
H41	H	0.906515	0.228310	0.308844
H42	H	0.806070	0.133304	0.251078
H43	H	0.789148	0.316060	0.229416
H44	H	1.485564	-0.297040	0.136572
H45	H	1.333716	0.422770	0.319451
C46	C	1.123904	0.235474	0.233792
H47	H	1.066110	0.233531	0.308228
H48	H	1.166573	0.328532	0.227972
H49	H	1.183474	0.145776	0.249577
C50	C	1.123934	0.235495	-0.289549
H51	H	1.066151	0.233592	-0.363537
H52	H	1.183516	0.145820	-0.284106
H53	H	1.166590	0.328576	-0.305748
