data_functionalizedCrystal
_audit_creation_method	'MofGen! by Chris Wilmer'
_symmetry_space_group_name_H-M	'P1'
_symmetry_Int_Tables_number	1
_symmetry_cell_setting	triclinic
loop_
_symmetry_equiv_pos_as_xyz
  x,y,z
_cell_length_a	14.853566
_cell_length_b	14.044220
_cell_length_c	13.930277
_cell_angle_alpha	89.994760
_cell_angle_beta	89.995631
_cell_angle_gamma	88.411646
loop_
_atom_site_label
_atom_site_type_symbol
_atom_site_fract_x
_atom_site_fract_y
_atom_site_fract_z
O1	O	1.206174	0.123761	-0.079770
O2	O	1.706174	0.623761	0.420230
O3	O	0.944883	0.138506	-0.079786
O4	O	1.444883	0.638506	0.420214
O5	O	1.071607	-0.006856	-0.079768
O6	O	1.571607	0.493144	0.420232
O7	O	1.079451	0.269123	-0.079787
O8	O	1.579451	0.769123	0.420213
O9	O	1.071587	-0.006859	0.079893
O10	O	1.571587	0.493141	0.579893
O11	O	0.944864	0.138503	0.079876
O12	O	1.444864	0.638503	0.579876
O13	O	1.206155	0.123758	0.079892
O14	O	1.706155	0.623758	0.579892
Zn15	Zn	1.075506	0.131130	0.105234
Zn16	Zn	1.575506	0.631130	0.605234
Zn17	Zn	1.075532	0.131134	-0.105127
Zn18	Zn	1.575532	0.631134	0.394873
O19	O	1.079431	0.269120	0.079875
O20	O	1.579431	0.769120	0.579875
C21	C	0.911232	0.137836	0.000043
C22	C	1.411232	0.637836	0.500043
C23	C	0.810989	0.135835	0.000037
C24	C	1.310989	0.635835	0.500037
C25	C	0.387144	0.127371	-0.086977
C26	C	0.887144	0.627371	0.413023
C27	C	0.387145	0.127369	0.087093
C28	C	0.887145	0.627369	0.587093
C29	C	0.481328	0.129248	0.087089
C30	C	0.981328	0.629248	0.587089
C31	C	0.528423	0.130191	0.000052
C32	C	1.028423	0.630191	0.500052
C33	C	0.481336	0.129254	-0.086983
C34	C	0.981336	0.629254	0.413017
C35	C	0.528421	0.130195	0.174122
C36	C	1.028421	0.630195	0.674122
C37	C	0.622610	0.132075	0.174123
C38	C	1.122610	0.632075	0.674123
C39	C	0.669708	0.133011	0.087084
C40	C	1.169708	0.633011	0.587084
C41	C	0.622615	0.132073	0.000046
C42	C	1.122615	0.632073	0.500046
C43	C	0.669710	0.133016	-0.086992
C44	C	1.169710	0.633016	0.413008
C45	C	0.622619	0.132071	-0.174031
C46	C	1.122619	0.632071	0.325969
C47	C	0.528434	0.130190	-0.174021
C48	C	1.028434	0.630190	0.325979
C49	C	0.763894	0.134892	0.087075
C50	C	1.263894	0.634892	0.587075
C51	C	0.763902	0.134898	-0.086997
C52	C	1.263902	0.634898	0.413003
C53	C	1.068163	-0.042177	0.000063
C54	C	1.568163	0.457823	0.500063
C55	C	1.057922	-0.147416	0.000063
C56	C	1.557922	0.352584	0.500063
C57	C	1.039198	-0.340102	0.000048
C58	C	1.539198	0.159898	0.500048
C59	C	1.111836	-0.397640	0.000050
C60	C	1.611836	0.102360	0.500050
C61	C	1.101418	-0.504857	0.000041
C62	C	1.601418	-0.004857	0.500041
C63	C	1.049615	-0.232875	0.000057
C64	C	1.549615	0.267125	0.500057
C65	C	1.239806	0.124427	0.000061
C66	C	1.739806	0.624427	0.500061
C67	C	1.340049	0.126429	0.000061
C68	C	1.840049	0.626429	0.500061
C69	C	1.082875	0.304441	0.000042
C70	C	1.582875	0.804441	0.500042
C71	C	1.093116	0.409680	0.000035
C72	C	1.593116	0.909680	0.500035
N73	N	1.075495	0.131126	0.248800
N74	N	1.575495	0.631126	0.748800
N75	N	1.075549	0.131130	-0.248694
N76	N	1.575549	0.631130	0.251306
C77	C	1.019414	0.195475	0.701062
C78	C	1.519414	0.695475	1.201062
C79	C	1.131674	0.066786	0.701046
C80	C	1.631674	0.566786	1.201046
C81	C	1.131663	0.066783	0.600551
C82	C	1.631663	0.566783	1.100551
C83	C	1.075528	0.131128	0.550306
C84	C	1.575528	0.631128	1.050306
C85	C	1.019403	0.195476	0.600557
C86	C	1.519403	0.695476	1.100557
C87	C	1.187793	0.002442	0.550292
C88	C	1.687793	0.502442	1.050292
C89	C	1.187785	0.002437	0.449790
C90	C	1.687785	0.502437	0.949790
C91	C	1.131644	0.066779	0.399544
C92	C	1.631644	0.566779	0.899544
C93	C	1.075517	0.131129	0.449801
C94	C	1.575517	0.631129	0.949801
C95	C	1.019382	0.195474	0.399556
C96	C	1.519382	0.695474	0.899556
C97	C	0.963249	0.259820	0.449811
C98	C	1.463249	0.759820	0.949811
C99	C	0.963263	0.259817	0.550310
C100	C	1.463263	0.759817	1.050310
C101	C	1.131630	0.066781	0.299045
C102	C	1.631630	0.566781	0.799045
C103	C	1.019371	0.195475	0.299051
C104	C	1.519371	0.695475	0.799051
H105	H	0.660944	0.132843	0.244995
H106	H	1.160944	0.632843	0.744995
H107	H	0.973709	0.247863	0.741982
H108	H	1.473709	0.747863	1.241982
H109	H	0.660977	0.132845	-0.244897
H110	H	1.160977	0.632845	0.255103
H111	H	0.969191	-0.371363	0.000042
H112	H	1.469191	0.128637	0.500042
H113	H	0.802231	0.135671	0.157941
H114	H	1.302231	0.635671	0.657941
H115	H	0.973655	0.247869	0.258147
H116	H	1.473655	0.747869	0.758147
H117	H	1.181849	-0.366377	-0.000010
H118	H	1.681849	0.133623	0.499990
N119	N	0.902710	0.329225	0.395615
N120	N	1.402710	0.829225	0.895615
H121	H	0.911228	0.319459	0.324325
H122	H	1.411228	0.819459	0.824325
H123	H	0.837867	0.318148	0.413186
H124	H	1.337867	0.818148	0.913186
H125	H	1.177337	0.014396	0.258132
H126	H	1.677337	0.514396	0.758132
H127	H	1.177382	0.014402	0.741959
H128	H	1.677382	0.514402	1.241959
N129	N	0.477638	0.129176	0.267999
N130	N	0.977638	0.629176	0.767999
H131	H	0.492394	0.187576	0.306609
H132	H	0.992394	0.687576	0.806609
H133	H	0.410795	0.129111	0.254730
H134	H	0.910795	0.629111	0.754730
H135	H	0.917563	0.312207	0.591234
H136	H	1.417563	0.812207	1.091234
N137	N	0.336358	0.126362	-0.180850
N138	N	0.836358	0.626362	0.319150
H139	H	0.380488	0.127247	-0.235985
H140	H	0.880488	0.627247	0.264015
H141	H	0.299869	0.066859	-0.184638
H142	H	0.799869	0.566859	0.315362
H143	H	1.233501	-0.049942	0.591205
H144	H	1.733501	0.450058	1.091205
H145	H	1.233489	-0.049958	0.408879
H146	H	1.733489	0.450042	0.908879
H147	H	0.490084	0.129419	-0.244884
H148	H	0.990084	0.629419	0.255116
N149	N	0.814689	0.135906	-0.180880
N150	N	1.314689	0.635906	0.319120
H151	H	0.795709	0.194295	-0.218937
H152	H	1.295709	0.694295	0.281063
H153	H	0.881487	0.137207	-0.167604
H154	H	1.381487	0.637207	0.332396
N155	N	0.336355	0.126363	0.180965
N156	N	0.836355	0.626363	0.680965
H157	H	0.269495	0.126326	0.167769
H158	H	0.769495	0.626326	0.667769
H159	H	0.354506	0.067313	0.218407
H160	H	0.854506	0.567313	0.718407
