data_functionalizedCrystal
_audit_creation_method	'MofGen! by Chris Wilmer'
_symmetry_space_group_name_H-M	'P1'
_symmetry_Int_Tables_number	1
_symmetry_cell_setting	triclinic
loop_
_symmetry_equiv_pos_as_xyz
  x,y,z
_cell_length_a	23.532407
_cell_length_b	10.654550
_cell_length_c	9.730223
_cell_angle_alpha	90.004253
_cell_angle_beta	89.997949
_cell_angle_gamma	83.666804
loop_
_atom_site_label
_atom_site_type_symbol
_atom_site_fract_x
_atom_site_fract_y
_atom_site_fract_z
O1	O	-0.756252	-0.152438	-0.114118
O2	O	-0.590532	-0.174495	-0.114158
O3	O	-0.677202	0.019394	-0.114129
O4	O	-0.669582	-0.346326	-0.114148
O5	O	-0.677196	0.019399	0.114451
O6	O	-0.590526	-0.174490	0.114422
O7	O	-0.756246	-0.152433	0.114462
Zn8	Zn	-0.673385	-0.163461	0.150734
Zn9	Zn	-0.673393	-0.163467	-0.150430
O10	O	-0.669576	-0.346321	0.114432
C11	C	-0.569310	-0.173931	0.000126
C12	C	-0.506082	-0.172242	0.000111
C13	C	-0.676640	0.066176	0.000160
C14	C	-0.674966	0.205567	0.000158
C15	C	-0.777469	-0.152997	0.000174
C16	C	-0.840697	-0.154686	0.000180
C17	C	-0.107657	-0.276389	0.000168
C18	C	-0.048247	-0.274820	0.000177
O19	O	-0.012131	-0.371366	0.000221
N20	N	-0.024869	-0.159554	0.000180
C21	C	-0.060906	-0.045849	0.000190
O22	O	-0.035567	0.052339	0.000195
C23	C	-0.120315	-0.047419	0.000191
C24	C	-0.143689	-0.162693	0.000173
C25	C	-0.131031	-0.391654	0.000152
C26	C	-0.190438	-0.393222	0.000141
C27	C	-0.226470	-0.279525	0.000146
C28	C	-0.203095	-0.164261	0.000162
C29	C	-0.156351	0.066285	0.000210
C30	C	-0.215764	0.064705	0.000212
C31	C	-0.239138	-0.050569	0.000195
C32	C	-0.298534	-0.052133	0.000156
N33	N	-0.321911	-0.167399	0.000152
C34	C	-0.285879	-0.281095	0.000147
C35	C	0.063858	-0.042560	0.000189
C36	C	0.123266	-0.040989	0.000178
C37	C	0.135922	-0.269961	0.000168
C38	C	0.076512	-0.271531	0.000169
C39	C	0.040481	-0.157827	0.000185
C40	C	-0.410637	-0.284380	0.000123
C41	C	-0.470049	-0.285938	0.000106
C42	C	-0.482700	-0.056967	0.000124
C43	C	-0.423293	-0.055408	0.000133
C44	C	-0.387262	-0.169125	0.000138
O45	O	-0.334684	0.044362	0.000117
O46	O	-0.311227	-0.379267	0.000160
C47	C	-0.670138	-0.393104	0.000140
C48	C	-0.671812	-0.532494	0.000133
N49	N	-0.673384	-0.163455	0.356270
C50	C	-0.725996	0.286669	0.000170
C51	C	-0.724419	0.417640	0.000153
C52	C	-0.620779	0.386393	0.000117
C53	C	-0.622356	0.255425	0.000125
N54	N	-0.673398	-0.163463	-0.355967
C55	C	-0.711775	-0.077637	0.428209
C56	C	-0.711781	-0.077637	0.572092
C57	C	-0.635003	-0.249285	0.572084
C58	C	-0.634995	-0.249278	0.428204
H59	H	-0.489077	-0.379812	0.000091
H60	H	-0.580798	0.189387	0.000111
F61	F	-0.254108	0.185729	0.000233
H62	H	-0.743041	-0.007755	0.630661
F63	F	-0.215306	-0.515913	0.000129
H64	H	-0.603730	-0.319162	0.369627
H65	H	-0.768834	0.246079	0.000194
F66	F	-0.778733	0.503950	0.000162
F67	F	-0.594150	-0.340622	0.648651
H68	H	-0.577945	0.427004	0.000093
F69	F	0.174280	-0.390968	0.000168
H70	H	-0.381308	-0.376980	0.000131
H71	H	-0.743033	-0.007753	0.369644
H72	H	-0.137331	0.160153	0.000225
H73	H	-0.512048	0.035602	0.000123
F74	F	0.051642	-0.394220	0.000153
F75	F	0.148135	0.081701	0.000166
F76	F	-0.092691	-0.512676	0.000146
F77	F	-0.398416	0.067279	0.000153
F78	F	0.025515	0.078468	0.000194
