data_functionalizedCrystal
_audit_creation_method	'MofGen! by Chris Wilmer'
_symmetry_space_group_name_H-M	'P1'
_symmetry_Int_Tables_number	1
_symmetry_cell_setting	triclinic
loop_
_symmetry_equiv_pos_as_xyz
  x,y,z
_cell_length_a	19.121215
_cell_length_b	19.121449
_cell_length_c	16.625539
_cell_angle_alpha	92.469138
_cell_angle_beta	92.466418
_cell_angle_gamma	89.914638
loop_
_atom_site_label
_atom_site_type_symbol
_atom_site_fract_x
_atom_site_fract_y
_atom_site_fract_z
Zn1	Zn	1.083720	-0.233485	0.497694
Zn2	Zn	1.583720	0.266515	0.997694
Zn3	Zn	1.088629	-0.350731	0.357361
Zn4	Zn	1.588629	0.149269	0.857361
Zn5	Zn	0.966478	-0.238499	0.356872
Zn6	Zn	1.466478	0.261501	0.856872
Zn7	Zn	0.971442	-0.355676	0.486154
Zn8	Zn	1.471442	0.144324	0.986154
O9	O	1.027567	-0.294598	0.424520
O10	O	1.527567	0.205402	0.924520
O11	O	1.182481	-0.244870	0.484113
O12	O	1.682481	0.255130	0.984113
O13	O	1.072402	-0.335873	0.244461
O14	O	1.572402	0.164127	0.744461
O15	O	0.977898	-0.139727	0.380176
O16	O	1.477898	0.360273	0.880176
O17	O	1.186088	-0.331010	0.381011
O18	O	1.686088	0.168990	0.881011
O19	O	1.064035	-0.136043	0.483638
O20	O	1.564035	0.363957	0.983638
O21	O	0.982658	-0.253416	0.244101
O22	O	1.482658	0.246584	0.744101
O23	O	0.869026	-0.258211	0.368987
O24	O	1.369026	0.241789	0.868987
O25	O	0.986360	-0.339438	0.600520
O26	O	1.486360	0.160562	1.100520
O27	O	0.872674	-0.344301	0.463971
O28	O	1.372674	0.155699	0.963971
O29	O	1.068850	-0.249665	0.608998
O30	O	1.568850	0.250335	1.108998
O31	O	1.077217	-0.449494	0.369822
O32	O	1.577217	0.050506	0.869822
O33	O	0.991120	-0.453128	0.464445
O34	O	1.491120	0.046872	0.964445
C35	C	0.845412	-0.302337	0.415174
C36	C	1.345412	0.197663	0.915174
C37	C	0.767485	-0.305665	0.411194
C38	C	1.267485	0.194335	0.911194
C39	C	1.035259	-0.476748	0.415953
C40	C	1.535259	0.023252	0.915953
C41	C	1.038613	-0.554670	0.412318
C42	C	1.538613	-0.054670	0.912318
C43	C	0.326843	-0.326732	0.386013
C44	C	0.826843	0.173268	0.886013
C45	C	0.400063	-0.323601	0.389747
C46	C	0.900063	0.176399	0.889747
C47	C	0.434800	-0.277260	0.445374
C48	C	0.934800	0.222740	0.945374
C49	C	0.396313	-0.234042	0.497265
C50	C	0.896313	0.265958	0.997265
C51	C	0.323095	-0.237170	0.493527
C52	C	0.823095	0.262830	0.993527
C53	C	0.655780	-0.265574	0.459347
C54	C	1.155780	0.234426	0.959347
C55	C	0.729004	-0.262451	0.463083
C56	C	1.229004	0.237549	0.963083
C57	C	0.732748	-0.352010	0.355563
C58	C	1.232748	0.147990	0.855563
C59	C	0.659528	-0.355136	0.351833
C60	C	1.159528	0.144864	0.851833
C61	C	0.621047	-0.311915	0.403721
C62	C	1.121047	0.188085	0.903721
C63	C	0.509643	-0.274061	0.449194
C64	C	1.009643	0.225939	0.949194
C65	C	0.546206	-0.315112	0.399897
C66	C	1.046206	0.184888	0.899897
C67	C	0.995333	-0.593197	0.459832
C68	C	1.495333	-0.093197	0.959832
C69	C	0.998488	-0.666412	0.456413
C70	C	1.498488	-0.166412	0.956413
C71	C	1.044927	-0.701100	0.405485
C72	C	1.544927	-0.201100	0.905485
C73	C	1.088210	-0.662569	0.357966
C74	C	1.588210	-0.162569	0.857966
C75	C	1.085051	-0.589355	0.361381
C76	C	1.585051	-0.089355	0.861381
C77	C	1.056706	-0.922064	0.392708
C78	C	1.556706	-0.422064	0.892708
C79	C	1.059864	-0.995284	0.389299
C80	C	1.559864	-0.495284	0.889299
C81	C	0.970140	-0.999123	0.487746
C82	C	1.470140	-0.499123	0.987746
C83	C	0.966988	-0.925906	0.491159
C84	C	1.466988	-0.425906	0.991159
C85	C	1.010268	-0.887381	0.443637
C86	C	1.510268	-0.387381	0.943637
C87	C	1.048155	-0.775939	0.401991
C88	C	1.548155	-0.275939	0.901991
C89	C	1.007036	-0.812545	0.447127
C90	C	1.507036	-0.312545	0.947127
C91	C	1.210435	-0.286829	0.433904
C92	C	1.710435	0.213171	0.933904
C93	C	1.288362	-0.283518	0.437902
C94	C	1.788362	0.216482	0.937902
C95	C	1.027611	-0.294544	0.634834
C96	C	1.527611	0.205456	1.134834
C97	C	1.027629	-0.294521	0.724457
C98	C	1.527629	0.205479	1.224457
C99	C	1.019865	-0.111735	0.433140
C100	C	1.519865	0.388265	0.933140
C101	C	1.016583	-0.033810	0.436813
C102	C	1.516583	0.466190	0.936813
C103	C	1.027562	-0.294600	0.215029
C104	C	1.527562	0.205400	0.715029
C105	C	1.027671	-0.294419	0.125423
C106	C	1.527671	0.205581	0.625423
C107	C	1.027658	-0.294441	1.052638
C108	C	1.527658	0.205559	1.552638
C109	C	1.027648	-0.294465	0.961328
C110	C	1.527648	0.205535	1.461328
C111	C	1.027644	-0.294481	0.888551
C112	C	1.527644	0.205519	1.388551
C113	C	1.027633	-0.294505	0.797235
C114	C	1.527633	0.205495	1.297235
H115	H	0.298566	-0.364471	0.340719
H116	H	0.798566	0.135529	0.840719
C117	C	1.132656	-0.546972	0.309115
C118	C	1.632656	-0.046972	0.809115
H119	H	1.124118	-0.498401	0.318435
H120	H	1.624118	0.001599	0.818435
H121	H	1.180273	-0.556912	0.322813
H122	H	1.680273	-0.056912	0.822813
H123	H	1.122932	-0.559451	0.253842
H124	H	1.622932	-0.059451	0.753842
C125	C	0.547853	-0.223094	0.510388
C126	C	1.047853	0.276906	1.010388
H127	H	0.514451	-0.197802	0.540759
H128	H	1.014451	0.302198	1.040759
H129	H	0.577570	-0.248737	0.545657
H130	H	1.077570	0.251263	1.045657
H131	H	0.575107	-0.191289	0.482496
H132	H	1.075107	0.308711	0.982496
H133	H	0.764087	-0.387197	0.313318
H134	H	1.264087	0.112803	0.813318
C135	C	0.434519	-0.183068	0.558456
C136	C	0.934519	0.316932	1.058456
H137	H	0.401112	-0.157776	0.588819
H138	H	0.901112	0.342224	1.088819
H139	H	0.464233	-0.208707	0.593731
H140	H	0.964233	0.291293	1.093731
H141	H	0.461774	-0.151264	0.530564
H142	H	0.961774	0.348736	1.030564
C143	C	1.099240	-0.814095	0.345976
C144	C	1.599240	-0.314095	0.845976
H145	H	1.124566	-0.780666	0.318162
H146	H	1.624566	-0.280666	0.818162
H147	H	1.130998	-0.841312	0.377086
H148	H	1.630998	-0.341312	0.877086
H149	H	1.073665	-0.843840	0.308106
H150	H	1.573665	-0.343840	0.808106
C151	C	0.767214	-0.211474	0.524275
C152	C	1.267214	0.288526	1.024275
H153	H	0.733810	-0.186177	0.554638
H154	H	1.233810	0.313823	1.054638
H155	H	0.796926	-0.237114	0.559550
H156	H	1.296926	0.262886	1.059550
H157	H	0.794470	-0.179674	0.496380
H158	H	1.294470	0.320326	0.996380
H159	H	0.624458	-0.230384	0.501602
H160	H	1.124458	0.269616	1.001602
C161	C	0.442390	-0.371136	0.332669
C162	C	0.942390	0.128864	0.832669
H163	H	0.411215	-0.399188	0.299011
H164	H	0.911215	0.100812	0.799011
H165	H	0.469798	-0.343058	0.300308
H166	H	0.969798	0.156942	0.800308
H167	H	0.472262	-0.400499	0.363478
H168	H	0.972262	0.099501	0.863478
H169	H	0.957520	-0.564958	0.501307
H170	H	1.457520	-0.064958	1.001307
H171	H	0.631250	-0.392871	0.306535
H172	H	1.131250	0.107129	0.806535
C173	C	0.922532	-1.041498	0.540012
C174	C	1.422532	-0.541498	1.040012
H175	H	0.894426	-1.010353	0.570836
H176	H	1.394426	-0.510353	1.070836
H177	H	0.893234	-1.071407	0.506242
H178	H	1.393234	-0.571407	1.006242
H179	H	0.950569	-1.068870	0.575220
H180	H	1.450569	-0.568870	1.075220
C181	C	0.950881	-0.708788	0.508682
C182	C	1.450881	-0.208788	1.008682
H183	H	0.922778	-0.677643	0.539509
H184	H	1.422778	-0.177643	1.039509
H185	H	0.921580	-0.738695	0.474912
H186	H	1.421580	-0.238695	0.974912
H187	H	0.978919	-0.736162	0.543885
H188	H	1.478919	-0.236162	1.043885
H189	H	0.969222	-0.784300	0.488590
H190	H	1.469222	-0.284300	0.988590
C191	C	1.110954	-1.033443	0.333284
C192	C	1.610954	-0.533443	0.833284
H193	H	1.106643	-1.082564	0.338068
H194	H	1.606643	-0.582564	0.838068
H195	H	1.100211	-1.021930	0.279127
H196	H	1.600211	-0.521930	0.779127
H197	H	1.157535	-1.019383	0.348117
H198	H	1.657535	-0.519383	0.848117
C199	C	0.280765	-0.189640	0.550610
C200	C	0.780765	0.310360	1.050610
H201	H	0.311939	-0.161598	0.584281
H202	H	0.811939	0.338402	1.084281
H203	H	0.250893	-0.160278	0.519807
H204	H	0.750893	0.339722	1.019807
H205	H	0.253357	-0.217724	0.582970
H206	H	0.753357	0.282276	1.082970
H207	H	0.517920	-0.352840	0.354604
H208	H	1.017920	0.147160	0.854604
C209	C	0.915894	-0.887755	0.547168
C210	C	1.415894	-0.387755	1.047168
H211	H	0.890562	-0.921187	0.574969
H212	H	1.390562	-0.421187	1.074969
H213	H	0.941454	-0.858003	0.585036
H214	H	1.441454	-0.358003	1.085036
H215	H	0.884132	-0.860546	0.516044
H216	H	1.384132	-0.360546	1.016044
H217	H	1.091948	-0.890703	0.354016
H218	H	1.591948	-0.390703	0.854016
H219	H	1.126019	-0.690818	0.316495
H220	H	1.626019	-0.190818	0.816495
