data_functionalizedCrystal
_audit_creation_method	'MofGen! by Chris Wilmer'
_symmetry_space_group_name_H-M	'P1'
_symmetry_Int_Tables_number	1
_symmetry_cell_setting	triclinic
loop_
_symmetry_equiv_pos_as_xyz
  x,y,z
_cell_length_a	13.897449
_cell_length_b	12.645330
_cell_length_c	12.645318
_cell_angle_alpha	89.942319
_cell_angle_beta	89.958403
_cell_angle_gamma	90.018972
loop_
_atom_site_label
_atom_site_type_symbol
_atom_site_fract_x
_atom_site_fract_y
_atom_site_fract_z
Zn1	Zn	1.474901	-0.421651	-0.599409
Zn2	Zn	1.974901	0.078349	-0.099409
Zn3	Zn	1.474737	-0.599041	-0.422149
Zn4	Zn	1.974737	-0.099041	0.077851
Zn5	Zn	1.313532	-0.421796	-0.422157
Zn6	Zn	1.813532	0.078204	0.077843
Zn7	Zn	1.313572	-0.598877	-0.599368
Zn8	Zn	1.813572	-0.098877	-0.099368
O9	O	1.394185	-0.510341	-0.510771
O10	O	1.894185	-0.010341	-0.010771
O11	O	1.609861	-0.445191	-0.575908
O12	O	2.109861	0.054809	-0.075908
O13	O	1.453266	-0.575658	-0.273802
O14	O	1.953266	-0.075658	0.226198
O15	O	1.334990	-0.273429	-0.445690
O16	O	1.834990	0.226571	0.054310
O17	O	1.609740	-0.575518	-0.445676
O18	O	2.109740	-0.075518	0.054324
O19	O	1.453547	-0.273323	-0.575916
O20	O	1.953547	0.226677	-0.075916
O21	O	1.334830	-0.445437	-0.273809
O22	O	1.834830	0.054563	0.226191
O23	O	1.178555	-0.445278	-0.445651
O24	O	1.678555	0.054722	0.054349
O25	O	1.335059	-0.575239	-0.747721
O26	O	1.835059	-0.075239	-0.247721
O27	O	1.178585	-0.575379	-0.575848
O28	O	1.678585	-0.075379	-0.075848
O29	O	1.453587	-0.445032	-0.747751
O30	O	1.953587	0.054968	-0.247751
O31	O	1.453306	-0.747367	-0.445637
O32	O	1.953306	-0.247367	0.054363
O33	O	1.334899	-0.747246	-0.575839
O34	O	1.834899	-0.247246	-0.075839
C35	C	1.143571	-0.510327	-0.510747
C36	C	1.643571	-0.010327	-0.010747
C37	C	1.036357	-0.510347	-0.510761
C38	C	1.536357	-0.010347	-0.010761
C39	C	0.840062	-0.510350	-0.510789
C40	C	1.340062	-0.010350	-0.010789
C41	C	0.949295	-0.510345	-0.510771
C42	C	1.449295	-0.010345	-0.010771
C43	C	1.394115	-0.785771	-0.510756
C44	C	1.894115	-0.285771	-0.010756
C45	C	1.394173	-0.903601	-0.510785
C46	C	1.894173	-0.403601	-0.010785
C47	C	1.319991	-1.071133	-0.592948
C48	C	1.819991	-0.571133	-0.092948
C49	C	1.319611	-0.948574	-0.592684
C50	C	1.819611	-0.448574	-0.092684
C51	C	1.366617	-0.948260	-0.399064
C52	C	1.866617	-0.448260	0.100936
C53	C	1.366164	-1.070858	-0.399562
C54	C	1.866164	-0.570858	0.100438
C55	C	1.496365	-1.070672	-0.539437
C56	C	1.996365	-0.570672	-0.039437
C57	C	1.495740	-0.948063	-0.541880
C58	C	1.995740	-0.448063	-0.041880
C59	C	1.645778	-0.510356	-0.510796
C60	C	2.145778	-0.010356	-0.010796
C61	C	1.752992	-0.510363	-0.510806
C62	C	2.252992	-0.010363	-0.010806
C63	C	1.394346	-0.510101	-0.787276
C64	C	1.894346	-0.010101	-0.287276
C65	C	1.394414	-0.509999	-0.905107
C66	C	1.894414	-0.009999	-0.405107
C67	C	1.394282	-0.233836	-0.510809
C68	C	1.894282	0.266164	-0.010809
C69	C	1.394324	-0.116006	-0.510825
C70	C	1.894324	0.383994	-0.010825
C71	C	1.394081	-0.510504	-0.235341
C72	C	1.894081	-0.010504	0.264659
C73	C	1.394200	-0.510308	-0.117511
C74	C	1.894200	-0.010308	0.382489
C75	C	1.319191	-0.428910	-0.072695
C76	C	1.819191	0.071090	0.427305
C77	C	1.319024	-0.428976	0.049865
C78	C	1.819024	0.071024	0.549865
C79	C	1.367811	-0.622082	0.050731
C80	C	1.867811	-0.122082	0.550731
C81	C	1.367144	-0.621791	-0.071867
C82	C	1.867144	-0.121791	0.428133
C83	C	1.496051	-0.480532	-0.072613
C84	C	1.996051	0.019468	0.427387
C85	C	1.495613	-0.477893	0.049987
C86	C	1.995613	0.022107	0.549987
H87	H	1.336856	-0.918372	-0.675525
H88	H	1.836856	-0.418372	-0.175525
H89	H	1.551746	-1.099692	-0.479624
H90	H	2.051746	-0.599692	0.020376
H91	H	1.554476	-0.532672	0.080622
H92	H	2.054476	-0.032672	0.580622
H93	H	1.515683	-0.395404	0.078813
H94	H	2.015683	0.104596	0.578813
H95	H	1.551930	-0.539797	-0.101599
H96	H	2.051930	-0.039797	0.398401
H97	H	1.244815	-1.102047	-0.574234
H98	H	1.744815	-0.602047	-0.074234
H99	H	1.337078	-1.100497	-0.676061
H100	H	1.837078	-0.600497	-0.176061
H101	H	1.243963	-0.919352	-0.573728
H102	H	1.743963	-0.419352	-0.073728
H103	H	1.291570	-1.099565	-0.375324
H104	H	1.791570	-0.599565	0.124676
H105	H	1.292727	-0.646873	-0.100242
H106	H	1.792727	-0.146873	0.399758
H107	H	1.520389	-0.400236	-0.103783
H108	H	2.020389	0.099764	0.396217
H109	H	1.419039	-0.919136	-0.336204
H110	H	1.919039	-0.419136	0.163796
H111	H	1.417953	-1.100550	-0.336288
H112	H	1.917953	-0.600550	0.163712
H113	H	1.516521	-0.918865	-0.624101
H114	H	2.016521	-0.418865	-0.124101
H115	H	1.335462	-0.345668	-0.102417
H116	H	1.835462	0.154332	0.397583
H117	H	1.554041	-0.917443	-0.486422
H118	H	2.054041	-0.417443	0.013578
H119	H	1.420861	-0.684330	0.079912
H120	H	1.920861	-0.184330	0.579912
H121	H	1.521495	-1.101469	-0.619520
H122	H	2.021495	-0.601469	-0.119520
H123	H	1.292800	-0.917665	-0.374387
H124	H	1.792800	-0.417665	0.125613
H125	H	1.244138	-0.448478	-0.103295
H126	H	1.744138	0.051522	0.396705
H127	H	1.335557	-0.345906	0.079709
H128	H	1.835557	0.154094	0.579709
H129	H	1.243604	-0.448695	0.079403
H130	H	1.743604	0.051305	0.579403
H131	H	1.294276	-0.647494	0.081654
H132	H	1.794276	-0.147494	0.581654
H133	H	1.419461	-0.684559	-0.101497
H134	H	1.919461	-0.184559	0.398503
