data_functionalizedCrystal
_audit_creation_method	'MofGen! by Chris Wilmer'
_symmetry_space_group_name_H-M	'P1'
_symmetry_Int_Tables_number	1
_symmetry_cell_setting	triclinic
loop_
_symmetry_equiv_pos_as_xyz
  x,y,z
_cell_length_a	14.044220
_cell_length_b	14.519709
_cell_length_c	13.596369
_cell_angle_alpha	90.006934
_cell_angle_beta	89.999747
_cell_angle_gamma	91.565489
loop_
_atom_site_label
_atom_site_type_symbol
_atom_site_fract_x
_atom_site_fract_y
_atom_site_fract_z
O1	O	1.258085	-0.222370	-0.081691
O2	O	1.758085	0.277630	0.418309
O3	O	0.982102	-0.214346	-0.081716
O4	O	1.482102	0.285654	0.418284
O5	O	1.127410	-0.084710	-0.081694
O6	O	1.627410	0.415290	0.418306
O7	O	1.112776	-0.352006	-0.081713
O8	O	1.612776	0.147994	0.418287
O9	O	1.127396	-0.084701	0.081889
O10	O	1.627396	0.415299	0.581889
O11	O	0.982087	-0.214337	0.081867
O12	O	1.482087	0.285663	0.581867
O13	O	1.258070	-0.222361	0.081892
O14	O	1.758070	0.277639	0.581892
Zn15	Zn	1.120076	-0.218348	0.107852
Zn16	Zn	1.620076	0.281652	0.607852
Zn17	Zn	1.120095	-0.218359	-0.107676
Zn18	Zn	1.620095	0.281641	0.392324
O19	O	1.112761	-0.351997	0.081870
O20	O	1.612761	0.148003	0.581870
C21	C	0.946774	-0.210829	0.000073
C22	C	1.446774	0.289171	0.500073
C23	C	0.841531	-0.200352	0.000064
C24	C	1.341531	0.299648	0.500064
C25	C	1.126721	-0.050290	0.000098
C26	C	1.626721	0.449710	0.500098
C27	C	1.124677	0.052256	0.000098
C28	C	1.624677	0.552256	0.500098
C29	C	1.113451	-0.386416	0.000076
C30	C	1.613451	0.113584	0.500076
C31	C	1.115494	-0.488963	0.000070
C32	C	1.615494	0.011037	0.500070
C33	C	0.648837	-0.181197	0.000084
C34	C	1.148837	0.318803	0.500084
C35	C	0.591329	-0.255505	0.000083
C36	C	1.091329	0.244495	0.500083
C37	C	0.484108	-0.244848	0.000095
C38	C	0.984108	0.255152	0.500095
C39	C	0.756068	-0.191854	0.000073
C40	C	1.256068	0.308146	0.500073
C41	C	1.293398	-0.225878	0.000101
C42	C	1.793398	0.274122	0.500101
C43	C	1.398641	-0.236355	0.000104
C44	C	1.898641	0.263645	0.500104
N45	N	1.120070	-0.218340	0.254944
N46	N	1.620070	0.281660	0.754944
C47	C	1.117153	0.427758	0.000072
C48	C	1.617153	0.927758	0.500072
C49	C	1.119243	0.323282	0.000079
C50	C	1.619243	0.823282	0.500079
C51	C	1.120915	0.240010	0.000086
C52	C	1.620915	0.740010	0.500086
C53	C	1.123005	0.135527	0.000092
C54	C	1.623005	0.635527	0.500092
N55	N	1.120109	-0.218360	-0.254767
N56	N	1.620109	0.281640	0.245233
C57	C	1.120094	-0.218360	0.656235
C58	C	1.620094	0.281640	1.156235
C59	C	1.120085	-0.218357	0.544583
C60	C	1.620085	0.281643	1.044583
C61	C	1.120083	-0.218351	0.455593
C62	C	1.620083	0.281649	0.955593
C63	C	1.120072	-0.218347	0.343934
C64	C	1.620072	0.281653	0.843934
H65	H	0.622622	-0.327127	0.000073
H66	H	1.122622	0.172873	0.500073
O67	O	0.611357	-0.095825	0.000045
O68	O	1.111357	0.404175	0.500045
C69	C	0.511093	-0.104057	0.000077
C70	C	1.011093	0.395943	0.500077
H71	H	0.488115	-0.174165	-0.030889
H72	H	0.988115	0.325835	0.469111
H73	H	0.483552	-0.097358	0.078558
H74	H	0.983552	0.402642	0.578558
C75	C	0.498033	0.058713	-0.026042
C76	C	0.998033	0.558713	0.473958
C77	C	0.469811	-0.027392	-0.064082
C78	C	0.969811	0.472608	0.435918
H79	H	0.472568	0.106005	-0.065614
H80	H	0.972568	0.606005	0.434386
H81	H	0.565583	0.064260	-0.026060
H82	H	1.065583	0.564260	0.473940
H83	H	0.475081	0.064283	0.039358
H84	H	0.975081	0.564283	0.539358
H85	H	0.492774	-0.032966	-0.129476
H86	H	0.992774	0.467034	0.370524
H87	H	0.402264	-0.032939	-0.064077
H88	H	0.902264	0.467061	0.435923
