data_functionalizedCrystal
_audit_creation_method	'MofGen! by Chris Wilmer'
_symmetry_space_group_name_H-M	'P1'
_symmetry_Int_Tables_number	1
_symmetry_cell_setting	triclinic
loop_
_symmetry_equiv_pos_as_xyz
  x,y,z
_cell_length_a	19.188930
_cell_length_b	13.339070
_cell_length_c	11.804402
_cell_angle_alpha	105.125353
_cell_angle_beta	101.785304
_cell_angle_gamma	80.612963
loop_
_atom_site_label
_atom_site_type_symbol
_atom_site_fract_x
_atom_site_fract_y
_atom_site_fract_z
O1	O	0.339586	-1.361238	-0.099122
O2	O	0.839586	-0.861238	0.400878
O3	O	0.293684	-1.066911	-0.099108
O4	O	0.793684	-0.566911	0.400892
O5	O	0.216645	-1.222563	-0.099092
O6	O	0.716645	-0.722563	0.400908
O7	O	0.416625	-1.205586	-0.099138
O8	O	0.916625	-0.705586	0.400862
O9	O	0.236898	-1.181585	0.098959
O10	O	0.736898	-0.681585	0.598959
O11	O	0.313937	-1.025932	0.098944
O12	O	0.813937	-0.525932	0.598944
O13	O	0.359839	-1.320259	0.098929
O14	O	0.859839	-0.820259	0.598929
Cu15	Cu	0.338738	-1.169354	0.117020
Cu16	Cu	0.838738	-0.669354	0.617020
Cu17	Cu	0.314786	-1.217816	-0.117199
Cu18	Cu	0.814786	-0.717816	0.382801
O19	O	0.436878	-1.164607	0.098914
O20	O	0.936878	-0.664607	0.598914
C21	C	0.200653	-1.201523	-0.000063
C22	C	0.700653	-0.701523	0.499937
C23	C	0.122826	-1.199870	-0.000053
C24	C	0.622826	-0.699870	0.499947
C25	C	0.296057	-1.008766	-0.000080
C26	C	0.796057	-0.508766	0.499920
C27	C	0.272945	-0.896565	-0.000074
C28	C	0.772945	-0.396565	0.499926
C29	C	0.357466	-1.378404	-0.000101
C30	C	0.857466	-0.878404	0.499899
C31	C	0.380578	-1.490607	-0.000115
C32	C	0.880578	-0.990607	0.499885
C33	C	0.095789	-1.291203	-0.000051
C34	C	0.595789	-0.791203	0.499949
C35	C	0.022659	-1.289655	-0.000070
C36	C	0.522659	-0.789655	0.499930
C37	C	-0.023428	-1.196765	-0.000067
C38	C	0.476572	-0.696765	0.499933
C39	C	0.003617	-1.105421	-0.000075
C40	C	0.503617	-0.605421	0.499925
C41	C	0.076744	-1.106973	-0.000068
C42	C	0.576744	-0.606973	0.499932
N43	N	-0.138445	-1.111815	0.067337
N44	N	0.361555	-0.611815	0.567337
N45	N	-0.207912	-1.110345	0.067333
N46	N	0.292088	-0.610345	0.567333
C47	C	-0.243757	-1.192082	-0.000091
C48	C	0.256243	-0.692082	0.499909
N49	N	-0.207508	-1.275355	-0.067495
N50	N	0.292492	-0.775355	0.432505
N51	N	-0.138034	-1.276826	-0.067486
N52	N	0.361966	-0.776826	0.432514
C53	C	-0.102723	-1.195071	-0.000075
C54	C	0.397277	-0.695071	0.499925
C55	C	-0.350090	-1.281744	-0.000112
C56	C	0.149910	-0.781744	0.499888
C57	C	-0.423222	-1.280194	-0.000138
C58	C	0.076778	-0.780194	0.499862
C59	C	-0.442262	-1.095954	-0.000131
C60	C	0.057738	-0.595954	0.499869
C61	C	-0.369132	-1.097509	-0.000116
C62	C	0.130868	-0.597509	0.499884
C63	C	-0.323050	-1.190405	-0.000101
C64	C	0.176950	-0.690405	0.499899
C65	C	0.452870	-1.185648	-0.000118
C66	C	0.952870	-0.685648	0.499882
C67	C	0.530696	-1.187303	-0.000136
C68	C	1.030696	-0.687303	0.499864
C69	C	0.452652	-0.530990	-0.000134
C70	C	0.952652	-0.030990	0.499866
C71	C	0.474369	-0.636408	-0.000143
C72	C	0.974369	-0.136408	0.499857
C73	C	0.424015	-0.701453	-0.000126
C74	C	0.924015	-0.201453	0.499874
C75	C	0.351940	-0.661068	-0.000099
C76	C	0.851940	-0.161068	0.499901
C77	C	0.330220	-0.555641	-0.000098
C78	C	0.830220	-0.055641	0.499902
C79	C	0.301582	-0.726104	-0.000090
C80	C	0.801582	-0.226104	0.499910
C81	C	0.229508	-0.685720	-0.000064
C82	C	0.729508	-0.185720	0.499936
C83	C	0.207791	-0.580303	-0.000062
C84	C	0.707791	-0.080303	0.499938
C85	C	0.258146	-0.515258	-0.000080
C86	C	0.758146	-0.015258	0.499920
C87	C	0.323302	-0.831531	-0.000091
C88	C	0.823302	-0.331531	0.499909
C89	C	0.200870	-0.856183	-0.000056
C90	C	0.700870	-0.356183	0.499944
C91	C	0.179154	-0.750764	-0.000046
C92	C	0.679154	-0.250764	0.499954
N93	N	0.355585	-1.135276	0.281757
N94	N	0.855585	-0.635276	0.781757
C95	C	0.257467	-1.333727	0.655726
C96	C	0.757467	-0.833727	1.155726
C97	C	0.244718	-1.359506	0.531067
C98	C	0.744718	-0.859506	1.031067
C99	C	0.272434	-1.303450	0.468734
C100	C	0.772434	-0.803450	0.968734
C101	C	0.312900	-1.221612	0.531071
C102	C	0.812900	-0.721612	1.031071
C103	C	0.325655	-1.195836	0.655743
C104	C	0.825655	-0.695836	1.155743
C105	C	0.340622	-1.165559	0.468750
C106	C	0.840622	-0.665559	0.968750
C107	C	0.381088	-1.083721	0.531088
C108	C	0.881088	-0.583721	1.031088
C109	C	0.393840	-1.057948	0.655747
C110	C	0.893840	-0.557948	1.155747
C111	C	0.366125	-1.114004	0.718080
C112	C	0.866125	-0.614004	1.218080
C113	C	0.327867	-1.191335	0.344079
C114	C	0.827867	-0.691335	0.844079
C115	C	0.396055	-1.053444	0.344095
C116	C	0.896055	-0.553444	0.844095
C117	C	0.408804	-1.027665	0.468754
C118	C	0.908804	-0.527665	0.968754
N119	N	0.297937	-1.251895	0.718064
N120	N	0.797937	-0.751895	1.218064
H121	H	0.133305	-1.366847	-0.000043
H122	H	0.633305	-0.866847	0.499957
N123	N	0.101419	-0.707201	-0.000009
N124	N	0.601419	-0.207201	0.499991
H125	H	0.095305	-0.630547	-0.000007
H126	H	0.595305	-0.130547	0.499993
H127	H	0.070968	-0.746198	-0.073419
H128	H	0.570968	-0.246198	0.426581
H129	H	-0.033912	-1.029789	-0.000075
H130	H	0.466088	-0.529789	0.499925
N131	N	0.552098	-0.679969	-0.000190
N132	N	1.052098	-0.179969	0.499810
H133	H	0.580702	-0.622771	-0.000203
H134	H	1.080702	-0.122771	0.499797
H135	H	0.571292	-0.707985	0.073223
H136	H	1.071292	-0.207985	0.573223
N137	N	-0.300381	-1.381933	-0.000098
N138	N	0.199619	-0.881933	0.499902
H139	H	-0.316437	-1.437129	-0.073519
H140	H	0.183563	-0.937129	0.426481
H141	H	-0.249968	-1.368957	-0.000037
H142	H	0.250032	-0.868957	0.499963
N143	N	-0.006517	-1.388160	-0.000049
N144	N	0.493483	-0.888160	0.499951
H145	H	-0.043935	-1.406820	-0.073465
H146	H	0.456065	-0.906820	0.426535
H147	H	0.033812	-1.447181	0.000008
H148	H	0.533812	-0.947181	0.500008
N149	N	0.234711	-0.401557	-0.000075
N150	N	0.734711	0.098443	0.499925
H151	H	0.212953	-0.365819	0.073351
H152	H	0.712953	0.134181	0.573351
H153	H	0.277574	-0.366560	-0.000128
H154	H	0.777574	0.133440	0.499872
H155	H	0.493641	-0.478024	-0.000158
H156	H	0.993641	0.021976	0.499842
N157	N	-0.452388	-1.378706	-0.000129
N158	N	0.047612	-0.878706	0.499871
H159	H	-0.489801	-1.397369	-0.073552
H160	H	0.010199	-0.897369	0.426448
H161	H	-0.412054	-1.437719	-0.000069
H162	H	0.087946	-0.937719	0.499931
N163	N	0.130055	-0.536739	-0.000043
N164	N	0.630055	-0.036739	0.499957
H165	H	0.099563	-0.575669	-0.073451
H166	H	0.599563	-0.075669	0.426549
H167	H	0.114646	-0.545281	0.073433
H168	H	0.614646	-0.045281	0.573433
N169	N	0.379876	-1.086205	0.852538
N170	N	0.879876	-0.586205	1.352538
H171	H	0.433197	-1.094488	0.882553
H172	H	0.933197	-0.594488	1.382553
H173	H	0.359429	-1.011376	0.882491
H174	H	0.859429	-0.511376	1.382491
H175	H	0.426797	-0.991319	0.706502
H176	H	0.926797	-0.491319	1.206502
H177	H	0.418626	-1.007800	0.293344
H178	H	0.918626	-0.507800	0.793344
N179	N	0.146552	-0.926325	-0.000043
N180	N	0.646552	-0.426325	0.499957
H181	H	0.171248	-0.999236	-0.000044
H182	H	0.671248	-0.499236	0.499956
H183	H	0.123531	-0.898089	0.073383
H184	H	0.623531	-0.398089	0.573383
N185	N	0.105911	-1.008460	-0.000070
N186	N	0.605911	-0.508460	0.499930
H187	H	0.065621	-0.949377	-0.000075
H188	H	0.565621	-0.449377	0.499925
H189	H	0.143335	-0.989899	0.073356
H190	H	0.643335	-0.489899	0.573356
N191	N	0.447442	-0.815150	-0.000119
N192	N	0.947442	-0.315150	0.499881
H193	H	0.436149	-0.830182	0.073311
H194	H	0.936149	-0.330182	0.573311
H195	H	0.421123	-0.860511	-0.073574
H196	H	0.921123	-0.360511	0.426426
H197	H	0.441753	-0.961031	0.519525
H198	H	0.941753	-0.461031	1.019525
N199	N	0.227572	-1.394170	0.722958
N200	N	0.727572	-0.894170	1.222958
H201	H	0.199998	-1.449922	0.664556
H202	H	0.699998	-0.949922	1.164556
H203	H	0.268244	-1.428039	0.774663
H204	H	0.768244	-0.928039	1.274663
N205	N	0.284221	-1.279589	0.276837
N206	N	0.784221	-0.779589	0.776837
H207	H	0.308396	-1.346806	0.298506
H208	H	0.808396	-0.846806	0.798506
H209	H	0.234679	-1.263590	0.298574
H210	H	0.734679	-0.763590	0.798574
N211	N	-0.491961	-0.995765	-0.000140
N212	N	0.008039	-0.495765	0.499860
H213	H	-0.542391	-1.008639	-0.000148
H214	H	-0.042391	-0.508639	0.499852
H215	H	-0.475838	-0.940616	0.073282
H216	H	0.024162	-0.440616	0.573282
H217	H	0.381986	-0.864400	-0.000108
H218	H	0.881986	-0.364400	0.499892
H219	H	0.262052	-1.324443	0.367230
H220	H	0.762052	-0.824443	0.867230
H221	H	-0.347118	-1.023134	-0.000110
H222	H	0.152882	-0.523134	0.499890
H223	H	0.211772	-1.426138	0.480316
H224	H	0.711772	-0.926138	0.980316
