data_functionalizedCrystal
_audit_creation_method	'MofGen! by Chris Wilmer'
_symmetry_space_group_name_H-M	'P1'
_symmetry_Int_Tables_number	1
_symmetry_cell_setting	triclinic
loop_
_symmetry_equiv_pos_as_xyz
  x,y,z
_cell_length_a	6.817900
_cell_length_b	13.694049
_cell_length_c	14.125465
_cell_angle_alpha	80.057615
_cell_angle_beta	100.398878
_cell_angle_gamma	106.285429
loop_
_atom_site_label
_atom_site_type_symbol
_atom_site_fract_x
_atom_site_fract_y
_atom_site_fract_z
V1	V	-3.991323	-0.139503	-0.263267
O2	O	-3.979508	0.007601	-0.296266
O3	O	-3.943086	-0.277473	-0.224909
O4	O	-3.927465	-0.136963	-0.394765
O5	O	-3.995237	-0.133882	-0.125234
V6	V	-4.476933	-0.121954	-0.251198
O7	O	-4.248004	-0.177997	-0.289741
O8	O	-4.670450	-0.083459	-0.224724
O9	O	-4.301964	0.016016	-0.289556
O10	O	-4.606146	-0.269057	-0.218198
O11	O	-4.590417	-0.127575	-0.389231
O12	O	-4.317585	-0.124493	-0.119700
C13	C	-3.788627	-0.311119	-0.211322
C14	C	-3.830371	-0.423909	-0.180837
C15	C	-3.820142	-0.462652	-0.082146
C16	C	-3.859393	-0.568622	-0.053491
C17	C	-3.908860	-0.635860	-0.123523
C18	C	-3.919075	-0.597118	-0.222216
C19	C	-3.879836	-0.491137	-0.250874
C20	C	-3.968555	-0.664345	-0.292251
C21	C	-3.978769	-0.625603	-0.390943
C22	C	-3.939532	-0.519632	-0.419596
C23	C	-3.890065	-0.452394	-0.349564
C24	C	-4.007793	-0.770326	-0.263593
C25	C	-4.067488	-0.798811	-0.432320
C26	C	-4.028237	-0.692841	-0.460975
C27	C	-3.768700	-0.131884	-0.427990
C28	C	-3.797774	-0.130721	-0.535251
C29	C	-3.851064	-0.128588	-0.731635
C30	C	-4.036562	-0.132867	-0.782830
C31	C	-4.066215	-0.131680	-0.892105
C32	C	-3.821403	-0.129775	-0.622350
C33	C	-4.119766	0.049657	-0.303138
C34	C	-4.057259	0.162446	-0.333630
C35	C	-4.139693	-0.129576	-0.086468
C36	C	-4.089858	-0.130734	0.020791
H37	H	-3.851079	-0.600159	0.026863
C38	C	-4.155399	-0.139047	-0.631382
C39	C	-4.220902	-0.139036	-0.731215
H40	H	-4.269204	-0.142867	-0.599515
H41	H	-4.051648	-0.077734	-0.620298
H42	H	-4.100951	-0.196561	-0.606627
H43	H	-4.275337	-0.081518	-0.755971
H44	H	-4.324689	-0.200356	-0.742306
H45	H	-3.714536	-0.124034	-0.769871
H46	H	-3.779882	-0.407899	-0.025137
C47	C	-4.041466	-0.920122	-0.144744
C48	C	-3.996570	-0.812906	-0.155116
H49	H	-4.034548	-0.946406	-0.077771
H50	H	-3.944018	-0.940048	-0.172494
H51	H	-4.176300	-0.946623	-0.176923
H52	H	-3.861729	-0.786405	-0.122943
H53	H	-4.094022	-0.792970	-0.127353
H54	H	-3.858118	-0.366104	-0.372891
C55	C	-4.002461	-0.558435	-0.583499
C56	C	-3.950768	-0.477045	-0.528079
H57	H	-4.009384	-0.532141	-0.650470
H58	H	-4.132657	-0.602464	-0.571020
H59	H	-3.900376	-0.595887	-0.566599
H60	H	-4.052862	-0.439597	-0.544973
H61	H	-3.820555	-0.432998	-0.540563
C62	C	-4.317440	-0.939367	-0.501225
C63	C	-4.121858	-0.872710	-0.509308
H64	H	-4.351002	-0.984996	-0.548746
H65	H	-4.417012	-0.900723	-0.511105
H66	H	-4.316933	-0.977599	-0.438343
H67	H	-4.122370	-0.834472	-0.572187
H68	H	-4.022261	-0.911358	-0.499435
H69	H	-3.940817	-0.722145	-0.100186
H70	H	-4.036548	-0.661281	-0.541332
