data_functionalizedCrystal
_audit_creation_method	'MofGen! by Chris Wilmer'
_symmetry_space_group_name_H-M	'P1'
_symmetry_Int_Tables_number	1
_symmetry_cell_setting	triclinic
loop_
_symmetry_equiv_pos_as_xyz
  x,y,z
_cell_length_a	13.262402
_cell_length_b	11.792254
_cell_length_c	12.376457
_cell_angle_alpha	101.355083
_cell_angle_beta	94.181204
_cell_angle_gamma	84.323919
loop_
_atom_site_label
_atom_site_type_symbol
_atom_site_fract_x
_atom_site_fract_y
_atom_site_fract_z
O1	O	1.326715	0.225241	0.313931
O2	O	1.039994	0.221543	0.225768
O3	O	1.190304	0.058703	0.271995
O4	O	1.176404	0.388082	0.267705
O5	O	1.152739	0.099355	0.448454
O6	O	1.002429	0.262195	0.402228
O7	O	1.289150	0.265893	0.490391
Zn8	Zn	1.139825	0.270498	0.474326
Zn9	Zn	1.189318	0.216938	0.241833
O10	O	1.138840	0.428734	0.444164
C11	C	0.984505	0.238336	0.302711
C12	C	0.875130	0.227795	0.269080
C13	C	0.844222	0.200681	0.157089
C14	C	0.741458	0.190789	0.125492
C15	C	0.669592	0.208000	0.205884
C16	C	0.700501	0.235107	0.317878
C17	C	0.803274	0.245009	0.349477
C18	C	0.628645	0.252328	0.398272
C19	C	0.659553	0.279434	0.510266
C20	C	0.762317	0.289334	0.541860
C21	C	0.834182	0.272123	0.461468
C22	C	0.525871	0.242425	0.366672
C23	C	0.484924	0.286753	0.559060
C24	C	0.587688	0.296645	0.590657
C25	C	1.170646	0.036678	0.359955
C26	C	1.168025	-0.089516	0.359148
C27	C	1.165896	-0.192000	0.358489
C28	C	1.163235	-0.320572	0.357660
C29	C	1.344640	0.249100	0.413445
C30	C	1.454016	0.259639	0.447069
C31	C	1.158498	0.450758	0.356202
C32	C	1.161121	0.576950	0.357002
N33	N	1.106055	0.307052	0.632999
N34	N	1.223096	0.180376	0.083163
C35	C	1.301488	0.095501	1.048087
C36	C	1.325118	0.069917	0.937014
C37	C	1.270354	0.129198	0.861005
C38	C	1.191956	0.214069	0.896079
C39	C	1.168329	0.239662	1.007164
C40	C	1.137195	0.273359	0.820082
C41	C	1.058797	0.358230	0.855156
C42	C	1.035173	0.383818	0.966231
C43	C	1.089937	0.324537	1.042240
C44	C	1.160823	0.247766	0.708997
C45	C	1.027664	0.391927	0.668074
C46	C	1.004033	0.417511	0.779147
H47	H	0.787477	0.311417	0.633052
H48	H	1.070695	0.345364	1.132684
H49	H	0.902741	0.186679	0.091646
C50	C	0.948942	0.477181	1.004820
C51	C	0.857128	0.444637	1.057971
C52	C	0.770897	0.537999	1.096560
C53	C	0.776481	0.663905	1.081998
C54	C	0.868299	0.696454	1.028844
C55	C	0.954530	0.603092	0.990255
H56	H	0.852991	0.351429	1.068753
H57	H	0.702928	0.513904	1.135907
H58	H	0.712648	0.733017	1.110563
H59	H	0.872436	0.789662	1.018062
H60	H	1.022499	0.627188	0.950907
C61	C	0.967415	0.457141	0.584474
C62	C	0.993400	0.428988	0.462290
C63	C	0.933160	0.494199	0.378684
C64	C	0.846935	0.587564	0.417260
C65	C	0.820946	0.615721	0.539449
C66	C	0.881186	0.550510	0.623056
H67	H	1.057233	0.359870	0.433728
H68	H	0.952400	0.473354	0.288231
H69	H	0.802342	0.635837	0.355369
H70	H	0.757113	0.684839	0.568011
H71	H	0.861946	0.571355	0.713509
C72	C	0.707459	0.160977	0.002308
C73	C	0.786502	0.142046	-0.086123
C74	C	0.752503	0.112235	-0.209315
C75	C	0.639462	0.101354	-0.244077
C76	C	0.560413	0.120286	-0.155644
C77	C	0.594412	0.150097	-0.032452
H78	H	0.870188	0.150100	-0.060392
H79	H	0.811021	0.098221	-0.274779
H80	H	0.614294	0.079286	-0.335271
H81	H	0.476727	0.112232	-0.181375
H82	H	0.535893	0.164111	0.033012
C83	C	0.405883	0.305686	0.647502
C84	C	0.318946	0.402653	0.648948
C85	C	0.239899	0.421587	0.737382
C86	C	0.247790	0.343555	0.824371
C87	C	0.334731	0.246581	0.822928
C88	C	0.413778	0.227647	0.734494
H89	H	0.313101	0.460423	0.584551
H90	H	0.175540	0.493374	0.738450
H91	H	0.189276	0.357572	0.889835
H92	H	0.340576	0.188811	0.887325
H93	H	0.478137	0.155860	0.733427
C94	C	1.296338	0.101051	0.738821
C95	C	1.288685	-0.022627	0.671398
C96	C	1.314668	-0.050784	0.549208
C97	C	1.348306	0.044738	0.494443
C98	C	1.355961	0.168424	0.561867
C99	C	1.329977	0.196581	0.684056
H100	H	1.263783	-0.093345	0.711938
H101	H	1.309001	-0.142345	0.499297
H102	H	1.367540	0.023895	0.403991
H103	H	1.380863	0.239142	0.521326
H104	H	1.335645	0.288142	0.733968
H105	H	0.917864	0.280168	0.487189
C106	C	1.411345	-0.023438	0.898428
C107	C	1.471587	-0.088656	0.982022
C108	C	1.557818	-0.182018	0.943433
C109	C	1.583806	-0.210162	0.821251
C110	C	1.523563	-0.144944	0.737650
C111	C	1.437332	-0.051581	0.776239
H112	H	1.452350	-0.067823	1.072475
H113	H	1.602414	-0.230297	1.005320
H114	H	1.647639	-0.279274	0.792685
H115	H	1.542800	-0.165777	0.647196
H116	H	1.392736	-0.003302	0.714351
H117	H	0.500716	0.220357	0.275486
C118	C	1.361726	0.030301	1.131692
C119	C	1.306532	-0.041886	1.196099
C120	C	1.366777	-0.107092	1.279706
C121	C	1.482217	-0.100111	1.298907
C122	C	1.537417	-0.027922	1.234499
C123	C	1.477171	0.037284	1.150891
H124	H	1.221071	-0.047056	1.181887
H125	H	1.325914	-0.160531	1.327386
H126	H	1.526814	-0.148380	1.360798
H127	H	1.622878	-0.022752	1.248710
H128	H	1.518035	0.090724	1.103212
H129	H	0.585918	0.199944	0.180151
H130	H	0.612869	0.318717	0.681844
H131	H	1.224655	0.178664	0.680451
H132	H	0.940200	0.486615	0.807718
