data_functionalizedCrystal
_audit_creation_method	'MofGen! by Chris Wilmer'
_symmetry_space_group_name_H-M	'P1'
_symmetry_Int_Tables_number	1
_symmetry_cell_setting	triclinic
loop_
_symmetry_equiv_pos_as_xyz
  x,y,z
_cell_length_a	12.594517
_cell_length_b	18.050589
_cell_length_c	12.594509
_cell_angle_alpha	89.972304
_cell_angle_beta	89.978673
_cell_angle_gamma	90.028021
loop_
_atom_site_label
_atom_site_type_symbol
_atom_site_fract_x
_atom_site_fract_y
_atom_site_fract_z
Zn1	Zn	1.627177	-0.295641	-0.601864
Zn2	Zn	2.127177	0.204359	-0.101864
Zn3	Zn	1.627030	-0.419845	-0.423887
Zn4	Zn	2.127030	0.080155	0.076113
Zn5	Zn	1.449181	-0.295673	-0.423893
Zn6	Zn	1.949181	0.204327	0.076107
Zn7	Zn	1.449125	-0.419793	-0.601817
Zn8	Zn	1.949125	0.080207	-0.101817
O9	O	1.538128	-0.357738	-0.512865
O10	O	2.038128	0.142262	-0.012865
O11	O	1.776103	-0.312125	-0.578272
O12	O	2.276103	0.187875	-0.078272
O13	O	1.603400	-0.403408	-0.274942
O14	O	2.103400	0.096592	0.225058
O15	O	1.472877	-0.191744	-0.447523
O16	O	1.972877	0.308256	0.052477
O17	O	1.775995	-0.403377	-0.447513
O18	O	2.275995	0.096623	0.052487
O19	O	1.603650	-0.191721	-0.578278
O20	O	2.103650	0.308279	-0.078278
O21	O	1.472735	-0.312179	-0.274946
O22	O	1.972735	0.187821	0.225054
O23	O	1.300228	-0.312129	-0.447478
O24	O	1.800228	0.187871	0.052522
O25	O	1.472782	-0.403289	-0.750769
O26	O	1.972782	0.096711	-0.250769
O27	O	1.300187	-0.403320	-0.578198
O28	O	1.800187	0.096680	-0.078198
O29	O	1.603596	-0.312075	-0.750804
O30	O	2.103596	0.187925	-0.250804
O31	O	1.603346	-0.523763	-0.447468
O32	O	2.103346	-0.023763	0.052532
O33	O	1.472640	-0.523725	-0.578192
O34	O	1.972640	-0.023725	-0.078192
C35	C	1.261587	-0.357723	-0.512834
C36	C	1.761587	0.142277	-0.012834
C37	C	1.143282	-0.357735	-0.512846
C38	C	1.643282	0.142265	-0.012846
C39	C	1.074020	-0.308068	-0.441883
C40	C	1.574020	0.191932	0.058117
C41	C	1.003188	-0.375810	-0.415704
C42	C	1.503188	0.124190	0.084296
C43	C	1.003314	-0.290026	-0.539043
C44	C	1.503314	0.209974	-0.039043
C45	C	1.074008	-0.425512	-0.486616
C46	C	1.574008	0.074488	0.013384
C47	C	1.074141	-0.339682	-0.610001
C48	C	1.574141	0.160318	-0.110001
C49	C	1.003341	-0.407471	-0.583858
C50	C	1.503341	0.092529	-0.083858
C51	C	1.538000	-0.550690	-0.512848
C52	C	2.038000	-0.050690	-0.012848
C53	C	1.538042	-0.633236	-0.512876
C54	C	2.038042	-0.133236	-0.012876
C55	C	1.467034	-0.832693	-0.583939
C56	C	1.967034	-0.332693	-0.083939
C57	C	1.441086	-0.882138	-0.486814
C58	C	1.941086	-0.382138	0.013186
C59	C	1.538147	-0.784366	-0.512889
C60	C	2.038147	-0.284366	-0.012889
C61	C	1.564147	-0.882003	-0.610026
C62	C	2.064147	-0.382003	-0.110026
C63	C	1.538246	-0.930351	-0.512911
C64	C	2.038246	-0.430351	-0.012911
C65	C	1.512147	-0.832724	-0.415713
C66	C	2.012147	-0.332724	0.084287
C67	C	1.635254	-0.832585	-0.538990
C68	C	2.135254	-0.332585	-0.038990
C69	C	1.609343	-0.882007	-0.441799
C70	C	2.109343	-0.382007	0.058201
C71	C	1.538087	-0.700268	-0.512878
C72	C	2.038087	-0.200268	-0.012878
C73	C	1.538306	-1.014448	-0.512912
C74	C	2.038306	-0.514448	-0.012912
C75	C	1.815749	-0.357753	-0.512897
C76	C	2.315749	0.142247	-0.012897
C77	C	1.934055	-0.357760	-0.512911
C78	C	2.434055	0.142240	-0.012911
C79	C	1.538200	-0.357673	-0.790486
C80	C	2.038200	0.142327	-0.290486
C81	C	1.538230	-0.357645	-0.908792
C82	C	2.038230	0.142355	-0.408792
C83	C	1.538286	-0.164032	-0.512906
C84	C	2.038286	0.335968	-0.012906
C85	C	1.538354	-0.081487	-0.512924
C86	C	2.038354	0.418513	-0.012924
C87	C	1.467103	-0.407228	-0.978026
C88	C	1.967103	0.092772	-0.478026
C89	C	1.564218	-0.425374	-1.048817
C90	C	2.064218	0.074626	-0.548817
C91	C	1.441191	-0.339455	-1.048800
C92	C	1.941191	0.160545	-0.548800
C93	C	1.635396	-0.375826	-0.978024
C94	C	2.135396	0.124174	-0.478024
C95	C	1.512303	-0.289876	-0.978001
C96	C	2.012303	0.210124	-0.478001
C97	C	1.609485	-0.307996	-1.048760
C98	C	2.109485	0.192004	-0.548760
C99	C	1.538119	-0.357749	-0.236324
C100	C	2.038119	0.142251	0.263676
C101	C	1.538294	-0.357568	-0.118019
C102	C	2.038294	0.142432	0.381981
H103	H	1.105054	-0.266108	-0.381797
H104	H	1.605054	0.233892	0.118203
F105	F	1.688230	-0.253146	-1.089104
F106	F	2.188230	0.246854	-0.589104
H107	H	1.586182	-0.482652	-1.079923
H108	H	2.086182	0.017348	-0.579923
F109	F	1.483333	-0.804551	-0.308321
F110	F	1.983333	-0.304551	0.191679
H111	H	1.490311	-0.232614	-0.946872
H112	H	1.990311	0.267386	-0.446872
H113	H	1.717310	-0.810804	-0.561093
H114	H	2.217310	-0.310804	-0.061093
F115	F	1.114424	-0.500392	-0.457565
F116	F	1.614424	-0.000392	0.042435
H117	H	1.717511	-0.391245	-0.947065
H118	H	2.217511	0.108755	-0.447065
H119	H	1.359099	-0.324102	-1.079890
H120	H	1.859099	0.175898	-0.579890
F121	F	0.963030	-0.462445	-0.662335
F122	F	1.463030	0.037555	-0.162335
H123	H	1.407000	-0.449224	-0.946969
H124	H	1.907000	0.050776	-0.446969
F125	F	1.388318	-0.804388	-0.662363
F126	F	1.888318	-0.304388	-0.162363
H127	H	0.972205	-0.232762	-0.561137
H128	H	1.472205	0.267238	-0.061137
F129	F	0.962453	-0.395790	-0.308350
F130	F	1.462453	0.104210	0.191650
F131	F	1.592839	-0.910299	-0.717384
F132	F	2.092839	-0.410299	-0.217384
F133	F	1.333804	-0.910586	-0.457959
F134	F	1.833804	-0.410586	0.042041
H135	H	1.105330	-0.324376	-0.692110
H136	H	1.605330	0.175624	-0.192110
F137	F	1.688005	-0.910132	-0.363190
F138	F	2.188005	-0.410132	0.136810
