data_functionalizedCrystal
_audit_creation_method	'MofGen! by Chris Wilmer'
_symmetry_space_group_name_H-M	'P1'
_symmetry_Int_Tables_number	1
_symmetry_cell_setting	triclinic
loop_
_symmetry_equiv_pos_as_xyz
  x,y,z
_cell_length_a	14.628931
_cell_length_b	23.196402
_cell_length_c	23.196401
_cell_angle_alpha	60.007332
_cell_angle_beta	90.013263
_cell_angle_gamma	60.004294
loop_
_atom_site_label
_atom_site_type_symbol
_atom_site_fract_x
_atom_site_fract_y
_atom_site_fract_z
Zr1	Zr	0.880691	0.630976	-0.075630
O2	O	0.734715	0.751239	-0.167677
O3	O	0.925428	0.510714	-0.047416
O4	O	0.925401	0.630977	-0.167682
O5	O	0.734777	0.630974	0.047460
O6	O	1.075833	0.630977	-0.167682
O7	O	0.734741	0.630976	-0.047411
O8	O	1.075881	0.415848	0.047452
O9	O	0.734730	0.846103	-0.167674
O10	O	1.056789	0.560179	-0.035379
O11	O	0.944550	0.560178	0.035423
O12	O	0.944519	0.701772	-0.106175
O13	O	0.832280	0.701771	-0.035374
Zr14	Zr	1.120671	0.630973	0.075679
Zr15	Zr	1.120613	0.630975	-0.075630
Zr16	Zr	0.880749	0.630974	0.075679
Zr17	Zr	0.880716	0.782273	-0.075624
Zr18	Zr	1.120646	0.479676	0.075673
O19	O	1.075934	0.751235	0.047465
O20	O	1.075853	0.751238	-0.167677
O21	O	0.734796	0.751235	0.047464
O22	O	1.266647	0.510710	0.167726
O23	O	1.266566	0.510714	-0.047415
O24	O	0.925509	0.510711	0.167726
O25	O	1.266585	0.630975	-0.047411
O26	O	1.075961	0.630972	0.167731
O27	O	0.925529	0.630972	0.167731
O28	O	1.266621	0.630973	0.047460
O29	O	0.925436	0.846102	-0.167674
O30	O	1.075926	0.415847	0.167723
O31	O	1.266632	0.415846	0.167723
O32	O	1.266586	0.415848	0.047452
O33	O	0.734775	0.846101	-0.047403
O34	O	0.925481	0.846101	-0.047403
O35	O	1.056843	0.560177	0.106224
O36	O	1.169082	0.560178	0.035423
O37	O	1.056812	0.701771	-0.035374
O38	O	0.944573	0.701770	0.035428
C39	C	1.000651	0.441725	0.000017
C40	C	1.000640	0.377495	0.000015
C41	C	0.700575	0.630975	0.000024
C42	C	0.598722	0.630975	0.000024
C43	C	1.083535	0.295066	0.052276
C44	C	1.083543	0.234705	0.052282
C45	C	1.000664	0.256779	0.000017
C46	C	0.917754	0.339223	-0.052248
C47	C	0.917743	0.399581	-0.052249
C48	C	0.974836	0.201193	-0.063775
C49	C	0.974855	0.140834	-0.063774
C50	C	1.000694	0.070617	0.000020
C51	C	1.026538	0.060758	0.063818
C52	C	1.026526	0.121116	0.063817
C53	C	1.000667	0.191337	0.000013
C54	C	1.083602	-0.077265	0.052292
C55	C	1.083603	-0.137625	0.052299
C56	C	0.917818	-0.033104	-0.052237
C57	C	0.917814	0.027252	-0.052238
C58	C	1.000711	0.005167	0.000026
C59	C	0.609006	0.560735	0.035144
C60	C	0.503737	0.560734	0.035145
C61	C	1.300787	0.630974	0.000025
C62	C	1.402640	0.630974	0.000025
C63	C	1.000609	0.630977	-0.189240
C64	C	1.000585	0.630978	-0.253474
C65	C	1.000711	0.820224	0.000032
C66	C	1.000722	0.884454	0.000034
C67	C	0.941987	0.704886	-0.320602
C68	C	0.942015	0.704888	-0.380958
C69	C	1.000626	0.630976	-0.374181
C70	C	1.059238	0.557059	-0.307041
C71	C	1.059217	0.557060	-0.246688
C72	C	0.992293	0.574350	-0.441500
C73	C	0.992306	0.574352	-0.501854
C74	C	1.000697	0.630970	-0.560328
C75	C	1.009053	0.687600	-0.558449
C76	C	1.009032	0.687601	-0.498096
C77	C	1.000656	0.630967	-0.439620
C78	C	0.942127	0.704884	-0.692903
C79	C	0.942163	0.704882	-0.753258
C80	C	1.059379	0.557051	-0.679339
C81	C	1.059350	0.557056	-0.618986
C82	C	1.000718	0.630974	-0.625773
C83	C	1.000753	0.630972	0.189289
C84	C	1.000777	0.630971	0.253524
C85	C	1.300756	0.441724	0.000018
C86	C	1.402599	0.377494	0.000015
C87	C	1.000722	0.441722	0.189282
C88	C	1.000737	0.377491	0.253514
C89	C	1.300828	0.441721	0.189282
C90	C	1.402695	0.377490	0.253514
C91	C	0.700534	0.820228	-0.189233
C92	C	0.598667	0.884459	-0.253465
C93	C	0.700606	0.820225	0.000031
C94	C	0.598763	0.884455	0.000034
C95	C	1.000639	0.820227	-0.189233
C96	C	1.000625	0.884458	-0.253465
C97	C	1.391810	0.347332	-0.036950
C98	C	1.487493	0.286990	-0.036966
C99	C	1.593964	0.256806	-0.000013
C100	C	1.604751	0.286975	0.036954
C101	C	1.509069	0.347320	0.036965
C102	C	1.059359	0.347327	0.320642
C103	C	1.059368	0.286984	0.381001
C104	C	1.000760	0.256802	0.374230
C105	C	0.942131	0.286972	0.307095
C106	C	0.942116	0.347318	0.246738
C107	C	1.509131	0.347327	0.246721
C108	C	1.604855	0.286984	0.307068
C109	C	1.594141	0.256801	0.374208
C110	C	1.487695	0.286970	0.381000
C111	C	1.391973	0.347316	0.320654
C112	C	0.492231	0.914629	-0.246672
C113	C	0.396507	0.974991	-0.307019
C114	C	0.407221	1.005178	-0.374159
C115	C	0.513667	0.975005	-0.380951
C116	C	0.609389	0.914648	-0.320605
C117	C	0.609552	0.914623	0.036992
C118	C	0.513869	0.974982	0.036992
C119	C	0.407398	1.005168	0.000037
C120	C	0.396611	0.974997	-0.036927
C121	C	0.492293	0.914643	-0.036930
C122	C	1.059244	0.914621	-0.246671
C123	C	1.059253	0.974964	-0.307019
C124	C	1.000635	1.005148	-0.374159
C125	C	0.942015	0.974979	-0.380951
C126	C	0.942013	0.914633	-0.320604
H127	H	1.151036	0.277076	0.094834
H128	H	0.329497	1.054312	0.000045
Br129	Br	1.196052	0.122822	0.123212
H130	H	0.894274	0.890081	-0.326146
H131	H	0.309909	0.999583	-0.067015
Br132	Br	1.473173	0.245998	0.472125
H133	H	1.106961	0.496880	-0.301527
H134	H	0.483486	0.890054	-0.192009
Br135	Br	1.061598	0.107736	0.150395
Br136	Br	0.528188	1.015979	-0.472076
Br137	Br	1.472827	0.246058	-0.087136
Br138	Br	1.020439	0.764446	-0.637804
Br139	Br	0.477630	0.873703	-0.087090
Br140	Br	0.805232	0.511458	-0.123179
H141	H	1.107084	0.371895	0.326169
H142	H	1.672093	0.207663	0.423341
H143	H	1.106977	0.890055	-0.192008
Br144	Br	0.252058	1.015926	-0.297785
Br145	Br	0.388235	0.731212	-0.050101
Br146	Br	0.277299	1.087092	-0.456052
Br147	Br	1.138944	0.456741	-0.670134
Br148	Br	0.753834	0.873706	-0.329837
Br149	Br	1.247528	0.388241	0.329886
Br150	Br	0.754036	0.873674	0.087150
H151	H	0.522674	0.999538	0.067095
H152	H	1.691452	0.262391	0.067039
Br153	Br	1.247326	0.388283	-0.087109
H154	H	0.850273	0.357192	-0.094802
H155	H	0.850335	-0.015130	-0.094792
Br156	Br	1.138810	1.015898	-0.297784
Br157	Br	1.000647	1.087049	-0.456051
H158	H	0.894290	0.999564	-0.435624
Br159	Br	1.523732	0.388243	0.087142
H160	H	0.894450	0.765070	-0.807918
Br161	Br	0.862585	0.805200	-0.702109
Br162	Br	1.061644	-0.034544	0.150404
Br163	Br	1.196102	-0.107233	0.123220
Br164	Br	1.196102	-0.249501	0.123238
Br165	Br	0.862386	0.805204	-0.329815
Br166	Br	1.138944	0.246051	0.472104
H167	H	0.850317	0.094372	-0.094798
H168	H	0.511984	0.691109	-0.030041
H169	H	0.985496	0.528244	-0.503379
H170	H	0.953816	0.148867	-0.115722
H171	H	1.000782	0.207664	0.423383
H172	H	0.953783	0.258369	-0.115728
H173	H	1.517876	0.371894	0.192058
Br174	Br	0.981010	0.497455	-0.362119
Br175	Br	0.753572	0.460502	0.085279
H176	H	0.894414	0.262389	0.301592
H177	H	0.894383	0.371870	0.192081
H178	H	0.894294	0.765074	-0.435623
H179	H	0.512367	0.500599	0.065207
Br180	Br	1.020371	0.764451	-0.495545
H181	H	1.107062	0.496872	-0.564326
H182	H	1.106936	0.496873	-0.192027
H183	H	1.671865	0.207669	-0.000027
H184	H	1.691520	0.262427	0.301525
