data_functionalizedCrystal
_audit_creation_method	'MofGen! by Chris Wilmer'
_symmetry_space_group_name_H-M	'P1'
_symmetry_Int_Tables_number	1
_symmetry_cell_setting	triclinic
loop_
_symmetry_equiv_pos_as_xyz
  x,y,z
_cell_length_a	19.077236
_cell_length_b	19.076808
_cell_length_c	19.076919
_cell_angle_alpha	90.121640
_cell_angle_beta	90.112677
_cell_angle_gamma	94.519737
loop_
_atom_site_label
_atom_site_type_symbol
_atom_site_fract_x
_atom_site_fract_y
_atom_site_fract_z
Zn1	Zn	1.048453	-0.255469	0.429870
Zn2	Zn	1.048749	-0.368252	0.307652
Zn3	Zn	0.935682	-0.255100	0.307665
Zn4	Zn	0.926207	-0.377641	0.419997
O5	O	0.989773	-0.314115	0.366296
O6	O	1.146971	-0.266655	0.417783
O7	O	1.037840	-0.349158	0.209493
O8	O	0.954483	-0.156664	0.328013
O9	O	1.147189	-0.349516	0.327990
O10	O	1.037335	-0.156935	0.417796
O11	O	0.954771	-0.266026	0.209503
O12	O	0.835946	-0.275130	0.318440
O13	O	0.938333	-0.365518	0.519467
O14	O	0.828985	-0.365160	0.400970
O15	O	1.028147	-0.275759	0.526720
O16	O	1.028652	-0.467982	0.318417
O17	O	0.938621	-0.474880	0.400957
C18	C	0.806931	-0.321124	0.358636
C19	C	0.728709	-0.324141	0.355375
C20	C	0.691842	-0.282491	0.400659
C21	C	0.618344	-0.285321	0.397589
C22	C	0.581715	-0.329806	0.349238
C23	C	0.618588	-0.371457	0.303949
C24	C	0.692084	-0.368623	0.307016
C25	C	0.361918	-0.342898	0.335042
C26	C	0.288416	-0.345731	0.331979
C27	C	0.288178	-0.259593	0.425619
C28	C	0.361676	-0.256766	0.428684
C29	C	0.398542	-0.298415	0.383393
N30	N	0.506589	-0.332702	0.346100
N31	N	0.473667	-0.295515	0.386528
C32	C	0.982659	-0.496966	0.358631
C33	C	0.979679	-0.575189	0.355377
C34	C	1.021380	-0.612022	0.400629
C35	C	1.018577	-0.685521	0.397574
C36	C	0.974076	-0.722186	0.349263
C37	C	0.932370	-0.685348	0.304009
C38	C	0.935170	-0.611851	0.307068
C39	C	0.961078	-0.941990	0.335099
C40	C	0.958283	-1.015493	0.332042
C41	C	1.044489	-1.015661	0.425608
C42	C	1.047288	-0.942162	0.428660
C43	C	1.005579	-0.905331	0.383409
N44	N	0.971212	-0.797313	0.346137
N45	N	1.008441	-0.830205	0.386539
C46	C	1.173328	-0.307079	0.373986
C47	C	1.251549	-0.304081	0.377263
C48	C	0.982150	-0.321727	0.549257
C49	C	0.978902	-0.324971	0.627224
C50	C	0.996933	-0.130550	0.374007
C51	C	0.999984	-0.052326	0.377294
C52	C	0.997408	-0.306481	0.184050
C53	C	1.000801	-0.303034	0.106097
C54	C	1.024134	-0.279764	0.667631
C55	C	1.021074	-0.282809	0.740889
C56	C	0.972783	-0.331065	0.773740
C57	C	0.927546	-0.376274	0.733328
C58	C	0.930604	-0.373225	0.660071
C59	C	0.958621	-0.345193	0.992429
C60	C	0.955568	-0.348241	1.065691
C61	C	1.049095	-0.254774	1.073247
C62	C	1.052152	-0.251732	0.999989
C63	C	1.006912	-0.296938	0.959583
N64	N	0.969655	-0.334181	0.848621
N65	N	1.010037	-0.293819	0.884703
H66	H	0.391494	-0.220544	0.468059
C67	C	0.909333	-1.055826	0.278896
H68	H	0.913649	-1.104872	0.283550
H69	H	0.862070	-1.046067	0.287639
H70	H	0.922097	-1.041428	0.232707
C71	C	0.732638	-0.414444	0.257209
H72	H	0.700297	-0.441350	0.227979
H73	H	0.763622	-0.385103	0.229016
H74	H	0.759003	-0.445160	0.283909
C75	C	1.070323	-0.571698	0.453780
H76	H	1.094749	-0.604164	0.480300
H77	H	1.103220	-0.540711	0.429463
H78	H	1.043184	-0.545351	0.484385
C79	C	0.883422	-0.725677	0.250866
H80	H	0.887732	-0.774724	0.255518
H81	H	0.836160	-0.715913	0.259609
H82	H	0.896188	-0.711279	0.204677
H83	H	0.893763	-0.410031	0.627173
C84	C	1.064451	-0.726034	0.447349
H85	H	1.091361	-0.693671	0.476553
H86	H	1.035143	-0.757022	0.475570
H87	H	1.095162	-0.752395	0.420628
C88	C	0.889300	-0.571334	0.257290
H89	H	0.862399	-0.603695	0.228076
H90	H	0.858590	-0.544974	0.284007
H91	H	0.918613	-0.540345	0.229069
H92	H	1.063460	-0.240470	0.640890
C93	C	0.915210	-0.901485	0.285316
H94	H	0.888315	-0.933848	0.256100
H95	H	0.884496	-0.875122	0.312024
H96	H	0.944528	-0.870498	0.257095
C97	C	1.096251	-0.901835	0.481792
H98	H	1.120686	-0.934299	0.508305
H99	H	1.129140	-0.870859	0.457450
H100	H	1.069133	-0.875475	0.512405
H101	H	0.588759	-0.407674	0.264577
H102	H	0.258595	-0.381959	0.292605
C103	C	0.908865	-0.394922	0.947989
H104	H	0.917594	-0.386193	0.899654
H105	H	0.916820	-0.442312	0.958440
H106	H	0.861481	-0.386930	0.958446
C107	C	1.070833	-0.233085	0.785333
H108	H	1.100037	-0.203915	0.755277
H109	H	1.043920	-0.204638	0.814070
H110	H	1.099253	-0.260027	0.814065
C111	C	1.090358	-1.056177	0.475386
H112	H	1.082314	-1.105201	0.466651
H113	H	1.138537	-1.041853	0.467646
H114	H	1.078508	-1.046480	0.522578
H115	H	0.721660	-0.246268	0.440033
C116	C	0.577790	-0.239512	0.447404
H117	H	0.528773	-0.247565	0.438650
H118	H	0.587478	-0.251385	0.494585
H119	H	0.592093	-0.191318	0.439702
C120	C	1.105265	-0.198647	0.963855
H121	H	1.100611	-0.203309	0.914439
H122	H	1.096309	-0.152256	0.977416
H123	H	1.151649	-0.207637	0.977411
H124	H	0.391925	-0.376812	0.298163
C125	C	0.247624	-0.213777	0.475428
H126	H	0.198607	-0.221830	0.466675
H127	H	0.257313	-0.225642	0.522611
H128	H	0.261929	-0.165585	0.467717
C129	C	1.098849	-0.205047	1.117694
H130	H	1.090110	-0.213768	1.166028
H131	H	1.146232	-0.213032	1.107240
H132	H	1.090889	-0.157654	1.107242
H133	H	0.916242	-0.387538	1.092435
H134	H	0.888224	-0.415563	0.760080
