data_functionalizedCrystal
_audit_creation_method	'MofGen! by Chris Wilmer'
_symmetry_space_group_name_H-M	'P1'
_symmetry_Int_Tables_number	1
_symmetry_cell_setting	triclinic
loop_
_symmetry_equiv_pos_as_xyz
  x,y,z
_cell_length_a	10.654562
_cell_length_b	10.654551
_cell_length_c	14.048226
_cell_angle_alpha	89.996418
_cell_angle_beta	89.990744
_cell_angle_gamma	84.487733
loop_
_atom_site_label
_atom_site_type_symbol
_atom_site_fract_x
_atom_site_fract_y
_atom_site_fract_z
O1	O	1.667836	0.176477	-0.079217
O2	O	1.302360	0.193267	-0.079204
O3	O	1.493500	0.002133	-0.079211
O4	O	1.476695	0.367611	-0.079210
O5	O	1.493477	0.002122	0.079110
O6	O	1.302336	0.193255	0.079117
O7	O	1.667813	0.176466	0.079105
Zn8	Zn	1.485071	0.184859	0.104248
Zn9	Zn	1.485101	0.184874	-0.104347
O10	O	1.476672	0.367599	0.079112
C11	C	1.255550	0.192025	-0.000042
C12	C	1.116108	0.188327	-0.000038
C13	C	1.050564	0.186595	0.086256
C14	C	0.919542	0.183130	0.086240
C15	C	0.919618	0.183134	-0.086371
C16	C	1.050638	0.186589	-0.086354
C17	C	1.050519	0.186599	0.185911
C18	C	0.919497	0.183134	0.185895
C19	C	1.492254	-0.044670	-0.000053
C20	C	1.488562	-0.184114	-0.000059
C21	C	1.486842	-0.249620	-0.086358
C22	C	1.483362	-0.380640	-0.086354
C23	C	1.483326	-0.380638	0.086257
C24	C	1.486797	-0.249619	0.086251
C25	C	1.486868	-0.249622	-0.186014
C26	C	1.483388	-0.380643	-0.186009
C27	C	1.714622	0.177708	-0.000060
C28	C	1.854064	0.181406	-0.000070
C29	C	1.477918	0.414403	-0.000049
C30	C	1.481610	0.553846	-0.000049
N31	N	1.485059	0.184848	0.246608
N32	N	1.485123	0.184875	-0.246708
C33	C	1.569723	0.100249	0.296423
C34	C	1.569732	0.100248	0.396081
C35	C	1.485081	0.184853	0.445922
C36	C	1.400408	0.269456	0.396100
C37	C	1.400394	0.269449	0.296444
C38	C	1.400444	0.269465	0.603814
C39	C	1.400459	0.269474	0.703477
C40	C	1.569781	0.100264	0.703451
C41	C	1.569768	0.100258	0.603795
C42	C	1.485096	0.184862	0.553980
H43	H	0.866296	0.181719	-0.156646
H44	H	0.873205	0.269928	0.224154
H45	H	1.096773	0.099802	0.224181
H46	H	1.331451	0.338336	0.255886
H47	H	1.391797	-0.410212	-0.216937
H48	H	1.488191	-0.196288	0.156524
H49	H	1.570184	-0.426927	-0.224275
H50	H	0.889904	0.091538	0.216818
N51	N	1.121339	0.188423	-0.179426
H52	H	1.059980	0.186797	-0.234106
H53	H	1.166217	0.267571	-0.183194
N54	N	1.089704	0.307920	0.226864
H55	H	1.012269	0.363997	0.246642
H56	H	1.145468	0.288394	0.284137
N57	N	1.371912	-0.188293	-0.236677
H58	H	1.399171	-0.138932	-0.293174
H59	H	1.318146	-0.255495	-0.259222
H60	H	1.481888	-0.433988	0.156528
N61	N	1.608202	-0.210434	-0.226969
H62	H	1.664274	-0.287866	-0.246756
H63	H	1.588690	-0.154645	-0.284237
N64	N	1.661003	0.008984	0.242660
H65	H	1.717021	0.057484	0.201291
H66	H	1.714552	-0.044600	0.289395
H67	H	1.638671	0.031361	0.436640
N68	N	1.661075	0.009017	0.550035
H69	H	1.714715	-0.044581	0.596712
H70	H	1.612508	-0.046956	0.508701
H71	H	1.638724	0.031377	0.744016
H72	H	1.331526	0.338366	0.744052
N73	N	1.309116	0.360709	0.550082
H74	H	1.255494	0.414311	0.596776
H75	H	1.357671	0.416678	0.508719
N76	N	1.309111	0.360707	0.449861
H77	H	1.324342	0.449979	0.432505
H78	H	1.219890	0.345300	0.432521
