data_functionalizedCrystal
_audit_creation_method	'MofGen! by Chris Wilmer'
_symmetry_space_group_name_H-M	'P1'
_symmetry_Int_Tables_number	1
_symmetry_cell_setting	triclinic
loop_
_symmetry_equiv_pos_as_xyz
  x,y,z
_cell_length_a	17.699077
_cell_length_b	10.654551
_cell_length_c	16.176319
_cell_angle_alpha	89.996057
_cell_angle_beta	89.993140
_cell_angle_gamma	83.882969
loop_
_atom_site_label
_atom_site_type_symbol
_atom_site_fract_x
_atom_site_fract_y
_atom_site_fract_z
O1	O	1.005091	0.158773	-0.068730
O2	O	1.505091	0.658773	0.431270
O3	O	0.784844	0.179442	-0.068734
O4	O	1.284844	0.679442	0.431266
O5	O	0.900031	-0.013720	-0.068732
O6	O	1.400031	0.486280	0.431268
O7	O	0.889904	0.351936	-0.068732
O8	O	1.389904	0.851936	0.431268
O9	O	0.900015	-0.013733	0.068761
O10	O	1.400015	0.486267	0.568761
O11	O	0.784828	0.179430	0.068759
O12	O	1.284828	0.679430	0.568759
O13	O	1.005075	0.158761	0.068763
O14	O	1.505075	0.658761	0.568763
Cu15	Cu	0.894950	0.169094	0.081315
Cu16	Cu	1.394950	0.669094	0.581315
Cu17	Cu	0.894969	0.169109	-0.081286
Cu18	Cu	1.394969	0.669109	0.418714
O19	O	0.889888	0.351923	0.068761
O20	O	1.389888	0.851923	0.568761
C21	C	0.756634	0.178697	0.000012
C22	C	1.256634	0.678697	0.500012
C23	C	0.672602	0.176479	0.000011
C24	C	1.172602	0.676479	0.500011
C25	C	0.633119	0.175427	0.074959
C26	C	1.133119	0.675427	0.574959
C27	C	0.554163	0.173323	0.074960
C28	C	1.054163	0.673323	0.574960
C29	C	0.514691	0.172279	0.000012
C30	C	1.014691	0.672279	0.500012
C31	C	0.554179	0.173328	-0.074943
C32	C	1.054179	0.673328	0.425057
C33	C	0.633134	0.175423	-0.074943
C34	C	1.133134	0.675423	0.425057
C35	C	0.235762	0.164877	-0.074944
C36	C	0.735762	0.664877	0.425056
C37	C	0.156801	0.162785	-0.074938
C38	C	0.656801	0.662785	0.425062
C39	C	0.156791	0.162777	0.074958
C40	C	0.656791	0.662777	0.574958
C41	C	0.235746	0.164872	0.074958
C42	C	0.735746	0.664872	0.574958
C43	C	0.275228	0.165913	0.000005
C44	C	0.775228	0.665913	0.500005
C45	C	0.360841	0.168192	0.000005
C46	C	0.860841	0.668192	0.500005
C47	C	0.429078	0.170009	0.000011
C48	C	0.929078	0.670009	0.500011
C49	C	0.899279	-0.060511	0.000012
C50	C	1.399279	0.439489	0.500012
C51	C	0.897054	-0.199915	0.000007
C52	C	1.397054	0.300085	0.500007
C53	C	0.896019	-0.265402	-0.074939
C54	C	1.396019	0.234598	0.425061
C55	C	0.893922	-0.396386	-0.074936
C56	C	1.393922	0.103614	0.425064
C57	C	0.893898	-0.396385	0.074967
C58	C	1.393898	0.103615	0.574967
C59	C	0.895990	-0.265402	0.074962
C60	C	1.395990	0.234598	0.574962
C61	C	0.897083	-0.199916	-0.149895
C62	C	1.397083	0.300084	0.350105
C63	C	0.896049	-0.265403	-0.224847
C64	C	1.396049	0.234597	0.275153
C65	C	0.893952	-0.396386	-0.224844
C66	C	1.393952	0.103614	0.275156
C67	C	0.892889	-0.461883	-0.149888
C68	C	1.392889	0.038117	0.350112
C69	C	1.033285	0.159506	0.000015
C70	C	1.533285	0.659506	0.500015
C71	C	1.117318	0.161724	0.000011
C72	C	1.617318	0.661724	0.500011
C73	C	0.890640	0.398714	0.000015
C74	C	1.390640	0.898714	0.500015
C75	C	0.892865	0.538119	0.000015
C76	C	1.392865	1.038119	0.500015
N77	N	0.894942	0.169083	0.195680
N78	N	1.394942	0.669083	0.695680
N79	N	0.894983	0.169110	-0.195652
N80	N	1.394983	0.669110	0.304348
C81	C	0.945963	0.083586	0.238945
C82	C	1.445963	0.583586	0.738945
C83	C	0.945967	0.083584	0.325492
C84	C	1.445967	0.583584	0.825492
C85	C	0.894953	0.169088	0.368773
C86	C	1.394953	0.669088	0.868773
C87	C	0.843927	0.254589	0.325502
C88	C	1.343927	0.754589	0.825502
C89	C	0.843920	0.254584	0.238957
C90	C	1.343920	0.754584	0.738957
C91	C	0.843953	0.254613	0.674530
C92	C	1.343953	0.754613	1.174530
C93	C	0.843965	0.254614	0.761082
C94	C	1.343965	0.754614	1.261082
C95	C	0.946000	0.083614	0.761066
C96	C	1.446000	0.583614	1.261066
C97	C	0.945993	0.083608	0.674521
C98	C	1.445993	0.583608	1.174521
C99	C	0.894964	0.169105	0.631257
C100	C	1.394964	0.669105	1.131257
C101	C	0.894960	0.169103	0.537413
C102	C	1.394960	0.669103	1.037413
C103	C	0.894961	0.169096	0.462616
C104	C	1.394961	0.669096	0.962616
H105	H	0.522035	0.172469	-0.135967
H106	H	1.022035	0.672469	0.364033
C107	C	0.897133	-0.193364	0.157407
C108	C	1.397133	0.306636	0.657407
N109	N	0.897992	-0.139103	0.219506
N110	N	1.397992	0.360897	0.719506
H111	H	0.896907	-0.212066	-0.285874
H112	H	1.396907	0.287934	0.214126
C113	C	0.787804	0.348632	0.373114
C114	C	1.287804	0.848632	0.873114
N115	N	0.745531	0.419467	0.408975
N116	N	1.245531	0.919467	0.908975
H117	H	0.802373	0.324203	0.203731
H118	H	1.302373	0.824203	0.703731
H119	H	0.124665	0.161935	-0.135974
H120	H	0.624665	0.661935	0.364026
H121	H	0.665280	0.176282	-0.135973
H122	H	1.165280	0.676282	0.364027
H123	H	0.893033	-0.449722	0.135992
H124	H	1.393033	0.050278	0.635992
C125	C	1.002075	-0.010500	0.373080
C126	C	1.502075	0.489500	0.873080
N127	N	1.044332	-0.081380	0.408922
N128	N	1.544332	0.418620	0.908922
C129	C	0.892837	-0.468424	-0.307291
C130	C	1.392837	0.031576	0.192709
N131	N	0.892012	-0.522683	-0.369394
N132	N	1.392012	-0.022683	0.130606
H133	H	0.267899	0.165721	-0.135976
H134	H	0.767899	0.665721	0.364024
H135	H	0.987507	0.013965	0.203712
H136	H	1.487507	0.513965	0.703712
C137	C	1.002110	-0.010455	0.626917
C138	C	1.502110	0.489545	1.126917
N139	N	1.044376	-0.081309	0.591063
N140	N	1.544376	0.418691	1.091063
H141	H	0.891170	-0.568536	-0.149891
H142	H	1.391170	-0.068536	0.350109
C143	C	1.002126	-0.010446	0.808663
C144	C	1.502126	0.489554	1.308663
N145	N	1.044400	-0.081289	0.844512
N146	N	1.544400	0.418711	1.344512
H147	H	0.267880	0.165728	0.135989
H148	H	0.767880	0.665728	0.635989
C149	C	0.787919	0.348824	0.626952
C150	C	1.287919	0.848824	1.126952
N151	N	0.745747	0.419847	0.591113
N152	N	1.245747	0.919847	1.091113
C153	C	0.676531	0.176574	0.157410
C154	C	1.176531	0.676574	0.657410
N155	N	0.709228	0.177431	0.219514
N156	N	1.209228	0.677431	0.719514
C157	C	0.510733	0.172195	0.157409
C158	C	1.010733	0.672195	0.657409
N159	N	0.478022	0.171355	0.219514
N160	N	0.978022	0.671355	0.719514
H161	H	0.124635	0.161923	0.135989
H162	H	0.624635	0.661923	0.635989
C163	C	0.899318	-0.055815	-0.149906
C164	C	1.399318	0.444185	0.350094
N165	N	0.900976	0.052727	-0.149913
N166	N	1.400976	0.552727	0.350087
C167	C	0.787839	0.348671	0.808689
C168	C	1.287839	0.848671	1.308689
N169	N	0.745566	0.419510	0.844547
N170	N	1.245566	0.919510	1.344547
