data_functionalizedCrystal
_audit_creation_method	'MofGen! by Chris Wilmer'
_symmetry_space_group_name_H-M	'P1'
_symmetry_Int_Tables_number	1
_symmetry_cell_setting	triclinic
loop_
_symmetry_equiv_pos_as_xyz
  x,y,z
_cell_length_a	12.759400
_cell_length_b	12.759401
_cell_length_c	12.759393
_cell_angle_alpha	90.019559
_cell_angle_beta	89.968436
_cell_angle_gamma	89.987166
loop_
_atom_site_label
_atom_site_type_symbol
_atom_site_fract_x
_atom_site_fract_y
_atom_site_fract_z
Zn1	Zn	-0.418256	-1.606255	-0.594011
Zn2	Zn	-0.593975	-1.606150	-0.418331
Zn3	Zn	-0.418305	-1.430557	-0.418347
Zn4	Zn	-0.593888	-1.430546	-0.593969
O5	O	-0.506106	-1.518377	-0.506165
O6	O	-0.441582	-1.753262	-0.570718
O7	O	-0.570729	-1.582818	-0.271312
O8	O	-0.271278	-1.453913	-0.441674
O9	O	-0.570682	-1.753185	-0.441646
O10	O	-0.271242	-1.582998	-0.570733
O11	O	-0.441665	-1.453811	-0.271324
O12	O	-0.441581	-1.283535	-0.441633
O13	O	-0.570533	-1.453894	-0.740996
O14	O	-0.570581	-1.283527	-0.570662
O15	O	-0.441497	-1.582987	-0.741027
O16	O	-0.740985	-1.582807	-0.441606
O17	O	-0.740921	-1.453791	-0.570647
C18	C	-0.506077	-1.245410	-0.506145
C19	C	-0.506090	-1.128633	-0.506162
C20	C	-0.573366	-1.073794	-0.573235
C21	C	-0.573375	-0.964070	-0.573245
C22	C	-0.438830	-0.964034	-0.439099
C23	C	-0.438816	-1.073756	-0.439095
C24	C	-0.651048	-1.073815	-0.650680
C25	C	-0.651058	-0.964091	-0.650690
C26	C	-0.779073	-1.518315	-0.506143
C27	C	-0.895850	-1.518384	-0.506169
C28	C	-0.950710	-1.585637	-0.439051
C29	C	-1.060435	-1.585702	-0.439084
C30	C	-1.060428	-1.451252	-0.573354
C31	C	-0.950706	-1.451193	-0.573326
C32	C	-0.895855	-1.652828	-0.371894
C33	C	-0.950715	-1.720086	-0.304771
C34	C	-1.060439	-1.720150	-0.304803
C35	C	-1.115303	-1.652957	-0.371959
C36	C	-0.232073	-1.518468	-0.506210
C37	C	-0.115296	-1.518507	-0.506229
C38	C	-0.506000	-1.518451	-0.780198
C39	C	-0.505955	-1.518482	-0.896975
C40	C	-0.506127	-0.792410	-0.506180
C41	C	-0.506113	-0.909187	-0.506175
C42	C	-0.438759	-1.585710	-0.951855
C43	C	-0.438722	-1.585735	-1.061579
C44	C	-0.573083	-1.451301	-1.061534
C45	C	-0.573115	-1.451272	-0.951812
C46	C	-0.361190	-1.663328	-0.951881
C47	C	-0.361152	-1.663353	-1.061606
C48	C	-0.506136	-1.518364	-0.233197
C49	C	-0.505885	-1.518537	-0.116421
H50	H	-0.384057	-0.919339	-0.384496
C51	C	-0.890356	-1.377196	-0.647142
N52	N	-0.844900	-1.321456	-0.702740
C53	C	-0.646954	-1.377372	-1.121865
N54	N	-0.702596	-1.321687	-1.167305
H55	H	-0.279825	-1.641559	-0.922125
C56	C	-0.760950	-0.923833	-0.621051
N57	N	-0.843718	-0.893512	-0.598726
H58	H	-0.384027	-1.118401	-0.384485
H59	H	-0.627829	-1.396525	-0.907133
H60	H	-0.390361	-1.740599	-0.917847
C61	C	-0.256693	-1.624072	-1.107608
N62	N	-0.178013	-1.594497	-1.142258
H63	H	-0.629350	-1.103623	-0.732088
H64	H	-0.806512	-1.652780	-0.371858
H65	H	-0.728301	-1.107829	-0.621396
C66	C	-0.611805	-0.918156	-0.755180
N67	N	-0.582233	-0.883556	-0.833878
H68	H	-1.105104	-1.774922	-0.250156
C69	C	-0.890363	-1.793996	-0.230906
N70	N	-0.844908	-1.849667	-0.175269
H71	H	-1.204647	-1.653024	-0.371988
H72	H	-0.382947	-1.744723	-1.091385
C73	C	-1.120782	-1.377335	-0.647210
N74	N	-1.166241	-1.321655	-0.702835
