data_functionalizedCrystal
_audit_creation_method	'MofGen! by Chris Wilmer'
_symmetry_space_group_name_H-M	'P1'
_symmetry_Int_Tables_number	1
_symmetry_cell_setting	triclinic
loop_
_symmetry_equiv_pos_as_xyz
  x,y,z
_cell_length_a	19.077212
_cell_length_b	13.031981
_cell_length_c	19.076919
_cell_angle_alpha	84.787276
_cell_angle_beta	89.885058
_cell_angle_gamma	99.167303
loop_
_atom_site_label
_atom_site_type_symbol
_atom_site_fract_x
_atom_site_fract_y
_atom_site_fract_z
Zn1	Zn	1.027259	-0.379268	-0.406872
Zn2	Zn	1.018199	-0.546697	-0.274483
Zn3	Zn	0.914519	-0.378718	-0.284696
Zn4	Zn	0.894878	-0.560632	-0.385977
O5	O	0.963714	-0.466329	-0.338007
O6	O	1.124849	-0.395876	-0.393780
O7	O	1.008874	-0.518351	-0.178046
O8	O	0.941486	-0.232590	-0.313922
O9	O	1.118193	-0.518885	-0.296515
O10	O	1.024315	-0.232994	-0.403684
O11	O	0.932701	-0.394938	-0.185550
O12	O	0.813122	-0.408451	-0.293661
O13	O	0.908010	-0.542636	-0.486541
O14	O	0.798691	-0.542103	-0.368072
O15	O	1.005270	-0.409389	-0.501892
O16	O	0.989829	-0.694746	-0.276254
O17	O	0.899225	-0.704985	-0.358169
C18	C	0.780291	-0.476730	-0.329708
C19	C	0.701819	-0.481206	-0.326172
C20	C	0.941431	-0.737774	-0.313852
C21	C	0.931962	-0.853897	-0.303545
C22	C	0.259732	-0.513267	-0.300848
C23	C	0.333465	-0.509055	-0.304165
C24	C	0.373787	-0.443019	-0.356528
C25	C	0.340373	-0.381183	-0.405572
C26	C	0.266641	-0.385390	-0.402251
C27	C	0.594673	-0.423577	-0.371895
C28	C	0.668409	-0.419377	-0.375214
C29	C	0.661496	-0.547249	-0.273806
C30	C	0.587763	-0.551454	-0.270492
C31	C	0.554356	-0.489614	-0.319533
N32	N	0.449155	-0.438715	-0.359922
N33	N	0.478990	-0.493913	-0.316136
C34	C	0.968693	-0.905789	-0.343402
C35	C	0.958907	-1.025808	-0.332750
C36	C	1.147853	-0.455887	-0.346339
C37	C	1.226322	-0.451438	-0.349889
C38	C	0.955459	-0.477628	-0.520282
C39	C	0.951942	-0.482443	-0.597956
C40	C	0.986102	-0.193823	-0.362273
C41	C	0.995643	-0.077698	-0.372613
C42	C	1.000925	-0.415334	-0.642441
C43	C	0.997612	-0.419855	-0.715425
C44	C	0.945318	-0.491491	-0.743921
C45	C	0.896330	-0.558604	-0.699431
C46	C	0.899641	-0.554077	-0.626449
C47	C	0.929984	-0.512464	-0.961336
C48	C	0.926678	-0.516988	-1.034323
C49	C	1.027959	-0.378237	-1.050312
C50	C	1.031268	-0.373721	-0.977328
C51	C	0.982278	-0.440829	-0.932844
N52	N	0.941931	-0.496116	-0.818522
N53	N	0.985662	-0.436199	-0.858245
C54	C	0.971983	-0.454995	-0.156450
C55	C	0.975661	-0.449878	-0.078808
H56	H	0.360664	-0.559402	-0.264229
H57	H	0.567481	-0.373227	-0.411831
C58	C	1.131123	-0.348671	-0.900820
C59	C	1.088721	-0.294949	-0.945991
H60	H	1.166587	-0.300032	-0.881474
H61	H	1.102421	-0.388006	-0.863897
H62	H	1.153126	-0.394396	-0.926462
H63	H	1.066714	-0.249228	-0.920349
H64	H	1.117427	-0.255596	-0.982921
C65	C	0.180655	-0.381660	-0.493802
C66	C	0.229912	-0.317429	-0.456159
H67	H	0.157978	-0.339698	-0.527079
H68	H	0.204479	-0.427244	-0.517723
H69	H	0.146094	-0.421586	-0.462133
H70	H	0.264475	-0.277508	-0.487828
H71	H	0.206087	-0.271826	-0.432238
C72	C	0.900280	-0.882424	-0.180644
C73	C	0.879726	-0.913859	-0.246831
H74	H	0.868028	-0.919437	-0.145633
H75	H	0.946738	-0.896882	-0.171040
H76	H	0.900003	-0.809634	-0.180370
H77	H	0.880009	-0.986648	-0.247107
H78	H	0.833256	-0.899409	-0.256438
H79	H	1.007382	-0.861365	-0.385415
C80	C	0.165740	-0.657905	-0.274741
C81	C	0.215413	-0.585860	-0.243289
H82	H	0.138385	-0.702724	-0.239203
H83	H	0.135291	-0.621686	-0.303466
H84	H	0.189860	-0.698179	-0.302875
H85	H	0.191293	-0.545581	-0.215159
H86	H	0.245866	-0.622083	-0.214552
H87	H	1.067843	-0.323600	-1.086538
C88	C	0.829528	-0.650043	-0.952875
C89	C	0.876127	-0.586216	-0.912447
H90	H	0.796278	-0.695575	-0.922689
H91	H	0.804989	-0.607812	-0.984178
H92	H	0.855717	-0.690043	-0.979167
H93	H	0.849938	-0.546211	-0.886158
H94	H	0.900668	-0.628453	-0.881131
C95	C	0.838182	-1.064454	-0.290211
C96	C	0.906668	-1.085768	-0.276035
H97	H	0.805933	-1.101477	-0.255200
H98	H	0.837911	-0.991674	-0.289924
H99	H	0.824252	-1.085774	-0.335118
H100	H	0.920600	-1.064441	-0.231129
H101	H	0.906941	-1.158565	-0.276314
C102	C	0.784505	-0.356159	-0.425332
C103	C	0.712734	-0.346781	-0.432773
H104	H	0.811867	-0.311349	-0.460869
H105	H	0.799961	-0.337162	-0.380314
H106	H	0.790360	-0.426324	-0.429780
H107	H	0.706878	-0.276617	-0.428320
H108	H	0.697274	-0.365771	-0.477802
C109	C	1.047466	-0.910450	-0.428906
C110	C	1.047880	-1.017740	-0.429330
H111	H	1.079718	-0.873437	-0.463918
H112	H	1.001006	-0.896007	-0.438517
H113	H	1.061406	-0.889142	-0.383998
H114	H	1.033936	-1.039049	-0.474237
H115	H	1.094350	-1.032190	-0.419724
H116	H	0.554937	-0.605227	-0.227851
H117	H	0.373210	-0.327410	-0.448205
H118	H	0.853749	-0.616928	-0.722639
C119	C	1.100698	-0.278633	-0.665584
C120	C	1.058407	-0.336586	-0.611121
H121	H	1.136181	-0.230010	-0.646249
H122	H	1.122671	-0.324386	-0.691217
H123	H	1.071921	-0.242185	-0.696215
H124	H	1.087183	-0.373040	-0.580493
H125	H	1.036433	-0.290826	-0.585477
H126	H	1.037500	-0.365210	-0.751642
C127	C	0.799215	-0.691707	-0.617969
C128	C	0.845808	-0.627863	-0.577547
H129	H	0.765984	-0.737266	-0.587778
H130	H	0.774652	-0.649489	-0.649258
H131	H	0.825411	-0.731677	-0.644277
H132	H	0.819613	-0.587887	-0.551243
H133	H	0.870373	-0.670086	-0.546246
H134	H	0.688705	-0.597595	-0.233878
H135	H	0.884092	-0.575325	-1.057522
