data_functionalizedCrystal
_audit_creation_method	'MofGen! by Chris Wilmer'
_symmetry_space_group_name_H-M	'P1'
_symmetry_Int_Tables_number	1
_symmetry_cell_setting	triclinic
loop_
_symmetry_equiv_pos_as_xyz
  x,y,z
_cell_length_a	8.497374
_cell_length_b	8.497374
_cell_length_c	10.685901
_cell_angle_alpha	85.620189
_cell_angle_beta	94.363391
_cell_angle_gamma	90.005237
loop_
_atom_site_label
_atom_site_type_symbol
_atom_site_fract_x
_atom_site_fract_y
_atom_site_fract_z
Zn1	Zn	0.812926	0.706790	1.929069
Zn2	Zn	1.312926	1.206790	2.429069
Zn3	Zn	1.076671	0.443056	1.929059
Zn4	Zn	1.576671	0.943056	2.429059
Zn5	Zn	0.792713	0.463282	1.718115
Zn6	Zn	1.292713	0.963282	2.218115
Zn7	Zn	1.056469	0.727055	1.718085
Zn8	Zn	1.556469	1.227055	2.218085
O9	O	0.934695	0.585046	1.823582
O10	O	1.434695	1.085046	2.323582
O11	O	0.864827	0.654859	2.105645
O12	O	1.364827	1.154859	2.605645
O13	O	1.038999	0.224976	1.901085
O14	O	1.538999	0.724976	2.401085
O15	O	0.574634	0.495568	1.746116
O16	O	1.074634	0.995568	2.246116
O17	O	1.058599	0.461095	2.105638
O18	O	1.558599	0.961095	2.605638
O19	O	0.589484	0.674471	1.901102
O20	O	1.089484	1.174471	2.401102
O21	O	0.830376	0.239836	1.746106
O22	O	1.330376	0.739836	2.246106
O23	O	0.810787	0.515218	1.541533
O24	O	1.310787	1.015218	2.041533
O25	O	1.024167	0.945130	1.746064
O26	O	1.524167	1.445130	2.246064
O27	O	1.004567	0.709011	1.541511
O28	O	1.504567	1.209011	2.041511
O29	O	0.845237	0.930241	1.901073
O30	O	1.345237	1.430241	2.401073
O31	O	1.294752	0.480746	1.901056
O32	O	1.794752	0.980746	2.401056
O33	O	1.279909	0.689398	1.746054
O34	O	1.779909	1.189398	2.246054
C35	C	0.903292	0.616509	1.495737
C36	C	1.403292	1.116509	1.995737
C37	C	0.889896	0.630007	1.355484
C38	C	1.389896	1.130007	1.855484
C39	C	1.344573	0.585070	1.823566
C40	C	1.844573	1.085070	2.323566
C41	C	1.523220	0.585041	1.823600
C42	C	2.023220	1.085041	2.323600
C43	C	0.934696	0.996527	1.823573
C44	C	1.434696	1.496527	2.323573
C45	C	0.934713	1.175171	1.823575
C46	C	1.434713	1.675171	2.323575
C47	C	0.966221	0.553460	2.152706
C48	C	1.466221	1.053460	2.652706
C49	C	0.979655	0.540001	2.292960
C50	C	1.479655	1.040001	2.792960
H51	H	1.066755	0.452628	1.346728
H52	H	1.566755	0.952628	1.846728
F53	F	0.776061	0.744238	1.285203
F54	F	1.276061	1.244238	1.785203
