data_functionalizedCrystal
_audit_creation_method	'MofGen! by Chris Wilmer'
_symmetry_space_group_name_H-M	'P1'
_symmetry_Int_Tables_number	1
_symmetry_cell_setting	triclinic
loop_
_symmetry_equiv_pos_as_xyz
  x,y,z
_cell_length_a	18.101398
_cell_length_b	13.033732
_cell_length_c	18.101389
_cell_angle_alpha	82.811110
_cell_angle_beta	89.971872
_cell_angle_gamma	82.821628
loop_
_atom_site_label
_atom_site_type_symbol
_atom_site_fract_x
_atom_site_fract_y
_atom_site_fract_z
Zn1	Zn	-1.169691	0.416261	0.381519
Zn2	Zn	-1.185357	0.590984	0.241982
Zn3	Zn	-1.045849	0.416249	0.257673
Zn4	Zn	-1.061567	0.590939	0.365766
O5	O	-1.115616	0.503608	0.311735
O6	O	-1.275404	0.439461	0.363035
O7	O	-1.166829	0.567819	0.140429
O8	O	-1.049143	0.270021	0.287262
O9	O	-1.286914	0.567830	0.260517
O10	O	-1.140129	0.270029	0.378251
O11	O	-1.064333	0.439443	0.151958
O12	O	-0.944299	0.439399	0.271986
O13	O	-1.075931	0.567753	0.471490
O14	O	-0.955847	0.567742	0.351402
O15	O	-1.155370	0.439418	0.483064
O16	O	-1.182070	0.737208	0.245242
O17	O	-1.091122	0.737175	0.336186
C18	C	-0.923201	0.503565	0.311688
C19	C	-0.840888	0.503572	0.311682
C20	C	-1.140021	0.775107	0.287318
C21	C	-1.150530	0.891256	0.276897
C22	C	-0.690181	0.503584	0.311706
C23	C	-0.651526	0.422716	0.261844
C24	C	-0.565880	0.422407	0.262054
C25	C	-0.541799	0.503596	0.311728
C26	C	-0.570288	0.474221	0.392504
C27	C	-0.655879	0.473627	0.392213
C28	C	-0.668546	0.614034	0.281461
C29	C	-0.582841	0.613446	0.279806
C30	C	-0.457940	0.503604	0.311745
C31	C	-0.774039	0.503573	0.311694
C32	C	-0.308780	0.503636	0.311770
C33	C	-0.391092	0.503608	0.311751
C34	C	-1.110182	0.943057	0.317208
C35	C	-1.121042	1.063102	0.306439
C36	C	-1.115656	0.503582	0.504899
C37	C	-1.115674	0.503570	0.587215
C38	C	-1.091132	1.231049	0.336274
C39	C	-1.080688	1.114900	0.346756
C40	C	-1.115611	0.503559	0.119329
C41	C	-1.115711	0.503276	0.037041
C42	C	-1.115699	0.503375	0.886323
C43	C	-1.065498	0.583863	0.847739
C44	C	-1.065687	0.584236	0.762087
C45	C	-1.115686	0.503472	0.737932
C46	C	-1.196410	0.533373	0.766357
C47	C	-1.196137	0.533901	0.851954
C48	C	-1.085838	0.392806	0.864679
C49	C	-1.084160	0.393445	0.778971
C50	C	-1.115683	0.503525	0.654068
C51	C	-1.115707	0.503324	0.970187
H52	H	-0.673702	0.440834	0.202098
H53	H	-0.555101	0.531325	0.431114
C54	C	-0.561708	0.699153	0.324186
H55	H	-0.587299	0.764623	0.303686
H56	H	-0.575259	0.684157	0.374728
H57	H	-0.509526	0.701563	0.321518
H58	H	-0.694257	0.674278	0.317657
H59	H	-1.193111	0.935780	0.234410
C60	C	-0.670707	0.312779	0.289711
H61	H	-0.702167	0.315947	0.331603
H62	H	-0.695596	0.286843	0.251132
H63	H	-0.626187	0.267724	0.303606
C64	C	-1.023154	1.054773	0.404153
H65	H	-0.999246	1.102841	0.428043
H66	H	-1.047631	1.012139	0.440249
H67	H	-0.987081	1.012254	0.379570
H68	H	-0.546477	0.440731	0.202480
H69	H	-1.220287	0.614728	0.864678
H70	H	-0.541662	0.394390	0.417153
C71	C	-0.700932	0.650277	0.202518
H72	H	-0.727954	0.598380	0.187265
H73	H	-0.733305	0.713509	0.202640
H74	H	-0.661511	0.661274	0.168940
H75	H	-1.163626	1.107623	0.263949
C76	C	-1.003846	0.362971	0.754230
H77	H	-0.989581	0.417066	0.719035
H78	H	-0.971187	0.352750	0.796295
H79	H	-1.001227	0.300302	0.732078
H80	H	-1.006139	0.565524	0.742732
H81	H	-1.235251	0.476591	0.751115
H82	H	-1.220773	0.613340	0.737732
C83	C	-0.984839	0.558852	0.877784
H84	H	-0.955454	0.608316	0.853794
H85	H	-0.984254	0.561908	0.929935
H86	H	-0.965043	0.490901	0.868149
C87	C	-1.092974	0.693902	0.866940
H88	H	-1.134909	0.691006	0.898364
H89	H	-1.054277	0.719519	0.891875
H90	H	-1.106701	0.739064	0.822422
H91	H	-1.086210	0.666193	0.734243
C92	C	-1.006993	0.356003	0.897140
H93	H	-0.991547	0.407734	0.924197
H94	H	-1.007366	0.292795	0.929493
H95	H	-0.973419	0.344800	0.857750
C96	C	-0.558040	0.643399	0.199437
H97	H	-0.583061	0.709921	0.180434
H98	H	-0.505800	0.645750	0.199062
H99	H	-0.569969	0.593006	0.169227
C100	C	-0.528254	0.311852	0.290214
H101	H	-0.565313	0.266957	0.301577
H102	H	-0.496808	0.286540	0.252714
H103	H	-0.499435	0.313853	0.333740
C104	C	-0.673066	0.364580	0.425208
H105	H	-0.627776	0.321058	0.438660
H106	H	-0.702826	0.370165	0.468105
H107	H	-0.699186	0.335232	0.389205
C108	C	-0.690782	0.549763	0.444864
H109	H	-0.652636	0.580913	0.466341
H110	H	-0.724672	0.602449	0.417550
H111	H	-0.716558	0.512883	0.483198
H112	H	-1.067595	0.898534	0.359691
C113	C	-1.249112	0.458165	0.886785
H114	H	-1.270708	0.427218	0.848606
H115	H	-1.221985	0.405300	0.920686
H116	H	-1.287339	0.495271	0.912538
H117	H	-1.117261	0.330293	0.763262
H118	H	-1.122281	0.332839	0.890345
