data_functionalizedCrystal
_audit_creation_method	'MofGen! by Chris Wilmer'
_symmetry_space_group_name_H-M	'P1'
_symmetry_Int_Tables_number	1
_symmetry_cell_setting	triclinic
loop_
_symmetry_equiv_pos_as_xyz
  x,y,z
_cell_length_a	10.654550
_cell_length_b	10.654550
_cell_length_c	9.130313
_cell_angle_alpha	89.995631
_cell_angle_beta	89.999724
_cell_angle_gamma	84.484931
loop_
_atom_site_label
_atom_site_type_symbol
_atom_site_fract_x
_atom_site_fract_y
_atom_site_fract_z
O1	O	1.667839	0.176399	-0.121690
O2	O	1.302361	0.193205	-0.121716
O3	O	1.493503	0.002063	-0.121693
O4	O	1.476697	0.367541	-0.121713
O5	O	1.493490	0.002057	0.121906
O6	O	1.302348	0.193199	0.121882
O7	O	1.667826	0.176393	0.121909
Cu8	Cu	1.485086	0.184796	0.144138
Cu9	Cu	1.485101	0.184802	-0.143946
O10	O	1.476684	0.367535	0.121886
C11	C	1.255556	0.191968	0.000080
C12	C	1.116113	0.188276	0.000070
C13	C	1.492263	-0.044738	0.000105
C14	C	1.488571	-0.184181	0.000103
C15	C	1.036628	0.300818	0.000068
C16	C	0.905607	0.297341	0.000093
C17	C	0.933570	0.068772	0.000117
C18	C	1.064588	0.072250	0.000101
C19	C	1.601112	-0.263667	0.000111
C20	C	1.597636	-0.394688	0.000092
C21	C	1.369066	-0.366725	0.000065
C22	C	1.372544	-0.235706	0.000073
C23	C	1.714631	0.177630	0.000110
C24	C	1.854074	0.181322	0.000110
C25	C	1.477925	0.414336	0.000084
C26	C	1.481616	0.553779	0.000077
N27	N	1.485084	0.184790	0.346761
N28	N	1.485113	0.184798	-0.346568
C29	C	1.569751	0.100188	0.423423
C30	C	1.569763	0.100189	0.576760
C31	C	1.400437	0.269404	0.576759
C32	C	1.400420	0.269396	0.423425
H33	H	0.840894	0.388984	0.000095
H34	H	1.078574	0.395294	0.000053
H35	H	1.638687	0.031295	0.361007
H36	H	1.689279	-0.459401	0.000096
H37	H	0.891602	-0.025693	0.000151
O38	O	1.318082	0.351635	0.651006
C39	C	1.150177	0.519517	0.634820
C40	C	1.243359	0.426436	0.550558
H41	H	1.089757	0.580035	0.553644
H42	H	1.086896	0.464771	0.706585
H43	H	1.204966	0.582715	0.706629
H44	H	1.188672	0.363215	0.478670
H45	H	1.306640	0.481260	0.478885
H46	H	1.274601	-0.408693	0.000043
O47	O	1.141630	-0.037198	0.000036
C48	C	1.155550	-0.264275	0.000151
C49	C	1.068158	-0.140430	0.000183
H50	H	1.096184	-0.347770	0.000301
H51	H	1.217559	-0.268447	-0.101823
H52	H	1.217620	-0.268285	0.102068
H53	H	1.006009	-0.136338	-0.101665
H54	H	1.006235	-0.136310	0.102225
H55	H	1.695588	-0.221720	0.000132
H56	H	1.280893	-0.170985	0.000062
O57	O	1.652131	0.017963	0.651002
C58	C	1.820029	-0.149924	0.634811
C59	C	1.726832	-0.056844	0.550551
H60	H	1.880431	-0.210447	0.553633
H61	H	1.883326	-0.095176	0.706543
H62	H	1.765253	-0.213117	0.706652
H63	H	1.781506	0.006371	0.478630
H64	H	1.663535	-0.111670	0.478912
H65	H	1.331468	0.338290	0.361002
