data_functionalizedCrystal
_audit_creation_method	'MofGen! by Chris Wilmer'
_symmetry_space_group_name_H-M	'P1'
_symmetry_Int_Tables_number	1
_symmetry_cell_setting	triclinic
loop_
_symmetry_equiv_pos_as_xyz
  x,y,z
_cell_length_a	11.026660
_cell_length_b	10.065875
_cell_length_c	14.971486
_cell_angle_alpha	98.799645
_cell_angle_beta	83.900518
_cell_angle_gamma	100.697712
loop_
_atom_site_label
_atom_site_type_symbol
_atom_site_fract_x
_atom_site_fract_y
_atom_site_fract_z
O1	O	1.628440	0.113509	-0.364337
O2	O	1.275074	0.113508	-0.321679
O3	O	1.461227	0.113499	-0.214326
O4	O	1.442287	0.113518	-0.471689
O5	O	1.425730	-0.113488	-0.234902
O6	O	1.239577	-0.113479	-0.342255
O7	O	1.592943	-0.113478	-0.384912
Zn8	Zn	1.410624	-0.149518	-0.366850
Zn9	Zn	1.457393	0.149547	-0.339741
O10	O	1.406791	-0.113469	-0.492265
C11	C	1.212104	0.000015	-0.324097
C12	C	1.077356	0.000014	-0.300637
N13	N	1.378715	-0.353621	-0.385353
C14	C	0.864376	0.000021	-0.341175
C15	C	1.003644	0.000020	-0.365424
C16	C	1.446283	-0.421404	-0.346172
C17	C	1.421734	-0.578570	-0.360420
C18	C	1.655914	0.000018	-0.382494
C19	C	1.790663	0.000028	-0.405953
C20	C	1.442631	0.000006	-0.191153
C21	C	1.440093	0.000007	-0.091450
N22	N	1.489312	0.353651	-0.321233
C23	C	1.425387	0.000027	-0.515438
C24	C	1.427926	0.000035	-0.615141
C25	C	1.549453	0.000006	-0.051746
C26	C	1.547063	0.000020	0.041938
C27	C	1.435309	0.000025	0.095916
C28	C	1.325941	0.000030	0.056207
C29	C	1.328334	0.000026	-0.037475
C30	C	1.320960	0.000035	0.251468
C31	C	1.318566	0.000036	0.345156
C32	C	1.539689	0.000029	0.330881
C33	C	1.542082	0.000025	0.237199
C34	C	1.432713	0.000027	0.197496
H35	H	0.824378	-0.000004	-0.267767
H36	H	1.037383	0.000099	-0.227213
Cl37	Cl	1.183465	0.000038	0.201558
H38	H	1.633080	0.000011	0.193251
H39	H	0.830657	0.000024	-0.479364
Cl40	Cl	1.304348	-0.668600	-0.428496
H41	H	1.636115	0.000016	0.074259
H42	H	1.302689	-0.411944	-0.429442
Cl43	Cl	1.563384	-0.331369	-0.277849
Cl44	Cl	1.689949	-0.000014	-0.119597
Cl45	Cl	1.065375	0.000017	-0.478774
H46	H	1.565334	-0.588032	-0.277133
Cl47	Cl	1.677182	0.000033	0.380793
Cl48	Cl	1.178074	0.000041	0.413013
H49	H	1.234951	0.000042	0.100164
Cl50	Cl	1.190847	0.000032	-0.087387
