data_functionalizedCrystal
_audit_creation_method	'MofGen! by Chris Wilmer'
_symmetry_space_group_name_H-M	'P1'
_symmetry_Int_Tables_number	1
_symmetry_cell_setting	triclinic
loop_
_symmetry_equiv_pos_as_xyz
  x,y,z
_cell_length_a	19.188925
_cell_length_b	19.188924
_cell_length_c	12.376457
_cell_angle_alpha	101.235232
_cell_angle_beta	78.745006
_cell_angle_gamma	83.142256
loop_
_atom_site_label
_atom_site_type_symbol
_atom_site_fract_x
_atom_site_fract_y
_atom_site_fract_z
O1	O	0.939580	0.073722	-0.094034
O2	O	1.439580	0.573722	0.405966
O3	O	0.736268	0.085460	-0.094032
O4	O	1.236268	0.585460	0.405968
O5	O	0.843792	-0.022063	-0.094019
O6	O	1.343792	0.477937	0.405981
O7	O	0.832056	0.181245	-0.094046
O8	O	1.332056	0.681245	0.405954
O9	O	0.816920	0.004781	0.093990
O10	O	1.316920	0.504781	0.593990
O11	O	0.709396	0.112305	0.093978
O12	O	1.209396	0.612305	0.593978
O13	O	0.912709	0.100566	0.093975
O14	O	1.412709	0.600566	0.593975
Zn15	Zn	0.806786	0.110697	0.123827
Zn16	Zn	1.306786	0.610697	0.623827
Zn17	Zn	0.842190	0.075329	-0.123883
Zn18	Zn	1.342190	0.575329	0.376117
O19	O	0.805185	0.208090	0.093963
O20	O	1.305185	0.708090	0.593963
C21	C	0.696821	0.098503	-0.000027
C22	C	1.196821	0.598503	0.499973
C23	C	0.619316	0.097364	-0.000025
C24	C	1.119316	0.597364	0.499975
C25	C	0.057546	0.152827	-0.000035
C26	C	0.557546	0.652827	0.499965
C27	C	0.130370	0.153902	-0.000041
C28	C	0.630370	0.653902	0.499959
C29	C	0.175305	0.090812	-0.000031
C30	C	0.675305	0.590812	0.499969
C31	C	0.147414	0.026636	-0.000043
C32	C	0.647414	0.526636	0.499957
C33	C	0.074593	0.025561	-0.000049
C34	C	0.574593	0.525561	0.499951
N35	N	0.286835	0.054274	0.063975
N36	N	0.786835	0.554274	0.563975
N37	N	0.356011	0.055300	0.063982
N38	N	0.856011	0.555300	0.563982
C39	C	0.394712	0.094048	-0.000018
C40	C	0.894712	0.594048	0.499982
N41	N	0.361620	0.131742	-0.064011
N42	N	0.861620	0.631742	0.435989
N43	N	0.292436	0.130719	-0.064014
N44	N	0.792436	0.630719	0.435986
C45	C	0.254268	0.091971	-0.000026
C46	C	0.754268	0.591971	0.499974
C47	C	0.501560	0.159384	-0.000020
C48	C	1.001560	0.659384	0.499980
C49	C	0.574386	0.160456	-0.000034
C50	C	1.074386	0.660456	0.499966
C51	C	0.591427	0.033189	-0.000024
C52	C	1.091427	0.533189	0.499976
C53	C	0.518603	0.032118	-0.000023
C54	C	1.018603	0.532118	0.499977
C55	C	0.473673	0.095218	-0.000015
C56	C	0.973673	0.595218	0.499985
C57	C	0.829977	-0.034652	-0.000014
C58	C	1.329977	0.465348	0.499986
C59	C	0.828837	-0.112156	-0.000011
C60	C	1.328837	0.387844	0.499989
C61	C	0.842954	-0.163188	-0.102495
C62	C	1.342954	0.336812	0.397505
C63	C	0.841875	-0.236012	-0.102503
C64	C	1.341875	0.263988	0.397497
C65	C	0.826693	-0.257802	-0.000022
C66	C	1.326693	0.242198	0.499978
C67	C	0.812571	-0.206759	0.102475
C68	C	1.312571	0.293241	0.602475
C69	C	0.813643	-0.133936	0.102481
C70	C	1.313643	0.366064	0.602481
N71	N	0.853840	-0.366576	0.076252
N72	N	1.353840	0.133424	0.576252
N73	N	0.852824	-0.435756	0.076239
N74	N	1.352824	0.064244	0.576239
C75	C	0.823461	-0.477213	-0.000033
C76	C	1.323461	0.022787	0.499967
N77	N	0.795163	-0.446880	-0.076310
N78	N	1.295163	0.053120	0.423690
N79	N	0.796183	-0.377695	-0.076301
N80	N	1.296183	0.122305	0.423699
C81	C	0.825529	-0.336765	-0.000017
C82	C	1.325529	0.163235	0.499983
C83	C	0.836407	-0.607210	-0.102533
C84	C	1.336407	-0.107210	0.397467
C85	C	0.835324	-0.680034	-0.102538
C86	C	1.335324	-0.180034	0.397462
C87	C	0.806027	-0.650780	0.102444
C88	C	1.306027	-0.150780	0.602444
C89	C	0.807104	-0.577957	0.102445
C90	C	1.307104	-0.077957	0.602445
C91	C	0.822298	-0.556177	-0.000046
C92	C	1.322298	-0.056177	0.499954
C93	C	0.952156	0.087523	-0.000032
C94	C	1.452156	0.587523	0.499968
C95	C	1.029662	0.088661	-0.000041
C96	C	1.529662	0.588661	0.499959
C97	C	0.819000	0.220678	-0.000045
C98	C	1.319000	0.720678	0.499955
C99	C	0.820141	0.298181	-0.000055
C100	C	1.320141	0.798181	0.499945
N101	N	0.782629	0.134835	0.292882
N102	N	1.282629	0.634835	0.792882
N103	N	0.866353	0.051186	-0.292939
N104	N	1.366353	0.551186	0.207061
C105	C	0.922430	-0.004859	0.647883
C106	C	1.422430	0.495141	1.147883
C107	C	0.939334	-0.021753	0.529545
C108	C	1.439334	0.478247	1.029545
C109	C	0.900159	0.017392	0.470374
C110	C	1.400159	0.517392	0.970374
C111	C	0.844078	0.073435	0.529552
C112	C	1.344078	0.573435	1.029552
C113	C	0.827176	0.090334	0.647901
C114	C	1.327176	0.590334	1.147901
C115	C	0.804905	0.112586	0.470392
C116	C	1.304905	0.612586	0.970392
C117	C	0.748823	0.168629	0.529570
C118	C	1.248823	0.668629	1.029570
C119	C	0.731924	0.185525	0.647908
C120	C	1.231924	0.685525	1.147908
C121	C	0.771099	0.146379	0.707079
C122	C	1.271099	0.646379	1.207079
C123	C	0.821807	0.095686	0.352042
C124	C	1.321807	0.595686	0.852042
C125	C	0.726552	0.190880	0.352060
C126	C	1.226552	0.690880	0.852060
C127	C	0.709648	0.207774	0.470398
C128	C	1.209648	0.707774	0.970398
H129	H	0.020968	0.204207	-0.000034
H130	H	0.520968	0.704207	0.499966
H131	H	0.855324	-0.145460	-0.185952
H132	H	1.355324	0.354540	0.314048
H133	H	0.464975	0.210763	-0.000016
H134	H	0.964975	0.710763	0.499984
H135	H	0.153076	0.206157	-0.000026
H136	H	0.653076	0.706157	0.499974
H137	H	0.853366	-0.277569	-0.185961
H138	H	1.353366	0.222431	0.314039
H139	H	0.795615	-0.536406	0.185899
H140	H	1.295615	-0.036406	0.685899
H141	H	0.867468	0.050056	0.303870
H142	H	1.367468	0.550056	0.803870
H143	H	0.984995	-0.067382	0.481367
H144	H	1.484995	0.432618	0.981367
H145	H	0.802145	-0.092384	0.185938
H146	H	1.302145	0.407616	0.685938
H147	H	0.757334	0.160132	0.803440
H148	H	1.257334	0.660132	1.303440
H149	H	0.848775	-0.589475	-0.185988
H150	H	1.348775	-0.089475	0.314012
H151	H	0.913925	0.003634	0.374018
H152	H	1.413925	0.503634	0.874018
H153	H	0.597088	0.212708	-0.000038
H154	H	1.097088	0.712708	0.499962
H155	H	0.184005	-0.024733	-0.000038
H156	H	0.684005	0.475267	0.499962
H157	H	0.846816	-0.721584	-0.185996
H158	H	1.346816	-0.221584	0.314004
H159	H	0.686265	0.231163	0.696091
H160	H	1.186265	0.731163	1.196091
H161	H	0.954325	-0.036723	0.696068
H162	H	1.454325	0.463277	1.196068
H163	H	0.663986	0.253406	0.518596
H164	H	1.163986	0.753406	1.018596
H165	H	0.051891	-0.026692	-0.000054
H166	H	0.551891	0.473308	0.499946
H167	H	0.628014	-0.018182	-0.000025
H168	H	1.128014	0.481818	0.499975
H169	H	0.694653	0.222757	0.303884
H170	H	1.194653	0.722757	0.803884
H171	H	0.495900	-0.020132	-0.000021
H172	H	0.995900	0.479868	0.499979
H173	H	0.793660	-0.668520	0.185886
H174	H	1.293660	-0.168520	0.685886
H175	H	0.800208	-0.224505	0.185916
H176	H	1.300208	0.275495	0.685916
