data_functionalizedCrystal
_audit_creation_method	'MofGen! by Chris Wilmer'
_symmetry_space_group_name_H-M	'P1'
_symmetry_Int_Tables_number	1
_symmetry_cell_setting	triclinic
loop_
_symmetry_equiv_pos_as_xyz
  x,y,z
_cell_length_a	11.792241
_cell_length_b	14.472310
_cell_length_c	11.792241
_cell_angle_alpha	90.000647
_cell_angle_beta	95.806584
_cell_angle_gamma	89.989940
loop_
_atom_site_label
_atom_site_type_symbol
_atom_site_fract_x
_atom_site_fract_y
_atom_site_fract_z
O1	O	1.506926	-0.076752	-0.155559
O2	O	2.006926	0.423248	0.344441
O3	O	1.176585	-0.076773	-0.171592
O4	O	1.676585	0.423227	0.328408
O5	O	1.349772	-0.076755	0.001595
O6	O	1.849772	0.423245	0.501595
O7	O	1.333739	-0.076769	-0.328746
O8	O	1.833739	0.423231	0.171254
O9	O	1.349723	0.076927	0.001583
O10	O	1.849723	0.576927	0.501583
O11	O	1.176536	0.076909	-0.171604
O12	O	1.676536	0.576909	0.328396
O13	O	1.506877	0.076930	-0.155571
O14	O	2.006877	0.576930	0.344429
Cu15	Cu	1.341702	0.090952	-0.163589
Cu16	Cu	1.841702	0.590952	0.336411
Cu17	Cu	1.341760	-0.090795	-0.163574
Cu18	Cu	1.841760	0.409205	0.336426
O19	O	1.333690	0.076913	-0.328758
O20	O	1.833690	0.576913	0.171242
C21	C	1.134269	0.000065	-0.170591
C22	C	1.634269	0.500065	0.329409
C23	C	1.008255	0.000057	-0.167576
C24	C	1.508255	0.500057	0.332424
N25	N	1.341669	0.218783	-0.163598
N26	N	1.841669	0.718783	0.336402
C27	C	0.777543	0.000084	-0.162034
C28	C	1.277543	0.500084	0.337966
C29	C	0.905928	0.000069	-0.165113
C30	C	1.405928	0.500069	0.334887
C31	C	1.341739	0.592874	-0.163579
C32	C	1.841739	1.092874	0.336421
C33	C	1.248757	0.553699	-0.255933
C34	C	1.748757	1.053699	0.244067
C35	C	1.248978	0.446611	-0.256272
C36	C	1.748978	0.946611	0.243728
C37	C	1.341704	0.407283	-0.163589
C38	C	1.841704	0.907283	0.336411
C39	C	1.460290	0.446127	-0.190184
C40	C	1.960290	0.946127	0.309816
C41	C	1.459765	0.553248	-0.190843
C42	C	1.959765	1.053248	0.309157
C43	C	1.317192	0.553407	-0.044360
C44	C	1.817192	1.053407	0.455640
C45	C	1.314483	0.446279	-0.045136
C46	C	1.814483	0.946279	0.454864
C47	C	1.341691	0.302395	-0.163592
C48	C	1.841691	0.802395	0.336408
C49	C	1.341760	0.697762	-0.163579
C50	C	1.841760	1.197762	0.336421
C51	C	1.549192	0.000090	-0.156572
C52	C	2.049192	0.500090	0.343428
C53	C	1.675206	0.000092	-0.159587
C54	C	2.175206	0.500092	0.340413
N55	N	1.341774	0.781374	-0.163570
N56	N	1.841774	1.281374	0.336430
C57	C	1.348740	0.000085	0.043880
C58	C	1.848740	0.500085	0.543880
C59	C	1.345726	0.000084	0.169894
C60	C	1.845726	0.500084	0.669894
C61	C	1.334721	0.000070	-0.371043
C62	C	1.834721	0.500070	0.128957
C63	C	1.337736	0.000065	-0.497057
C64	C	1.837736	0.500065	0.002943
C65	C	1.340183	0.000068	0.400606
C66	C	1.840183	0.500068	0.900606
C67	C	1.343262	0.000077	0.272221
C68	C	1.843262	0.500077	0.772221
H69	H	1.160854	0.420350	-0.240318
H70	H	1.660854	0.920350	0.259682
H71	H	1.227246	0.420892	-0.024970
H72	H	1.727246	0.920892	0.475030
H73	H	1.160348	0.579482	-0.240232
H74	H	1.660348	1.079482	0.259768
H75	H	1.232555	0.580470	-0.018968
H76	H	1.732555	1.080470	0.481032
H77	H	1.481286	0.578222	-0.277811
H78	H	1.981286	1.078222	0.222189
H79	H	1.264295	0.580606	-0.343889
H80	H	1.764295	1.080606	0.156111
H81	H	1.531156	0.579161	-0.126268
H82	H	2.031156	1.079161	0.373732
H83	H	1.531166	0.420650	-0.124738
H84	H	2.031166	0.920650	0.375262
H85	H	1.482307	0.419287	-0.276165
H86	H	1.982307	0.919287	0.223835
H87	H	1.377754	0.419512	0.026866
H88	H	1.877754	0.919512	0.526866
H89	H	1.384991	0.578740	0.024375
H90	H	1.884991	1.078740	0.524375
H91	H	1.264731	0.420974	-0.344726
H92	H	1.764731	0.920974	0.155274
