data_functionalizedCrystal
_audit_creation_method	'MofGen! by Chris Wilmer'
_symmetry_space_group_name_H-M	'P1'
_symmetry_Int_Tables_number	1
_symmetry_cell_setting	triclinic
loop_
_symmetry_equiv_pos_as_xyz
  x,y,z
_cell_length_a	12.759395
_cell_length_b	16.120484
_cell_length_c	16.120256
_cell_angle_alpha	95.616173
_cell_angle_beta	92.880601
_cell_angle_gamma	92.926975
loop_
_atom_site_label
_atom_site_type_symbol
_atom_site_fract_x
_atom_site_fract_y
_atom_site_fract_z
Zn1	Zn	1.552087	-0.356727	-0.489405
Zn2	Zn	2.052087	0.143273	0.010595
Zn3	Zn	1.551955	-0.489413	-0.356715
Zn4	Zn	2.051955	0.010587	0.143285
Zn5	Zn	1.385777	-0.349663	-0.349656
Zn6	Zn	1.885777	0.150337	0.150344
Zn7	Zn	1.366966	-0.496463	-0.496445
Zn8	Zn	1.866966	0.003537	0.003555
O9	O	1.464196	-0.423067	-0.423055
O10	O	1.964196	0.076933	0.076945
O11	O	1.699090	-0.374335	-0.471812
O12	O	2.199090	0.125665	0.028188
O13	O	1.537729	-0.464968	-0.238816
O14	O	2.037729	0.035032	0.261184
O15	O	1.415766	-0.233634	-0.362294
O16	O	1.915766	0.266366	0.137706
O17	O	1.698993	-0.471818	-0.374325
O18	O	2.198993	0.028182	0.125675
O19	O	1.537954	-0.238825	-0.464967
O20	O	2.037954	0.261175	0.035033
O21	O	1.415638	-0.362294	-0.233630
O22	O	1.915638	0.137706	0.266370
O23	O	1.236262	-0.369130	-0.369120
O24	O	1.736262	0.130870	0.130880
O25	O	1.383705	-0.483833	-0.612474
O26	O	1.883705	0.016167	-0.112474
O27	O	1.222441	-0.476983	-0.476964
O28	O	1.722441	0.023017	0.023036
O29	O	1.519713	-0.381170	-0.607302
O30	O	2.019713	0.118830	-0.107302
O31	O	1.519488	-0.607314	-0.381151
O32	O	2.019488	-0.107314	0.118849
O33	O	1.383577	-0.612493	-0.483809
O34	O	1.883577	-0.112493	0.016191
C35	C	1.191230	-0.423056	-0.423040
C36	C	1.691230	0.076944	0.076960
C37	C	1.074452	-0.423072	-0.423055
C38	C	1.574452	0.076928	0.076945
C39	C	1.060099	-0.535544	-0.535189
C40	C	1.560099	-0.035544	-0.035189
C41	C	0.998061	-0.591786	-0.591259
C42	C	1.498061	-0.091786	-0.091259
C43	C	0.888338	-0.591797	-0.591270
C44	C	1.388338	-0.091797	-0.091270
C45	C	0.840651	-0.535557	-0.535207
C46	C	1.340651	-0.035557	-0.035207
C47	C	0.902689	-0.479315	-0.479137
C48	C	1.402689	0.020685	0.020863
C49	C	1.012414	-0.479312	-0.479130
C50	C	1.512414	0.020688	0.020870
C51	C	0.917042	-0.366841	-0.367007
C52	C	1.417042	0.133159	0.132993
C53	C	1.026765	-0.366833	-0.366991
C54	C	1.526765	0.133167	0.133009
C55	C	0.869355	-0.310601	-0.310944
C56	C	1.369355	0.189399	0.189056
C57	C	0.931393	-0.254361	-0.254868
C58	C	1.431393	0.245639	0.245132
C59	C	1.041122	-0.254354	-0.254859
C60	C	1.541122	0.245646	0.245141
C61	C	1.088803	-0.310590	-0.310921
C62	C	1.588803	0.189410	0.189079
C63	C	1.449504	-0.640232	-0.434028
C64	C	1.949504	-0.140232	0.065972
C65	C	1.443313	-0.733138	-0.438750
C66	C	1.943313	-0.233138	0.061250
C67	C	1.432015	-0.903239	-0.447389
C68	C	1.932015	-0.403239	0.052611
C69	C	1.496565	-0.942055	-0.398736
C70	C	1.996565	-0.442055	0.101264
C71	C	1.490279	-1.036704	-0.403542
C72	C	1.990279	-0.536704	0.096458
C73	C	1.438300	-0.808580	-0.442583
C74	C	1.938300	-0.308580	0.057417
C75	C	1.738228	-0.423078	-0.423071
C76	C	2.238228	0.076922	0.076929
C77	C	1.855004	-0.423083	-0.423077
C78	C	2.355004	0.076917	0.076923
C79	C	1.449625	-0.434076	-0.641063
C80	C	1.949625	0.065924	-0.141063
C81	C	1.443416	-0.438768	-0.733965
C82	C	1.943416	0.061232	-0.233965
C83	C	1.478973	-0.205054	-0.412058
C84	C	1.978973	0.294946	0.087942
C85	C	1.485270	-0.112150	-0.407372
C86	C	1.985270	0.387850	0.092628
C87	C	1.496576	-0.398578	-0.942889
C88	C	1.996576	0.101422	-0.442889
C89	C	1.432047	-0.447299	-0.904050
C90	C	1.932047	0.052701	-0.404050
C91	C	1.438375	-0.442551	-0.809406
C92	C	1.938375	0.057449	-0.309406
C93	C	1.490250	-0.403326	-1.037542
C94	C	1.990250	0.096674	-0.537542
C95	C	1.478775	-0.412039	-0.205893
C96	C	1.978775	0.087961	0.294107
C97	C	1.485203	-0.407112	-0.112980
C98	C	1.985203	0.092888	0.387020
H99	H	1.091628	-0.208548	-0.209206
H100	H	1.591628	0.291452	0.290794
C101	C	1.050513	-0.653647	-0.652926
C102	C	1.550513	-0.153647	-0.152926
H103	H	0.997850	-0.687139	-0.686324
H104	H	1.497850	-0.187139	-0.186324
H105	H	1.092993	-0.688392	-0.622725
H106	H	1.592993	-0.188392	-0.122725
H107	H	1.093042	-0.623568	-0.687787
H108	H	1.593042	-0.123568	-0.187787
H109	H	1.372044	-0.492572	-0.941879
H110	H	1.872044	0.007428	-0.441879
H111	H	1.372035	-0.941089	-0.492647
H112	H	1.872035	-0.441089	0.007353
H113	H	1.556548	-0.904201	-0.353472
H114	H	2.056548	-0.404201	0.146528
C115	C	0.820095	-0.653627	-0.652980
C116	C	1.320095	-0.153627	-0.152980
H117	H	0.864205	-0.687112	-0.686376
H118	H	1.364205	-0.187112	-0.186376
H119	H	0.777044	-0.623522	-0.687826
H120	H	1.277044	-0.123522	-0.187826
H121	H	0.776944	-0.688394	-0.622812
H122	H	1.276944	-0.188394	-0.122812
C123	C	1.577631	-0.337424	-0.891791
C124	C	2.077631	0.162576	-0.391791
H125	H	1.571308	-0.342226	-0.833963
H126	H	2.071308	0.157774	-0.333963
H127	H	1.565142	-0.281960	-0.903193
H128	H	2.065142	0.218040	-0.403193
H129	H	1.646458	-0.350375	-0.906680
H130	H	2.146458	0.149625	-0.406680
C131	C	1.180791	-0.535531	-0.535184
C132	C	1.680791	-0.035531	-0.035184
H133	H	1.200306	-0.577073	-0.576606
H134	H	1.700306	-0.077073	-0.076606
H135	H	1.208245	-0.547164	-0.481946
H136	H	1.708245	-0.047164	0.018054
H137	H	1.208279	-0.482346	-0.547014
H138	H	1.708279	0.017654	-0.047014
C139	C	0.719960	-0.535559	-0.535223
C140	C	1.219960	-0.035559	-0.035223
H141	H	0.700444	-0.494009	-0.493808
H142	H	1.200444	0.005991	0.006192
H143	H	0.692452	-0.588740	-0.523407
H144	H	1.192452	-0.088740	-0.023407
H145	H	0.692524	-0.523912	-0.588465
H146	H	1.192524	-0.023912	-0.088465
C147	C	0.748663	-0.310615	-0.310951
C148	C	1.248663	0.189385	0.189049
H149	H	0.718543	-0.352171	-0.352367
H150	H	1.218543	0.147829	0.147633
H151	H	0.726510	-0.257439	-0.322775
H152	H	1.226510	0.242561	0.177225
H153	H	0.726475	-0.322262	-0.257711
H154	H	1.226475	0.177738	0.242289
H155	H	0.892557	-0.208572	-0.209230
H156	H	1.392557	0.291428	0.290770
C157	C	1.209494	-0.310581	-0.310910
C158	C	1.709494	0.189419	0.189090
H159	H	1.239616	-0.269035	-0.269486
H160	H	1.739616	0.230965	0.230514
H161	H	1.231691	-0.298944	-0.364146
H162	H	1.731691	0.201056	0.135854
H163	H	1.231637	-0.363763	-0.299078
H164	H	1.731637	0.136237	0.200922
