data_functionalizedCrystal
_audit_creation_method	'MofGen! by Chris Wilmer'
_symmetry_space_group_name_H-M	'P1'
_symmetry_Int_Tables_number	1
_symmetry_cell_setting	triclinic
loop_
_symmetry_equiv_pos_as_xyz
  x,y,z
_cell_length_a	15.625950
_cell_length_b	26.809956
_cell_length_c	15.538191
_cell_angle_alpha	90.005167
_cell_angle_beta	66.741480
_cell_angle_gamma	71.942656
loop_
_atom_site_label
_atom_site_type_symbol
_atom_site_fract_x
_atom_site_fract_y
_atom_site_fract_z
O1	O	1.155753	-0.167506	0.123019
O2	O	1.655753	0.332494	0.623019
O3	O	0.888542	-0.119189	0.137644
O4	O	1.388542	0.380811	0.637644
O5	O	1.074162	-0.152751	-0.006726
O6	O	1.574162	0.347249	0.493274
O7	O	0.970133	-0.133945	0.267389
O8	O	1.470133	0.366055	0.767389
O9	O	1.074120	-0.235702	-0.006726
O10	O	1.574120	0.264298	0.493274
O11	O	0.888499	-0.202141	0.137643
O12	O	1.388499	0.297859	0.637643
O13	O	1.155710	-0.250458	0.123019
O14	O	1.655710	0.249542	0.623019
Zn15	Zn	1.022098	-0.239470	0.130331
Zn16	Zn	1.522098	0.260530	0.630331
Zn17	Zn	1.022154	-0.130177	0.130332
Zn18	Zn	1.522154	0.369823	0.630332
O19	O	0.970090	-0.216896	0.267389
O20	O	1.470090	0.283104	0.767389
C21	C	0.855157	-0.154632	0.136977
C22	C	1.355157	0.345368	0.636977
C23	C	0.755748	-0.136657	0.134982
C24	C	1.255748	0.363343	0.634982
C25	C	0.428579	-0.303559	0.128468
C26	C	0.928579	0.196441	0.628468
C27	C	0.335160	-0.286644	0.126611
C28	C	0.835160	0.213356	0.626611
C29	C	0.335253	-0.196221	0.126612
C30	C	0.835253	0.303779	0.626612
C31	C	0.428671	-0.213129	0.128474
C32	C	0.928671	0.286871	0.628474
C33	C	0.475327	-0.266798	0.129401
C34	C	0.975327	0.233202	0.629401
C35	C	0.475419	-0.176368	0.129407
C36	C	0.975419	0.323632	0.629407
C37	C	0.568832	-0.193274	0.131263
C38	C	1.068832	0.306726	0.631263
C39	C	0.615495	-0.246941	0.132187
C40	C	1.115495	0.253059	0.632187
C41	C	0.568739	-0.283704	0.131257
C42	C	1.068739	0.216296	0.631257
C43	C	0.428765	-0.122699	0.128473
C44	C	0.928765	0.377301	0.628473
C45	C	0.475513	-0.085939	0.129406
C46	C	0.975513	0.414061	0.629406
C47	C	0.568924	-0.102844	0.131269
C48	C	1.068924	0.397156	0.631269
C49	C	0.615588	-0.156511	0.132193
C50	C	1.115588	0.343489	0.632193
C51	C	0.615680	-0.066081	0.132199
C52	C	1.115680	0.433919	0.632199
C53	C	0.709092	-0.082988	0.134055
C54	C	1.209092	0.417012	0.634055
C55	C	0.709000	-0.173418	0.134049
C56	C	1.209000	0.326582	0.634049
N57	N	1.022067	-0.314060	0.130330
N58	N	1.522067	0.185940	0.630330
C59	C	1.058091	-0.665201	0.187537
C60	C	1.558091	-0.165201	0.687537
C61	C	1.058120	-0.874084	0.187537
C62	C	1.558120	-0.374084	0.687537
O63	O	1.088729	-0.906623	0.236166
O64	O	1.588729	-0.406623	0.736166
N65	N	1.022179	-0.893707	0.130322
N66	N	1.522179	-0.393707	0.630322
C67	C	0.986233	-0.861107	0.073099
C68	C	1.486233	-0.361107	0.573099
O69	O	0.955673	-0.882593	0.024427
O70	O	1.455673	-0.382593	0.524427
C71	C	0.986211	-0.652227	0.073095
C72	C	1.486211	-0.152227	0.573095
C73	C	1.022146	-0.632605	0.130321
C74	C	1.522146	-0.132605	0.630321
C75	C	1.094024	-0.645579	0.244758
C76	C	1.594024	-0.145579	0.744758
C77	C	1.094011	-0.593360	0.244761
C78	C	1.594011	-0.093360	0.744761
C79	C	1.058066	-0.560764	0.187544
C80	C	1.558066	-0.060764	0.687544
C81	C	1.022133	-0.580386	0.130324
C82	C	1.522133	-0.080386	0.630324
C83	C	0.950273	-0.619629	0.015867
C84	C	1.450273	-0.119629	0.515867
C85	C	0.950272	-0.567406	0.015870
C86	C	1.450272	-0.067406	0.515870
C87	C	0.986207	-0.547784	0.073095
C88	C	1.486207	-0.047784	0.573095
C89	C	0.986175	-0.495571	0.073111
C90	C	1.486175	0.004429	0.573111
N91	N	1.022116	-0.475948	0.130325
N92	N	1.522116	0.024052	0.630325
C93	C	1.058062	-0.508544	0.187542
C94	C	1.558062	-0.008544	0.687542
C95	C	0.986246	-0.970773	0.073106
C96	C	1.486246	-0.470773	0.573106
C97	C	0.986250	-1.022993	0.073108
C98	C	1.486250	-0.522993	0.573108
C99	C	1.058139	-1.035966	0.187545
C100	C	1.558139	-0.535966	0.687545
C101	C	1.058128	-0.983744	0.187548
C102	C	1.558128	-0.483744	0.687548
C103	C	1.022187	-0.951150	0.130321
C104	C	1.522187	-0.451150	0.630321
C105	C	1.058032	-0.398881	0.187546
C106	C	1.558032	0.101119	0.687546
C107	C	1.058012	-0.346656	0.187547
C108	C	1.558012	0.153344	0.687547
C109	C	0.986128	-0.333688	0.073107
C110	C	1.486128	0.166312	0.573107
C111	C	0.986143	-0.385907	0.073109
C112	C	1.486143	0.114093	0.573109
C113	C	1.022101	-0.418503	0.130331
C114	C	1.522101	0.081497	0.630331
O115	O	0.955593	-0.463004	0.024499
O116	O	1.455593	0.036996	0.524499
O117	O	1.088638	-0.487053	0.236191
O118	O	1.588638	0.012947	0.736191
C119	C	1.058104	-0.717420	0.187534
C120	C	1.558104	-0.217420	0.687534
C121	C	1.022171	-0.737042	0.130314
C122	C	1.522171	-0.237042	0.630314
C123	C	0.986226	-0.704446	0.073097
C124	C	1.486226	-0.204446	0.573097
C125	C	1.022175	-0.789262	0.130316
C126	C	1.522175	-0.289262	0.630316
C127	C	1.058120	-0.821858	0.187533
C128	C	1.558120	-0.321858	0.687533
C129	C	1.094061	-0.802235	0.244747
C130	C	1.594061	-0.302235	0.744747
C131	C	1.094049	-0.750016	0.244751
C132	C	1.594049	-0.250016	0.744751
C133	C	0.950284	-0.724069	0.015882
C134	C	1.450284	-0.224069	0.515882
C135	C	0.950299	-0.776288	0.015884
C136	C	1.450299	-0.276288	0.515884
C137	C	0.986244	-0.808884	0.073101
C138	C	1.486244	-0.308884	0.573101
C139	C	1.189095	-0.215014	0.123685
C140	C	1.689095	0.284986	0.623685
C141	C	1.288504	-0.232986	0.125681
C142	C	1.788504	0.267014	0.625681
C143	C	1.085025	-0.196193	-0.041807
C144	C	1.585025	0.303807	0.458193
C145	C	1.117446	-0.202050	-0.146335
C146	C	1.617446	0.297950	0.353665
N147	N	1.022195	-0.055589	0.130325
N148	N	1.522195	0.444411	0.630325
C149	C	0.795356	-0.143821	-0.434572
C150	C	1.295356	0.356179	0.065428
C151	C	0.825843	-0.149335	-0.532795
C152	C	1.325843	0.350665	-0.032795
C153	C	0.997324	-0.180341	-0.555001
C154	C	1.497324	0.319659	-0.055001
C155	C	0.966851	-0.174828	-0.456777
C156	C	1.466851	0.325172	0.043223
C157	C	0.865866	-0.156568	-0.396570
C158	C	1.365866	0.343432	0.103430
C159	C	1.037362	-0.187575	-0.418775
C160	C	1.537362	0.312425	0.081225
C161	C	1.006891	-0.182064	-0.320560
C162	C	1.506891	0.317936	0.179440
C163	C	0.905911	-0.163807	-0.260347
C164	C	1.405911	0.336193	0.239653
C165	C	0.835396	-0.151057	-0.298355
C166	C	1.335396	0.348943	0.201645
C167	C	1.138346	-0.205838	-0.478985
C168	C	1.638346	0.294162	0.021015
C169	C	1.208857	-0.218585	-0.440983
C170	C	1.708857	0.281415	0.059017
C171	C	1.178387	-0.213071	-0.342766
C172	C	1.678387	0.286929	0.157234
C173	C	1.077406	-0.194814	-0.282552
C174	C	1.577406	0.305186	0.217448
C175	C	1.248901	-0.225821	-0.304758
C176	C	1.748901	0.274179	0.195242
C177	C	1.218431	-0.220310	-0.206543
C178	C	1.718431	0.279690	0.293457
C179	C	1.046936	-0.189303	-0.184337
C180	C	1.546936	0.310697	0.315663
C181	C	0.959227	-0.173453	0.302469
C182	C	1.459227	0.326547	0.802469
C183	C	0.926807	-0.167593	0.406998
C184	C	1.426807	0.332407	0.906998
H185	H	0.691558	-0.260706	0.133697
H186	H	1.191558	0.239294	0.633697
Br187	Br	1.106833	-0.443110	0.265204
Br188	Br	1.606833	0.056890	0.765204
Br189	Br	1.345903	-0.243372	-0.522700
Br190	Br	1.845903	0.256628	-0.022700
H191	H	0.921012	-0.635596	-0.030733
H192	H	1.421012	-0.135596	0.469267
Br193	Br	0.772320	-0.246254	0.135323
Br194	Br	1.272320	0.253746	0.635323
Br195	Br	0.632060	-0.356541	0.132531
Br196	Br	1.132060	0.143459	0.632531
H197	H	0.747154	-0.053053	0.134819
H198	H	1.247154	0.446947	0.634819
Br199	Br	0.901507	-0.523176	-0.061810
Br200	Br	1.401507	-0.023176	0.438190
Br201	Br	0.698343	-0.126268	-0.216635
Br202	Br	1.198343	0.373732	0.283365
Br203	Br	1.385947	-0.250613	-0.386478
Br204	Br	1.885947	0.249387	0.113522
H205	H	0.713124	-0.128948	-0.385547
H206	H	1.213124	0.371052	0.114453
Br207	Br	1.179700	-0.213323	-0.612279
Br208	Br	1.679700	0.286677	-0.112279
Br209	Br	1.142758	-0.566735	0.322447
Br210	Br	1.642758	-0.066735	0.822447
Br211	Br	1.142837	-0.846481	0.322404
Br212	Br	1.642837	-0.346481	0.822404
H213	H	0.466562	-0.347260	0.129237
H214	H	0.966562	0.152740	0.629237
Br215	Br	0.271728	-0.336541	0.125323
Br216	Br	0.771728	0.163459	0.625323
Br217	Br	0.730138	-0.132038	-0.584366
Br218	Br	1.230138	0.367962	-0.084366
Br219	Br	0.937457	-1.049611	-0.004540
Br220	Br	1.437457	-0.549611	0.495460
H221	H	0.921027	-0.792257	-0.030714
H222	H	1.421027	-0.292257	0.469286
H223	H	0.437515	-0.042241	0.128647
H224	H	0.937515	0.457759	0.628647
H225	H	0.297255	-0.152524	0.125854
H226	H	0.797255	0.347476	0.625854
Br227	Br	0.901476	-0.679835	-0.061762
Br228	Br	1.401476	-0.179835	0.438238
Br229	Br	0.864553	-0.156334	-0.127052
Br230	Br	1.364553	0.343666	0.372948
Br231	Br	0.937360	-0.412536	-0.004544
Br232	Br	1.437360	0.087464	0.495456
H233	H	0.577683	-0.022385	0.131434
H234	H	1.077683	0.477615	0.631434
H235	H	0.956859	-0.307139	0.026525
H236	H	1.456859	0.192861	0.526525
H237	H	1.275848	-0.230691	-0.175602
H238	H	1.775848	0.269309	0.324398
H239	H	0.956977	-0.944238	0.026503
H240	H	1.456977	-0.444238	0.526503
Br241	Br	0.302006	-0.099757	0.125918
Br242	Br	0.802006	0.400243	0.625918
H243	H	1.087273	-0.330683	0.234151
H244	H	1.587273	0.169317	0.734151
H245	H	1.079546	-0.195211	-0.604035
H246	H	1.579546	0.304789	-0.104035
H247	H	1.123310	-0.734045	0.291350
H248	H	1.623310	-0.234045	0.791350
Br249	Br	1.142814	-0.689808	0.322419
Br250	Br	1.642814	-0.189808	0.822419
H251	H	1.087388	-0.967772	0.234146
H252	H	1.587388	-0.467772	0.734146
H253	H	0.964703	-0.174430	-0.135312
H254	H	1.464703	0.325570	0.364688
Br255	Br	1.106924	-1.080214	0.265195
Br256	Br	1.606924	-0.580214	0.765195
