data_functionalizedCrystal
_audit_creation_method	'MofGen! by Chris Wilmer'
_symmetry_space_group_name_H-M	'P1'
_symmetry_Int_Tables_number	1
_symmetry_cell_setting	triclinic
loop_
_symmetry_equiv_pos_as_xyz
  x,y,z
_cell_length_a	25.639243
_cell_length_b	25.639239
_cell_length_c	13.897441
_cell_angle_alpha	90.034305
_cell_angle_beta	90.024451
_cell_angle_gamma	90.041410
loop_
_atom_site_label
_atom_site_type_symbol
_atom_site_fract_x
_atom_site_fract_y
_atom_site_fract_z
Zn1	Zn	0.799269	-0.208096	0.545452
Zn2	Zn	0.799179	-0.295539	0.384143
Zn3	Zn	0.711832	-0.208123	0.384160
Zn4	Zn	0.711790	-0.295506	0.545385
O5	O	0.755518	-0.251816	0.464785
O6	O	0.872422	-0.219698	0.524075
O7	O	0.787573	-0.283968	0.249163
O8	O	0.723486	-0.134954	0.405591
O9	O	0.872357	-0.283941	0.405562
O10	O	0.787725	-0.134934	0.524091
O11	O	0.723399	-0.219744	0.249176
O12	O	0.638662	-0.219713	0.405526
O13	O	0.723414	-0.283887	0.680376
O14	O	0.638631	-0.283913	0.523977
O15	O	0.787685	-0.219666	0.680425
O16	O	0.787532	-0.368700	0.405497
O17	O	0.723328	-0.368676	0.523961
C18	C	0.619675	-0.251813	0.464747
C19	C	0.561561	-0.251824	0.464753
C20	C	0.201227	-0.218417	0.526598
C21	C	0.146622	-0.218417	0.526604
O22	O	0.118410	-0.190003	0.579138
N23	N	0.119279	-0.251815	0.464811
C24	C	0.146542	-0.285212	0.403002
O25	O	0.118270	-0.313619	0.350443
C26	C	0.201145	-0.285209	0.402992
C27	C	0.228486	-0.251812	0.464795
C28	C	0.228568	-0.185023	0.588395
C29	C	0.283168	-0.185024	0.588390
C30	C	0.310428	-0.218420	0.526588
C31	C	0.283087	-0.251814	0.464790
C32	C	0.228408	-0.318603	0.341179
C33	C	0.283015	-0.318597	0.341174
C34	C	0.310356	-0.285201	0.402977
C35	C	0.364947	-0.285210	0.402983
N36	N	0.392291	-0.251812	0.464775
C37	C	0.365031	-0.218417	0.526578
C38	C	0.031871	-0.285214	0.403027
C39	C	-0.022731	-0.285219	0.403041
C40	C	-0.022647	-0.218424	0.526642
C41	C	0.031957	-0.218421	0.526631
C42	C	0.059215	-0.251816	0.464819
C43	C	0.479696	-0.218422	0.526563
C44	C	0.534302	-0.218428	0.526555
C45	C	0.534213	-0.285222	0.402952
C46	C	0.479612	-0.285218	0.402963
C47	C	0.452355	-0.251814	0.464772
O48	O	0.393194	-0.313608	0.350473
O49	O	0.393310	-0.190010	0.579119
C50	C	0.755430	-0.387659	0.464741
C51	C	0.755440	-0.445773	0.464754
C52	C	0.789036	-0.806135	0.403206
C53	C	0.789056	-0.860740	0.403219
O54	O	0.817530	-0.888976	0.350840
N55	N	0.755610	-0.888055	0.464849
C56	C	0.722144	-0.860763	0.526477
O57	O	0.693697	-0.889011	0.578900
C58	C	0.722127	-0.806160	0.526468
C59	C	0.755572	-0.778848	0.464827
C60	C	0.822479	-0.778823	0.341571
C61	C	0.822458	-0.724222	0.341557
C62	C	0.788994	-0.696934	0.403178
C63	C	0.755551	-0.724247	0.464813
C64	C	0.688664	-0.778869	0.588100
C65	C	0.688650	-0.724262	0.588087
C66	C	0.722096	-0.696950	0.526446
C67	C	0.722066	-0.642359	0.526421
N68	N	0.755513	-0.615043	0.464791
C69	C	0.788977	-0.642331	0.403169
C70	C	0.722184	-0.975434	0.526492
C71	C	0.722198	-1.030036	0.526496
C72	C	0.789111	-1.030009	0.403239
C73	C	0.789094	-0.975406	0.403231
C74	C	0.755630	-0.948119	0.464862
C75	C	0.788930	-0.527666	0.403144
C76	C	0.788904	-0.473061	0.403133
C77	C	0.721993	-0.473093	0.526393
C78	C	0.722016	-0.527693	0.526401
C79	C	0.755489	-0.554979	0.464774
O80	O	0.693608	-0.614087	0.578776
O81	O	0.817424	-0.614077	0.350764
C82	C	0.891891	-0.251820	0.464824
C83	C	0.950005	-0.251822	0.464841
C84	C	0.755555	-0.251770	0.716378
C85	C	0.755571	-0.251750	0.823592
C86	C	0.755620	-0.115443	0.464850
C87	C	0.755664	-0.057329	0.464878
C88	C	0.755511	-0.251824	0.214171
C89	C	0.755596	-0.251697	0.106957
C90	C	0.755585	-0.251715	1.019887
C91	C	0.755575	-0.251736	0.910655
H92	H	0.457350	-0.312418	0.352649
C93	C	0.313236	-0.148281	0.656361
H94	H	0.289175	-0.128390	0.693156
H95	H	0.334537	-0.168300	0.698327
H96	H	0.334539	-0.125472	0.619526
H97	H	0.556417	-0.312413	0.352636
H98	H	-0.044851	-0.191230	0.576962
C99	C	0.859255	-0.694185	0.273763
H100	H	0.879189	-0.718264	0.237078
H101	H	0.839267	-0.672920	0.231687
H102	H	0.882021	-0.672850	0.310707
C103	C	0.651878	-0.808901	0.655914
H104	H	0.631954	-0.784822	0.692615
H105	H	0.629110	-0.830243	0.618995
H106	H	0.671878	-0.830161	0.697988
C107	C	-0.052800	-0.321959	0.335065
H108	H	-0.028740	-0.341844	0.298256
H109	H	-0.074109	-0.344766	0.371883
H110	H	-0.074095	-0.301929	0.293098
H111	H	0.054062	-0.312412	0.352695
C112	C	0.198345	-0.355335	0.273185
H113	H	0.222407	-0.375215	0.236373
H114	H	0.177035	-0.378146	0.309992
H115	H	0.177051	-0.335301	0.231222
H116	H	0.816187	-0.549875	0.352963
H117	H	0.849732	-0.801035	0.291391
H118	H	0.556560	-0.191232	0.576886
H119	H	0.661401	-0.702048	0.638278
H120	H	0.054214	-0.191225	0.576955
C121	C	0.685227	-0.557738	0.594203
H122	H	0.665296	-0.533664	0.630903
H123	H	0.662465	-0.579084	0.557278
H124	H	0.705230	-0.578995	0.636278
H125	H	0.694958	-1.052270	0.576682
H126	H	0.305206	-0.345791	0.290836
C127	C	0.825887	-0.945367	0.335434
H128	H	0.845820	-0.969443	0.298743
H129	H	0.805896	-0.924100	0.293365
H130	H	0.848655	-0.924032	0.372376
H131	H	0.816139	-0.450824	0.352934
C132	C	0.449721	-0.181684	0.594560
H133	H	0.473831	-0.161803	0.631366
H134	H	0.428425	-0.158874	0.557754
H135	H	0.428420	-0.201717	0.636529
C136	C	0.198590	-0.148288	0.656389
H137	H	0.222701	-0.128405	0.693191
H138	H	0.177292	-0.125479	0.619586
H139	H	0.177292	-0.168321	0.698362
H140	H	0.816361	-1.052237	0.353067
C141	C	0.685365	-0.945423	0.594279
H142	H	0.665447	-0.969515	0.630974
H143	H	0.705342	-0.924084	0.636345
H144	H	0.662585	-0.924162	0.557331
C145	C	0.685188	-0.443069	0.594176
H146	H	0.689973	-0.406638	0.585342
H147	H	0.650063	-0.452057	0.580010
H148	H	0.692832	-0.451983	0.659004
