data_functionalizedCrystal
_audit_creation_method	'MofGen! by Chris Wilmer'
_symmetry_space_group_name_H-M	'P1'
_symmetry_Int_Tables_number	1
_symmetry_cell_setting	triclinic
loop_
_symmetry_equiv_pos_as_xyz
  x,y,z
_cell_length_a	9.798715
_cell_length_b	19.288864
_cell_length_c	19.288865
_cell_angle_alpha	83.136245
_cell_angle_beta	89.991627
_cell_angle_gamma	89.982474
loop_
_atom_site_label
_atom_site_type_symbol
_atom_site_fract_x
_atom_site_fract_y
_atom_site_fract_z
O1	O	0.113944	-0.921348	-0.086646
O2	O	0.613944	-0.421348	0.413354
O3	O	0.113853	-0.719087	-0.098335
O4	O	0.613853	-0.219087	0.401665
O5	O	0.113874	-0.826062	0.008640
O6	O	0.613874	-0.326062	0.508640
O7	O	0.113923	-0.814373	-0.193621
O8	O	0.613923	-0.314373	0.306379
O9	O	-0.113108	-0.826054	0.008640
O10	O	0.386892	-0.326054	0.508640
O11	O	-0.113129	-0.719079	-0.098335
O12	O	0.386871	-0.219079	0.401665
O13	O	-0.113038	-0.921340	-0.086646
O14	O	0.386962	-0.421340	0.413354
Zn15	Zn	-0.149122	-0.820208	-0.092490
Zn16	Zn	0.350878	-0.320208	0.407510
Zn17	Zn	0.149937	-0.820219	-0.092491
Zn18	Zn	0.649937	-0.320219	0.407509
O19	O	-0.113059	-0.814365	-0.193621
O20	O	0.386941	-0.314365	0.306379
C21	C	0.000350	-0.693207	-0.097959
C22	C	0.500350	-0.193207	0.402041
C23	C	0.000314	-0.616103	-0.096830
C24	C	0.500314	-0.116103	0.403170
N25	N	-0.353222	-0.820206	-0.092490
N26	N	0.146778	-0.320206	0.407510
C27	C	0.000379	-0.825682	0.034516
C28	C	0.500379	-0.325682	0.534516
C29	C	0.000366	-0.824553	0.111620
C30	C	0.500366	-0.324553	0.611620
C31	C	-0.420990	-0.865124	-0.047378
C32	C	0.079010	-0.365124	0.452622
C33	C	-0.578152	-0.865135	-0.047376
C34	C	-0.078152	-0.365135	0.452624
N35	N	0.354037	-0.820226	-0.092486
N36	N	0.854037	-0.320226	0.407514
C37	C	0.000468	-0.947220	-0.087022
C38	C	0.500468	-0.447220	0.412978
C39	C	0.000513	-1.024324	-0.088151
C40	C	0.500513	-0.524324	0.411849
C41	C	0.000350	-0.571407	-0.159598
C42	C	0.500350	-0.071407	0.340402
C43	C	0.000365	-0.498960	-0.158537
C44	C	0.500365	0.001040	0.341463
C45	C	0.000371	-0.471212	-0.094705
C46	C	0.500371	0.028788	0.405295
C47	C	0.000327	-0.515918	-0.031929
C48	C	0.500327	-0.015918	0.468071
C49	C	0.000298	-0.588364	-0.032991
C50	C	0.500298	-0.088364	0.467009
C51	C	0.079927	-0.362953	-0.044526
C52	C	0.579927	0.137047	0.455474
C53	C	0.079963	-0.290508	-0.043466
C54	C	0.579963	0.209492	0.456534
C55	C	0.000453	-0.247767	-0.091425
C56	C	0.500453	0.252233	0.408575
C57	C	-0.079077	-0.277476	-0.140456
C58	C	0.420923	0.222524	0.359544
C59	C	-0.079106	-0.349922	-0.141519
C60	C	0.420894	0.150078	0.358481
C61	C	0.000401	-0.392658	-0.093546
C62	C	0.500401	0.107342	0.406454
C63	C	0.000503	-0.124514	-0.153047
C64	C	0.500503	0.375486	0.346953
C65	C	0.000510	-0.052066	-0.151984
C66	C	0.500510	0.447934	0.348016
C67	C	0.000485	-0.069026	-0.025374
C68	C	0.500485	0.430974	0.474626
C69	C	0.000465	-0.141473	-0.026439
C70	C	0.500465	0.358527	0.473561
C71	C	0.000480	-0.169212	-0.090278
C72	C	0.500480	0.330788	0.409722
C73	C	0.000439	-0.814745	-0.219497
C74	C	0.500439	-0.314745	0.280503
C75	C	0.000461	-0.815874	-0.296601
C76	C	0.500461	-0.315874	0.203399
C77	C	0.000388	-0.887321	0.156316
C78	C	0.500388	-0.387321	0.656316
C79	C	0.000409	-0.886260	0.228763
C80	C	0.500409	-0.386260	0.728763
C81	C	0.000381	-0.822428	0.256511
C82	C	0.500381	-0.322428	0.756511
C83	C	0.000367	-0.759652	0.211805
C84	C	0.500367	-0.259652	0.711805
C85	C	0.000360	-0.760714	0.139359
C86	C	0.500360	-0.260714	0.639359
C87	C	-0.079148	-0.772245	0.364798
C88	C	0.420852	-0.272245	0.864798
C89	C	-0.079149	-0.771186	0.437243
C90	C	0.420851	-0.271186	0.937243
C91	C	0.000410	-0.819148	0.479956
C92	C	0.500410	-0.319148	0.979956
C93	C	0.079953	-0.868182	0.450218
C94	C	0.579953	-0.368182	0.950218
C95	C	0.079946	-0.869245	0.377773
C96	C	0.579946	-0.369245	0.877773
C97	C	0.000390	-0.821269	0.335065
C98	C	0.500390	-0.321269	0.835065
C99	C	0.000457	-0.880770	0.603209
C100	C	0.500457	-0.380770	1.103209
C101	C	0.000486	-0.879707	0.675657
C102	C	0.500486	-0.379707	1.175657
C103	C	0.000431	-0.753097	0.658697
C104	C	0.500431	-0.253097	1.158697
C105	C	0.000415	-0.754162	0.586250
C106	C	0.500415	-0.254162	1.086250
C107	C	0.000421	-0.818000	0.558511
C108	C	0.500421	-0.318000	1.058511
H109	H	-0.362659	-0.903570	-0.008756
H110	H	0.137341	-0.403570	0.491244
Br111	Br	0.000320	-0.478263	0.054702
Br112	Br	0.500320	0.021737	0.554702
H113	H	0.000390	-0.703049	0.549857
H114	H	0.500390	-0.203049	1.049857
Br115	Br	-0.675278	-0.929241	0.016995
Br116	Br	-0.175278	-0.429241	0.516995
Br117	Br	0.000407	-0.438288	-0.243728
Br118	Br	0.500407	0.061712	0.256272
H119	H	0.000442	-0.177866	0.024674
H120	H	0.500442	0.322134	0.524674
H121	H	0.000342	-0.709599	0.102967
H122	H	0.500342	-0.209599	0.602967
H123	H	-0.587695	-0.781770	-0.131112
H124	H	-0.087695	-0.281770	0.368888
H125	H	0.000347	-0.707679	0.234401
H126	H	0.500347	-0.207679	0.734401
Br127	Br	-0.450433	-0.756114	-0.156857
Br128	Br	0.049567	-0.256114	0.343143
H129	H	0.000432	-0.937375	0.265162
H130	H	0.500432	-0.437375	0.765162
Br131	Br	-0.187037	-0.390242	-0.208055
Br132	Br	0.312963	0.109758	0.291945
H133	H	0.000574	-0.046435	0.026600
H134	H	0.500574	0.453565	0.526600
H135	H	0.000366	-0.593987	-0.211580
H136	H	0.500366	-0.093987	0.288420
Br137	Br	-0.186989	-0.219478	-0.205551
Br138	Br	0.313011	0.280522	0.294449
H139	H	0.000398	-0.939303	0.133736
H140	H	0.500398	-0.439303	0.633736
Br141	Br	0.000515	-0.162165	-0.239683
Br142	Br	0.500515	0.337835	0.260317
H143	H	0.144739	-0.907238	0.484995
H144	H	0.644739	-0.407238	0.984995
H145	H	0.000532	-0.015674	-0.203099
H146	H	0.500532	0.484326	0.296901
H147	H	0.144727	-0.266324	-0.003545
H148	H	0.644727	0.233676	0.496455
Br149	Br	0.000530	-0.964900	0.736319
Br150	Br	0.500530	-0.464900	1.236319
H151	H	0.144682	-0.397748	-0.005470
H152	H	0.644682	0.102252	0.494530
H153	H	-0.143943	-0.733187	0.330026
H154	H	0.356057	-0.233187	0.830026
H155	H	0.000269	-0.624756	0.018124
H156	H	0.500269	-0.124756	0.518124
Br157	Br	0.000407	-0.666466	0.696346
Br158	Br	0.500407	-0.166466	1.196346
H159	H	0.000468	-0.932751	0.580622
H160	H	0.500468	-0.432751	1.080622
H161	H	0.144715	-0.909169	0.353563
H162	H	0.644715	-0.409169	0.853563
H163	H	-0.143910	-0.731256	0.461449
H164	H	0.356090	-0.231256	0.961449
