data_functionalizedCrystal
_audit_creation_method	'MofGen! by Chris Wilmer'
_symmetry_space_group_name_H-M	'P1'
_symmetry_Int_Tables_number	1
_symmetry_cell_setting	triclinic
loop_
_symmetry_equiv_pos_as_xyz
  x,y,z
_cell_length_a	14.853569
_cell_length_b	17.019294
_cell_length_c	15.500369
_cell_angle_alpha	83.293667
_cell_angle_beta	92.833854
_cell_angle_gamma	83.514757
loop_
_atom_site_label
_atom_site_type_symbol
_atom_site_fract_x
_atom_site_fract_y
_atom_site_fract_z
O1	O	1.191434	0.107055	-0.079877
O2	O	0.928887	0.119369	-0.080805
O3	O	1.067984	-0.002049	-0.071750
O4	O	1.052338	0.228473	-0.088932
O5	O	1.076380	-0.009392	0.072683
O6	O	0.937284	0.112026	0.063628
O7	O	1.199830	0.099712	0.064556
Cu8	Cu	1.069324	0.105199	0.077280
Cu9	Cu	1.059394	0.113882	-0.093529
O10	O	1.060734	0.221130	0.055501
C11	C	0.899501	0.115140	-0.008548
C12	C	0.799429	0.113467	-0.008427
C13	C	0.763566	0.040557	-0.002996
C14	C	0.741260	0.184805	-0.013738
C15	C	0.647237	0.183236	-0.013620
C16	C	0.611374	0.110326	-0.008189
C17	C	0.669534	0.038986	-0.002875
C18	C	0.589071	0.254575	-0.018924
C19	C	0.495042	0.253008	-0.018806
C20	C	0.459177	0.180098	-0.013381
C21	C	0.517343	0.108755	-0.008068
C22	C	0.481480	0.035845	-0.002637
C23	C	0.539644	-0.035499	0.002670
C24	C	0.633669	-0.033924	0.002550
C25	C	0.365152	0.178524	-0.013261
C26	C	0.387449	0.034274	-0.002516
C27	C	1.071754	-0.035222	0.002663
C28	C	1.070469	-0.123127	0.009210
C29	C	1.065291	-0.160418	-0.066445
C30	C	1.064078	-0.243014	-0.060291
C31	C	1.068050	-0.288317	0.021518
C32	C	1.073226	-0.251021	0.097178
C33	C	1.074432	-0.168426	0.091023
C34	C	1.064630	-0.537900	0.044039
C35	C	1.063426	-0.620501	0.050188
C36	C	1.054277	-0.612488	-0.107282
C37	C	1.055489	-0.529892	-0.113429
C38	C	1.060660	-0.492602	-0.037769
C39	C	1.066813	-0.372744	0.027810
C40	C	1.061890	-0.408177	-0.044062
C41	C	1.229217	0.103941	-0.007703
C42	C	1.329289	0.105614	-0.007829
C43	C	1.056964	0.254303	-0.018915
C44	C	1.058248	0.342209	-0.025466
N45	N	1.076314	0.099090	0.197418
N46	N	1.052411	0.119984	-0.213666
C47	C	1.111361	0.068555	0.744870
C48	C	1.106054	0.073184	0.653954
C49	C	1.041791	0.129239	0.604504
C50	C	0.982838	0.180674	0.645973
C51	C	0.988151	0.176048	0.736887
C52	C	1.022673	0.145899	0.329802
C53	C	1.017364	0.150519	0.238881
C54	C	1.140581	0.043031	0.246868
C55	C	1.145884	0.038406	0.337784
C56	C	1.086934	0.089843	0.379246
C57	C	1.036363	0.133971	0.511573
C58	C	1.092368	0.085115	0.472175
H59	H	0.510432	-0.094862	0.007086
H60	H	0.810927	-0.017529	0.001321
H61	H	0.770467	0.244165	-0.018154
H62	H	1.070050	-0.409640	0.094419
Cl63	Cl	1.214688	-0.021627	0.194741
H64	H	0.618279	0.313934	-0.023341
H65	H	1.076454	-0.287913	0.163789
Cl66	Cl	0.948564	0.210558	0.381919
Cl67	Cl	0.706794	-0.123605	0.009230
Cl68	Cl	1.071117	-0.491030	0.139156
H69	H	0.447692	0.311101	-0.023128
H70	H	1.062061	-0.123538	-0.133062
Cl71	Cl	1.057570	-0.289890	-0.155405
Cl72	Cl	0.292037	0.268205	-0.019921
Cl73	Cl	0.936567	0.220994	0.176721
Cl74	Cl	1.056902	-0.351223	-0.146904
H75	H	1.163687	0.022906	0.785127
Cl76	Cl	0.914041	0.240708	0.789012
Cl77	Cl	1.180165	0.008531	0.601826
H78	H	1.052256	-0.493011	-0.180046
H79	H	1.050065	-0.642858	-0.168880
H80	H	1.198211	-0.007238	0.378045
H81	H	0.930517	0.226319	0.605705
H82	H	1.066656	-0.657385	0.116810
H83	H	0.984037	0.179611	0.471303
Cl84	Cl	0.342372	-0.057390	0.004305
Cl85	Cl	1.080941	-0.121546	0.186136
Cl86	Cl	1.173155	0.014651	0.534341
