data_functionalizedCrystal
_audit_creation_method	'MofGen! by Chris Wilmer'
_symmetry_space_group_name_H-M	'P1'
_symmetry_Int_Tables_number	1
_symmetry_cell_setting	triclinic
loop_
_symmetry_equiv_pos_as_xyz
  x,y,z
_cell_length_a	9.565339
_cell_length_b	10.489741
_cell_length_c	10.489741
_cell_angle_alpha	84.539174
_cell_angle_beta	89.999484
_cell_angle_gamma	90.000900
loop_
_atom_site_label
_atom_site_type_symbol
_atom_site_fract_x
_atom_site_fract_y
_atom_site_fract_z
O1	O	-0.116173	-1.694053	-0.179959
O2	O	-0.116194	-1.322857	-0.196852
O3	O	-0.116175	-1.516901	-0.002807
O4	O	-0.116192	-1.500009	-0.374003
O5	O	0.116345	-1.516886	-0.002819
O6	O	0.116326	-1.322842	-0.196864
O7	O	0.116347	-1.694038	-0.179971
Zn8	Zn	0.153254	-1.508437	-0.188419
Zn9	Zn	-0.153101	-1.508458	-0.188403
O10	O	0.116328	-1.499993	-0.374015
C11	C	0.000063	-1.275318	-0.195582
C12	C	0.000055	-1.133688	-0.191765
N13	N	0.362334	-1.508433	-0.188429
N14	N	-0.362180	-1.508472	-0.188383
C15	C	0.453528	-1.418666	-0.278138
C16	C	0.546712	-1.534163	-0.303949
C17	C	0.546704	-1.392986	-0.162629
C18	C	0.453466	-1.623988	-0.214298
C19	C	0.453451	-1.482735	-0.072928
C20	C	0.546593	-1.598314	-0.098690
C21	C	0.000084	-1.515618	0.044718
C22	C	0.000082	-1.511801	0.186348
C23	C	0.000087	-1.741577	-0.181241
C24	C	0.000086	-1.883206	-0.185058
C25	C	0.000074	-1.065548	-0.068300
C26	C	-0.114571	-0.973429	-0.126617
C27	C	0.114676	-0.973448	-0.126659
C28	C	-0.114684	-1.043435	-0.250133
C29	C	0.114665	-1.043463	-0.250157
C30	C	-0.000007	-0.951371	-0.308564
C31	C	0.000066	-1.501277	-0.421541
C32	C	0.000059	-1.505094	-0.563170
C33	C	0.000064	-1.388336	0.254488
C34	C	0.114712	-1.446652	0.346604
C35	C	-0.114534	-1.446696	0.346591
C36	C	0.114824	-1.570168	0.276599
C37	C	-0.114525	-1.570195	0.276576
C38	C	0.000150	-1.628600	0.368665
H39	H	0.587676	-1.555926	-0.401606
N40	N	0.402227	-1.323540	-0.373393
N41	N	0.273512	-1.307652	-0.388063
H42	H	0.237277	-1.240475	-0.455340
N43	N	0.401984	-1.455382	0.049530
N44	N	0.273243	-1.451938	0.069351
H45	H	0.236890	-1.432607	0.155837
N46	N	0.598080	-1.270500	-0.135238
N47	N	0.672794	-1.261168	-0.038805
H48	H	0.709075	-1.174660	-0.019466
N49	N	-0.236160	-0.934549	-0.061071
N50	N	-0.256589	-0.975675	0.053190
H51	H	-0.342461	-0.948225	0.099489
N52	N	-0.000071	-1.127823	0.059049
N53	N	-0.098660	-1.109574	0.133387
H54	H	-0.098769	-1.153555	0.223326
H55	H	0.211599	-0.942463	-0.074401
H56	H	0.211859	-1.622356	0.245762
N57	N	0.402344	-1.746528	-0.241793
N58	N	0.433112	-1.844393	-0.169859
H59	H	0.397008	-1.930935	-0.189281
N60	N	0.236265	-1.082395	-0.315638
N61	N	0.355222	-1.060329	-0.273575
H62	H	0.441114	-1.087826	-0.319812
N63	N	-0.236388	-1.082122	-0.315637
N64	N	-0.256057	-1.197876	-0.329117
H65	H	-0.342004	-1.225203	-0.375386
H66	H	0.000174	-1.286824	0.204837
N67	N	-0.000099	-0.889378	-0.436027
N68	N	-0.098627	-0.907845	-0.510357
H69	H	-0.098698	-0.864061	-0.600377
N70	N	0.236292	-1.381099	0.385496
N71	N	0.256713	-1.266834	0.344379
H72	H	0.342575	-1.220528	0.371841
H73	H	-0.211451	-1.622398	0.245536
H74	H	0.587199	-1.674328	-0.022802
H75	H	0.000220	-1.730204	0.418089
H76	H	-0.211470	-1.394447	0.377560
