data_functionalizedCrystal
_audit_creation_method	'MofGen! by Chris Wilmer'
_symmetry_space_group_name_H-M	'P1'
_symmetry_Int_Tables_number	1
_symmetry_cell_setting	triclinic
loop_
_symmetry_equiv_pos_as_xyz
  x,y,z
_cell_length_a	10.654562
_cell_length_b	27.732048
_cell_length_c	9.730223
_cell_angle_alpha	90.006242
_cell_angle_beta	90.003039
_cell_angle_gamma	83.566379
loop_
_atom_site_label
_atom_site_type_symbol
_atom_site_fract_x
_atom_site_fract_y
_atom_site_fract_z
O1	O	1.664970	0.067913	0.114397
O2	O	1.299222	0.074374	0.114381
O3	O	1.493455	0.000818	0.114363
O4	O	1.470736	0.141469	0.114415
O5	O	1.493453	0.000820	-0.114217
O6	O	1.299219	0.074376	-0.114199
O7	O	1.664968	0.067915	-0.114183
Zn8	Zn	1.482093	0.071146	-0.150483
Zn9	Zn	1.482096	0.071143	0.150681
O10	O	1.470734	0.141471	-0.114165
C11	C	1.252443	0.073900	0.000089
C12	C	1.113060	0.072476	0.000082
C13	C	1.047556	0.071813	-0.124506
C14	C	0.916590	0.070480	-0.124484
C15	C	0.916643	0.070474	0.124726
C16	C	1.047608	0.071804	0.124702
C17	C	1.047524	0.071819	-0.268386
C18	C	0.916558	0.070485	-0.268364
C19	C	1.492977	-0.017191	0.000070
C20	C	1.491541	-0.070855	0.000058
C21	C	1.597280	-0.409010	0.000133
C22	C	1.591952	-0.610703	0.000152
O23	O	1.688642	-0.641354	0.000216
N24	N	1.476779	-0.630546	0.000146
C25	C	1.362931	-0.599962	0.000144
O26	O	1.264848	-0.621468	0.000154
C27	C	1.368260	-0.398270	0.000135
C28	C	1.483440	-0.378430	0.000127
C29	C	1.712450	-0.389169	0.000127
C30	C	1.713781	-0.338749	0.000115
C31	C	1.599941	-0.308169	0.000109
C32	C	1.484771	-0.328010	0.000115
C33	C	1.254413	-0.367687	0.000143
C34	C	1.255756	-0.317262	0.000144
C35	C	1.370936	-0.297422	0.000136
C36	C	1.372262	-0.247010	0.000097
N37	N	1.487434	-0.227167	0.000103
C38	C	1.601274	-0.257746	0.000109
C39	C	1.360141	-0.705853	0.000146
C40	C	1.358808	-0.756276	0.000146
C41	C	1.587830	-0.767013	0.000157
C42	C	1.589161	-0.716590	0.000147
C43	C	1.475313	-0.686010	0.000152
C44	C	1.604060	-0.151860	0.000082
C45	C	1.605381	-0.101435	0.000064
C46	C	1.376360	-0.090702	0.000061
C47	C	1.375039	-0.141123	0.000072
C48	C	1.488899	-0.171701	0.000087
O49	O	1.275623	-0.216329	0.000048
O50	O	1.699343	-0.236231	0.000130
C51	C	1.595949	-0.459430	0.000146
C52	C	1.480779	-0.479271	0.000152
C53	C	1.366939	-0.448691	0.000146
C54	C	1.479446	-0.529693	0.000152
C55	C	1.593286	-0.560273	0.000158
C56	C	1.708458	-0.540430	0.000164
C57	C	1.709789	-0.490010	0.000152
C58	C	1.251767	-0.468534	0.000140
C59	C	1.250445	-0.518955	0.000150
C60	C	1.364285	-0.549534	0.000156
C61	C	1.711746	0.068390	0.000112
C62	C	1.851129	0.069813	0.000128
C63	C	1.471212	0.159480	0.000132
C64	C	1.472648	0.213144	0.000152
N65	N	1.482100	0.071147	-0.356019
C66	C	1.568128	0.038588	-0.427953
C67	C	1.568125	0.038582	-0.571836
C68	C	1.396062	0.103699	-0.571838
C69	C	1.396060	0.103702	-0.427958
C70	C	1.667471	0.000994	-0.427953
C71	C	1.667468	0.000988	-0.571836
N72	N	1.482099	0.071138	0.356217
H73	H	0.868867	0.103889	-0.323587
Cl74	Cl	0.873134	0.016113	-0.337607
H75	H	1.680522	-0.791920	0.000161
H76	H	1.805158	-0.414063	0.000137
H77	H	1.281250	-0.157277	0.000040
H78	H	1.699178	-0.085284	0.000054
Cl79	Cl	1.105632	-0.543889	0.000153
H80	H	1.638431	-0.034119	-0.616466
H81	H	1.100939	0.072337	0.226154
Cl82	Cl	0.834353	0.069624	0.281383
H83	H	1.763631	0.009271	-0.610879
H84	H	1.095187	0.038417	-0.323651
H85	H	1.075616	0.107069	-0.313017
H86	H	1.696776	-0.176751	0.000100
Cl87	Cl	1.858587	-0.313815	0.000144
Cl88	Cl	1.108638	-0.430098	0.000135
Cl89	Cl	1.733963	-0.691653	0.000139
Cl90	Cl	1.214005	-0.781211	0.000129
H91	H	1.267427	-0.680960	0.000150
H92	H	1.160622	-0.383832	0.000158
H93	H	1.163045	-0.292366	0.000151
Cl94	Cl	1.233255	-0.052250	0.000056
Cl95	Cl	1.854594	-0.465076	0.000154
H96	H	1.325999	0.130211	-0.369391
H97	H	1.801150	-0.565337	0.000163
H98	H	1.326009	0.130205	-0.630427
H99	H	1.647590	-0.036157	-0.388914
H100	H	1.758160	0.012767	-0.383318
