data_functionalizedCrystal
_audit_creation_method	'MofGen! by Chris Wilmer'
_symmetry_space_group_name_H-M	'P1'
_symmetry_Int_Tables_number	1
_symmetry_cell_setting	triclinic
loop_
_symmetry_equiv_pos_as_xyz
  x,y,z
_cell_length_a	17.000383
_cell_length_b	17.038272
_cell_length_c	9.130313
_cell_angle_alpha	89.995195
_cell_angle_beta	89.993268
_cell_angle_gamma	83.355929
loop_
_atom_site_label
_atom_site_type_symbol
_atom_site_fract_x
_atom_site_fract_y
_atom_site_fract_z
O1	O	1.057998	0.028052	-0.121900
O2	O	1.391332	0.361386	0.211433
O3	O	1.724665	0.694719	0.544766
O4	O	0.828179	0.056295	-0.121882
O5	O	1.161512	0.389628	0.211451
O6	O	1.494845	0.722962	0.544785
O7	O	0.941723	-0.071548	-0.121879
O8	O	1.275056	0.261785	0.211454
O9	O	1.608389	0.595118	0.544787
O10	O	0.944454	0.155895	-0.121903
O11	O	1.277788	0.489229	0.211430
O12	O	1.611121	0.822562	0.544764
O13	O	0.941714	-0.071551	0.121719
O14	O	1.275048	0.261782	0.455053
O15	O	1.608381	0.595116	0.788386
O16	O	0.828170	0.056292	0.121717
O17	O	1.161504	0.389625	0.455050
O18	O	1.494837	0.722959	0.788384
O19	O	1.057990	0.028049	0.121698
O20	O	1.391323	0.361383	0.455032
O21	O	1.724657	0.694716	0.788365
Cu22	Cu	0.943079	0.042170	0.143950
Cu23	Cu	1.276413	0.375504	0.477284
Cu24	Cu	1.609746	0.708837	0.810617
Cu25	Cu	0.943089	0.042174	-0.144134
Cu26	Cu	1.276423	0.375507	0.189200
Cu27	Cu	1.609756	0.708841	0.522533
O28	O	0.944446	0.155893	0.121696
O29	O	1.277779	0.489226	0.455029
O30	O	1.611113	0.822559	0.788363
C31	C	0.798624	0.057810	-0.000080
C32	C	1.131957	0.391144	0.333253
C33	C	1.465290	0.724477	0.666587
C34	C	0.710571	0.062321	-0.000073
C35	C	1.043904	0.395654	0.333261
C36	C	1.377237	0.728987	0.666594
C37	C	0.939234	-0.100508	-0.000080
C38	C	1.272567	0.232826	0.333253
C39	C	1.605901	0.566159	0.666587
C40	C	0.931821	-0.186793	-0.000080
C41	C	1.265154	0.146540	0.333254
C42	C	1.598488	0.479874	0.666587
C43	C	0.212326	0.091445	-0.000130
C44	C	0.545659	0.424778	0.333203
C45	C	0.878992	0.758112	0.666536
C46	C	0.295061	0.087201	-0.000129
C47	C	0.628395	0.420534	0.333205
C48	C	0.961728	0.753868	0.666538
C49	C	0.341068	0.013535	-0.000110
C50	C	0.674401	0.346868	0.333223
C51	C	1.007734	0.680201	0.666557
C52	C	0.304335	-0.055892	-0.000108
C53	C	0.637668	0.277442	0.333226
C54	C	0.971002	0.610775	0.666559
C55	C	0.221601	-0.051647	-0.000120
C56	C	0.554934	0.281686	0.333213
C57	C	0.888267	0.615020	0.666547
C58	C	0.591103	-0.002861	-0.000083
C59	C	0.924437	0.330472	0.333251
C60	C	1.257770	0.663806	0.666584
C61	C	0.673843	-0.007101	-0.000066
C62	C	1.007176	0.326233	0.333267
C63	C	1.340510	0.659566	0.666601
C64	C	0.664564	0.135993	-0.000090
C65	C	0.997897	0.469326	0.333244
C66	C	1.331230	0.802659	0.666577
C67	C	0.581828	0.140231	-0.000093
C68	C	0.915162	0.473564	0.333240
C69	C	1.248495	0.806898	0.666574
C70	C	0.545103	0.070804	-0.000098
C71	C	0.878436	0.404138	0.333235
C72	C	1.211769	0.737471	0.666568
C73	C	0.425637	0.009195	-0.000104
C74	C	0.758970	0.342528	0.333230
C75	C	1.092304	0.675862	0.666563
C76	C	0.460535	0.075145	-0.000115
C77	C	0.793868	0.408478	0.333218
C78	C	1.127202	0.741812	0.666552
C79	C	0.999879	-0.241568	-0.000084
C80	C	1.333213	0.091765	0.333250
C81	C	1.666546	0.425099	0.666583
C82	C	0.992910	-0.322641	-0.000097
C83	C	1.326243	0.010692	0.333236
C84	C	1.659576	0.344026	0.666570
C85	C	0.917881	-0.348938	-0.000096
C86	C	1.251214	-0.015605	0.333237
C87	C	1.584547	0.317729	0.666571
C88	C	0.849817	-0.294156	-0.000096
C89	C	1.183151	0.039177	0.333237
C90	C	1.516484	0.372510	0.666570
C91	C	0.856788	-0.213085	-0.000094
C92	C	1.190121	0.120249	0.333240
C93	C	1.523454	0.453582	0.666573
C94	C	0.893255	-0.593009	-0.000114
C95	C	1.226588	-0.259676	0.333219
C96	C	1.559921	0.073657	0.666553
C97	C	0.886289	-0.674088	-0.000113
C98	C	1.219623	-0.340754	0.333221
C99	C	1.552956	-0.007421	0.666554
C100	C	1.029382	-0.702567	-0.000116
C101	C	1.362716	-0.369234	0.333217
C102	C	1.696049	-0.035900	0.666551
C103	C	1.036346	-0.621493	-0.000104
C104	C	1.369680	-0.288159	0.333229
C105	C	1.703013	0.045174	0.666562
C106	C	0.968283	-0.566718	-0.000112
C107	C	1.301616	-0.233385	0.333221
C108	C	1.634950	0.099948	0.666554
C109	C	0.910755	-0.431807	-0.000105
C110	C	1.244088	-0.098474	0.333228
C111	C	1.577421	0.234859	0.666562
C112	C	0.975410	-0.483850	-0.000114
C113	C	1.308743	-0.150517	0.333219
C114	C	1.642076	0.182816	0.666553
C115	C	1.087545	0.026534	-0.000107
C116	C	1.420878	0.359867	0.333227
C117	C	1.754212	0.693201	0.666560
C118	C	1.175598	0.022024	-0.000124
C119	C	1.508931	0.355357	0.333210
C120	C	1.842265	0.688690	0.666543
C121	C	0.946935	0.184852	-0.000107
C122	C	1.280268	0.518185	0.333227
C123	C	1.613601	0.851519	0.666560
C124	C	0.954348	0.271137	-0.000117
C125	C	1.287681	0.604471	0.333217
C126	C	1.621014	0.937804	0.666550
N127	N	0.943078	0.042167	0.346573
N128	N	1.276411	0.375501	0.679906
N129	N	1.609745	0.708834	1.013240
N130	N	0.943097	0.042171	-0.346756
N131	N	1.276430	0.375504	-0.013423
N132	N	1.609763	0.708837	0.319910
C133	C	0.993375	-0.014421	0.423226
C134	C	1.326708	0.318912	0.756559
C135	C	1.660041	0.652246	1.089892
C136	C	0.993382	-0.014421	0.576563
C137	C	1.326716	0.318912	0.909896
C138	C	1.660049	0.652245	1.243229
C139	C	0.892794	0.098762	0.576580
C140	C	1.226128	0.432095	0.909913
C141	C	1.559461	0.765428	1.243247
C142	C	0.892783	0.098758	0.423246
C143	C	1.226117	0.432091	0.756579
C144	C	1.559450	0.765424	1.089913
H145	H	0.174873	0.151432	-0.000134
H146	H	0.508206	0.484765	0.333199
H147	H	0.841539	0.818099	0.666532
F148	F	0.474608	-0.069204	-0.000072
F149	F	0.807941	0.264129	0.333262
F150	F	1.141274	0.597463	0.666595
H151	H	0.849666	-0.453227	-0.000101
H152	H	1.182999	-0.119894	0.333232
H153	H	1.516332	0.213439	0.666566
F154	F	0.722806	-0.085510	-0.000048
F155	F	1.056139	0.247823	0.333286
F156	F	1.389472	0.581157	0.666619
H157	H	0.694475	0.192516	-0.000087
H158	H	1.027808	0.525849	0.333246
H159	H	1.361142	0.859182	0.666579
F160	F	0.532870	0.218637	-0.000122
F161	F	0.866204	0.551970	0.333211
F162	F	1.199537	0.885303	0.666545
F163	F	0.820815	-0.534724	-0.000127
F164	F	1.154148	-0.201391	0.333207
F165	F	1.487481	0.131942	0.666540
H166	H	0.825189	-0.695494	-0.000088
H167	H	1.158522	-0.362161	0.333245
H168	H	1.491855	-0.028827	0.666579
H169	H	0.561212	-0.059393	-0.000083
H170	H	0.894545	0.273940	0.333250
H171	H	1.227878	0.607274	0.666584
F172	F	1.101815	-0.760867	-0.000109
F173	F	1.435148	-0.427533	0.333224
F174	F	1.768482	-0.094200	0.666557
F175	F	1.046913	-0.074651	0.658137
F176	F	1.380246	0.258682	0.991471
F177	F	1.713580	0.592015	1.324804
F178	F	0.353301	-0.134293	-0.000093
F179	F	0.686634	0.199040	0.333240
F180	F	1.019967	0.532373	0.666574
F181	F	0.334145	0.161089	-0.000143
F182	F	0.667479	0.494422	0.333191
F183	F	1.000812	0.827756	0.666524
F184	F	1.065347	-0.380934	-0.000099
F185	F	1.398681	-0.047601	0.333235
F186	F	1.732014	0.285733	0.666568
F187	F	1.046901	-0.074652	0.341630
F188	F	1.380234	0.258682	0.674964
F189	F	1.713568	0.592015	1.008297
H190	H	0.191699	-0.108177	-0.000117
H191	H	0.525032	0.225156	0.333216
H192	H	0.858365	0.558489	0.666549
H193	H	0.851846	0.144837	0.639023
H194	H	1.185180	0.478171	0.972356
H195	H	1.518513	0.811504	1.305689
H196	H	0.423073	0.135124	-0.000137
H197	H	0.756406	0.468457	0.333196
H198	H	1.089740	0.801790	0.666530
H199	H	0.788727	-0.315573	-0.000105
H200	H	1.122060	0.017760	0.333229
H201	H	1.455394	0.351093	0.666562
H202	H	0.801367	-0.168486	-0.000091
H203	H	1.134700	0.164847	0.333243
H204	H	1.468034	0.498180	0.666576
F205	F	1.079736	-0.213589	-0.000071
F206	F	1.413069	0.119744	0.333263
F207	F	1.746403	0.453077	0.666596
H208	H	1.036498	-0.462436	-0.000147
H209	H	1.369831	-0.129103	0.333186
H210	H	1.703165	0.204231	0.666520
H211	H	1.097443	-0.600089	-0.000105
H212	H	1.430776	-0.266756	0.333228
H213	H	1.764109	0.066578	0.666562
F214	F	0.839245	0.158987	0.341660
F215	F	1.172578	0.492320	0.674993
F216	F	1.505911	0.825653	1.008327
