data_functionalizedCrystal
_audit_creation_method	'MofGen! by Chris Wilmer'
_symmetry_space_group_name_H-M	'P1'
_symmetry_Int_Tables_number	1
_symmetry_cell_setting	triclinic
loop_
_symmetry_equiv_pos_as_xyz
  x,y,z
_cell_length_a	15.698487
_cell_length_b	20.875641
_cell_length_c	20.875643
_cell_angle_alpha	119.909987
_cell_angle_beta	89.998600
_cell_angle_gamma	62.440568
loop_
_atom_site_label
_atom_site_type_symbol
_atom_site_fract_x
_atom_site_fract_y
_atom_site_fract_z
Zr1	Zr	0.859604	0.694362	0.105781
O2	O	0.734771	0.820599	0.209043
O3	O	0.893202	0.563107	0.070849
O4	O	0.905746	0.687130	0.204322
O5	O	0.717645	0.704030	-0.025988
O6	O	1.045927	0.687133	0.204323
O7	O	0.722227	0.696576	0.075571
O8	O	1.023488	0.465278	-0.034434
O9	O	0.740084	0.925885	0.212769
O10	O	1.017790	0.618954	0.059910
O11	O	0.909754	0.624514	-0.015883
O12	O	0.924524	0.770536	0.141263
O13	O	0.816488	0.776097	0.065469
Zr14	Zr	1.075870	0.706253	-0.056192
Zr15	Zr	1.083177	0.694365	0.105783
Zr16	Zr	0.852297	0.706249	-0.056194
Zr17	Zr	0.868078	0.862279	0.111723
Zr18	Zr	1.067396	0.538335	-0.062134
O19	O	1.042272	0.837508	-0.021261
O20	O	1.052663	0.820605	0.209047
O21	O	0.724380	0.837502	-0.021265
O22	O	1.200703	0.580015	-0.159454
O23	O	1.211094	0.563113	0.070853
O24	O	0.882811	0.580010	-0.159458
O25	O	1.217829	0.696585	0.075577
O26	O	1.029728	0.713484	-0.154733
O27	O	0.889547	0.713482	-0.154735
O28	O	1.213247	0.704038	-0.025982
O29	O	0.917795	0.925888	0.212771
O30	O	1.017679	0.474727	-0.163183
O31	O	1.195390	0.474730	-0.163180
O32	O	1.201199	0.465281	-0.034432
O33	O	0.734275	0.935334	0.084021
O34	O	0.911986	0.935337	0.084023
O35	O	1.010951	0.630079	-0.091674
O36	O	1.118986	0.624518	-0.015881
O37	O	1.025720	0.776100	0.065472
O38	O	0.917685	0.781661	-0.010322
C39	C	0.957138	0.490268	0.017361
C40	C	0.953540	0.418982	0.014838
C41	C	1.008241	0.382590	0.053217
C42	C	1.004863	0.315605	0.050839
C43	C	0.946778	0.285019	0.010087
C44	C	0.892076	0.321414	-0.028296
C45	C	0.895460	0.388394	-0.025923
C46	C	0.930616	0.085007	-0.001259
C47	C	0.927233	0.018025	-0.003628
C48	C	1.040022	0.012219	0.075506
C49	C	1.043396	0.079203	0.077880
C50	C	0.988698	0.115590	0.039494
N51	N	0.943322	0.216552	0.007657
N52	N	0.992161	0.184052	0.041919
C53	C	0.688081	0.700302	0.024791
C54	C	0.593169	0.700301	0.024790
C55	C	0.419385	0.700316	0.024798
C56	C	0.516088	0.700311	0.024795
C57	C	1.247393	0.700312	0.024798
C58	C	1.342305	0.700314	0.024799
C59	C	0.976878	0.685438	0.227400
C60	C	0.979980	0.680391	0.296163
C61	C	0.978336	0.910347	0.032228
C62	C	0.981934	0.981632	0.034750
C63	C	0.932756	0.757142	0.370933
C64	C	0.935684	0.752395	0.435540
C65	C	0.985831	0.670896	0.425375
C66	C	1.033062	0.594139	0.350598
C67	C	1.030139	0.598887	0.285992
C68	C	0.999798	0.648212	0.614041
C69	C	1.002714	0.643470	0.678654
C70	C	0.905337	0.801727	0.763593
C71	C	0.902414	0.806467	0.698982
C72	C	0.949649	0.729710	0.624210
N73	N	0.988823	0.666042	0.491413
N74	N	0.946663	0.734565	0.558174
C75	C	0.958595	0.715176	0.822188
C76	C	0.955490	0.720221	0.753424
C77	C	1.236794	0.490273	0.017364
C78	C	1.328109	0.418989	0.014843
C79	C	0.947997	0.505137	-0.185245
C80	C	0.941297	0.438898	-0.256530
C81	C	1.227653	0.505142	-0.185242
C82	C	1.315865	0.438905	-0.256526
C83	C	0.707822	0.895472	0.234830
C84	C	0.619609	0.961710	0.306115
C85	C	0.698681	0.910342	0.032224
C86	C	0.607365	0.981626	0.034746
C87	C	0.987477	0.895477	0.234834
C88	C	0.994177	0.961716	0.306119
C89	C	1.318168	0.382608	0.053227
C90	C	1.403961	0.315637	0.050874
C91	C	1.499693	0.285044	0.010130
C92	C	1.509632	0.321432	-0.028256
C93	C	1.423841	0.388405	-0.025897
C94	C	0.990974	0.410697	-0.329576
C95	C	0.984675	0.348468	-0.396562
C96	C	0.928705	0.314438	-0.390501
C97	C	0.879022	0.342645	-0.317448
C98	C	0.885315	0.404877	-0.250463
C99	C	1.413694	0.404896	-0.250438
C100	C	1.496589	0.342668	-0.317411
C101	C	1.481653	0.314445	-0.390471
C102	C	1.383814	0.348460	-0.396557
C103	C	1.300922	0.410692	-0.329585
C104	C	0.521781	0.995726	0.300027
C105	C	0.438887	1.057975	0.367001
C106	C	0.453823	1.086202	0.440061
C107	C	0.551662	1.052183	0.446146
C108	C	0.634553	0.989940	0.379174
C109	C	0.617306	1.018013	-0.003632
C110	C	0.531515	1.085001	-0.001259
C111	C	0.435783	1.115596	0.039487
C112	C	0.425844	1.079206	0.077869
C113	C	0.511635	1.012223	0.075501
C114	C	1.050156	0.995727	0.300033
C115	C	1.056470	1.057958	0.367007
C116	C	1.006800	1.086180	0.440066
C117	C	0.950819	1.052162	0.446150
C118	C	0.944511	0.989929	0.379177
H119	H	1.055535	0.407492	0.086405
N120	N	1.048162	0.445441	-0.335778
N121	N	1.140285	0.395583	-0.371341
H122	H	1.180674	0.420121	-0.375726
H123	H	1.587589	0.296513	-0.061428
H124	H	0.539627	1.114619	-0.032518
N125	N	0.348166	1.184020	0.041897
N126	N	0.357067	1.216495	0.007623
H127	H	0.295190	1.264820	0.009321
H128	H	0.844788	0.296502	-0.061482
H129	H	1.011944	1.136855	0.494594
N130	N	1.434003	0.425569	-0.065104
N131	N	1.483178	0.461706	-0.047007
H132	H	1.490362	0.487951	-0.074698
N133	N	0.881529	0.840400	0.381334
N134	N	0.839377	0.908921	0.448100
H135	H	0.803203	0.967726	0.455449
H136	H	1.425874	0.427866	-0.190956
N137	N	0.506490	0.966908	0.225410
N138	N	0.419129	0.997301	0.220000
H139	H	0.408322	0.976955	0.167304
N140	N	1.220381	0.413870	0.094857
N141	N	1.143780	0.473671	0.096970
H142	H	1.074718	0.495751	0.126376
H143	H	0.386319	1.136884	0.494588
H144	H	0.359230	1.085663	0.362030
N145	N	1.060750	0.278436	0.090041
N146	N	1.112605	0.305755	0.126426
H147	H	1.152081	0.279504	0.154113
N148	N	1.596513	0.307940	-0.311170
N149	N	1.609825	0.333144	-0.245931
H150	H	1.680395	0.308619	-0.241520
H151	H	0.347888	1.104127	0.111044
N152	N	1.368551	0.319634	-0.471183
N153	N	1.323803	0.373364	-0.488627
H154	H	1.313025	0.353001	-0.541333
H155	H	0.503526	0.982599	0.106751
N156	N	0.874740	0.122159	-0.040474
N157	N	0.822883	0.094841	-0.076854
H158	H	0.783418	0.121081	-0.104552
N159	N	1.095913	-0.024952	0.114706
N160	N	1.147776	0.002361	0.151084
H161	H	1.187256	-0.023892	0.178768
H162	H	1.090605	0.972759	0.240551
N163	N	0.922270	0.250868	-0.458920
N164	N	0.838426	0.266635	-0.469577
H165	H	0.833885	0.221737	-0.517899
N166	N	1.113633	1.092716	0.360783
N167	N	1.071479	1.172945	0.390915
H168	H	1.111848	1.197493	0.386519
N169	N	0.821857	0.307870	-0.311278
N170	N	0.816259	0.252303	-0.371097
H171	H	0.775891	0.227737	-0.366743
H172	H	0.563811	1.075173	0.505640
N173	N	1.048036	0.569802	0.537676
N174	N	1.140677	0.516275	0.516447
H175	H	1.174741	0.460891	0.462511
N176	N	0.834564	0.433670	-0.175857
N177	N	0.784598	0.403271	-0.170465
H178	H	0.748750	0.423603	-0.117775
N179	N	1.566342	0.250877	-0.458870
N180	N	1.653682	0.220522	-0.453415
H181	H	1.713498	0.175624	-0.501719
H182	H	1.025138	0.325509	-0.456038
H183	H	0.861582	0.872833	0.707267
N184	N	0.734487	0.955170	0.385384
N185	N	0.808498	0.899590	0.325589
H186	H	0.879077	0.875034	0.329979
H187	H	1.073899	0.527781	0.342326
H188	H	1.043549	0.577100	0.670369
H189	H	0.695248	0.993108	-0.036817
H190	H	0.879929	-0.006874	-0.036813
H191	H	0.910380	1.075150	0.505644
H192	H	1.090693	0.104105	0.111064
H193	H	0.850915	0.418026	-0.057172
H194	H	0.897230	0.814895	0.496419
H195	H	0.866882	0.864218	0.824477
N196	N	1.078408	0.520479	0.209620
N197	N	1.123193	0.447716	0.200552
H198	H	1.157296	0.392337	0.146613
H199	H	1.395849	0.286019	0.082132
H200	H	0.898923	0.962243	0.384143
N201	N	1.587305	0.216561	0.007656
N202	N	1.578399	0.184041	0.041881
H203	H	1.640268	0.135645	0.040106
H204	H	1.221268	0.438373	-0.334552
