data_functionalizedCrystal
_audit_creation_method	'MofGen! by Chris Wilmer'
_symmetry_space_group_name_H-M	'P1'
_symmetry_Int_Tables_number	1
_symmetry_cell_setting	triclinic
loop_
_symmetry_equiv_pos_as_xyz
  x,y,z
_cell_length_a	15.944551
_cell_length_b	11.792253
_cell_length_c	10.268362
_cell_angle_alpha	89.989159
_cell_angle_beta	90.000094
_cell_angle_gamma	96.151331
loop_
_atom_site_label
_atom_site_type_symbol
_atom_site_fract_x
_atom_site_fract_y
_atom_site_fract_z
O1	O	1.115190	-0.146380	0.108181
O2	O	0.870722	-0.164427	0.108215
O3	O	0.998883	0.009815	0.108170
O4	O	0.987029	-0.320622	0.108226
O5	O	0.998872	0.009822	-0.108431
O6	O	0.870711	-0.164420	-0.108385
O7	O	1.115178	-0.146373	-0.108420
Cu8	Cu	0.992944	-0.155395	-0.128180
Cu9	Cu	0.992957	-0.155404	0.127975
O10	O	0.987018	-0.320615	-0.108375
C11	C	0.839419	-0.163674	-0.000081
C12	C	0.746163	-0.161428	-0.000069
C13	C	0.998131	0.052103	-0.000134
C14	C	0.995895	0.178098	-0.000146
N15	N	0.992940	-0.155389	-0.308346
C16	C	0.530791	-0.048056	-0.000114
C17	C	0.470015	-0.100705	0.106691
C18	C	0.575418	-0.157364	-0.000085
C19	C	0.470027	-0.100724	-0.106860
C20	C	0.410488	-0.153431	-0.000107
C21	C	0.515872	-0.210044	0.106807
C22	C	0.515889	-0.210048	-0.106840
C23	C	0.455132	-0.262777	-0.000009
C24	C	0.670431	-0.159627	-0.000072
C25	C	0.315477	-0.151177	-0.000111
C26	C	1.146481	-0.147125	-0.000121
C27	C	1.239738	-0.149371	-0.000124
C28	C	0.994079	0.280420	-0.000153
C29	C	0.991809	0.408787	-0.000154
C30	C	0.987770	0.637097	-0.000095
C31	C	0.990005	0.511103	-0.000155
C32	C	0.992953	-0.155402	-0.574016
C33	C	0.992943	-0.155398	-0.426179
N34	N	0.992967	-0.155402	0.308141
H35	H	0.449700	-0.054475	0.196971
H36	H	0.422386	-0.353588	0.000066
H37	H	0.536226	-0.256240	-0.197124
N38	N	0.443130	-0.039463	-0.226463
H39	H	0.470928	0.041631	-0.226376
H40	H	0.460627	-0.080014	-0.307053
H41	H	0.563711	0.042661	0.000003
H42	H	0.536074	-0.256246	0.197201
