data_functionalizedCrystal
_audit_creation_method	'MofGen! by Chris Wilmer'
_symmetry_space_group_name_H-M	'P1'
_symmetry_Int_Tables_number	1
_symmetry_cell_setting	triclinic
loop_
_symmetry_equiv_pos_as_xyz
  x,y,z
_cell_length_a	16.974897
_cell_length_b	14.853559
_cell_length_c	15.455313
_cell_angle_alpha	92.670929
_cell_angle_beta	83.675220
_cell_angle_gamma	83.516184
loop_
_atom_site_label
_atom_site_type_symbol
_atom_site_fract_x
_atom_site_fract_y
_atom_site_fract_z
O1	O	1.056273	0.106969	-0.146196
O2	O	0.825308	0.122477	-0.130001
O3	O	0.946963	-0.016547	-0.138530
O4	O	0.934617	0.245993	-0.137666
O5	O	0.940006	-0.008629	0.006220
O6	O	0.818351	0.130394	0.014749
O7	O	1.049316	0.114887	-0.001446
Cu8	Cu	0.933198	0.123363	0.019868
Cu9	Cu	0.941425	0.114000	-0.151315
O10	O	0.927660	0.253910	0.007083
C11	C	0.792271	0.125990	-0.055554
C12	C	0.704197	0.124653	-0.049378
C13	C	0.666605	0.119712	-0.125374
C14	C	0.583848	0.118471	-0.119558
C15	C	0.538686	0.122164	-0.037747
C16	C	0.576284	0.127109	0.038254
C17	C	0.659038	0.128357	0.032438
C18	C	0.290779	0.118902	-0.011891
C19	C	0.208019	0.117651	-0.006081
C20	C	0.215589	0.109015	-0.163894
C21	C	0.298345	0.110257	-0.169703
C22	C	0.335936	0.115206	-0.093702
N23	N	0.454095	0.120893	-0.031801
N24	N	0.420524	0.116484	-0.099649
C25	C	0.942927	-0.046174	-0.066118
C26	C	0.941254	-0.146247	-0.066005
C27	C	0.937950	-0.573692	-0.144411
C28	C	0.930365	-0.565055	0.013401
C29	C	0.931944	-0.471032	0.013291
C30	C	0.936524	-0.428334	-0.065671
C31	C	0.939526	-0.479660	-0.144523
C32	C	0.928934	-0.419698	0.092142
C33	C	0.930511	-0.325669	0.092035
C34	C	0.935097	-0.282971	0.013072
C35	C	0.938100	-0.334302	-0.065783
C36	C	0.942680	-0.291605	-0.144745
C37	C	0.945689	-0.342936	-0.223602
C38	C	0.944112	-0.436962	-0.223487
C39	C	0.936674	-0.188945	0.012957
C40	C	0.944256	-0.197573	-0.144858
C41	C	1.082353	0.111373	-0.075895
C42	C	1.170427	0.112710	-0.082076
C43	C	0.931697	0.283537	-0.065331
C44	C	0.933370	0.383610	-0.065449
N45	N	0.927417	0.129948	0.140269
N46	N	0.947213	0.107408	-0.271716
C47	C	0.979119	0.070908	0.182038
C48	C	0.974754	0.075896	0.273152
C49	C	0.918692	0.139930	0.322495
C50	C	0.866985	0.198973	0.280720
C51	C	0.871346	0.193980	0.189608
C52	C	0.899867	0.161458	0.595396
C53	C	0.895511	0.166449	0.686514
C54	C	1.003280	0.043370	0.678941
C55	C	1.007640	0.038386	0.587827
C56	C	0.955930	0.097426	0.546060
N57	N	0.914231	0.145032	0.415628
N58	N	0.960388	0.092319	0.452929
H59	H	0.539506	0.130122	0.104867
H60	H	1.024774	0.018768	0.141869
O61	O	0.933608	-0.139016	0.089532
C62	C	0.865649	-0.073795	0.098976
H63	H	0.819344	-0.097207	0.057594
H64	H	0.839259	-0.065356	0.170376
H65	H	0.883388	-0.006084	0.076598
H66	H	0.321376	0.122926	0.049994
H67	H	0.829244	0.242056	0.155600
H68	H	1.053291	-0.013756	0.547654
H69	H	0.171247	0.120685	0.060544
H70	H	0.947990	-0.162816	-0.209159
H71	H	1.016853	0.027820	0.307160
O72	O	0.950023	-0.301340	-0.300243
C73	C	0.882487	-0.236678	-0.300215
H74	H	0.856545	-0.215332	-0.230115
H75	H	0.900629	-0.174753	-0.334769
H76	H	0.835678	-0.267659	-0.335736
H77	H	0.689645	0.132384	0.094322
H78	H	0.946561	-0.478764	-0.287688
H79	H	0.857764	0.209533	0.561397
O80	O	0.940722	-0.623575	-0.220970
C81	C	0.871390	-0.667682	-0.220789
H82	H	0.821730	-0.629511	-0.172681
H83	H	0.851674	-0.669034	-0.288956
H84	H	0.884700	-0.740167	-0.200584
H85	H	0.926631	-0.599824	0.077688
H86	H	0.821333	0.251108	0.320900
O87	O	0.924395	-0.461271	0.168786
C88	C	0.854602	-0.504845	0.178401
H89	H	0.834756	-0.519144	0.111518
H90	H	0.867351	-0.571522	0.210770
H91	H	0.805263	-0.459106	0.220690
H92	H	0.703370	0.116701	-0.191994
H93	H	0.928064	-0.283883	0.156245
H94	H	0.335112	0.107243	-0.236323
O95	O	1.053581	-0.014030	0.719374
C96	C	1.103980	-0.071638	0.656286
H97	H	1.108030	-0.038234	0.591271
H98	H	1.166060	-0.084239	0.678158
H99	H	1.078606	-0.139023	0.648417
O100	O	0.547463	0.113618	-0.193467
C101	C	0.605067	0.110638	-0.266923
H102	H	0.666200	0.084258	-0.248158
H103	H	0.588791	0.063483	-0.320771
H104	H	0.606793	0.181762	-0.291237
O105	O	0.841009	0.228531	0.734550
C106	C	0.789493	0.183339	0.790695
H107	H	0.820372	0.113404	0.802124
H108	H	0.773922	0.224528	0.855645
H109	H	0.732531	0.175543	0.759717
O110	O	0.179016	0.104378	-0.237690
C111	C	0.122466	0.181463	-0.238411
H112	H	0.139042	0.238856	-0.194949
H113	H	0.121886	0.203842	-0.307922
H114	H	0.060742	0.164025	-0.212947
