data_functionalizedCrystal
_audit_creation_method	'MofGen! by Chris Wilmer'
_symmetry_space_group_name_H-M	'P1'
_symmetry_Int_Tables_number	1
_symmetry_cell_setting	triclinic
loop_
_symmetry_equiv_pos_as_xyz
  x,y,z
_cell_length_a	16.120484
_cell_length_b	11.169417
_cell_length_c	11.169409
_cell_angle_alpha	89.980176
_cell_angle_beta	87.139270
_cell_angle_gamma	87.073731
loop_
_atom_site_label
_atom_site_type_symbol
_atom_site_fract_x
_atom_site_fract_y
_atom_site_fract_z
Zn1	Zn	-0.331818	-1.810616	0.702705
Zn2	Zn	0.168182	-1.310616	1.202705
Zn3	Zn	-0.471261	-1.800274	0.512176
Zn4	Zn	0.028739	-1.300274	1.012176
Zn5	Zn	-0.331869	-1.609898	0.502043
Zn6	Zn	0.168131	-1.109898	1.002043
Zn7	Zn	-0.471193	-1.599683	0.712816
Zn8	Zn	0.028807	-1.099683	1.212816
O9	O	-0.401535	-1.705118	0.607435
O10	O	0.098465	-1.205118	1.107435
O11	O	-0.350323	-1.977193	0.677440
O12	O	0.149677	-1.477193	1.177440
O13	O	-0.452820	-1.774967	0.342886
O14	O	0.047180	-1.274967	0.842886
O15	O	-0.215197	-1.645127	0.520189
O16	O	0.284803	-1.145127	1.020189
O17	O	-0.452771	-1.969595	0.537459
O18	O	0.047229	-1.469595	1.037459
O19	O	-0.215160	-1.792593	0.667615
O20	O	0.284840	-1.292593	1.167615
O21	O	-0.350409	-1.635099	0.335441
O22	O	0.149591	-1.135099	0.835441
O23	O	-0.350344	-1.440594	0.529994
O24	O	0.149656	-0.940594	1.029994
O25	O	-0.452655	-1.627717	0.879421
O26	O	0.047345	-1.127717	1.379421
O27	O	-0.452705	-1.433089	0.684847
O28	O	0.047295	-0.933089	1.184847
O29	O	-0.350257	-1.782688	0.871993
O30	O	0.149743	-1.282688	1.371993
O31	O	-0.587917	-1.765062	0.547264
O32	O	-0.087917	-1.265062	1.047264
O33	O	-0.587867	-1.617688	0.694673
O34	O	-0.087867	-1.117688	1.194673
C35	C	-0.401523	-1.393294	0.607419
C36	C	0.098477	-0.893294	1.107419
C37	C	-0.401537	-1.259893	0.607442
C38	C	0.098463	-0.759893	1.107442
C39	C	-0.618142	-1.689177	0.623191
C40	C	-0.118142	-1.189177	1.123191
C41	C	-0.710808	-1.682467	0.629972
C42	C	-0.210808	-1.182467	1.129972
C43	C	-0.401443	-1.705217	0.920471
C44	C	0.098557	-1.205217	1.420471
C45	C	-0.401403	-1.705259	1.053868
C46	C	0.098597	-1.205259	1.553868
C47	C	-0.880468	-1.670224	0.642376
C48	C	-0.380468	-1.170224	1.142376
C49	C	-0.921762	-1.740226	0.572514
C50	C	-0.421762	-1.240226	1.072514
C51	C	-1.016167	-1.733414	0.579416
C52	C	-0.516167	-1.233414	1.079416
C53	C	-0.786055	-1.677035	0.635476
C54	C	-0.286055	-1.177035	1.135476
C55	C	-0.184083	-1.721153	0.591644
C56	C	0.315917	-1.221153	1.091644
C57	C	-0.091417	-1.727987	0.584915
C58	C	0.408583	-1.227987	1.084915
C59	C	-0.401549	-2.018159	0.607452
C60	C	0.098451	-1.518159	1.107452
C61	C	-0.401554	-2.151558	0.607460
C62	C	0.098446	-1.651558	1.107460
C63	C	-0.401568	-1.705093	0.295613
C64	C	0.098432	-1.205093	0.795613
C65	C	-0.401372	-1.705300	0.162199
C66	C	0.098628	-1.205300	0.662199
H67	H	-0.916013	-1.605182	0.707363
H68	H	-0.416013	-1.105182	1.207363
H69	H	-0.886215	-1.805272	0.507520
H70	H	-0.386215	-1.305272	1.007520
