data_functionalizedCrystal
_audit_creation_method	'MofGen! by Chris Wilmer'
_symmetry_space_group_name_H-M	'P1'
_symmetry_Int_Tables_number	1
_symmetry_cell_setting	triclinic
loop_
_symmetry_equiv_pos_as_xyz
  x,y,z
_cell_length_a	12.759401
_cell_length_b	18.050589
_cell_length_c	12.759393
_cell_angle_alpha	89.970429
_cell_angle_beta	89.981287
_cell_angle_gamma	90.029746
loop_
_atom_site_label
_atom_site_type_symbol
_atom_site_fract_x
_atom_site_fract_y
_atom_site_fract_z
Zn1	Zn	1.606145	-0.295593	-0.594027
Zn2	Zn	1.606001	-0.419801	-0.418350
Zn3	Zn	1.430450	-0.295633	-0.418362
Zn4	Zn	1.430394	-0.419749	-0.593987
O5	O	1.518247	-0.357694	-0.506182
O6	O	1.753147	-0.312075	-0.570735
O7	O	1.582677	-0.403368	-0.271331
O8	O	1.453840	-0.191703	-0.441686
O9	O	1.753041	-0.403330	-0.441666
O10	O	1.582922	-0.191674	-0.570746
O11	O	1.453701	-0.312142	-0.271339
O12	O	1.283422	-0.312092	-0.441648
O13	O	1.453744	-0.403241	-0.741014
O14	O	1.283380	-0.403280	-0.570679
O15	O	1.582867	-0.312024	-0.741043
O16	O	1.582623	-0.523719	-0.441627
O17	O	1.453605	-0.523681	-0.570667
C18	C	1.245280	-0.357685	-0.506161
C19	C	1.128503	-0.357699	-0.506177
C20	C	1.073647	-0.405253	-0.573257
C21	C	0.963923	-0.405256	-0.573278
C22	C	0.963921	-0.310149	-0.439129
C23	C	1.073643	-0.310143	-0.439114
C24	C	0.814014	-0.431903	-0.697139
C25	C	0.759154	-0.479469	-0.764211
C26	C	0.794727	-0.551945	-0.780160
C27	C	0.885158	-0.576870	-0.729023
C28	C	0.940012	-0.529308	-0.661944
C29	C	0.904440	-0.456822	-0.646014
C30	C	1.223555	-0.283503	-0.315251
C31	C	1.278411	-0.235944	-0.248166
C32	C	1.242840	-0.163467	-0.232206
C33	C	1.152406	-0.138545	-0.283325
C34	C	1.097550	-0.186103	-0.350410
C35	C	1.133128	-0.258579	-0.366372
C36	C	1.518121	-0.550646	-0.506164
C37	C	1.518162	-0.633192	-0.506192
C38	C	1.448071	-0.832649	-0.576339
C39	C	1.422459	-0.882097	-0.480470
C40	C	1.518266	-0.784322	-0.506206
C41	C	1.543929	-0.881956	-0.602085
C42	C	1.518363	-0.930307	-0.506227
C43	C	1.492603	-0.832683	-0.410286
C44	C	1.614118	-0.832538	-0.531966
C45	C	1.588542	-0.881964	-0.436031
C46	C	1.518207	-0.700224	-0.506194
C47	C	1.518423	-1.014404	-0.506228
C48	C	1.792281	-0.357704	-0.506203
C49	C	1.909057	-0.357708	-0.506212
C50	C	1.518315	-0.357623	-0.780215
C51	C	1.518344	-0.357592	-0.896992
C52	C	1.518403	-0.163988	-0.506222
C53	C	1.518470	-0.081443	-0.506239
C54	C	1.451132	-0.405067	-0.951840
C55	C	1.451170	-0.405039	-1.061564
C56	C	1.585634	-0.310056	-1.061582
C57	C	1.585601	-0.310088	-0.951860
C58	C	1.413604	-0.492579	-1.211501
C59	C	1.346376	-0.540046	-1.266353
C60	C	1.243841	-0.551454	-1.230738
C61	C	1.208514	-0.515383	-1.140272
C62	C	1.275737	-0.467909	-1.085425
C63	C	1.378286	-0.456516	-1.121039
C64	C	1.623156	-0.222548	-0.801922
C65	C	1.690374	-0.175070	-0.747073
C66	C	1.792911	-0.163655	-0.782686
C67	C	1.828234	-0.199713	-0.873155
C68	C	1.761016	-0.247191	-0.928004
C69	C	1.658481	-0.258607	-0.892383
C70	C	1.518240	-0.357712	-0.233214
C71	C	1.518415	-0.357533	-0.116438
H72	H	0.919240	-0.271431	-0.384527
H73	H	1.640391	-0.271379	-1.106269
H74	H	1.695113	-0.810755	-0.553780
H75	H	1.565597	-0.903600	-0.683161
C76	C	0.924274	-0.656603	-0.746562
N77	N	0.953740	-0.716660	-0.759775
H78	H	1.470842	-0.811128	-0.329188
H79	H	1.125015	-0.524667	-1.111288
H80	H	1.118311	-0.443974	-0.627867
C81	C	1.377156	-0.457328	-0.891489
N82	N	1.321437	-0.496695	-0.846036
C83	C	1.236885	-0.428236	-0.985915
N84	N	1.207621	-0.398358	-0.910957
H85	H	1.189103	-0.590103	-1.275407
H86	H	1.375148	-0.569415	-1.340011
H87	H	1.497099	-0.483303	-1.240500
C88	C	1.668789	-0.911039	-0.355827
N89	N	1.729226	-0.932940	-0.295415
H90	H	1.013638	-0.549602	-0.620308
C91	C	1.799878	-0.286860	-1.027520
N92	N	1.829149	-0.316739	-1.102473
H93	H	1.847634	-0.124985	-0.738026
H94	H	1.911725	-0.190414	-0.902158
C95	C	1.651515	-0.135407	-0.647551
N96	N	1.622248	-0.105536	-0.572589
H97	H	1.539663	-0.231841	-0.772913
H98	H	1.123431	-0.079532	-0.270313
H99	H	0.750053	-0.590672	-0.834773
C100	C	1.303167	-0.111162	-0.158378
N101	N	1.348597	-0.071768	-0.102766
C102	C	0.659687	-0.452046	-0.820467
N103	N	0.584769	-0.431395	-0.862838
H104	H	0.785049	-0.372885	-0.684170
H105	H	1.023918	-0.165802	-0.392041
C106	C	1.367761	-0.803387	-0.656346
N107	N	1.307269	-0.781345	-0.716600
C108	C	1.377902	-0.263359	-0.191947
N109	N	1.452843	-0.284005	-0.149611
C110	C	1.262693	-0.363232	-0.332806
N111	N	1.292171	-0.423285	-0.346023
H112	H	1.341446	-0.903881	-0.458702
