data_functionalizedCrystal
_audit_creation_method	'MofGen! by Chris Wilmer'
_symmetry_space_group_name_H-M	'P1'
_symmetry_Int_Tables_number	1
_symmetry_cell_setting	triclinic
loop_
_symmetry_equiv_pos_as_xyz
  x,y,z
_cell_length_a	14.853566
_cell_length_b	15.625429
_cell_length_c	13.930277
_cell_angle_alpha	71.918299
_cell_angle_beta	89.995631
_cell_angle_gamma	83.949208
loop_
_atom_site_label
_atom_site_type_symbol
_atom_site_fract_x
_atom_site_fract_y
_atom_site_fract_z
O1	O	1.196370	0.117696	-0.120732
O2	O	0.933910	0.131719	-0.125629
O3	O	1.072150	-0.006520	-0.077499
O4	O	1.058130	0.255936	-0.168862
O5	O	1.072131	-0.006523	0.082164
O6	O	0.933891	0.131716	0.034034
O7	O	1.196351	0.117693	0.038930
Zn8	Zn	1.065118	0.124704	0.061832
Zn9	Zn	1.065143	0.124708	-0.148531
O10	O	1.058111	0.255933	-0.009199
C11	C	0.900312	0.131082	-0.045578
C12	C	0.800228	0.129179	-0.044922
C13	C	0.377054	0.121130	-0.129135
C14	C	0.377054	0.121127	0.044936
C15	C	0.471088	0.122915	0.044311
C16	C	0.518109	0.123811	-0.043039
C17	C	0.471096	0.122920	-0.129764
C18	C	0.518107	0.123815	0.131030
C19	C	0.612147	0.125603	0.130408
C20	C	0.659170	0.126493	0.043060
C21	C	0.612152	0.125601	-0.043668
C22	C	0.659173	0.126498	-0.131018
C23	C	0.612156	0.125599	-0.217744
C24	C	0.518120	0.123810	-0.217112
C25	C	0.753207	0.128282	0.042428
C26	C	0.753215	0.128288	-0.131646
C27	C	1.071505	-0.040110	0.014022
C28	C	1.069600	-0.140192	0.048855
C29	C	1.063364	-0.469343	-0.271709
C30	C	1.061570	-0.563385	-0.238949
C31	C	1.061549	-0.563375	-0.064895
C32	C	1.063347	-0.469332	-0.097641
C33	C	1.064253	-0.422323	-0.201049
C34	C	1.064237	-0.422311	-0.026981
C35	C	1.066030	-0.328276	-0.059725
C36	C	1.066934	-0.281260	-0.163129
C37	C	1.066046	-0.328287	-0.233793
C38	C	1.063325	-0.469321	0.076426
C39	C	1.064214	-0.422300	0.147086
C40	C	1.066014	-0.328264	0.114343
C41	C	1.066917	-0.281248	0.010939
C42	C	1.066901	-0.281237	0.185007
C43	C	1.068694	-0.187201	0.152263
C44	C	1.068711	-0.187213	-0.021805
C45	C	1.229949	0.118330	-0.041122
C46	C	1.330033	0.120233	-0.041785
C47	C	1.058756	0.289522	-0.100723
C48	C	1.060661	0.389605	-0.135562
N49	N	1.065107	0.124701	0.205399
N50	N	1.065161	0.124704	-0.292095
C51	C	1.003928	0.185896	0.636363
C52	C	1.126383	0.063513	0.678941
C53	C	1.126372	0.063510	0.578447
C54	C	1.065139	0.124702	0.506905
C55	C	1.003917	0.185897	0.535857
C56	C	1.187599	0.002322	0.549484
C57	C	1.187592	0.002318	0.448984
C58	C	1.126354	0.063506	0.377441
C59	C	1.065129	0.124703	0.406399
C60	C	1.003896	0.185895	0.334857
C61	C	0.942666	0.247088	0.363815
C62	C	0.942680	0.247086	0.464315
C63	C	1.126340	0.063509	0.276941
C64	C	1.003885	0.185896	0.234352
H65	H	0.479815	0.123091	0.202143
C66	C	0.663857	0.126582	0.225811
N67	N	0.702807	0.127314	0.297672
H68	H	0.892829	0.296908	0.487899
H69	H	0.892813	0.296915	0.305552
H70	H	0.954073	0.235717	0.659944
H71	H	1.237447	-0.047509	0.425414
C72	C	1.193735	-0.003794	0.757640
N73	N	1.244466	-0.054495	0.816921
C74	C	1.254950	-0.064984	0.628184
N75	N	1.305679	-0.115684	0.687468
H76	H	0.791482	0.129023	0.113036
H77	H	1.063473	-0.460587	0.231281
C78	C	1.069678	-0.135476	0.229993
N79	N	1.070418	-0.096517	0.288542
C80	C	1.068908	-0.177817	-0.199148
N81	N	1.070397	-0.099904	-0.226277
H82	H	1.176197	0.013690	0.253367
H83	H	1.066154	-0.319524	0.269202
C84	C	0.804931	0.129271	-0.227739
N85	N	0.843883	0.130011	-0.300116
C86	C	1.067047	-0.276573	-0.347548
N87	N	1.067799	-0.237622	-0.433224
H88	H	0.650452	0.126335	-0.288866
C89	C	0.466394	0.122828	-0.312504
N90	N	0.427431	0.122091	-0.384354
H91	H	1.069456	-0.148937	-0.106009
H92	H	0.338763	0.120404	0.116050
C93	C	1.060566	-0.615101	-0.316690
N94	N	1.059799	-0.654052	-0.375245
C95	C	1.064364	-0.417629	-0.385464
N96	N	1.065116	-0.378678	-0.471140
C97	C	0.325336	0.120141	-0.224529
N98	N	0.286381	0.119397	-0.296381
H99	H	1.060808	-0.601662	0.019300
H100	H	1.061855	-0.545889	0.103082
H101	H	0.954018	0.235723	0.176107
