data_functionalizedCrystal
_audit_creation_method	'MofGen! by Chris Wilmer'
_symmetry_space_group_name_H-M	'P1'
_symmetry_Int_Tables_number	1
_symmetry_cell_setting	triclinic
loop_
_symmetry_equiv_pos_as_xyz
  x,y,z
_cell_length_a	12.594517
_cell_length_b	29.839131
_cell_length_c	12.594509
_cell_angle_alpha	90.042620
_cell_angle_beta	90.021327
_cell_angle_gamma	90.035028
loop_
_atom_site_label
_atom_site_type_symbol
_atom_site_fract_x
_atom_site_fract_y
_atom_site_fract_z
Zn1	Zn	1.627125	-0.178842	0.601754
Zn2	Zn	1.626956	-0.253977	0.423730
Zn3	Zn	1.449129	-0.178861	0.423782
Zn4	Zn	1.449052	-0.253946	0.601660
O5	O	1.538066	-0.216407	0.512732
O6	O	1.776048	-0.188814	0.578156
O7	O	1.603329	-0.244034	0.274791
O8	O	1.472844	-0.115992	0.447452
O9	O	1.775925	-0.244015	0.447363
O10	O	1.603617	-0.115978	0.578206
O11	O	1.472680	-0.188847	0.274830
O12	O	1.300173	-0.188816	0.447361
O13	O	1.472712	-0.243962	0.750619
O14	O	1.300116	-0.243981	0.578047
O15	O	1.603542	-0.188784	0.750687
O16	O	1.603254	-0.316840	0.447272
O17	O	1.472548	-0.316817	0.577997
C18	C	1.261525	-0.216398	0.512700
C19	C	1.143219	-0.216404	0.512712
C20	C	1.073966	-0.186360	0.441768
C21	C	1.003123	-0.227339	0.415563
C22	C	1.003264	-0.175445	0.538935
C23	C	1.073934	-0.257405	0.486457
C24	C	1.074081	-0.205484	0.609874
C25	C	1.003270	-0.246491	0.583706
C26	C	1.537903	-0.333129	0.512642
C27	C	1.537931	-0.383064	0.512639
C28	C	1.606144	-0.692665	0.580913
C29	C	1.606260	-0.880338	0.580977
O30	O	1.664098	-0.904567	0.638959
N31	N	1.538246	-0.903849	0.512850
C32	C	1.470194	-0.880438	0.444707
O33	O	1.412340	-0.904742	0.386770
C34	C	1.470074	-0.692766	0.444649
C35	C	1.538100	-0.669258	0.512773
C36	C	1.674163	-0.669156	0.649032
C37	C	1.674138	-0.622241	0.649011
C38	C	1.606093	-0.598834	0.580871
C39	C	1.538074	-0.622342	0.512752
C40	C	1.402017	-0.669357	0.376513
C41	C	1.401992	-0.622436	0.376506
C42	C	1.470017	-0.598927	0.444630
C43	C	1.470004	-0.552020	0.444592
N44	N	1.538017	-0.528509	0.512719
C45	C	1.606062	-0.551916	0.580858
C46	C	1.470264	-0.978969	0.444741
C47	C	1.470295	-1.025887	0.444754
C48	C	1.606359	-1.025783	0.581025
C49	C	1.606333	-0.978864	0.581006
C50	C	1.538277	-0.955458	0.512868
C51	C	1.606004	-0.453390	0.580809
C52	C	1.605976	-0.406471	0.580779
C53	C	1.469908	-0.406578	0.444512
C54	C	1.469940	-0.453494	0.444538
C55	C	1.537991	-0.476899	0.512695
O56	O	1.412188	-0.527762	0.386649
O57	O	1.663891	-0.527604	0.638803
C58	C	1.606170	-0.739580	0.580933
C59	C	1.538151	-0.763089	0.512814
C60	C	1.470106	-0.739682	0.444675
C61	C	1.538182	-0.810006	0.512827
C62	C	1.606226	-0.833413	0.580967
C63	C	1.674240	-0.809903	0.649094
C64	C	1.674214	-0.762987	0.649073
C65	C	1.402093	-0.763192	0.376548
C66	C	1.402124	-0.810108	0.376573
C67	C	1.470169	-0.833515	0.444713
C68	C	1.815686	-0.216416	0.512764
C69	C	1.933992	-0.216420	0.512777
C70	C	1.538137	-0.216367	0.790353
C71	C	1.538167	-0.216350	0.908658
C72	C	1.538257	-0.099228	0.512845
C73	C	1.538339	-0.049294	0.512893
C74	C	1.538056	-0.216413	0.236191
C75	C	1.538232	-0.216304	0.117886
C76	C	1.467031	-0.246345	0.977874
C77	C	1.564143	-0.257322	1.048658
C78	C	1.441131	-0.205346	1.048674
C79	C	1.635330	-0.227349	0.977884
C80	C	1.512252	-0.175355	0.977893
C81	C	1.609431	-0.186316	1.048645
H82	H	0.972424	-0.271935	0.643730
C83	C	1.749025	-0.694897	0.723985
H84	H	1.789530	-0.674170	0.764540
H85	H	1.708313	-0.713200	0.770338
H86	H	1.795445	-0.713193	0.683309
C87	C	1.395057	-0.380827	0.369568
H88	H	1.354549	-0.401545	0.328992
H89	H	1.348657	-0.362526	0.410246
H90	H	1.435790	-0.362526	0.323218
C91	C	1.748963	-0.596387	0.723951
H92	H	1.789480	-0.617053	0.764535
H93	H	1.795355	-0.578083	0.683279
H94	H	1.708209	-0.578083	0.770293
C95	C	1.593830	-0.304129	1.090625
H96	H	1.656664	-0.302084	1.132111
H97	H	1.537576	-0.315389	1.133181
H98	H	1.605586	-0.323792	1.032453
H99	H	1.359042	-0.196059	1.079769
C100	C	0.961327	-0.128645	0.568873
H101	H	0.919865	-0.130713	0.631681
H102	H	1.019497	-0.108988	0.580737
H103	H	0.918732	-0.117365	0.512666
C104	C	1.385830	-0.280661	0.935887
H105	H	1.404444	-0.309760	0.960119
H106	H	1.317051	-0.273146	0.961166
H107	H	1.385921	-0.280255	0.860465
H108	H	1.729607	-0.743850	0.704546
H109	H	1.661374	-0.387331	0.636253
C110	C	1.482557	-0.128562	0.935859
H111	H	1.413531	-0.120803	0.960054
H112	H	1.532408	-0.107163	0.961145
H113	H	1.483387	-0.128854	0.860437
C114	C	1.395475	-1.051743	0.369814
H115	H	1.405236	-1.083039	0.379569
H116	H	1.323950	-1.044072	0.385326
H117	H	1.411092	-1.044073	0.298308
C118	C	1.681141	-0.953009	0.655959
H119	H	1.721659	-0.973673	0.696546
H120	H	1.727533	-0.934700	0.615299
H121	H	1.640371	-0.934710	0.702298
C122	C	1.116139	-0.192998	0.720847
H123	H	1.157596	-0.216990	0.747973
H124	H	1.158736	-0.166798	0.715966
H125	H	1.057997	-0.187511	0.767088
C126	C	1.115913	-0.152072	0.360625
H127	H	1.091613	-0.159912	0.291645
H128	H	1.090678	-0.123043	0.378552
H129	H	1.191336	-0.152115	0.361607
C130	C	1.327290	-0.835964	0.301638
H131	H	1.337045	-0.867260	0.311399
H132	H	1.255767	-0.828290	0.317155
H133	H	1.342901	-0.828298	0.230128
C134	C	1.746270	-0.239929	0.936062
H135	H	1.745565	-0.239877	0.860633
H136	H	1.796828	-0.218728	0.960875
H137	H	1.764854	-0.268943	0.960865
C138	C	0.961009	-0.239830	0.304606
H139	H	0.985208	-0.218448	0.254256
H140	H	0.986245	-0.268725	0.285511
H141	H	0.885587	-0.240010	0.305596
C142	C	1.680868	-0.479129	0.655770
H143	H	1.721377	-0.458403	0.696323
H144	H	1.640152	-0.497430	0.702124
H145	H	1.727284	-0.497428	0.615095
C146	C	1.681202	-1.051536	0.655982
H147	H	1.671466	-1.082845	0.646232
H148	H	1.752725	-1.043829	0.640483
H149	H	1.665564	-1.043828	0.727483
C150	C	1.395408	-0.953228	0.369773
H151	H	1.354921	-0.973953	0.329199
H152	H	1.348989	-0.934926	0.410427
H153	H	1.436146	-0.934929	0.323423
H154	H	1.104848	-0.292061	0.464214
H155	H	1.669686	-0.160931	1.079522
H156	H	1.346624	-0.688489	0.321039
H157	H	1.346569	-0.603381	0.321021
H158	H	1.414556	-0.472636	0.389057
H159	H	1.729648	-0.828969	0.704572
H160	H	1.346681	-0.744138	0.321062
