data_functionalizedCrystal
_audit_creation_method	'MofGen! by Chris Wilmer'
_symmetry_space_group_name_H-M	'P1'
_symmetry_Int_Tables_number	1
_symmetry_cell_setting	triclinic
loop_
_symmetry_equiv_pos_as_xyz
  x,y,z
_cell_length_a	16.625548
_cell_length_b	29.839132
_cell_length_c	16.625539
_cell_angle_alpha	90.034308
_cell_angle_beta	90.022345
_cell_angle_gamma	90.045122
loop_
_atom_site_label
_atom_site_type_symbol
_atom_site_fract_x
_atom_site_fract_y
_atom_site_fract_z
Zn1	Zn	-1.232553	0.178854	-0.455914
Zn2	Zn	-0.982553	0.428854	-0.205914
Zn3	Zn	-0.732553	0.678854	0.044086
Zn4	Zn	-0.482553	0.928854	0.294086
Zn5	Zn	-1.232402	0.253985	-0.321067
Zn6	Zn	-0.982402	0.503985	-0.071067
Zn7	Zn	-0.732402	0.753985	0.178933
Zn8	Zn	-0.482402	1.003985	0.428933
Zn9	Zn	-1.097715	0.178870	-0.321090
Zn10	Zn	-0.847715	0.428870	-0.071090
Zn11	Zn	-0.597715	0.678870	0.178910
Zn12	Zn	-0.347715	0.928870	0.428910
Zn13	Zn	-1.097631	0.253958	-0.455853
Zn14	Zn	-0.847631	0.503958	-0.205853
Zn15	Zn	-0.597631	0.753958	0.044147
Zn16	Zn	-0.347631	1.003958	0.294147
O17	O	-1.165075	0.216417	-0.388481
O18	O	-0.915075	0.466417	-0.138481
O19	O	-0.665075	0.716417	0.111519
O20	O	-0.415075	0.966417	0.361519
O21	O	-1.345365	0.188825	-0.438042
O22	O	-1.095365	0.438825	-0.188042
O23	O	-0.845365	0.688825	0.061958
O24	O	-0.595365	0.938825	0.311958
O25	O	-1.214508	0.244039	-0.208238
O26	O	-0.964508	0.494039	0.041762
O27	O	-0.714508	0.744039	0.291762
O28	O	-0.464508	0.994039	0.541762
O29	O	-1.115699	0.116001	-0.339010
O30	O	-0.865699	0.366001	-0.089010
O31	O	-0.615699	0.616001	0.160990
O32	O	-0.365699	0.866001	0.410990
O33	O	-1.345255	0.244024	-0.338971
O34	O	-1.095255	0.494024	-0.088971
O35	O	-0.845255	0.744024	0.161029
O36	O	-0.595255	0.994024	0.411029
O37	O	-1.214764	0.115989	-0.438065
O38	O	-0.964764	0.365989	-0.188065
O39	O	-0.714764	0.615989	0.061935
O40	O	-0.464764	0.865989	0.311935
O41	O	-1.115553	0.188852	-0.208255
O42	O	-0.865553	0.438852	0.041745
O43	O	-0.615553	0.688852	0.291745
O44	O	-0.365553	0.938852	0.541745
O45	O	-0.984871	0.188825	-0.338951
O46	O	-0.734871	0.438825	-0.088951
O47	O	-0.484871	0.688825	0.161049
O48	O	-0.234871	0.938825	0.411049
O49	O	-1.115557	0.243977	-0.568693
O50	O	-0.865557	0.493977	-0.318693
O51	O	-0.615557	0.743977	-0.068693
O52	O	-0.365557	0.993977	0.181307
O53	O	-0.984810	0.243992	-0.437960
O54	O	-0.734810	0.493992	-0.187960
O55	O	-0.484810	0.743992	0.062040
O56	O	-0.234810	0.993992	0.312040
O57	O	-1.214683	0.188799	-0.568738
O58	O	-0.964683	0.438799	-0.318738
O59	O	-0.714683	0.688799	-0.068738
O60	O	-0.464683	0.938799	0.181262
O61	O	-1.214427	0.316849	-0.338911
O62	O	-0.964427	0.566849	-0.088911
O63	O	-0.714427	0.816849	0.161089
O64	O	-0.464427	1.066849	0.411089
O65	O	-1.115411	0.316829	-0.437938
O66	O	-0.865411	0.566829	-0.187938
O67	O	-0.615411	0.816829	0.062062
O68	O	-0.365411	1.066829	0.312062
C69	C	-0.955584	0.216408	-0.388452
C70	C	-0.705584	0.466408	-0.138452
C71	C	-0.455584	0.716408	0.111548
C72	C	-0.205584	0.966408	0.361548
C73	C	-0.865963	0.216415	-0.388459
C74	C	-0.615963	0.466415	-0.138459
C75	C	-0.365963	0.716415	0.111541
C76	C	-0.115963	0.966415	0.361541
C77	C	-0.537788	0.216414	-0.388483
C78	C	-0.287788	0.466414	-0.138483
C79	C	-0.037788	0.716414	0.111517
C80	C	0.212212	0.966414	0.361517
C81	C	-0.629096	0.216413	-0.388474
C82	C	-0.379096	0.466413	-0.138474
C83	C	-0.129096	0.716413	0.111526
C84	C	0.120904	0.966413	0.361526
C85	C	-0.701873	0.216415	-0.388470
C86	C	-0.451873	0.466415	-0.138470
C87	C	-0.201873	0.716415	0.111530
C88	C	0.048127	0.966415	0.361530
C89	C	-0.793187	0.216413	-0.388462
C90	C	-0.543187	0.466413	-0.138462
C91	C	-0.293187	0.716413	0.111538
C92	C	-0.043187	0.966413	0.361538
C93	C	-1.164916	0.333139	-0.388433
C94	C	-0.914916	0.583139	-0.138433
C95	C	-0.664916	0.833139	0.111567
C96	C	-0.414916	1.083139	0.361567
C97	C	-1.164921	0.383074	-0.388439
C98	C	-0.914921	0.633074	-0.138439
C99	C	-0.664921	0.883074	0.111561
C100	C	-0.414921	1.133074	0.361561
C101	C	-0.375384	0.216423	-0.388503
C102	C	-0.125384	0.466423	-0.138503
C103	C	0.124616	0.716423	0.111497
C104	C	0.374616	0.966423	0.361497
C105	C	-0.465005	0.216418	-0.388492
C106	C	-0.215005	0.466418	-0.138492
C107	C	0.034995	0.716418	0.111508
C108	C	0.284995	0.966418	0.361508
C109	C	-1.216669	0.692715	-0.336960
C110	C	-0.966669	0.942715	-0.086960
C111	C	-0.716669	1.192715	0.163040
C112	C	-0.466669	1.442715	0.413040
C113	C	-1.216746	0.880388	-0.336978
C114	C	-0.966746	1.130388	-0.086978
C115	C	-0.716746	1.380388	0.163022
C116	C	-0.466746	1.630388	0.413022
O117	O	-1.260657	0.904651	-0.293195
O118	O	-1.010657	1.154651	-0.043195
O119	O	-0.760657	1.404651	0.206805
O120	O	-0.510657	1.654651	0.456805
N121	N	-1.165160	0.903859	-0.388494
N122	N	-0.915160	1.153859	-0.138494
N123	N	-0.665160	1.403859	0.111506
N124	N	-0.415160	1.653859	0.361506
C125	C	-1.113554	0.880408	-0.440012
C126	C	-0.863554	1.130408	-0.190012
C127	C	-0.613554	1.380408	0.059988
C128	C	-0.363554	1.630408	0.309988
O129	O	-1.069684	0.904678	-0.483836
O130	O	-0.819684	1.154678	-0.233836
O131	O	-0.569684	1.404678	0.016164
O132	O	-0.319684	1.654678	0.266164
C133	C	-1.113482	0.692736	-0.439998
C134	C	-0.863482	0.942736	-0.189998
C135	C	-0.613482	1.192736	0.060002
C136	C	-0.363482	1.442736	0.310002
C137	C	-1.165066	0.669268	-0.388473
C138	C	-0.915066	0.919268	-0.138473
C139	C	-0.665066	1.169268	0.111527
C140	C	-0.415066	1.419268	0.361527
C141	C	-1.268249	0.669247	-0.285440
C142	C	-1.018249	0.919247	-0.035440
C143	C	-0.768249	1.169247	0.214560
C144	C	-0.518249	1.419247	0.464560
C145	C	-1.268227	0.622331	-0.285433
C146	C	-1.018227	0.872331	-0.035433
C147	C	-0.768227	1.122331	0.214567
C148	C	-0.518227	1.372331	0.464567
C149	C	-1.216623	0.598884	-0.336946
C150	C	-0.966623	0.848884	-0.086946
C151	C	-0.716623	1.098884	0.163054
C152	C	-0.466623	1.348884	0.413054
C153	C	-1.165043	0.622352	-0.388466
C154	C	-0.915043	0.872352	-0.138466
C155	C	-0.665043	1.122352	0.111534
C156	C	-0.415043	1.372352	0.361534
C157	C	-1.061881	0.669287	-0.491520
C158	C	-0.811881	0.919287	-0.241520
C159	C	-0.561881	1.169287	0.008480
C160	C	-0.311881	1.419287	0.258480
C161	C	-1.061869	0.622366	-0.491513
C162	C	-0.811869	0.872366	-0.241513
C163	C	-0.561869	1.122366	0.008487
C164	C	-0.311869	1.372366	0.258487
C165	C	-1.113453	0.598897	-0.439988
C166	C	-0.863453	0.848897	-0.189988
C167	C	-0.613453	1.098897	0.060012
C168	C	-0.363453	1.348897	0.310012
C169	C	-1.113417	0.551990	-0.439971
C170	C	-0.863417	0.801990	-0.189971
C171	C	-0.613417	1.051990	0.060029
C172	C	-0.363417	1.301990	0.310029
N173	N	-1.165003	0.528519	-0.388456
N174	N	-0.915003	0.778519	-0.138456
N175	N	-0.665003	1.028519	0.111544
N176	N	-0.415003	1.278519	0.361544
C177	C	-1.216606	0.551966	-0.336943
C178	C	-0.966606	0.801966	-0.086943
C179	C	-0.716606	1.051966	0.163057
C180	C	-0.466606	1.301966	0.413057
C181	C	-1.113595	0.978939	-0.440015
C182	C	-0.863595	1.228939	-0.190015
C183	C	-0.613595	1.478939	0.059985
C184	C	-0.363595	1.728939	0.309985
C185	C	-1.113611	1.025857	-0.440018
C186	C	-0.863611	1.275857	-0.190018
C187	C	-0.613611	1.525857	0.059982
C188	C	-0.363611	1.775857	0.309982
C189	C	-1.216805	1.025833	-0.336985
C190	C	-0.966805	1.275833	-0.086985
C191	C	-0.716805	1.525833	0.163015
C192	C	-0.466805	1.775833	0.413015
C193	C	-1.216783	0.978914	-0.336979
C194	C	-0.966783	1.228914	-0.086979
C195	C	-0.716783	1.478914	0.163021
C196	C	-0.466783	1.728914	0.413021
C197	C	-1.165181	0.955468	-0.388500
C198	C	-0.915181	1.205468	-0.138500
C199	C	-0.665181	1.455468	0.111500
C200	C	-0.415181	1.705468	0.361500
C201	C	-1.216554	0.453440	-0.336931
C202	C	-0.966554	0.703440	-0.086931
C203	C	-0.716554	0.953440	0.163069
C204	C	-0.466554	1.203440	0.413069
C205	C	-1.216524	0.406521	-0.336926
C206	C	-0.966524	0.656521	-0.086926
C207	C	-0.716524	0.906521	0.163074
C208	C	-0.466524	1.156521	0.413074
C209	C	-1.113334	0.406549	-0.439962
C210	C	-0.863334	0.656549	-0.189962
C211	C	-0.613334	0.906549	0.060038
C212	C	-0.363334	1.156549	0.310038
C213	C	-1.113361	0.453464	-0.439965
C214	C	-0.863361	0.703464	-0.189965
C215	C	-0.613361	0.953464	0.060035
C216	C	-0.363361	1.203464	0.310035
C217	C	-1.164977	0.476909	-0.388446
C218	C	-0.914977	0.726909	-0.138446
C219	C	-0.664977	0.976909	0.111554
C220	C	-0.414977	1.226909	0.361554
O221	O	-1.069535	0.527698	-0.483738
O222	O	-0.819535	0.777698	-0.233738
O223	O	-0.569535	1.027698	0.016262
O224	O	-0.319535	1.277698	0.266262
O225	O	-1.260482	0.527688	-0.293139
O226	O	-1.010482	0.777688	-0.043139
O227	O	-0.760482	1.027688	0.206861
O228	O	-0.510482	1.277688	0.456861
C229	C	-1.216692	0.739630	-0.336967
C230	C	-0.966692	0.989630	-0.086967
C231	C	-0.716692	1.239630	0.163033
C232	C	-0.466692	1.489630	0.413033
C233	C	-1.165112	0.763099	-0.388487
C234	C	-0.915112	1.013099	-0.138487
C235	C	-0.665112	1.263099	0.111513
C236	C	-0.415112	1.513099	0.361513
C237	C	-1.113508	0.739652	-0.440000
C238	C	-0.863508	0.989652	-0.190000
C239	C	-0.613508	1.239652	0.060000
C240	C	-0.363508	1.489652	0.310000
C241	C	-1.165128	0.810017	-0.388490
C242	C	-0.915128	1.060017	-0.138490
C243	C	-0.665128	1.310017	0.111510
C244	C	-0.415128	1.560017	0.361510
C245	C	-1.216732	0.833464	-0.336977
C246	C	-0.966732	1.083464	-0.086977
C247	C	-0.716732	1.333464	0.163023
C248	C	-0.466732	1.583464	0.413023
C249	C	-1.268318	0.809993	-0.285462
C250	C	-1.018318	1.059993	-0.035462
C251	C	-0.768318	1.309993	0.214538
C252	C	-0.518318	1.559993	0.464538
C253	C	-1.268295	0.763077	-0.285455
C254	C	-1.018295	1.013077	-0.035455
C255	C	-0.768295	1.263077	0.214545
C256	C	-0.518295	1.513077	0.464545
C257	C	-1.061922	0.763123	-0.491516
C258	C	-0.811922	1.013123	-0.241516
C259	C	-0.561922	1.263123	0.008484
C260	C	-0.311922	1.513123	0.258484
C261	C	-1.061948	0.810038	-0.491518
C262	C	-0.811948	1.060038	-0.241518
C263	C	-0.561948	1.310038	0.008482
C264	C	-0.311948	1.560038	0.258482
C265	C	-1.113552	0.833485	-0.440005
C266	C	-0.863552	1.083485	-0.190005
C267	C	-0.613552	1.333485	0.059995
C268	C	-0.363552	1.583485	0.309995
C269	C	-1.165128	0.216383	-0.598790
C270	C	-0.915128	0.466383	-0.348790
C271	C	-0.665128	0.716383	-0.098790
C272	C	-0.415128	0.966383	0.151210
C273	C	-1.165150	0.216369	-0.688411
C274	C	-0.915150	0.466369	-0.438411
C275	C	-0.665150	0.716369	-0.188411
C276	C	-0.415150	0.966369	0.061589
C277	C	-1.165227	1.099238	-0.388529
C278	C	-0.915227	1.349238	-0.138529
C279	C	-0.665227	1.599238	0.111471
C280	C	-0.415227	1.849238	0.361471
C281	C	-1.165215	1.049304	-0.388506
C282	C	-0.915215	1.299304	-0.138506
C283	C	-0.665215	1.549304	0.111494
C284	C	-0.415215	1.799304	0.361494
C285	C	-1.165187	0.216319	-1.016587
C286	C	-0.915187	0.466319	-0.766587
C287	C	-0.665187	0.716319	-0.516587
C288	C	-0.415187	0.966319	-0.266587
C289	C	-1.165175	0.216334	-0.925278
C290	C	-0.915175	0.466334	-0.675278
C291	C	-0.665175	0.716334	-0.425278
C292	C	-0.415175	0.966334	-0.175278
C293	C	-1.165169	0.216344	-0.852502
C294	C	-0.915169	0.466344	-0.602502
C295	C	-0.665169	0.716344	-0.352502
C296	C	-0.415169	0.966344	-0.102502
C297	C	-1.165156	0.216359	-0.761188
C298	C	-0.915156	0.466359	-0.511188
C299	C	-0.665156	0.716359	-0.261188
C300	C	-0.415156	0.966359	-0.011188
C301	C	-1.165069	0.216418	-0.178990
C302	C	-0.915069	0.466418	0.071010
C303	C	-0.665069	0.716418	0.321010
C304	C	-0.415069	0.966418	0.571010
C305	C	-1.165203	0.216305	-0.089369
C306	C	-0.915203	0.466305	0.160631
C307	C	-0.665203	0.716305	0.410631
C308	C	-0.415203	0.966305	0.660631
H309	H	-1.258530	0.387414	-0.294966
H310	H	-1.008530	0.637414	-0.044966
H311	H	-0.758530	0.887414	0.205034
H312	H	-0.508530	1.137414	0.455034
F313	F	-1.323236	0.834955	-0.230636
F314	F	-1.073236	1.084955	0.019364
F315	F	-0.823236	1.334955	0.269364
F316	F	-0.573236	1.584955	0.519364
H317	H	-1.071572	0.959852	-0.481971
H318	H	-0.821572	1.209852	-0.231971
H319	H	-0.571572	1.459852	0.018029
H320	H	-0.321572	1.709852	0.268029
H321	H	-1.310233	0.603226	-0.243480
H322	H	-1.060233	0.853226	0.006520
H323	H	-0.810233	1.103226	0.256520
H324	H	-0.560233	1.353226	0.506520
H325	H	-1.310275	0.688332	-0.243492
H326	H	-1.060275	0.938332	0.006508
H327	H	-0.810275	1.188332	0.256508
H328	H	-0.560275	1.438332	0.506508
H329	H	-1.258788	0.959809	-0.295023
H330	H	-1.008788	1.209809	-0.045023
H331	H	-0.758788	1.459809	0.204977
H332	H	-0.508788	1.709809	0.454977
F333	F	-1.058700	1.050829	-0.494849
F334	F	-0.808700	1.300829	-0.244849
F335	F	-0.558700	1.550829	0.005151
F336	F	-0.308700	1.800829	0.255151
F337	F	-1.271723	1.050795	-0.282159
F338	F	-1.021723	1.300795	-0.032159
F339	F	-0.771723	1.550795	0.217841
F340	F	-0.521723	1.800795	0.467841
H341	H	-1.019872	0.688387	-0.533473
H342	H	-0.769872	0.938387	-0.283473
H343	H	-0.519872	1.188387	-0.033473
H344	H	-0.269872	1.438387	0.216527
H345	H	-1.019849	0.603278	-0.533470
H346	H	-0.769849	0.853278	-0.283470
H347	H	-0.519849	1.103278	-0.033470
H348	H	-0.269849	1.353278	0.216530
H349	H	-1.071360	0.472573	-0.481923
H350	H	-0.821360	0.722573	-0.231923
H351	H	-0.571360	0.972573	0.018077
H352	H	-0.321360	1.222573	0.268077
F353	F	-1.058420	0.381586	-0.494785
F354	F	-0.808420	0.631586	-0.244785
F355	F	-0.558420	0.881586	0.005215
F356	F	-0.308420	1.131586	0.255215
F357	F	-1.323201	0.738106	-0.230617
F358	F	-1.073201	0.988106	0.019383
F359	F	-0.823201	1.238106	0.269383
F360	F	-0.573201	1.488106	0.519383
H361	H	-1.019935	0.829142	-0.533475
H362	H	-0.769935	1.079142	-0.283475
H363	H	-0.519935	1.329142	-0.033475
H364	H	-0.269935	1.579142	0.216525
H365	H	-1.019901	0.744036	-0.533465
H366	H	-0.769901	0.994036	-0.283465
H367	H	-0.519901	1.244036	-0.033465
H368	H	-0.269901	1.494036	0.216535
H369	H	-1.258587	0.472524	-0.294982
H370	H	-1.008587	0.722524	-0.044982
H371	H	-0.758587	0.972524	0.205018
H372	H	-0.508587	1.222524	0.455018
