data_functionalizedCrystal
_audit_creation_method	'MofGen! by Chris Wilmer'
_symmetry_space_group_name_H-M	'P1'
_symmetry_Int_Tables_number	1
_symmetry_cell_setting	triclinic
loop_
_symmetry_equiv_pos_as_xyz
  x,y,z
_cell_length_a	17.000371
_cell_length_b	15.500227
_cell_length_c	15.944551
_cell_angle_alpha	87.172611
_cell_angle_beta	79.548993
_cell_angle_gamma	92.619542
loop_
_atom_site_label
_atom_site_type_symbol
_atom_site_fract_x
_atom_site_fract_y
_atom_site_fract_z
O1	O	1.059807	0.071948	0.026094
O2	O	1.393140	0.405282	0.359427
O3	O	1.726473	0.738615	0.692760
O4	O	0.828076	0.071950	0.056579
O5	O	1.161409	0.405283	0.389912
O6	O	1.494742	0.738616	0.723246
O7	O	0.950269	0.071941	-0.081406
O8	O	1.283602	0.405274	0.251928
O9	O	1.616935	0.738608	0.585261
O10	O	0.937613	0.071957	0.164079
O11	O	1.270947	0.405290	0.497412
O12	O	1.604280	0.738623	0.830745
O13	O	0.942854	-0.071947	-0.073063
O14	O	1.276187	0.261386	0.260270
O15	O	1.609520	0.594720	0.593604
O16	O	0.820661	-0.071939	0.064922
O17	O	1.153994	0.261395	0.398255
O18	O	1.487327	0.594728	0.731588
O19	O	1.052392	-0.071940	0.034436
O20	O	1.385725	0.261393	0.367770
O21	O	1.719058	0.594727	0.701103
Cu22	Cu	0.935849	-0.085077	0.050441
Cu23	Cu	1.269182	0.248256	0.383774
Cu24	Cu	1.602516	0.581589	0.717107
Cu25	Cu	0.944618	0.085087	0.040575
Cu26	Cu	1.277952	0.418420	0.373908
Cu27	Cu	1.611285	0.751754	0.707241
O28	O	0.930198	-0.071931	0.172421
O29	O	1.263532	0.261402	0.505754
O30	O	1.596865	0.594735	0.839088
C31	C	0.794715	0.000006	0.062388
C32	C	1.128048	0.333339	0.395721
C33	C	1.461381	0.666672	0.729054
C34	C	0.706356	0.000006	0.067257
C35	C	1.039689	0.333339	0.400590
C36	C	1.373023	0.666673	0.733923
C37	C	0.674326	-0.000000	-0.007671
C38	C	1.007660	0.333333	0.325662
C39	C	1.340993	0.666666	0.658995
C40	C	0.591304	0.000006	-0.003092
C41	C	0.924637	0.333340	0.330242
C42	C	1.257971	0.666673	0.663575
C43	C	0.540313	0.000013	0.076417
C44	C	0.873646	0.333346	0.409751
C45	C	1.206979	0.666680	0.743084
C46	C	0.572348	0.000022	0.151351
C47	C	0.905681	0.333355	0.484684
C48	C	1.239014	0.666688	0.818017
C49	C	0.655369	0.000021	0.146770
C50	C	0.988702	0.333355	0.480103
C51	C	1.322036	0.666688	0.813437
C52	C	0.289168	0.000020	0.094111
C53	C	0.622501	0.333353	0.427444
C54	C	0.955835	0.666686	0.760778
C55	C	0.206141	0.000018	0.098686
C56	C	0.539475	0.333351	0.432020
C57	C	0.872808	0.666684	0.765353
C58	C	0.225104	0.000004	-0.055757
C59	C	0.558437	0.333337	0.277576
C60	C	0.891770	0.666670	0.610910
C61	C	0.308125	-0.000002	-0.060330
C62	C	0.641459	0.333331	0.273003
C63	C	0.974792	0.666665	0.606336
C64	C	0.340153	0.000012	0.014603
C65	C	0.673487	0.333345	0.347936
C66	C	1.006820	0.666678	0.681270
C67	C	0.455450	0.000017	0.081100
C68	C	0.788783	0.333350	0.414434
C69	C	1.122117	0.666683	0.747767
C70	C	0.425015	0.000014	0.009918
C71	C	0.758348	0.333347	0.343252
C72	C	1.091682	0.666680	0.676585
N73	N	0.929687	-0.204762	0.057379
N74	N	1.263021	0.128571	0.390712
N75	N	1.596354	0.461905	0.724046
C76	C	0.981483	-0.250042	-0.001071
C77	C	1.314816	0.083291	0.332262
C78	C	1.648149	0.416625	0.665595
C79	C	0.976830	-0.340615	0.004183
C80	C	1.310163	-0.007281	0.337517
C81	C	1.643497	0.326052	0.670850
C82	C	0.920385	-0.385905	0.067892
C83	C	1.253718	-0.052572	0.401226
C84	C	1.587051	0.280761	0.734559
C85	C	0.868584	-0.340619	0.126345
C86	C	1.201917	-0.007285	0.459679
C87	C	1.535250	0.326048	0.793012
C88	C	0.873233	-0.250048	0.121087
C89	C	1.206567	0.083286	0.454420
C90	C	1.539900	0.416619	0.787753
C91	C	0.903635	-0.659371	0.086823
C92	C	1.236968	-0.326038	0.420157
C93	C	1.570302	0.007296	0.753490
C94	C	0.898991	-0.749948	0.092079
C95	C	1.232324	-0.416615	0.425413
C96	C	1.565658	-0.083282	0.758746
C97	C	1.007236	-0.749938	-0.030084
C98	C	1.340570	-0.416605	0.303249
C99	C	1.673903	-0.083271	0.636582
C100	C	1.011884	-0.659365	-0.035334
C101	C	1.345218	-0.326032	0.297999
C102	C	1.678551	0.007301	0.631332
C103	C	0.960081	-0.614087	0.023116
C104	C	1.293414	-0.280753	0.356449
C105	C	1.626747	0.052580	0.689782
C106	C	0.915629	-0.478485	0.073267
C107	C	1.248962	-0.145152	0.406600
C108	C	1.582296	0.188182	0.739933
C109	C	0.964833	-0.521509	0.017737
C110	C	1.298166	-0.188175	0.351071
C111	C	1.631500	0.145158	0.684404
C112	C	1.085753	0.000006	0.028628
C113	C	1.419086	0.333339	0.361961
C114	C	1.752420	0.666673	0.695294
C115	C	1.174112	0.000011	0.023758
C116	C	1.507445	0.333345	0.357092
C117	C	1.840778	0.666678	0.690425
C118	C	0.946036	-0.000003	-0.108490
C119	C	1.279369	0.333330	0.224844
C120	C	1.612703	0.666664	0.558177
C121	C	0.944461	-0.000004	-0.201619
C122	C	1.277794	0.333330	0.131714
C123	C	1.611127	0.666663	0.465048
N124	N	0.950786	0.204772	0.033629
N125	N	1.284120	0.538105	0.366963
N126	N	1.617453	0.871438	0.700296
C127	C	0.864955	0.000009	-0.410600
C128	C	1.198288	0.333342	-0.077266
C129	C	1.531622	0.666675	0.256067
C130	C	0.898219	-0.070937	-0.470233
C131	C	1.231552	0.262396	-0.136899
C132	C	1.564886	0.595730	0.196434
C133	C	0.941611	0.000003	-0.372135
C134	C	1.274945	0.333336	-0.038801
C135	C	1.608278	0.666670	0.294532
C136	C	0.905548	0.070925	-0.478442
C137	C	1.238881	0.404259	-0.145109
C138	C	1.572214	0.737592	0.188224
C139	C	0.938854	0.000013	-0.536844
C140	C	1.272187	0.333347	-0.203511
C141	C	1.605520	0.666680	0.129823
C142	C	0.974893	-0.071001	-0.430538
C143	C	1.308227	0.262332	-0.097204
C144	C	1.641560	0.595665	0.236129
C145	C	0.982215	0.070925	-0.438744
C146	C	1.315548	0.404258	-0.105411
C147	C	1.648881	0.737592	0.227923
C148	C	1.015534	-0.000038	-0.498363
C149	C	1.348867	0.333295	-0.165029
C150	C	1.682200	0.666628	0.168304
C151	C	0.943198	-0.000004	-0.277249
C152	C	1.276531	0.333330	0.056084
C153	C	1.609864	0.666663	0.389417
C154	C	0.937273	0.000014	-0.631728
C155	C	1.270606	0.333347	-0.298395
C156	C	1.603940	0.666680	0.034938
C157	C	0.934431	0.000015	0.199505
C158	C	1.267765	0.333348	0.532838
C159	C	1.601098	0.666681	0.866171
C160	C	0.936007	0.000021	0.292634
C161	C	1.269340	0.333354	0.625967
C162	C	1.602674	0.666688	0.959301
H163	H	0.565230	0.000002	-0.064106
H164	H	0.898563	0.333335	0.269227
H165	H	1.231897	0.666668	0.602560
F166	F	0.689457	0.000031	0.226519
F167	F	1.022790	0.333365	0.559852
F168	F	1.356123	0.666698	0.893185
F169	F	0.818103	-0.201858	0.183296
F170	F	1.151436	0.131475	0.516629
F171	F	1.484769	0.464808	0.849962
H172	H	0.822621	-0.377500	0.178216
H173	H	1.155954	-0.044166	0.511550
H174	H	1.489288	0.289167	0.844883
F175	F	0.867191	0.149316	-0.506114
F176	F	1.200524	0.482650	-0.172780
F177	F	1.533858	0.815983	0.160553
F178	F	0.855558	-0.526692	0.141071
F179	F	1.188891	-0.193358	0.474405
F180	F	1.522225	0.139975	0.807738
H181	H	0.715839	-0.000009	-0.072416
H182	H	1.049172	0.333324	0.260917
H183	H	1.382505	0.666657	0.594251
H184	H	1.079216	-0.000079	-0.536226
H185	H	1.412549	0.333255	-0.202893
H186	H	1.745883	0.666588	0.130440
H187	H	1.027449	-0.213172	-0.052947
H188	H	1.360783	0.120161	0.280387
H189	H	1.694116	0.453494	0.613720
F190	F	0.838911	-0.798144	0.159893
F191	F	1.172245	-0.464811	0.493226
F192	F	1.505578	-0.131478	0.826560
H193	H	0.861456	-0.622512	0.134417
H194	H	1.194789	-0.289179	0.467751
H195	H	1.528122	0.044154	0.801084
F196	F	1.031955	-0.388806	-0.058027
F197	F	1.365289	-0.055472	0.275307
F198	F	1.698622	0.277861	0.608640
H199	H	1.017701	0.130907	-0.424486
H200	H	1.351034	0.464240	-0.091153
H201	H	1.684367	0.797573	0.242181
F202	F	0.781784	-0.000079	-0.360912
F203	F	1.115117	0.333255	-0.027579
F204	F	1.448450	0.666588	0.305754
F205	F	0.191011	-0.000008	-0.135501
F206	F	0.524344	0.333326	0.197833
F207	F	0.857677	0.666659	0.531166
F208	F	1.024901	-0.473306	-0.050068
F209	F	1.358234	-0.139973	0.283266
F210	F	1.691568	0.193361	0.616599
F211	F	0.851802	-0.149334	-0.488838
F212	F	1.185135	0.183999	-0.155505
F213	F	1.518469	0.517333	0.177829
F214	F	1.013195	-0.149484	-0.402992
F215	F	1.346528	0.183850	-0.069659
F216	F	1.679862	0.517183	0.263674
H217	H	0.315235	0.000037	0.155127
H218	H	0.648568	0.333370	0.488460
H219	H	0.981902	0.666703	0.821793
F220	F	0.479285	0.000010	-0.074698
F221	F	0.812618	0.333344	0.258635
F222	F	1.145952	0.666677	0.591969
H223	H	0.349638	-0.000011	-0.125075
H224	H	0.682971	0.333322	0.208258
H225	H	1.016304	0.666656	0.541592
H226	H	0.164625	0.000019	0.163436
H227	H	0.497958	0.333352	0.496769
H228	H	0.831291	0.666686	0.830102
F229	F	1.071960	-0.611165	-0.103139
F230	F	1.405293	-0.277832	0.230194
F231	F	1.738626	0.055502	0.563527
H232	H	0.530824	0.000033	0.216088
H233	H	0.864157	0.333366	0.549422
H234	H	1.197491	0.666700	0.882755
H235	H	0.413923	0.000021	0.145837
H236	H	0.747257	0.333355	0.479170
H237	H	1.080590	0.666688	0.812503
F238	F	1.062364	-0.798132	-0.092289
F239	F	1.395698	-0.464799	0.241045
F240	F	1.729031	-0.131465	0.574378
