data_functionalizedCrystal
_audit_creation_method	'MofGen! by Chris Wilmer'
_symmetry_space_group_name_H-M	'P1'
_symmetry_Int_Tables_number	1
_symmetry_cell_setting	triclinic
loop_
_symmetry_equiv_pos_as_xyz
  x,y,z
_cell_length_a	12.837943
_cell_length_b	27.732048
_cell_length_c	11.892095
_cell_angle_alpha	93.851775
_cell_angle_beta	85.689438
_cell_angle_gamma	88.735798
loop_
_atom_site_label
_atom_site_type_symbol
_atom_site_fract_x
_atom_site_fract_y
_atom_site_fract_z
O1	O	1.380115	0.122782	-0.094008
O2	O	1.880115	0.622782	0.405992
O3	O	1.078409	0.116579	-0.094014
O4	O	1.578409	0.616579	0.405986
O5	O	1.238631	0.049749	-0.093989
O6	O	1.738631	0.549749	0.406011
O7	O	1.219894	0.189612	-0.094033
O8	O	1.719894	0.689612	0.405967
O9	O	1.225272	0.055311	0.094016
O10	O	1.725272	0.555311	0.594016
O11	O	1.065051	0.122142	0.093992
O12	O	1.565051	0.622142	0.593992
O13	O	1.366757	0.128345	0.093997
O14	O	1.866757	0.628345	0.593997
Zn15	Zn	1.213783	0.126126	0.123844
Zn16	Zn	1.713783	0.626126	0.623844
Zn17	Zn	1.231383	0.118797	-0.123861
Zn18	Zn	1.731383	0.618797	0.376139
O19	O	1.206535	0.195175	0.093973
O20	O	1.706535	0.695175	0.593973
C21	C	1.033143	0.117265	-0.000011
C22	C	1.533143	0.617265	0.499989
C23	C	0.918166	0.111016	-0.000012
C24	C	1.418166	0.611016	0.499988
C25	C	0.676005	0.186144	-0.000019
C26	C	1.176005	0.686144	0.499981
C27	C	0.567973	0.180275	-0.000020
C28	C	1.067973	0.680275	0.499980
C29	C	0.594068	0.093407	-0.000005
C30	C	1.094068	0.593407	0.499995
C31	C	0.702100	0.099277	-0.000005
C32	C	1.202100	0.599277	0.499995
C33	C	0.743064	0.145647	-0.000014
C34	C	1.243064	0.645647	0.499986
C35	C	0.851099	0.151516	-0.000022
C36	C	1.351099	0.651516	0.499978
C37	C	0.877191	0.064649	0.000001
C38	C	1.377191	0.564649	0.500001
C39	C	0.769159	0.058780	0.000001
C40	C	1.269159	0.558780	0.500001
C41	C	1.231558	0.034504	0.000017
C42	C	1.731558	0.534504	0.500017
C43	C	1.230373	-0.019210	0.000026
C44	C	1.730373	0.480790	0.500026
C45	C	1.317601	-0.353705	-0.000031
C46	C	1.817601	0.146295	0.499969
C47	C	1.313207	-0.555583	-0.000046
C48	C	1.813207	-0.055583	0.499954
O49	O	1.392971	-0.582888	-0.000094
O50	O	1.892971	-0.082888	0.499906
N51	N	1.218201	-0.579414	-0.000047
N52	N	1.718201	-0.079414	0.499953
C53	C	1.124288	-0.552772	-0.000051
C54	C	1.624288	-0.052772	0.499949
O55	O	1.043379	-0.577674	-0.000064
O56	O	1.543379	-0.077674	0.499936
C57	C	1.128683	-0.350895	-0.000043
C58	C	1.628683	0.149105	0.499957
C59	C	1.223695	-0.327067	-0.000031
C60	C	1.723695	0.172933	0.499969
C61	C	1.412605	-0.329876	-0.000020
C62	C	1.912605	0.170124	0.499980
C63	C	1.413702	-0.279410	-0.000010
C64	C	1.913702	0.220590	0.499990
C65	C	1.319795	-0.252772	-0.000010
C66	C	1.819795	0.247228	0.499990
C67	C	1.224792	-0.276600	-0.000021
C68	C	1.724792	0.223400	0.499979
C69	C	1.034772	-0.324255	-0.000056
C70	C	1.534772	0.175745	0.499944
C71	C	1.035879	-0.273783	-0.000056
C72	C	1.535879	0.226217	0.499944
C73	C	1.130890	-0.249954	-0.000044
C74	C	1.630890	0.250046	0.499956
C75	C	1.131982	-0.199496	-0.000012
C76	C	1.631982	0.300504	0.499988
N77	N	1.226988	-0.175665	-0.000011
N78	N	1.726988	0.324335	0.499989
C79	C	1.320894	-0.202303	-0.000010
C80	C	1.820894	0.297697	0.499990
C81	C	1.121987	-0.658760	-0.000053
C82	C	1.621987	-0.158760	0.499947
C83	C	1.120887	-0.709229	-0.000053
C84	C	1.620887	-0.209229	0.499947
C85	C	1.309807	-0.712036	-0.000050
C86	C	1.809807	-0.212036	0.499950
C87	C	1.310905	-0.661566	-0.000042
C88	C	1.810905	-0.161566	0.499958
C89	C	1.216992	-0.634929	-0.000052
C90	C	1.716992	-0.134929	0.499948
C91	C	1.323191	-0.096319	0.000012
C92	C	1.823191	0.403681	0.500012
C93	C	1.324280	-0.045848	0.000027
C94	C	1.824280	0.454152	0.500027
C95	C	1.135361	-0.043045	0.000018
C96	C	1.635361	0.456955	0.500018
C97	C	1.134271	-0.093512	0.000009
C98	C	1.634271	0.406488	0.500009
C99	C	1.228195	-0.120148	0.000002
C100	C	1.728195	0.379852	0.500002
O101	O	1.052262	-0.172160	0.000024
O102	O	1.552262	0.327840	0.500024
O103	O	1.401793	-0.177392	-0.000023
O104	O	1.901793	0.322608	0.499977
C105	C	1.316504	-0.404172	-0.000041
C106	C	1.816504	0.095828	0.499959
C107	C	1.221500	-0.428000	-0.000051
C108	C	1.721500	0.072000	0.499949
C109	C	1.127594	-0.401362	-0.000052
C110	C	1.627594	0.098638	0.499948
C111	C	1.220401	-0.478469	-0.000051
C112	C	1.720401	0.021531	0.499949
C113	C	1.314308	-0.505107	-0.000051
C114	C	1.814308	-0.005107	0.499949
C115	C	1.409314	-0.481276	-0.000050
C116	C	1.909314	0.018724	0.499950
C117	C	1.410411	-0.430810	-0.000040
C118	C	1.910411	0.069190	0.499960
C119	C	1.032588	-0.425193	-0.000053
C120	C	1.532588	0.074807	0.499947
C121	C	1.031499	-0.475660	-0.000062
C122	C	1.531499	0.024340	0.499938
C123	C	1.125405	-0.502298	-0.000061
C124	C	1.625405	-0.002298	0.499939
C125	C	1.412023	0.127658	-0.000008
C126	C	1.912023	0.627658	0.499992
C127	C	1.527001	0.133908	-0.000014
C128	C	2.027001	0.633908	0.499986
C129	C	1.213608	0.210420	-0.000035
C130	C	1.713608	0.710420	0.499965
C131	C	1.214794	0.264133	-0.000052
C132	C	1.714794	0.764133	0.499948
N133	N	1.201778	0.131128	0.292897
N134	N	1.701778	0.631128	0.792897
N135	N	1.243396	0.113792	-0.292913
N136	N	1.743396	0.613792	0.207087
C137	C	1.326930	0.078958	0.529564
C138	C	1.826930	0.578958	1.029564
C139	C	1.318546	0.082459	0.647904
C140	C	1.818546	0.582459	1.147904
C141	C	1.176623	0.141626	0.647921
C142	C	1.676623	0.641626	1.147921
C143	C	1.185007	0.138126	0.529580
C144	C	1.685007	0.638126	1.029580
C145	C	1.260163	0.106791	0.470406
C146	C	1.760163	0.606791	0.970406
C147	C	1.268551	0.103294	0.352063
C148	C	1.768551	0.603294	0.852063
C149	C	1.126624	0.162459	0.352082
C150	C	1.626624	0.662459	0.852082
C151	C	1.118240	0.165959	0.470422
C152	C	1.618240	0.665959	0.970422
H153	H	0.709358	0.223900	-0.000028
H154	H	1.209358	0.723900	0.499972
Br155	Br	0.476965	0.235238	-0.000020
Br156	Br	0.976965	0.735238	0.499980
Br157	Br	1.036018	0.200239	0.271786
Br158	Br	1.536018	0.700239	0.771786
Br159	Br	0.906694	0.214445	-0.000041
Br160	Br	1.406694	0.714445	0.499959
Br161	Br	0.538453	0.030482	0.000028
Br162	Br	1.038453	0.530482	0.500028
H163	H	1.057046	0.191469	0.518616
H164	H	1.557046	0.691469	1.018616
Br165	Br	0.968208	0.009684	-0.000014
Br166	Br	1.468208	0.509684	0.499986
Br167	Br	1.074616	0.184142	0.728240
Br168	Br	1.574616	0.684142	1.228240
H169	H	1.401652	-0.026449	0.000039
H170	H	1.901652	0.473551	0.500039
Br171	Br	1.439852	-0.629233	-0.000024
Br172	Br	1.939852	-0.129233	0.499976
Br173	Br	0.713554	-0.004148	0.000020
Br174	Br	1.213554	0.495852	0.500020
H175	H	1.399673	-0.118000	0.000002
H176	H	1.899673	0.382000	0.500002
Br177	Br	1.539362	-0.398479	-0.000030
Br178	Br	2.039362	0.101521	0.499970
Br179	Br	1.536756	-0.517438	-0.000040
Br180	Br	2.036756	-0.017438	0.499960
H181	H	0.956116	-0.403509	-0.000056
H182	H	1.456116	0.096491	0.499944
H183	H	1.491070	-0.260013	-0.000004
H184	H	1.991070	0.239987	0.499996
Br185	Br	0.991937	-0.741561	-0.000042
Br186	Br	1.491937	-0.241561	0.499958
H187	H	1.329750	0.077782	0.303884
H188	H	1.829750	0.577782	0.803884
H189	H	1.489079	-0.351560	-0.000023
H190	H	1.989079	0.148440	0.499977
H191	H	1.386269	-0.733734	-0.000049
H192	H	1.886269	-0.233734	0.499951
Br193	Br	0.908419	-0.237636	-0.000075
Br194	Br	1.408419	0.262364	0.499925
H195	H	1.045507	-0.637077	-0.000061
H196	H	1.545507	-0.137077	0.499939
H197	H	1.056903	-0.112913	0.000031
H198	H	1.556903	0.387087	0.500031
Br199	Br	0.905820	-0.356581	-0.000076
Br200	Br	1.405820	0.143419	0.499924
H201	H	1.372913	0.059793	0.696067
H202	H	1.872913	0.559793	1.196067
Br203	Br	0.902542	-0.507992	-0.000069
Br204	Br	1.402542	-0.007992	0.499931
H205	H	1.058904	-0.021347	0.000022
H206	H	1.558904	0.478653	0.500022
H207	H	1.388132	0.053448	0.481383
H208	H	1.888132	0.553448	0.981383
