data_functionalizedCrystal
_audit_creation_method	'MofGen! by Chris Wilmer'
_symmetry_space_group_name_H-M	'P1'
_symmetry_Int_Tables_number	1
_symmetry_cell_setting	triclinic
loop_
_symmetry_equiv_pos_as_xyz
  x,y,z
_cell_length_a	14.971486
_cell_length_b	14.048226
_cell_length_c	14.971486
_cell_angle_alpha	90.007287
_cell_angle_beta	83.614129
_cell_angle_gamma	89.996377
loop_
_atom_site_label
_atom_site_type_symbol
_atom_site_fract_x
_atom_site_fract_y
_atom_site_fract_z
O1	O	1.186940	0.079052	0.116566
O2	O	1.686940	0.579052	0.616566
O3	O	0.926540	0.079078	0.130525
O4	O	1.426540	0.579078	0.630525
O5	O	1.063720	0.079057	-0.006654
O6	O	1.563720	0.579057	0.493346
O7	O	1.049761	0.079072	0.253746
O8	O	1.549761	0.579072	0.753746
O9	O	1.063717	-0.079264	-0.006666
O10	O	1.563717	0.420736	0.493334
O11	O	0.926537	-0.079244	0.130514
O12	O	1.426537	0.420756	0.630514
O13	O	1.186937	-0.079270	0.116555
O14	O	1.686937	0.420730	0.616555
Zn15	Zn	1.056737	-0.104394	0.123533
Zn16	Zn	1.556737	0.395606	0.623533
Zn17	Zn	1.056741	0.104202	0.123547
Zn18	Zn	1.556741	0.604202	0.623547
O19	O	1.049758	-0.079249	0.253734
O20	O	1.549758	0.420751	0.753734
C21	C	0.893214	-0.000080	0.129895
C22	C	1.393214	0.499920	0.629895
C23	C	0.793917	-0.000070	0.128024
C24	C	1.293917	0.499930	0.628024
C25	C	0.736692	-0.000067	0.208614
C26	C	1.236692	0.499933	0.708614
C27	C	0.643392	-0.000081	0.206850
C28	C	1.143392	0.499919	0.706850
C29	C	0.607320	-0.000092	0.124497
C30	C	1.107320	0.499908	0.624497
C31	C	0.664552	-0.000098	0.043902
C32	C	1.164552	0.499902	0.543902
C33	C	0.757850	-0.000090	0.045666
C34	C	1.257850	0.499910	0.545666
C35	C	0.470090	-0.000111	0.040231
C36	C	0.970090	0.499889	0.540231
C37	C	0.376786	-0.000117	0.038466
C38	C	0.876786	0.499883	0.538466
C39	C	0.355632	-0.000102	0.201415
C40	C	0.855632	0.499898	0.701415
C41	C	0.448930	-0.000094	0.203179
C42	C	0.948930	0.499906	0.703179
C43	C	0.506156	-0.000099	0.122584
C44	C	1.006156	0.499901	0.622584
C45	C	1.063094	-0.000103	-0.039985
C46	C	1.563094	0.499897	0.460015
C47	C	1.061223	-0.000102	-0.139282
C48	C	1.561223	0.499898	0.360718
C49	C	1.220263	-0.000110	0.117185
C50	C	1.720263	0.499890	0.617185
C51	C	1.319561	-0.000114	0.119056
C52	C	1.819561	0.499886	0.619056
N53	N	1.056744	0.246562	0.123551
N54	N	1.556744	0.746562	0.623551
N55	N	1.056741	-0.246754	0.123522
N56	N	1.556741	0.253246	0.623522
C57	C	1.117600	0.296371	0.062928
C58	C	1.617600	0.796371	0.562928
C59	C	1.117604	0.396029	0.062925
C60	C	1.617604	0.896029	0.562925
C61	C	1.056746	0.445876	0.123542
C62	C	1.556746	0.945876	0.623542
C63	C	0.995887	0.396060	0.184172
C64	C	1.495887	0.896060	0.684172
C65	C	0.995888	0.296404	0.184178
C66	C	1.495888	0.796404	0.684178
C67	C	0.995887	0.603774	0.184153
C68	C	1.495887	1.103774	0.684153
C69	C	0.995884	0.703437	0.184145
C70	C	1.495884	1.203437	0.684145
C71	C	1.117603	0.703399	0.062899
C72	C	1.617603	1.203399	0.562899
C73	C	1.117604	0.603743	0.062906
C74	C	1.617604	1.103743	0.562906
C75	C	1.056743	0.553934	0.123535
C76	C	1.556743	1.053934	0.623535
C77	C	1.141812	-0.000111	-0.196507
C78	C	1.641812	0.499889	0.303493
C79	C	1.140049	-0.000101	-0.289807
C80	C	1.640049	0.499899	0.210193
C81	C	1.057696	-0.000089	-0.325879
C82	C	1.557696	0.499911	0.174121
C83	C	0.977101	-0.000078	-0.268646
C84	C	1.477101	0.499922	0.231354
C85	C	0.978865	-0.000081	-0.175349
C86	C	1.478865	0.499919	0.324651
C87	C	0.973430	-0.000074	-0.463109
C88	C	1.473430	0.499926	0.036891
C89	C	0.971665	-0.000073	-0.556413
C90	C	1.471665	0.499927	-0.056413
C91	C	1.134614	-0.000094	-0.577567
C92	C	1.634614	0.499906	-0.077567
C93	C	1.136378	-0.000097	-0.484269
C94	C	1.636378	0.499903	0.015731
C95	C	1.055782	-0.000088	-0.427043
C96	C	1.555782	0.499912	0.072957
C97	C	1.050384	-0.000087	0.287065
C98	C	1.550384	0.499913	0.787065
C99	C	1.052254	-0.000082	0.386362
C100	C	1.552254	0.499918	0.886362
H101	H	0.635175	-0.000120	-0.023152
H102	H	1.135175	0.499880	0.476848
Cl103	Cl	0.919383	0.458722	0.260382
Cl104	Cl	1.419383	0.958722	0.760382
Cl105	Cl	1.194111	0.458648	-0.013288
Cl106	Cl	1.694111	0.958648	0.486712
Cl107	Cl	0.829791	-0.000099	-0.055651
Cl108	Cl	1.329791	0.499901	0.444349
H109	H	1.167158	0.743959	0.013533
H110	H	1.667158	1.243959	0.513533
H111	H	0.766054	-0.000057	0.275675
H112	H	1.266054	0.499943	0.775675
H113	H	1.208874	-0.000126	-0.167145
H114	H	1.708874	0.499874	0.332855
H115	H	1.167154	0.563158	0.013543
H116	H	1.667154	1.063158	0.513543
Cl117	Cl	1.235935	-0.000102	-0.649508
Cl118	Cl	1.735935	0.499898	-0.149508
H119	H	1.205673	-0.000110	-0.336396
H120	H	1.705673	0.499890	0.163604
Cl121	Cl	0.919376	0.766094	0.260355
Cl122	Cl	1.419376	1.266094	0.760355
H123	H	0.347419	-0.000127	-0.028593
H124	H	0.847419	0.499873	0.471407
H125	H	0.913240	-0.000074	-0.128756
H126	H	1.413240	0.499926	0.371244
H127	H	0.596802	-0.000077	0.272474
H128	H	1.096802	0.499923	0.772474
Cl129	Cl	1.239910	-0.000107	-0.438922
Cl130	Cl	1.739910	0.499893	0.061078
H131	H	0.478296	-0.000077	0.270239
H132	H	0.978296	0.499923	0.770239
H133	H	0.309033	-0.000103	0.267039
H134	H	0.809033	0.499897	0.767039
Cl135	Cl	0.919376	0.541161	0.260376
Cl136	Cl	1.419376	1.041161	0.760376
H137	H	0.946334	0.255850	0.233545
H138	H	1.446334	0.755850	0.733545
Cl139	Cl	0.542030	-0.000119	-0.061092
Cl140	Cl	1.042030	0.499881	0.438908
Cl141	Cl	0.868134	-0.000059	-0.601760
Cl142	Cl	1.368134	0.499941	-0.101760
H143	H	0.907800	-0.000064	-0.416517
H144	H	1.407800	0.499936	0.083483
Cl145	Cl	1.194108	0.233717	-0.013286
Cl146	Cl	1.694108	0.733717	0.486714
H147	H	0.910047	-0.000062	-0.298024
H148	H	1.410047	0.499938	0.201976
