data_functionalizedCrystal
_audit_creation_method	'MofGen! by Chris Wilmer'
_symmetry_space_group_name_H-M	'P1'
_symmetry_Int_Tables_number	1
_symmetry_cell_setting	triclinic
loop_
_symmetry_equiv_pos_as_xyz
  x,y,z
_cell_length_a	16.959455
_cell_length_b	18.101397
_cell_length_c	16.959447
_cell_angle_alpha	90.033674
_cell_angle_beta	90.014322
_cell_angle_gamma	90.017413
loop_
_atom_site_label
_atom_site_type_symbol
_atom_site_fract_x
_atom_site_fract_y
_atom_site_fract_z
Zn1	Zn	1.208382	-0.294875	0.446890
Zn2	Zn	1.708382	0.205125	0.946890
Zn3	Zn	1.208303	-0.418728	0.314704
Zn4	Zn	1.708303	0.081272	0.814704
Zn5	Zn	1.076210	-0.294899	0.314728
Zn6	Zn	1.576210	0.205101	0.814728
Zn7	Zn	1.076174	-0.418673	0.446843
Zn8	Zn	1.576174	0.081327	0.946843
O9	O	1.142267	-0.356794	0.380791
O10	O	1.642267	0.143206	0.880791
O11	O	1.318982	-0.311318	0.429365
O12	O	1.818982	0.188682	0.929365
O13	O	1.190763	-0.402335	0.204096
O14	O	1.690763	0.097665	0.704096
O15	O	1.093791	-0.191263	0.332289
O16	O	1.593791	0.308737	0.832289
O17	O	1.318924	-0.402312	0.332249
O18	O	1.818924	0.097688	0.832249
O19	O	1.190897	-0.191245	0.429389
O20	O	1.690897	0.308755	0.929389
O21	O	1.093715	-0.311358	0.204114
O22	O	1.593715	0.188642	0.704114
O23	O	0.965594	-0.311304	0.332243
O24	O	1.465594	0.188696	0.832243
O25	O	1.093729	-0.402218	0.557460
O26	O	1.593729	0.097782	1.057460
O27	O	0.965568	-0.402241	0.429307
O28	O	1.465568	0.097759	0.929307
O29	O	1.190862	-0.311264	0.557495
O30	O	1.690862	0.188736	1.057495
O31	O	1.190728	-0.522354	0.332203
O32	O	1.690728	-0.022354	0.832203
O33	O	1.093653	-0.522313	0.429284
O34	O	1.593653	-0.022313	0.929284
C35	C	0.936901	-0.356769	0.380773
C36	C	1.436901	0.143231	0.880773
C37	C	0.849044	-0.356777	0.380784
C38	C	1.349044	0.143223	0.880784
C39	C	0.477558	-0.309404	0.330355
C40	C	0.977558	0.190596	0.830355
C41	C	0.477579	-0.404244	0.431272
C42	C	0.977579	0.095756	0.931272
C43	C	0.560125	-0.404234	0.431267
C44	C	1.060125	0.095766	0.931267
C45	C	0.601391	-0.356808	0.380805
C46	C	1.101391	0.143192	0.880805
C47	C	0.560112	-0.309394	0.330347
C48	C	1.060112	0.190606	0.830347
C49	C	0.601411	-0.451652	0.481718
C50	C	1.101411	0.048348	0.981718
C51	C	0.683962	-0.451644	0.481715
C52	C	1.183962	0.048356	0.981715
C53	C	0.725230	-0.404215	0.431256
C54	C	1.225230	0.095785	0.931256
C55	C	0.683945	-0.356798	0.380797
C56	C	1.183945	0.143202	0.880797
C57	C	0.725211	-0.309373	0.330334
C58	C	1.225211	0.190627	0.830334
C59	C	0.683928	-0.261951	0.279879
C60	C	1.183928	0.238049	0.779879
C61	C	0.601379	-0.261964	0.279888
C62	C	1.101379	0.238036	0.779888
C63	C	0.807778	-0.404202	0.431246
C64	C	1.307778	0.095798	0.931246
C65	C	0.807765	-0.309362	0.330326
C66	C	1.307765	0.190638	0.830326
C67	C	1.142200	-0.549204	0.380753
C68	C	1.642200	-0.049204	0.880753
C69	C	1.142243	-0.631518	0.380763
C70	C	1.642243	-0.131518	0.880763
C71	C	1.142344	-0.930609	0.380835
C72	C	1.642344	-0.430609	0.880835
C73	C	1.203250	-0.899279	0.319590
C74	C	1.703250	-0.399279	0.819590
C75	C	1.203461	-0.813660	0.319749
C76	C	1.703461	-0.313660	0.819749
C77	C	1.142294	-0.782227	0.380799
C78	C	1.642294	-0.282227	0.880799
C79	C	1.164869	-0.813231	0.464115
C80	C	1.664869	-0.313231	0.964115
C81	C	1.165340	-0.898876	0.463781
C82	C	1.665340	-0.398876	0.963781
C83	C	1.058699	-0.899115	0.359484
C84	C	1.558699	-0.399115	0.859484
C85	C	1.059113	-0.813466	0.357625
C86	C	1.559113	-0.313466	0.857625
C87	C	1.142264	-0.698367	0.380783
C88	C	1.642264	-0.198367	0.880783
C89	C	1.142375	-1.014469	0.380856
C90	C	1.642375	-0.514469	0.880856
C91	C	1.348435	-0.356819	0.380810
C92	C	1.848435	0.143181	0.880810
C93	C	1.436292	-0.356829	0.380818
C94	C	1.936292	0.143171	0.880818
C95	C	1.142300	-0.356732	0.586959
C96	C	1.642300	0.143268	1.086959
C97	C	1.142314	-0.356706	0.674816
C98	C	1.642314	0.143294	1.174816
C99	C	1.142357	-0.163632	0.380847
C100	C	1.642357	0.336368	0.880847
C101	C	1.142395	-0.081318	0.380871
C102	C	1.642395	0.418682	0.880871
C103	C	1.142280	-0.356801	0.175425
C104	C	1.642280	0.143199	0.675425
C105	C	1.142419	-0.356619	0.087569
C106	C	1.642419	0.143381	0.587569
C107	C	1.091836	-0.403984	1.046276
C108	C	1.591836	0.096016	1.546276
C109	C	1.192981	-0.309273	1.046308
C110	C	1.692981	0.190727	1.546308
C111	C	1.192960	-0.309289	0.963762
C112	C	1.692960	0.190711	1.463762
C113	C	1.142377	-0.356653	0.922469
C114	C	1.642377	0.143347	1.422469
C115	C	1.091815	-0.404002	0.963723
C116	C	1.591815	0.095998	1.463723
C117	C	1.243527	-0.261946	0.922502
C118	C	1.743527	0.238054	1.422502
C119	C	1.243508	-0.261960	0.839951
C120	C	1.743508	0.238040	1.339951
C121	C	1.192921	-0.309322	0.798657
C122	C	1.692921	0.190678	1.298657
C123	C	1.142356	-0.356672	0.839916
C124	C	1.642356	0.143328	1.339916
C125	C	1.091773	-0.404037	0.798623
C126	C	1.591773	0.095963	1.298623
C127	C	1.041204	-0.451384	0.839880
C128	C	1.541204	0.048616	1.339880
C129	C	1.041228	-0.451364	0.922429
C130	C	1.541228	0.048636	1.422429
C131	C	1.192897	-0.309342	0.716109
C132	C	1.692897	0.190658	1.216109
C133	C	1.091752	-0.404055	0.716069
C134	C	1.591752	0.095945	1.216069
H135	H	0.717568	-0.490257	0.522799
H136	H	1.217568	0.009743	1.022799
H137	H	1.234168	-0.270715	1.079933
H138	H	1.734168	0.229285	1.579933
C139	C	0.729331	-0.209782	0.224375
C140	C	1.229331	0.290218	0.724375
N141	N	0.763533	-0.170488	0.182573
N142	N	1.263533	0.329512	0.682573
H143	H	0.567759	-0.223357	0.238809
H144	H	1.067759	0.276643	0.738809
H145	H	1.234072	-0.270794	0.682521
H146	H	1.734072	0.229206	1.182521
H147	H	0.841358	-0.270738	0.289238
H148	H	1.341358	0.229262	0.789238
C149	C	0.985564	-0.503483	0.794448
C150	C	1.485564	-0.003483	1.294448
N151	N	0.943657	-0.542722	0.760224
N152	N	1.443657	-0.042722	1.260224
H153	H	0.443942	-0.270793	0.289278
H154	H	0.943942	0.229207	0.789278
H155	H	1.042090	-0.793210	0.296311
H156	H	1.542090	-0.293210	0.796311
C157	C	1.299127	-0.209870	0.794576
C158	C	1.799127	0.290130	1.294576
N159	N	1.341015	-0.170632	0.760399
N160	N	1.841015	0.329368	1.260399
H161	H	1.000059	-0.489914	0.956027
H162	H	1.500059	0.010086	1.456027
C163	C	0.853186	-0.456362	0.486744
C164	C	1.353186	0.043638	0.986744
N165	N	0.887386	-0.495650	0.528550
N166	N	1.387386	0.004350	1.028550
H167	H	1.225325	-0.791726	0.482506
H168	H	1.725325	-0.291726	0.982506
C169	C	1.030956	-0.928373	0.278827
C170	C	1.530956	-0.428373	0.778827
N171	N	1.010069	-0.950411	0.218073
N172	N	1.510069	-0.450411	0.718073
C173	C	0.994507	-0.784568	0.413474
C174	C	1.494507	-0.284568	0.913474
N175	N	0.945847	-0.762804	0.455546
N176	N	1.445847	-0.262804	0.955546
C177	C	1.036207	-0.456058	1.091659
C178	C	1.536207	0.043942	1.591659
N179	N	0.994305	-0.495279	1.125842
N180	N	1.494305	0.004721	1.625842
H181	H	1.189338	-0.792701	0.257971
H182	H	1.689338	-0.292701	0.757971
H183	H	0.443975	-0.442860	0.472352
H184	H	0.943975	0.057140	0.972352
C185	C	1.108021	-0.926873	0.527538
C186	C	1.608021	-0.426873	1.027538
N187	N	1.064854	-0.947957	0.575565
N188	N	1.564854	-0.447957	1.075565
C189	C	1.184409	-0.927177	0.235880
C190	C	1.684409	-0.427177	0.735880
N191	N	1.170216	-0.948194	0.172827
N192	N	1.670216	-0.448194	0.672827
H193	H	1.264871	-0.920749	0.333554
H194	H	1.764871	-0.420749	0.833554
C195	C	0.556014	-0.503819	0.537221
C196	C	1.056014	-0.003819	1.037221
N197	N	0.521816	-0.543111	0.579028
N198	N	1.021816	-0.043111	1.079028
H199	H	1.050554	-0.442619	0.682455
H200	H	1.550554	0.057381	1.182455
H201	H	1.265421	-0.793119	0.333875
H202	H	1.765421	-0.293119	0.833875
C203	C	1.247941	-0.925790	0.488204
C204	C	1.747941	-0.425790	0.988204
N205	N	1.310159	-0.946059	0.506597
N206	N	1.810159	-0.446059	1.006597
C207	C	1.106776	-0.785717	0.527423
C208	C	1.606776	-0.285717	1.027423
N209	N	1.063020	-0.764990	0.575106
N210	N	1.563020	-0.264990	1.075106
H211	H	1.284713	-0.223389	0.956129
H212	H	1.784713	0.276611	1.456129
H213	H	1.013320	-0.919376	0.404092
H214	H	1.513320	-0.419376	0.904092
