data_functionalizedCrystal
_audit_creation_method	'MofGen! by Chris Wilmer'
_symmetry_space_group_name_H-M	'P1'
_symmetry_Int_Tables_number	1
_symmetry_cell_setting	triclinic
loop_
_symmetry_equiv_pos_as_xyz
  x,y,z
_cell_length_a	23.532407
_cell_length_b	22.010155
_cell_length_c	23.532407
_cell_angle_alpha	89.990798
_cell_angle_beta	97.151322
_cell_angle_gamma	90.010358
loop_
_atom_site_label
_atom_site_type_symbol
_atom_site_fract_x
_atom_site_fract_y
_atom_site_fract_z
O1	O	0.755269	0.050455	-0.069133
O2	O	0.589406	0.050474	-0.079137
O3	O	0.677339	0.050453	0.008797
O4	O	0.667336	0.050476	-0.157067
O5	O	0.677312	-0.050597	0.008797
O6	O	0.589379	-0.050576	-0.079137
O7	O	0.755243	-0.050595	-0.069133
Cu8	Cu	0.672308	-0.059812	-0.074135
Cu9	Cu	0.672340	0.059691	-0.074135
O10	O	0.667309	-0.050574	-0.157067
C11	C	0.568176	-0.000049	-0.078882
C12	C	0.504959	-0.000042	-0.078116
C13	C	0.105856	-0.000063	-0.125350
C14	C	0.046456	-0.000067	-0.124638
O15	O	0.009711	-0.000083	-0.168424
N16	N	0.023830	-0.000073	-0.072362
C17	C	0.060607	-0.000082	-0.020794
O18	O	0.035908	-0.000088	0.023737
C19	C	0.120006	-0.000082	-0.021506
C20	C	0.142629	-0.000070	-0.073785
C21	C	0.128479	-0.000051	-0.177625
C22	C	0.187876	-0.000046	-0.178336
C23	C	0.224649	-0.000053	-0.126772
C24	C	0.202025	-0.000065	-0.074497
C25	C	0.156783	-0.000096	0.030062
C26	C	0.216185	-0.000097	0.029345
C27	C	0.238808	-0.000084	-0.022934
C28	C	0.298194	-0.000067	-0.023643
N29	N	0.320820	-0.000061	-0.075920
C30	C	0.284048	-0.000054	-0.127484
C31	C	-0.064135	-0.000082	-0.019302
C32	C	-0.123533	-0.000077	-0.018589
C33	C	-0.137680	-0.000063	-0.122434
C34	C	-0.078281	-0.000064	-0.123146
C35	C	-0.041509	-0.000076	-0.071578
C36	C	0.408784	-0.000043	-0.128974
C37	C	0.468186	-0.000035	-0.129680
C38	C	0.482329	-0.000052	-0.025836
C39	C	0.422932	-0.000057	-0.025129
C40	C	0.386160	-0.000054	-0.076702
O41	O	0.334974	-0.000054	0.020119
O42	O	0.308755	-0.000055	-0.172007
N43	N	0.672291	-0.143865	-0.074135
C44	C	0.706685	-0.563643	-0.108496
C45	C	0.706692	-0.627251	-0.108494
O46	O	0.735915	-0.660141	-0.137705
N47	N	0.672351	-0.659072	-0.074128
C48	C	0.638005	-0.627282	-0.039758
O49	O	0.608796	-0.660189	-0.010527
C50	C	0.638002	-0.563676	-0.039757
C51	C	0.672341	-0.531858	-0.074129
C52	C	0.741022	-0.531825	-0.142864
C53	C	0.741014	-0.468222	-0.142867
C54	C	0.706670	-0.436437	-0.108500
C55	C	0.672333	-0.468255	-0.074131
C56	C	0.603660	-0.531887	-0.005383
C57	C	0.603660	-0.468276	-0.005384
C58	C	0.637999	-0.436458	-0.039757
C59	C	0.637981	-0.372866	-0.039766
N60	N	0.672322	-0.341045	-0.074132
C61	C	0.706667	-0.372830	-0.108498
C62	C	0.638015	-0.760860	-0.039762
C63	C	0.638015	-0.824465	-0.039766
C64	C	0.706703	-0.824429	-0.108502
C65	C	0.706700	-0.760823	-0.108501
C66	C	0.672356	-0.729039	-0.074128
C67	C	0.706648	-0.239259	-0.108501
C68	C	0.706635	-0.175650	-0.108502
C69	C	0.637950	-0.175691	-0.039764
C70	C	0.637960	-0.239295	-0.039765
C71	C	0.672313	-0.271077	-0.074135
O72	O	0.608775	-0.339935	-0.010568
O73	O	0.735876	-0.339916	-0.137719
C74	C	0.776472	-0.000071	-0.069388
C75	C	0.839689	-0.000073	-0.070154
C76	C	0.677071	-0.000074	0.030013
C77	C	0.676305	-0.000078	0.093230
N78	N	0.672362	0.143744	-0.074131
C79	C	0.667577	-0.000046	-0.178283
C80	C	0.668343	-0.000037	-0.241500
C81	C	0.723539	-0.000050	0.492333
C82	C	0.722827	-0.000046	0.551733
O83	O	0.766613	-0.000028	0.588478
N84	N	0.670551	-0.000040	0.574359
C85	C	0.618983	-0.000033	0.537582
O86	O	0.574452	-0.000027	0.562281
C87	C	0.619695	-0.000033	0.478182
C88	C	0.671974	-0.000045	0.455560
C89	C	0.775814	-0.000061	0.469710
C90	C	0.776525	-0.000067	0.410313
C91	C	0.724961	-0.000062	0.373540
C92	C	0.672685	-0.000051	0.396164
C93	C	0.568127	-0.000022	0.441406
C94	C	0.568844	-0.000022	0.382004
C95	C	0.621123	-0.000034	0.359381
C96	C	0.621832	-0.000052	0.299995
N97	N	0.674109	-0.000057	0.277368
C98	C	0.725673	-0.000062	0.314141
C99	C	0.617491	-0.000031	0.662324
C100	C	0.616778	-0.000035	0.721722
C101	C	0.720623	-0.000047	0.735869
C102	C	0.721335	-0.000047	0.676470
C103	C	0.669767	-0.000037	0.639698
C104	C	0.727163	-0.000075	0.189405
C105	C	0.727869	-0.000083	0.130003
C106	C	0.624025	-0.000069	0.115860
C107	C	0.623318	-0.000064	0.175257
C108	C	0.674891	-0.000065	0.212029
O109	O	0.578070	-0.000067	0.263215
O110	O	0.770196	-0.000060	0.289433
H111	H	0.512280	-0.000056	0.016146
N112	N	0.741734	-0.271707	-0.143619
N113	N	0.734606	-0.264586	-0.196729
H114	H	0.759383	-0.287502	-0.221535
H115	H	0.582043	-0.000067	0.085909
H116	H	0.580748	-0.000071	0.193677
H117	H	0.486602	-0.000025	-0.172255
N118	N	0.516172	-0.000021	0.344434
N119	N	0.516809	-0.000027	0.291400
H120	H	0.479610	-0.000028	0.264867
H121	H	0.246123	-0.000107	0.071339
N122	N	0.741724	-0.143159	-0.143610
N123	N	0.794835	-0.150252	-0.136519
H124	H	0.819617	-0.127308	-0.161312
N125	N	0.371237	-0.000043	-0.181659
N126	N	0.391454	-0.000033	-0.228326
H127	H	0.364937	-0.000031	-0.265536
H128	H	0.404512	-0.000058	0.017441
N129	N	0.776087	-0.435735	-0.177988
N130	N	0.806742	-0.464133	-0.208671
H131	H	0.831513	-0.441194	-0.233479
N132	N	0.776113	-0.564277	-0.177973
N133	N	0.806767	-0.535849	-0.208652
H134	H	0.831550	-0.558764	-0.233453
N135	N	0.781274	-0.000081	0.106896
N136	N	0.793269	0.042512	0.075323
H137	H	0.830986	0.042515	0.059005
H138	H	0.575496	-0.000028	0.632386
H139	H	0.762610	-0.000048	0.765821
N140	N	0.090920	-0.000033	-0.230300
N141	N	0.056207	0.042566	-0.241493
H142	H	0.029683	0.042582	-0.278698
H143	H	-0.059867	-0.000057	-0.165717
H144	H	-0.141947	-0.000078	0.023982
N145	N	0.602937	-0.728394	-0.004645
N146	N	0.610061	-0.735510	0.048465
H147	H	0.585289	-0.712583	0.073268
N148	N	-0.026567	-0.000091	0.033372
N149	N	0.008151	-0.042687	0.044565
H150	H	0.034682	-0.042695	0.081765
N151	N	0.741783	-0.728334	-0.143610
N152	N	0.772444	-0.756729	-0.174289
H153	H	0.797227	-0.733788	-0.199084
H154	H	0.574207	-0.000036	0.740136
H155	H	-0.167632	-0.000060	-0.164421
N156	N	0.602887	-0.143226	-0.004636
N157	N	0.572241	-0.171637	0.026064
H158	H	0.547486	-0.148707	0.050882
H159	H	0.138375	-0.000106	0.072634
N160	N	0.741778	-0.856901	-0.143618
N161	N	0.719323	-0.892391	-0.181385
H162	H	0.744091	-0.915325	-0.206187
N163	N	0.210970	-0.000033	-0.231744
N164	N	0.178121	-0.000027	-0.277775
H165	H	0.194427	-0.000018	-0.315498
H166	H	0.610046	-0.850366	-0.011784
N167	N	0.779848	-0.000074	0.226952
N168	N	0.826515	-0.000084	0.206735
H169	H	0.863725	-0.000087	0.233252
H170	H	0.763906	-0.000056	0.658056
H171	H	0.819097	-0.000074	0.391900
H172	H	0.525555	-0.000009	0.459814
H173	H	0.817806	-0.000063	0.499645
N174	N	0.568579	-0.564368	0.029731
N175	N	0.537924	-0.535968	0.060413
H176	H	0.513146	-0.558906	0.085216
H177	H	0.575693	-0.442401	0.022607
H178	H	0.609991	-0.265202	-0.011784
