data_functionalizedCrystal
_audit_creation_method	'MofGen! by Chris Wilmer'
_symmetry_space_group_name_H-M	'P1'
_symmetry_Int_Tables_number	1
_symmetry_cell_setting	triclinic
loop_
_symmetry_equiv_pos_as_xyz
  x,y,z
_cell_length_a	14.908571
_cell_length_b	21.295417
_cell_length_c	14.908803
_cell_angle_alpha	86.719914
_cell_angle_beta	89.810884
_cell_angle_gamma	86.726349
loop_
_atom_site_label
_atom_site_type_symbol
_atom_site_fract_x
_atom_site_fract_y
_atom_site_fract_z
Zn1	Zn	1.345082	-0.328636	0.587520
Zn2	Zn	1.353673	-0.428168	0.437146
Zn3	Zn	1.203437	-0.316509	0.428522
Zn4	Zn	1.194669	-0.427453	0.578796
O5	O	1.274215	-0.375192	0.507996
O6	O	1.472045	-0.347214	0.574833
O7	O	1.341008	-0.408580	0.310180
O8	O	1.222301	-0.230033	0.449656
O9	O	1.478356	-0.420340	0.464354
O10	O	1.326367	-0.238943	0.566471
O11	O	1.230630	-0.326545	0.303844
O12	O	1.076451	-0.325851	0.441196
O13	O	1.207357	-0.419120	0.705776
O14	O	1.070009	-0.407361	0.551602
O15	O	1.317865	-0.346520	0.712185
O16	O	1.332506	-0.516158	0.455895
O17	O	1.215686	-0.515632	0.559964
C18	C	1.040605	-0.365213	0.494517
C19	C	0.940664	-0.360960	0.488772
C20	C	0.746215	-0.437964	0.592787
C21	C	0.652311	-0.433970	0.587392
C22	C	0.658952	-0.348976	0.472592
C23	C	0.752856	-0.352970	0.477987
C24	C	0.796483	-0.397466	0.538086
C25	C	0.890389	-0.401462	0.543475
C26	C	0.897028	-0.316466	0.428681
C27	C	0.803125	-0.312472	0.423286
C28	C	1.274100	-0.538736	0.507940
C29	C	1.274131	-0.608706	0.507950
C30	C	1.335007	-0.641830	0.453823
C31	C	1.335048	-0.707575	0.453846
C32	C	1.274198	-0.740193	0.507985
C33	C	1.213318	-0.707061	0.562123
C34	C	1.213284	-0.641318	0.562106
N35	N	1.195145	-0.840364	0.510301
N36	N	1.195179	-0.902817	0.510313
C37	C	1.274296	-0.938274	0.508043
N38	N	1.353379	-0.908917	0.505743
N39	N	1.353344	-0.846457	0.505727
C40	C	1.274228	-0.811480	0.508011
C41	C	1.335221	-1.042686	0.453937
C42	C	1.335263	-1.108432	0.453966
C43	C	1.213525	-1.107917	0.562239
C44	C	1.213490	-1.042172	0.562215
C45	C	1.274337	-1.009560	0.508059
C46	C	1.508737	-0.385209	0.521529
C47	C	1.608677	-0.389478	0.527296
C48	C	1.260675	-0.384093	0.742517
C49	C	1.254904	-0.387887	0.842456
C50	C	1.274354	-0.211010	0.508074
C51	C	1.274413	-0.141046	0.508107
C52	C	1.359132	-0.319402	1.036927
C53	C	1.353713	-0.322964	1.130828
C54	C	1.238644	-0.398569	1.124162
C55	C	1.244063	-0.395007	1.030260
C56	C	1.304310	-0.355423	0.986646
C57	C	1.309732	-0.351864	0.892743
C58	C	1.194660	-0.427466	0.886078
C59	C	1.189241	-0.431028	0.979979
C60	C	1.287698	-0.366339	1.274388
C61	C	1.293472	-0.362547	1.174449
H62	H	0.781737	-0.474197	0.641717
H63	H	1.398352	-0.293630	1.171764
C64	C	1.173312	-0.441518	1.171691
C65	C	1.180310	-0.436930	1.264687
C66	C	1.120143	-0.476487	1.308500
H67	H	1.113756	-0.429179	1.152920
H68	H	1.187319	-0.483810	1.157108
H69	H	1.166298	-0.394648	1.279263
H70	H	1.239853	-0.449274	1.283484
H71	H	1.134149	-0.518779	1.293917
H72	H	1.060591	-0.464144	1.289722
H73	H	1.124889	-0.473384	1.371602
H74	H	0.611385	-0.466947	0.631937
C75	C	1.135083	-0.466646	0.831646
C76	C	1.081178	-0.502082	0.889945
C77	C	1.026295	-0.538187	0.839835
H78	H	1.097961	-0.439570	0.792758
H79	H	1.171546	-0.494187	0.797005
H80	H	1.044718	-0.474545	0.924571
H81	H	1.118275	-0.529170	0.928833
H82	H	1.062758	-0.565728	0.805194
H83	H	0.989180	-0.511106	0.800949
H84	H	0.989720	-0.562239	0.879383
H85	H	0.767590	-0.276243	0.374358
H86	H	0.925909	-0.437694	0.592409
H87	H	1.384769	-1.016133	0.409843
H88	H	1.140188	-0.463255	1.015503
H89	H	0.937967	-0.283491	0.384137
C90	C	1.401178	-0.606541	0.395010
C91	C	1.454518	-0.649628	0.347632
C92	C	1.515495	-0.617143	0.293458
H93	H	1.369176	-0.577971	0.353742
H94	H	1.438377	-0.583854	0.431676
H95	H	1.417324	-0.672305	0.310970
H96	H	1.486540	-0.678200	0.388877
H97	H	1.552693	-0.594455	0.330123
H98	H	1.483485	-0.588574	0.252195
H99	H	1.551698	-0.646373	0.261311
H100	H	0.623414	-0.312746	0.423669
H101	H	1.384624	-0.734550	0.409770
H102	H	1.163774	-0.733623	0.606206
H103	H	1.163711	-0.614348	0.606184
C104	C	1.401402	-1.144283	0.395100
C105	C	1.454661	-1.101646	0.347655
C106	C	1.515590	-1.134648	0.293409
H107	H	1.438666	-1.172870	0.431694
H108	H	1.369335	-1.166997	0.353877
H109	H	1.486726	-1.078943	0.388872
H110	H	1.417421	-1.073057	0.311043
H111	H	1.483523	-1.157362	0.252186
H112	H	1.552848	-1.163235	0.330010
H113	H	1.551728	-1.105724	0.261204
C114	C	1.147501	-1.143434	0.620929
C115	C	1.160546	-1.208098	0.609347
C116	C	1.099735	-1.240839	0.663395
H117	H	1.157059	-1.135557	0.682137
H118	H	1.087835	-1.129660	0.604224
H119	H	1.220197	-1.221867	0.626057
H120	H	1.150980	-1.215994	0.548151
H121	H	1.040070	-1.227065	0.646691
H122	H	1.109300	-1.232957	0.724600
H123	H	1.108573	-1.284716	0.655538
H124	H	1.163916	-1.015200	0.606286
H125	H	1.358790	-0.319633	0.857234
H126	H	1.408191	-0.287174	1.001416
