data_functionalizedCrystal
_audit_creation_method	'MofGen! by Chris Wilmer'
_symmetry_space_group_name_H-M	'P1'
_symmetry_Int_Tables_number	1
_symmetry_cell_setting	triclinic
loop_
_symmetry_equiv_pos_as_xyz
  x,y,z
_cell_length_a	14.519709
_cell_length_b	11.792241
_cell_length_c	10.868271
_cell_angle_alpha	90.005281
_cell_angle_beta	89.998701
_cell_angle_gamma	83.936780
loop_
_atom_site_label
_atom_site_type_symbol
_atom_site_fract_x
_atom_site_fract_y
_atom_site_fract_z
O1	O	-1.224412	-0.148781	-0.102162
O2	O	-0.891078	0.184552	0.231171
O3	O	-0.557745	0.517886	0.564504
O4	O	-0.955999	-0.166302	-0.102200
O5	O	-0.622666	0.167032	0.231133
O6	O	-0.289332	0.500365	0.564467
O7	O	-1.096719	0.007665	-0.102172
O8	O	-0.763386	0.340999	0.231162
O9	O	-0.430052	0.674332	0.564495
O10	O	-1.083692	-0.322748	-0.102191
O11	O	-0.750358	0.010585	0.231143
O12	O	-0.417025	0.343919	0.564476
O13	O	-1.096707	0.007672	0.102473
O14	O	-0.763374	0.341005	0.435806
O15	O	-0.430041	0.674339	0.769140
O16	O	-0.955987	-0.166295	0.102445
O17	O	-0.622654	0.167038	0.435778
O18	O	-0.289321	0.500372	0.769111
O19	O	-1.224400	-0.148774	0.102482
O20	O	-0.891067	0.184559	0.435816
O21	O	-0.557733	0.517893	0.769149
Zn22	Zn	-1.090192	-0.157533	0.134955
Zn23	Zn	-0.756859	0.175800	0.468288
Zn24	Zn	-0.423525	0.509133	0.801622
Zn25	Zn	-1.090207	-0.157542	-0.134673
Zn26	Zn	-0.756874	0.175791	0.198660
Zn27	Zn	-0.423541	0.509124	0.531994
O28	O	-1.083680	-0.322741	0.102454
O29	O	-0.750347	0.010592	0.435787
O30	O	-0.417013	0.343925	0.769121
C31	C	-0.921630	-0.165482	0.000117
C32	C	-0.588297	0.167852	0.333451
C33	C	-0.254964	0.501185	0.666784
C34	C	-0.819240	-0.163035	0.000103
C35	C	-0.485907	0.170298	0.333437
C36	C	-0.152573	0.503632	0.666770
C37	C	-1.095895	0.049955	0.000150
C38	C	-0.762562	0.383288	0.333483
C39	C	-0.429228	0.716622	0.666817
C40	C	-1.093446	0.175955	0.000149
C41	C	-0.760112	0.509289	0.333482
C42	C	-0.426779	0.842622	0.666815
C43	C	-1.258769	-0.149594	0.000162
C44	C	-0.925435	0.183739	0.333495
C45	C	-0.592102	0.517073	0.666829
C46	C	-1.361159	-0.152041	0.000168
C47	C	-1.027826	0.181292	0.333501
C48	C	-0.694492	0.514626	0.666835
C49	C	-0.444311	-0.154027	0.000160
C50	C	-0.110978	0.179306	0.333493
C51	C	0.222355	0.512640	0.666826
C52	C	-0.548628	-0.156528	0.000144
C53	C	-0.215295	0.176805	0.333477
C54	C	0.118038	0.510138	0.666810
C55	C	-0.631772	-0.158531	0.000130
C56	C	-0.298439	0.174803	0.333464
C57	C	0.034894	0.508136	0.666797
C58	C	-0.736096	-0.161033	0.000117
C59	C	-0.402763	0.172301	0.333450
C60	C	-0.069429	0.505634	0.666783
C61	C	-1.084504	-0.365031	0.000129
C62	C	-0.751171	-0.031698	0.333463
C63	C	-0.417838	0.301636	0.666796
C64	C	-1.086954	-0.491031	0.000123
C65	C	-0.753620	-0.157698	0.333456
C66	C	-0.420287	0.175636	0.666789
N67	N	-1.090188	-0.157527	0.318969
N68	N	-0.756855	0.175807	0.652303
N69	N	-0.423521	0.509140	0.985636
C70	C	-1.088942	0.406642	0.000127
C71	C	-0.755608	0.739976	0.333461
C72	C	-0.422275	1.073309	0.666794
C73	C	-1.091444	0.278271	0.000139
C74	C	-0.758111	0.611604	0.333472
C75	C	-0.424777	0.944938	0.666806
N76	N	-1.090218	-0.157540	-0.318687
N77	N	-0.756885	0.175793	0.014646
N78	N	-0.423552	0.509126	0.347980
C79	C	-1.090202	-0.157540	0.569975
C80	C	-0.756869	0.175793	0.903309
C81	C	-0.423536	0.509127	1.236642
C82	C	-1.090191	-0.157536	0.430298
C83	C	-0.756858	0.175797	0.763631
C84	C	-0.423525	0.509131	1.096964
