data_functionalizedCrystal
_audit_creation_method	'MofGen! by Chris Wilmer'
_symmetry_space_group_name_H-M	'P1'
_symmetry_Int_Tables_number	1
_symmetry_cell_setting	triclinic
loop_
_symmetry_equiv_pos_as_xyz
  x,y,z
_cell_length_a	18.215407
_cell_length_b	15.297327
_cell_length_c	15.298159
_cell_angle_alpha	72.665386
_cell_angle_beta	80.326816
_cell_angle_gamma	99.707397
loop_
_atom_site_label
_atom_site_type_symbol
_atom_site_fract_x
_atom_site_fract_y
_atom_site_fract_z
Zn1	Zn	0.976476	-0.461423	0.589871
Zn2	Zn	0.976425	-0.590000	0.461258
Zn3	Zn	0.879207	-0.434497	0.434379
Zn4	Zn	0.827626	-0.616898	0.616711
O5	O	0.914934	-0.525704	0.525555
O6	O	1.079450	-0.478491	0.572827
O7	O	0.985094	-0.546846	0.327561
O8	O	0.913719	-0.307924	0.432524
O9	O	1.079412	-0.572955	0.478335
O10	O	0.985182	-0.327706	0.546764
O11	O	0.913669	-0.432599	0.307813
O12	O	0.769384	-0.458682	0.458550
O13	O	0.825806	-0.618799	0.743282
O14	O	0.731488	-0.592691	0.592508
O15	O	0.935166	-0.504573	0.723563
O16	O	0.935077	-0.723713	0.504360
O17	O	0.825756	-0.743475	0.618571
C18	C	0.723734	-0.525684	0.525525
C19	C	0.641931	-0.525701	0.525539
C20	C	0.874830	-0.767342	0.567315
C21	C	0.857736	-0.870721	0.585211
C22	C	0.434021	-0.595560	0.595232
C23	C	0.357159	-0.595565	0.595244
C24	C	0.396592	-0.455869	0.455900
C25	C	0.473452	-0.455861	0.455893
C26	C	0.492163	-0.525712	0.525559
C27	C	0.338443	-0.525725	0.525578
C28	C	0.255107	-0.525729	0.525591
C29	C	0.575505	-0.525706	0.525547
C30	C	1.037359	-1.120876	0.397965
C31	C	1.053420	-1.023745	0.381145
C32	C	1.004501	-0.985485	0.432161
C33	C	0.939517	-1.044364	0.499997
C34	C	0.923451	-1.141503	0.516813
C35	C	0.890593	-1.006112	0.551009
C36	C	0.825609	-1.064991	0.618846
C37	C	0.809546	-1.162121	0.635659
C38	C	0.858465	-1.200382	0.584644
C39	C	0.906659	-0.908973	0.534193
C40	C	0.792751	-0.929600	0.653042
C41	C	0.776689	-1.026730	0.669861
C42	C	1.106879	-0.525726	0.525585
C43	C	1.188675	-0.525735	0.525598
C44	C	0.874738	-0.567690	0.768108
C45	C	0.857609	-0.585582	0.871470
C46	C	0.955210	-0.283127	0.483652
C47	C	0.972374	-0.179754	0.465795
C48	C	0.792621	-0.653458	0.930293
C49	C	0.776527	-0.670274	1.027407
C50	C	0.825417	-0.619210	1.065707
C51	C	0.890404	-0.551327	1.006883
C52	C	0.906502	-0.534515	0.909760
C53	C	0.939298	-0.500266	1.045174
C54	C	1.004285	-0.432384	0.986350
C55	C	1.020380	-0.415574	0.889236
C56	C	0.971490	-0.466639	0.850937
C57	C	0.923200	-0.517078	1.142297
C58	C	1.037081	-0.398135	1.121764
C59	C	1.053175	-0.381319	1.024649
C60	C	0.954964	-0.483903	1.283949
C61	C	0.972093	-0.466012	1.180587
H62	H	0.309821	-0.652442	0.651981
H63	H	1.076892	-0.356555	1.152947
H64	H	1.017581	-0.906396	0.418461
H65	H	1.077179	-1.152037	0.356430
H66	H	0.984587	-0.452945	0.771858
H67	H	0.381347	-0.399000	0.399180
O68	O	0.452332	-0.663359	0.662816
C69	C	0.532637	-0.648365	0.647886
H70	H	0.560083	-0.605386	0.570884
H71	H	0.553507	-0.608477	0.694574
C72	C	0.521383	-0.796713	0.767100
C73	C	0.555092	-0.743932	0.672524
H74	H	0.535235	-0.855662	0.782302
H75	H	0.467279	-0.806814	0.777162
H76	H	0.538778	-0.763462	0.805996
H77	H	0.537690	-0.777177	0.633630
H78	H	0.609194	-0.733839	0.662456
O79	O	0.529844	-0.387961	0.388114
C80	C	0.496849	-0.326302	0.326636
H81	H	0.436284	-0.363826	0.329938
H82	H	0.494730	-0.261635	0.348605
C83	C	0.619870	-0.249529	0.221286
C84	C	0.545486	-0.295619	0.225336
H85	H	0.649873	-0.230598	0.158800
H86	H	0.642101	-0.291068	0.262707
H87	H	0.618094	-0.195645	0.239599
H88	H	0.547262	-0.349508	0.207035
H89	H	0.523257	-0.254089	0.183910
H90	H	1.106087	-0.326049	0.976741
H91	H	0.959569	-0.861041	0.478960
O92	O	1.116512	-0.966637	0.315147
C93	C	1.111907	-0.974362	0.226560
H94	H	1.072272	-1.044578	0.236815
H95	H	1.088325	-0.914315	0.185737
C96	C	1.240956	-0.882828	0.158490
C97	C	1.192280	-0.969071	0.171085
H98	H	1.290533	-0.879559	0.124267
H99	H	1.244057	-0.877620	0.218171
H100	H	1.221294	-0.832797	0.124474
H101	H	1.211936	-1.019099	0.205110
H102	H	1.189183	-0.974287	0.111407
H103	H	0.845393	-1.279473	0.598337
O104	O	0.746358	-1.219338	0.701426
C105	C	0.698346	-1.266439	0.658172
H106	H	0.710815	-1.224519	0.579865
H107	H	0.709461	-1.339480	0.667731
C108	C	0.598726	-1.327337	0.799971
C109	C	0.614037	-1.275846	0.703794
H110	H	0.546720	-1.333144	0.828114
H111	H	0.631074	-1.295607	0.829113
H112	H	0.607995	-1.388199	0.807923
H113	H	0.604778	-1.214981	0.695843
H114	H	0.581686	-1.307566	0.674651
O115	O	0.713627	-1.083912	0.735878
C116	C	0.718214	-1.076156	0.824459
H117	H	0.780640	-1.050210	0.824587
H118	H	0.684037	-1.024012	0.838971
C119	C	0.608395	-1.205041	0.901285
C120	C	0.685068	-1.173180	0.901445
H121	H	0.587945	-1.264888	0.948775
H122	H	0.605302	-1.210264	0.841607
H123	H	0.579923	-1.161579	0.913376
H124	H	0.713539	-1.216636	0.889343
H125	H	0.688165	-1.167967	0.961123
H126	H	1.073301	-0.360308	0.841345
H127	H	0.752915	-0.898449	0.694581
O128	O	0.860106	-0.583123	1.199350
C129	C	0.864741	-0.671712	1.191647
H130	H	0.904402	-0.661435	1.121474
H131	H	0.888310	-0.712507	1.251727
C132	C	0.735680	-0.739880	1.283054
C133	C	0.784386	-0.727257	1.196862
H134	H	0.686113	-0.774146	1.286276
H135	H	0.732557	-0.680198	1.288247
H136	H	0.755330	-0.773873	1.333111
H137	H	0.764741	-0.693255	1.146808
H138	H	0.787503	-0.786936	1.191661
H139	H	0.812310	-0.632905	1.144783
H140	H	0.723616	-0.725545	1.075295
O141	O	0.745257	-0.703084	0.892985
C142	C	0.786503	-0.753442	0.847218
H143	H	0.850128	-0.718125	0.827034
H144	H	0.776939	-0.828845	0.896548
C145	C	0.680387	-0.797676	0.782640
C146	C	0.758531	-0.754294	0.757843
H147	H	0.663131	-0.798206	0.727512
H148	H	0.652596	-0.763752	0.813477
H149	H	0.672427	-0.860508	0.823750
H150	H	0.766489	-0.691460	0.716743
H151	H	0.786322	-0.788207	0.726997
