data_functionalizedCrystal
_audit_creation_method	'MofGen! by Chris Wilmer'
_symmetry_space_group_name_H-M	'P1'
_symmetry_Int_Tables_number	1
_symmetry_cell_setting	triclinic
loop_
_symmetry_equiv_pos_as_xyz
  x,y,z
_cell_length_a	17.038278
_cell_length_b	17.038272
_cell_length_c	16.098524
_cell_angle_alpha	92.876406
_cell_angle_beta	92.876348
_cell_angle_gamma	91.111028
loop_
_atom_site_label
_atom_site_type_symbol
_atom_site_fract_x
_atom_site_fract_y
_atom_site_fract_z
O1	O	1.052098	0.173870	0.069265
O2	O	0.824286	0.171165	0.069265
O3	O	0.936838	0.058611	0.069258
O4	O	0.939546	0.286424	0.069272
O5	O	0.930140	0.051921	-0.069255
O6	O	0.817589	0.164474	-0.069249
O7	O	1.045400	0.167180	-0.069249
Zn8	Zn	0.930431	0.164765	-0.091241
Zn9	Zn	0.939255	0.173580	0.091257
O10	O	0.932849	0.279733	-0.069242
C11	C	0.791645	0.165357	0.000008
C12	C	0.704361	0.158010	0.000008
C13	C	0.210936	0.112872	0.000009
C14	C	0.292947	0.119781	0.000004
C15	C	0.329347	0.194155	0.000012
C16	C	0.283731	0.261624	0.000016
C17	C	0.201721	0.254713	0.000015
C18	C	0.576735	0.218568	0.000011
C19	C	0.658751	0.225473	0.000015
C20	C	0.667962	0.083630	0.000001
C21	C	0.585950	0.076726	0.000005
C22	C	0.540340	0.144195	0.000005
C23	C	0.413176	0.201220	0.000010
C24	C	0.456513	0.137129	0.000001
C25	C	0.931026	0.025974	0.000002
C26	C	0.923678	-0.061310	0.000002
C27	C	0.991142	-0.106920	0.000001
C28	C	0.984233	-0.188931	0.000009
C29	C	0.909860	-0.225332	0.000012
C30	C	0.842392	-0.179715	0.000015
C31	C	0.849301	-0.097705	0.000013
C32	C	0.885450	-0.472719	0.000023
C33	C	0.878545	-0.554735	0.000023
C34	C	1.020388	-0.563945	0.000018
C35	C	1.027291	-0.481933	0.000011
C36	C	0.959822	-0.436324	0.000019
C37	C	0.902796	-0.309160	0.000017
C38	C	0.966887	-0.352496	0.000019
C39	C	1.078042	0.172988	0.000010
C40	C	1.165326	0.180336	0.000015
C41	C	0.938661	0.312371	0.000017
C42	C	0.946009	0.399655	0.000022
N43	N	0.924415	0.158749	-0.215791
C44	C	0.973108	0.207473	-0.259370
C45	C	0.968909	0.203260	-0.346559
C46	C	0.916013	0.150327	-0.390168
C47	C	0.867319	0.101598	-0.346583
C48	C	0.871522	0.105808	-0.259395
C49	C	0.900786	0.135071	-0.653420
C50	C	0.896585	0.130866	-0.740614
C51	C	0.998177	0.232527	-0.740584
C52	C	1.002372	0.236735	-0.653394
C53	C	0.953680	0.188004	-0.609817
C54	C	0.911719	0.146021	-0.479290
C55	C	0.957979	0.192306	-0.520697
N56	N	0.945278	0.179590	0.215807
H57	H	0.330080	0.064845	-0.000005
H58	H	1.016177	0.250581	-0.223869
F59	F	0.840284	0.074525	-0.787024
H60	H	0.688385	0.286040	0.000009
H61	H	0.442823	0.261775	0.000019
H62	H	0.313374	0.322181	0.000018
H63	H	0.164586	0.309650	0.000018
H64	H	0.868650	0.102923	-0.514806
H65	H	0.426872	0.076575	0.000004
F66	F	0.848940	0.083228	-0.607053
H67	H	1.051704	-0.077289	-0.000006
F68	F	0.799384	-0.593473	0.000022
F69	F	0.813643	-0.424188	0.000034
F70	F	1.058646	0.293098	-0.606989
F71	F	1.106450	-0.443198	0.000029
F72	F	0.716508	0.011830	-0.000003
F73	F	0.528205	0.290375	0.000020
H74	H	0.842241	-0.338807	0.000018
H75	H	1.039169	-0.226064	0.000006
H76	H	0.181305	0.052309	0.000007
H77	H	1.075316	-0.601089	0.000013
H78	H	0.781835	-0.209359	0.000023
H79	H	1.027442	-0.322855	0.000035
H80	H	0.824253	0.058496	-0.382097
F81	F	1.020734	0.255119	-0.392935
H82	H	0.794365	-0.060570	0.000014
F83	F	1.049995	0.284386	-0.786968
H84	H	0.831870	0.066132	-0.223914
F85	F	0.547217	-0.002431	0.000020
H86	H	1.001049	0.235401	-0.485187
