data_functionalizedCrystal
_audit_creation_method	'MofGen! by Chris Wilmer'
_symmetry_space_group_name_H-M	'P1'
_symmetry_Int_Tables_number	1
_symmetry_cell_setting	triclinic
loop_
_symmetry_equiv_pos_as_xyz
  x,y,z
_cell_length_a	13.033748
_cell_length_b	15.299816
_cell_length_c	13.033109
_cell_angle_alpha	105.397713
_cell_angle_beta	89.076084
_cell_angle_gamma	86.312231
loop_
_atom_site_label
_atom_site_type_symbol
_atom_site_fract_x
_atom_site_fract_y
_atom_site_fract_z
Zn1	Zn	1.694776	-0.219022	-0.419861
Zn2	Zn	1.702533	-0.352685	-0.270956
Zn3	Zn	1.502033	-0.223851	-0.270549
Zn4	Zn	1.560792	-0.390124	-0.471140
O5	O	1.615033	-0.296420	-0.358127
O6	O	1.835787	-0.219063	-0.378819
O7	O	1.654592	-0.321948	-0.124637
O8	O	1.499763	-0.097686	-0.268724
O9	O	1.841487	-0.317265	-0.269419
O10	O	1.641370	-0.094138	-0.378424
O11	O	1.507285	-0.227294	-0.124337
O12	O	1.369845	-0.263597	-0.318447
O13	O	1.599910	-0.381074	-0.610603
O14	O	1.413015	-0.385757	-0.465821
O15	O	1.698347	-0.255366	-0.572929
O16	O	1.711568	-0.483176	-0.319142
O17	O	1.607432	-0.510682	-0.466216
C18	C	1.355134	-0.329264	-0.397655
C19	C	1.243957	-0.343339	-0.414594
C20	C	1.172999	-0.289100	-0.349316
C21	C	1.058091	-0.303645	-0.366821
C22	C	1.666749	-0.529475	-0.398306
C23	C	1.688969	-0.629168	-0.415516
C24	C	1.456927	-0.917829	-0.235379
C25	C	1.436045	-0.824163	-0.219212
C26	C	1.499275	-0.775410	-0.268287
C27	C	1.583389	-0.820332	-0.333531
C28	C	1.604269	-0.914008	-0.349705
C29	C	1.646616	-0.771589	-0.382613
C30	C	1.730731	-0.816511	-0.447857
C31	C	1.751607	-0.910178	-0.464028
C32	C	1.688377	-0.958931	-0.414954
C33	C	1.625737	-0.677912	-0.366438
C34	C	1.773078	-0.674091	-0.480765
C35	C	1.793960	-0.767757	-0.496932
C36	C	1.875948	-0.263449	-0.318445
C37	C	1.987134	-0.249398	-0.301535
C38	C	1.654818	-0.321857	-0.630751
C39	C	1.671771	-0.332697	-0.746928
C40	C	1.563147	-0.062455	-0.317809
C41	C	1.541036	0.037248	-0.300628
C42	C	1.606445	-0.290697	-0.798575
C43	C	1.623966	-0.301899	-0.918649
C44	C	1.575447	-0.271010	-0.086542
C45	C	1.558631	-0.259893	0.029707
H46	H	1.219636	-0.400546	-0.483437
Br47	Br	1.491615	-0.216925	-0.724116
Br48	Br	1.511584	-0.616958	-0.277897
Br49	Br	1.321883	-0.763207	-0.130688
H50	H	1.405451	-0.957533	-0.195435
Br51	Br	1.716914	-1.086002	-0.436611
Br52	Br	1.786606	-0.406464	-0.821385
H53	H	1.824563	-0.634397	-0.520728
H54	H	1.033776	-0.360856	-0.435670
Br55	Br	1.738806	-0.375670	-0.993103
Br56	Br	1.443760	-0.186162	-0.895855
H57	H	1.011448	-0.192192	-0.232680
Br58	Br	1.213524	-0.193756	-0.234557
H59	H	1.482268	-0.699143	-0.255119
Br60	Br	1.865742	-0.971148	-0.552602
Br61	Br	1.908113	-0.828733	-0.585473
