data_functionalizedCrystal
_audit_creation_method	'MofGen! by Chris Wilmer'
_symmetry_space_group_name_H-M	'P1'
_symmetry_Int_Tables_number	1
_symmetry_cell_setting	triclinic
loop_
_symmetry_equiv_pos_as_xyz
  x,y,z
_cell_length_a	15.944551
_cell_length_b	15.944493
_cell_length_c	13.330367
_cell_angle_alpha	90.001230
_cell_angle_beta	89.996937
_cell_angle_gamma	83.486891
loop_
_atom_site_label
_atom_site_type_symbol
_atom_site_fract_x
_atom_site_fract_y
_atom_site_fract_z
O1	O	1.114505	0.108334	-0.083306
O2	O	0.869953	0.121691	-0.083329
O3	O	0.998933	-0.007265	-0.083325
O4	O	0.985526	0.237291	-0.083310
O5	O	0.998914	-0.007268	0.083522
O6	O	0.869934	0.121688	0.083518
O7	O	1.114487	0.108332	0.083542
Cu8	Cu	0.992209	0.115010	0.098764
Cu9	Cu	0.992231	0.115013	-0.098552
O10	O	0.985507	0.237288	0.083538
C11	C	0.838650	0.121135	0.000091
C12	C	0.745404	0.119473	0.000082
C13	C	0.530565	0.035566	0.000096
C14	C	0.469546	0.074531	-0.082166
C15	C	0.574679	0.116465	0.000093
C16	C	0.469550	0.074547	0.082332
C17	C	0.409767	0.113555	0.000109
C18	C	0.514888	0.155452	-0.082236
C19	C	0.514898	0.155457	0.082336
C20	C	0.453897	0.194481	0.000054
C21	C	0.669681	0.118140	0.000084
C22	C	0.314766	0.111886	0.000112
C23	C	0.998375	-0.038562	0.000094
C24	C	0.996733	-0.131810	0.000081
C25	C	1.072653	-0.367570	0.000108
C26	C	1.031721	-0.418137	-0.082160
C27	C	0.993688	-0.302531	0.000093
C28	C	1.031684	-0.418116	0.082338
C29	C	0.990754	-0.467441	0.000109
C30	C	0.952778	-0.351870	-0.082242
C31	C	0.952753	-0.351845	0.082330
C32	C	0.911763	-0.402379	0.000042
C33	C	0.995381	-0.207531	0.000083
C34	C	0.989055	-0.562438	0.000112
C35	C	1.145790	0.108888	0.000119
C36	C	1.239036	0.110550	0.000122
C37	C	0.986064	0.268584	0.000116
C38	C	0.987707	0.361833	0.000122
N39	N	0.992199	0.115007	0.237546
N40	N	0.992247	0.115009	-0.237333
C41	C	0.935116	0.172092	0.710167
C42	C	1.049368	0.057927	0.710138
C43	C	1.049359	0.057924	0.605120
C44	C	0.992228	0.115008	0.552620
C45	C	0.935107	0.172093	0.605139
C46	C	1.106485	0.000845	0.552594
C47	C	1.106478	0.000841	0.447569
C48	C	1.049343	0.057921	0.395067
C49	C	0.992218	0.115008	0.447592
C50	C	0.935088	0.172092	0.395092
C51	C	0.877959	0.229176	0.447616
C52	C	0.877971	0.229173	0.552637
C53	C	1.049330	0.057923	0.290046
C54	C	0.935078	0.172092	0.290064
H55	H	0.535015	0.189645	0.151890
H56	H	0.534876	0.189645	-0.151858
H57	H	0.420724	0.261690	0.000012
H58	H	1.153003	-0.045626	0.595342
H59	H	0.888552	0.218574	0.247325
Br60	Br	0.857582	0.249556	0.781441
H61	H	0.831446	0.275657	0.404858
H62	H	0.449463	0.040314	0.151876
H63	H	1.140671	-0.351942	0.000031
H64	H	0.563912	-0.031574	-0.000010
Br65	Br	0.800446	0.306640	0.623919
Br66	Br	1.087278	-0.466339	0.198254
Br67	Br	0.897242	-0.303840	-0.198292
Br68	Br	0.436055	0.017507	-0.198093
Br69	Br	1.126908	-0.019533	0.781384
H70	H	0.843692	-0.417845	-0.000010
Br71	Br	1.184006	-0.076628	0.376294
Br72	Br	1.126864	-0.019534	0.218771
Br73	Br	1.087313	-0.466381	-0.198075
H74	H	0.919426	-0.322886	0.151878
