data_functionalizedCrystal
_audit_creation_method	'MofGen! by Chris Wilmer'
_symmetry_space_group_name_H-M	'P1'
_symmetry_Int_Tables_number	1
_symmetry_cell_setting	triclinic
loop_
_symmetry_equiv_pos_as_xyz
  x,y,z
_cell_length_a	13.635800
_cell_length_b	17.110477
_cell_length_c	17.329391
_cell_angle_alpha	83.242784
_cell_angle_beta	76.974768
_cell_angle_gamma	80.939702
loop_
_atom_site_label
_atom_site_type_symbol
_atom_site_fract_x
_atom_site_fract_y
_atom_site_fract_z
V1	V	1.855431	-0.093326	0.244943
O2	O	1.863472	0.021117	0.240385
O3	O	1.821424	-0.201046	0.243168
O4	O	1.767292	-0.084592	0.351817
O5	O	1.917978	-0.096143	0.130983
V6	V	2.106801	-0.080499	0.231325
O7	O	1.964984	-0.121461	0.274816
O8	O	2.222347	-0.052364	0.201452
O9	O	2.029205	0.027221	0.233100
O10	O	2.157459	-0.194942	0.235883
O11	O	2.102952	-0.077682	0.345285
O12	O	2.083337	-0.089233	0.124451
V13	V	2.355431	-0.093326	0.244943
O14	O	2.363472	0.021117	0.240385
O15	O	2.321424	-0.201046	0.243168
O16	O	2.267292	-0.084592	0.351817
O17	O	2.417978	-0.096143	0.130983
V18	V	2.606801	-0.080499	0.231325
O19	O	2.464984	-0.121461	0.274816
O20	O	2.722347	-0.052364	0.201452
O21	O	2.529205	0.027221	0.233100
O22	O	2.657459	-0.194942	0.235883
O23	O	2.602952	-0.077682	0.345285
O24	O	2.583337	-0.089233	0.124451
C25	C	1.743607	-0.227534	0.239278
C26	C	1.756019	-0.315549	0.238538
C27	C	1.850149	-0.360671	0.242107
C28	C	1.861804	-0.443372	0.241417
C29	C	1.779330	-0.480948	0.237153
C30	C	1.685192	-0.435820	0.233586
C31	C	1.673536	-0.353122	0.234281
C32	C	1.810103	-0.730455	0.234861
C33	C	1.821767	-0.813159	0.234163
C34	C	1.998379	-0.820705	0.241997
C35	C	1.986717	-0.738004	0.242687
C36	C	1.892578	-0.692884	0.239125
C37	C	1.791242	-0.565480	0.236445
C38	C	1.880666	-0.608353	0.239838
C39	C	1.938694	0.053704	0.236988
C40	C	1.915897	0.141720	0.237733
C41	C	1.674557	-0.078984	0.377870
C42	C	1.643070	-0.072556	0.465239
C43	C	1.634389	-0.141266	0.517442
C44	C	1.604808	-0.135225	0.599535
C45	C	1.583902	-0.060473	0.629423
C46	C	1.592588	0.008241	0.577214
C47	C	1.622175	0.002199	0.495123
C48	C	1.494268	-0.038642	0.876726
C49	C	1.464676	-0.032605	0.958823
C50	C	1.476900	-0.176071	0.981139
C51	C	1.506481	-0.182106	0.899045
C52	C	1.515170	-0.113392	0.846843
C53	C	1.553662	-0.054297	0.713334
C54	C	1.545416	-0.119570	0.762934
C55	C	2.007745	-0.094844	0.098394
C56	C	2.028852	-0.101268	0.011024
C57	C	2.022926	-0.032562	-0.041184
C58	C	2.042759	-0.038610	-0.123276
C59	C	2.068512	-0.113365	-0.153157
C60	C	2.074441	-0.182075	-0.100943
C61	C	2.054614	-0.176026	-0.018853
C62	C	2.129173	-0.135218	-0.400457
C63	C	2.148996	-0.141262	-0.482553
C64	C	2.117315	0.002204	-0.504880
C65	C	2.097484	0.008246	-0.422788
C66	C	2.103420	-0.060464	-0.370581
C67	C	2.088782	-0.119549	-0.237068
C68	C	2.083157	-0.054279	-0.286672
C69	C	2.174557	-0.078984	0.377870
C70	C	2.143070	-0.072556	0.465239
C71	C	2.243607	-0.227534	0.239278
C72	C	2.256019	-0.315549	0.238538
C73	C	2.438694	0.053704	0.236988
C74	C	2.415897	0.141720	0.237733
C75	C	2.507745	-0.094844	0.098394
C76	C	2.528852	-0.101268	0.011024
C77	C	2.350155	-0.360659	0.242114
C78	C	2.361827	-0.443360	0.241432
C79	C	2.279365	-0.480951	0.237168
C80	C	2.185221	-0.435836	0.233594
C81	C	2.173547	-0.353136	0.234282
C82	C	2.494254	0.186828	0.234159
C83	C	2.472851	0.269530	0.234845
C84	C	2.373090	0.307120	0.239111
C85	C	2.294728	0.262005	0.242683
C86	C	2.316133	0.179306	0.241991
H87	H	1.938453	-0.480107	0.244325
O88	O	2.099907	-0.869372	0.245846
H89	H	2.158088	-0.850411	0.194046
O90	O	1.531097	0.026326	0.745576
H91	H	1.599834	0.056813	0.727469
H92	H	2.112486	0.058143	-0.547396
O93	O	1.595406	-0.209330	0.655840
H94	H	1.614888	-0.262322	0.621265
H95	H	2.053876	-0.707416	0.246166
O96	O	2.231604	0.130660	0.245863
H97	H	2.247879	0.097700	0.191929
O98	O	2.187129	0.302558	0.247301
H99	H	2.183917	0.344966	0.194005
O100	O	2.135549	-0.209330	-0.344159
H101	H	2.213560	-0.242145	-0.357558
H102	H	1.947814	-0.577756	0.243315
O103	O	1.939099	-0.320144	0.246721
H104	H	2.006507	-0.365419	0.249100
H105	H	1.754595	-0.843752	0.230709
O106	O	1.442143	0.048022	0.991065
H107	H	1.453168	0.094788	0.940976
O108	O	1.995139	0.048070	-0.008964
H109	H	2.051957	0.057017	0.024917
H110	H	1.523505	-0.242977	0.874717
O111	O	1.503625	0.035474	0.820437
H112	H	1.582810	0.033407	0.785501
O113	O	2.557370	0.318183	0.231001
H114	H	2.541054	0.351147	0.284935
O115	O	1.708576	-0.681793	0.231015
H116	H	1.653191	-0.721817	0.227925
O117	O	1.596229	-0.476343	0.228994
H118	H	1.620148	-0.541429	0.229104
H119	H	2.355675	0.374460	0.239674
O120	O	2.463378	-0.492004	0.245275
H121	H	2.457650	-0.555828	0.244089
O122	O	2.291991	-0.570147	0.236394
H123	H	2.315129	-0.598487	0.291700
H124	H	2.417313	-0.330063	0.245582
H125	H	2.169961	-0.202139	-0.506878
O126	O	2.036356	0.035492	-0.179589
H127	H	2.015101	0.088488	-0.145018
H128	H	1.724094	-0.596084	0.232970
O129	O	1.572011	-0.304448	0.230429
H130	H	1.516621	-0.344468	0.227339
H131	H	1.651401	-0.202136	0.493114
H132	H	1.469823	-0.232014	1.023650
H133	H	1.575570	0.069105	0.601555
H134	H	1.629243	0.058149	0.452619
O135	O	2.072010	-0.304490	0.230415
H136	H	2.044369	-0.271531	0.284350
O137	O	2.096281	-0.476383	0.228996
H138	H	2.120228	-0.541466	0.229112
H139	H	2.076502	0.069118	-0.398465
O140	O	1.567951	-0.200192	0.730699
H141	H	1.647714	-0.209133	0.696816
H142	H	2.059440	-0.231973	0.023655
O143	O	2.102208	-0.262707	-0.133165
H144	H	2.114985	-0.255373	-0.199018
O145	O	2.055369	0.026349	-0.254450
H146	H	2.112187	0.035296	-0.220570
H147	H	2.575491	0.156233	0.230686
H148	H	2.109750	-0.180414	-0.261406
