data_functionalizedCrystal
_audit_creation_method	'MofGen! by Chris Wilmer'
_symmetry_space_group_name_H-M	'P1'
_symmetry_Int_Tables_number	1
_symmetry_cell_setting	triclinic
loop_
_symmetry_equiv_pos_as_xyz
  x,y,z
_cell_length_a	12.759401
_cell_length_b	21.295412
_cell_length_c	12.759400
_cell_angle_alpha	90.023063
_cell_angle_beta	89.985084
_cell_angle_gamma	89.978578
loop_
_atom_site_label
_atom_site_type_symbol
_atom_site_fract_x
_atom_site_fract_y
_atom_site_fract_z
Zn1	Zn	1.606274	-0.355910	0.418286
Zn2	Zn	1.606163	-0.250649	0.593979
Zn3	Zn	1.430571	-0.250658	0.418315
Zn4	Zn	1.430565	-0.355884	0.593924
O5	O	1.518393	-0.303275	0.506126
O6	O	1.753281	-0.341953	0.441603
O7	O	1.582826	-0.162561	0.570712
O8	O	1.453927	-0.264635	0.271290
O9	O	1.753199	-0.264618	0.570683
O10	O	1.583016	-0.341962	0.271269
O11	O	1.453819	-0.162568	0.441652
O12	O	1.283549	-0.264610	0.441599
O13	O	1.453917	-0.443977	0.570590
O14	O	1.283545	-0.341920	0.570619
O15	O	1.583010	-0.443996	0.441550
O16	O	1.582821	-0.264594	0.740993
O17	O	1.453809	-0.341910	0.740952
C18	C	1.245426	-0.303264	0.506107
C19	C	1.128649	-0.303274	0.506124
C20	C	1.073748	-0.262950	0.573229
C21	C	0.964024	-0.262961	0.573247
C22	C	0.964112	-0.343620	0.439047
C23	C	1.073834	-0.343612	0.439035
C24	C	1.073697	-0.216381	0.650705
C25	C	0.963973	-0.216392	0.650723
C26	C	1.518475	-0.467466	0.506061
C27	C	1.518510	-0.537434	0.506033
C28	C	1.451354	-0.570294	0.438824
C29	C	1.451351	-0.636037	0.438804
C30	C	1.518522	-0.668916	0.505983
C31	C	1.585682	-0.636048	0.573205
C32	C	1.585677	-0.570307	0.573230
N33	N	1.610493	-0.772153	0.514006
N34	N	1.610496	-0.834605	0.513976
C35	C	1.518541	-0.866991	0.505913
N36	N	1.426582	-0.834567	0.497860
N37	N	1.426581	-0.772110	0.497884
C38	C	1.518535	-0.740202	0.505963
C39	C	1.451375	-0.971137	0.438679
C40	C	1.451370	-1.036881	0.438667
C41	C	1.585711	-1.036891	0.573062
C42	C	1.585707	-0.971148	0.573079
C43	C	1.518541	-0.938276	0.505883
C44	C	1.792426	-0.303287	0.506146
C45	C	1.909203	-0.303293	0.506154
C46	C	1.518331	-0.303262	0.779093
C47	C	1.518400	-0.303278	0.895870
C48	C	1.518372	-0.139724	0.506115
C49	C	1.518540	-0.069756	0.505847
C50	C	1.518484	-0.303302	0.232093
C51	C	1.518523	-0.303314	0.115316
C52	C	1.585651	-0.263064	0.950718
C53	C	1.585716	-0.263083	1.060442
C54	C	1.451270	-0.343532	1.060460
C55	C	1.451211	-0.343516	0.950738
C56	C	1.663269	-0.216615	0.950708
C57	C	1.663334	-0.216634	1.060432
H58	H	0.919468	-0.376463	0.384425
H59	H	1.103471	-0.229350	0.732101
C60	C	1.659622	-0.935001	0.646979
N61	N	1.715306	-0.907774	0.702635
H62	H	1.396460	-0.376267	0.906082
C63	C	1.659428	-0.672217	0.647243
N64	N	1.714921	-0.699459	0.703066
C65	C	1.119632	-0.153855	0.611187
N66	N	1.154232	-0.106760	0.581421
C67	C	1.377359	-0.387787	1.120826
N68	N	1.321685	-0.421120	1.166292
C69	C	1.377476	-0.672190	0.364862
N70	N	1.321835	-0.699420	0.309166
C71	C	0.917999	-0.239865	0.755212
N72	N	0.883370	-0.257543	0.833913
H73	H	1.744613	-0.229708	0.920854
H74	H	0.934156	-0.167663	0.628823
H75	H	1.396658	-0.543533	0.384111
H76	H	1.641594	-0.167874	1.090283
C77	C	1.623897	-0.154030	0.904826
N78	N	1.594230	-0.106892	0.870268
H79	H	1.640368	-0.543552	0.627958
H80	H	1.396684	-0.944371	0.383964
H81	H	1.640405	-1.063661	0.627757
C82	C	1.134221	-0.387973	0.365219
N83	N	1.179704	-0.421387	0.309617
H84	H	1.396676	-1.063635	0.383941
H85	H	1.740639	-0.234138	1.094381
