data_functionalizedCrystal
_audit_creation_method	'MofGen! by Chris Wilmer'
_symmetry_space_group_name_H-M	'P1'
_symmetry_Int_Tables_number	1
_symmetry_cell_setting	triclinic
loop_
_symmetry_equiv_pos_as_xyz
  x,y,z
_cell_length_a	11.169417
_cell_length_b	12.827892
_cell_length_c	11.169409
_cell_angle_alpha	89.966724
_cell_angle_beta	89.980487
_cell_angle_gamma	90.016641
loop_
_atom_site_label
_atom_site_type_symbol
_atom_site_fract_x
_atom_site_fract_y
_atom_site_fract_z
Zn1	Zn	1.834920	-0.415914	-0.678525
Zn2	Zn	2.168254	-0.082580	-0.345192
Zn3	Zn	2.501587	0.250753	-0.011858
Zn4	Zn	1.834792	-0.590701	-0.477839
Zn5	Zn	2.168125	-0.257368	-0.144505
Zn6	Zn	2.501459	0.075966	0.188828
Zn7	Zn	1.634206	-0.415978	-0.477860
Zn8	Zn	1.967539	-0.082645	-0.144527
Zn9	Zn	2.300873	0.250688	0.188806
Zn10	Zn	1.634196	-0.590617	-0.678485
Zn11	Zn	1.967529	-0.257284	-0.345151
Zn12	Zn	2.300863	0.076050	-0.011818
O13	O	1.734528	-0.503303	-0.578177
O14	O	2.067862	-0.169969	-0.244844
O15	O	2.401195	0.163364	0.088490
O16	O	2.002853	-0.439108	-0.651911
O17	O	2.336186	-0.105774	-0.318578
O18	O	2.669520	0.227559	0.014755
O19	O	1.808134	-0.567586	-0.309892
O20	O	2.141468	-0.234253	0.023442
O21	O	2.474801	0.099081	0.356775
O22	O	1.660889	-0.269734	-0.504505
O23	O	1.994223	0.063600	-0.171172
O24	O	2.327556	0.396933	0.162162
O25	O	2.002759	-0.567523	-0.504468
O26	O	2.336092	-0.234190	-0.171134
O27	O	2.669425	0.099144	0.162199
O28	O	1.808353	-0.269686	-0.651932
O29	O	2.141686	0.063647	-0.318599
O30	O	2.475020	0.396981	0.014734
O31	O	1.660765	-0.439218	-0.309908
O32	O	1.994098	-0.105885	0.023426
O33	O	2.327431	0.227449	0.356759
O34	O	1.466255	-0.439137	-0.504466
O35	O	1.799588	-0.105803	-0.171133
O36	O	2.132922	0.227530	0.162201
O37	O	1.660872	-0.567380	-0.846440
O38	O	1.994205	-0.234047	-0.513106
O39	O	2.327538	0.099287	-0.179773
O40	O	1.466248	-0.567443	-0.651864
O41	O	1.799581	-0.234110	-0.318530
O42	O	2.132914	0.099224	0.014803
O43	O	1.808343	-0.439026	-0.846469
O44	O	2.141676	-0.105693	-0.513136
O45	O	2.475010	0.227641	-0.179803
O46	O	1.808124	-0.736926	-0.504429
O47	O	2.141458	-0.403593	-0.171095
O48	O	2.474791	-0.070259	0.162238
O49	O	1.660747	-0.736864	-0.651842
O50	O	1.994081	-0.403531	-0.318509
O51	O	2.327414	-0.070198	0.014824
C52	C	1.422704	-0.503288	-0.578163
C53	C	1.756037	-0.169955	-0.244830
C54	C	2.089370	0.163378	0.088503
C55	C	1.289304	-0.503308	-0.578186
C56	C	1.622637	-0.169974	-0.244853
C57	C	1.955970	0.163359	0.088481
C58	C	1.734453	-0.774812	-0.578155
C59	C	2.067787	-0.441479	-0.244822
C60	C	2.401120	-0.108146	0.088512
C61	C	1.734531	-0.890966	-0.578186
C62	C	2.067864	-0.557632	-0.244852
C63	C	2.401198	-0.224299	0.088481
C64	C	1.807468	-0.942643	-0.651203
C65	C	2.140802	-0.609310	-0.317869
C66	C	2.474135	-0.275977	0.015464
C67	C	1.807550	-1.062694	-0.651236
C68	C	2.140884	-0.729360	-0.317903
C69	C	2.474217	-0.396027	0.015431
C70	C	2.047571	-0.503317	-0.578192
C71	C	2.380904	-0.169984	-0.244858
C72	C	2.714237	0.163349	0.088475
C73	C	2.180971	-0.503324	-0.578198
C74	C	2.514304	-0.169990	-0.244864
C75	C	2.847637	0.163343	0.088469
C76	C	1.734621	-0.503186	-0.891220
C77	C	2.067954	-0.169853	-0.557886
C78	C	2.401287	0.163480	-0.224553
C79	C	1.734660	-0.503137	-1.024620
C80	C	2.067993	-0.169804	-0.691286
C81	C	2.401327	0.163530	-0.357953
C82	C	1.734637	-0.230732	-0.578226
C83	C	2.067970	0.102601	-0.244892
C84	C	2.401303	0.435934	0.088441
C85	C	1.734683	-0.114579	-0.578246
C86	C	2.068016	0.218754	-0.244913
C87	C	2.401349	0.552087	0.088420
C88	C	1.734506	-0.503343	-0.266352
C89	C	2.067839	-0.170009	0.066981
C90	C	2.401172	0.163324	0.400314
C91	C	1.734699	-0.503098	-0.132953
C92	C	2.068032	-0.169764	0.200380
C93	C	2.401366	0.163569	0.533714
H94	H	1.869999	-1.107136	-0.713745
H95	H	2.203332	-0.773802	-0.380411
H96	H	2.536666	-0.440469	-0.047078
H97	H	1.672239	-1.070145	-0.515725
H98	H	2.005572	-0.736812	-0.182392
H99	H	2.338906	-0.403478	0.150941
H100	H	1.869848	-0.898012	-0.713697
H101	H	2.203182	-0.564679	-0.380363
H102	H	2.536515	-0.231346	-0.047030
H103	H	1.672142	-0.935599	-0.515703
H104	H	2.005475	-0.602266	-0.182370
H105	H	2.338809	-0.268932	0.150963
