data_functionalizedCrystal
_audit_creation_method	'MofGen! by Chris Wilmer'
_symmetry_space_group_name_H-M	'P1'
_symmetry_Int_Tables_number	1
_symmetry_cell_setting	triclinic
loop_
_symmetry_equiv_pos_as_xyz
  x,y,z
_cell_length_a	11.026607
_cell_length_b	14.044220
_cell_length_c	9.482900
_cell_angle_alpha	100.188801
_cell_angle_beta	78.636152
_cell_angle_gamma	100.887447
loop_
_atom_site_label
_atom_site_type_symbol
_atom_site_fract_x
_atom_site_fract_y
_atom_site_fract_z
O1	O	1.671574	0.392560	-0.120918
O2	O	2.004908	0.725893	0.212415
O3	O	2.338241	1.059227	0.545748
O4	O	1.313283	0.346512	-0.120917
O5	O	1.646617	0.679845	0.212416
O6	O	1.979950	1.013178	0.545749
O7	O	1.487049	0.230635	-0.120903
O8	O	1.820382	0.563968	0.212430
O9	O	2.153716	0.897302	0.545763
O10	O	1.497809	0.508437	-0.120932
O11	O	1.831142	0.841770	0.212401
O12	O	2.164476	1.175103	0.545734
O13	O	1.451766	0.254293	0.120886
O14	O	1.785100	0.587626	0.454220
O15	O	2.118433	0.920960	0.787553
O16	O	1.278001	0.370170	0.120872
O17	O	1.611334	0.703503	0.454205
O18	O	1.944668	1.036836	0.787539
O19	O	1.636292	0.416218	0.120871
O20	O	1.969625	0.749551	0.454205
O21	O	2.302958	1.082885	0.787538
Cu22	Cu	1.453925	0.395354	0.142949
Cu23	Cu	1.787258	0.728687	0.476282
Cu24	Cu	2.120591	1.062021	0.809616
Cu25	Cu	1.495650	0.367376	-0.142995
Cu26	Cu	1.828984	0.700709	0.190338
Cu27	Cu	2.162317	1.034042	0.523672
O28	O	1.462526	0.532095	0.120857
O29	O	1.795860	0.865428	0.454191
O30	O	2.129193	1.198761	0.787524
C31	C	1.249512	0.349846	-0.000022
C32	C	1.582845	0.683179	0.333311
C33	C	1.916178	1.016512	0.666644
C34	C	1.112056	0.324521	-0.000022
C35	C	1.445390	0.657855	0.333312
C36	C	1.778723	0.991188	0.666645
C37	C	1.045821	0.394445	-0.000030
C38	C	1.379154	0.727778	0.333304
C39	C	1.712488	1.061112	0.666637
C40	C	0.903753	0.368273	-0.000029
C41	C	1.237087	0.701606	0.333304
C42	C	1.570420	1.034940	0.666638
C43	C	1.464699	0.206346	-0.000008
C44	C	1.798033	0.539679	0.333325
C45	C	2.131366	0.873013	0.666659
C46	C	1.450655	0.098724	-0.000006
C47	C	1.783989	0.432058	0.333327
C48	C	2.117322	0.765391	0.666660
C49	C	1.424983	-0.098320	-0.000027
C50	C	1.758317	0.235013	0.333306
C51	C	2.091650	0.568346	0.666640
C52	C	1.524588	-0.138958	-0.000032
C53	C	1.857922	0.194375	0.333302
C54	C	2.191255	0.527709	0.666635
C55	C	1.510304	-0.248600	-0.000043
C56	C	1.843637	0.084733	0.333290
C57	C	2.176971	0.418066	0.666623
C58	C	1.439266	0.011332	-0.000015
C59	C	1.772599	0.344665	0.333318
C60	C	2.105932	0.677998	0.666651
C61	C	1.700064	0.412884	-0.000027
C62	C	2.033397	0.746217	0.333306
C63	C	2.366731	1.079550	0.666640
C64	C	1.837521	0.438207	-0.000037
C65	C	2.170854	0.771540	0.333296
C66	C	2.504187	1.104874	0.666629
C67	C	1.484876	0.556383	-0.000041
C68	C	1.818210	0.889716	0.333292
C69	C	2.151543	1.223050	0.666625
C70	C	1.498922	0.664004	-0.000053
C71	C	1.832255	0.997337	0.333281
C72	C	2.165589	1.330671	0.666614
N73	N	1.424586	0.415033	0.344067
N74	N	1.757919	0.748367	0.677400
N75	N	2.091253	1.081700	1.010734
N76	N	1.524998	0.347690	-0.344113
N77	N	1.858332	0.681023	-0.010780
N78	N	2.191665	1.014357	0.322554
C79	C	1.486988	0.373174	0.416271
C80	C	1.820321	0.706507	0.749604
C81	C	2.153654	1.039840	1.082938
C82	C	1.462587	0.389556	0.583687
C83	C	1.795921	0.722889	0.917020
C84	C	2.129254	1.056223	1.250353
H85	H	0.855294	0.289024	-0.000058
H86	H	1.188627	0.622358	0.333275
H87	H	1.521960	0.955691	0.666609
H88	H	1.391089	0.437521	0.645805
H89	H	1.724422	0.770855	0.979139
H90	H	2.057756	1.104188	1.312472
Cl91	Cl	1.672809	-0.065544	-0.000016
Cl92	Cl	2.006142	0.267790	0.333317
Cl93	Cl	2.339476	0.601123	0.666650
Cl94	Cl	1.276771	-0.171734	-0.000034
Cl95	Cl	1.610104	0.161599	0.333299
Cl96	Cl	1.943438	0.494933	0.666633
Cl97	Cl	1.597062	0.298852	0.320367
Cl98	Cl	1.930395	0.632185	0.653700
Cl99	Cl	2.263728	0.965518	0.987033
H100	H	1.063591	0.245278	-0.000051
H101	H	1.396925	0.578611	0.333283
H102	H	1.730258	0.911944	0.666616
H103	H	1.596487	0.299716	0.593768
H104	H	1.929820	0.633050	0.927102
H105	H	2.263153	0.966383	1.260435
Cl106	Cl	1.120644	0.516790	-0.000038
Cl107	Cl	1.453977	0.850123	0.333295
Cl108	Cl	1.787310	1.183456	0.666628
Cl109	Cl	1.314203	0.489086	0.439972
Cl110	Cl	1.647536	0.822419	0.773305
Cl111	Cl	1.980869	1.155752	1.106638
H112	H	0.885983	0.517453	-0.000036
H113	H	1.219316	0.850787	0.333298
H114	H	1.552650	1.184120	0.666631
