data_functionalizedCrystal
_audit_creation_method	'MofGen! by Chris Wilmer'
_symmetry_space_group_name_H-M	'P1'
_symmetry_Int_Tables_number	1
_symmetry_cell_setting	triclinic
loop_
_symmetry_equiv_pos_as_xyz
  x,y,z
_cell_length_a	10.908937
_cell_length_b	10.967819
_cell_length_c	14.421503
_cell_angle_alpha	102.133163
_cell_angle_beta	89.994074
_cell_angle_gamma	107.313705
loop_
_atom_site_label
_atom_site_type_symbol
_atom_site_fract_x
_atom_site_fract_y
_atom_site_fract_z
O1	O	-1.702117	-0.192365	-0.107883
O2	O	-1.329117	-0.095103	-0.092334
O3	O	-1.524213	-0.327168	-0.129421
O4	O	-1.507020	0.039701	-0.070796
O5	O	-1.524237	-0.327161	0.024804
O6	O	-1.329141	-0.095095	0.061891
O7	O	-1.702141	-0.192358	0.046341
Cu8	Cu	-1.515643	-0.143726	0.068198
Cu9	Cu	-1.515614	-0.143735	-0.114191
O10	O	-1.507044	0.039708	0.083428
C11	C	-1.281368	-0.086010	-0.013768
C12	C	-1.139056	-0.058941	-0.009440
C13	C	-1.522971	-0.373394	-0.059698
C14	C	-1.519219	-0.511141	-0.081715
C15	C	-1.749889	-0.201451	-0.032226
C16	C	-1.892201	-0.228520	-0.036560
C17	C	-0.942088	-0.129747	-0.020772
C18	C	-1.089175	-0.157727	-0.025231
N19	N	-1.515672	-0.143722	0.196480
C20	C	-1.508286	0.085934	0.013703
C21	C	-1.512038	0.223681	0.035714
C22	C	-1.517563	0.427454	-0.011633
C23	C	-1.513694	0.285083	-0.034378
N24	N	-1.515595	-0.143750	-0.242474
C25	C	-1.605904	-0.251053	0.428956
C26	C	-1.489872	-0.251210	0.490730
C27	C	-1.515643	-0.143731	0.385640
C28	C	-1.631648	-0.143642	0.507949
C29	C	-1.515626	-0.143745	0.568359
C30	C	-1.399552	-0.143932	0.446046
C31	C	-1.541405	-0.036331	0.463265
C32	C	-1.425289	-0.036422	0.525021
C33	C	-1.515655	-0.143727	0.280379
C34	C	-1.515601	-0.143746	0.673618
H35	H	-0.875904	-0.024471	-0.003958
H36	H	-1.301417	-0.144120	0.418959
H37	H	-1.682153	-0.341836	0.387327
H38	H	-1.512254	0.232255	-0.111221
H39	H	-1.563247	0.054461	0.450606
H40	H	-1.517779	0.436027	-0.158553
H41	H	-1.468065	-0.342039	0.503363
H42	H	-1.348867	0.054352	0.566477
C43	C	-1.513981	0.295034	0.139524
H44	H	-1.516314	0.381367	0.141196
H45	H	-1.588021	0.248895	0.166720
H46	H	-1.438783	0.298881	0.174696
H47	H	-1.072878	0.046344	0.007377
C48	C	-1.178567	-0.299957	-0.047953
H49	H	-1.265699	-0.300104	-0.047963
H50	H	-1.162583	-0.343761	-0.108733
H51	H	-1.162581	-0.343744	-0.001162
C52	C	-0.981597	-0.370742	-0.059281
H53	H	-1.068729	-0.370890	-0.059291
H54	H	-0.965614	-0.414547	-0.120061
H55	H	-0.965611	-0.414529	-0.012490
H56	H	-1.519016	0.480282	0.065204
H57	H	-1.729759	-0.143556	0.535133
