data_functionalizedCrystal
_audit_creation_method	'MofGen! by Chris Wilmer'
_symmetry_space_group_name_H-M	'P1'
_symmetry_Int_Tables_number	1
_symmetry_cell_setting	triclinic
loop_
_symmetry_equiv_pos_as_xyz
  x,y,z
_cell_length_a	12.837943
_cell_length_b	12.837942
_cell_length_c	11.892095
_cell_angle_alpha	85.697431
_cell_angle_beta	85.689438
_cell_angle_gamma	85.171060
loop_
_atom_site_label
_atom_site_type_symbol
_atom_site_fract_x
_atom_site_fract_y
_atom_site_fract_z
O1	O	1.408367	-0.266110	-0.093982
O2	O	1.105234	-0.252667	-0.093989
O3	O	1.250078	-0.107822	-0.093979
O4	O	1.263522	-0.410955	-0.093992
O5	O	1.237999	-0.119879	0.094028
O6	O	1.093155	-0.264723	0.094018
O7	O	1.396288	-0.278167	0.094025
Zn8	Zn	1.242803	-0.273359	0.123871
Zn9	Zn	1.258718	-0.257474	-0.123836
O10	O	1.251443	-0.423011	0.094014
C11	C	1.060125	-0.254153	0.000014
C12	C	0.943710	-0.240609	0.000011
C13	C	1.239497	-0.074781	0.000024
C14	C	1.225953	0.041634	0.000022
C15	C	0.718835	-0.403439	0.000020
C16	C	0.609453	-0.390717	0.000019
C17	C	0.615561	-0.202446	0.000015
C18	C	0.724943	-0.215167	0.000017
C19	C	0.776577	-0.315667	0.000017
C20	C	0.885961	-0.328387	0.000011
C21	C	0.892066	-0.140117	0.000015
C22	C	0.782684	-0.127395	0.000014
C23	C	1.441397	-0.276680	0.000020
C24	C	1.557812	-0.290224	0.000015
C25	C	1.262024	-0.456052	0.000009
C26	C	1.275569	-0.572467	0.000004
N27	N	1.231950	-0.284200	0.292925
C28	C	1.388784	0.266509	0.000002
C29	C	1.376062	0.375892	-0.000000
C30	C	1.187791	0.369784	0.000007
C31	C	1.200512	0.260402	0.000009
C32	C	1.301011	0.208768	0.000008
C33	C	1.313731	0.099383	0.000019
C34	C	1.125461	0.093278	0.000018
C35	C	1.112740	0.202660	0.000016
N36	N	1.269579	-0.246626	-0.292889
C37	C	1.345098	-0.171130	0.529580
C38	C	1.337519	-0.178716	0.647922
C39	C	1.209210	-0.306952	0.647951
C40	C	1.216788	-0.299366	0.529610
C41	C	1.284736	-0.231454	0.470428
C42	C	1.292319	-0.223874	0.352085
C43	C	1.164005	-0.352104	0.352116
C44	C	1.156426	-0.359690	0.470458
H45	H	0.928000	-0.410219	0.000013
O46	O	1.030790	0.030990	0.000030
H47	H	0.978300	0.045607	0.076667
H48	H	1.153882	-0.362237	0.696151
H49	H	1.101102	-0.414980	0.518656
H50	H	1.030916	0.244716	0.000012
O51	O	1.497171	0.210807	-0.000001
H52	H	1.556070	0.269337	-0.000011
H53	H	1.347647	-0.168579	0.303901
O54	O	1.098885	-0.417169	0.288320
H55	H	1.115562	-0.400482	0.196086
O56	O	1.418353	-0.097867	0.465729
H57	H	1.477042	-0.143515	0.411791
H58	H	1.447536	0.422901	-0.000009
H59	H	1.395563	0.057344	0.000022
H60	H	0.573495	-0.120630	0.000108
O61	O	1.402635	-0.113667	0.711727
H62	H	1.451162	-0.065180	0.650689
H63	H	0.562444	-0.462191	0.000024
O64	O	0.774538	-0.511827	0.000023
H65	H	0.716008	-0.570725	0.000030
O66	O	0.726992	-0.019004	0.000019
H67	H	0.682229	-0.003790	-0.076612
O68	O	0.954341	-0.045438	0.000018
H69	H	1.039076	-0.071164	0.000026
H70	H	1.105969	0.411844	-0.000004
