data_functionalizedCrystal
_audit_creation_method	'MofGen! by Chris Wilmer'
_symmetry_space_group_name_H-M	'P1'
_symmetry_Int_Tables_number	1
_symmetry_cell_setting	triclinic
loop_
_symmetry_equiv_pos_as_xyz
  x,y,z
_cell_length_a	25.639242
_cell_length_b	29.839131
_cell_length_c	25.639233
_cell_angle_alpha	89.980415
_cell_angle_beta	89.977834
_cell_angle_gamma	90.036947
loop_
_atom_site_label
_atom_site_type_symbol
_atom_site_fract_x
_atom_site_fract_y
_atom_site_fract_z
Zn1	Zn	0.799215	-0.178962	-0.295739
Zn2	Zn	1.049215	0.071038	-0.045739
Zn3	Zn	1.299215	0.321038	0.204261
Zn4	Zn	1.549215	0.571038	0.454261
Zn5	Zn	0.799134	-0.254076	-0.208302
Zn6	Zn	1.049134	-0.004076	0.041698
Zn7	Zn	1.299134	0.245924	0.291698
Zn8	Zn	1.549134	0.495924	0.541698
Zn9	Zn	0.711791	-0.178955	-0.208303
Zn10	Zn	0.961791	0.071045	0.041697
Zn11	Zn	1.211791	0.321045	0.291697
Zn12	Zn	1.461791	0.571045	0.541697
Zn13	Zn	0.711732	-0.254059	-0.295692
Zn14	Zn	0.961732	-0.004059	-0.045692
Zn15	Zn	1.211732	0.245941	0.204308
Zn16	Zn	1.461732	0.495941	0.454308
O17	O	0.755468	-0.216513	-0.252009
O18	O	1.005468	0.033487	-0.002009
O19	O	1.255468	0.283487	0.247991
O20	O	1.505468	0.533487	0.497991
O21	O	0.872370	-0.188935	-0.284160
O22	O	1.122370	0.061065	-0.034160
O23	O	1.372370	0.311065	0.215840
O24	O	1.622370	0.561065	0.465840
O25	O	0.787539	-0.244115	-0.135137
O26	O	1.037539	0.005885	0.114863
O27	O	1.287539	0.255885	0.364863
O28	O	1.537539	0.505885	0.614863
O29	O	0.723447	-0.116089	-0.219922
O30	O	0.973447	0.133911	0.030078
O31	O	1.223447	0.383911	0.280078
O32	O	1.473447	0.633911	0.530078
O33	O	0.872310	-0.244122	-0.219920
O34	O	1.122310	0.005878	0.030080
O35	O	1.372310	0.255878	0.280080
O36	O	1.622310	0.505878	0.530080
O37	O	0.787677	-0.116094	-0.284161
O38	O	1.037677	0.133906	-0.034161
O39	O	1.287677	0.383906	0.215839
O40	O	1.537677	0.633906	0.465839
O41	O	0.723369	-0.188924	-0.135138
O42	O	0.973369	0.061076	0.114862
O43	O	1.223369	0.311076	0.364862
O44	O	1.473369	0.561076	0.614862
O45	O	0.638618	-0.188908	-0.219876
O46	O	0.888618	0.061092	0.030124
O47	O	1.138618	0.311092	0.280124
O48	O	1.388618	0.561092	0.530124
O49	O	0.723346	-0.244093	-0.368864
O50	O	0.973346	0.005907	-0.118864
O51	O	1.223346	0.255907	0.131136
O52	O	1.473346	0.505907	0.381136
O53	O	0.638575	-0.244087	-0.284081
O54	O	0.888575	0.005913	-0.034081
O55	O	1.138575	0.255913	0.215919
O56	O	1.388575	0.505913	0.465919
O57	O	0.787619	-0.188919	-0.368898
O58	O	1.037619	0.061081	-0.118898
O59	O	1.287619	0.311081	0.131102
O60	O	1.537619	0.561081	0.381102
O61	O	0.787482	-0.316941	-0.219875
O62	O	1.037482	-0.066941	0.030125
O63	O	1.287482	0.183059	0.280125
O64	O	1.537482	0.433059	0.530125
O65	O	0.723268	-0.316929	-0.284080
O66	O	0.973268	-0.066929	-0.034080
O67	O	1.223268	0.183071	0.215920
O68	O	1.473268	0.433071	0.465920
C69	C	0.619626	-0.216495	-0.251974
C70	C	0.869626	0.033505	-0.001974
C71	C	1.119626	0.283505	0.248026
C72	C	1.369626	0.533505	0.498026
C73	C	0.561512	-0.216499	-0.251971
C74	C	0.811512	0.033501	-0.001971
C75	C	1.061512	0.283501	0.248029
C76	C	1.311512	0.533501	0.498029
C77	C	0.201135	-0.245293	-0.285409
C78	C	0.451135	0.004707	-0.035409
C79	C	0.701135	0.254707	0.214591
C80	C	0.951135	0.504707	0.464591
C81	C	0.146531	-0.245295	-0.285417
C82	C	0.396531	0.004705	-0.035417
C83	C	0.646531	0.254705	0.214583
C84	C	0.896531	0.504705	0.464583
O85	O	0.118282	-0.269755	-0.313817
O86	O	0.368282	-0.019755	-0.063817
O87	O	0.618282	0.230245	0.186183
O88	O	0.868282	0.480245	0.436183
N89	N	0.119229	-0.216525	-0.252043
N90	N	0.369229	0.033475	-0.002043
N91	N	0.619229	0.283475	0.247957
N92	N	0.869229	0.533475	0.497957
C93	C	0.146535	-0.187748	-0.218663
C94	C	0.396535	0.062252	0.031337
C95	C	0.646535	0.312252	0.281337
C96	C	0.896535	0.562252	0.531337
O97	O	0.118299	-0.163276	-0.190277
O98	O	0.368299	0.086724	0.059723
O99	O	0.618299	0.336724	0.309723
O100	O	0.868299	0.586724	0.559723
C101	C	0.201138	-0.187743	-0.218658
C102	C	0.451138	0.062257	0.031342
C103	C	0.701138	0.312257	0.281342
C104	C	0.951138	0.562257	0.531342
C105	C	0.228437	-0.216518	-0.252030
C106	C	0.478437	0.033482	-0.002030
C107	C	0.728437	0.283482	0.247970
C108	C	0.978437	0.533482	0.497970
C109	C	0.228434	-0.274065	-0.318778
C110	C	0.478434	-0.024065	-0.068778
C111	C	0.728434	0.225935	0.181222
C112	C	0.978434	0.475935	0.431222
C113	C	0.283034	-0.274063	-0.318769
C114	C	0.533034	-0.024063	-0.068769
C115	C	0.783034	0.225937	0.181231
C116	C	1.033034	0.475937	0.431231
C117	C	0.310336	-0.245288	-0.285390
C118	C	0.560336	0.004712	-0.035390
C119	C	0.810336	0.254712	0.214610
C120	C	1.060336	0.504712	0.464610
C121	C	0.283037	-0.216516	-0.252021
C122	C	0.533037	0.033484	-0.002021
C123	C	0.783037	0.283484	0.247979
C124	C	1.033037	0.533484	0.497979
C125	C	0.228443	-0.158963	-0.185281
C126	C	0.478443	0.091037	0.064719
C127	C	0.728443	0.341037	0.314719
C128	C	0.978443	0.591037	0.564719
C129	C	0.283050	-0.158961	-0.185279
C130	C	0.533050	0.091039	0.064721
C131	C	0.783050	0.341039	0.314721
C132	C	1.033050	0.591039	0.564721
C133	C	0.310349	-0.187736	-0.218651
C134	C	0.560349	0.062264	0.031349
C135	C	0.810349	0.312264	0.281349
C136	C	1.060349	0.562264	0.531349
C137	C	0.364940	-0.187739	-0.218633
C138	C	0.614940	0.062261	0.031367
C139	C	0.864940	0.312261	0.281367
C140	C	1.114940	0.562261	0.531367
N141	N	0.392241	-0.216509	-0.252006
N142	N	0.642241	0.033491	-0.002006
N143	N	0.892241	0.283491	0.247994
N144	N	1.142241	0.533491	0.497994
C145	C	0.364939	-0.245283	-0.285385
C146	C	0.614939	0.004717	-0.035385
C147	C	0.864939	0.254717	0.214615
C148	C	1.114939	0.504717	0.464615
C149	C	0.031864	-0.187759	-0.218677
C150	C	0.281864	0.062241	0.031323
C151	C	0.531864	0.312241	0.281323
C152	C	0.781864	0.562241	0.531323
C153	C	-0.022738	-0.187766	-0.218679
C154	C	0.227262	0.062234	0.031321
C155	C	0.477262	0.312234	0.281321
C156	C	0.727262	0.562234	0.531321
C157	C	-0.022739	-0.245313	-0.285434
C158	C	0.227261	0.004687	-0.035434
C159	C	0.477261	0.254687	0.214566
C160	C	0.727261	0.504687	0.464566
C161	C	0.031865	-0.245308	-0.285429
C162	C	0.281865	0.004692	-0.035429
C163	C	0.531865	0.254692	0.214571
C164	C	0.781865	0.504692	0.464571
C165	C	0.059166	-0.216529	-0.252051
C166	C	0.309166	0.033471	-0.002051
C167	C	0.559166	0.283471	0.247949
C168	C	0.809166	0.533471	0.497949
C169	C	0.479604	-0.245277	-0.285363
C170	C	0.729604	0.004723	-0.035363
C171	C	0.979604	0.254723	0.214637
C172	C	1.229604	0.504723	0.464637
C173	C	0.534210	-0.245273	-0.285350
C174	C	0.784210	0.004727	-0.035350
C175	C	1.034210	0.254727	0.214650
C176	C	1.284210	0.504727	0.464650
C177	C	0.534206	-0.187724	-0.218597
C178	C	0.784206	0.062276	0.031403
C179	C	1.034206	0.312276	0.281403
C180	C	1.284206	0.562276	0.531403
C181	C	0.479605	-0.187729	-0.218609
C182	C	0.729605	0.062271	0.031391
C183	C	0.979605	0.312271	0.281391
C184	C	1.229605	0.562271	0.531391
C185	C	0.452306	-0.216507	-0.251996
C186	C	0.702306	0.033493	-0.001996
C187	C	0.952306	0.283493	0.248004
C188	C	1.202306	0.533493	0.498004
O189	O	0.393223	-0.163290	-0.190249
O190	O	0.643223	0.086710	0.059751
O191	O	0.893223	0.336710	0.309751
O192	O	1.143223	0.586710	0.559751
O193	O	0.393182	-0.269746	-0.313771
O194	O	0.643182	-0.019746	-0.063771
O195	O	0.893182	0.230254	0.186229
O196	O	1.143182	0.480254	0.436229
C197	C	0.755374	-0.333236	-0.251983
C198	C	1.005374	-0.083236	-0.001983
C199	C	1.255374	0.166764	0.248017
C200	C	1.505374	0.416764	0.498017
C201	C	0.755381	-0.383170	-0.251990
C202	C	1.005381	-0.133170	-0.001990
C203	C	1.255381	0.116830	0.248010
C204	C	1.505381	0.366830	0.498010
C205	C	0.788965	-0.692807	-0.218627
C206	C	1.038965	-0.442807	0.031373
C207	C	1.288965	-0.192807	0.281373
C208	C	1.538965	0.057193	0.531373
C209	C	0.789030	-0.880480	-0.218647
C210	C	1.039030	-0.630480	0.031353
C211	C	1.289030	-0.380480	0.281353
C212	C	1.539030	-0.130480	0.531353
O213	O	0.817509	-0.904740	-0.190260
O214	O	1.067509	-0.654740	0.059740
O215	O	1.317509	-0.404740	0.309740
O216	O	1.567509	-0.154740	0.559740
N217	N	0.755577	-0.903955	-0.252049
N218	N	1.005577	-0.653955	-0.002049
N219	N	1.255577	-0.403955	0.247951
N220	N	1.505577	-0.153955	0.497951
C221	C	0.722108	-0.880509	-0.285450
C222	C	0.972108	-0.630509	-0.035450
C223	C	1.222108	-0.380509	0.214550
C224	C	1.472108	-0.130509	0.464550
O225	O	0.693659	-0.904782	-0.313865
O226	O	0.943659	-0.654782	-0.063865
O227	O	1.193659	-0.404782	0.186135
O228	O	1.443659	-0.154782	0.436135
C229	C	0.722046	-0.692837	-0.285432
C230	C	0.972046	-0.442837	-0.035432
C231	C	1.222046	-0.192837	0.214568
C232	C	1.472046	0.057163	0.464568
C233	C	0.755498	-0.669364	-0.252024
C234	C	1.005498	-0.419364	-0.002024
C235	C	1.255498	-0.169364	0.247976
C236	C	1.505498	0.080636	0.497976
C237	C	0.822415	-0.669335	-0.185222
C238	C	1.072415	-0.419335	0.064778
C239	C	1.322415	-0.169335	0.314778
C240	C	1.572415	0.080665	0.564778
C241	C	0.822396	-0.622419	-0.185215
C242	C	1.072396	-0.372419	0.064785
C243	C	1.322396	-0.122419	0.314785
C244	C	1.572396	0.127581	0.564785
C245	C	0.788928	-0.598976	-0.218613
C246	C	1.038928	-0.348976	0.031387
C247	C	1.288928	-0.098976	0.281387
C248	C	1.538928	0.151024	0.531387
C249	C	0.755479	-0.622449	-0.252018
C250	C	1.005479	-0.372449	-0.002018
C251	C	1.255479	-0.122449	0.247982
C252	C	1.505479	0.127551	0.497982
C253	C	0.688580	-0.669391	-0.318836
C254	C	0.938580	-0.419391	-0.068836
C255	C	1.188580	-0.169391	0.181164
C256	C	1.438580	0.080609	0.431164
C257	C	0.688568	-0.622470	-0.318829
C258	C	0.938568	-0.372470	-0.068829
C259	C	1.188568	-0.122470	0.181171
C260	C	1.438568	0.127530	0.431171
C261	C	0.722020	-0.598998	-0.285422
C262	C	0.972020	-0.348998	-0.035422
C263	C	1.222020	-0.098998	0.214578
C264	C	1.472020	0.151002	0.464578
C265	C	0.721993	-0.552090	-0.285409
C266	C	0.971993	-0.302090	-0.035409
C267	C	1.221993	-0.052090	0.214591
C268	C	1.471993	0.197910	0.464591
N269	N	0.755446	-0.528615	-0.252007
N270	N	1.005446	-0.278615	-0.002007
N271	N	1.255446	-0.028615	0.247993
N272	N	1.505446	0.221385	0.497993
C273	C	0.788914	-0.552058	-0.218609
C274	C	1.038914	-0.302058	0.031391
C275	C	1.288914	-0.052058	0.281391
C276	C	1.538914	0.197942	0.531391
C277	C	0.722141	-0.979039	-0.285457
C278	C	0.972141	-0.729039	-0.035457
C279	C	1.222141	-0.479039	0.214543
C280	C	1.472141	-0.229039	0.464543
C281	C	0.722156	-1.025957	-0.285461
C282	C	0.972156	-0.775957	-0.035461
C283	C	1.222156	-0.525957	0.214539
C284	C	1.472156	-0.275957	0.464539
C285	C	0.789079	-1.025925	-0.218658
C286	C	1.039079	-0.775925	0.031342
C287	C	1.289079	-0.525925	0.281342
C288	C	1.539079	-0.275925	0.531342
C289	C	0.789062	-0.979007	-0.218652
C290	C	1.039062	-0.729007	0.031348
C291	C	1.289062	-0.479007	0.281348
C292	C	1.539062	-0.229007	0.531348
C293	C	0.755595	-0.955565	-0.252055
C294	C	1.005595	-0.705565	-0.002055
C295	C	1.255595	-0.455565	0.247945
C296	C	1.505595	-0.205565	0.497945
C297	C	0.788872	-0.453533	-0.218597
C298	C	1.038872	-0.203533	0.031403
C299	C	1.288872	0.046467	0.281403
C300	C	1.538872	0.296467	0.531403
C301	C	0.788849	-0.406613	-0.218592
C302	C	1.038849	-0.156613	0.031408
C303	C	1.288849	0.093387	0.281408
C304	C	1.538849	0.343387	0.531408
C305	C	0.721928	-0.406649	-0.285396
C306	C	0.971928	-0.156649	-0.035396
C307	C	1.221928	0.093351	0.214604
C308	C	1.471928	0.343351	0.464604
C309	C	0.721949	-0.453564	-0.285400
C310	C	0.971949	-0.203564	-0.035400
C311	C	1.221949	0.046436	0.214600
C312	C	1.471949	0.296436	0.464600
C313	C	0.755425	-0.477005	-0.251999
C314	C	1.005425	-0.227005	-0.001999
C315	C	1.255425	0.022995	0.248001
C316	C	1.505425	0.272995	0.498001
O317	O	0.693533	-0.527802	-0.313784
O318	O	0.943533	-0.277802	-0.063784
O319	O	1.193533	-0.027802	0.186216
O320	O	1.443533	0.222198	0.436216
O321	O	0.817366	-0.527777	-0.190207
O322	O	1.067366	-0.277777	0.059793
O323	O	1.317366	-0.027777	0.309793
O324	O	1.567366	0.222223	0.559793
C325	C	0.788984	-0.739723	-0.218633
C326	C	1.038984	-0.489723	0.031367
C327	C	1.288984	-0.239723	0.281367
C328	C	1.538984	0.010277	0.531367
C329	C	0.755535	-0.763195	-0.252038
C330	C	1.005535	-0.513195	-0.002038
C331	C	1.255535	-0.263195	0.247962
C332	C	1.505535	-0.013195	0.497962
C333	C	0.722067	-0.739752	-0.285436
C334	C	0.972067	-0.489752	-0.035436
C335	C	1.222067	-0.239752	0.214564
C336	C	1.472067	0.010248	0.464564
C337	C	0.755549	-0.810113	-0.252042
C338	C	1.005549	-0.560113	-0.002042
C339	C	1.255549	-0.310113	0.247958
C340	C	1.505549	-0.060113	0.497958
C341	C	0.789017	-0.833556	-0.218644
C342	C	1.039017	-0.583556	0.031356
C343	C	1.289017	-0.333556	0.281356
C344	C	1.539017	-0.083556	0.531356
C345	C	0.822470	-0.810081	-0.185242
C346	C	1.072470	-0.560081	0.064758
C347	C	1.322470	-0.310081	0.314758
C348	C	1.572470	-0.060081	0.564758
C349	C	0.822451	-0.763166	-0.185235
C350	C	1.072451	-0.513166	0.064765
C351	C	1.322451	-0.263166	0.314765
C352	C	1.572451	-0.013166	0.564765
C353	C	0.688614	-0.763227	-0.318838
C354	C	0.938614	-0.513227	-0.068838
C355	C	1.188614	-0.263227	0.181162
C356	C	1.438614	-0.013227	0.431162
C357	C	0.688635	-0.810143	-0.318841
C358	C	0.938635	-0.560143	-0.068841
C359	C	1.188635	-0.310143	0.181159
C360	C	1.438635	-0.060143	0.431159
C361	C	0.722102	-0.833585	-0.285443
C362	C	0.972102	-0.583585	-0.035443
C363	C	1.222102	-0.333585	0.214557
C364	C	1.472102	-0.083585	0.464557
C365	C	0.891841	-0.216531	-0.252045
C366	C	1.141841	0.033469	-0.002045
C367	C	1.391841	0.283469	0.247955
C368	C	1.641841	0.533469	0.497955
C369	C	0.949955	-0.216539	-0.252060
C370	C	1.199955	0.033461	-0.002060
C371	C	1.449955	0.283461	0.247940
C372	C	1.699955	0.533461	0.497940
C373	C	0.755485	-0.216505	-0.388382
C374	C	1.005485	0.033495	-0.138382
C375	C	1.255485	0.283495	0.111618
C376	C	1.505485	0.533495	0.361618
C377	C	0.755492	-0.216502	-0.446496
C378	C	1.005492	0.033498	-0.196496
C379	C	1.255492	0.283498	0.053504
C380	C	1.505492	0.533498	0.303504
C381	C	0.755577	-0.099335	-0.252047
C382	C	1.005577	0.150665	-0.002047
C383	C	1.255577	0.400665	0.247953
C384	C	1.505577	0.650665	0.497953
C385	C	0.755624	-0.049400	-0.252063
C386	C	1.005624	0.200600	-0.002063
C387	C	1.255624	0.450600	0.247937
C388	C	1.505624	0.700600	0.497937
C389	C	0.789002	-0.187687	-0.806883
C390	C	1.039002	0.062313	-0.556883
C391	C	1.289002	0.312313	-0.306883
C392	C	1.539002	0.562313	-0.056883
C393	C	0.789008	-0.187675	-0.861488
C394	C	1.039008	0.062325	-0.611488
C395	C	1.289008	0.312325	-0.361488
C396	C	1.539008	0.562325	-0.111488
O397	O	0.817457	-0.163229	-0.889744
O398	O	1.067457	0.086771	-0.639744
O399	O	1.317457	0.336771	-0.389744
O400	O	1.567457	0.586771	-0.139744
N401	N	0.755550	-0.216396	-0.888779
N402	N	1.005550	0.033604	-0.638779
N403	N	1.255550	0.283604	-0.388779
N404	N	1.505550	0.533604	-0.138779
C405	C	0.722079	-0.245129	-0.861463
C406	C	0.972079	0.004871	-0.611463
C407	C	1.222079	0.254871	-0.361463
C408	C	1.472079	0.504871	-0.111463
O409	O	0.693621	-0.269558	-0.889691
O410	O	0.943621	-0.019558	-0.639691
O411	O	1.193621	0.230442	-0.389691
O412	O	1.443621	0.480442	-0.139691
C413	C	0.722071	-0.245139	-0.806860
C414	C	0.972071	0.004861	-0.556860
C415	C	1.222071	0.254861	-0.306860
C416	C	1.472071	0.504861	-0.056860
C417	C	0.755535	-0.216419	-0.779571
C418	C	1.005535	0.033581	-0.529571
C419	C	1.255535	0.283581	-0.279571
C420	C	1.505535	0.533581	-0.029571
C421	C	0.822463	-0.158969	-0.779594
C422	C	1.072463	0.091031	-0.529594
C423	C	1.322463	0.341031	-0.279594
C424	C	1.572463	0.591031	-0.029594
C425	C	0.822457	-0.158982	-0.724994
C426	C	1.072457	0.091018	-0.474994
C427	C	1.322457	0.341018	-0.224994
C428	C	1.572457	0.591018	0.025006
C429	C	0.788990	-0.187714	-0.697682
C430	C	1.038990	0.062286	-0.447682
C431	C	1.288990	0.312286	-0.197682
C432	C	1.538990	0.562286	0.052318
C433	C	0.755529	-0.216432	-0.724971
C434	C	1.005529	0.033568	-0.474971
C435	C	1.255529	0.283568	-0.224971
C436	C	1.505529	0.533568	0.025029
C437	C	0.688598	-0.273869	-0.779545
C438	C	0.938598	-0.023869	-0.529545
C439	C	1.188598	0.226131	-0.279545
C440	C	1.438598	0.476131	-0.029545
C441	C	0.688592	-0.273876	-0.724938
C442	C	0.938592	-0.023876	-0.474938
C443	C	1.188592	0.226124	-0.224938
C444	C	1.438592	0.476124	0.025062
C445	C	0.722056	-0.245156	-0.697650
C446	C	0.972056	0.004844	-0.447650
C447	C	1.222056	0.254844	-0.197650
C448	C	1.472056	0.504844	0.052350
C449	C	0.722056	-0.245176	-0.643058
C450	C	0.972056	0.004824	-0.393058
C451	C	1.222056	0.254824	-0.143058
C452	C	1.472056	0.504824	0.106942
N453	N	0.755514	-0.216455	-0.615767
N454	N	1.005514	0.033545	-0.365767
N455	N	1.255514	0.283545	-0.115767
N456	N	1.505514	0.533545	0.134233
C457	C	0.788981	-0.187723	-0.643079
C458	C	1.038981	0.062277	-0.393079
C459	C	1.288981	0.312277	-0.143079
C460	C	1.538981	0.562277	0.106921
C461	C	0.722100	-0.245106	-0.976134
C462	C	0.972100	0.004894	-0.726134
C463	C	1.222100	0.254894	-0.476134
C464	C	1.472100	0.504894	-0.226134
C465	C	0.722110	-0.245099	-1.030736
C466	C	0.972110	0.004901	-0.780736
C467	C	1.222110	0.254901	-0.530736
C468	C	1.472110	0.504901	-0.280736
C469	C	0.789039	-0.187644	-1.030757
C470	C	1.039039	0.062356	-0.780757
C471	C	1.289039	0.312356	-0.530757
C472	C	1.539039	0.562356	-0.280757
C473	C	0.789030	-0.187653	-0.976153
C474	C	1.039030	0.062347	-0.726153
C475	C	1.289030	0.312347	-0.476153
C476	C	1.539030	0.562347	-0.226153
C477	C	0.755558	-0.216384	-0.948843
C478	C	1.005558	0.033616	-0.698843
C479	C	1.255558	0.283616	-0.448843
C480	C	1.505558	0.533616	-0.198843
C481	C	0.788967	-0.187753	-0.528414
C482	C	1.038967	0.062247	-0.278414
C483	C	1.288967	0.312247	-0.028414
C484	C	1.538967	0.562247	0.221586
C485	C	0.788959	-0.187770	-0.473808
C486	C	1.038959	0.062230	-0.223808
C487	C	1.288959	0.312230	0.026192
C488	C	1.538959	0.562230	0.276192
C489	C	0.722029	-0.245223	-0.473793
C490	C	0.972029	0.004777	-0.223793
C491	C	1.222029	0.254777	0.026207
C492	C	1.472029	0.504777	0.276207
C493	C	0.722038	-0.245208	-0.528393
C494	C	0.972038	0.004792	-0.278393
C495	C	1.222038	0.254792	-0.028393
C496	C	1.472038	0.504792	0.221607
C497	C	0.755509	-0.216470	-0.555702
C498	C	1.005509	0.033530	-0.305702
C499	C	1.255509	0.283530	-0.055702
C500	C	1.505509	0.533530	0.194298
O501	O	0.693620	-0.269609	-0.614767
O502	O	0.943620	-0.019609	-0.364767
O503	O	1.193620	0.230391	-0.114767
O504	O	1.443620	0.480391	0.135233
O505	O	0.817430	-0.163295	-0.614845
O506	O	1.067430	0.086705	-0.364845
O507	O	1.317430	0.336705	-0.114845
O508	O	1.567430	0.586705	0.135155
C509	C	0.755482	-0.216488	-0.116167
C510	C	1.005482	0.033512	0.133833
C511	C	1.255482	0.283512	0.383833
C512	C	1.505482	0.533512	0.633833
C513	C	0.755576	-0.216365	-0.058053
C514	C	1.005576	0.033635	0.191947
C515	C	1.255576	0.283635	0.441947
C516	C	1.505576	0.533635	0.691947
H517	H	0.457384	-0.268709	-0.312552
H518	H	0.707384	-0.018709	-0.062552
H519	H	0.957384	0.231291	0.187448
H520	H	1.207384	0.481291	0.437448
C521	C	0.651782	-0.305458	-0.809551
C522	C	0.901782	-0.055458	-0.559551
C523	C	1.151782	0.194542	-0.309551
C524	C	1.401782	0.444542	-0.059551
H525	H	0.631847	-0.322563	-0.785457
H526	H	0.881847	-0.072563	-0.535457
H527	H	1.131847	0.177437	-0.285457
H528	H	1.381847	0.427437	-0.035457
H529	H	0.671757	-0.325035	-0.830857
H530	H	0.921757	-0.075035	-0.580857
H531	H	1.171757	0.174965	-0.330857
H532	H	1.421757	0.424965	-0.080857
H533	H	0.629017	-0.288260	-0.830844
H534	H	0.879017	-0.038260	-0.580844
H535	H	1.129017	0.211740	-0.330844
H536	H	1.379017	0.461740	-0.080844
C537	C	0.313081	-0.127304	-0.148562
C538	C	0.563081	0.122696	0.101438
C539	C	0.813081	0.372696	0.351438
C540	C	1.063081	0.622696	0.601438
H541	H	0.349511	-0.131418	-0.153337
H542	H	0.599511	0.118582	0.096663
H543	H	0.849511	0.368582	0.346663
H544	H	1.099511	0.618582	0.596663
H545	H	0.304107	-0.133832	-0.113420
H546	H	0.554107	0.116168	0.136580
H547	H	0.804107	0.366168	0.386580
H548	H	1.054107	0.616168	0.636580
H549	H	0.304155	-0.097128	-0.156286
H550	H	0.554155	0.152872	0.093714
H551	H	0.804155	0.402872	0.343714
H552	H	1.054155	0.652872	0.593714
C553	C	0.685356	-1.051772	-0.322206
C554	C	0.935356	-0.801772	-0.072206
C555	C	1.185356	-0.551772	0.177794
C556	C	1.435356	-0.301772	0.427794
H557	H	0.665428	-1.031086	-0.342098
H558	H	0.915428	-0.781086	-0.092098
H559	H	1.165428	-0.531086	0.157902
H560	H	1.415428	-0.281086	0.407902
H561	H	0.662593	-1.070101	-0.302187
H562	H	0.912593	-0.820101	-0.052187
H563	H	1.162593	-0.570101	0.197813
H564	H	1.412593	-0.320101	0.447813
H565	H	0.705350	-1.070049	-0.345013
H566	H	0.955350	-0.820049	-0.095013
H567	H	1.205350	-0.570049	0.154987
H568	H	1.455350	-0.320049	0.404987
C569	C	0.825854	-0.156040	-1.060807
C570	C	1.075854	0.093960	-0.810807
C571	C	1.325854	0.343960	-0.560807
C572	C	1.575854	0.593960	-0.310807
H573	H	0.821061	-0.160148	-1.097234
H574	H	1.071061	0.089852	-0.847234
H575	H	1.321061	0.339852	-0.597234
H576	H	1.571061	0.589852	-0.347234
H577	H	0.860976	-0.162622	-1.051867
H578	H	1.110976	0.087378	-0.801867
H579	H	1.360976	0.337378	-0.551867
H580	H	1.610976	0.587378	-0.301867
H581	H	0.818228	-0.125853	-1.051864
H582	H	1.068228	0.124147	-0.801864
H583	H	1.318228	0.374147	-0.551864
H584	H	1.568228	0.624147	-0.301864
C585	C	0.564245	-0.156073	-0.181886
C586	C	0.814245	0.093927	0.068114
C587	C	1.064245	0.343927	0.318114
C588	C	1.314245	0.593927	0.568114
H589	H	0.600673	-0.160191	-0.186668
H590	H	0.850673	0.089809	0.063332
H591	H	1.100673	0.339809	0.313332
H592	H	1.350673	0.589809	0.563332
H593	H	0.555278	-0.162597	-0.146741
H594	H	0.805278	0.087403	0.103259
H595	H	1.055278	0.337403	0.353259
H596	H	1.305278	0.587403	0.603259
H597	H	0.555321	-0.125897	-0.189611
H598	H	0.805321	0.124103	0.060389
H599	H	1.055321	0.374103	0.310389
H600	H	1.305321	0.624103	0.560389
H601	H	0.556434	-0.268707	-0.312526
H602	H	0.806434	-0.018707	-0.062526
H603	H	1.056434	0.231293	0.187474
H604	H	1.306434	0.481293	0.437474
H605	H	0.849691	-0.744058	-0.158032
H606	H	1.099691	-0.494058	0.091968
H607	H	1.349691	-0.244058	0.341968
H608	H	1.599691	0.005942	0.591968
C609	C	0.449575	-0.156079	-0.181899
C610	C	0.699575	0.093921	0.068101
C611	C	0.949575	0.343921	0.318101
C612	C	1.199575	0.593921	0.568101
H613	H	0.473658	-0.138941	-0.162021
H614	H	0.723658	0.111059	0.087979
H615	H	0.973658	0.361059	0.337979
H616	H	1.223658	0.611059	0.587979
H617	H	0.428246	-0.173233	-0.159085
H618	H	0.678246	0.076767	0.090915
H619	H	0.928246	0.326767	0.340915
H620	H	1.178246	0.576767	0.590915
H621	H	0.428304	-0.136528	-0.201950
H622	H	0.678304	0.113472	0.048050
H623	H	0.928304	0.363472	0.298050
H624	H	1.178304	0.613472	0.548050
C625	C	0.685303	-0.276694	-1.060748
C626	C	0.935303	-0.026694	-0.810748
C627	C	1.185303	0.223306	-0.560748
C628	C	1.435303	0.473306	-0.310748
H629	H	0.665370	-0.293803	-1.036657
H630	H	0.915370	-0.043803	-0.786657
H631	H	1.165370	0.206197	-0.536657
H632	H	1.415370	0.456197	-0.286657
H633	H	0.705285	-0.296267	-1.082054
H634	H	0.955285	-0.046267	-0.832054
H635	H	1.205285	0.203733	-0.582054
H636	H	1.455285	0.453733	-0.332054
H637	H	0.662537	-0.259499	-1.082042
H638	H	0.912537	-0.009499	-0.832042
H639	H	1.162537	0.240501	-0.582042
H640	H	1.412537	0.490501	-0.332042
H641	H	0.694794	-0.268599	-0.550613
H642	H	0.944794	-0.018599	-0.300613
H643	H	1.194794	0.231401	-0.050613
H644	H	1.444794	0.481401	0.199387
H645	H	0.849637	-0.603311	-0.158013
H646	H	1.099637	-0.353311	0.091987
H647	H	1.349637	-0.103311	0.341987
H648	H	1.599637	0.146689	0.591987
H649	H	-0.044960	-0.164338	-0.191499
H650	H	0.205040	0.085662	0.058501
H651	H	0.455040	0.335662	0.308501
H652	H	0.705040	0.585662	0.558501
C653	C	0.685234	-0.276840	-0.443745
C654	C	0.935234	-0.026840	-0.193745
C655	C	1.185234	0.223160	0.056255
C656	C	1.435234	0.473160	0.306255
H657	H	0.665311	-0.293951	-0.467815
H658	H	0.915311	-0.043951	-0.217815
H659	H	1.165311	0.206049	0.032185
H660	H	1.415311	0.456049	0.282185
H661	H	0.662464	-0.259667	-0.422431
H662	H	0.912464	-0.009667	-0.172431
H663	H	1.162464	0.240333	0.077569
H664	H	1.412464	0.490333	0.327569
H665	H	0.705233	-0.296419	-0.422456
H666	H	0.955233	-0.046419	-0.172456
H667	H	1.205233	0.203581	0.077544
H668	H	1.455233	0.453581	0.327544
C669	C	0.651784	-0.305492	-0.694899
C670	C	0.901784	-0.055492	-0.444899
C671	C	1.151784	0.194508	-0.194899
C672	C	1.401784	0.444508	0.055101
H673	H	0.631864	-0.322598	-0.718975
H674	H	0.881864	-0.072598	-0.468975
H675	H	1.131864	0.177402	-0.218975
H676	H	1.381864	0.427402	0.031025
H677	H	0.629013	-0.288319	-0.673587
H678	H	0.879013	-0.038319	-0.423587
H679	H	1.129013	0.211681	-0.173587
H680	H	1.379013	0.461681	0.076413
H681	H	0.671776	-0.325074	-0.673610
H682	H	0.921776	-0.075074	-0.423610
H683	H	1.171776	0.174926	-0.173610
H684	H	1.421776	0.424926	0.076390
C685	C	0.825787	-0.156145	-0.558446
C686	C	1.075787	0.093855	-0.308446
C687	C	1.325787	0.343855	-0.058446
C688	C	1.575787	0.593855	0.191554
H689	H	0.845716	-0.139049	-0.534367
H690	H	1.095716	0.110951	-0.284367
H691	H	1.345716	0.360951	-0.034367
H692	H	1.595716	0.610951	0.215633
H693	H	0.805814	-0.136560	-0.579745
H694	H	1.055814	0.113440	-0.329745
H695	H	1.305814	0.363440	-0.079745
H696	H	1.555814	0.613440	0.170255
H697	H	0.848558	-0.173332	-0.579749
H698	H	1.098558	0.076668	-0.329749
H699	H	1.348558	0.326668	-0.079749
H700	H	1.598558	0.576668	0.170251
H701	H	0.816330	-1.045021	-0.191464
H702	H	1.066330	-0.795021	0.058536
H703	H	1.316330	-0.545021	0.308536
H704	H	1.566330	-0.295021	0.558536
H705	H	0.305256	-0.297494	-0.345945
H706	H	0.555256	-0.047494	-0.095945
H707	H	0.805256	0.202506	0.154055
H708	H	1.055256	0.452506	0.404055
H709	H	0.816212	-0.164382	-0.451592
H710	H	1.066212	0.085618	-0.201592
H711	H	1.316212	0.335618	0.048408
H712	H	1.566212	0.585618	0.298408
H713	H	0.661390	-0.829250	-0.346045
H714	H	0.911390	-0.579250	-0.096045
H715	H	1.161390	-0.329250	0.153955
H716	H	1.411390	-0.079250	0.403955
C717	C	0.198407	-0.305720	-0.355496
C718	C	0.448407	-0.055720	-0.105496
C719	C	0.698407	0.194280	0.144504
C720	C	0.948407	0.444280	0.394504
H721	H	0.161976	-0.301606	-0.350728
H722	H	0.411976	-0.051606	-0.100728
H723	H	0.661976	0.198394	0.149272
H724	H	0.911976	0.448394	0.399272
H725	H	0.207339	-0.335893	-0.347776
H726	H	0.457339	-0.085893	-0.097776
H727	H	0.707339	0.164107	0.152224
H728	H	0.957339	0.414107	0.402224
H729	H	0.207380	-0.299187	-0.390640
H730	H	0.457380	-0.049187	-0.140640
H731	H	0.707380	0.200813	0.109360
H732	H	0.957380	0.450813	0.359360
C733	C	-0.052778	-0.276961	-0.322155
C734	C	0.197222	-0.026961	-0.072155
C735	C	0.447222	0.223039	0.177845
C736	C	0.697222	0.473039	0.427845
H737	H	-0.089206	-0.272837	-0.317380
H738	H	0.160794	-0.022837	-0.067380
H739	H	0.410794	0.227163	0.182620
H740	H	0.660794	0.477163	0.432620
H741	H	-0.043857	-0.307137	-0.314443
H742	H	0.206143	-0.057137	-0.064443
H743	H	0.456143	0.192863	0.185557
H744	H	0.706143	0.442863	0.435557
H745	H	-0.043808	-0.270425	-0.357299
H746	H	0.206192	-0.020425	-0.107299
H747	H	0.456192	0.229575	0.142701
H748	H	0.706192	0.479575	0.392701
C749	C	0.061888	-0.276957	-0.322142
C750	C	0.311888	-0.026957	-0.072142
C751	C	0.561888	0.223043	0.177858
C752	C	0.811888	0.473043	0.427858
H753	H	0.037803	-0.294092	-0.342022
H754	H	0.287803	-0.044092	-0.092022
H755	H	0.537803	0.205908	0.157978
H756	H	0.787803	0.455908	0.407978
H757	H	0.083169	-0.296505	-0.302102
H758	H	0.333169	-0.046505	-0.052102
H759	H	0.583169	0.203495	0.197898
H760	H	0.833169	0.453495	0.447898
H761	H	0.083208	-0.259796	-0.344961
H762	H	0.333208	-0.009796	-0.094961
H763	H	0.583208	0.240204	0.155039
H764	H	0.833208	0.490204	0.405039
H765	H	0.849719	-0.829176	-0.158047
H766	H	1.099719	-0.579176	0.091953
H767	H	1.349719	-0.329176	0.341953
H768	H	1.599719	-0.079176	0.591953
H769	H	0.849671	-0.688417	-0.158025
H770	H	1.099671	-0.438417	0.091975
H771	H	1.349671	-0.188417	0.341975
H772	H	1.599671	0.061583	0.591975
C773	C	0.825650	-0.380796	-0.181844
C774	C	1.075650	-0.130796	0.068156
C775	C	1.325650	0.119204	0.318156
C776	C	1.575650	0.369204	0.568156
H777	H	0.845588	-0.401480	-0.161960
H778	H	1.095588	-0.151480	0.088040
H779	H	1.345588	0.098520	0.338040
H780	H	1.595588	0.348520	0.588040
H781	H	0.805661	-0.362518	-0.159038
H782	H	1.055661	-0.112518	0.090962
H783	H	1.305661	0.137482	0.340962
H784	H	1.555661	0.387482	0.590962
H785	H	0.848412	-0.362467	-0.201870
H786	H	1.098412	-0.112467	0.048130
H787	H	1.348412	0.137533	0.298130
H788	H	1.598412	0.387533	0.548130
H789	H	0.816133	-0.472612	-0.191400
H790	H	1.066133	-0.222612	0.058600
H791	H	1.316133	0.027388	0.308600
H792	H	1.566133	0.277388	0.558600
H793	H	0.661361	-0.744143	-0.346035
H794	H	0.911361	-0.494143	-0.096035
H795	H	1.161361	-0.244143	0.153965
H796	H	1.411361	0.005857	0.403965
C797	C	0.825862	-0.953191	-0.181908
C798	C	1.075862	-0.703191	0.068092
C799	C	1.325862	-0.453191	0.318092
C800	C	1.575862	-0.203191	0.568092
H801	H	0.845796	-0.973877	-0.162022
H802	H	1.095796	-0.723877	0.087978
H803	H	1.345796	-0.473877	0.337978
H804	H	1.595796	-0.223877	0.587978
H805	H	0.805875	-0.934910	-0.159103
H806	H	1.055875	-0.684910	0.090897
H807	H	1.305875	-0.434910	0.340897
H808	H	1.555875	-0.184910	0.590897
H809	H	0.848628	-0.934866	-0.201934
H810	H	1.098628	-0.684866	0.048066
H811	H	1.348628	-0.434866	0.298066
H812	H	1.598628	-0.184866	0.548066
C813	C	0.685320	-0.953259	-0.322197
C814	C	0.935320	-0.703259	-0.072197
C815	C	1.185320	-0.453259	0.177803
C816	C	1.435320	-0.203259	0.427803
H817	H	0.665397	-0.973963	-0.342083
H818	H	0.915397	-0.723963	-0.092083
H819	H	1.165397	-0.473963	0.157917
H820	H	1.415397	-0.223963	0.407917
H821	H	0.705291	-0.934931	-0.345002
H822	H	0.955291	-0.684931	-0.095002
H823	H	1.205291	-0.434931	0.154998
H824	H	1.455291	-0.184931	0.404998
H825	H	0.662544	-0.934984	-0.302166
H826	H	0.912544	-0.684984	-0.052166
H827	H	1.162544	-0.434984	0.197834
H828	H	1.412544	-0.184984	0.447834
C829	C	0.651786	-0.695201	-0.355589
C830	C	0.901786	-0.445201	-0.105589
C831	C	1.151786	-0.195201	0.144411
C832	C	1.401786	0.054799	0.394411
H833	H	0.631861	-0.674513	-0.375481
H834	H	0.881861	-0.424513	-0.125481
H835	H	1.131861	-0.174513	0.124519
H836	H	1.381861	0.075487	0.374519
H837	H	0.629020	-0.713531	-0.335575
H838	H	0.879020	-0.463531	-0.085575
H839	H	1.129020	-0.213531	0.164425
H840	H	1.379020	0.036469	0.414425
H841	H	0.671782	-0.713476	-0.378396
H842	H	0.921782	-0.463476	-0.128396
H843	H	1.171782	-0.213476	0.121604
H844	H	1.421782	0.036524	0.371604
H845	H	0.054089	-0.164324	-0.191493
H846	H	0.304089	0.085676	0.058507
H847	H	0.554089	0.335676	0.308507
H848	H	0.804089	0.585676	0.558507
C849	C	0.859263	-0.127385	-0.694983
C850	C	1.109263	0.122615	-0.444983
C851	C	1.359263	0.372615	-0.194983
C852	C	1.609263	0.622615	0.055017
H853	H	0.879189	-0.110271	-0.719076
H854	H	1.129189	0.139729	-0.469076
H855	H	1.379189	0.389729	-0.219076
H856	H	1.629189	0.639729	0.030924
H857	H	0.882028	-0.144573	-0.673684
H858	H	1.132028	0.105427	-0.423684
H859	H	1.382028	0.355427	-0.173684
H860	H	1.632028	0.605427	0.076316
H861	H	0.839274	-0.107809	-0.673683
H862	H	1.089274	0.142191	-0.423683
H863	H	1.339274	0.392191	-0.173683
H864	H	1.589274	0.642191	0.076317
H865	H	0.206226	-0.135532	-0.158104
H866	H	0.456226	0.114468	0.091896
H867	H	0.706226	0.364468	0.341896
H868	H	0.956226	0.614468	0.591896
H869	H	0.694712	-0.472677	-0.312605
H870	H	0.944712	-0.222677	-0.062605
H871	H	1.194712	0.027323	0.187395
H872	H	1.444712	0.277323	0.437395
H873	H	0.694677	-0.387554	-0.312587
H874	H	0.944677	-0.137554	-0.062587
H875	H	1.194677	0.112446	0.187413
H876	H	1.444677	0.362446	0.437413
C877	C	0.651754	-0.596687	-0.355574
C878	C	0.901754	-0.346687	-0.105574
C879	C	1.151754	-0.096687	0.144426
C880	C	1.401754	0.153313	0.394426
H881	H	0.631834	-0.617388	-0.375467
H882	H	0.881834	-0.367388	-0.125467
H883	H	1.131834	-0.117388	0.124533
H884	H	1.381834	0.132612	0.374533
H885	H	0.671733	-0.578359	-0.378373
H886	H	0.921733	-0.328359	-0.128373
H887	H	1.171733	-0.078359	0.121627
H888	H	1.421733	0.171641	0.371627
H889	H	0.628975	-0.578411	-0.335547
H890	H	0.878975	-0.328411	-0.085547
H891	H	1.128975	-0.078411	0.164453
H892	H	1.378975	0.171589	0.414453
C893	C	0.859283	-0.127364	-0.809629
C894	C	1.109283	0.122636	-0.559629
C895	C	1.359283	0.372636	-0.309629
C896	C	1.609283	0.622636	-0.059629
H897	H	0.879209	-0.110268	-0.785549
H898	H	1.129209	0.139732	-0.535549
H899	H	1.379209	0.389732	-0.285549
H900	H	1.629209	0.639732	-0.035549
H901	H	0.839313	-0.107779	-0.830931
H902	H	1.089313	0.142221	-0.580931
H903	H	1.339313	0.392221	-0.330931
H904	H	1.589313	0.642221	-0.080931
H905	H	0.882055	-0.144552	-0.830929
H906	H	1.132055	0.105448	-0.580929
H907	H	1.382055	0.355448	-0.330929
H908	H	1.632055	0.605448	-0.080929
C909	C	0.825835	-0.156057	-0.946141
C910	C	1.075835	0.093943	-0.696141
C911	C	1.325835	0.343943	-0.446141
C912	C	1.575835	0.593943	-0.196141
H913	H	0.845763	-0.138943	-0.970232
H914	H	1.095763	0.111057	-0.720232
H915	H	1.345763	0.361057	-0.470232
H916	H	1.595763	0.611057	-0.220232
H917	H	0.848598	-0.173244	-0.924839
H918	H	1.098598	0.076756	-0.674839
H919	H	1.348598	0.326756	-0.424839
H920	H	1.598598	0.576756	-0.174839
H921	H	0.805845	-0.136480	-0.924842
H922	H	1.055845	0.113520	-0.674842
H923	H	1.305845	0.363520	-0.424842
H924	H	1.555845	0.613520	-0.174842
C925	C	0.685289	-0.276722	-0.946097
C926	C	0.935289	-0.026722	-0.696097
C927	C	1.185289	0.223278	-0.446097
C928	C	1.435289	0.473278	-0.196097
H929	H	0.665371	-0.293828	-0.970174
H930	H	0.915371	-0.043828	-0.720174
H931	H	1.165371	0.206172	-0.470174
H932	H	1.415371	0.456172	-0.220174
H933	H	0.662516	-0.259546	-0.924789
H934	H	0.912516	-0.009546	-0.674789
H935	H	1.162516	0.240454	-0.424789
H936	H	1.412516	0.490454	-0.174789
H937	H	0.705276	-0.296304	-0.924803
H938	H	0.955276	-0.046304	-0.674803
H939	H	1.205276	0.203696	-0.424803
H940	H	1.455276	0.453696	-0.174803
