data_functionalizedCrystal
_audit_creation_method	'MofGen! by Chris Wilmer'
_symmetry_space_group_name_H-M	'P1'
_symmetry_Int_Tables_number	1
_symmetry_cell_setting	triclinic
loop_
_symmetry_equiv_pos_as_xyz
  x,y,z
_cell_length_a	20.875790
_cell_length_b	18.760492
_cell_length_c	20.875641
_cell_angle_alpha	90.001152
_cell_angle_beta	64.262324
_cell_angle_gamma	61.733507
loop_
_atom_site_label
_atom_site_type_symbol
_atom_site_fract_x
_atom_site_fract_y
_atom_site_fract_z
Zr1	Zr	0.664167	0.726813	-0.047960
O2	O	0.784927	0.623714	-0.140716
O3	O	0.538612	0.753512	-0.023955
O4	O	0.657248	0.765347	-0.147103
O5	O	0.673421	0.608124	0.084611
O6	O	0.657244	0.882652	-0.147101
O7	O	0.666291	0.611878	-0.017569
O8	O	0.445026	0.861480	0.073186
O9	O	0.885639	0.629295	-0.135677
O10	O	0.592028	0.858370	-0.008365
O11	O	0.597351	0.768025	0.067890
O12	O	0.737030	0.781960	-0.077100
O13	O	0.742353	0.691615	-0.000845
Zr14	Zr	0.675532	0.907913	0.115006
Zr15	Zr	0.664161	0.913900	-0.047958
Zr16	Zr	0.675538	0.720825	0.115005
Zr17	Zr	0.824791	0.735715	-0.039924
Zr18	Zr	0.514908	0.899011	0.106970
O19	O	0.801087	0.881214	0.091001
O20	O	0.784919	0.889728	-0.140713
O21	O	0.801095	0.615200	0.090999
O22	O	0.554772	1.011012	0.207762
O23	O	0.538604	1.019526	-0.023953
O24	O	0.554780	0.744998	0.207759
O25	O	0.666278	1.026602	-0.017565
O26	O	0.682451	0.869379	0.214149
O27	O	0.682455	0.752074	0.214147
O28	O	0.673408	1.022848	0.084615
O29	O	0.885634	0.778005	-0.135676
O30	O	0.454065	0.856721	0.202722
O31	O	0.454060	1.005430	0.202723
O32	O	0.445022	1.010190	0.073188
O33	O	0.894677	0.624536	-0.006142
O34	O	0.894673	0.773246	-0.006140
O35	O	0.602669	0.852766	0.144146
O36	O	0.597346	0.943111	0.067891
O37	O	0.742348	0.866701	-0.000844
O38	O	0.747672	0.776356	0.075411
C39	C	0.669857	0.583345	0.033521
C40	C	0.669859	0.503922	0.033520
C41	C	0.468933	0.806228	0.023471
C42	C	0.400744	0.802448	0.020059
C43	C	0.673790	0.464539	0.089813
C44	C	0.665924	0.468679	-0.022771
C45	C	0.665921	0.394059	-0.022771
C46	C	0.669852	0.354676	0.033522
C47	C	0.673785	0.389913	0.089816
C48	C	0.661980	0.358820	-0.079060
C49	C	0.661977	0.284196	-0.079062
C50	C	0.665913	0.244809	-0.022771
C51	C	0.669847	0.280050	0.033524
C52	C	0.673778	0.240667	0.089817
C53	C	0.677718	0.275904	0.146111
C54	C	0.677721	0.350526	0.146107
C55	C	0.665910	0.170187	-0.022767
C56	C	0.673773	0.166041	0.089820
C57	C	0.317146	0.860138	0.071968
C58	C	0.253094	0.856549	0.068758
C59	C	0.272642	0.795274	0.013635
C60	C	0.356249	0.737578	-0.038276
C61	C	0.420300	0.741164	-0.035063
C62	C	0.086612	0.778168	-0.001711
C63	C	0.022553	0.774588	-0.004922
C64	C	-0.080598	0.893558	0.102114
C65	C	-0.016542	0.897142	0.105320
C66	C	0.067060	0.839444	0.053410
N67	N	0.207172	0.791606	0.010352
N68	N	0.132529	0.843109	0.056698
C69	C	0.870766	0.828498	0.043576
C70	C	0.938955	0.832278	0.046987
C71	C	0.655626	0.824852	-0.170321
C72	C	0.650798	0.827394	-0.239504
C73	C	0.669843	1.051381	0.033525
C74	C	0.669840	1.130804	0.033526
C75	C	0.724218	0.788705	-0.307885
C76	C	0.719677	0.791104	-0.372887
C77	C	0.641716	0.832188	-0.369507
C78	C	0.568291	0.870883	-0.301118
C79	C	0.572832	0.868488	-0.236117
C80	C	0.620017	0.843632	-0.560061
C81	C	0.615481	0.846021	-0.625069
C82	C	0.766868	0.766243	-0.696834
C83	C	0.771403	0.763848	-0.631829
C84	C	0.697978	0.802546	-0.563446
N85	N	0.637073	0.834639	-0.435948
N86	N	0.702622	0.800100	-0.497006
C87	C	0.684073	0.809873	0.237367
C88	C	0.688901	0.807332	0.306550
C89	C	0.468926	1.040245	0.023473
C90	C	0.400735	1.115890	0.020062
C91	C	0.483157	0.798738	0.227314
C92	C	0.419795	0.792417	0.293086
C93	C	0.483150	1.032756	0.227317
C94	C	0.419786	1.105858	0.293088
C95	C	0.856549	0.601970	-0.160271
C96	C	0.919913	0.528868	-0.226042
C97	C	0.870773	0.594481	0.043573
C98	C	0.938964	0.518836	0.046984
C99	C	0.856542	0.835988	-0.160268
C100	C	0.919904	0.842309	-0.226040
C101	C	0.365935	1.107179	-0.021352
C102	C	0.301870	1.178249	-0.024572
C103	C	0.272601	1.258028	0.013627
C104	C	0.307408	1.266737	0.055042
C105	C	0.371476	1.195668	0.058257
C106	C	0.392817	0.833682	0.363784
C107	C	0.333291	0.827740	0.425590
C108	C	0.300741	0.780537	0.416695
C109	C	0.327725	0.739266	0.345989
C110	C	0.387254	0.745204	0.284185
C111	C	0.387251	1.187355	0.284171
C112	C	0.327722	1.256050	0.345965
C113	C	0.300725	1.243247	0.416675
C114	C	0.333267	1.161742	0.425591
C115	C	0.392799	1.093049	0.363798
C116	C	0.952456	0.447372	-0.217125
C117	C	1.012005	0.378677	-0.278918
C118	C	1.039005	0.391481	-0.349627
C119	C	1.006459	0.472986	-0.358544
C120	C	0.946916	0.541678	-0.296751
C121	C	0.973770	0.527547	0.088392
C122	C	1.037852	0.456479	0.091594
C123	C	1.067122	0.376701	0.053394
C124	C	1.032313	0.367991	0.011981
C125	C	0.968237	0.439059	0.008775
C126	C	0.952435	0.889519	-0.217121
C127	C	1.011962	0.895475	-0.278914
C128	C	1.038961	0.854215	-0.349625
C129	C	1.006423	0.807003	-0.358542
C130	C	0.946893	0.801053	-0.296750
H131	H	0.680913	0.243833	0.191948
N132	N	0.923347	0.433555	-0.140862
H133	H	0.861038	0.457851	-0.115334
H134	H	0.953064	0.371491	-0.144658
H135	H	0.787703	0.755243	-0.310647
H136	H	0.311327	0.861351	0.483156
N137	N	0.236533	0.774137	0.483358
H138	H	0.224384	0.807447	0.529493
H139	H	0.183407	0.797185	0.480668
H140	H	1.038449	0.933918	-0.271639
H141	H	0.939899	0.431954	-0.024941
H142	H	0.419313	0.872120	0.371041
N143	N	0.798851	0.749384	-0.446653
H144	H	0.800324	0.792561	-0.475207
H145	H	0.848898	0.722981	-0.438892
N146	N	1.103226	0.317387	-0.416272
H147	H	1.119739	0.263819	-0.399886
H148	H	1.078701	0.317332	-0.448650
H149	H	1.087435	0.859067	-0.399934
H150	H	0.677001	0.493229	0.135645
H151	H	0.662717	0.500750	-0.068600
H152	H	0.930463	0.923119	-0.159551
H153	H	0.834887	0.730395	-0.634590
H154	H	0.662696	0.141503	-0.068598
H155	H	1.028451	0.483401	-0.416123
N156	N	0.264336	1.168834	-0.069237
H157	H	0.202567	1.192855	-0.035952
H158	H	0.272756	1.199824	-0.108745
N159	N	0.176778	0.715960	-0.057704
H160	H	0.203737	0.746885	-0.085814
H161	H	0.207489	0.682740	-0.031640
N162	N	1.047098	0.290776	-0.269292
H163	H	1.020948	0.293095	-0.215121
H164	H	1.034195	0.258126	-0.295089
H165	H	0.551992	0.879476	-0.622308
N166	N	0.292609	0.688361	0.336401
H167	H	0.250801	0.690872	0.386285
H168	H	0.264059	0.711949	0.306337
H169	H	1.066184	0.463587	0.125319
N170	N	0.416359	0.700646	0.207946
H171	H	0.367053	0.722109	0.199410
H172	H	0.459039	0.711548	0.170166
N173	N	1.136234	0.300052	0.056855
H174	H	1.153836	0.317684	0.088887
H175	H	1.115470	0.262096	0.078376
N176	N	0.416354	1.201176	0.207910
H177	H	0.386704	1.263232	0.211649
H178	H	0.478669	1.176820	0.182418
H179	H	0.283568	1.331702	0.086141
H180	H	0.826647	0.734738	-0.752517
N181	N	1.035547	0.762503	-0.434810
H182	H	1.078198	0.773439	-0.472595
H183	H	1.061673	0.700288	-0.439509
H184	H	0.920412	0.762606	-0.304021
H185	H	0.301219	0.910037	0.116853
H186	H	0.301232	1.322409	0.338692
N187	N	0.657743	0.246187	-0.139783
H188	H	0.658340	0.192936	-0.131244
H189	H	0.604552	0.287260	-0.139965
N190	N	0.162926	0.918775	0.124742
H191	H	0.160261	0.958141	0.160145
H192	H	0.132211	0.951944	0.098663
H193	H	0.399803	1.202772	0.091985
H194	H	0.560229	0.875143	-0.504389
H195	H	0.252250	1.299189	0.466985
N196	N	1.063874	0.281941	-0.029205
H197	H	1.109740	0.238248	-0.020878
H198	H	1.016395	0.271556	-0.010737
N199	N	-0.037627	0.963236	0.164769
H200	H	-0.100308	0.999240	0.197167
H201	H	-0.011400	0.935249	0.195506
H202	H	0.311277	1.151329	0.483171
N203	N	0.681964	0.388531	0.206823
H204	H	0.733611	0.392277	0.184930
H205	H	0.630628	0.446503	0.233713
H206	H	0.920420	0.608034	-0.304021
H207	H	0.419281	1.026692	0.371069
N208	N	0.942209	0.613591	0.129592
H209	H	0.919519	0.617067	0.183947
H210	H	0.989671	0.624004	0.111091
N211	N	0.678019	0.123563	0.150534
H212	H	0.680516	0.157209	0.186191
H213	H	0.626712	0.119643	0.177393
N214	N	0.657749	0.401291	-0.139776
H215	H	0.606109	0.459476	-0.117887
H216	H	0.709093	0.405146	-0.166663
N217	N	-0.170764	0.955787	0.158098
H218	H	-0.208376	0.944221	0.147701
H219	H	-0.180192	0.950318	0.209101
N220	N	0.484206	0.915200	-0.297474
H221	H	0.478948	0.874022	-0.322843
H222	H	0.438432	0.939350	-0.244274
N223	N	0.043638	0.708496	-0.064378
H224	H	0.106318	0.672486	-0.096775
H225	H	0.021201	0.672352	-0.040968
H226	H	0.372161	0.687683	-0.083155
H227	H	0.488371	0.694179	-0.077326
H228	H	0.389763	1.042226	-0.052468
N229	N	0.493645	0.910223	-0.162360
H230	H	0.443567	0.936612	-0.170080
H231	H	0.492230	0.867020	-0.133826
N232	N	0.203500	1.334677	0.010154
H233	H	0.185899	1.317045	-0.021878
H234	H	0.154138	1.365639	0.061426
