data_functionalizedCrystal
_audit_creation_method	'MofGen! by Chris Wilmer'
_symmetry_space_group_name_H-M	'P1'
_symmetry_Int_Tables_number	1
_symmetry_cell_setting	triclinic
loop_
_symmetry_equiv_pos_as_xyz
  x,y,z
_cell_length_a	11.892083
_cell_length_b	14.044202
_cell_length_c	12.837938
_cell_angle_alpha	94.010670
_cell_angle_beta	85.697431
_cell_angle_gamma	94.255389
loop_
_atom_site_label
_atom_site_type_symbol
_atom_site_fract_x
_atom_site_fract_y
_atom_site_fract_z
O1	O	-0.093932	-1.285983	-0.245959
O2	O	0.406068	-0.785983	0.254041
O3	O	-0.093947	-1.009192	-0.236854
O4	O	0.406053	-0.509192	0.263146
O5	O	-0.093940	-1.141450	-0.089936
O6	O	0.406060	-0.641450	0.410064
O7	O	-0.093939	-1.153725	-0.392877
O8	O	0.406061	-0.653725	0.107123
O9	O	0.094067	-1.130412	-0.102157
O10	O	0.594067	-0.630412	0.397843
O11	O	0.094060	-0.998153	-0.249075
O12	O	0.594060	-0.498153	0.250925
O13	O	0.094075	-1.274944	-0.258180
O14	O	0.594075	-0.774944	0.241820
Zn15	Zn	0.123918	-1.134796	-0.255568
Zn16	Zn	0.623918	-0.634796	0.244432
Zn17	Zn	-0.123790	-1.149340	-0.239467
Zn18	Zn	0.376210	-0.649340	0.260533
O19	O	0.094069	-1.142686	-0.405098
O20	O	0.594069	-0.642686	0.094902
C21	C	0.000054	-0.967999	-0.238982
C22	C	0.500054	-0.467999	0.261018
C23	C	0.000048	-0.861700	-0.227104
C24	C	0.500048	-0.361700	0.272896
N25	N	0.292972	-1.124877	-0.266556
N26	N	0.792972	-0.624877	0.233444
C27	C	0.000060	-1.131784	-0.057042
C28	C	0.500060	-0.631784	0.442958
C29	C	0.000052	-1.119418	0.059180
C30	C	0.500052	-0.619418	0.559180
N31	N	-0.292844	-1.159266	-0.228470
N32	N	0.207156	-0.659266	0.271530
C33	C	0.470506	-1.055922	-0.343133
C34	C	0.970506	-0.555922	0.156867
C35	C	0.352165	-1.062837	-0.335435
C36	C	0.852165	-0.562837	0.164565
C37	C	0.352129	-1.180004	-0.205369
C38	C	0.852129	-0.680004	0.294631
C39	C	0.470471	-1.173090	-0.213068
C40	C	0.970471	-0.673090	0.286932
C41	C	0.529655	-1.111048	-0.281954
C42	C	1.029655	-0.611048	0.218046
C43	C	0.647999	-1.104139	-0.289657
C44	C	1.147999	-0.604139	0.210343
C45	C	0.647961	-1.221300	-0.159587
C46	C	1.147961	-0.721300	0.340413
C47	C	0.529620	-1.228215	-0.151888
C48	C	1.029620	-0.728215	0.348112
C49	C	0.000059	-0.617060	-0.289624
C50	C	0.500059	-0.117060	0.210376
C51	C	0.000057	-0.667083	-0.205405
C52	C	0.500057	-0.167083	0.294595
C53	C	0.000052	-0.775378	-0.217481
C54	C	0.500052	-0.275378	0.282519
C55	C	0.000064	-0.508755	-0.277550
C56	C	0.500064	-0.008755	0.222450
C57	C	0.000071	-0.316138	-0.256050
C58	C	0.500071	0.183862	0.243950
C59	C	0.000068	-0.422437	-0.267921
C60	C	0.500068	0.077563	0.232079
C61	C	0.000025	-1.268100	0.286386
C62	C	0.500025	-0.768100	0.786386
C63	C	0.000017	-1.256484	0.395587
C64	C	0.500017	-0.756484	0.895587
C65	C	0.000020	-1.084574	0.386785
C66	C	0.500020	-0.584574	0.886785
C67	C	0.000028	-1.096189	0.277584
C68	C	0.500028	-0.596189	0.777584
C69	C	0.000032	-1.187955	0.227389
C70	C	0.500032	-0.687955	0.727389
C71	C	0.000048	-1.199568	0.118185
C72	C	0.500048	-0.699568	0.618185
C73	C	0.000043	-1.027659	0.109385
C74	C	0.500043	-0.527659	0.609385
C75	C	0.000035	-1.016044	0.218586
C76	C	0.500035	-0.516044	0.718586
C77	C	0.000053	-1.152353	0.562009
C78	C	0.500053	-0.652353	1.062009
C79	C	0.000016	-1.164724	0.445790
C80	C	0.500016	-0.664724	0.945790
H81	H	0.696186	-1.053624	-0.345750
H82	H	1.196186	-0.553624	0.154250
H83	H	-0.000023	-0.628581	-0.124228
H84	H	0.499977	-0.128581	0.375772
H85	H	0.696134	-1.266190	-0.109773
H86	H	1.196134	-0.766190	0.390227
F87	F	0.000050	-0.667389	-0.395714
F88	F	0.500050	-0.167389	0.104286
F89	F	-0.000012	-0.986919	0.440226
F90	F	0.499988	-0.486919	0.940226
F91	F	0.289218	-1.004163	-0.400549
F92	F	0.789218	-0.504163	0.099451
F93	F	0.000060	-1.297232	0.064764
F94	F	0.500060	-0.797232	0.564764
H95	H	0.303926	-1.230510	-0.149277
H96	H	0.803926	-0.730510	0.350723
H97	H	0.000040	-1.342818	0.245516
H98	H	0.500040	-0.842818	0.745516
H99	H	0.000008	-1.321747	0.443620
H100	H	0.500008	-0.821747	0.943620
H101	H	0.000027	-0.941331	0.259471
H102	H	0.500027	-0.441331	0.759471
F103	F	0.533495	-0.989903	-0.416456
F104	F	1.033495	-0.489903	0.083544
H105	H	0.000058	-0.962398	0.061337
H106	H	0.500058	-0.462398	0.561337
H107	H	0.481418	-1.278726	-0.095800
H108	H	0.981418	-0.778726	0.404200
