data_functionalizedCrystal
_audit_creation_method	'MofGen! by Chris Wilmer'
_symmetry_space_group_name_H-M	'P1'
_symmetry_Int_Tables_number	1
_symmetry_cell_setting	triclinic
loop_
_symmetry_equiv_pos_as_xyz
  x,y,z
_cell_length_a	27.732064
_cell_length_b	27.732064
_cell_length_c	26.809956
_cell_angle_alpha	90.008400
_cell_angle_beta	89.998878
_cell_angle_gamma	82.649423
loop_
_atom_site_label
_atom_site_type_symbol
_atom_site_fract_x
_atom_site_fract_y
_atom_site_fract_z
O1	O	0.640929	0.057548	-0.041387
O2	O	1.140929	0.557548	0.458613
O3	O	0.500137	0.066285	-0.041406
O4	O	1.000137	0.566285	0.458594
O5	O	0.574902	-0.008480	-0.041398
O6	O	1.074902	0.491520	0.458602
O7	O	0.566165	0.132312	-0.041395
O8	O	1.066165	0.632312	0.458605
O9	O	0.574888	-0.008468	0.041561
O10	O	1.074888	0.491532	0.541561
O11	O	0.500123	0.066296	0.041553
O12	O	1.000123	0.566296	0.541553
O13	O	0.640915	0.057559	0.041573
O14	O	1.140915	0.557559	0.541573
Zn15	Zn	0.570517	0.061930	0.054734
Zn16	Zn	1.070517	0.561930	0.554734
Zn17	Zn	0.570535	0.061915	-0.054568
Zn18	Zn	1.070535	0.561915	0.445432
O19	O	0.566151	0.132324	0.041564
O20	O	1.066151	0.632324	0.541564
C21	C	0.574710	-0.026481	0.000080
C22	C	1.074710	0.473519	0.500080
C23	C	0.574154	-0.080135	0.000076
C24	C	1.074154	0.419865	0.500076
C25	C	0.482124	0.066106	0.000071
C26	C	0.982124	0.566106	0.500071
C27	C	0.428469	0.065550	0.000063
C28	C	0.928469	0.565550	0.500063
C29	C	0.526187	-0.457211	0.000067
C30	C	1.026187	0.042789	0.500067
C31	C	0.528234	-0.255550	0.000066
C32	C	1.028234	0.244450	0.500066
O33	O	0.491013	-0.224300	0.000041
O34	O	0.991013	0.275700	0.500041
N35	N	0.572567	-0.236420	0.000073
N36	N	1.072567	0.263580	0.500073
C37	C	0.616393	-0.267709	0.000076
C38	C	1.116393	0.232291	0.500076
O39	O	0.654149	-0.246810	0.000076
O40	O	1.154149	0.253190	0.500076
C41	C	0.614346	-0.469368	0.000072
C42	C	1.114346	0.030632	0.500072
C43	C	0.570009	-0.488495	0.000071
C44	C	1.070009	0.011505	0.500071
C45	C	0.481854	-0.476338	0.000065
C46	C	0.981854	0.023662	0.500065
C47	C	0.481343	-0.526750	0.000068
C48	C	0.981343	-0.026750	0.500068
C49	C	0.525165	-0.558035	0.000072
C50	C	1.025165	-0.058035	0.500072
C51	C	0.569498	-0.538907	0.000074
C52	C	1.069498	-0.038907	0.500074
C53	C	0.658171	-0.500656	0.000072
C54	C	1.158171	-0.000656	0.500072
C55	C	0.657656	-0.551073	0.000070
C56	C	1.157656	-0.051073	0.500070
C57	C	0.613319	-0.570200	0.000069
C58	C	1.113319	-0.070200	0.500069
C59	C	0.612809	-0.620604	0.000081
C60	C	1.112809	-0.120604	0.500081
N61	N	0.568475	-0.639734	0.000075
N62	N	1.068475	-0.139734	0.500075
C63	C	0.524653	-0.608450	0.000071
C64	C	1.024653	-0.108450	0.500071
C65	C	0.617464	-0.161834	0.000078
C66	C	1.117464	0.338166	0.500078
C67	C	0.617976	-0.111420	0.000080
C68	C	1.117976	0.388580	0.500080
C69	C	0.529817	-0.099265	0.000070
C70	C	1.029817	0.400735	0.500070
C71	C	0.529305	-0.149680	0.000072
C72	C	1.029305	0.350320	0.500072
C73	C	0.573130	-0.180964	0.000072
C74	C	1.073130	0.319036	0.500072
C75	C	0.523583	-0.714319	0.000077
C76	C	1.023583	-0.214319	0.500077
C77	C	0.523076	-0.764736	0.000082
C78	C	1.023076	-0.264736	0.500082
C79	C	0.611236	-0.776887	0.000089
C80	C	1.111236	-0.276887	0.500089
C81	C	0.611743	-0.726474	0.000087
C82	C	1.111743	-0.226474	0.500087
C83	C	0.567913	-0.695191	0.000079
C84	C	1.067913	-0.195191	0.500079
O85	O	0.650010	-0.651883	0.000101
O86	O	1.150010	-0.151883	0.500101
O87	O	0.486903	-0.629358	0.000060
O88	O	0.986903	-0.129358	0.500060
C89	C	0.526698	-0.406799	0.000064
C90	C	1.026698	0.093201	0.500064
C91	C	0.571032	-0.387671	0.000066
C92	C	1.071032	0.112329	0.500066
C93	C	0.614854	-0.418955	0.000070
C94	C	1.114854	0.081045	0.500070
C95	C	0.571543	-0.337256	0.000067
C96	C	1.071543	0.162744	0.500067
C97	C	0.527721	-0.305972	0.000063
C98	C	1.027721	0.194028	0.500063
C99	C	0.483387	-0.325102	0.000057
C100	C	0.983387	0.174898	0.500057
C101	C	0.482876	-0.375514	0.000059
C102	C	0.982876	0.124486	0.500059
C103	C	0.659188	-0.399825	0.000076
C104	C	1.159188	0.100175	0.500076
C105	C	0.659695	-0.349413	0.000074
C106	C	1.159695	0.150587	0.500074
C107	C	0.615873	-0.318128	0.000070
C108	C	1.115873	0.181872	0.500070
C109	C	0.051393	0.017583	0.000090
C110	C	0.551393	0.517583	0.500090
C111	C	0.253054	0.019629	0.000077
C112	C	0.753054	0.519629	0.500077
O113	O	0.284304	-0.017591	0.000095
O114	O	0.784304	0.482409	0.500095
N115	N	0.272184	0.063963	0.000076
N116	N	0.772184	0.563963	0.500076
C117	C	0.240895	0.107789	0.000081
C118	C	0.740895	0.607789	0.500081
O119	O	0.261794	0.145545	0.000085
O120	O	0.761794	0.645545	0.500085
C121	C	0.039236	0.105742	0.000098
C122	C	0.539236	0.605742	0.500098
C123	C	0.020109	0.061405	0.000094
C124	C	0.520109	0.561405	0.500094
C125	C	0.032266	-0.026750	0.000087
C126	C	0.532266	0.473250	0.500087
C127	C	-0.018146	-0.027261	0.000088
C128	C	0.481854	0.472739	0.500088
C129	C	-0.049431	0.016561	0.000091
C130	C	0.450569	0.516561	0.500091
C131	C	-0.030303	0.060894	0.000094
C132	C	0.469697	0.560894	0.500094
C133	C	0.007949	0.149567	0.000106
C134	C	0.507949	0.649567	0.500106
C135	C	-0.042469	0.149051	0.000112
C136	C	0.457531	0.649051	0.500112
C137	C	-0.061596	0.104715	0.000108
C138	C	0.438404	0.604715	0.500108
C139	C	-0.112000	0.104205	0.000099
C140	C	0.388000	0.604205	0.500099
N141	N	-0.131130	0.059871	0.000100
N142	N	0.368870	0.559871	0.500100
C143	C	-0.099845	0.016049	0.000096
C144	C	0.400155	0.516049	0.500096
C145	C	0.346770	0.108860	0.000071
C146	C	0.846770	0.608860	0.500071
C147	C	0.397185	0.109372	0.000066
C148	C	0.897185	0.609372	0.500066
C149	C	0.409339	0.021212	0.000064
C150	C	0.909339	0.521212	0.500064
C151	C	0.358924	0.020701	0.000065
C152	C	0.858924	0.520701	0.500065
C153	C	0.327640	0.064526	0.000073
C154	C	0.827640	0.564526	0.500073
C155	C	-0.205715	0.014979	0.000097
C156	C	0.294285	0.514979	0.500097
C157	C	-0.256132	0.014472	0.000095
C158	C	0.243868	0.514472	0.500095
C159	C	-0.268283	0.102631	0.000101
C160	C	0.231717	0.602631	0.500101
C161	C	-0.217870	0.103139	0.000100
C162	C	0.282130	0.603139	0.500100
C163	C	-0.186587	0.059309	0.000100
C164	C	0.313413	0.559309	0.500100
O165	O	-0.143279	0.141406	0.000086
O166	O	0.356721	0.641406	0.500086
O167	O	-0.120753	-0.021701	0.000104
O168	O	0.379247	0.478299	0.500104
C169	C	0.101806	0.018094	0.000090
C170	C	0.601806	0.518094	0.500090
C171	C	0.120933	0.062427	0.000093
C172	C	0.620933	0.562427	0.500093
C173	C	0.089649	0.106250	0.000097
C174	C	0.589649	0.606250	0.500097
C175	C	0.171348	0.062939	0.000088
C176	C	0.671348	0.562939	0.500088
C177	C	0.202632	0.019117	0.000084
C178	C	0.702632	0.519117	0.500084
C179	C	0.183502	-0.025217	0.000086
C180	C	0.683502	0.474783	0.500086
C181	C	0.133090	-0.025728	0.000086
C182	C	0.633090	0.474272	0.500086
C183	C	0.108779	0.150584	0.000095
C184	C	0.608779	0.650584	0.500095
C185	C	0.159192	0.151091	0.000094
C186	C	0.659192	0.651091	0.500094
C187	C	0.190476	0.107269	0.000090
C188	C	0.690476	0.607269	0.500090
C189	C	0.658929	0.057738	0.000095
C190	C	1.158929	0.557738	0.500095
C191	C	0.712583	0.058294	0.000099
C192	C	1.212583	0.558294	0.500099
C193	C	0.566342	0.150325	0.000085
C194	C	1.066342	0.650325	0.500085
C195	C	0.566898	0.203979	0.000086
C196	C	1.066898	0.703979	0.500086
N197	N	0.570508	0.061940	0.129330
N198	N	1.070508	0.561940	0.629330
N199	N	0.570548	0.061901	-0.129164
N200	N	1.070548	0.561901	0.370836
C201	C	0.603637	0.028817	0.473960
C202	C	1.103637	0.528817	0.973960
C203	C	0.603648	0.028810	0.682838
C204	C	1.103648	0.528810	1.182838
O205	O	0.631796	0.000651	0.709845
O206	O	1.131796	0.500651	1.209845
N207	N	0.570538	0.061904	0.708957
N208	N	1.070538	0.561904	1.208957
C209	C	0.537421	0.095000	0.682854
C210	C	1.037421	0.595000	1.182854
O211	O	0.509255	0.123146	0.709863
O212	O	1.009255	0.623146	1.209863
C213	C	0.537407	0.095005	0.473978
C214	C	1.037407	0.595005	0.973978
C215	C	0.570523	0.061912	0.447861
C216	C	1.070523	0.561912	0.947861
C217	C	0.636749	-0.004274	0.447843
C218	C	1.136749	0.495726	0.947843
C219	C	0.636748	-0.004270	0.395627
C220	C	1.136748	0.495730	0.895627
C221	C	0.603634	0.028825	0.369528
C222	C	1.103634	0.528825	0.869528
C223	C	0.570521	0.061916	0.395644
C224	C	1.070521	0.561916	0.895644
C225	C	0.504288	0.128099	0.447875
C226	C	1.004288	0.628099	0.947875
C227	C	0.504287	0.128096	0.395653
C228	C	1.004287	0.628096	0.895653
C229	C	0.537402	0.095003	0.369536
C230	C	1.037402	0.595003	0.869536
C231	C	0.537406	0.095015	0.317329
C232	C	1.037406	0.595015	0.817329
N233	N	0.570516	0.061920	0.291209
N234	N	1.070516	0.561920	0.791209
C235	C	0.603630	0.028825	0.317309
C236	C	1.103630	0.528825	0.817309
C237	C	0.537431	0.094996	0.792518
C238	C	1.037431	0.594996	1.292518
C239	C	0.537434	0.094996	0.844737
C240	C	1.037434	0.594996	1.344737
C241	C	0.603662	0.028804	0.844717
C242	C	1.103662	0.528804	1.344717
C243	C	0.603660	0.028807	0.792497
C244	C	1.103660	0.528807	1.292497
C245	C	0.570541	0.061902	0.766398
C246	C	1.070541	0.561902	1.266398
C247	C	0.603625	0.028836	0.207651
C248	C	1.103625	0.528836	0.707651
C249	C	0.603622	0.028845	0.155430
C250	C	1.103622	0.528845	0.655430
C251	C	0.537393	0.095034	0.155454
C252	C	1.037393	0.595034	0.655454
C253	C	0.537398	0.095028	0.207671
C254	C	1.037398	0.595028	0.707671
C255	C	0.570515	0.061925	0.233768
C256	C	1.070515	0.561925	0.733768
O257	O	0.509269	0.123155	0.290290
O258	O	1.009269	0.623155	0.790290
O259	O	0.631784	0.000677	0.290291
O260	O	1.131784	0.500677	0.790291
C261	C	0.603638	0.028813	0.526176
C262	C	1.103638	0.528813	1.026176
C263	C	0.570526	0.061904	0.552293
C264	C	1.070526	0.561904	1.052293
C265	C	0.537412	0.094999	0.526194
C266	C	1.037412	0.594999	1.026194
C267	C	0.570530	0.061903	0.604512
C268	C	1.070530	0.561903	1.104512
C269	C	0.603644	0.028809	0.630612
C270	C	1.103644	0.528809	1.130612
C271	C	0.636754	-0.004286	0.604492
C272	C	1.136754	0.495714	1.104492
C273	C	0.636752	-0.004282	0.552276
C274	C	1.136752	0.495718	1.052276
C275	C	0.504302	0.128093	0.552313
C276	C	1.004302	0.628093	1.052313
C277	C	0.504306	0.128087	0.604530
C278	C	1.004306	0.628087	1.104530
C279	C	0.537420	0.094992	0.630629
C280	C	1.037420	0.594992	1.130629
H281	H	0.487893	-0.688854	0.000070
H282	H	0.987893	-0.188854	0.500070
H283	H	0.646914	-0.802368	0.000096
H284	H	1.146914	-0.302368	0.500096
C285	C	0.668055	-0.225579	-0.042567
C286	C	1.168055	0.274421	0.457433
C287	C	0.665643	-0.196216	0.000081
C288	C	1.165643	0.303784	0.500081
H289	H	0.697800	-0.246801	-0.042565
H290	H	1.197800	0.253199	0.457435
H291	H	0.641587	-0.244192	-0.042567
H292	H	1.141587	0.255808	0.457433
H293	H	0.666422	-0.205657	-0.071493
H294	H	1.166422	0.294343	0.428507
H295	H	0.667273	-0.216138	0.029006
H296	H	1.167273	0.283862	0.529006
H297	H	0.692118	-0.177602	0.000086
H298	H	1.192118	0.322398	0.500086
H299	H	0.663718	-0.031231	0.625751
H300	H	1.163718	0.468769	1.125751
H301	H	-0.271702	-0.021634	0.000091
H302	H	0.228298	0.478366	0.500091
C303	C	0.708226	-0.614813	0.042718
C304	C	1.208226	-0.114813	0.542718
C305	C	0.705830	-0.585461	0.000071
C306	C	1.205830	-0.085461	0.500071
H307	H	0.737966	-0.636044	0.042717
H308	H	1.237966	-0.136044	0.542717
H309	H	0.706592	-0.594888	0.071641
H310	H	1.206592	-0.094888	0.571641
H311	H	0.681749	-0.633420	0.042712
H312	H	1.181749	-0.133420	0.542712
H313	H	0.732306	-0.566851	0.000079
H314	H	1.232306	-0.066851	0.500079
H315	H	0.707469	-0.605389	-0.028859
H316	H	1.207469	-0.105389	0.471141
H317	H	0.663718	-0.031229	0.531015
H318	H	1.163718	0.468771	1.031015
H319	H	0.446773	-0.391082	0.000059
H320	H	0.946773	0.108918	0.500059
H321	H	0.477340	0.155039	0.625791
H322	H	0.977340	0.655039	1.125791
H323	H	0.630590	0.001896	0.134167
H324	H	1.130590	0.501896	0.634167
H325	H	0.510460	0.121947	0.771272
H326	H	1.010460	0.621947	1.271272
H327	H	0.630592	0.001881	0.228893
H328	H	1.130592	0.501881	0.728893
H329	H	0.343354	-0.015402	0.000062
H330	H	0.843354	0.484598	0.500062
H331	H	0.695802	-0.333845	0.000079
H332	H	1.195802	0.166155	0.500079
H333	H	0.477335	0.155042	0.531067
H334	H	0.977335	0.655042	1.031067
C335	C	-0.198778	-0.072215	0.000084
C336	C	0.301222	0.427785	0.500084
C337	C	-0.171334	-0.033199	0.000090
C338	C	0.328666	0.466801	0.500090
H339	H	-0.177552	-0.101957	0.000073
H340	H	0.322448	0.398043	0.500073
H341	H	-0.218691	-0.070578	0.029014
H342	H	0.281309	0.429422	0.529014
H343	H	-0.218698	-0.070572	-0.028846
H344	H	0.281302	0.429428	0.471154
H345	H	-0.151416	-0.034839	0.029022
H346	H	0.348584	0.465161	0.529022
H347	H	-0.151412	-0.034836	-0.028843
H348	H	0.348588	0.465164	0.471157
C349	C	-0.001053	-0.114348	0.000094
C350	C	0.498947	0.385652	0.500094
C351	C	-0.039166	-0.075998	0.000093
C352	C	0.460834	0.424002	0.500093
H353	H	-0.014028	-0.144438	0.000103
H354	H	0.485972	0.355562	0.500103
H355	H	0.018354	-0.112319	-0.028837
H356	H	0.518354	0.387681	0.471163
H357	H	0.018360	-0.112301	0.029023
H358	H	0.518360	0.387699	0.529023
H359	H	-0.058577	-0.078043	-0.028837
H360	H	0.441423	0.421957	0.471163
H361	H	-0.058581	-0.078028	0.029027
H362	H	0.441419	0.421972	0.529027
C363	C	-0.294170	0.177617	0.042754
C364	C	0.205830	0.677617	0.542754
C365	C	-0.302675	0.150801	0.000106
C366	C	0.197325	0.650801	0.500106
H367	H	-0.315401	0.207356	0.042756
H368	H	0.184599	0.707356	0.542756
H369	H	-0.299934	0.159422	0.071676
H370	H	0.200066	0.659422	0.571676
H371	H	-0.261407	0.184266	0.042747
H372	H	0.238593	0.684266	0.542747
H373	H	-0.335437	0.144149	0.000115
H374	H	0.164563	0.644149	0.500115
H375	H	-0.296914	0.169000	-0.028824
H376	H	0.203086	0.669000	0.471176
H377	H	0.694275	-0.485092	0.000072
H378	H	1.194275	0.014908	0.500072
C379	C	0.705065	-0.128510	0.000085
C380	C	1.205065	0.371490	0.500085
C381	C	0.666713	-0.090399	0.000085
C382	C	1.166713	0.409601	0.500085
H383	H	0.735153	-0.115533	0.000083
H384	H	1.235153	0.384467	0.500083
H385	H	0.703028	-0.147915	0.029014
H386	H	1.203028	0.352085	0.529014
H387	H	0.703028	-0.147926	-0.028846
H388	H	1.203028	0.352074	0.471154
H389	H	0.668748	-0.070985	0.029019
H390	H	1.168748	0.429015	0.529019
H391	H	0.668751	-0.070986	-0.028846
H392	H	1.168751	0.429014	0.471154
H393	H	0.446167	-0.450871	0.000060
H394	H	0.946167	0.049129	0.500060
C395	C	0.447781	-0.769903	-0.042574
C396	C	0.947781	-0.269903	0.457426
C397	C	0.474338	-0.785761	0.000077
C398	C	0.974338	-0.285761	0.500077
H399	H	0.417695	-0.782884	-0.042579
H400	H	0.917695	-0.282884	0.457421
H401	H	0.441817	-0.735404	-0.042573
H402	H	0.941817	-0.235404	0.457427
H403	H	0.465818	-0.780673	-0.071498
H404	H	0.965818	-0.280673	0.428502
H405	H	0.456303	-0.774987	0.029000
H406	H	0.956303	-0.274987	0.529000
H407	H	0.480301	-0.820266	0.000080
H408	H	0.980301	-0.320266	0.500080
C409	C	0.394256	-0.509657	0.000052
C410	C	0.894256	-0.009657	0.500052
C411	C	0.432606	-0.547770	0.000059
C412	C	0.932606	-0.047770	0.500059
H413	H	0.364166	-0.522632	0.000042
H414	H	0.864166	-0.022632	0.500042
H415	H	0.396286	-0.490244	0.028981
H416	H	0.896286	0.009756	0.528981
H417	H	0.396302	-0.490250	-0.028879
H418	H	0.896302	0.009750	0.471121
H419	H	0.430562	-0.567175	0.028992
H420	H	0.930562	-0.067175	0.528992
H421	H	0.430575	-0.567191	-0.028873
H422	H	0.930575	-0.067191	0.471127
H423	H	0.493202	-0.165250	0.000073
H424	H	0.993202	0.334750	0.500073
H425	H	0.447706	-0.299621	0.000056
H426	H	0.947706	0.200379	0.500056
H427	H	0.494135	-0.073784	0.000068
H428	H	0.994135	0.426216	0.500068
H429	H	0.647846	-0.710900	0.000095
H430	H	1.147846	-0.210900	0.500095
H431	H	0.663712	-0.031218	0.374366
H432	H	1.163712	0.468782	0.874366
H433	H	0.057733	-0.062437	0.000086
H434	H	0.557733	0.437563	0.500086
C435	C	0.101839	0.237773	0.000092
C436	C	0.601839	0.737773	0.500092
C437	C	0.074395	0.198757	0.000095
C438	C	0.574395	0.698757	0.500095
H439	H	0.080612	0.267515	0.000086
H440	H	0.580612	0.767515	0.500086
H441	H	0.121752	0.236142	0.029021
H442	H	0.621752	0.736142	0.529021
H443	H	0.121759	0.236126	-0.028839
H444	H	0.621759	0.736126	0.471161
H445	H	0.054477	0.200402	0.029028
H446	H	0.554477	0.700402	0.529028
H447	H	0.054474	0.200389	-0.028837
H448	H	0.554474	0.700389	0.471163
H449	H	0.694874	-0.425293	0.000080
H450	H	1.194874	0.074707	0.500080
H451	H	0.023513	0.185671	0.000107
H452	H	0.523513	0.685671	0.500107
H453	H	0.434820	-0.014469	0.000059
H454	H	0.934820	0.485531	0.500059
H455	H	0.477322	0.155046	0.469133
H456	H	0.977322	0.655046	0.969133
C457	C	0.380094	0.196461	0.000073
C458	C	0.880094	0.696461	0.500073
C459	C	0.418205	0.158108	0.000066
C460	C	0.918205	0.658108	0.500066
H461	H	0.393071	0.226549	0.000078
H462	H	0.893071	0.726549	0.500078
H463	H	0.360684	0.194424	-0.028853
H464	H	0.860684	0.694424	0.471147
H465	H	0.360684	0.194423	0.029006
H466	H	0.860684	0.694423	0.529006
H467	H	0.437613	0.160144	-0.028869
H468	H	0.937613	0.660144	0.471131
H469	H	0.437623	0.160146	0.028996
H470	H	0.937623	0.660146	0.528996
H471	H	0.174759	0.187198	0.000094
H472	H	0.674759	0.687198	0.500094
H473	H	0.321302	0.144550	0.000077
H474	H	0.821302	0.644550	0.500077
C475	C	-0.049416	0.236246	0.000116
C476	C	0.450584	0.736246	0.500116
C477	C	-0.076856	0.197227	0.000116
C478	C	0.423144	0.697227	0.500116
H479	H	-0.070645	0.265986	0.000114
H480	H	0.429355	0.765986	0.500114
H481	H	-0.029502	0.234614	0.029044
H482	H	0.470498	0.734614	0.529044
H483	H	-0.029497	0.234604	-0.028816
H484	H	0.470503	0.734604	0.471184
H485	H	-0.096772	0.198867	0.029049
H486	H	0.403228	0.698867	0.529049
H487	H	-0.096778	0.198860	-0.028815
H488	H	0.403222	0.698860	0.471185
H489	H	-0.202296	0.139241	0.000102
H490	H	0.297704	0.639241	0.500102
H491	H	0.117522	-0.061831	0.000083
H492	H	0.617522	0.438169	0.500083
H493	H	0.477315	0.155045	0.374406
H494	H	0.977315	0.655045	0.874406
C495	C	0.266185	-0.063568	0.000085
C496	C	0.766185	0.436432	0.500085
C497	C	0.217897	-0.073387	0.000084
C498	C	0.717897	0.426613	0.500084
H499	H	0.287419	-0.093306	0.000089
H500	H	0.787419	0.406694	0.500089
H501	H	0.271945	-0.045381	-0.028843
H502	H	0.771945	0.454619	0.471157
H503	H	0.271940	-0.045367	0.029016
H504	H	0.771940	0.454633	0.529016
H505	H	0.212141	-0.091586	-0.028849
H506	H	0.712141	0.408414	0.471151
H507	H	0.212135	-0.091583	0.029015
H508	H	0.712135	0.408417	0.529015
H509	H	0.663715	-0.031226	0.469089
H510	H	1.163715	0.468774	0.969089
H511	H	0.630625	0.001860	0.771235
H512	H	1.130625	0.501860	1.271235
H513	H	0.630625	0.001858	0.865975
H514	H	1.130625	0.501858	1.365975
C515	C	0.471970	0.160419	0.839498
C516	C	0.971970	0.660419	1.339498
C517	C	0.501035	0.131375	0.873441
C518	C	1.001035	0.631375	1.373441
H519	H	0.449494	0.182875	0.857219
H520	H	0.949494	0.682875	1.357219
H521	H	0.491959	0.177669	0.819134
H522	H	0.991959	0.677669	1.319134
H523	H	0.454737	0.140408	0.819127
H524	H	0.954737	0.640408	1.319127
H525	H	0.518271	0.151386	0.893809
H526	H	1.018271	0.651386	1.393809
H527	H	0.481043	0.114123	0.893813
H528	H	0.981043	0.614123	1.393813
H529	H	0.510436	0.121980	0.228935
H530	H	1.010436	0.621980	0.728935
H531	H	0.510433	0.121981	0.134196
H532	H	1.010433	0.621981	0.634196
