data_functionalizedCrystal
_audit_creation_method	'MofGen! by Chris Wilmer'
_symmetry_space_group_name_H-M	'P1'
_symmetry_Int_Tables_number	1
_symmetry_cell_setting	triclinic
loop_
_symmetry_equiv_pos_as_xyz
  x,y,z
_cell_length_a	16.120530
_cell_length_b	18.050589
_cell_length_c	16.120297
_cell_angle_alpha	92.875657
_cell_angle_beta	90.128140
_cell_angle_gamma	87.123928
loop_
_atom_site_label
_atom_site_type_symbol
_atom_site_fract_x
_atom_site_fract_y
_atom_site_fract_z
Zn1	Zn	1.247404	-0.376248	-0.534587
Zn2	Zn	1.747404	0.123752	-0.034587
Zn3	Zn	1.254344	-0.494473	-0.395537
Zn4	Zn	1.754344	0.005527	0.104463
Zn5	Zn	1.115396	-0.363698	-0.388504
Zn6	Zn	1.615396	0.136302	0.111496
Zn7	Zn	1.108300	-0.493789	-0.527506
Zn8	Zn	1.608300	0.006211	-0.027506
O9	O	1.181361	-0.432052	-0.461533
O10	O	1.681361	0.067948	0.038467
O11	O	1.364691	-0.397469	-0.522048
O12	O	1.864691	0.102531	-0.022048
O13	O	1.241786	-0.472159	-0.278238
O14	O	1.741786	0.027841	0.221762
O15	O	1.132972	-0.261442	-0.407903
O16	O	1.632972	0.238558	0.092097
O17	O	1.369789	-0.484328	-0.419888
O18	O	1.869789	0.015672	0.080112
O19	O	1.229959	-0.270662	-0.515230
O20	O	1.729959	0.229338	-0.015230
O21	O	1.139701	-0.376080	-0.273071
O22	O	1.639701	0.123920	0.226929
O23	O	0.998089	-0.375417	-0.401037
O24	O	1.498089	0.124583	0.098963
O25	O	1.120879	-0.483162	-0.644811
O26	O	1.620879	0.016838	-0.144811
O27	O	0.992876	-0.470994	-0.503160
O28	O	1.492876	0.029006	-0.003160
O29	O	1.223078	-0.396806	-0.650014
O30	O	1.723078	0.103194	-0.150014
O31	O	1.234906	-0.598303	-0.413022
O32	O	1.734906	-0.098303	0.086978
O33	O	1.127608	-0.597800	-0.509979
O34	O	1.627608	-0.097800	-0.009979
C35	C	0.965310	-0.421770	-0.450568
C36	C	1.465310	0.078230	0.049432
C37	C	0.872881	-0.417390	-0.445896
C38	C	1.372881	0.082610	0.054104
C39	C	0.703653	-0.409376	-0.437374
C40	C	1.203653	0.090624	0.062626
C41	C	0.659907	-0.454785	-0.485754
C42	C	1.159907	0.045215	0.014246
C43	C	0.565742	-0.450326	-0.481012
C44	C	1.065742	0.049674	0.018988
C45	C	0.797826	-0.413834	-0.442115
C46	C	1.297826	0.086166	0.057885
C47	C	1.181261	-0.624999	-0.461515
C48	C	1.681261	-0.124999	0.038485
C49	C	1.181293	-0.707547	-0.461538
C50	C	1.681293	-0.207547	0.038462
C51	C	1.123001	-0.906753	-0.514247
C52	C	1.623001	-0.406753	-0.014247
C53	C	1.106578	-0.951975	-0.437341
C54	C	1.606578	-0.451975	0.062659
C55	C	1.181375	-0.858682	-0.461553
C56	C	1.681375	-0.358682	0.038447
C57	C	1.197838	-0.960544	-0.538470
C58	C	1.697838	-0.460544	-0.038470
C59	C	1.181451	-1.004671	-0.461574
C60	C	1.681451	-0.504671	0.038426
C61	C	1.164914	-0.902813	-0.384605
C62	C	1.664914	-0.402813	0.115395
C63	C	1.256207	-0.911381	-0.485787
C64	C	1.756207	-0.411381	0.014213
C65	C	1.239815	-0.956580	-0.408830
C66	C	1.739815	-0.456580	0.091170
C67	C	1.181328	-0.774581	-0.461542
C68	C	1.681328	-0.274581	0.038458
C69	C	1.181498	-1.088770	-0.461577
C70	C	1.681498	-0.588770	0.038423
C71	C	1.398256	-0.442375	-0.472543
C72	C	1.898256	0.057625	0.027457
C73	C	1.490683	-0.446774	-0.477234
C74	C	1.990683	0.053226	0.022766
C75	C	1.170413	-0.441308	-0.678428
C76	C	1.670413	0.058692	-0.178428
C77	C	1.165748	-0.445252	-0.770856
C78	C	1.665748	0.054748	-0.270856
C79	C	1.181483	-0.238354	-0.461572
C80	C	1.681483	0.261646	0.038428
C81	C	1.181535	-0.155811	-0.461588
C82	C	1.681535	0.344189	0.038412
C83	C	1.157199	-0.452435	-0.940081
C84	C	1.657199	0.047565	-0.440081
C85	C	1.205687	-0.411454	-0.983846
C86	C	1.705687	0.088546	-0.483846
C87	C	1.200930	-0.415451	-1.078009
C88	C	1.700930	0.084549	-0.578009
C89	C	1.161955	-0.448439	-0.845910
C90	C	1.661955	0.051561	-0.345910
C91	C	1.192314	-0.422781	-0.245485
C92	C	1.692314	0.077219	0.254515
C93	C	1.197141	-0.418635	-0.153066
C94	C	1.697141	0.081365	0.346934
H95	H	0.693175	-0.497008	-0.530735
H96	H	1.193175	0.002992	-0.030735
C97	C	1.057150	-0.877689	-0.573696
C98	C	1.557150	-0.377689	-0.073696
C99	C	1.073761	-0.908126	-0.653892
C100	C	1.573761	-0.408126	-0.153892
C101	C	1.013111	-0.881376	-0.708671
C102	C	1.513111	-0.381376	-0.208671
H103	H	1.057858	-0.825104	-0.573753
H104	H	1.557858	-0.325104	-0.073753
H105	H	1.004029	-0.891497	-0.556403
H106	H	1.504029	-0.391497	-0.056403
H107	H	1.126868	-0.894313	-0.671181
H108	H	1.626868	-0.394313	-0.171181
H109	H	1.073046	-0.960709	-0.653861
H110	H	1.573046	-0.460709	-0.153861
H111	H	0.959989	-0.895184	-0.691378
H112	H	1.459989	-0.395184	-0.191378
H113	H	1.013823	-0.828791	-0.708721
H114	H	1.513823	-0.328791	-0.208721
H115	H	1.024368	-0.902029	-0.763088
H116	H	1.524368	-0.402029	-0.263088
H117	H	0.670386	-0.367156	-0.392397
H118	H	1.170386	0.132844	0.107603
H119	H	1.043330	-0.969970	-0.416862
H120	H	1.543330	-0.469970	0.083138
C121	C	1.146255	-0.869164	-0.297920
C122	C	1.646255	-0.369164	0.202080
C123	C	1.146376	-0.791654	-0.298932
C124	C	1.646376	-0.291654	0.201068
C125	C	1.129177	-0.760630	-0.219099
C126	C	1.629177	-0.260630	0.280901
H127	H	1.187472	-0.886530	-0.260379
H128	H	1.687472	-0.386530	0.239621
H129	H	1.093275	-0.883324	-0.280624
H130	H	1.593275	-0.383324	0.219376
H131	H	1.199349	-0.777500	-0.316217
H132	H	1.699349	-0.277500	0.183783
H133	H	1.105159	-0.774268	-0.336456
H134	H	1.605159	-0.274268	0.163544
H135	H	1.076197	-0.774790	-0.201803
H136	H	1.576197	-0.274790	0.298197
H137	H	1.170396	-0.778001	-0.181565
H138	H	1.670396	-0.278001	0.318435
H139	H	1.129250	-0.708037	-0.219777
H140	H	1.629250	-0.208037	0.280223
C141	C	1.265703	-0.360540	-0.939566
C142	C	1.765703	0.139460	-0.439566
C143	C	1.246588	-0.287077	-0.959692
C144	C	1.746588	0.212923	-0.459692
C145	C	1.301850	-0.240155	-0.918909
C146	C	1.801850	0.259845	-0.418909
H147	H	1.320894	-0.374563	-0.956565
H148	H	1.820894	0.125437	-0.456565
H149	H	1.260951	-0.364513	-0.881243
H150	H	1.760951	0.135487	-0.381243
H151	H	1.251347	-0.283108	-1.018003
H152	H	1.751347	0.216892	-0.518003
H153	H	1.191406	-0.273031	-0.942691
H154	H	1.691406	0.226969	-0.442691
H155	H	1.297098	-0.244128	-0.860586
H156	H	1.797098	0.255872	-0.360586
H157	H	1.357038	-0.254185	-0.935911
H158	H	1.857038	0.245815	-0.435911
H159	H	1.288883	-0.190305	-0.932553
H160	H	1.788883	0.309695	-0.432553
C161	C	1.340480	-0.887428	-0.513306
C162	C	1.840480	-0.387428	-0.013306
C163	C	1.357353	-0.916746	-0.593906
C164	C	1.857353	-0.416746	-0.093906
C165	C	1.434972	-0.894688	-0.619298
C166	C	1.934972	-0.394688	-0.119298
H167	H	1.382166	-0.905250	-0.476525
H168	H	1.882166	-0.405250	0.023475
H169	H	1.339995	-0.834749	-0.512652
H170	H	1.839995	-0.334749	-0.012652
H171	H	1.357845	-0.969415	-0.594554
H172	H	1.857845	-0.469415	-0.094554
H173	H	1.315688	-0.898928	-0.630706
H174	H	1.815688	-0.398928	-0.130706
H175	H	1.434487	-0.842008	-0.618644
H176	H	1.934487	-0.342008	-0.118644
H177	H	1.476651	-0.912511	-0.582511
H178	H	1.976651	-0.412511	-0.082511
H179	H	1.446427	-0.914571	-0.673990
H180	H	1.946427	-0.414571	-0.173990
H181	H	1.112120	-0.490519	-0.973329
H182	H	1.612120	0.009481	-0.473329
C183	C	1.305566	-0.985662	-0.349289
C184	C	1.805566	-0.485662	0.150711
C185	C	1.267705	-1.024908	-0.288197
C186	C	1.767705	-0.524908	0.211803
C187	C	1.328244	-1.051719	-0.233338
C188	C	1.828244	-0.551719	0.266662
H189	H	1.333072	-0.945153	-0.323749
H190	H	1.833072	-0.445153	0.176251
H191	H	1.344805	-1.017749	-0.379060
H192	H	1.844805	-0.517749	0.120940
H193	H	1.228480	-0.992823	-0.258430
H194	H	1.728480	-0.492823	0.241570
H195	H	1.240204	-1.065427	-0.313712
H196	H	1.740204	-0.565427	0.186288
H197	H	1.367484	-1.083806	-0.263108
H198	H	1.867484	-0.583806	0.236892
H199	H	1.355746	-1.011206	-0.207804
H200	H	1.855746	-0.511206	0.292196
H201	H	1.302565	-1.078356	-0.191885
H202	H	1.802565	-0.578356	0.308115
C203	C	1.216320	-0.994312	-0.625140
C204	C	1.716320	-0.494312	-0.125140
C205	C	1.216835	-1.071834	-0.623854
C206	C	1.716835	-0.571834	-0.123854
C207	C	1.233839	-1.102962	-0.703682
C208	C	1.733839	-0.602962	-0.203682
H209	H	1.269057	-0.979879	-0.642787
H210	H	1.769057	-0.479879	-0.142787
H211	H	1.174754	-0.977281	-0.662515
H212	H	1.674754	-0.477281	-0.162515
H213	H	1.258399	-1.088858	-0.586492
H214	H	1.758399	-0.588858	-0.086492
H215	H	1.164105	-1.086287	-0.606222
H216	H	1.664105	-0.586287	-0.106222
H217	H	1.192273	-1.085931	-0.741057
H218	H	1.692273	-0.585931	-0.241057
H219	H	1.286575	-1.088524	-0.721323
H220	H	1.786575	-0.588524	-0.221323
H221	H	1.234183	-1.155563	-0.702822
H222	H	1.734183	-0.655563	-0.202822
