data_functionalizedCrystal
_audit_creation_method	'MofGen! by Chris Wilmer'
_symmetry_space_group_name_H-M	'P1'
_symmetry_Int_Tables_number	1
_symmetry_cell_setting	triclinic
loop_
_symmetry_equiv_pos_as_xyz
  x,y,z
_cell_length_a	23.532355
_cell_length_b	23.532407
_cell_length_c	12.503572
_cell_angle_alpha	93.496478
_cell_angle_beta	86.510491
_cell_angle_gamma	82.838088
loop_
_atom_site_label
_atom_site_type_symbol
_atom_site_fract_x
_atom_site_fract_y
_atom_site_fract_z
O1	O	0.758577	0.065685	-0.089184
O2	O	0.592710	0.075718	-0.089220
O3	O	0.680644	-0.012230	-0.089181
O4	O	0.670642	0.153633	-0.089223
O5	O	0.674031	-0.005605	0.089458
O6	O	0.586097	0.082343	0.089419
O7	O	0.751963	0.072310	0.089455
Cu8	Cu	0.668426	0.077932	0.105748
Cu9	Cu	0.676247	0.070097	-0.105513
O10	O	0.664029	0.160259	0.089416
C11	C	0.568187	0.078780	0.000095
C12	C	0.504969	0.078025	0.000083
C13	C	0.109349	0.076900	0.097505
C14	C	0.049949	0.076183	0.097509
O15	O	0.016165	0.078864	0.180323
N16	N	0.023845	0.072216	0.000134
C17	C	0.057146	0.068960	-0.097253
O18	O	0.029488	0.065519	-0.180078
C19	C	0.116545	0.069673	-0.097256
C20	C	0.142644	0.073646	0.000126
C21	C	0.135449	0.080872	0.194879
C22	C	0.194844	0.081590	0.194874
C23	C	0.228139	0.078337	0.097495
C24	C	0.202039	0.074364	0.000121
C25	C	0.149844	0.066413	-0.194641
C26	C	0.209247	0.067126	-0.194636
C27	C	0.235346	0.071099	-0.097254
C28	C	0.294730	0.071829	-0.097262
N29	N	0.320834	0.075796	0.000113
C30	C	0.287538	0.079050	0.097492
C31	C	-0.067597	0.067461	-0.097239
C32	C	-0.126995	0.066752	-0.097237
C33	C	-0.134187	0.073974	0.097526
C34	C	-0.074788	0.074687	0.097523
C35	C	-0.041493	0.071428	0.000137
C36	C	0.412273	0.080559	0.097475
C37	C	0.471674	0.081279	0.097461
C38	C	0.478861	0.074054	-0.097300
C39	C	0.419465	0.073337	-0.097288
C40	C	0.386173	0.076587	0.000109
O41	O	0.328551	0.069148	-0.180034
O42	O	0.315205	0.082483	0.180303
C43	C	0.677083	-0.030134	0.000141
C44	C	0.676317	-0.093350	0.000149
C45	C	0.723553	-0.492464	0.000100
C46	C	0.722842	-0.551864	0.000092
O47	O	0.766630	-0.588618	0.000062
N48	N	0.670565	-0.574481	0.000082
C49	C	0.618996	-0.537694	0.000068
O50	O	0.574465	-0.562386	0.000058
C51	C	0.619708	-0.478295	0.000069
C52	C	0.671988	-0.455682	0.000090
C53	C	0.775829	-0.469850	0.000120
C54	C	0.776540	-0.410453	0.000131
C55	C	0.724975	-0.373671	0.000121
C56	C	0.672699	-0.396285	0.000101
C57	C	0.568140	-0.441510	0.000048
C58	C	0.568856	-0.382108	0.000048
C59	C	0.621136	-0.359494	0.000069
C60	C	0.621844	-0.300107	0.000101
N61	N	0.674122	-0.277490	0.000112
C62	C	0.725687	-0.314272	0.000122
C63	C	0.617504	-0.662437	0.000065
C64	C	0.616791	-0.721834	0.000072
C65	C	0.720638	-0.736000	0.000094
C66	C	0.721350	-0.676601	0.000094
C67	C	0.669782	-0.639820	0.000076
C68	C	0.727176	-0.189535	0.000144
C69	C	0.727882	-0.130132	0.000159
C70	C	0.624036	-0.115972	0.000132
C71	C	0.623329	-0.175369	0.000123
C72	C	0.674904	-0.212150	0.000125
O73	O	0.578080	-0.263318	0.000127
O74	O	0.770211	-0.289573	0.000118
C75	C	0.776486	0.069249	0.000137
C76	C	0.839705	0.070003	0.000143
C77	C	0.667591	0.178162	0.000092
C78	C	0.668357	0.241378	0.000077
N79	N	0.662930	0.083442	0.254338
N80	N	0.681748	0.064582	-0.254103
C81	C	0.654844	0.091553	0.473450
C82	C	0.689832	0.056473	0.526792
C83	C	0.685333	0.060986	0.648713
C84	C	0.659342	0.087041	0.351517
H85	H	-0.161307	0.076622	0.176817
C86	C	0.706946	-0.025825	0.400469
C87	C	0.734768	0.011237	0.464973
H88	H	0.734668	-0.053782	0.362338
H89	H	0.681655	-0.044412	0.444437
H90	H	0.685654	-0.004416	0.350875
H91	H	0.756056	-0.010172	0.514572
H92	H	0.760069	0.029825	0.421001
C93	C	0.614053	0.132469	0.645939
C94	C	0.609852	0.136674	0.535402
H95	H	0.586280	0.160329	0.684192
H96	H	0.607344	0.095185	0.664306
H97	H	0.651382	0.139051	0.664284
H98	H	0.572523	0.130088	0.517055
H99	H	0.616556	0.173967	0.517027
C100	C	0.554653	-0.584021	0.091891
C101	C	0.560815	-0.622006	0.000061
H102	H	0.519657	-0.559061	0.091881
H103	H	0.554229	-0.605183	0.154174
H104	H	0.585889	-0.562050	0.091885
H105	H	0.529581	-0.643980	0.000071
H106	H	0.561234	-0.600842	-0.062238
C107	C	0.579029	-0.018624	0.000117
C108	C	0.567357	-0.075533	0.000114
H109	H	0.544037	0.006341	0.000094
H110	H	0.598166	-0.009500	0.062419
H111	H	0.602792	-0.014116	-0.062172
H112	H	0.543598	-0.080043	0.062408
H113	H	0.548211	-0.084660	-0.062194
H114	H	0.128604	0.063177	-0.273940
C115	C	-0.113905	0.059686	-0.289748
C116	C	-0.155680	0.062390	-0.204282
H117	H	-0.131613	0.056987	-0.355834
H118	H	-0.095424	0.093330	-0.285703
H119	H	-0.086350	0.026899	-0.285676
H120	H	-0.183232	0.095180	-0.208350
H121	H	-0.174170	0.028743	-0.208329
H122	H	0.770456	-0.111724	0.000179
C123	C	0.458589	0.088341	0.289981
C124	C	0.500362	0.085642	0.204511
H125	H	0.476301	0.091030	0.356065
H126	H	0.431038	0.121125	0.285924
H127	H	0.440106	0.054693	0.285927
H128	H	0.518842	0.119292	0.208561
H129	H	0.527923	0.052855	0.208571
H130	H	0.574219	-0.740240	0.000073
C131	C	0.347998	0.034979	0.210517
C132	C	0.375684	0.084134	0.204534
H133	H	0.325413	0.037188	0.276614
H134	H	0.323947	0.032515	0.152542
H135	H	0.375860	0.001896	0.206470
H136	H	0.347822	0.117216	0.208573
H137	H	0.399737	0.086603	0.262526
C138	C	0.226980	0.110154	-0.360658
C139	C	0.245846	0.063550	-0.301686
H140	H	0.249577	0.107949	-0.426741
H141	H	0.187874	0.109153	-0.374587
H142	H	0.230704	0.144968	-0.320645
H143	H	0.242118	0.028736	-0.341697
H144	H	0.284961	0.064546	-0.287761
H145	H	0.526862	-0.352163	0.000031
C146	C	0.181751	0.088649	0.387382
C147	C	0.223528	0.085949	0.301921
H148	H	0.199459	0.091335	0.453471
H149	H	0.154203	0.121435	0.383323
H150	H	0.163266	0.055003	0.383320
H151	H	0.242011	0.119598	0.305979
H152	H	0.251087	0.053160	0.305983
H153	H	0.762625	-0.765960	0.000098
C154	C	0.071170	0.035295	0.307918
C155	C	0.098859	0.084448	0.301934
H156	H	0.048587	0.037505	0.374018
H157	H	0.047116	0.032834	0.249947
H158	H	0.099030	0.002211	0.303866
H159	H	0.070999	0.117532	0.305978
H160	H	0.122915	0.086915	0.359921
H161	H	-0.053542	0.077923	0.176820
H162	H	0.580757	-0.193780	0.000135
C163	C	-0.003311	0.113043	-0.210255
C164	C	-0.031000	0.063889	-0.204293
H165	H	0.019282	0.110835	-0.276343
H166	H	-0.031166	0.146123	-0.206209
H167	H	0.020738	0.115501	-0.152263
H168	H	-0.055053	0.061434	-0.262281
H169	H	-0.003141	0.030800	-0.208350
C170	C	0.432543	0.066279	-0.289802
C171	C	0.390772	0.068979	-0.204330
H172	H	0.414831	0.063583	-0.355885
H173	H	0.451022	0.099924	-0.285755
H174	H	0.460098	0.033493	-0.285740
H175	H	0.363218	0.101768	-0.208387
H176	H	0.372283	0.035331	-0.208379
H177	H	0.505980	0.071407	-0.176584
H178	H	0.819112	-0.392047	0.000144
C179	C	0.829895	-0.197554	0.000182
C180	C	0.783867	-0.229958	0.000156
H181	H	0.864892	-0.222510	0.000201
H182	H	0.830318	-0.176398	-0.062109
H183	H	0.825695	-0.171784	0.062482
H184	H	0.788065	-0.255725	-0.062149
H185	H	0.783445	-0.251124	0.062453
H186	H	0.817822	-0.499793	0.000125
H187	H	0.763921	-0.658194	0.000111
H188	H	0.525568	-0.459911	0.000024
