data_functionalizedCrystal
_audit_creation_method	'MofGen! by Chris Wilmer'
_symmetry_space_group_name_H-M	'P1'
_symmetry_Int_Tables_number	1
_symmetry_cell_setting	triclinic
loop_
_symmetry_equiv_pos_as_xyz
  x,y,z
_cell_length_a	13.185408
_cell_length_b	13.339070
_cell_length_c	11.804365
_cell_angle_alpha	74.887832
_cell_angle_beta	82.233045
_cell_angle_gamma	96.198603
loop_
_atom_site_label
_atom_site_type_symbol
_atom_site_fract_x
_atom_site_fract_y
_atom_site_fract_z
O1	O	1.387927	0.267879	-0.098944
O2	O	1.099098	0.173146	-0.098963
O3	O	1.210363	0.358751	-0.098952
O4	O	1.276661	0.082274	-0.098955
O5	O	1.181060	0.309926	0.099101
O6	O	1.069794	0.124321	0.099090
O7	O	1.358623	0.219054	0.099109
Cu8	Cu	1.211533	0.167229	0.117183
Cu9	Cu	1.246188	0.224970	-0.117037
O10	O	1.247358	0.033449	0.099098
C11	C	1.046724	0.139130	0.000062
C12	C	0.934320	0.110525	0.000054
C13	C	0.895269	0.008671	0.000051
C14	C	0.789659	-0.018212	0.000061
C15	C	0.723090	0.056758	0.000066
C16	C	0.762141	0.158616	0.000061
C17	C	0.867761	0.185499	0.000060
C18	C	0.695581	0.233586	0.000075
C19	C	0.734633	0.335444	0.000070
C20	C	0.840243	0.362323	0.000068
C21	C	0.906812	0.287353	0.000063
C22	C	0.589962	0.206703	0.000076
C23	C	0.562453	0.383531	0.000085
C24	C	0.668064	0.410414	0.000074
C25	C	1.184513	0.368979	0.000072
C26	C	1.151133	0.472195	0.000065
C27	C	1.410998	0.253071	0.000082
C28	C	1.523403	0.281677	0.000081
C29	C	1.273208	0.023221	0.000071
C30	C	1.306590	-0.079992	0.000071
N31	N	1.187166	0.126620	0.281922
C32	C	1.410685	0.907647	0.000082
C33	C	1.442050	0.810671	0.000096
C34	C	1.369323	0.726048	0.000088
C35	C	1.265227	0.738409	0.000067
C36	C	1.233858	0.835393	0.000063
C37	C	1.192496	0.653793	0.000069
C38	C	1.088399	0.666155	0.000048
C39	C	1.057036	0.763130	0.000043
C40	C	1.129762	0.847753	0.000052
C41	C	1.223865	0.556809	0.000072
C42	C	1.047037	0.484555	0.000053
C43	C	1.015673	0.581531	0.000040
N44	N	1.270561	0.265589	-0.281776
C45	C	1.329070	0.363124	0.655884
C46	C	1.347501	0.393849	0.531224
C47	C	1.307419	0.327044	0.468892
C48	C	1.248902	0.229510	0.531233
C49	C	1.230476	0.198779	0.655905
C50	C	1.208825	0.162699	0.468913
C51	C	1.150308	0.065165	0.531254
C52	C	1.131884	0.034439	0.655914
C53	C	1.171967	0.101244	0.718245
C54	C	1.227251	0.193430	0.344241
C55	C	1.128657	0.029085	0.344262
C56	C	1.110225	-0.001639	0.468922
H57	H	0.699875	0.493348	0.000071
Br58	Br	1.306665	0.325792	0.259652
H59	H	0.508260	0.444591	0.000034
H60	H	1.526805	0.800614	0.000114
Br61	Br	1.411891	0.594436	0.000102
Br62	Br	0.985612	-0.093064	0.000056
H63	H	1.322428	0.352065	0.367389
Br64	Br	1.509369	1.022484	0.000122
Br65	Br	0.948328	0.369712	0.000056
H66	H	0.637097	0.034863	0.000076
H67	H	0.930915	0.591610	0.000024
Br68	Br	1.426915	0.526207	0.446620
Br69	Br	1.050150	0.323837	0.000037
H70	H	0.872032	0.445259	0.000079
H71	H	1.308621	0.546755	0.000089
Br72	Br	0.736666	-0.156440	0.000064
H73	H	1.104231	0.926723	0.000036
Br74	Br	1.052488	-0.097937	0.740522
H75	H	0.558176	0.123769	0.000082
H76	H	1.361707	0.417504	0.706643
H77	H	0.972272	0.773187	0.000036
Br78	Br	1.146942	0.059547	0.887434
Br79	Br	1.030810	-0.134004	0.553539
Br80	Br	1.074264	-0.061588	0.259678
