data_functionalizedCrystal
_audit_creation_method	'MofGen! by Chris Wilmer'
_symmetry_space_group_name_H-M	'P1'
_symmetry_Int_Tables_number	1
_symmetry_cell_setting	triclinic
loop_
_symmetry_equiv_pos_as_xyz
  x,y,z
_cell_length_a	11.026607
_cell_length_b	14.519731
_cell_length_c	10.065918
_cell_angle_alpha	99.802130
_cell_angle_beta	97.708363
_cell_angle_gamma	96.137435
loop_
_atom_site_label
_atom_site_type_symbol
_atom_site_fract_x
_atom_site_fract_y
_atom_site_fract_z
O1	O	1.627001	0.401010	0.113514
O2	O	1.273595	0.357020	0.113514
O3	O	1.459652	0.246318	0.113502
O4	O	1.440943	0.511712	0.113526
O5	O	1.427721	0.216945	-0.113489
O6	O	1.241664	0.327646	-0.113477
O7	O	1.595070	0.371637	-0.113477
Zn8	Zn	1.413297	0.344978	-0.149516
Zn9	Zn	1.455367	0.383679	0.149554
O10	O	1.409012	0.482339	-0.113464
C11	C	1.212400	0.334217	0.000018
C12	C	1.077631	0.310025	0.000018
C13	C	1.003978	0.376826	0.000025
C14	C	0.864687	0.351823	0.000024
C15	C	1.442810	0.197127	0.000006
C16	C	1.440182	0.094314	0.000005
C17	C	1.438048	0.010819	0.000008
C18	C	1.435382	-0.093928	0.000019
C19	C	1.433266	-0.177415	0.000027
C20	C	1.430599	-0.282169	0.000035
C21	C	1.656265	0.394440	0.000022
C22	C	1.791035	0.418634	0.000031
C23	C	1.425855	0.531530	0.000034
C24	C	1.428483	0.634344	0.000044
N25	N	1.384594	0.318567	-0.353624
C26	C	1.445373	0.374488	-0.421399
C27	C	1.423292	0.354154	-0.578568
N28	N	1.484080	0.410084	0.353661
H29	H	0.831091	0.494339	0.000029
Cl30	Cl	0.802846	0.234937	0.000004
Cl31	Cl	1.065822	0.493705	0.000032
H32	H	1.316215	0.255634	-0.411956
Cl33	Cl	1.015784	0.193143	-0.000003
Cl34	Cl	1.317716	0.256983	-0.668610
H35	H	1.513759	0.437416	-0.363067
H36	H	1.552469	0.473018	-0.588014
