data_functionalizedCrystal
_audit_creation_method	'MofGen! by Chris Wilmer'
_symmetry_space_group_name_H-M	'P1'
_symmetry_Int_Tables_number	1
_symmetry_cell_setting	triclinic
loop_
_symmetry_equiv_pos_as_xyz
  x,y,z
_cell_length_a	11.026607
_cell_length_b	14.519709
_cell_length_c	9.482900
_cell_angle_alpha	99.350820
_cell_angle_beta	78.636152
_cell_angle_gamma	96.133081
loop_
_atom_site_label
_atom_site_type_symbol
_atom_site_fract_x
_atom_site_fract_y
_atom_site_fract_z
O1	O	1.629894	0.375017	-0.120915
O2	O	2.129894	0.875017	0.379085
O3	O	1.276492	0.331026	-0.120914
O4	O	1.776492	0.831026	0.379086
O5	O	1.462561	0.220328	-0.120901
O6	O	1.962561	0.720328	0.379099
O7	O	1.443825	0.485715	-0.120927
O8	O	1.943825	0.985715	0.379073
O9	O	1.424766	0.242929	0.120889
O10	O	1.924766	0.742929	0.620889
O11	O	1.238698	0.353627	0.120876
O12	O	1.738698	0.853627	0.620876
O13	O	1.592099	0.397617	0.120875
O14	O	2.092099	0.897617	0.620875
Cu15	Cu	1.411948	0.377686	0.142953
Cu16	Cu	1.911948	0.877686	0.642953
Cu17	Cu	1.456644	0.350958	-0.142992
Cu18	Cu	1.956644	0.850958	0.357008
O19	O	1.406031	0.508316	0.120862
O20	O	1.906031	1.008316	0.620862
C21	C	1.212367	0.334211	-0.000019
C22	C	1.712367	0.834211	0.499981
C23	C	1.077600	0.310019	-0.000019
C24	C	1.577600	0.810019	0.499981
C25	C	1.003940	0.376817	-0.000026
C26	C	1.503940	0.876817	0.499974
C27	C	0.864652	0.351815	-0.000026
C28	C	1.364652	0.851815	0.499974
C29	C	1.442790	0.197125	-0.000006
C30	C	1.942790	0.697125	0.499994
C31	C	1.440173	0.094312	-0.000005
C32	C	1.940173	0.594312	0.499995
C33	C	1.430544	-0.282175	-0.000043
C34	C	1.930544	0.217825	0.499957
C35	C	1.433218	-0.177425	-0.000032
C36	C	1.933218	0.322575	0.499968
C37	C	1.435358	-0.093934	-0.000023
C38	C	1.935358	0.406066	0.499977
C39	C	1.438033	0.010822	-0.000015
C40	C	1.938033	0.510822	0.499985
C41	C	1.656226	0.394432	-0.000023
C42	C	2.156226	0.894432	0.499977
C43	C	1.790994	0.418624	-0.000033
C44	C	2.290994	0.918624	0.499967
C45	C	1.425802	0.531518	-0.000036
C46	C	1.925802	1.031518	0.499964
C47	C	1.428421	0.634330	-0.000046
C48	C	1.928421	1.134330	0.499954
N49	N	1.380519	0.396486	0.344071
N50	N	1.880519	0.896486	0.844071
N51	N	1.488082	0.332152	-0.344110
N52	N	1.988082	0.832152	0.155890
C53	C	1.447366	0.356497	0.416275
C54	C	1.947366	0.856497	0.916275
C55	C	1.421226	0.372147	0.583690
C56	C	1.921226	0.872147	1.083690
H57	H	0.831042	0.494329	-0.000031
H58	H	1.331042	0.994329	0.499969
C59	C	0.896019	0.202836	-0.000021
C60	C	1.396019	0.702836	0.499979
C61	C	1.023539	0.207824	-0.000016
C62	C	1.523539	0.707824	0.499984
H63	H	0.862652	0.139742	-0.000030
H64	H	1.362652	0.639742	0.499970
H65	H	0.856282	0.240559	0.084290
H66	H	1.356282	0.740559	0.584290
H67	H	0.882646	0.224811	-0.084345
H68	H	1.382646	0.724811	0.415655
H69	H	1.036913	0.185855	0.084314
H70	H	1.536913	0.685855	0.584314
H71	H	1.063289	0.170087	-0.084337
H72	H	1.563289	0.670087	0.415663
C73	C	1.038254	0.511382	-0.124331
C74	C	1.538254	1.011382	0.375669
C75	C	1.058000	0.479012	-0.000034
C76	C	1.558000	0.979012	0.499966
H77	H	1.071620	0.574476	-0.124328
H78	H	1.571620	1.074476	0.375672
H79	H	1.078005	0.473653	-0.208629
H80	H	1.578005	0.973653	0.291371
H81	H	0.951738	0.507982	-0.124318
H82	H	1.451738	1.007982	0.375682
H83	H	1.144517	0.482406	-0.000052
H84	H	1.644517	0.982406	0.499948
H85	H	1.018252	0.516751	0.084286
H86	H	1.518252	1.016751	0.584286
H87	H	1.523943	0.310669	0.354152
H88	H	2.023943	0.810669	0.854152
C89	C	1.203994	0.396181	0.630888
C90	C	1.703994	0.896181	1.130888
C91	C	1.317832	0.434007	0.667540
C92	C	1.817832	0.934007	1.167540
H93	H	1.140165	0.434368	0.682663
H94	H	1.640165	0.934368	1.182663
H95	H	1.208004	0.393788	0.529395
H96	H	1.708004	0.893788	1.029395
H97	H	1.186603	0.334738	0.655774
H98	H	1.686603	0.834738	1.155774
H99	H	1.335227	0.495448	0.642645
H100	H	1.835227	0.995448	1.142645
H101	H	1.313824	0.436411	0.769056
H102	H	1.813824	0.936411	1.269056
H103	H	1.303933	0.442304	0.406195
H104	H	1.803933	0.942304	0.906195
C105	C	1.596973	0.266401	0.422428
C106	C	2.096973	0.766401	0.922428
C107	C	1.591206	0.270043	0.572047
C108	C	2.091206	0.770043	1.072047
H109	H	1.660562	0.227989	0.370670
H110	H	2.160562	0.727989	0.870670
H111	H	1.519607	0.240956	0.397764
H112	H	2.019607	0.740956	0.897764
H113	H	1.614683	0.327790	0.397380
H114	H	2.114683	0.827790	0.897380
H115	H	1.573487	0.208654	0.597097
H116	H	2.073487	0.708654	1.097097
H117	H	1.668590	0.295484	0.596721
H118	H	2.168590	0.795484	1.096721
H119	H	0.824606	0.276108	-0.000055
H120	H	1.324606	0.776108	0.499945
