data_functionalizedCrystal
_audit_creation_method	'MofGen! by Chris Wilmer'
_symmetry_space_group_name_H-M	'P1'
_symmetry_Int_Tables_number	1
_symmetry_cell_setting	triclinic
loop_
_symmetry_equiv_pos_as_xyz
  x,y,z
_cell_length_a	16.974829
_cell_length_b	16.992695
_cell_length_c	16.053802
_cell_angle_alpha	92.741074
_cell_angle_beta	83.771117
_cell_angle_gamma	87.025716
loop_
_atom_site_label
_atom_site_type_symbol
_atom_site_fract_x
_atom_site_fract_y
_atom_site_fract_z
O1	O	1.061820	0.093240	-0.141172
O2	O	1.561820	0.593240	0.358828
O3	O	0.831718	0.106701	-0.125627
O4	O	1.331718	0.606701	0.374373
O5	O	0.945846	-0.014168	-0.133331
O6	O	1.445846	0.485832	0.366669
O7	O	0.947691	0.214109	-0.133469
O8	O	1.447691	0.714109	0.366531
O9	O	0.939562	-0.007542	0.005952
O10	O	1.439562	0.492458	0.505952
O11	O	0.825434	0.113327	0.013656
O12	O	1.325434	0.613327	0.513656
O13	O	1.055536	0.099865	-0.001889
O14	O	1.555536	0.599865	0.498111
Zn15	Zn	0.939487	0.107648	0.027998
Zn16	Zn	1.439487	0.607648	0.527998
Zn17	Zn	0.947766	0.098919	-0.155514
Zn18	Zn	1.447766	0.598919	0.344486
O19	O	0.941408	0.220735	0.005814
O20	O	1.441408	0.720735	0.505814
C21	C	0.798997	0.109624	-0.053987
C22	C	1.298997	0.609624	0.446013
C23	C	0.710860	0.108453	-0.048033
C24	C	1.210860	0.608453	0.451967
C25	C	0.214374	0.102275	-0.006365
C26	C	0.714374	0.602275	0.493635
C27	C	0.297188	0.103375	-0.011962
C28	C	0.797188	0.603375	0.488038
C29	C	0.342021	0.100308	-0.090685
C30	C	0.842021	0.600308	0.409315
C31	C	0.304035	0.096148	-0.163816
C32	C	0.804035	0.596148	0.336184
C33	C	0.221222	0.095053	-0.158218
C34	C	0.721222	0.595053	0.341782
C35	C	0.590062	0.103199	-0.115566
C36	C	1.090062	0.603199	0.384434
C37	C	0.672880	0.104291	-0.121158
C38	C	1.172880	0.604291	0.378842
C39	C	0.666027	0.111520	0.030696
C40	C	1.166027	0.611520	0.530696
C41	C	0.583213	0.110421	0.036287
C42	C	1.083213	0.610421	0.536287
C43	C	0.545235	0.106265	-0.036844
C44	C	1.045235	0.606265	0.463156
N45	N	0.426670	0.101430	-0.096407
N46	N	0.926670	0.601430	0.403593
N47	N	0.460586	0.105149	-0.031121
N48	N	0.960586	0.605149	0.468879
C49	C	0.940331	-0.040057	-0.063529
C50	C	1.440331	0.459943	0.436471
C51	C	0.933250	-0.127071	-0.063051
C52	C	1.433250	0.372929	0.436949
C53	C	1.001573	-0.177603	-0.067666
C54	C	1.501573	0.322397	0.432334
C55	C	0.994915	-0.259362	-0.067224
C56	C	1.494915	0.240638	0.432776
C57	C	0.919933	-0.290587	-0.062161
C58	C	1.419933	0.209413	0.437839
C59	C	0.851605	-0.240049	-0.057548
C60	C	1.351605	0.259951	0.442452
C61	C	0.858263	-0.158292	-0.057996
C62	C	1.358263	0.341708	0.442004
C63	C	0.892335	-0.534067	-0.060308
C64	C	1.392335	-0.034067	0.439692
C65	C	0.885681	-0.615830	-0.059858
C66	C	1.385681	-0.115830	0.440142
C67	C	1.028992	-0.635138	-0.069535
C68	C	1.528992	-0.135138	0.430465
C69	C	1.035645	-0.553378	-0.069978
C70	C	1.535645	-0.053378	0.430022
C71	C	0.967316	-0.502848	-0.065369
C72	C	1.467316	-0.002848	0.434631
N73	N	0.913126	-0.374157	-0.061707
N74	N	1.413126	0.125843	0.438293
N75	N	0.974125	-0.419280	-0.065830
N76	N	1.474125	0.080720	0.434170
C77	C	1.088257	0.096942	-0.073531
C78	C	1.588257	0.596942	0.426469
C79	C	1.176394	0.098113	-0.079491
C80	C	1.676394	0.598113	0.420509
C81	C	0.946923	0.246624	-0.063989
C82	C	1.446923	0.746624	0.436011
C83	C	0.954004	0.333638	-0.064473
C84	C	1.454004	0.833638	0.435527
N85	N	0.933843	0.113605	0.153239
N86	N	1.433843	0.613605	0.653239
N87	N	0.953417	0.092955	-0.280756
N88	N	1.453417	0.592955	0.219244
C89	C	0.982425	0.062194	0.193654
C90	C	1.482425	0.562194	0.693654
C91	C	0.978484	0.066368	0.281326
C92	C	1.478484	0.566368	0.781326
C93	C	0.925965	0.121959	0.328583
C94	C	1.425965	0.621959	0.828583
C95	C	0.877378	0.173373	0.288162
C96	C	1.377378	0.673373	0.788162
C97	C	0.881315	0.169194	0.200491
C98	C	1.381315	0.669194	0.700491
C99	C	0.908767	0.140191	0.591153
C100	C	1.408767	0.640191	1.091153
C101	C	0.904835	0.144367	0.678830
C102	C	1.404835	0.644367	1.178830
C103	C	1.005940	0.037361	0.671988
C104	C	1.505940	0.537361	1.171988
C105	C	1.009876	0.033190	0.584315
C106	C	1.509876	0.533190	1.084315
C107	C	0.961286	0.084601	0.543903
C108	C	1.461286	0.584601	1.043903
N109	N	0.921938	0.126229	0.418198
N110	N	1.421938	0.626229	0.918198
N111	N	0.965310	0.080327	0.454289
N112	N	1.465310	0.580327	0.954289
H113	H	0.177877	0.104777	0.057739
H114	H	0.677877	0.604777	0.557739
H115	H	0.790553	-0.265479	-0.053431
H116	H	1.290553	0.234521	0.446569
H117	H	0.834612	0.218634	0.326644
H118	H	1.334612	0.718634	0.826644
N119	N	0.180249	0.090563	-0.237085
N120	N	0.680249	0.590563	0.262915
H121	H	0.192812	0.137762	-0.271033
H122	H	0.692812	0.637762	0.228967
H123	H	0.199517	0.040553	-0.271409
H124	H	0.699517	0.540553	0.228591
H125	H	0.824618	-0.641249	-0.055722
H126	H	1.324618	-0.141249	0.444278
N127	N	0.818641	-0.479573	-0.055334
N128	N	1.318641	0.020427	0.444666
H129	H	0.770132	-0.511762	-0.052055
H130	H	1.270132	-0.011762	0.447945
H131	H	0.815952	-0.442777	-0.003676
H132	H	1.315952	0.057223	0.496324
H133	H	0.841754	0.211058	0.167587
H134	H	1.341754	0.711058	0.667587
N135	N	1.039076	0.002239	0.142687
N136	N	1.539076	0.502239	0.642687
H137	H	1.069252	-0.029697	0.181596
H138	H	1.569252	0.470303	0.681596
H139	H	1.008154	-0.034038	0.108524
H140	H	1.508154	0.465962	0.608524
N141	N	1.068608	-0.313862	-0.072191
N142	N	1.568608	0.186138	0.427809
H143	H	1.053015	-0.370393	-0.071144
H144	H	1.553015	0.129607	0.428856
H145	H	1.103396	-0.306238	-0.126014
H146	H	1.603396	0.193762	0.373986
N147	N	0.721238	0.100988	-0.206070
N148	N	1.221238	0.600988	0.293930
H149	H	0.759092	0.052689	-0.211997
H150	H	1.259092	0.552689	0.288003
H151	H	0.684559	0.098222	-0.251498
H152	H	1.184559	0.598222	0.248502
H153	H	1.062631	-0.152186	-0.071783
H154	H	1.562631	0.347814	0.428217
N155	N	0.352392	0.092836	-0.248722
N156	N	0.852392	0.592836	0.251278
H157	H	0.342820	0.042476	-0.281161
H158	H	0.842820	0.542476	0.218839
H159	H	0.336112	0.139690	-0.280655
H160	H	0.836112	0.639690	0.219345
N161	N	1.116514	-0.519692	-0.075460
N162	N	1.616514	-0.019692	0.424540
H163	H	1.120145	-0.483745	-0.024233
H164	H	1.620145	0.016255	0.475767
H165	H	1.158748	-0.564149	-0.078351
H166	H	1.658748	-0.064149	0.421649
N167	N	0.338153	0.107872	0.066909
N168	N	0.838153	0.607872	0.566909
H169	H	0.297185	0.109647	0.117628
H170	H	0.797185	0.609647	0.617628
H171	H	0.375714	0.059896	0.067676
H172	H	0.875714	0.559896	0.567676
H173	H	1.084621	-0.676288	-0.073288
H174	H	1.584621	-0.176288	0.426712
H175	H	0.802627	-0.117149	-0.054238
H176	H	1.302627	0.382851	0.445762
N177	N	1.058337	-0.018093	0.715579
N178	N	1.558337	0.481907	1.215579
H179	H	1.092205	-0.053942	0.672338
H180	H	1.592205	0.446058	1.172338
H181	H	1.093666	0.013523	0.749442
H182	H	1.593666	0.513523	1.249442
N183	N	1.030912	0.010944	0.324916
N184	N	1.530912	0.510944	0.824916
H185	H	1.064793	-0.024894	0.281675
H186	H	1.564793	0.475106	0.781675
H187	H	1.066226	0.042591	0.358764
H188	H	1.566226	0.542591	0.858764
N189	N	1.066522	-0.026768	0.533348
N190	N	1.566522	0.473232	1.033348
H191	H	1.096701	-0.058705	0.572254
H192	H	1.596701	0.441295	1.072254
H193	H	1.035599	-0.063044	0.499185
H194	H	1.535599	0.436956	0.999185
N195	N	0.549105	0.098703	-0.194439
N196	N	1.049105	0.598703	0.305561
H197	H	0.561672	0.145898	-0.228392
H198	H	1.061672	0.645898	0.271608
H199	H	0.568381	0.048691	-0.228754
H200	H	1.068381	0.548691	0.271246
H201	H	0.869204	0.182053	0.558256
H202	H	1.369204	0.682053	1.058256
N203	N	0.848195	0.204336	0.729802
N204	N	1.348195	0.704336	1.229802
H205	H	0.818012	0.236272	0.690898
H206	H	1.318012	0.736272	1.190898
H207	H	0.809604	0.176193	0.768696
H208	H	1.309604	0.676193	1.268696
H209	H	0.696958	0.114905	0.090235
H210	H	1.196958	0.614905	0.590235
N211	N	0.534856	0.113726	0.121193
N212	N	1.034856	0.613726	0.621193
H213	H	0.571516	0.115976	0.166669
H214	H	1.071516	0.615976	0.666669
H215	H	0.497388	0.162313	0.127270
H216	H	0.997388	0.662313	0.627270
