data_functionalizedCrystal
_audit_creation_method	'MofGen! by Chris Wilmer'
_symmetry_space_group_name_H-M	'P1'
_symmetry_Int_Tables_number	1
_symmetry_cell_setting	triclinic
loop_
_symmetry_equiv_pos_as_xyz
  x,y,z
_cell_length_a	21.395362
_cell_length_b	21.295417
_cell_length_c	21.395356
_cell_angle_alpha	89.970425
_cell_angle_beta	89.957023
_cell_angle_gamma	90.045579
loop_
_atom_site_label
_atom_site_type_symbol
_atom_site_fract_x
_atom_site_fract_y
_atom_site_fract_z
Zn1	Zn	0.957858	-0.250358	-0.354577
Zn2	Zn	1.457858	0.249642	0.145423
Zn3	Zn	0.957764	-0.355627	-0.249796
Zn4	Zn	1.457764	0.144373	0.250204
Zn5	Zn	0.853075	-0.250404	-0.249779
Zn6	Zn	1.353075	0.249596	0.250221
Zn7	Zn	0.853044	-0.355623	-0.354501
Zn8	Zn	1.353044	0.144377	0.145499
O9	O	0.905435	-0.303003	-0.302163
O10	O	1.405435	0.196997	0.197837
O11	O	1.045523	-0.264305	-0.340717
O12	O	1.545523	0.235695	0.159283
O13	O	0.943850	-0.341690	-0.162116
O14	O	1.443850	0.158310	0.337884
O15	O	0.867027	-0.162309	-0.263705
O16	O	1.367027	0.337691	0.236295
O17	O	1.045454	-0.341645	-0.263735
O18	O	1.545454	0.158355	0.236265
O19	O	0.944010	-0.162275	-0.340700
O20	O	1.444010	0.337725	0.159300
O21	O	0.866935	-0.264383	-0.162103
O22	O	1.366935	0.235617	0.337897
O23	O	0.765393	-0.264380	-0.263631
O24	O	1.265393	0.235620	0.236369
O25	O	0.866974	-0.341638	-0.442189
O26	O	1.366974	0.158362	0.057811
O27	O	0.765370	-0.341683	-0.340570
O28	O	1.265370	0.158317	0.159430
O29	O	0.943981	-0.264301	-0.442245
O30	O	1.443981	0.235699	0.057755
O31	O	0.943821	-0.443716	-0.263661
O32	O	1.443821	0.056284	0.236339
O33	O	0.866883	-0.443713	-0.340587
O34	O	1.366883	0.056287	0.159413
C35	C	0.742647	-0.303036	-0.302091
C36	C	1.242647	0.196964	0.197909
C37	C	0.673006	-0.303066	-0.302074
C38	C	1.173006	0.196934	0.197926
C39	C	0.640298	-0.343371	-0.342077
C40	C	1.140298	0.156629	0.157923
C41	C	0.574862	-0.343356	-0.342105
C42	C	1.074862	0.156644	0.157895
C43	C	0.542138	-0.303042	-0.302119
C44	C	1.042138	0.196958	0.197881
C45	C	0.574854	-0.262728	-0.262114
C46	C	1.074854	0.237272	0.237886
C47	C	0.640288	-0.262741	-0.262092
C48	C	1.140288	0.237259	0.237908
C49	C	0.438414	-0.297979	-0.245714
C50	C	0.938414	0.202021	0.254286
C51	C	0.372981	-0.297972	-0.245735
C52	C	0.872981	0.202028	0.254265
C53	C	0.340317	-0.303000	-0.302188
C54	C	0.840317	0.197000	0.197812
C55	C	0.373094	-0.308050	-0.358622
C56	C	0.873094	0.191950	0.141378
C57	C	0.438528	-0.308062	-0.358599
C58	C	0.938528	0.191938	0.141401
C59	C	0.471186	-0.303024	-0.302139
C60	C	0.971186	0.196976	0.197861
C61	C	0.236656	-0.343291	-0.342224
C62	C	0.736656	0.156709	0.157776
C63	C	0.171220	-0.343271	-0.342253
C64	C	0.671220	0.156729	0.157747
C65	C	0.171213	-0.262647	-0.262257
C66	C	0.671213	0.237353	0.237743
C67	C	0.236648	-0.262664	-0.262234
C68	C	0.736648	0.237336	0.237766
C69	C	0.269366	-0.302989	-0.302216
C70	C	0.769366	0.197011	0.197784
C71	C	0.905355	-0.466555	-0.302132
C72	C	1.405355	0.033445	0.197868
C73	C	0.905378	-0.536523	-0.302139
C74	C	1.405378	-0.036523	0.197861
C75	C	0.945441	-0.569315	-0.342259
C76	C	1.445441	-0.069315	0.157741
C77	C	0.945463	-0.635057	-0.342275
C78	C	1.445463	-0.135057	0.157725
C79	C	0.905429	-0.668005	-0.302159
C80	C	1.405429	-0.168005	0.197841
C81	C	0.865359	-0.635206	-0.262036
C82	C	1.365359	-0.135206	0.237964
C83	C	0.865334	-0.569464	-0.262026
C84	C	1.365334	-0.069464	0.237974
N85	N	0.900693	-0.771268	-0.247324
N86	N	1.400693	-0.271268	0.252676
N87	N	0.900721	-0.833719	-0.247335
N88	N	1.400721	-0.333719	0.252665
C89	C	0.905502	-0.866080	-0.302187
C90	C	1.405502	-0.366080	0.197813
N91	N	0.910268	-0.833630	-0.357029
N92	N	1.410268	-0.333630	0.142971
N93	N	0.910243	-0.771173	-0.357017
N94	N	1.410243	-0.271173	0.142983
C95	C	0.905452	-0.739291	-0.302165
C96	C	1.405452	-0.239291	0.197835
C97	C	0.945591	-0.970157	-0.342327
C98	C	1.445591	-0.470157	0.157673
C99	C	0.945609	-1.035901	-0.342344
C100	C	1.445609	-0.535901	0.157656
C101	C	0.865508	-1.036048	-0.262100
C102	C	1.365508	-0.536048	0.237900
C103	C	0.865487	-0.970306	-0.262089
C104	C	1.365487	-0.470306	0.237911
C105	C	0.905532	-0.937364	-0.302202
C106	C	1.405532	-0.437364	0.197798
C107	C	1.068858	-0.302970	-0.302237
C108	C	1.568858	0.197030	0.197763
C109	C	1.138500	-0.302956	-0.302268
C110	C	1.638500	0.197044	0.197732
C111	C	0.905484	-0.302964	-0.465587
C112	C	1.405484	0.197036	0.034413
C113	C	0.905505	-0.302947	-0.535228
C114	C	1.405505	0.197053	-0.035228
C115	C	0.905532	-0.138813	-0.302209
C116	C	1.405532	0.361187	0.197791
C117	C	0.905574	-0.068845	-0.302228
C118	C	1.405574	0.431155	0.197772
C119	C	0.865467	-0.262689	-0.567925
C120	C	1.365467	0.237311	-0.067925
C121	C	0.865464	-0.262678	-0.633360
C122	C	1.365464	0.237322	-0.133360
C123	C	0.905512	-0.302917	-0.666096
C124	C	1.405512	0.197083	-0.166096
C125	C	0.945554	-0.343183	-0.633392
C126	C	1.445554	0.156817	-0.133392
C127	C	0.945551	-0.343198	-0.567958
C128	C	1.445551	0.156802	-0.067958
C129	C	0.961964	-0.307851	-0.769802
C130	C	1.461964	0.192149	-0.269802
C131	C	0.961969	-0.307831	-0.835235
C132	C	1.461969	0.192169	-0.335235
C133	C	0.905523	-0.302875	-0.867917
C134	C	1.405523	0.197125	-0.367917
C135	C	0.849070	-0.297925	-0.835159
C136	C	1.349070	0.202075	-0.335159
C137	C	0.849067	-0.297940	-0.769725
C138	C	1.349067	0.202060	-0.269725
C139	C	0.905520	-0.302906	-0.737049
C140	C	1.405520	0.197094	-0.237049
C141	C	0.865478	-0.262602	-0.971566
C142	C	1.365478	0.237398	-0.471566
C143	C	0.865475	-0.262595	-1.037003
C144	C	1.365475	0.237405	-0.537003
C145	C	0.945570	-0.343097	-1.037034
C146	C	1.445570	0.156903	-0.537034
C147	C	0.945568	-0.343108	-0.971598
C148	C	1.445568	0.156892	-0.471598
C149	C	0.905523	-0.302857	-0.938869
C150	C	1.405523	0.197143	-0.438869
C151	C	0.905422	-0.302997	-0.139376
C152	C	1.405422	0.197003	0.360624
C153	C	0.905523	-0.302836	-0.069735
C154	C	1.405523	0.197164	0.430265
H155	H	0.346501	-0.312144	-0.404591
H156	H	0.846501	0.187856	0.095409
O157	O	0.543177	-0.382566	-0.380987
O158	O	1.043177	0.117434	0.119013
C159	C	0.550085	-0.462505	-0.460358
C160	C	1.050085	0.037495	0.039642
C161	C	0.586043	-0.418146	-0.416343
C162	C	1.086043	0.081854	0.083657
H163	H	0.584726	-0.491273	-0.488963
H164	H	1.084726	0.008727	0.011037
H165	H	0.519401	-0.495418	-0.431573
H166	H	1.019401	0.004582	0.068427
H167	H	0.519499	-0.433628	-0.493154
H168	H	1.019499	0.066372	0.006846
H169	H	0.616663	-0.446972	-0.383538
H170	H	1.116663	0.053028	0.116462
H171	H	0.616687	-0.385232	-0.445166
H172	H	1.116687	0.114768	0.054834
H173	H	0.144589	-0.376091	-0.374832
H174	H	0.644589	0.123909	0.125168
H175	H	0.465004	-0.293882	-0.199740
H176	H	0.965004	0.206118	0.300260
H177	H	0.832908	-1.062874	-0.229441
H178	H	1.332908	-0.562874	0.270559
O179	O	0.984415	-0.666985	-0.381163
O180	O	1.484415	-0.166985	0.118837
C181	C	1.069061	-0.741068	-0.389705
C182	C	1.569061	-0.241068	0.110295
C183	C	1.024978	-0.704966	-0.345593
C184	C	1.524978	-0.204966	0.154407
H185	H	1.101876	-0.771775	-0.360963
H186	H	1.601876	-0.271775	0.139037
H187	H	1.040329	-0.771901	-0.422428
H188	H	1.540329	-0.271901	0.077572
H189	H	1.097644	-0.706214	-0.418384
H190	H	1.597644	-0.206214	0.081616
H191	H	0.996386	-0.739775	-0.316872
H192	H	1.496386	-0.239775	0.183128
H193	H	1.053746	-0.674123	-0.312911
H194	H	1.553746	-0.174123	0.187089
O195	O	0.826653	-0.223531	-0.536103
O196	O	1.326653	0.276469	-0.036103
C197	C	0.818264	-0.138589	-0.462212
C198	C	1.318264	0.361411	0.037788
C199	C	0.862293	-0.182885	-0.498225
C200	C	1.362293	0.317115	0.001775
H201	H	0.847061	-0.105725	-0.431569
H202	H	1.347061	0.394275	0.068431
H203	H	0.789655	-0.109768	-0.496795
H204	H	1.289655	0.390232	0.003205
H205	H	0.785471	-0.167520	-0.431576
H206	H	1.285471	0.332480	0.068424
H207	H	0.895124	-0.154003	-0.528861
H208	H	1.395124	0.345997	-0.028861
H209	H	0.890858	-0.211709	-0.463607
H210	H	1.390858	0.288291	0.036393
H211	H	0.465213	-0.312172	-0.404550
H212	H	0.965213	0.187828	0.095450
O213	O	0.984418	-0.382392	-0.536262
O214	O	1.484418	0.117608	-0.036262
C215	C	1.014741	-0.489469	-0.516196
C216	C	1.514741	0.010531	-0.016196
C217	C	0.970693	-0.445154	-0.552143
C218	C	1.470693	0.054846	-0.052143
H219	H	1.003652	-0.540222	-0.529012
H220	H	1.503652	-0.040222	-0.029012
H221	H	1.065280	-0.478455	-0.529114
H222	H	1.565280	0.021545	-0.029114
H223	H	1.007871	-0.482532	-0.463810
H224	H	1.507871	0.017468	0.036190
H225	H	0.977507	-0.452066	-0.604538
H226	H	1.477507	0.047934	-0.104538
H227	H	0.920170	-0.456179	-0.539173
H228	H	1.420170	0.043821	-0.039173
H229	H	1.007934	-0.311882	-0.743197
H230	H	1.507934	0.188118	-0.243197
O231	O	0.984400	-0.537287	-0.381138
O232	O	1.484400	-0.037287	0.118862
C233	C	1.068930	-0.462924	-0.389668
C234	C	1.568930	0.037076	0.110332
C235	C	1.024861	-0.499170	-0.345565
C236	C	1.524861	0.000830	0.154435
H237	H	1.101645	-0.432089	-0.360925
H238	H	1.601645	0.067911	0.139075
H239	H	1.097615	-0.497629	-0.418337
H240	H	1.597615	0.002371	0.081663
H241	H	1.040121	-0.432188	-0.422401
H242	H	1.540121	0.067812	0.077599
H243	H	1.053622	-0.529908	-0.312794
H244	H	1.553622	-0.029908	0.187206
H245	H	0.996175	-0.464432	-0.316939
H246	H	1.496175	0.035568	0.183061
O247	O	0.984589	-1.067660	-0.381337
O248	O	1.484589	-0.567660	0.118663
C249	C	1.064021	-1.060573	-0.460938
C250	C	1.564021	-0.560573	0.039062
C251	C	1.019917	-1.024527	-0.416802
C252	C	1.519917	-0.524527	0.083198
H253	H	1.092586	-1.025716	-0.489632
H254	H	1.592586	-0.525716	0.010368
H255	H	1.096846	-1.091315	-0.432244
H256	H	1.596846	-0.591315	0.067756
H257	H	1.035245	-1.091380	-0.493646
H258	H	1.535245	-0.591380	0.006354
H259	H	1.048642	-0.993686	-0.384085
H260	H	1.548642	-0.493686	0.115915
H261	H	0.987090	-0.993825	-0.445535
H262	H	1.487090	-0.493825	0.054465
H263	H	0.978196	-0.943335	-0.374992
H264	H	1.478196	-0.443335	0.125008
H265	H	0.978161	-0.375947	-0.660050
H266	H	1.478161	0.124053	-0.160050
H267	H	0.144569	-0.229820	-0.229703
H268	H	0.644569	0.270180	0.270297
H269	H	0.263280	-0.229846	-0.229656
H270	H	0.763280	0.270154	0.270344
H271	H	0.666932	-0.376206	-0.374635
H272	H	1.166932	0.123794	0.125365
H273	H	0.832762	-0.662036	-0.229375
H274	H	1.332762	-0.162036	0.270625
H275	H	0.263296	-0.376123	-0.374784
H276	H	0.763296	0.123877	0.125216
H277	H	0.346299	-0.293864	-0.199784
H278	H	0.846299	0.206136	0.300216
H279	H	0.666919	-0.229917	-0.229517
H280	H	1.166919	0.270083	0.270483
O281	O	0.543139	-0.223599	-0.223183
O282	O	1.043139	0.276401	0.276817
C283	C	0.523010	-0.192924	-0.116664
C284	C	1.023010	0.307076	0.383336
C285	C	0.558974	-0.237271	-0.160684
C286	C	1.058974	0.262729	0.339316
H287	H	0.535789	-0.203970	-0.066124
H288	H	1.035789	0.296030	0.433876
H289	H	0.535948	-0.142171	-0.127704
H290	H	1.035948	0.357829	0.372296
H291	H	0.470626	-0.199828	-0.123580
H292	H	0.970626	0.300172	0.376420
H293	H	0.611366	-0.230423	-0.153792
H294	H	1.111366	0.269577	0.346208
H295	H	0.545984	-0.288007	-0.149633
H296	H	1.045984	0.211993	0.350367
H297	H	0.832861	-0.229892	-0.659987
H298	H	1.332861	0.270108	-0.159987
O299	O	0.826508	-0.938421	-0.223199
O300	O	1.326508	-0.438421	0.276801
C301	C	0.741917	-0.864275	-0.214648
C302	C	1.241917	-0.364275	0.285352
C303	C	0.786016	-0.900355	-0.258762
C304	C	1.286016	-0.400355	0.241238
H305	H	0.709177	-0.833480	-0.243382
H306	H	1.209177	-0.333480	0.256618
H307	H	0.713261	-0.899087	-0.185989
H308	H	1.213261	-0.399087	0.314011
H309	H	0.770702	-0.833512	-0.181906
H310	H	1.270702	-0.333512	0.318094
H311	H	0.757280	-0.931118	-0.291542
H312	H	1.257280	-0.431118	0.208458
H313	H	0.814674	-0.865509	-0.287377
H314	H	1.314674	-0.365509	0.212623
O315	O	0.794175	-0.293161	-0.738000
O316	O	1.294175	0.206839	-0.238000
C317	C	0.682197	-0.283304	-0.744821
C318	C	1.182197	0.216696	-0.244821
C319	C	0.744316	-0.288723	-0.780827
C320	C	1.244316	0.211277	-0.280827
H321	H	0.641871	-0.279702	-0.779432
H322	H	1.141871	0.220298	-0.279432
H323	H	0.675516	-0.326615	-0.714188
H324	H	1.175516	0.173385	-0.214188
H325	H	0.683225	-0.239535	-0.714181
H326	H	1.183225	0.260465	-0.214181
H327	H	0.743332	-0.332467	-0.811502
H328	H	1.243332	0.167533	-0.311502
H329	H	0.750973	-0.245381	-0.811421
H330	H	1.250973	0.254619	-0.311421
O331	O	0.826397	-0.537705	-0.222990
O332	O	1.326397	-0.037705	0.277010
C333	C	0.746922	-0.544788	-0.143431
C334	C	1.246922	-0.044788	0.356569
C335	C	0.790995	-0.580835	-0.187598
C336	C	1.290995	-0.080835	0.312402
H337	H	0.718279	-0.579643	-0.114814
H338	H	1.218279	-0.079643	0.385186
H339	H	0.775664	-0.514017	-0.110658
H340	H	1.275664	-0.014017	0.389342
H341	H	0.714164	-0.514010	-0.172162
H342	H	1.214164	-0.014010	0.327838
H343	H	0.823762	-0.611648	-0.158918
H344	H	1.323762	-0.111648	0.341082
H345	H	0.762215	-0.611567	-0.220373
H346	H	1.262215	-0.111567	0.279627
O347	O	0.794236	-0.293233	-0.866921
O348	O	1.294236	0.206767	-0.366921
C349	C	0.724005	-0.341380	-0.940742
C350	C	1.224005	0.158620	-0.440742
C351	C	0.786112	-0.346777	-0.904800
C352	C	1.286112	0.153223	-0.404800
H353	H	0.717423	-0.384658	-0.971387
H354	H	1.217423	0.115342	-0.471387
H355	H	0.683636	-0.337888	-0.906113
H356	H	1.183636	0.162112	-0.406113
H357	H	0.724999	-0.297569	-0.971370
H358	H	1.224999	0.202431	-0.471370
H359	H	0.785180	-0.390587	-0.874171
H360	H	1.285180	0.109413	-0.374171
H361	H	0.826455	-0.350234	-0.939464
H362	H	1.326455	0.149766	-0.439464
H363	H	0.832871	-0.229828	-0.944916
H364	H	1.332871	0.270172	-0.444916
H365	H	0.832866	-0.229814	-1.063623
H366	H	1.332866	0.270186	-0.563623
O367	O	0.984459	-0.382122	-1.068923
O368	O	1.484459	0.117878	-0.568923
C369	C	1.019945	-0.417793	-1.169742
C370	C	1.519945	0.082207	-0.669742
C371	C	0.975880	-0.373556	-1.133702
C372	C	1.475880	0.126444	-0.633702
H373	H	1.013016	-0.410892	-1.222122
H374	H	1.513016	0.089108	-0.722122
H375	H	1.070484	-0.406722	-1.156958
H376	H	1.570484	0.093278	-0.656958
H377	H	1.008927	-0.468552	-1.156819
H378	H	1.508927	0.031448	-0.656819
H379	H	0.986843	-0.322781	-1.146605
H380	H	1.486843	0.177219	-0.646605
H381	H	0.925355	-0.384680	-1.146489
H382	H	1.425355	0.115320	-0.646489
H383	H	0.978173	-0.375889	-0.944977
H384	H	1.478173	0.124111	-0.444977
O385	O	1.016857	-0.312672	-0.866956
O386	O	1.516857	0.187328	-0.366956
C387	C	1.128839	-0.322472	-0.860124
C388	C	1.628839	0.177528	-0.360124
C389	C	1.066721	-0.317009	-0.824124
C390	C	1.566721	0.182991	-0.324124
H391	H	1.169172	-0.325967	-0.825511
H392	H	1.669172	0.174033	-0.325511
H393	H	1.127882	-0.366269	-0.890730
H394	H	1.627882	0.133731	-0.390730
H395	H	1.135452	-0.279177	-0.890792
H396	H	1.635452	0.220823	-0.390792
H397	H	1.060069	-0.360271	-0.793423
H398	H	1.560069	0.139729	-0.293423
H399	H	1.067707	-0.273186	-0.793558
H400	H	1.567707	0.226814	-0.293558
