data_functionalizedCrystal
_audit_creation_method	'MofGen! by Chris Wilmer'
_symmetry_space_group_name_H-M	'P1'
_symmetry_Int_Tables_number	1
_symmetry_cell_setting	triclinic
loop_
_symmetry_equiv_pos_as_xyz
  x,y,z
_cell_length_a	13.339070
_cell_length_b	11.026607
_cell_length_c	9.483290
_cell_angle_alpha	98.153647
_cell_angle_beta	97.433054
_cell_angle_gamma	112.107656
loop_
_atom_site_label
_atom_site_type_symbol
_atom_site_fract_x
_atom_site_fract_y
_atom_site_fract_z
O1	O	0.432986	1.739029	-0.120881
O2	O	0.381598	1.368420	-0.120884
O3	O	0.252283	1.511191	-0.120878
O4	O	0.562301	1.596257	-0.120886
O5	O	0.288881	1.557342	0.120897
O6	O	0.418196	1.414571	0.120892
O7	O	0.469584	1.785180	0.120894
Cu8	Cu	0.447232	1.604090	0.142969
Cu9	Cu	0.403950	1.549510	-0.142958
O10	O	0.598898	1.642409	0.120889
C11	C	0.390416	1.343092	0.000004
C12	C	0.362155	1.198863	0.000003
C13	C	0.440188	1.151330	-0.000000
C14	C	0.410981	1.002262	-0.000002
C15	C	0.230276	1.519897	0.000007
C16	C	0.110173	1.477063	0.000001
C17	C	-0.193970	1.810106	0.000004
C18	C	-0.081126	1.850356	0.000018
C19	C	-0.033296	1.757036	0.000014
C20	C	-0.098321	1.623460	-0.000004
C21	C	-0.211174	1.583208	-0.000007
C22	C	-0.050500	1.530138	0.000002
C23	C	-0.115525	1.396562	-0.000015
C24	C	-0.228367	1.356316	-0.000019
C25	C	-0.276197	1.449636	-0.000014
C26	C	0.062354	1.570390	0.000005
C27	C	0.045150	1.343492	-0.000006
C28	C	-0.067694	1.303242	-0.000020
C29	C	0.620905	1.633702	0.000000
C30	C	0.741007	1.676534	-0.000003
C31	C	0.460765	1.810507	0.000004
C32	C	0.489024	1.954735	-0.000004
N33	N	0.477674	1.642487	0.344075
N34	N	0.373501	1.511120	-0.344064
C35	C	0.438254	1.592788	0.583706
C36	C	0.412912	1.560807	0.416301
H37	H	0.322540	0.932593	-0.000036
F38	F	0.276520	1.388776	0.574779
H39	H	0.512455	1.686381	0.645803
H40	H	0.115287	1.679148	0.000020
H41	H	0.338712	1.467201	0.354210
H42	H	0.551884	1.736082	0.406164
H43	H	0.528618	1.220997	0.000006
F44	F	0.086803	1.799876	0.000024
F45	F	0.604619	1.045783	0.000010
H46	H	-0.368084	1.416870	-0.000031
H47	H	0.273721	1.129190	-0.000032
H48	H	-0.028190	1.959114	0.000035
H49	H	-0.281306	1.247552	-0.000023
H50	H	-0.232923	1.886074	0.000020
H51	H	-0.120653	1.194481	-0.000034
H52	H	0.084093	1.267504	-0.000003
