data_functionalizedCrystal
_audit_creation_method	'MofGen! by Chris Wilmer'
_symmetry_space_group_name_H-M	'P1'
_symmetry_Int_Tables_number	1
_symmetry_cell_setting	triclinic
loop_
_symmetry_equiv_pos_as_xyz
  x,y,z
_cell_length_a	14.853567
_cell_length_b	14.044220
_cell_length_c	13.930277
_cell_angle_alpha	89.994760
_cell_angle_beta	89.995755
_cell_angle_gamma	88.411904
loop_
_atom_site_label
_atom_site_type_symbol
_atom_site_fract_x
_atom_site_fract_y
_atom_site_fract_z
O1	O	1.206174	0.123767	-0.079767
O2	O	1.706174	0.623767	0.420233
O3	O	0.944883	0.138510	-0.079784
O4	O	1.444883	0.638510	0.420216
O5	O	1.071607	-0.006851	-0.079766
O6	O	1.571607	0.493149	0.420234
O7	O	1.079450	0.269128	-0.079785
O8	O	1.579450	0.769128	0.420215
O9	O	1.071587	-0.006854	0.079896
O10	O	1.571587	0.493146	0.579896
O11	O	0.944863	0.138507	0.079878
O12	O	1.444863	0.638507	0.579878
O13	O	1.206155	0.123764	0.079895
O14	O	1.706155	0.623764	0.579895
Zn15	Zn	1.075506	0.131135	0.105236
Zn16	Zn	1.575506	0.631135	0.605236
Zn17	Zn	1.075532	0.131139	-0.105125
Zn18	Zn	1.575532	0.631139	0.394875
O19	O	1.079431	0.269125	0.079877
O20	O	1.579431	0.769125	0.579877
C21	C	0.911231	0.137841	0.000045
C22	C	1.411231	0.637841	0.500045
C23	C	0.810989	0.135839	0.000039
C24	C	1.310989	0.635839	0.500039
C25	C	0.390944	0.041029	0.000067
C26	C	0.890944	0.541029	0.500067
C27	C	0.383345	0.213721	0.000054
C28	C	0.883345	0.713721	0.500054
C29	C	0.477528	0.215604	0.000051
C30	C	0.977528	0.715604	0.500051
C31	C	0.528423	0.130197	0.000054
C32	C	1.028423	0.630197	0.500054
C33	C	0.485135	0.042908	0.000061
C34	C	0.985135	0.542908	0.500061
C35	C	0.520822	0.302891	0.000035
C36	C	1.020822	0.802891	0.500035
C37	C	0.615011	0.304777	0.000031
C38	C	1.115011	0.804777	0.500031
C39	C	0.665908	0.219369	0.000041
C40	C	1.165908	0.719369	0.500041
C41	C	0.622615	0.132077	0.000048
C42	C	1.122615	0.632077	0.500048
C43	C	0.673510	0.046670	0.000052
C44	C	1.173510	0.546670	0.500052
C45	C	0.630218	-0.040623	0.000066
C46	C	1.130218	0.459377	0.500066
C47	C	0.536032	-0.042499	0.000071
C48	C	1.036032	0.457501	0.500071
C49	C	0.760094	0.221246	0.000036
C50	C	1.260094	0.721246	0.500036
C51	C	0.767702	0.048550	0.000046
C52	C	1.267702	0.548550	0.500046
C53	C	1.068163	-0.042172	0.000065
C54	C	1.568163	0.457828	0.500065
C55	C	1.057921	-0.147411	0.000066
C56	C	1.557921	0.352589	0.500066
C57	C	1.039197	-0.340097	0.000051
C58	C	1.539197	0.159903	0.500051
C59	C	1.111836	-0.397635	0.000052
C60	C	1.611836	0.102365	0.500052
C61	C	1.101418	-0.504852	0.000044
C62	C	1.601418	-0.004852	0.500044
C63	C	1.049614	-0.232870	0.000059
C64	C	1.549614	0.267130	0.500059
C65	C	1.239806	0.124433	0.000064
C66	C	1.739806	0.624433	0.500064
C67	C	1.340048	0.126435	0.000064
C68	C	1.840048	0.626435	0.500064
C69	C	1.082874	0.304446	0.000044
C70	C	1.582874	0.804446	0.500044
C71	C	1.093116	0.409685	0.000037
C72	C	1.593116	0.909685	0.500037
N73	N	1.075495	0.131132	0.248802
N74	N	1.575495	0.631132	0.748802
N75	N	1.075549	0.131135	-0.248691
N76	N	1.575549	0.631135	0.251309
C77	C	1.019414	0.195480	0.701064
C78	C	1.519414	0.695480	1.201064
C79	C	1.131673	0.066791	0.701049
C80	C	1.631673	0.566791	1.201049
C81	C	1.131663	0.066788	0.600553
C82	C	1.631663	0.566788	1.100553
C83	C	1.075527	0.131133	0.550308
C84	C	1.575527	0.631133	1.050308
C85	C	1.019403	0.195481	0.600559
C86	C	1.519403	0.695481	1.100559
C87	C	1.187792	0.002448	0.550295
C88	C	1.687792	0.502448	1.050295
C89	C	1.187784	0.002443	0.449793
C90	C	1.687784	0.502443	0.949793
C91	C	1.131644	0.066784	0.399546
C92	C	1.631644	0.566784	0.899546
C93	C	1.075517	0.131134	0.449803
C94	C	1.575517	0.631134	0.949803
C95	C	1.019382	0.195479	0.399558
C96	C	1.519382	0.695479	0.899558
C97	C	0.963249	0.259825	0.449813
C98	C	1.463249	0.759825	0.949813
C99	C	0.963263	0.259822	0.550312
C100	C	1.463263	0.759822	1.050312
C101	C	1.131630	0.066787	0.299047
C102	C	1.631630	0.566787	0.799047
C103	C	1.019371	0.195480	0.299053
C104	C	1.519371	0.695480	0.799053
H105	H	0.809134	-0.021000	0.000052
H106	H	1.309134	0.479000	0.500052
H107	H	0.479377	0.372424	0.000023
H108	H	0.979377	0.872424	0.500023
H109	H	1.181849	-0.366371	-0.000008
H110	H	1.681849	0.133629	0.499992
H111	H	0.969191	-0.371358	0.000044
H112	H	1.469191	0.128642	0.500044
O113	O	0.685114	-0.132741	0.000076
O114	O	1.185114	0.367259	0.500076
H115	H	0.757879	-0.116761	0.000074
H116	H	1.257879	0.383239	0.500074
O117	O	0.489343	-0.136646	0.000082
O118	O	0.989343	0.363354	0.500082
H119	H	0.415299	-0.123603	0.000074
H120	H	0.915299	0.376397	0.500074
H121	H	1.233501	-0.049936	0.591208
H122	H	1.733501	0.450064	1.091208
O123	O	0.958827	0.264884	0.244860
O124	O	1.458827	0.764884	0.744860
H125	H	0.919806	0.309628	0.296691
H126	H	1.419806	0.809628	0.796691
H127	H	0.917547	0.312219	0.408892
H128	H	1.417547	0.812219	0.908892
O129	O	0.902734	0.329230	0.604512
O130	O	1.402734	0.829230	1.104512
H131	H	0.912184	0.318428	0.682836
H132	H	1.412184	0.818428	1.182836
H133	H	0.355691	-0.030044	0.000082
H134	H	0.855691	0.469956	0.500082
H135	H	0.650251	0.375856	0.000019
H136	H	1.150251	0.875856	0.500019
H137	H	1.233489	-0.049952	0.408882
H138	H	1.733489	0.450048	0.908882
H139	H	1.177337	0.014401	0.258134
H140	H	1.677337	0.514401	0.758134
H141	H	0.973709	0.247867	0.741984
H142	H	1.473709	0.747867	1.241984
H143	H	1.177382	0.014408	0.741962
H144	H	1.677382	0.514408	1.241962
H145	H	0.341900	0.283255	0.000044
H146	H	0.841900	0.783255	0.500044
H147	H	0.795338	0.292318	0.000026
H148	H	1.295338	0.792318	0.500026
