data_functionalizedCrystal
_audit_creation_method	'MofGen! by Chris Wilmer'
_symmetry_space_group_name_H-M	'P1'
_symmetry_Int_Tables_number	1
_symmetry_cell_setting	triclinic
loop_
_symmetry_equiv_pos_as_xyz
  x,y,z
_cell_length_a	13.032831
_cell_length_b	16.625546
_cell_length_c	13.034356
_cell_angle_alpha	82.786847
_cell_angle_beta	74.815040
_cell_angle_gamma	82.826778
loop_
_atom_site_label
_atom_site_type_symbol
_atom_site_fract_x
_atom_site_fract_y
_atom_site_fract_z
Zn1	Zn	1.700143	-0.408762	-0.806413
Zn2	Zn	2.200143	0.091238	-0.306413
Zn3	Zn	1.677440	-0.558798	-0.628773
Zn4	Zn	2.177440	-0.058798	-0.128773
Zn5	Zn	1.499948	-0.408769	-0.606296
Zn6	Zn	1.999948	0.091231	-0.106296
Zn7	Zn	1.522474	-0.528336	-0.783828
Zn8	Zn	2.022474	-0.028336	-0.283828
O9	O	1.600001	-0.476167	-0.706328
O10	O	2.100001	0.023833	-0.206328
O11	O	1.845768	-0.441411	-0.801708
O12	O	2.345768	0.058589	-0.301708
O13	O	1.634967	-0.551648	-0.477151
O14	O	2.134967	-0.051648	0.022849
O15	O	1.526579	-0.295939	-0.632887
O16	O	2.026579	0.204061	-0.132887
O17	O	1.829088	-0.551642	-0.671196
O18	O	2.329088	-0.051642	-0.171196
O19	O	1.673661	-0.295934	-0.779913
O20	O	2.173661	0.204066	-0.279913
O21	O	1.504564	-0.441423	-0.460637
O22	O	2.004564	0.058577	0.039363
O23	O	1.354300	-0.411884	-0.610987
O24	O	1.854300	0.088116	-0.110987
O25	O	1.564970	-0.499722	-0.935465
O26	O	2.064970	0.000278	-0.435465
O27	O	1.370849	-0.499729	-0.741419
O28	O	1.870849	0.000271	-0.241419
O29	O	1.695503	-0.411872	-0.952058
O30	O	2.195503	0.088128	-0.452058
O31	O	1.656809	-0.667587	-0.649296
O32	O	2.156809	-0.167587	-0.149296
O33	O	1.542956	-0.645206	-0.763215
O34	O	2.042956	-0.145206	-0.263215
C35	C	1.324035	-0.452502	-0.671314
C36	C	1.824035	0.047498	-0.171314
C37	C	1.205978	-0.442396	-0.656360
C38	C	1.705978	0.057604	-0.156360
C39	C	1.161549	-0.481441	-0.714132
C40	C	1.661549	0.018559	-0.214132
C41	C	1.039531	-0.470997	-0.698678
C42	C	1.539531	0.029003	-0.198678
C43	C	1.599895	-0.685653	-0.706270
C44	C	2.099895	-0.185653	-0.206270
C45	C	1.599951	-0.775277	-0.706294
C46	C	2.099951	-0.275277	-0.206294
C47	C	1.600151	-1.103459	-0.706428
C48	C	2.100151	-0.603459	-0.206428
C49	C	1.600092	-1.012148	-0.706393
C50	C	2.100092	-0.512148	-0.206393
C51	C	1.600050	-0.939371	-0.706360
C52	C	2.100050	-0.439371	-0.206360
C53	C	1.599993	-0.848054	-0.706327
C54	C	2.099993	-0.348054	-0.206327
C55	C	1.877045	-0.499924	-0.741479
C56	C	2.377045	0.000076	-0.241479
C57	C	1.995105	-0.510047	-0.756458
C58	C	2.495105	-0.010047	-0.256458
C59	C	1.635282	-0.452399	-0.983380
C60	C	2.135282	0.047601	-0.483380
C61	C	1.650317	-0.442270	-1.101444
C62	C	2.150317	0.057730	-0.601444
C63	C	1.600140	-0.265863	-0.706412
C64	C	2.100140	0.234137	-0.206412
C65	C	1.600199	-0.176244	-0.706448
C66	C	2.100199	0.323756	-0.206448
C67	C	1.607970	-0.470758	-1.267894
C68	C	2.107970	0.029242	-0.767894
C69	C	1.592429	-0.481226	-1.145870
C70	C	2.092429	0.018774	-0.645870
C71	C	1.564919	-0.499789	-0.430361
C72	C	2.064919	0.000211	0.069639
C73	C	1.550090	-0.509708	-0.312324
C74	C	2.050090	-0.009708	0.187676
H75	H	1.153684	-0.401232	-0.595463
H76	H	1.653684	0.098768	-0.095463
H77	H	1.213844	-0.522598	-0.775037
H78	H	1.713844	-0.022598	-0.275037
C79	C	1.408199	-0.508022	-1.088685
C80	C	1.908199	-0.008022	-0.588685
C81	C	1.509997	-0.536717	-1.075287
C82	C	2.009997	-0.036717	-0.575287
H83	H	1.357316	-0.542285	-1.045116
H84	H	1.857316	-0.042285	-0.545116
H85	H	1.390397	-0.454070	-1.068595
H86	H	1.890397	0.045930	-0.568595
H87	H	1.407844	-0.508264	-1.161432
H88	H	1.907844	-0.008264	-0.661432
H89	H	1.510355	-0.536470	-1.002541
H90	H	2.010355	-0.036470	-0.502541
H91	H	1.527804	-0.590683	-1.095372
H92	H	2.027804	-0.090683	-0.595372
H93	H	1.489035	-0.550808	-1.260024
H94	H	1.989035	-0.050808	-0.760024
C95	C	0.861733	-0.415855	-0.617038
C96	C	1.361733	0.084145	-0.117038
C97	C	0.968946	-0.415440	-0.616440
C98	C	1.468946	0.084560	-0.116440
H99	H	0.818158	-0.381564	-0.566259
H100	H	1.318158	0.118436	-0.066259
H101	H	0.852717	-0.396463	-0.686143
H102	H	1.352717	0.103537	-0.186143
H103	H	0.841610	-0.469821	-0.599097
H104	H	1.341610	0.030179	-0.099097
H105	H	0.989072	-0.361475	-0.634388
H106	H	1.489072	0.138525	-0.134388
H107	H	0.977968	-0.434828	-0.547319
H108	H	1.477968	0.065172	-0.047319
C109	C	1.172900	-0.565209	-0.838081
C110	C	1.672900	-0.065209	-0.338081
C111	C	1.065686	-0.565616	-0.838683
C112	C	1.565686	-0.065616	-0.338683
H113	H	1.216470	-0.599517	-0.888839
H114	H	1.716470	-0.099517	-0.388839
H115	H	1.193034	-0.511255	-0.856037
H116	H	1.693034	-0.011255	-0.356037
H117	H	1.181906	-0.584591	-0.768959
H118	H	1.681906	-0.084591	-0.268959
H119	H	1.056678	-0.546228	-0.907803
H120	H	1.556678	-0.046228	-0.407803
H121	H	1.045545	-0.619581	-0.820734
H122	H	1.545545	-0.119581	-0.320734
C123	C	1.689841	-0.415645	-1.445707
C124	C	2.189841	0.084355	-0.945707
C125	C	1.690401	-0.415276	-1.338488
C126	C	2.190401	0.084724	-0.838488
H127	H	1.740729	-0.381388	-1.489284
H128	H	2.240729	0.118612	-0.989284
H129	H	1.707645	-0.469602	-1.465776
H130	H	2.207645	0.030398	-0.965776
H131	H	1.620772	-0.396180	-1.454775
H132	H	2.120772	0.103820	-0.954775
H133	H	1.759470	-0.434747	-1.329418
H134	H	2.259470	0.065253	-0.829418
H135	H	1.672604	-0.361308	-1.318412
H136	H	2.172604	0.138692	-0.818412
H137	H	1.711383	-0.401173	-1.153740
H138	H	2.211383	0.098827	-0.653740
