data_functionalizedCrystal
_audit_creation_method	'MofGen! by Chris Wilmer'
_symmetry_space_group_name_H-M	'P1'
_symmetry_Int_Tables_number	1
_symmetry_cell_setting	triclinic
loop_
_symmetry_equiv_pos_as_xyz
  x,y,z
_cell_length_a	20.016444
_cell_length_b	23.196402
_cell_length_c	23.196401
_cell_angle_alpha	60.008822
_cell_angle_beta	90.014557
_cell_angle_gamma	60.002980
loop_
_atom_site_label
_atom_site_type_symbol
_atom_site_fract_x
_atom_site_fract_y
_atom_site_fract_z
Zr1	Zr	0.643579	0.631025	-0.075628
O2	O	0.536885	0.751288	-0.167674
O3	O	0.676284	0.510761	-0.047415
O4	O	0.676255	0.631028	-0.167680
O5	O	0.536941	0.631019	0.047462
O6	O	0.786194	0.631033	-0.167680
O7	O	0.536915	0.631021	-0.047409
O8	O	0.786247	0.415897	0.047453
O9	O	0.536888	0.846155	-0.167670
O10	O	0.772282	0.560232	-0.035378
O11	O	0.690255	0.560227	0.035424
O12	O	0.690220	0.701826	-0.106173
O13	O	0.608193	0.701822	-0.035371
Zr14	Zr	0.818963	0.631030	0.075681
Zr15	Zr	0.818921	0.631033	-0.075628
Zr16	Zr	0.643621	0.631023	0.075681
Zr17	Zr	0.643584	0.782328	-0.075622
Zr18	Zr	0.818958	0.479728	0.075674
O19	O	0.786258	0.751295	0.047467
O20	O	0.786198	0.751298	-0.167675
O21	O	0.536945	0.751284	0.047467
O22	O	0.925657	0.510768	0.167727
O23	O	0.925597	0.510771	-0.047415
O24	O	0.676344	0.510758	0.167727
O25	O	0.925601	0.631037	-0.047410
O26	O	0.786287	0.631028	0.167732
O27	O	0.676348	0.631023	0.167732
O28	O	0.925627	0.631035	0.047462
O29	O	0.676261	0.846161	-0.167671
O30	O	0.786281	0.415895	0.167723
O31	O	0.925654	0.415901	0.167723
O32	O	0.925620	0.415903	0.047453
O33	O	0.536922	0.846153	-0.047400
O34	O	0.676295	0.846159	-0.047400
O35	O	0.772322	0.560230	0.106225
O36	O	0.854349	0.560234	0.035424
O37	O	0.772287	0.701829	-0.035371
O38	O	0.690260	0.701824	0.035430
C39	C	0.731265	0.441772	0.000018
C40	C	0.731263	0.377540	0.000015
C41	C	0.774075	0.347372	-0.036945
C42	C	0.774083	0.287011	-0.036939
C43	C	0.731263	0.256832	0.000017
C44	C	0.688449	0.287004	0.036986
C45	C	0.688449	0.347358	0.036985
C46	C	0.659524	0.194799	-0.005257
C47	C	0.659522	0.134450	-0.005261
C48	C	0.731264	0.070677	0.000024
C49	C	0.803008	0.067268	0.005300
C50	C	0.803008	0.127622	0.005299
C51	C	0.731258	0.191387	0.000023
C52	C	0.774088	-0.024942	-0.036931
C53	C	0.774098	-0.085308	-0.036921
C54	C	0.688457	-0.085308	0.036999
C55	C	0.688455	-0.024949	0.036993
C56	C	0.731268	0.005233	0.000024
C57	C	0.511946	0.631019	0.000027
C58	C	0.437509	0.631016	0.000027
C59	C	0.309077	0.557114	0.036983
C60	C	0.239132	0.557118	0.036984
C61	C	0.153467	0.704947	-0.036931
C62	C	0.223411	0.704943	-0.036928
C63	C	0.301216	0.631024	0.000027
C64	C	0.161326	0.631032	0.000026
C65	C	0.085488	0.631036	0.000027
C66	C	0.377059	0.631020	0.000026
C67	C	0.950596	0.631037	0.000026
C68	C	1.025033	0.631040	0.000026
C69	C	0.731219	0.631031	-0.189238
C70	C	0.731201	0.631032	-0.253473
C71	C	0.731277	0.820284	0.000034
C72	C	0.731279	0.884516	0.000037
C73	C	0.688369	0.704940	-0.320600
C74	C	0.688390	0.704942	-0.380955
C75	C	0.731231	0.631030	-0.374179
C76	C	0.774072	0.557111	-0.307039
C77	C	0.774057	0.557112	-0.246686
C78	C	0.725146	0.574402	-0.441499
C79	C	0.725155	0.574404	-0.501852
C80	C	0.731283	0.631024	-0.560327
C81	C	0.737385	0.687655	-0.558447
C82	C	0.737370	0.687656	-0.498094
C83	C	0.731253	0.631020	-0.439618
C84	C	0.688472	0.704939	-0.692901
C85	C	0.688499	0.704937	-0.753256
C86	C	0.774175	0.557104	-0.679338
C87	C	0.774154	0.557108	-0.618985
C88	C	0.731298	0.631028	-0.625771
C89	C	0.731323	0.631025	0.189291
C90	C	0.731341	0.631024	0.253525
C91	C	0.950590	0.441781	0.000018
C92	C	1.025025	0.377552	0.000015
C93	C	0.731317	0.441769	0.189283
C94	C	0.731333	0.377536	0.253514
C95	C	0.950643	0.441778	0.189282
C96	C	1.025096	0.377548	0.253514
C97	C	0.511899	0.820278	-0.189230
C98	C	0.437446	0.884508	-0.253462
C99	C	0.511952	0.820275	0.000035
C100	C	0.437517	0.884504	0.000037
C101	C	0.731225	0.820287	-0.189230
C102	C	0.731209	0.884520	-0.253462
C103	C	1.017143	0.347388	-0.036950
C104	C	1.087076	0.287047	-0.036967
C105	C	1.164890	0.256866	-0.000014
C106	C	1.172771	0.287036	0.036952
C107	C	1.102839	0.347380	0.036965
C108	C	0.774178	0.347373	0.320642
C109	C	0.774190	0.287028	0.381001
C110	C	0.731361	0.256843	0.374230
C111	C	0.688510	0.287012	0.307095
C112	C	0.688494	0.347360	0.246738
C113	C	1.102884	0.347387	0.246720
C114	C	1.172847	0.287045	0.307067
C115	C	1.165020	0.256860	0.374207
C116	C	1.087223	0.287027	0.380999
C117	C	1.017262	0.347372	0.320653
C118	C	0.359658	0.914676	-0.246668
C119	C	0.289695	0.975037	-0.307015
C120	C	0.297522	1.005225	-0.374154
C121	C	0.375319	0.975054	-0.380947
C122	C	0.445280	0.914698	-0.320601
C123	C	0.445399	0.914674	0.036996
C124	C	0.375466	0.975032	0.036997
C125	C	0.297652	1.005215	0.000041
C126	C	0.289771	0.975042	-0.036922
C127	C	0.359703	0.914689	-0.036926
C128	C	0.774046	0.914686	-0.246668
C129	C	0.774048	0.975031	-0.307015
C130	C	0.731206	1.005214	-0.374155
C131	C	0.688367	0.975042	-0.380947
C132	C	0.688371	0.914694	-0.320601
H133	H	0.808966	-0.109875	-0.067015
O134	O	0.731396	0.191739	0.439332
H135	H	0.768398	0.175831	0.487145
O136	O	1.078559	0.254513	-0.076836
H137	H	1.108341	0.266112	-0.117700
H138	H	0.808931	0.999591	-0.301471
O139	O	0.205795	1.007552	-0.299674
H140	H	0.198699	1.035023	-0.270347
O141	O	0.820252	0.254474	-0.076815
H142	H	0.776991	0.266055	-0.117654
O143	O	0.069547	0.784669	-0.076801
H144	H	0.035632	0.788210	-0.039497
H145	H	0.861430	0.015337	0.009613
O146	O	0.529171	0.882184	-0.327952
H147	H	0.563092	0.893779	-0.302235
H148	H	0.653592	-0.109880	0.067090
H149	H	0.731209	1.054354	-0.423287
O150	O	0.214938	0.784663	-0.076793
H151	H	0.149086	0.836064	-0.102501
O152	O	0.642306	0.784657	-0.825663
H153	H	0.594985	0.788185	-0.854949
O154	O	0.642151	0.784664	-0.327916
H155	H	0.612374	0.836058	-0.384738
H156	H	0.653486	0.999627	-0.435620
O157	O	0.205839	1.007598	-0.076775
H158	H	0.198695	1.035104	-0.133580
H159	H	0.653484	0.890139	-0.326142
O160	O	1.240486	0.191764	0.439289
H161	H	1.221981	0.175837	0.487121
O162	O	0.351197	0.882143	-0.076783
H163	H	0.285338	0.913269	-0.102471
H164	H	0.653640	0.262426	0.301592
H165	H	0.953925	0.371921	0.326195
H166	H	0.653586	0.262427	0.067077
O167	O	0.642290	0.379894	0.076861
H168	H	0.594948	0.446470	0.039558
H169	H	1.109268	0.371932	0.067070
H170	H	1.236137	0.262454	0.067038
H171	H	0.808933	0.890120	-0.192005
O172	O	0.642412	0.379778	0.174335
H173	H	0.612689	0.348600	0.179775
H174	H	0.240715	1.054358	0.000050
O175	O	0.392996	0.477392	0.076845
H176	H	0.386708	0.425999	0.102549
O177	O	0.820247	0.477394	-0.174277
H178	H	0.850039	0.425996	-0.179701
H179	H	1.109273	0.371955	0.192057
O180	O	0.743990	0.748731	-0.621513
H181	H	0.748223	0.788112	-0.610069
O182	O	0.820254	0.379923	-0.076813
H183	H	0.850030	0.348796	-0.102509
H184	H	0.953789	0.371961	-0.067050
O185	O	0.222061	1.070332	-0.439241
H186	H	0.166657	1.086232	-0.423230
H187	H	1.221827	0.207729	-0.000029
H188	H	0.861425	0.124842	0.009596
H189	H	0.508753	0.890104	0.067094
H190	H	0.809087	0.262471	0.435659
H191	H	0.381899	0.999588	0.067099
H192	H	0.808953	-0.000370	-0.067032
O193	O	1.256758	0.254505	0.299750
H194	H	1.263874	0.226993	0.270455
O195	O	0.642267	0.007606	0.076847
H196	H	0.612485	-0.023513	0.102542
H197	H	1.080862	0.262442	0.435673
O198	O	0.351206	0.882127	-0.174256
H199	H	0.285355	0.913261	-0.179682
H200	H	0.809055	0.371943	0.326169
H201	H	0.601103	0.137234	-0.009560
O202	O	0.247608	0.477402	0.076835
H203	H	0.313461	0.426004	0.102525
H204	H	0.601094	0.246734	-0.009576
H205	H	0.653509	0.765129	-0.435621
O206	O	0.820398	0.477373	-0.672003
H207	H	0.777179	0.473814	-0.697738
H208	H	0.381682	0.999641	-0.435619
H209	H	0.742340	0.733766	-0.496566
H210	H	0.809028	0.496924	-0.564325
O211	O	0.642263	0.784660	-0.700210
H212	H	0.612493	0.836056	-0.757032
H213	H	0.720182	0.528294	-0.503378
H214	H	0.720150	0.528295	-0.393890
H215	H	0.808955	0.496932	-0.301526
