data_functionalizedCrystal
_audit_creation_method	'MofGen! by Chris Wilmer'
_symmetry_space_group_name_H-M	'P1'
_symmetry_Int_Tables_number	1
_symmetry_cell_setting	triclinic
loop_
_symmetry_equiv_pos_as_xyz
  x,y,z
_cell_length_a	17.699083
_cell_length_b	19.188930
_cell_length_c	16.176319
_cell_angle_alpha	89.988074
_cell_angle_beta	89.998611
_cell_angle_gamma	83.213899
loop_
_atom_site_label
_atom_site_type_symbol
_atom_site_fract_x
_atom_site_fract_y
_atom_site_fract_z
O1	O	1.003963	0.088294	-0.068640
O2	O	0.783569	0.099782	-0.068668
O3	O	0.900126	-0.007610	-0.068637
O4	O	0.887406	0.195687	-0.068671
O5	O	0.900110	-0.007617	0.068856
O6	O	0.783553	0.099775	0.068825
O7	O	1.003947	0.088288	0.068853
Cu8	Cu	0.893748	0.094031	0.081393
Cu9	Cu	0.893767	0.094039	-0.081208
O10	O	0.887390	0.195680	0.068822
C11	C	0.755365	0.099367	0.000075
C12	C	0.671348	0.098132	0.000065
C13	C	0.899706	-0.033625	0.000112
C14	C	0.898469	-0.111131	0.000119
C15	C	0.622644	0.161169	0.000055
C16	C	0.543702	0.160004	0.000065
C17	C	0.513466	0.095802	0.000081
C18	C	0.562176	0.032761	0.000093
C19	C	0.641117	0.033926	0.000088
C20	C	0.243819	0.028060	0.000115
C21	C	0.164873	0.026900	0.000117
C22	C	0.146405	0.154139	0.000092
C23	C	0.225345	0.155304	0.000087
C24	C	0.274049	0.092263	0.000104
C25	C	0.359646	0.093526	0.000094
C26	C	0.427870	0.094538	0.000085
C27	C	0.966861	-0.155978	0.000131
C28	C	0.965699	-0.228804	0.000118
C29	C	0.896142	-0.256778	0.000108
C30	C	0.827741	-0.211921	0.000091
C31	C	0.828905	-0.139098	0.000096
N32	N	0.842968	-0.364845	0.046893
N33	N	0.841868	-0.434025	0.046890
C34	C	0.892632	-0.476191	0.000091
N35	N	0.944550	-0.446565	-0.046694
N36	N	0.945653	-0.377379	-0.046687
C37	C	0.894873	-0.335742	0.000102
C38	C	0.959769	-0.600004	0.000088
C39	C	0.958604	-0.672830	0.000070
C40	C	0.820644	-0.655946	0.000051
C41	C	0.821811	-0.583121	0.000061
C42	C	0.891375	-0.555155	0.000084
C43	C	1.032151	0.088703	0.000108
C44	C	1.116167	0.089938	0.000113
C45	C	0.887810	0.221695	0.000071
C46	C	0.889046	0.299201	0.000059
N47	N	0.893741	0.094025	0.195758
N48	N	0.893781	0.094039	-0.195574
C49	C	0.945367	0.046491	0.239036
C50	C	0.945371	0.046490	0.325584
C51	C	0.893751	0.094027	0.368851
C52	C	0.842119	0.141563	0.325567
C53	C	0.842112	0.141560	0.239022
C54	C	0.842145	0.141576	0.674595
C55	C	0.842157	0.141577	0.761147
C56	C	0.945404	0.046506	0.761157
C57	C	0.945397	0.046503	0.674612
C58	C	0.893763	0.094036	0.631335
C59	C	0.893758	0.094036	0.537491
C60	C	0.893759	0.094031	0.462694
H61	H	0.504050	0.211335	0.000056
H62	H	0.773210	-0.102582	0.000086
O63	O	0.995423	0.000248	0.367656
C64	C	0.955051	-0.042776	0.417750
H65	H	0.895366	-0.043891	0.391681
H66	H	0.986123	-0.098306	0.418737
H67	H	0.951018	-0.020923	0.483337
H68	H	0.800104	0.180281	0.639366
O69	O	0.532770	-0.029588	-0.000038
C70	C	0.487645	-0.034058	-0.071234
H71	H	0.506193	0.002398	-0.121013
H72	H	0.494917	-0.090339	-0.095126
H73	H	0.425336	-0.017848	-0.055136
H74	H	0.647256	0.213450	0.000042
O75	O	1.025025	-0.716425	-0.000068
C76	C	1.028485	-0.759047	-0.071273
H77	H	0.989701	-0.732298	-0.121048
H78	H	1.089483	-0.767330	-0.095162
H79	H	1.009071	-0.811976	-0.055186
O80	O	0.995569	0.000258	0.632711
C81	C	1.041150	-0.041688	0.689469
H82	H	1.010130	-0.042438	0.751167
H83	H	1.052880	-0.097462	0.664478
H84	H	1.097297	-0.019083	0.698657
H85	H	0.249959	0.207584	0.000070
H86	H	1.016412	-0.577233	0.000103
H87	H	1.021394	-0.265325	0.000125
O88	O	0.688538	-0.027244	0.000132
C89	C	0.764696	-0.012450	0.000105
H90	H	0.767539	0.042386	0.026124
H91	H	0.800597	-0.052639	0.040030
H92	H	0.787534	-0.015133	-0.065858
H93	H	1.023506	-0.133213	0.000147
O94	O	0.791898	0.187764	0.367466
C95	C	0.746340	0.229728	0.310706
H96	H	0.745580	0.201101	0.249022
H97	H	0.685865	0.240446	0.335716
H98	H	0.770734	0.281570	0.301483
O99	O	0.760221	-0.239175	-0.000027
C100	C	0.755423	-0.280767	-0.071248
H101	H	0.815141	-0.299001	-0.094979
H102	H	0.725409	-0.328408	-0.055239
H103	H	0.721838	-0.248528	-0.121116
O104	O	0.753141	-0.683227	0.000075
C105	C	0.766778	-0.757121	0.000046
H106	H	0.825895	-0.774328	0.026087
H107	H	0.722276	-0.779417	0.039951
H108	H	0.763190	-0.777369	-0.065920
O109	O	0.755304	-0.539652	0.000096
C110	C	0.693660	-0.579956	0.000064
H111	H	0.713049	-0.634348	0.026092
H112	H	0.645750	-0.553020	0.039979
H113	H	0.672334	-0.585090	-0.065901
O114	O	0.791932	0.187779	0.803050
C115	C	0.746367	0.229743	0.746296
H116	H	0.745603	0.201118	0.684611
H117	H	0.685894	0.240457	0.771312
H118	H	0.770756	0.281587	0.737074
H119	H	0.987405	0.007784	0.203814
H120	H	0.987446	0.007800	0.796402
O121	O	0.792067	0.187765	0.196887
C122	C	0.832448	0.230803	0.146821
H123	H	0.891763	0.202927	0.133857
H124	H	0.800815	0.241881	0.085963
H125	H	0.837417	0.282402	0.180157
H126	H	0.106741	0.205470	0.000082
H127	H	0.140258	-0.025384	0.000131
O128	O	0.291015	-0.033240	0.000091
C129	C	0.247397	-0.090153	0.000124
H130	H	0.188419	-0.072328	-0.025911
H131	H	0.276663	-0.134314	-0.039784
H132	H	0.241838	-0.109839	0.066091
