data_functionalizedCrystal
_audit_creation_method	'MofGen! by Chris Wilmer'
_symmetry_space_group_name_H-M	'P1'
_symmetry_Int_Tables_number	1
_symmetry_cell_setting	triclinic
loop_
_symmetry_equiv_pos_as_xyz
  x,y,z
_cell_length_a	19.805407
_cell_length_b	16.120531
_cell_length_c	19.805399
_cell_angle_alpha	87.133995
_cell_angle_beta	89.978486
_cell_angle_gamma	87.068160
loop_
_atom_site_label
_atom_site_type_symbol
_atom_site_fract_x
_atom_site_fract_y
_atom_site_fract_z
Zn1	Zn	1.021025	0.331932	-0.396443
Zn2	Zn	1.015193	0.471354	-0.288984
Zn3	Zn	0.907844	0.331957	-0.283260
Zn4	Zn	0.902053	0.471304	-0.402120
O5	O	0.961529	0.401637	-0.342702
O6	O	1.114967	0.350437	-0.382209
O7	O	1.000936	0.452893	-0.193510
O8	O	0.927721	0.215287	-0.293502
O9	O	1.110683	0.452869	-0.303259
O10	O	1.010875	0.215269	-0.376658
O11	O	0.922067	0.350479	-0.189304
O12	O	0.812359	0.350431	-0.299007
O13	O	0.917852	0.452785	-0.496082
O14	O	0.808105	0.452809	-0.386333
O15	O	1.005260	0.350389	-0.491912
O16	O	0.995321	0.588013	-0.308763
O17	O	0.912198	0.587976	-0.391884
C18	C	0.785673	0.401618	-0.342665
C19	C	0.710441	0.401630	-0.342666
C20	C	0.246448	0.455045	-0.388152
C21	C	0.317137	0.455044	-0.388138
C22	C	0.354678	0.401657	-0.342729
C23	C	0.321527	0.348274	-0.297327
C24	C	0.250840	0.348280	-0.297339
C25	C	0.606602	0.348248	-0.297279
C26	C	0.677294	0.348244	-0.297272
C27	C	0.672898	0.455012	-0.388077
C28	C	0.602211	0.455018	-0.388089
C29	C	0.569066	0.401639	-0.342685
C30	C	0.492418	0.401642	-0.342700
C31	C	0.431326	0.401649	-0.342716
C32	C	0.952517	0.618245	-0.351575
C33	C	0.948724	0.710911	-0.355394
C34	C	0.941802	0.880572	-0.362380
C35	C	0.981281	0.921860	-0.322985
C36	C	0.977430	1.016266	-0.326872
C37	C	0.945652	0.786158	-0.358494
C38	C	1.138071	0.401656	-0.342739
C39	C	1.213302	0.401664	-0.342755
C40	C	0.970570	1.184182	-0.333796
C41	C	0.974361	1.091517	-0.329969
C42	C	0.961561	0.401579	-0.519242
C43	C	0.961574	0.401554	-0.594473
C44	C	0.920520	0.348222	-0.627627
C45	C	0.920530	0.348206	-0.698314
C46	C	0.961599	0.401518	-0.735847
C47	C	1.002655	0.454856	-0.702689
C48	C	1.002641	0.454876	-0.632003
C49	C	1.002712	0.454778	-0.987759
C50	C	1.002724	0.454752	-1.058451
C51	C	0.920601	0.348108	-1.054071
C52	C	0.920587	0.348128	-0.983385
C53	C	0.961640	0.401468	-0.950233
C54	C	0.961628	0.401487	-0.873585
C55	C	0.961615	0.401496	-0.812494
C56	C	0.961538	0.401634	-0.166846
C57	C	0.961665	0.401424	-0.091605
H58	H	0.215887	0.498514	-0.425132
H59	H	1.036077	0.498298	-0.605010
H60	H	0.571648	0.498488	-0.425067
H61	H	0.887147	0.304712	-0.952829
H62	H	0.344121	0.498513	-0.425103
H63	H	0.699893	0.498478	-0.425045
H64	H	0.352099	0.304809	-0.260352
H65	H	0.887171	0.304678	-1.081072
H66	H	0.579624	0.304786	-0.260306
H67	H	1.036169	0.498169	-1.089008
H68	H	0.707859	0.304767	-0.260293
H69	H	0.223854	0.304810	-0.260374
H70	H	1.017973	0.886307	-0.286338
H71	H	1.036132	0.498221	-0.960776
H72	H	0.905112	0.916123	-0.399023
H73	H	1.036090	0.498268	-0.733254
H74	H	0.887096	0.304780	-0.725305
H75	H	0.887081	0.304804	-0.597072
