data_functionalizedCrystal
_audit_creation_method	'MofGen! by Chris Wilmer'
_symmetry_space_group_name_H-M	'P1'
_symmetry_Int_Tables_number	1
_symmetry_cell_setting	triclinic
loop_
_symmetry_equiv_pos_as_xyz
  x,y,z
_cell_length_a	14.971486
_cell_length_b	27.731996
_cell_length_c	14.048226
_cell_angle_alpha	89.987595
_cell_angle_beta	89.998499
_cell_angle_gamma	83.117759
loop_
_atom_site_label
_atom_site_type_symbol
_atom_site_fract_x
_atom_site_fract_y
_atom_site_fract_z
O1	O	1.185930	0.062992	-0.079064
O2	O	1.685930	0.562992	0.420936
O3	O	0.925408	0.070536	-0.079092
O4	O	1.425408	0.570536	0.420908
O5	O	1.063784	-0.003597	-0.079056
O6	O	1.563784	0.496403	0.420944
O7	O	1.047553	0.137125	-0.079099
O8	O	1.547553	0.637125	0.420901
O9	O	1.063768	-0.003601	0.079265
O10	O	1.563768	0.496399	0.579265
O11	O	0.925391	0.070531	0.079230
O12	O	1.425391	0.570531	0.579230
O13	O	1.185913	0.062988	0.079257
O14	O	1.685913	0.562988	0.579257
Zn15	Zn	1.055650	0.066759	0.104380
Zn16	Zn	1.555650	0.566759	0.604380
Zn17	Zn	1.055671	0.066765	-0.104215
Zn18	Zn	1.555671	0.566765	0.395785
O19	O	1.047537	0.137121	0.079222
O20	O	1.547537	0.637121	0.579222
C21	C	0.892080	0.070196	0.000066
C22	C	1.392080	0.570196	0.500066
C23	C	0.792800	0.069185	0.000056
C24	C	1.292800	0.569185	0.500056
C25	C	1.063443	-0.021608	0.000107
C26	C	1.563443	0.478392	0.500107
C27	C	1.062438	-0.075269	0.000117
C28	C	1.562438	0.424731	0.500117
C29	C	0.734871	0.112736	0.000044
C30	C	1.234871	0.612736	0.500044
C31	C	0.641587	0.111784	0.000059
C32	C	1.141587	0.611784	0.500059
C33	C	0.606233	0.067279	0.000079
C34	C	1.106233	0.567279	0.500079
C35	C	0.664169	0.023725	0.000093
C36	C	1.164169	0.523725	0.500093
C37	C	0.757452	0.024678	0.000086
C38	C	1.257452	0.524678	0.500086
C39	C	0.469739	0.021741	0.000107
C40	C	0.969739	0.521741	0.500107
C41	C	0.376450	0.020787	0.000113
C42	C	0.876450	0.520787	0.500113
C43	C	0.353874	0.108846	0.000080
C44	C	0.853874	0.608846	0.500080
C45	C	0.447157	0.109800	0.000073
C46	C	0.947157	0.609800	0.500073
C47	C	0.505086	0.066245	0.000086
C48	C	1.005086	0.566245	0.500086
C49	C	1.056129	-0.408012	-0.086231
C50	C	1.556129	0.091988	0.413769
C51	C	1.052315	-0.609688	-0.086248
C52	C	1.552315	-0.109688	0.413752
O53	O	1.051791	-0.635759	-0.159644
O54	O	1.551791	-0.135759	0.340356
N55	N	1.051833	-0.634910	0.000052
N56	N	1.551833	-0.134910	0.500052
C57	C	1.052298	-0.609709	0.086362
C58	C	1.552298	-0.109709	0.586362
O59	O	1.051790	-0.635788	0.159766
O60	O	1.551790	-0.135788	0.659766
C61	C	1.056105	-0.408033	0.086379
C62	C	1.556105	0.091967	0.586379
C63	C	1.056597	-0.382815	0.000073
C64	C	1.556597	0.117185	0.500073
C65	C	1.056620	-0.382793	-0.172530
C66	C	1.556620	0.117207	0.327470
C67	C	1.057578	-0.332378	-0.172525
C68	C	1.557578	0.167622	0.327475
C69	C	1.058045	-0.307181	-0.086221
C70	C	1.558045	0.192819	0.413779
C71	C	1.057555	-0.332399	0.000078
C72	C	1.557555	0.167601	0.500078
C73	C	1.056563	-0.382833	0.172688
C74	C	1.556563	0.117167	0.672688
C75	C	1.057513	-0.332411	0.172684
C76	C	1.557513	0.167589	0.672684
C77	C	1.058005	-0.307193	0.086379
C78	C	1.558005	0.192807	0.586379
C79	C	1.058981	-0.256787	0.086387
C80	C	1.558981	0.243213	0.586387
N81	N	1.059463	-0.231565	0.000087
N82	N	1.559463	0.268435	0.500087
C83	C	1.058996	-0.256762	-0.086217
C84	C	1.558996	0.243238	0.413783
C85	C	1.050301	-0.715591	0.086348
C86	C	1.550301	-0.215591	0.586348
C87	C	1.049350	-0.766010	0.086344
C88	C	1.549350	-0.266010	0.586344
C89	C	1.049366	-0.765986	-0.086267
C90	C	1.549366	-0.265986	0.413733
C91	C	1.050323	-0.715566	-0.086262
C92	C	1.550323	-0.215566	0.413738
C93	C	1.050783	-0.690370	0.000048
C94	C	1.550783	-0.190370	0.500048
C95	C	1.061009	-0.150886	-0.086200
C96	C	1.561009	0.349114	0.413800
C97	C	1.061971	-0.100466	-0.086187
C98	C	1.561971	0.399534	0.413813
C99	C	1.061950	-0.100495	0.086424
C100	C	1.561950	0.399505	0.586424
C101	C	1.060993	-0.150910	0.086411
C102	C	1.560993	0.349090	0.586411
C103	C	1.060519	-0.176104	0.000092
C104	C	1.560519	0.323896	0.500092
O105	O	1.059495	-0.230684	0.159745
O106	O	1.559495	0.269316	0.659745
O107	O	1.059483	-0.230673	-0.159609
O108	O	1.559483	0.269327	0.340391
C109	C	1.055171	-0.458428	-0.086236
C110	C	1.555171	0.041572	0.413764
C111	C	1.054680	-0.483646	0.000063
C112	C	1.554680	0.016354	0.500063
C113	C	1.055148	-0.458449	0.086366
C114	C	1.555148	0.041551	0.586366
C115	C	1.053730	-0.534065	0.000059
C116	C	1.553730	-0.034065	0.500059
C117	C	1.053262	-0.559262	-0.086245
C118	C	1.553262	-0.059262	0.413755
C119	C	1.053745	-0.534040	-0.172545
C120	C	1.553745	-0.034040	0.327455
C121	C	1.054703	-0.483625	-0.172540
C122	C	1.554703	0.016375	0.327460
C123	C	1.054665	-0.483671	0.172666
C124	C	1.554665	0.016329	0.672666
C125	C	1.053708	-0.534087	0.172654
C126	C	1.553708	-0.034087	0.672654
C127	C	1.053240	-0.559284	0.086350
C128	C	1.553240	-0.059284	0.586350
C129	C	1.219241	0.063328	0.000098
C130	C	1.719241	0.563328	0.500098
C131	C	1.318522	0.064338	0.000101
C132	C	1.818522	0.564338	0.500101
C133	C	1.047879	0.155132	0.000056
C134	C	1.547879	0.655132	0.500056
C135	C	1.048883	0.208793	0.000040
C136	C	1.548883	0.708793	0.500040
N137	N	1.055642	0.066755	0.246741
N138	N	1.555642	0.566755	0.746741
N139	N	1.055687	0.066765	-0.246575
N140	N	1.555687	0.566765	0.253425
C141	C	1.116934	0.033942	0.296575
C142	C	1.616934	0.533942	0.796575
C143	C	1.116940	0.033942	0.396232
C144	C	1.616940	0.533942	0.896232
C145	C	1.055657	0.066757	0.446055
C146	C	1.555657	0.566757	0.946055
C147	C	0.994359	0.099571	0.396214
C148	C	1.494359	0.599571	0.896214
C149	C	0.994349	0.099569	0.296558
C150	C	1.494349	0.599569	0.796558
C151	C	0.994384	0.099574	0.603928
C152	C	1.494384	0.599574	1.103928
C153	C	0.994395	0.099578	0.703591
C154	C	1.494395	0.599578	1.203591
C155	C	1.116975	0.033948	0.703602
C156	C	1.616975	0.533948	1.203602
C157	C	1.116965	0.033946	0.603947
C158	C	1.616965	0.533946	1.103947
C159	C	1.055668	0.066760	0.554113
C160	C	1.555668	0.566760	1.054113
H161	H	0.763648	0.148977	0.000028
H162	H	1.263648	0.648977	0.500028
Br163	Br	1.058135	-0.298218	0.289826
Br164	Br	1.558135	0.201782	0.789826
Br165	Br	1.200141	-0.010584	0.536327
Br166	Br	1.700141	0.489416	1.036327
Br167	Br	1.055289	-0.449482	0.289806
Br168	Br	1.555289	0.050518	0.789806
H169	H	1.166885	0.007229	0.744183
H170	H	1.666885	0.507229	1.244183
H171	H	0.944491	0.126298	0.744151
H172	H	1.444491	0.626298	1.244151
Br173	Br	1.200114	-0.010591	0.228969
Br174	Br	1.700114	0.489409	0.728969
Br175	Br	0.911189	0.144107	0.536300
Br176	Br	1.411189	0.644107	1.036300
Br177	Br	1.055984	-0.416980	-0.289673
Br178	Br	1.555984	0.083020	0.210327
Br179	Br	0.616191	-0.036675	0.000129
Br180	Br	1.116191	0.463325	0.500129
Br181	Br	0.495137	0.170199	0.000032
Br182	Br	0.995137	0.670199	0.500032
Br183	Br	0.836071	-0.034429	0.000110
Br184	Br	1.336071	0.465571	0.500110
H185	H	0.306703	0.144310	0.000074
H186	H	0.806703	0.644310	0.500074
Br187	Br	0.911181	0.144103	0.463826
Br188	Br	1.411181	0.644103	0.963826
H189	H	0.347669	-0.015452	0.000130
H190	H	0.847669	0.484548	0.500130
H191	H	1.055103	-0.463096	-0.242819
H192	H	1.555103	0.036904	0.257181
Br193	Br	1.062644	-0.066244	-0.203324
Br194	Br	1.562644	0.433756	0.296676
H195	H	1.060619	-0.171393	-0.156489
H196	H	1.560619	0.328607	0.343511
H197	H	1.057975	-0.311849	-0.242804
H198	H	1.557975	0.188151	0.257196
H199	H	1.050722	-0.695037	-0.156540
H200	H	1.550722	-0.195037	0.343460
H201	H	1.048987	-0.786510	-0.156539
H202	H	1.548987	-0.286510	0.343461
Br203	Br	0.911158	0.144099	0.228927
Br204	Br	1.411158	0.644099	0.728927
H205	H	0.516903	-0.013726	0.000119
H206	H	1.016903	0.486274	0.500119
Br207	Br	1.200120	-0.010591	0.463867
Br208	Br	1.700120	0.489409	0.963867
H209	H	1.056164	-0.403358	0.242968
H210	H	1.556164	0.096642	0.742968
Br211	Br	0.562972	0.170891	0.000040
Br212	Br	1.062972	0.670891	0.500040
H213	H	1.048964	-0.786540	0.156623
H214	H	1.548964	-0.286540	0.656623
H215	H	1.060601	-0.171445	0.156688
H216	H	1.560601	0.328555	0.656688
Br217	Br	1.050917	-0.681403	0.203495
Br218	Br	1.550917	-0.181403	0.703495
H219	H	1.053314	-0.554616	0.242940
H220	H	1.553314	-0.054616	0.742940
Br221	Br	1.062587	-0.066289	0.203545
Br222	Br	1.562587	0.433711	0.703545
Br223	Br	1.053117	-0.568247	-0.289671
Br224	Br	1.553117	-0.068247	0.210329
