data_functionalizedCrystal
_audit_creation_method	'MofGen! by Chris Wilmer'
_symmetry_space_group_name_H-M	'P1'
_symmetry_Int_Tables_number	1
_symmetry_cell_setting	triclinic
loop_
_symmetry_equiv_pos_as_xyz
  x,y,z
_cell_length_a	14.044209
_cell_length_b	12.503572
_cell_length_c	14.044209
_cell_angle_alpha	86.158573
_cell_angle_beta	93.187953
_cell_angle_gamma	93.834595
loop_
_atom_site_label
_atom_site_type_symbol
_atom_site_fract_x
_atom_site_fract_y
_atom_site_fract_z
O1	O	-1.282198	-0.089202	-0.225106
O2	O	-1.005528	-0.089232	-0.216801
O3	O	-1.139711	-0.089202	-0.082619
O4	O	-1.148016	-0.089232	-0.359289
O5	O	-1.129621	0.089438	-0.092728
O6	O	-0.995439	0.089408	-0.226911
O7	O	-1.272109	0.089438	-0.235216
Cu8	Cu	-1.132852	0.105734	-0.231986
Cu9	Cu	-1.144785	-0.105528	-0.220031
O10	O	-1.137926	0.089408	-0.369398
C11	C	-0.964862	0.000084	-0.218220
C12	C	-0.858720	0.000073	-0.207376
N13	N	-1.124467	0.254324	-0.240395
C14	C	-0.664381	0.000094	-0.187553
C15	C	-0.613251	0.000090	-0.264467
C16	C	-0.505114	0.000102	-0.253437
C17	C	-0.772528	0.000083	-0.198581
C18	C	-1.131031	0.000119	-0.052052
C19	C	-1.120187	0.000123	0.054091
C20	C	-0.312775	0.000116	-0.233798
C21	C	-0.418918	0.000111	-0.244648
N22	N	-1.153177	-0.254119	-0.211615
C23	C	-1.112132	0.473437	-0.252774
C24	C	-1.165509	0.526776	-0.199240
C25	C	-1.158646	0.648698	-0.206127
C26	C	-1.118994	0.351504	-0.245887
C27	C	-1.100363	0.000112	0.248429
C28	C	-1.177277	0.000119	0.299559
C29	C	-1.166247	0.000112	0.407695
C30	C	-1.111391	0.000118	0.140282
C31	C	-1.146608	0.000093	0.600035
C32	C	-1.157457	0.000107	0.493891
H33	H	-0.650690	0.000077	-0.338600
H34	H	-0.626944	0.000108	-0.113426
H35	H	-1.216363	0.480874	-0.148236
Cl36	Cl	-0.985914	0.000096	0.306229
Cl37	Cl	-1.033626	0.544299	-0.331520
H38	H	-1.251414	0.000053	0.262124
