data_functionalizedCrystal
_audit_creation_method	'MofGen! by Chris Wilmer'
_symmetry_space_group_name_H-M	'P1'
_symmetry_Int_Tables_number	1
_symmetry_cell_setting	triclinic
loop_
_symmetry_equiv_pos_as_xyz
  x,y,z
_cell_length_a	15.297327
_cell_length_b	12.759401
_cell_length_c	12.759393
_cell_angle_alpha	90.018496
_cell_angle_beta	99.641734
_cell_angle_gamma	80.293454
loop_
_atom_site_label
_atom_site_type_symbol
_atom_site_fract_x
_atom_site_fract_y
_atom_site_fract_z
Zn1	Zn	-0.359102	-1.533799	-0.666297
Zn2	Zn	-0.509990	-1.503249	-0.521002
Zn3	Zn	-0.359150	-1.358091	-0.490645
Zn4	Zn	-0.509920	-1.327659	-0.696630
O5	O	-0.434541	-1.430699	-0.593643
O6	O	-0.379127	-1.676766	-0.647033
O7	O	-0.490029	-1.483944	-0.369964
O8	O	-0.232898	-1.406921	-0.488547
O9	O	-0.489984	-1.654320	-0.540286
O10	O	-0.232864	-1.536012	-0.617597
O11	O	-0.379208	-1.377297	-0.347661
O12	O	-0.379140	-1.207035	-0.517960
O13	O	-0.489865	-1.355053	-0.839617
O14	O	-0.489911	-1.184677	-0.669295
O15	O	-0.379060	-1.506503	-0.817332
O16	O	-0.636226	-1.454435	-0.569698
O17	O	-0.636175	-1.325430	-0.698731
C18	C	-0.434524	-1.157735	-0.593626
C19	C	-0.434539	-1.040956	-0.593648
C20	C	-0.668934	-1.383343	-0.640823
C21	C	-0.769208	-1.363180	-0.661042
C22	C	-0.434450	-1.430791	-0.867659
C23	C	-0.434411	-1.430831	-0.984427
C24	C	-1.051846	-1.575241	-0.449495
C25	C	-0.957633	-1.594185	-0.430493
C26	C	-0.910523	-1.536436	-0.488129
C27	C	-0.957634	-1.459739	-0.564769
C28	C	-1.051856	-1.440787	-0.583767
C29	C	-0.910532	-1.401982	-0.622401
C30	C	-0.957643	-1.325285	-0.699042
C31	C	-1.051856	-1.306338	-0.718037
C32	C	-1.098967	-1.364087	-0.660401
C33	C	-0.816310	-1.420933	-0.603403
C34	C	-0.816320	-1.286480	-0.737676
C35	C	-0.910532	-1.267536	-0.756677
C36	C	-0.199232	-1.478269	-0.546302
C37	C	-0.098957	-1.498541	-0.526129
C38	C	-0.434558	-1.704729	-0.593662
C39	C	-0.434565	-1.821504	-0.593670
C40	C	-0.492309	-0.974461	-0.672355
C41	C	-0.492321	-0.864734	-0.672369
C42	C	-0.376788	-0.888009	-0.514958
C43	C	-0.376773	-0.997734	-0.514949
C44	C	-0.559014	-0.961022	-0.763233
C45	C	-0.559025	-0.851295	-0.763247
C46	C	-0.376709	-1.509701	-1.027686
C47	C	-0.376676	-1.509733	-1.137404
C48	C	-0.492055	-1.352019	-1.160596
C49	C	-0.492083	-1.351984	-1.050879
C50	C	-0.310099	-1.600759	-1.014298
C51	C	-0.310066	-1.600790	-1.124015
C52	C	-0.434566	-1.430681	-0.320681
C53	C	-0.434351	-1.430897	-0.203862
H54	H	-0.777960	-1.483380	-0.541002
H55	H	-1.090213	-1.622246	-0.402570
H56	H	-0.329757	-0.852804	-0.450885
H57	H	-0.328779	-1.678385	-1.157562
H58	H	-0.534085	-0.822330	-0.835577
H59	H	-0.919279	-1.656629	-0.368092
C60	C	-1.233838	-1.363715	-0.787572
C61	C	-1.202531	-1.343277	-0.681290
H62	H	-1.297775	-1.350878	-0.800463
H63	H	-1.212537	-1.318333	-0.832851
H64	H	-1.212445	-1.435802	-0.801472
H65	H	-1.223918	-1.271187	-0.667391
H66	H	-1.223842	-1.388658	-0.635996
H67	H	-1.090211	-1.243874	-0.780430
H68	H	-0.329725	-1.051872	-0.450863
C69	C	-1.054967	-1.178791	-0.845408
C70	C	-0.962324	-1.183225	-0.840912
H71	H	-1.086939	-1.126736	-0.897406
H72	H	-1.070340	-1.246274	-0.863946
H73	H	-1.070453	-1.160337	-0.777922
H74	H	-0.946837	-1.201686	-0.908396
H75	H	-0.946945	-1.115727	-0.822380
C76	C	-0.518603	-0.924093	-0.931640
C77	C	-0.533853	-1.006349	-0.868056
H78	H	-0.503064	-0.952081	-0.996346
H79	H	-0.571628	-0.872038	-0.946638
H80	H	-0.470760	-0.892389	-0.895060
H81	H	-0.581700	-1.038049	-0.904632
H82	H	-0.480821	-1.058423	-0.853059
C83	C	-0.707390	-0.895266	-0.727636
C84	C	-0.648563	-0.988882	-0.741743
H85	H	-0.762674	-0.912469	-0.714373
H86	H	-0.681230	-0.858634	-0.668928
H87	H	-0.718173	-0.851213	-0.790051
H88	H	-0.637775	-1.032932	-0.679324
H89	H	-0.674729	-1.025530	-0.800456
C90	C	-0.606106	-1.196078	-1.084825
C91	C	-0.555496	-1.265273	-1.003326
H92	H	-0.645256	-1.142546	-1.055465
H93	H	-0.566779	-1.163870	-1.119714
H94	H	-0.640618	-1.234890	-1.134559
H95	H	-0.520978	-1.226462	-0.953596
H96	H	-0.594828	-1.297483	-0.968420
H97	H	-0.628879	-0.807405	-0.755382
H98	H	-0.539007	-1.287822	-1.214714
H99	H	-0.240232	-1.593087	-0.970472
H100	H	-0.833810	-1.551863	-0.472652
C101	C	-0.366066	-1.762321	-1.061338
C102	C	-0.343896	-1.698255	-0.975145
H103	H	-0.386926	-1.822513	-1.037162
H104	H	-0.411990	-1.722641	-1.112462
H105	H	-0.314309	-1.785272	-1.092831
H106	H	-0.395655	-1.675298	-0.943656
H107	H	-0.297968	-1.737942	-0.924003
H108	H	-0.777962	-1.239453	-0.784606
C109	C	-0.161623	-1.565635	-1.058381
C110	C	-0.220448	-1.579591	-1.151943
H111	H	-0.106298	-1.552553	-1.075626
H112	H	-0.187736	-1.506847	-1.021734
H113	H	-0.150930	-1.628052	-1.014336
H114	H	-0.231146	-1.517171	-1.195984
H115	H	-0.194330	-1.638385	-1.188606
