data_functionalizedCrystal
_audit_creation_method	'MofGen! by Chris Wilmer'
_symmetry_space_group_name_H-M	'P1'
_symmetry_Int_Tables_number	1
_symmetry_cell_setting	triclinic
loop_
_symmetry_equiv_pos_as_xyz
  x,y,z
_cell_length_a	12.759394
_cell_length_b	13.033304
_cell_length_c	13.032268
_cell_angle_alpha	89.077769
_cell_angle_beta	82.850556
_cell_angle_gamma	82.816541
loop_
_atom_site_label
_atom_site_type_symbol
_atom_site_fract_x
_atom_site_fract_y
_atom_site_fract_z
Zn1	Zn	-0.326901	-1.498472	0.781530
Zn2	Zn	-0.477882	-1.520222	0.609560
Zn3	Zn	-0.321349	-1.348333	0.587701
Zn4	Zn	-0.521674	-1.326475	0.759595
O5	O	-0.411952	-1.423375	0.684596
O6	O	-0.330926	-1.645275	0.777045
O7	O	-0.436467	-1.515670	0.462752
O8	O	-0.175063	-1.368294	0.613444
O9	O	-0.441851	-1.661254	0.650700
O10	O	-0.179142	-1.478601	0.755849
O11	O	-0.321463	-1.389384	0.446692
O12	O	-0.363927	-1.201516	0.592176
O13	O	-0.516488	-1.331041	0.906413
O14	O	-0.511104	-1.185457	0.718466
O15	O	-0.373389	-1.457407	0.922528
O16	O	-0.630714	-1.494476	0.629431
O17	O	-0.662888	-1.352131	0.739661
C18	C	-0.441666	-1.156170	0.650569
C19	C	-0.454407	-1.041855	0.636036
C20	C	-0.405316	-0.982972	0.692167
C21	C	-0.418483	-0.864821	0.677148
C22	C	-0.684923	-1.423317	0.684564
C23	C	-0.801695	-1.423381	0.684596
C24	C	-0.768142	-1.571691	0.569924
C25	C	-0.806226	-1.645871	0.512604
C26	C	-0.915944	-1.645928	0.512639
C27	C	-0.987585	-1.571799	0.570004
C28	C	-0.949501	-1.497618	0.627325
C29	C	-0.839778	-1.497568	0.627280
C30	C	-0.983054	-1.349315	0.742001
C31	C	-0.873335	-1.349252	0.741961
C32	C	-1.054694	-1.275185	0.799366
C33	C	-1.016611	-1.200999	0.856681
C34	C	-0.906885	-1.200945	0.856642
C35	C	-0.835252	-1.275072	0.799281
C36	C	-0.137915	-1.423459	0.684655
C37	C	-0.021137	-1.423495	0.684680
C38	C	-0.450443	-1.389360	0.952828
C39	C	-0.466845	-1.374864	1.067132
C40	C	-0.382116	-0.691625	0.718750
C41	C	-0.369386	-0.805939	0.733287
C42	C	-0.373528	-1.457318	0.417416
C43	C	-0.356808	-1.472013	0.303138
C44	C	-0.403355	-1.430925	1.126066
C45	C	-0.420306	-1.415944	1.244206
H46	H	-0.317600	-0.842991	0.792461
H47	H	-0.946950	-1.706336	0.465970
H48	H	-0.289892	-1.531097	1.266136
C49	C	-0.523825	-0.884476	0.556740
C50	C	-0.524309	-0.991840	0.556153
H51	H	-0.566988	-0.853603	0.507426
H52	H	-0.453018	-0.868826	0.539589
H53	H	-0.551160	-0.858186	0.623602
H54	H	-0.496967	-1.018131	0.489293
H55	H	-0.595131	-1.007498	0.573298
C56	C	-1.199702	-1.135243	0.907662
C57	C	-1.095356	-1.119523	0.919730
H58	H	-1.248316	-1.084936	0.946581
H59	H	-1.212085	-1.202418	0.931571
H60	H	-1.209472	-1.129017	0.836648
H61	H	-1.085584	-1.125756	0.990743
H62	H	-1.082968	-1.052330	0.895825
C63	C	-1.126488	-1.652632	0.507629
C64	C	-1.108190	-1.571865	0.570049
H65	H	-1.200945	-1.652665	0.507654
H66	H	-1.096780	-1.716700	0.533906
H67	H	-1.094160	-1.643293	0.438987
H68	H	-1.140511	-1.581208	0.638693
H69	H	-1.137910	-1.507781	0.543776
C70	C	-0.592700	-1.652351	0.507424
C71	C	-0.647537	-1.571626	0.569877
H72	H	-0.518243	-1.652313	0.507400
H73	H	-0.610020	-1.643036	0.438809
H74	H	-0.612636	-1.716454	0.533720
H75	H	-0.627607	-1.507522	0.543576
H76	H	-0.630209	-1.580933	0.638505
H77	H	-0.747887	-1.706229	0.465900
H78	H	-1.144032	-1.275241	0.799395
H79	H	-0.875885	-1.140542	0.903324
C80	C	-0.667016	-1.261265	0.698045
C81	C	-0.714646	-1.275017	0.799235
H82	H	-0.592556	-1.261242	0.698019
H83	H	-0.696718	-1.197185	0.671789
H84	H	-0.679457	-1.316054	0.655707
H85	H	-0.702211	-1.220223	0.841572
H86	H	-0.684933	-1.339105	0.825506
C87	C	-0.243223	-1.460486	1.006972
C88	C	-0.313036	-1.510694	1.076115
H89	H	-0.187468	-1.509737	0.976133
H90	H	-0.213983	-1.410429	1.043184
H91	H	-0.280872	-1.427255	0.954697
H92	H	-0.275389	-1.543919	1.128395
H93	H	-0.342278	-1.560770	1.039902
H94	H	-0.487210	-1.356848	1.281207
C95	C	-0.556487	-1.295707	1.224446
C96	C	-0.557175	-1.295103	1.117080
H97	H	-0.612261	-1.246470	1.255278
H98	H	-0.490080	-1.278459	1.240092
H99	H	-0.566672	-1.362600	1.250784
H100	H	-0.546982	-1.228212	1.090741
H101	H	-0.623597	-1.312345	1.101425
H102	H	-0.353536	-1.020029	0.751338
H103	H	-0.470260	-0.827768	0.617968
