data_functionalizedCrystal
_audit_creation_method	'MofGen! by Chris Wilmer'
_symmetry_space_group_name_H-M	'P1'
_symmetry_Int_Tables_number	1
_symmetry_cell_setting	triclinic
loop_
_symmetry_equiv_pos_as_xyz
  x,y,z
_cell_length_a	16.625546
_cell_length_b	19.077105
_cell_length_c	19.077482
_cell_angle_alpha	85.418775
_cell_angle_beta	92.186699
_cell_angle_gamma	87.718759
loop_
_atom_site_label
_atom_site_type_symbol
_atom_site_fract_x
_atom_site_fract_y
_atom_site_fract_z
Zn1	Zn	-0.391047	1.094194	-0.441839
Zn2	Zn	0.108953	1.594194	0.058161
Zn3	Zn	-0.520431	1.089256	-0.323947
Zn4	Zn	-0.020431	1.589256	0.176053
Zn5	Zn	-0.379976	0.971446	-0.319235
Zn6	Zn	0.120024	1.471446	0.180765
Zn7	Zn	-0.520193	0.976271	-0.437066
Zn8	Zn	-0.020193	1.476271	0.062934
O9	O	-0.452912	1.032792	-0.380522
O10	O	0.047088	1.532792	0.119478
O11	O	-0.412943	1.192193	-0.430170
O12	O	0.087057	1.692193	0.069830
O13	O	-0.497266	1.069542	-0.224671
O14	O	0.002734	1.569542	0.275329
O15	O	-0.268616	0.987776	-0.335525
O16	O	0.231384	1.487776	0.164475
O17	O	-0.508001	1.188565	-0.343555
O18	O	-0.008001	1.688565	0.156445
O19	O	-0.276749	1.077958	-0.425602
O20	O	0.223251	1.577958	0.074398
O21	O	-0.394074	0.982988	-0.221209
O22	O	0.105926	1.482988	0.278791
O23	O	-0.393844	0.873432	-0.330897
O24	O	0.106156	1.373432	0.169103
O25	O	-0.507595	0.996000	-0.536350
O26	O	-0.007595	1.496000	-0.036350
O27	O	-0.496861	0.876977	-0.417466
O28	O	0.003139	1.376977	0.082534
O29	O	-0.412712	1.082637	-0.539857
O30	O	0.087288	1.582637	-0.039857
O31	O	-0.633229	1.074221	-0.338926
O32	O	-0.133229	1.574221	0.161074
O33	O	-0.633054	0.991212	-0.422034
O34	O	-0.133054	1.491212	0.077966
C35	C	-0.444126	0.849624	-0.373153
C36	C	0.055874	1.349624	0.126847
C37	C	-0.440387	0.771265	-0.370017
C38	C	0.059613	1.271265	0.129983
C39	C	-0.492340	0.736313	-0.413545
C40	C	0.007660	1.236313	0.086455
C41	C	-0.488817	0.662686	-0.410602
C42	C	0.011183	1.162686	0.089398
C43	C	-0.433344	0.624013	-0.364127
C44	C	0.066656	1.124013	0.135873
C45	C	-0.381385	0.658970	-0.320597
C46	C	0.118615	1.158970	0.179403
C47	C	-0.384905	0.732596	-0.323544
C48	C	0.115095	1.232596	0.176456
C49	C	-0.417053	0.403617	-0.350490
C50	C	0.082947	0.903617	0.149510
C51	C	-0.413539	0.329986	-0.347545
C52	C	0.086461	0.829986	0.152455
C53	C	-0.520970	0.333708	-0.437551
C54	C	-0.020970	0.833708	0.062449
C55	C	-0.524489	0.407334	-0.440491
C56	C	-0.024489	0.907334	0.059509
C57	C	-0.472527	0.442285	-0.396964
C58	C	0.027473	0.942285	0.103036
N59	N	-0.429743	0.548755	-0.361116
N60	N	0.070257	1.048755	0.138884
N61	N	-0.476125	0.517542	-0.399979
N62	N	0.023875	1.017542	0.100021
C63	C	-0.662398	1.032724	-0.380490
C64	C	-0.162398	1.532724	0.119510
C65	C	-0.752022	1.032760	-0.380502
C66	C	-0.252022	1.532760	0.119498
C67	C	-1.080206	1.032886	-0.380580
C68	C	-0.580206	1.532886	0.119420
C69	C	-0.988895	1.032849	-0.380560
C70	C	-0.488895	1.532849	0.119440
C71	C	-0.916117	1.032823	-0.380541
C72	C	-0.416117	1.532823	0.119459
C73	C	-0.824800	1.032786	-0.380522
C74	C	-0.324800	1.532786	0.119478
C75	C	-0.242609	1.032880	-0.380570
C76	C	0.257391	1.532880	0.119430
C77	C	-0.152991	1.032917	-0.380591
C78	C	0.347009	1.532917	0.119409
C79	C	-0.461362	1.040407	-0.564398
C80	C	0.038638	1.540407	-0.064398
C81	C	-0.464963	1.043652	-0.642755
C82	C	0.035037	1.543652	-0.142755
C83	C	-0.461733	1.216674	-0.387920
C84	C	0.038267	1.716674	0.112080
C85	C	-0.465492	1.295034	-0.391073
C86	C	0.034508	1.795034	0.108927
C87	C	-0.444439	1.025246	-0.197363
C88	C	0.055561	1.525246	0.302637
C89	C	-0.440617	1.022138	-0.119012
C90	C	0.059383	1.522138	0.380988
C91	C	-0.492185	1.066063	-0.083982
C92	C	0.007815	1.566063	0.416018
C93	C	-0.488599	1.063132	-0.010362
C94	C	0.011401	1.563132	0.489638
C95	C	-0.433440	1.016278	0.028226
C96	C	0.066560	1.516278	0.528226
C97	C	-0.381870	0.972348	-0.006808
C98	C	0.118130	1.472348	0.493192
C99	C	-0.385461	0.975276	-0.080427
C100	C	0.114539	1.475276	0.419573
C101	C	-0.416983	1.002651	0.248592
C102	C	0.083017	1.502651	0.748592
C103	C	-0.413395	0.999727	0.322215
C104	C	0.086605	1.499727	0.822215
C105	C	-0.520125	1.090510	0.318657
C106	C	-0.020125	1.590510	0.818657
C107	C	-0.523707	1.093437	0.245037
C108	C	-0.023707	1.593437	0.745037
C109	C	-0.472140	1.049505	0.210009
C110	C	0.027860	1.549505	0.710009
N111	N	-0.429772	1.013283	0.103477
N112	N	0.070228	1.513283	0.603477
N113	N	-0.475813	1.052497	0.134759
N114	N	0.024187	1.552497	0.634759
H115	H	-0.374748	0.432065	-0.315042
H116	H	0.125252	0.932065	0.184958
H117	H	-0.336963	0.934196	0.024616
H118	H	0.163037	1.434196	0.524616
H119	H	-0.342595	0.761053	-0.288102
H120	H	0.157405	1.261053	0.211898
C121	C	-0.552864	1.117606	-0.126422
C122	C	-0.052864	1.617606	0.373578
N123	N	-0.598572	1.156427	-0.158386
N124	N	-0.098572	1.656427	0.341614
C125	C	-0.352510	0.287447	-0.296417
C126	C	0.147490	0.787447	0.203583
N127	N	-0.306547	0.255406	-0.257909
N128	N	0.193453	0.755406	0.242091
H129	H	-0.563274	0.305243	-0.472989
H130	H	-0.063274	0.805243	0.027011
C131	C	-0.545290	1.111487	0.028166
C132	C	-0.045290	1.611487	0.528166
N133	N	-0.587980	1.147923	0.057184
N134	N	-0.087980	1.647923	0.557184
C135	C	-0.328730	0.926957	-0.118959
C136	C	0.171270	1.426957	0.381041
N137	N	-0.286000	0.890560	-0.147981
N138	N	0.214000	1.390560	0.352019
C139	C	-0.584389	1.144977	0.202595
C140	C	-0.084389	1.644977	0.702595
N141	N	-0.630095	1.183798	0.170628
N142	N	-0.130095	1.683798	0.670628
H143	H	-0.569663	0.438817	-0.478335
H144	H	-0.069663	0.938817	0.021665
H145	H	-0.537515	0.767796	-0.451388
H146	H	-0.037515	1.267796	0.048612
H147	H	-0.368473	0.961574	0.353632
H148	H	0.131527	1.461574	0.853632
H149	H	-0.562109	1.126277	0.347185
H150	H	-0.062109	1.626277	0.847185
H151	H	-0.531124	0.634232	-0.446046
H152	H	-0.031124	1.134232	0.053954
H153	H	-0.336214	0.627477	-0.282759
H154	H	0.163786	1.127477	0.217241
H155	H	-0.374995	0.966876	0.220081
H156	H	0.125005	1.466876	0.720081
