data_functionalizedCrystal
_audit_creation_method	'MofGen! by Chris Wilmer'
_symmetry_space_group_name_H-M	'P1'
_symmetry_Int_Tables_number	1
_symmetry_cell_setting	triclinic
loop_
_symmetry_equiv_pos_as_xyz
  x,y,z
_cell_length_a	19.805407
_cell_length_b	17.638166
_cell_length_c	19.805399
_cell_angle_alpha	78.819502
_cell_angle_beta	90.020409
_cell_angle_gamma	101.246790
loop_
_atom_site_label
_atom_site_type_symbol
_atom_site_fract_x
_atom_site_fract_y
_atom_site_fract_z
Zn1	Zn	0.980230	-0.314681	0.437185
Zn2	Zn	1.480230	0.185319	0.937185
Zn3	Zn	0.957249	-0.446873	0.346870
Zn4	Zn	1.457249	0.053127	0.846870
Zn5	Zn	0.867041	-0.314707	0.324012
Zn6	Zn	1.367041	0.185293	0.824012
Zn7	Zn	0.844118	-0.446835	0.460009
Zn8	Zn	1.344118	0.053165	0.960009
O9	O	0.912159	-0.380774	0.392019
O10	O	1.412159	0.119226	0.892019
O11	O	1.071898	-0.332221	0.425219
O12	O	1.571898	0.167779	0.925219
O13	O	0.945257	-0.429367	0.249126
O14	O	1.445257	0.070633	0.749126
O15	O	0.901266	-0.204085	0.319907
O16	O	1.401266	0.295915	0.819907
O17	O	1.055013	-0.429342	0.358865
O18	O	1.555013	0.070658	0.858865
O19	O	0.984426	-0.204066	0.403054
O20	O	1.484426	0.295934	0.903054
O21	O	0.878982	-0.332266	0.232333
O22	O	1.378982	0.167734	0.732333
O23	O	0.769284	-0.332230	0.342039
O24	O	1.269284	0.167770	0.842039
O25	O	0.862199	-0.429278	0.551693
O26	O	1.362199	0.070722	1.051693
O27	O	0.752443	-0.429303	0.441954
O28	O	1.252443	0.070697	0.941954
O29	O	0.962200	-0.332185	0.534925
O30	O	1.462200	0.167815	1.034925
O31	O	0.923031	-0.557486	0.380996
O32	O	1.423031	-0.057486	0.880996
O33	O	0.839914	-0.557459	0.464119
O34	O	1.339914	-0.057459	0.964119
C35	C	0.736305	-0.380766	0.391993
C36	C	1.236305	0.119234	0.891993
C37	C	0.661070	-0.380781	0.392002
C38	C	1.161070	0.119219	0.892002
C39	C	0.876510	-0.586155	0.427529
C40	C	1.376510	-0.086155	0.927529
C41	C	0.861321	-0.674018	0.442743
C42	C	1.361321	-0.174018	0.942743
C43	C	0.208059	-0.330298	0.426678
C44	C	0.708059	0.169702	0.926678
C45	C	0.278748	-0.330299	0.426674
C46	C	0.778748	0.169701	0.926674
C47	C	0.305308	-0.380786	0.392043
C48	C	0.805308	0.119214	0.892043
C49	C	0.261174	-0.431280	0.357421
C50	C	0.761174	0.068720	0.857421
C51	C	0.190487	-0.431282	0.357430
C52	C	0.690487	0.068718	0.857430
C53	C	0.546249	-0.431274	0.357384
C54	C	1.046249	0.068726	0.857384
C55	C	0.616942	-0.431267	0.357376
C56	C	1.116942	0.068733	0.857376
C57	C	0.634509	-0.330291	0.426628
C58	C	1.134509	0.169709	0.926628
C59	C	0.563822	-0.330293	0.426637
C60	C	1.063822	0.169707	0.926637
C61	C	0.519694	-0.380790	0.392018
C62	C	1.019694	0.119210	0.892018
C63	C	0.443046	-0.380789	0.392024
C64	C	0.943046	0.119211	0.892024
C65	C	0.381955	-0.380784	0.392032
C66	C	0.881955	0.119216	0.892032
C67	C	0.796601	-0.797871	0.507429
C68	C	1.296601	-0.297871	1.007429
C69	C	0.810879	-0.715310	0.493128
C70	C	1.310879	-0.215310	0.993128
C71	C	0.897502	-0.715276	0.406636
C72	C	1.397502	-0.215276	0.906636
C73	C	0.883229	-0.797838	0.420928
C74	C	1.383229	-0.297838	0.920928
C75	C	0.832779	-0.839129	0.471325
C76	C	1.332779	-0.339129	0.971325
C77	C	0.919406	-0.839096	0.384824
C78	C	1.419406	-0.339096	0.884824
C79	C	0.905137	-0.921651	0.399116
C80	C	1.405137	-0.421651	0.899116
C81	C	0.854690	-0.962948	0.449513
C82	C	1.354690	-0.462948	0.949513
C83	C	0.818509	-0.921684	0.485618
C84	C	1.318509	-0.421684	0.985618
C85	C	0.969860	-0.797804	0.334430
C86	C	1.469860	-0.297804	0.834430
C87	C	1.006037	-0.839062	0.298326
C88	C	1.506037	-0.339062	0.798326
C89	C	0.991765	-0.921619	0.312615
C90	C	1.491765	-0.421619	0.812615
C91	C	0.941318	-0.962915	0.363011
C92	C	1.441318	-0.462915	0.863011
C93	C	1.027946	-0.962883	0.276510
C94	C	1.527946	-0.462883	0.776510
C95	C	1.013676	-1.045438	0.290802
C96	C	1.513676	-0.545438	0.790802
C97	C	0.927049	-1.045470	0.377304
C98	C	1.427049	-0.545470	0.877304
C99	C	1.088701	-0.380783	0.392046
C100	C	1.588701	0.119217	0.892046
C101	C	1.163932	-0.380787	0.392057
C102	C	1.663932	0.119213	0.892057
C103	C	0.912206	-0.380724	0.568553
C104	C	1.412206	0.119276	1.068553
C105	C	0.912226	-0.380703	0.643782
C106	C	1.412226	0.119297	1.143782
C107	C	0.947967	-0.174591	0.356385
C108	C	1.447967	0.325409	0.856385
C109	C	0.963226	-0.086729	0.341200
C110	C	1.463226	0.413271	0.841200
C111	C	0.912162	-0.380767	0.216162
C112	C	1.412162	0.119233	0.716162
C113	C	0.912312	-0.380565	0.140895
C114	C	1.412312	0.119435	0.640895
C115	C	0.964298	-0.330144	0.670395
C116	C	1.464298	0.169856	1.170395
C117	C	0.964309	-0.330121	0.741080
C118	C	1.464309	0.169879	1.241080
C119	C	0.912250	-0.380662	0.785150
C120	C	1.412250	0.119338	1.285150
C121	C	0.860173	-0.431223	0.758532
C122	C	1.360173	0.068777	1.258532
C123	C	0.860160	-0.431241	0.687848
C124	C	1.360160	0.068759	1.187848
C125	C	0.860224	-0.431149	1.043593
C126	C	1.360224	0.068851	1.543593
C127	C	0.860242	-0.431129	1.114282
C128	C	1.360242	0.068871	1.614282
C129	C	0.964373	-0.330029	1.096824
C130	C	1.464373	0.169971	1.596824
C131	C	0.964360	-0.330048	1.026140
C132	C	1.464360	0.169952	1.526140
C133	C	0.912281	-0.380605	0.999528
C134	C	1.412281	0.119395	1.499528
C135	C	0.912269	-0.380629	0.922884
C136	C	1.412269	0.119371	1.422884
C137	C	0.912264	-0.380643	0.861794
C138	C	1.412264	0.119357	1.361794
H139	H	0.186441	-0.289181	0.454874
H140	H	0.686441	0.210819	0.954874
H141	H	0.981478	-0.730583	0.322796
H142	H	1.481478	-0.230583	0.822796
Cl143	Cl	0.863611	-1.097385	0.440649
Cl144	Cl	1.363611	-0.597385	0.940649
H145	H	0.755523	-0.831492	0.548471
H146	H	1.255523	-0.331492	1.048471
H147	H	0.817826	-0.472328	1.021936
H148	H	1.317826	0.027672	1.521936
Cl149	Cl	0.836479	-1.066732	0.467211
Cl150	Cl	1.336479	-0.566732	0.967211
Cl151	Cl	0.755072	-0.973599	0.548963
Cl152	Cl	1.255072	-0.473599	1.048963
H153	H	0.781415	-0.681722	0.522534
H154	H	1.281415	-0.181722	1.022534
Cl155	Cl	0.960925	-0.663360	0.343284
Cl156	Cl	1.460925	-0.163360	0.843284
H157	H	1.006776	-0.288860	1.118500
H158	H	1.506776	0.211140	1.618500
Cl159	Cl	1.069460	-0.787147	0.234973
Cl160	Cl	1.569460	-0.287147	0.734973
Cl161	Cl	1.091374	-0.910965	0.213163
Cl162	Cl	1.591374	-0.410965	0.713163
H163	H	0.282805	-0.472391	0.329227
H164	H	0.782805	0.027609	0.829227
Cl165	Cl	0.794791	-0.494670	1.169685
Cl166	Cl	1.294791	0.005330	1.669685
Cl167	Cl	1.059158	-1.097309	0.245415
Cl168	Cl	1.559158	-0.597309	0.745415
H169	H	0.817784	-0.472371	0.794420
H170	H	1.317784	0.027629	1.294420
Cl171	Cl	1.029798	-0.266593	0.774539
Cl172	Cl	1.529798	0.233407	1.274539
Cl173	Cl	0.794694	-0.494801	0.654391
Cl174	Cl	1.294694	0.005199	1.154391
H175	H	0.314673	-0.289189	0.454869
H176	H	0.814673	0.210811	0.954869
H177	H	1.006692	-0.288991	0.634517
H178	H	1.506692	0.211009	1.134517
H179	H	1.006753	-0.288895	0.990261
H180	H	1.506753	0.211105	1.490261
H181	H	0.542202	-0.289179	0.454834
H182	H	1.042202	0.210821	0.954834
H183	H	0.638564	-0.472383	0.329174
H184	H	1.138564	0.027617	0.829174
Cl185	Cl	0.689988	-0.266812	0.470154
Cl186	Cl	1.189988	0.233188	0.970154
Cl187	Cl	0.135011	-0.494763	0.313910
Cl188	Cl	0.635011	0.005237	0.813910
Cl189	Cl	0.490787	-0.494733	0.313838
Cl190	Cl	0.990787	0.005267	0.813838
