data_functionalizedCrystal
_audit_creation_method	'MofGen! by Chris Wilmer'
_symmetry_space_group_name_H-M	'P1'
_symmetry_Int_Tables_number	1
_symmetry_cell_setting	triclinic
loop_
_symmetry_equiv_pos_as_xyz
  x,y,z
_cell_length_a	6.817900
_cell_length_b	11.168121
_cell_length_c	10.992410
_cell_angle_alpha	91.928971
_cell_angle_beta	108.764651
_cell_angle_gamma	108.508496
loop_
_atom_site_label
_atom_site_type_symbol
_atom_site_fract_x
_atom_site_fract_y
_atom_site_fract_z
V1	V	-4.112913	-0.174705	-0.400604
O2	O	-4.072440	0.008395	-0.392967
O3	O	-4.089180	-0.346410	-0.397874
O4	O	-4.090526	-0.172017	-0.575316
O5	O	-4.071085	-0.167205	-0.214297
V6	V	-4.589974	-0.152804	-0.378319
O7	O	-4.388347	-0.222746	-0.449488
O8	O	-4.764738	-0.104762	-0.329435
O9	O	-4.390501	0.018902	-0.381048
O10	O	-4.747844	-0.335904	-0.385956
O11	O	-4.749199	-0.160304	-0.564625
O12	O	-4.389155	-0.155491	-0.203606
C13	C	-3.939340	-0.388268	-0.391557
C14	C	-4.001396	-0.528639	-0.390491
C15	C	-4.203947	-0.597332	-0.396109
C16	C	-4.268089	-0.742413	-0.395006
C17	C	-3.941055	-0.165811	-0.617900
C18	C	-4.004198	-0.164750	-0.760729
C19	C	-3.871395	-0.155083	-0.955851
C20	C	-3.805832	-0.156709	-0.807368
C21	C	-4.201263	-0.289253	-0.837840
C22	C	-4.265585	-0.288151	-0.986407
C23	C	-4.145193	-0.047070	-0.948360
C24	C	-4.074488	-0.046480	-0.799347
C25	C	-4.203683	0.060753	-0.387361
C26	C	-4.120867	0.201123	-0.388437
C27	C	-4.201968	-0.161701	-0.161015
C28	C	-4.118062	-0.162756	-0.018186
H29	H	-3.875474	-0.577238	-0.384872
H30	H	-3.947342	-0.739834	-0.383623
N31	N	-3.610268	-0.038080	-0.736605
H32	H	-3.482445	-0.063255	-0.683283
H33	H	-3.651757	0.012645	-0.677390
H34	H	-4.216612	-0.045018	-0.766835
N35	N	-4.497857	-0.820657	-0.401266
H36	H	-4.571464	-0.887971	-0.481115
H37	H	-4.587177	-0.762988	-0.405717
N38	N	-3.717034	-0.035696	-0.980789
H39	H	-3.733742	0.041950	-0.941555
H40	H	-3.754401	-0.036522	-1.077559
N41	N	-4.370779	-0.532978	-0.403575
H42	H	-4.301312	-0.438459	-0.403308
H43	H	-4.420094	-0.546511	-0.326184
N44	N	-3.837499	-0.265185	-1.019413
H45	H	-3.981231	-0.320012	-1.088411
H46	H	-3.786349	-0.318178	-0.951671
N47	N	-3.729176	-0.268324	-0.774517
H48	H	-3.852616	-0.350533	-0.822383
H49	H	-3.686149	-0.269742	-0.677801
N50	N	-4.244097	-0.404178	-1.047718
H51	H	-4.193010	-0.455556	-0.978171
H52	H	-4.132864	-0.375992	-1.092769
N53	N	-4.139781	-0.405577	-0.803951
H54	H	-4.245618	-0.461570	-0.765354
H55	H	-3.984415	-0.377801	-0.738741
H56	H	-4.447504	-0.298978	-1.029039
N57	N	-3.885656	0.075514	-0.729984
H58	H	-3.933020	0.125563	-0.673651
H59	H	-3.842373	0.128348	-0.796114
H60	H	-4.351559	-0.299632	-0.809038
N61	N	-4.009846	0.078169	-0.975320
H62	H	-3.848752	0.087003	-0.942421
H63	H	-4.029846	0.151015	-0.929602
H64	H	-4.324142	-0.051595	-0.989201
