data_functionalizedCrystal
_audit_creation_method	'MofGen! by Chris Wilmer'
_symmetry_space_group_name_H-M	'P1'
_symmetry_Int_Tables_number	1
_symmetry_cell_setting	triclinic
loop_
_symmetry_equiv_pos_as_xyz
  x,y,z
_cell_length_a	18.215407
_cell_length_b	16.959454
_cell_length_c	18.215407
_cell_angle_alpha	90.007962
_cell_angle_beta	90.010236
_cell_angle_gamma	90.020523
loop_
_atom_site_label
_atom_site_type_symbol
_atom_site_fract_x
_atom_site_fract_y
_atom_site_fract_z
Zn1	Zn	1.125027	-0.314803	0.416137
Zn2	Zn	1.124966	-0.446952	0.293080
Zn3	Zn	1.001980	-0.314793	0.293085
Zn4	Zn	1.001936	-0.446944	0.416105
O5	O	1.063477	-0.380873	0.354602
O6	O	1.228003	-0.332340	0.399825
O7	O	1.108645	-0.429420	0.190097
O8	O	1.018346	-0.204183	0.309423
O9	O	1.227958	-0.429430	0.309416
O10	O	1.108748	-0.204191	0.399830
O11	O	1.018288	-0.332323	0.190100
O12	O	0.898990	-0.332315	0.309392
O13	O	1.018271	-0.429417	0.519094
O14	O	0.898957	-0.429407	0.399775
O15	O	1.108705	-0.332333	0.519117
O16	O	1.108602	-0.557562	0.309384
O17	O	1.018212	-0.557556	0.399770
C18	C	0.872271	-0.380859	0.354581
C19	C	0.790472	-0.380873	0.354589
C20	C	0.602280	-0.431508	0.401592
C21	C	0.525422	-0.431510	0.401602
C22	C	0.525426	-0.330253	0.307628
C23	C	0.602283	-0.330247	0.307623
C24	C	0.640708	-0.380879	0.354604
C25	C	0.486992	-0.380887	0.354618
C26	C	0.403659	-0.380889	0.354628
C27	C	0.724047	-0.380876	0.354596
C28	C	1.063415	-0.586239	0.354589
C29	C	1.063456	-0.674096	0.354609
C30	C	1.016479	-1.045598	0.401661
C31	C	1.110680	-1.045544	0.307618
C32	C	1.110654	-0.962999	0.307611
C33	C	1.063540	-0.921749	0.354629
C34	C	1.016451	-0.963045	0.401654
C35	C	1.157737	-0.921696	0.260582
C36	C	1.157713	-0.839145	0.260573
C37	C	1.110601	-0.797894	0.307595
C38	C	1.063511	-0.839195	0.354622
C39	C	1.016396	-0.797945	0.401640
C40	C	0.969309	-0.839245	0.448672
C41	C	0.969339	-0.921794	0.448676
C42	C	1.110571	-0.715346	0.307591
C43	C	1.016367	-0.715392	0.401633
C44	C	1.255430	-0.380887	0.354624
C45	C	1.337229	-0.380893	0.354633
C46	C	1.063490	-0.380875	0.546555
C47	C	1.063495	-0.380876	0.628354
C48	C	1.063559	-0.174705	0.354631
C49	C	1.063594	-0.086848	0.354643
C50	C	1.110570	-0.330333	0.816561
C51	C	1.110566	-0.330332	0.893420
C52	C	1.016397	-0.431431	0.893384
C53	C	1.016398	-0.431427	0.816527
C54	C	1.063488	-0.380879	0.778117
C55	C	1.063483	-0.380883	0.931833
C56	C	1.063479	-0.380883	1.015167
C57	C	1.063492	-0.380877	0.694778
C58	C	1.063465	-0.380888	1.163396
C59	C	1.063476	-0.380885	1.081597
H60	H	0.633564	-0.472734	0.439849
O61	O	0.488207	-0.480767	0.447268
C62	C	0.538606	-0.525436	0.488745
H63	H	0.593383	-0.528120	0.458591
H64	H	0.546805	-0.496583	0.544682
C65	C	0.441312	-0.606285	0.536259
C66	C	0.508588	-0.609587	0.499220
H67	H	0.422795	-0.658193	0.542724
H68	H	0.407356	-0.576190	0.508318
H69	H	0.448153	-0.582238	0.582869
H70	H	0.501744	-0.633625	0.452607
H71	H	0.542542	-0.639689	0.527154
O72	O	1.156341	-0.675142	0.262011
C73	C	1.203843	-0.627362	0.303946
H74	H	1.177848	-0.615001	0.359695
H75	H	1.258385	-0.659134	0.312080
C76	C	1.249099	-0.564131	0.194988
C77	C	1.217168	-0.548943	0.263457
H78	H	1.257322	-0.515760	0.170012
H79	H	1.217098	-0.596323	0.166735
H80	H	1.294547	-0.590609	0.201776
H81	H	1.171717	-0.522474	0.256668
H82	H	1.249162	-0.516745	0.291709
H83	H	1.148912	-0.289171	0.785290
H84	H	0.978004	-0.681811	0.439924
O85	O	0.487984	-0.281147	0.262015
C86	C	0.411907	-0.291993	0.272107
H87	H	0.401399	-0.353035	0.296112
H88	H	0.390120	-0.245177	0.311375
C89	C	0.385338	-0.209651	0.168177
C90	C	0.372430	-0.284627	0.197654
H91	H	0.360985	-0.205104	0.122252
H92	H	0.436592	-0.202342	0.161379
H93	H	0.367181	-0.170646	0.200907
H94	H	0.390595	-0.323630	0.164929
H95	H	0.321178	-0.291943	0.204445
O96	O	1.156372	-0.281209	0.930650
C97	C	1.197918	-0.236581	0.880265
H98	H	1.200455	-0.268957	0.825475
H99	H	1.170993	-0.176547	0.872093
C100	C	1.273132	-0.185430	0.977572
C101	C	1.276252	-0.225198	0.910280
H102	H	1.321451	-0.178404	0.996088
H103	H	1.245140	-0.215493	1.011519
H104	H	1.250690	-0.135406	0.970754
H105	H	1.298685	-0.275224	0.917101
H106	H	1.304250	-0.195142	0.876335
O107	O	0.970728	-0.480509	0.930810
C108	C	0.980809	-0.469662	1.006891
H109	H	1.037613	-0.443778	1.017403
H110	H	0.937173	-0.427569	1.028701
C111	C	0.904268	-0.581432	1.033422
C112	C	0.974038	-0.549647	1.046334
H113	H	0.900088	-0.630769	1.057754
H114	H	0.897473	-0.588738	0.982165
H115	H	0.867912	-0.546347	1.051598
H116	H	1.010392	-0.584727	1.028151
H117	H	0.980839	-0.542348	1.097589
H118	H	0.930945	-0.805650	0.486951
O119	O	0.970638	-0.480606	0.779291
C120	C	0.929066	-0.525213	0.829671
H121	H	0.959205	-0.527957	0.884464
H122	H	0.873183	-0.496267	0.837839
C123	C	0.881411	-0.605965	0.732356
C124	C	0.918433	-0.609341	0.799652
H125	H	0.874849	-0.657858	0.713839
H126	H	0.909417	-0.575911	0.698413
H127	H	0.834847	-0.581839	0.739172
H128	H	0.965000	-0.633457	0.792834
H129	H	0.890435	-0.639401	0.833593
O130	O	0.639584	-0.281148	0.261869
C131	C	0.620771	-0.298289	0.188495
H132	H	0.599624	-0.361430	0.184681
H133	H	0.576168	-0.255882	0.169325
C134	C	0.715013	-0.211456	0.144078
C135	C	0.689045	-0.289009	0.139393
H136	H	0.757126	-0.205729	0.113788
H137	H	0.727686	-0.199905	0.193511
H138	H	0.677837	-0.176126	0.128104
H139	H	0.726217	-0.324338	0.155375
H140	H	0.676379	-0.300566	0.089961
O141	O	0.923701	-0.962000	0.494389
C142	C	0.965579	-1.009696	0.541974
H143	H	1.021376	-1.022021	0.516073
H144	H	0.973610	-0.977869	0.596520
C145	C	0.856575	-1.073002	0.587068
C146	C	0.925103	-1.088146	0.555254
H147	H	0.831607	-1.121392	0.595263
H148	H	0.828360	-1.040867	0.555012
H149	H	0.863277	-1.046478	0.632520
H150	H	0.918400	-1.114660	0.509799
H151	H	0.953317	-1.120288	0.587303
O152	O	0.970764	-1.085834	0.447275
C153	C	0.980904	-1.167540	0.437219
H154	H	1.005052	-1.178814	0.380449
H155	H	1.020070	-1.190920	0.480911
C156	C	0.876792	-1.196130	0.513627
C157	C	0.906446	-1.209978	0.443898
H158	H	0.830864	-1.222310	0.517750
H159	H	0.869962	-1.141084	0.520405
H160	H	0.909437	-1.215614	0.550029
H161	H	0.873805	-1.190485	0.407498
H162	H	0.913269	-1.265023	0.437115
O163	O	1.156393	-1.085733	0.261989
C164	C	1.146290	-1.167449	0.272048
H165	H	1.122183	-1.178738	0.328834
H166	H	1.107103	-1.190887	0.228381
C167	C	1.250361	-1.195934	0.195569
C168	C	1.220759	-1.209800	0.265317
H169	H	1.296296	-1.222059	0.191414
H170	H	1.257166	-1.140881	0.188789
H171	H	1.217698	-1.215466	0.159188
H172	H	1.253417	-1.190259	0.301696
H173	H	1.213961	-1.264851	0.272103
O174	O	1.203517	-0.961836	0.214983
C175	C	1.251027	-1.009601	0.256876
H176	H	1.255620	-0.984702	0.314830
H177	H	1.228232	-1.072154	0.259433
C178	C	1.321870	-1.041497	0.149715
C179	C	1.327517	-1.010911	0.220894
H180	H	1.369052	-1.042309	0.127519
H181	H	1.289861	-1.009319	0.121490
H182	H	1.302872	-1.093621	0.151856
H183	H	1.346506	-0.958785	0.218751
H184	H	1.359532	-1.043080	0.249118
O185	O	1.203525	-0.799153	0.214871
C186	C	1.245101	-0.853264	0.173360
H187	H	1.247641	-0.912100	0.203508
H188	H	1.218198	-0.862073	0.117442
C189	C	1.320305	-0.748730	0.125800
C190	C	1.323430	-0.820992	0.162832
H191	H	1.368622	-0.728822	0.119303
H192	H	1.292293	-0.712273	0.153764
H193	H	1.297883	-0.756080	0.079205
H194	H	1.345844	-0.813638	0.209429
H195	H	1.351448	-0.857446	0.134875
