data_functionalizedCrystal
_audit_creation_method	'MofGen! by Chris Wilmer'
_symmetry_space_group_name_H-M	'P1'
_symmetry_Int_Tables_number	1
_symmetry_cell_setting	triclinic
loop_
_symmetry_equiv_pos_as_xyz
  x,y,z
_cell_length_a	16.109301
_cell_length_b	15.944493
_cell_length_c	14.421503
_cell_angle_alpha	89.997074
_cell_angle_beta	89.997488
_cell_angle_gamma	83.468262
loop_
_atom_site_label
_atom_site_type_symbol
_atom_site_fract_x
_atom_site_fract_y
_atom_site_fract_z
O1	O	1.103145	0.107975	-0.077041
O2	O	0.861085	0.121412	-0.077054
O3	O	0.988750	-0.007587	-0.077055
O4	O	0.975479	0.236974	-0.077040
O5	O	0.988738	-0.007601	0.077169
O6	O	0.861073	0.121398	0.077169
O7	O	1.103133	0.107961	0.077183
Cu8	Cu	0.982102	0.114678	0.091258
Cu9	Cu	0.982116	0.114695	-0.091129
O10	O	0.975468	0.236960	0.077183
C11	C	0.830104	0.120861	0.000056
C12	C	0.737808	0.119229	0.000050
C13	C	0.515544	0.191980	0.000065
C14	C	0.428824	0.190440	0.000071
C15	C	0.448680	0.037388	0.000058
C16	C	0.535399	0.038928	0.000059
C17	C	0.568829	0.116227	0.000058
C18	C	0.395389	0.113146	0.000063
C19	C	0.301363	0.111476	0.000069
C20	C	0.662861	0.117897	0.000053
C21	C	0.988202	-0.038888	0.000053
C22	C	0.986576	-0.132136	0.000041
C23	C	1.061722	-0.367921	0.000063
C24	C	1.021204	-0.418469	-0.075979
C25	C	0.983563	-0.302856	0.000052
C26	C	1.021175	-0.418459	0.076073
C27	C	0.980658	-0.467765	0.000067
C28	C	0.943066	-0.352176	-0.076052
C29	C	0.943047	-0.352162	0.076068
C30	C	0.902472	-0.402677	0.000008
C31	C	0.985238	-0.207857	0.000043
C32	C	0.978976	-0.562762	0.000070
C33	C	1.134114	0.108513	0.000071
C34	C	1.226410	0.110144	0.000070
C35	C	0.976016	0.268262	0.000074
C36	C	0.977642	0.361510	0.000079
N37	N	0.982098	0.114666	0.219539
N38	N	0.982126	0.114700	-0.219410
C39	C	1.040688	0.054543	0.530967
C40	C	1.057487	0.130210	0.469137
C41	C	0.982117	0.114691	0.591428
C42	C	0.965348	0.039014	0.469165
C43	C	0.982110	0.114675	0.408707
C44	C	0.998953	0.190396	0.530958
C45	C	0.906782	0.099150	0.530992
C46	C	0.923549	0.174872	0.469189
C47	C	0.982123	0.114699	0.696689
C48	C	0.982103	0.114675	0.303448
H49	H	0.542760	0.254921	0.000071
H50	H	0.910081	-0.323340	-0.140409
Br51	Br	0.403306	-0.067513	0.000056
H52	H	1.129047	-0.352315	-0.000010
H53	H	0.835095	-0.418121	-0.000038
H54	H	0.385443	0.252126	0.000079
H55	H	0.874012	0.225785	0.442235
H56	H	0.578786	-0.022763	0.000055
Br57	Br	1.022715	0.297077	0.576002
H58	H	1.054217	-0.447420	-0.140264
Br59	Br	0.888088	-0.303859	0.183220
Br60	Br	1.163661	0.152105	0.423825
H61	H	0.843096	0.085982	0.558182
Br62	Br	1.123299	-0.030130	0.576183
H63	H	1.054194	-0.447406	0.140356
Br64	Br	0.941707	-0.067643	0.423927
