data_functionalizedCrystal
_audit_creation_method	'MofGen! by Chris Wilmer'
_symmetry_space_group_name_H-M	'P1'
_symmetry_Int_Tables_number	1
_symmetry_cell_setting	triclinic
loop_
_symmetry_equiv_pos_as_xyz
  x,y,z
_cell_length_a	15.944499
_cell_length_b	14.853567
_cell_length_c	13.330367
_cell_angle_alpha	90.000844
_cell_angle_beta	89.989856
_cell_angle_gamma	96.443730
loop_
_atom_site_label
_atom_site_type_symbol
_atom_site_fract_x
_atom_site_fract_y
_atom_site_fract_z
O1	O	1.114684	-0.116051	-0.083475
O2	O	0.870145	-0.130435	-0.083463
O3	O	0.998947	0.007997	-0.083472
O4	O	0.985883	-0.254482	-0.083466
O5	O	0.998928	0.008000	0.083375
O6	O	0.870126	-0.130432	0.083384
O7	O	1.114666	-0.116048	0.083372
Cu8	Cu	0.992394	-0.123239	0.098613
Cu9	Cu	0.992416	-0.123243	-0.098703
O10	O	0.985864	-0.254479	0.083382
C11	C	0.838840	-0.129844	-0.000038
C12	C	0.745590	-0.128079	-0.000034
N13	N	0.992385	-0.123236	0.237394
C14	C	0.998345	0.041586	-0.000052
C15	C	0.996571	0.141667	-0.000060
C16	C	0.454143	-0.208504	-0.000046
C17	C	0.515135	-0.166698	-0.082314
C18	C	0.409946	-0.121664	-0.000057
C19	C	0.515103	-0.166672	0.082184
C20	C	0.574858	-0.124821	-0.000044
C21	C	0.469710	-0.079835	-0.082392
C22	C	0.469671	-0.079821	0.082180
C23	C	0.530645	-0.037952	-0.000107
C24	C	0.314944	-0.119849	-0.000065
C25	C	0.669859	-0.126630	-0.000043
C26	C	1.145970	-0.116638	-0.000055
C27	C	1.239221	-0.118404	-0.000066
C28	C	0.986465	-0.288068	-0.000041
C29	C	0.988239	-0.388149	-0.000039
C30	C	0.912562	0.554076	-0.000037
C31	C	1.065582	0.575584	-0.000045
C32	C	1.067249	0.481553	-0.000051
C33	C	0.991572	0.423779	-0.000048
C34	C	0.914228	0.460036	-0.000040
C35	C	1.144593	0.445289	-0.000049
C36	C	1.146264	0.351252	-0.000054
C37	C	1.070586	0.293476	-0.000059
C38	C	0.993238	0.329739	-0.000051
C39	C	0.917561	0.271965	-0.000049
C40	C	0.840212	0.308225	-0.000049
C41	C	0.838550	0.402260	-0.000045
C42	C	1.072248	0.199441	-0.000063
C43	C	0.919227	0.177924	-0.000052
N44	N	0.992432	-0.123239	-0.237485
C45	C	0.935380	-0.184516	0.710021
C46	C	1.049475	-0.061963	0.709981
C47	C	1.049465	-0.061960	0.604962
C48	C	0.992413	-0.123237	0.552469
C49	C	0.935371	-0.184517	0.604993
C50	C	1.106512	-0.000687	0.552430
C51	C	1.106506	-0.000682	0.447405
C52	C	1.049449	-0.061956	0.394910
C53	C	0.992404	-0.123238	0.447441
C54	C	0.935352	-0.184515	0.394947
C55	C	0.878302	-0.245794	0.447476
C56	C	0.878314	-0.245791	0.552497
C57	C	1.049437	-0.061959	0.289888
C58	C	0.935342	-0.184516	0.289919
H59	H	0.420894	-0.280572	-0.000124
H60	H	1.095890	-0.012071	0.247124
C61	C	0.542360	-0.216325	-0.176261
N62	N	0.562866	-0.253712	-0.247015
H63	H	0.449698	-0.043141	-0.152021
C64	C	0.815547	-0.313198	0.389719
N65	N	0.768281	-0.363964	0.346212
C66	C	1.227831	0.508845	-0.000044
N67	N	1.290530	0.556720	-0.000042
C68	C	0.872622	-0.251913	0.767803
N69	N	0.825351	-0.302675	0.811326
C70	C	0.542266	-0.216308	0.176143
N71	N	0.562721	-0.253699	0.246909
C72	C	0.756970	0.244662	-0.000046
N73	N	0.694275	0.196783	-0.000046
C74	C	0.575367	0.059492	-0.000172
N75	N	0.609053	0.132886	-0.000225
H76	H	0.449505	-0.043120	0.151731
C77	C	0.835974	0.114379	-0.000052
N78	N	0.773267	0.066518	-0.000052
C79	C	0.753474	0.442155	-0.000024
N80	N	0.689395	0.472207	0.000001
H81	H	0.849586	0.583604	-0.000041
C82	C	1.231348	0.311374	-0.000061
N83	N	1.295435	0.281337	-0.000071
C84	C	1.148821	0.639138	-0.000042
N85	N	1.211521	0.687011	-0.000042
C86	C	1.157327	0.159558	-0.000062
N87	N	1.221412	0.129520	-0.000065
H88	H	1.095929	-0.012076	0.752725
H89	H	0.888880	-0.234413	0.247184
H90	H	0.831867	-0.295682	0.595273
H91	H	1.152967	0.049199	0.595174
H92	H	1.152958	0.049214	0.404643
