data_functionalizedCrystal
_audit_creation_method	'MofGen! by Chris Wilmer'
_symmetry_space_group_name_H-M	'P1'
_symmetry_Int_Tables_number	1
_symmetry_cell_setting	triclinic
loop_
_symmetry_equiv_pos_as_xyz
  x,y,z
_cell_length_a	10.654541
_cell_length_b	10.540539
_cell_length_c	9.730217
_cell_angle_alpha	89.998866
_cell_angle_beta	89.999932
_cell_angle_gamma	84.504710
loop_
_atom_site_label
_atom_site_type_symbol
_atom_site_fract_x
_atom_site_fract_y
_atom_site_fract_z
O1	O	1.667901	0.178284	-0.114241
O2	O	1.302428	0.195274	-0.114252
O3	O	1.493503	0.002070	-0.114244
O4	O	1.476827	0.371489	-0.114248
O5	O	1.493497	0.002068	0.114336
O6	O	1.302422	0.195273	0.114328
O7	O	1.667895	0.178282	0.114339
Zn8	Zn	1.485158	0.186777	0.150626
Zn9	Zn	1.485166	0.186779	-0.150538
O10	O	1.476821	0.371487	0.114332
C11	C	1.255627	0.194027	0.000036
C12	C	1.116182	0.190296	0.000032
C13	C	1.088292	0.421325	0.000012
C14	C	1.008838	0.535081	-0.000003
C15	C	0.877819	0.531569	-0.000004
C16	C	0.826252	0.414286	0.000014
C17	C	0.905707	0.300530	0.000029
C18	C	1.036727	0.304055	0.000026
C19	C	0.933596	0.069504	0.000059
C20	C	1.064615	0.073014	0.000050
C21	C	0.882029	-0.047778	0.000077
C22	C	0.961484	-0.161538	0.000082
C23	C	1.092511	-0.158020	0.000082
C24	C	1.144070	-0.040742	0.000065
C25	C	1.492249	-0.045234	0.000043
C26	C	1.488508	-0.186180	0.000036
C27	C	1.345136	-0.369555	-0.000482
C28	C	1.348929	-0.222938	0.000033
C29	C	1.555676	-0.247864	0.130568
C30	C	1.550912	-0.394407	0.130678
C31	C	1.553758	-0.394924	-0.129260
C32	C	1.555043	-0.247942	-0.130986
C33	C	1.714697	0.179530	0.000048
C34	C	1.854142	0.183260	0.000043
C35	C	1.478074	0.418790	0.000041
C36	C	1.481816	0.559737	0.000040
N37	N	1.485162	0.186775	0.356162
N38	N	1.485172	0.186772	-0.356075
C39	C	1.654428	0.015742	0.356160
C40	C	1.739070	-0.069770	0.428098
C41	C	1.739082	-0.069771	0.571978
C42	C	1.654442	0.015747	0.643922
C43	C	1.569800	0.101260	0.571984
C44	C	1.569799	0.101254	0.428101
C45	C	1.400530	0.272284	0.571986
C46	C	1.400521	0.272293	0.428107
C47	C	1.315890	0.357803	0.643931
C48	C	1.231252	0.443324	0.571992
C49	C	1.231244	0.443322	0.428104
C50	C	1.315880	0.357806	0.356168
H51	H	1.296077	-0.180314	-0.093538
C52	C	1.654436	0.015734	0.802186
H53	H	1.591902	0.078903	0.834730
H54	H	1.734853	0.033860	0.834747
H55	H	1.636518	-0.065575	0.834720
H56	H	1.808000	-0.139407	0.630551
H57	H	1.315898	0.357793	0.761085
H58	H	1.157196	-0.250655	0.000100
H59	H	1.654437	0.015745	0.239005
C60	C	1.692520	-0.215284	-0.141633
H61	H	1.711225	-0.163330	-0.065968
H62	H	1.703561	-0.170699	-0.224943
H63	H	1.747597	-0.291686	-0.140522
H64	H	1.050838	0.630571	-0.000014
H65	H	1.162338	0.512941	0.630578
C66	C	1.492733	-0.437513	-0.262914
H67	H	1.422800	-0.483348	-0.241105
H68	H	1.552847	-0.490764	-0.313881
H69	H	1.464870	-0.364689	-0.316199
C70	C	1.686509	-0.459271	0.138719
H71	H	1.684519	-0.549187	0.138836
H72	H	1.725419	-0.433764	0.220735
H73	H	1.733238	-0.434887	0.061531
H74	H	0.813126	0.624199	-0.000007
C75	C	0.682135	0.410424	0.000023
H76	H	0.642201	0.494969	0.000008
H77	H	0.657647	0.366968	0.079737
H78	H	0.657644	0.366964	-0.079695
C79	C	0.904759	-0.290529	0.000100
H80	H	0.815350	-0.276329	0.000095
H81	H	0.931963	-0.337417	0.079810
H82	H	0.931952	-0.337417	-0.079622
C83	C	1.270950	-0.410317	0.125265
H84	H	1.322912	-0.470236	0.178084
H85	H	1.198321	-0.448166	0.095253
H86	H	1.245869	-0.337689	0.180054
C87	C	1.232409	0.425194	0.000002
H88	H	1.251741	0.511331	-0.000005
H89	H	1.267196	0.383316	-0.079702
H90	H	1.267199	0.383341	0.079730
H91	H	1.162314	0.512952	0.369539
H92	H	1.807981	-0.139402	0.369508
C93	C	1.270640	-0.408173	-0.126922
H94	H	1.322218	-0.467771	-0.180526
H95	H	1.246046	-0.334748	-0.180677
H96	H	1.197698	-0.445859	-0.097561
H97	H	1.315885	0.357801	0.239014
H98	H	1.250751	-0.037867	0.000049
C99	C	1.689950	-0.458769	-0.130457
H100	H	1.732948	-0.430993	-0.208814
H101	H	1.688669	-0.548704	-0.133809
H102	H	1.732259	-0.435977	-0.049480
H103	H	0.775346	-0.050630	0.000083
H104	H	1.295702	-0.181163	0.093756
C105	C	1.483831	-0.432484	0.262476
H106	H	1.459737	-0.358422	0.315443
H107	H	1.539420	-0.489559	0.314669
H108	H	1.410928	-0.472939	0.238620
H109	H	1.658178	-0.225548	0.135424
H110	H	1.509012	-0.205248	0.227703
H111	H	1.505897	-0.207065	-0.227550
