data_functionalizedCrystal
_audit_creation_method	'MofGen! by Chris Wilmer'
_symmetry_space_group_name_H-M	'P1'
_symmetry_Int_Tables_number	1
_symmetry_cell_setting	triclinic
loop_
_symmetry_equiv_pos_as_xyz
  x,y,z
_cell_length_a	14.519731
_cell_length_b	12.811457
_cell_length_c	11.295483
_cell_angle_alpha	91.289320
_cell_angle_beta	85.891568
_cell_angle_gamma	96.133485
loop_
_atom_site_label
_atom_site_type_symbol
_atom_site_fract_x
_atom_site_fract_y
_atom_site_fract_z
O1	O	-0.127392	1.389266	0.051021
O2	O	0.372608	1.889266	0.551021
O3	O	-0.138856	1.086046	0.018275
O4	O	0.361144	1.586046	0.518275
O5	O	0.001040	1.245684	0.035506
O6	O	0.501040	1.745684	0.535506
O7	O	-0.267289	1.229627	0.033789
O8	O	0.232711	1.729627	0.533789
O9	O	-0.011228	1.231663	0.232044
O10	O	0.488772	1.731663	0.732044
O11	O	-0.151125	1.072024	0.214812
O12	O	0.348875	1.572024	0.714812
O13	O	-0.139661	1.375244	0.247558
O14	O	0.360339	1.875244	0.747558
Cu15	Cu	-0.146513	1.222354	0.249131
Cu16	Cu	0.353487	1.722354	0.749131
Cu17	Cu	-0.132004	1.238936	0.016702
Cu18	Cu	0.367996	1.738936	0.516702
O19	O	-0.279557	1.215606	0.230327
O20	O	0.220443	1.715606	0.730327
C21	C	-0.143972	1.040229	0.112352
C22	C	0.356028	1.540229	0.612352
C23	C	-0.140927	0.924598	0.099864
C24	C	0.359073	1.424598	0.599864
C25	C	-0.148563	0.692028	0.290686
C26	C	0.351437	1.192028	0.790686
C27	C	-0.145701	0.583382	0.278958
C28	C	0.354299	1.083382	0.778958
C29	C	-0.132336	0.598659	0.064681
C30	C	0.367664	1.098659	0.564681
C31	C	-0.135197	0.707305	0.076409
C32	C	0.364803	1.207305	0.576409
C33	C	-0.143312	0.753985	0.189415
C34	C	0.356688	1.253985	0.689415
C35	C	-0.146180	0.862632	0.201142
C36	C	0.353820	1.362632	0.701142
C37	C	-0.132808	0.877908	-0.013134
C38	C	0.367192	1.377908	0.486866
C39	C	-0.129947	0.769262	-0.024862
C40	C	0.370053	1.269262	0.475138
C41	C	-0.307789	1.223369	0.132141
C42	C	0.192211	1.723369	0.632141
C43	C	-0.410190	1.225623	0.132391
C44	C	0.089810	1.725623	0.632391
C45	C	-0.493351	1.227455	0.132584
C46	C	0.006649	1.727455	0.632584
C47	C	-0.597680	1.229744	0.132820
C48	C	-0.097680	1.729744	0.632820
C49	C	-0.680835	1.231562	0.133007
C50	C	-0.180835	1.731562	0.633007
C51	C	-0.785171	1.233851	0.133245
C52	C	-0.285171	1.733851	0.633245
C53	C	0.029272	1.237922	0.133689
C54	C	0.529272	1.737922	0.633689
C55	C	0.131674	1.235668	0.133432
C56	C	0.631674	1.735668	0.633432
C57	C	-0.134545	1.421062	0.153478
C58	C	0.365455	1.921062	0.653478
C59	C	-0.137589	1.536693	0.165959
C60	C	0.362411	2.036693	0.665959
N61	N	-0.156717	1.210699	0.412609
N62	N	0.343283	1.710699	0.912609
N63	N	-0.121793	1.250600	-0.146775
N64	N	0.378207	1.750600	0.353225
C65	C	-0.048287	1.334501	0.675262
C66	C	0.451713	1.834501	1.175262
C67	C	-0.056004	1.325700	0.798975
C68	C	0.443996	1.825700	1.298975
C69	C	-0.179866	1.184293	0.783752
C70	C	0.320134	1.684293	1.283752
C71	C	-0.172148	1.193093	0.660038
C72	C	0.327852	1.693093	1.160038
C73	C	-0.106357	1.268201	0.605798
C74	C	0.393643	1.768201	1.105798
C75	C	-0.098644	1.277006	0.482082
C76	C	0.401356	1.777006	0.982082
C77	C	-0.222500	1.135594	0.466860
C78	C	0.277500	1.635594	0.966860
C79	C	-0.230218	1.126793	0.590574
C80	C	0.269782	1.626793	1.090574
H81	H	-0.152793	0.900636	0.293157
H82	H	0.347207	1.400636	0.793157
H83	H	-0.123335	0.731240	-0.116868
H84	H	0.376665	1.231240	0.383132
H85	H	-0.155183	0.730034	0.382699
H86	H	0.344817	1.230034	0.882699
H87	H	-0.128538	0.928364	-0.095596
H88	H	0.371462	1.428364	0.404404
H89	H	-0.149982	0.532939	0.361423
H90	H	0.350018	1.032939	0.861423
H91	H	-0.125713	0.560635	-0.027323
H92	H	0.374287	1.060635	0.472677
H93	H	-0.008717	1.379687	0.855530
H94	H	0.491283	1.879687	1.355530
H95	H	-0.269788	1.081611	0.410288
H96	H	0.230212	1.581611	0.910288
H97	H	-0.233425	1.123135	0.827930
H98	H	0.266575	1.623135	1.327930
H99	H	-0.283781	1.065639	0.634751
H100	H	0.216219	1.565639	1.134751
H101	H	-0.045077	1.338164	0.437922
H102	H	0.454923	1.838164	0.937922
H103	H	0.005277	1.395663	0.631099
H104	H	0.505277	1.895663	1.131099
