data_functionalizedCrystal
_audit_creation_method	'MofGen! by Chris Wilmer'
_symmetry_space_group_name_H-M	'P1'
_symmetry_Int_Tables_number	1
_symmetry_cell_setting	triclinic
loop_
_symmetry_equiv_pos_as_xyz
  x,y,z
_cell_length_a	10.540514
_cell_length_b	10.654541
_cell_length_c	9.730217
_cell_angle_alpha	90.003041
_cell_angle_beta	89.998068
_cell_angle_gamma	95.500456
loop_
_atom_site_label
_atom_site_type_symbol
_atom_site_fract_x
_atom_site_fract_y
_atom_site_fract_z
O1	O	1.685835	-0.176839	-0.114307
O2	O	1.316412	-0.193548	-0.114306
O3	O	1.509619	-0.002456	-0.114298
O4	O	1.492628	-0.367931	-0.114314
O5	O	1.509613	-0.002455	0.114282
O6	O	1.316406	-0.193547	0.114275
O7	O	1.685829	-0.176837	0.114273
Zn8	Zn	1.501117	-0.185192	0.150566
Zn9	Zn	1.501125	-0.185194	-0.150598
O10	O	1.492622	-0.367929	0.114266
C11	C	1.269106	-0.192301	-0.000015
C12	C	1.128158	-0.188572	-0.000015
C13	C	1.057402	-0.325239	-0.000024
C14	C	0.910790	-0.321406	-0.000549
C15	C	0.935851	-0.114247	-0.130296
C16	C	1.082388	-0.119049	-0.130398
C17	C	1.082785	-0.117025	0.129549
C18	C	0.935807	-0.115706	0.131254
C19	C	1.508369	0.044343	-0.000008
C20	C	1.504639	0.183787	-0.000011
C21	C	1.733135	-0.178085	-0.000020
C22	C	1.874084	-0.181814	-0.000029
C23	C	1.493872	-0.414729	-0.000027
C24	C	1.497603	-0.554173	-0.000033
N25	N	1.501121	-0.185189	0.356103
C26	C	1.735670	0.211698	0.000006
C27	C	1.849428	0.291162	0.000017
C28	C	1.845915	0.422181	0.000013
C29	C	1.728631	0.473737	-0.000007
C30	C	1.614874	0.394272	-0.000018
C31	C	1.618399	0.263252	-0.000009
C32	C	1.383845	0.366363	-0.000044
C33	C	1.387355	0.235343	-0.000030
C34	C	1.266562	0.417919	-0.000064
C35	C	1.152801	0.338454	-0.000065
C36	C	1.156319	0.207427	-0.000059
C37	C	1.273597	0.155879	-0.000041
N38	N	1.501131	-0.185187	-0.356135
C39	C	1.672276	-0.016027	0.356100
C40	C	1.757862	0.068550	0.428039
C41	C	1.757875	0.068551	0.571918
C42	C	1.672290	-0.016032	0.643863
C43	C	1.586704	-0.100610	0.571924
C44	C	1.586703	-0.100604	0.428041
C45	C	1.415545	-0.269764	0.571927
C46	C	1.415536	-0.269773	0.428047
C47	C	1.329960	-0.354347	0.643871
C48	C	1.244377	-0.438933	0.571932
C49	C	1.244369	-0.438931	0.428044
C50	C	1.329949	-0.354350	0.356108
H51	H	0.913574	-0.011721	-0.134767
Br52	Br	1.672286	-0.016012	0.839130
H53	H	1.110597	-0.168399	-0.228151
H54	H	1.944918	0.249170	0.000045
H55	H	1.725781	0.580421	-0.000027
Br56	Br	1.278381	-0.021932	-0.000019
Br57	Br	0.864950	-0.191554	-0.292506
Br58	Br	0.993648	0.408429	-0.000114
H59	H	1.114260	-0.162517	0.228318
H60	H	1.063683	0.142733	-0.000075
H61	H	1.738542	0.105016	0.000028
Br62	Br	1.261791	0.595731	-0.000171
H63	H	1.329955	-0.354346	0.238954
Br64	Br	1.162471	0.048270	-0.139650
Br65	Br	2.000300	0.530031	0.000010
Br66	Br	1.874001	0.183346	0.330400
Br67	Br	1.107746	-0.416300	-0.155500
H68	H	0.868104	-0.374549	0.092809
Br69	Br	1.672288	-0.016040	0.160833
Br70	Br	1.128198	-0.553711	0.330426
Br71	Br	0.867447	-0.198001	0.291889
H72	H	0.869041	-0.374324	-0.094484
Br73	Br	1.874018	0.183345	0.669554
H74	H	1.329968	-0.354338	0.761026
H75	H	1.174695	-0.507789	0.630519
H76	H	0.911659	-0.013957	0.139513
H77	H	1.085919	-0.380679	0.093377
Br78	Br	1.161633	0.050982	0.131674
