data_functionalizedCrystal
_audit_creation_method	'MofGen! by Chris Wilmer'
_symmetry_space_group_name_H-M	'P1'
_symmetry_Int_Tables_number	1
_symmetry_cell_setting	triclinic
loop_
_symmetry_equiv_pos_as_xyz
  x,y,z
_cell_length_a	14.519709
_cell_length_b	13.596369
_cell_length_c	10.654551
_cell_angle_alpha	89.998604
_cell_angle_beta	84.082787
_cell_angle_gamma	90.000316
loop_
_atom_site_label
_atom_site_type_symbol
_atom_site_fract_x
_atom_site_fract_y
_atom_site_fract_z
O1	O	1.224724	0.081659	0.164615
O2	O	1.724724	0.581659	0.664615
O3	O	0.956348	0.081689	0.184001
O4	O	1.456348	0.581689	0.684001
O5	O	1.096706	0.081671	-0.008491
O6	O	1.596706	0.581671	0.491509
O7	O	1.084366	0.081677	0.357106
O8	O	1.584366	0.581677	0.857106
O9	O	1.096689	-0.081912	-0.008480
O10	O	1.596689	0.418088	0.491520
O11	O	0.956330	-0.081894	0.184012
O12	O	1.456330	0.418106	0.684012
O13	O	1.224707	-0.081924	0.164625
O14	O	1.724707	0.418076	0.664625
Zn15	Zn	1.090516	-0.107881	0.174320
Zn16	Zn	1.590516	0.392119	0.674320
Zn17	Zn	1.090539	0.107646	0.174306
Zn18	Zn	1.590539	0.607646	0.674306
O19	O	1.084349	-0.081906	0.357117
O20	O	1.584349	0.418094	0.857117
C21	C	0.921975	-0.000099	0.183103
C22	C	1.421975	0.499901	0.683103
C23	C	0.819579	-0.000087	0.180396
C24	C	1.319579	0.499913	0.680396
N25	N	1.090507	-0.254973	0.174329
N26	N	1.590507	0.245027	0.674329
C27	C	1.095791	-0.000119	-0.055274
C28	C	1.595791	0.499881	0.444726
C29	C	1.093079	-0.000114	-0.194692
C30	C	1.593079	0.499886	0.305308
C31	C	0.444632	-0.000132	0.170428
C32	C	0.944632	0.499868	0.670428
C33	C	0.548954	-0.000119	0.173196
C34	C	1.048954	0.499881	0.673196
C35	C	0.632102	-0.000109	0.175412
C36	C	1.132102	0.499891	0.675412
C37	C	0.736431	-0.000098	0.178180
C38	C	1.236431	0.499902	0.678180
C39	C	1.259080	-0.000134	0.165523
C40	C	1.759080	0.499866	0.665523
C41	C	1.361475	-0.000139	0.168231
C42	C	1.861475	0.499861	0.668231
C43	C	1.090512	-0.343971	0.174332
C44	C	1.590512	0.156029	0.674332
C45	C	1.090521	-0.455622	0.174323
C46	C	1.590521	0.044378	0.674323
C47	C	1.090533	-0.544613	0.174309
C48	C	1.590533	-0.044613	0.674309
C49	C	1.090543	-0.656271	0.174302
C50	C	1.590543	-0.156271	0.674302
N51	N	1.090555	0.254738	0.174287
N52	N	1.590555	0.754738	0.674287
C53	C	1.091816	0.089057	-0.260189
C54	C	1.591816	0.589057	0.239811
C55	C	1.089261	0.089058	-0.391185
C56	C	1.589261	0.589058	0.108815
C57	C	1.089236	-0.089289	-0.391175
C58	C	1.589236	0.410711	0.108825
C59	C	1.091784	-0.089290	-0.260180
C60	C	1.591784	0.410710	0.239820
C61	C	1.031855	0.196195	-0.560712
C62	C	1.531855	0.696195	-0.060712
C63	C	1.030608	0.285370	-0.626217
C64	C	1.530608	0.785370	-0.126217
C65	C	1.085391	0.364093	-0.593208
C66	C	1.585391	0.864093	-0.093208
C67	C	1.141444	0.353645	-0.494701
C68	C	1.641444	0.853645	0.005299
C69	C	1.142699	0.264468	-0.429204
C70	C	1.642699	0.764468	0.070796
C71	C	1.087895	0.185749	-0.462207
C72	C	1.587895	0.685749	0.037793
C73	C	1.149198	-0.196421	-0.090652
C74	C	1.649198	0.303579	0.409348
C75	C	1.150460	-0.285598	-0.025155
C76	C	1.650460	0.214402	0.474845
C77	C	1.095683	-0.364330	-0.058162
C78	C	1.595683	0.135670	0.441838
C79	C	1.039643	-0.353891	-0.156675
C80	C	1.539643	0.146109	0.343325
C81	C	1.038381	-0.264714	-0.222173
C82	C	1.538381	0.235286	0.277827
C83	C	1.093157	-0.185982	-0.189157
C84	C	1.593157	0.314018	0.310843
C85	C	1.085264	-0.000114	0.403901
C86	C	1.585264	0.499886	0.903901
C87	C	1.087975	-0.000112	0.543318
C88	C	1.587975	0.499888	1.043318
H89	H	1.092868	0.161669	-0.206871
H90	H	1.592868	0.661669	0.293129
H91	H	1.186060	0.417749	-0.467844
H92	H	1.686060	0.917749	0.032156
H93	H	1.188338	0.255961	-0.349003
H94	H	1.688338	0.755961	0.150997
H95	H	1.084374	0.436701	-0.646551
H96	H	1.584374	0.936701	-0.146551
H97	H	0.984963	0.293871	-0.706420
H98	H	1.484963	0.793871	-0.206420
H99	H	1.196097	-0.294094	0.055057
H100	H	1.696097	0.205906	0.555057
H101	H	0.992746	-0.256218	-0.302386
H102	H	1.492746	0.243782	0.197614
H103	H	0.987233	0.132103	-0.587586
H104	H	1.487233	0.632103	-0.087586
H105	H	1.193797	-0.132310	-0.063757
H106	H	1.693797	0.367690	0.436243
H107	H	1.088183	-0.161893	-0.444512
H108	H	1.588183	0.338107	0.055488
H109	H	0.995019	-0.417991	-0.183527
H110	H	1.495019	0.082009	0.316473
H111	H	1.096723	-0.436945	-0.004830
H112	H	1.596723	0.063055	0.495170
