data_functionalizedCrystal
_audit_creation_method	'MofGen! by Chris Wilmer'
_symmetry_space_group_name_H-M	'P1'
_symmetry_Int_Tables_number	1
_symmetry_cell_setting	triclinic
loop_
_symmetry_equiv_pos_as_xyz
  x,y,z
_cell_length_a	15.944499
_cell_length_b	15.944493
_cell_length_c	9.130313
_cell_angle_alpha	90.004626
_cell_angle_beta	89.997175
_cell_angle_gamma	83.476327
loop_
_atom_site_label
_atom_site_type_symbol
_atom_site_fract_x
_atom_site_fract_y
_atom_site_fract_z
O1	O	1.114524	0.108124	-0.121868
O2	O	0.869966	0.121526	-0.121849
O3	O	0.998948	-0.007454	-0.121871
O4	O	0.985541	0.237105	-0.121846
O5	O	0.998947	-0.007451	0.121728
O6	O	0.869964	0.121530	0.121750
O7	O	1.114522	0.108128	0.121731
Cu8	Cu	0.992243	0.114829	0.143983
Cu9	Cu	0.992245	0.114825	-0.144101
O10	O	0.985539	0.237108	0.121753
C11	C	0.838670	0.120979	-0.000048
C12	C	0.745422	0.119334	-0.000041
C13	C	0.453871	0.194269	-0.000055
C14	C	0.514909	0.155314	-0.120169
C15	C	0.409787	0.113358	-0.000076
C16	C	0.514893	0.155296	0.120000
C17	C	0.574695	0.116299	-0.000057
C18	C	0.469597	0.074381	-0.120289
C19	C	0.469575	0.074374	0.119989
C20	C	0.530595	0.035361	-0.000154
C21	C	0.314787	0.111666	-0.000088
C22	C	0.669694	0.117984	-0.000055
C23	C	0.998400	-0.038747	-0.000078
C24	C	0.996757	-0.131995	-0.000096
C25	C	1.072679	-0.367769	-0.000074
C26	C	1.031738	-0.418331	-0.120177
C27	C	0.993713	-0.302716	-0.000078
C28	C	1.031718	-0.418304	0.119992
C29	C	0.990778	-0.467625	-0.000054
C30	C	0.952793	-0.352050	-0.120280
C31	C	0.952784	-0.352019	0.119997
C32	C	0.911785	-0.402548	-0.000135
C33	C	0.995405	-0.207716	-0.000093
C34	C	0.989079	-0.562622	-0.000050
C35	C	1.145818	0.108675	-0.000074
C36	C	1.239066	0.110320	-0.000089
C37	C	0.986088	0.268401	-0.000043
C38	C	0.987731	0.361650	-0.000034
N39	N	0.992248	0.114832	0.346606
N40	N	0.992247	0.114816	-0.346724
C41	C	1.049376	0.057738	0.423248
C42	C	1.049374	0.057728	0.576585
C43	C	0.935113	0.171912	0.576624
C44	C	0.935111	0.171917	0.423289
C45	C	1.115346	-0.008182	0.423227
C46	C	1.115344	-0.008193	0.576563
H47	H	0.449626	0.040190	-0.221950
C48	C	1.202358	0.010545	0.632788
N49	N	1.267887	0.024683	0.675136
C50	C	0.872265	0.234702	0.660990
N51	N	0.824926	0.281997	0.724534
H52	H	0.563787	-0.031847	-0.000225
H53	H	1.140699	-0.352153	-0.000200
C54	C	0.408817	0.284979	-0.000207
N55	N	0.374881	0.353300	-0.000330
H56	H	1.065087	-0.447285	-0.221722
C57	C	1.197498	0.018724	0.358967
N58	N	1.259375	0.038990	0.310566
C59	C	0.542001	0.201547	0.257184
N60	N	0.562414	0.236388	0.360506
C61	C	0.907777	-0.313113	-0.257612
N62	N	0.873875	-0.283785	-0.361052
H63	H	0.843713	-0.418002	-0.000196
C64	C	0.907766	-0.312889	0.257188
N65	N	0.873862	-0.283418	0.360533
H66	H	0.449464	0.040182	0.221531
C67	C	1.076788	-0.457386	0.257166
N68	N	1.110740	-0.486819	0.360482
H69	H	0.888586	0.218400	0.360889
H70	H	1.095475	-0.069029	0.624106
C71	C	1.096737	-0.095236	0.366985
N72	N	1.082719	-0.160803	0.324625
H73	H	0.535000	0.189538	-0.221703
