data_functionalizedCrystal
_audit_creation_method	'MofGen! by Chris Wilmer'
_symmetry_space_group_name_H-M	'P1'
_symmetry_Int_Tables_number	1
_symmetry_cell_setting	triclinic
loop_
_symmetry_equiv_pos_as_xyz
  x,y,z
_cell_length_a	17.038272
_cell_length_b	8.559649
_cell_length_c	7.681481
_cell_angle_alpha	85.069100
_cell_angle_beta	96.145203
_cell_angle_gamma	80.445110
loop_
_atom_site_label
_atom_site_type_symbol
_atom_site_fract_x
_atom_site_fract_y
_atom_site_fract_z
O1	O	1.008525	0.358157	-0.146201
O2	O	0.781219	0.352697	-0.146253
O3	O	0.914898	0.125546	-0.146221
O4	O	0.874846	0.585307	-0.146234
O5	O	0.931355	0.097520	0.146641
O6	O	0.797676	0.324671	0.146609
O7	O	1.024983	0.330131	0.146661
Zn8	Zn	0.913942	0.322951	0.193133
Zn9	Zn	0.892259	0.359876	-0.192725
O10	O	0.891303	0.557281	0.146628
C11	C	0.926162	0.052416	0.000208
C12	C	0.935196	-0.123735	0.000200
C13	C	0.760617	0.333714	0.000171
C14	C	0.674711	0.318886	0.000151
C15	C	0.616439	0.455039	0.000149
C16	C	0.535725	0.441093	0.000173
C17	C	0.513285	0.290994	0.000188
C18	C	0.571564	0.154831	0.000196
C19	C	0.652277	0.168777	0.000184
C20	C	0.270481	0.241725	0.000236
C21	C	0.189761	0.227790	0.000243
C22	C	0.153928	0.514053	0.000224
C23	C	0.234644	0.527987	0.000202
C24	C	0.292916	0.391823	0.000219
C25	C	0.430782	0.276737	0.000208
C26	C	0.375418	0.406081	0.000212
C27	C	1.045584	0.349114	0.000232
C28	C	1.131489	0.363943	0.000241
C29	C	0.880039	0.630411	0.000196
C30	C	0.871004	0.806564	0.000192
N31	N	0.928747	0.297750	0.456471
N32	N	0.877461	0.385066	-0.456063
H33	H	0.809136	-0.118349	0.000184
H34	H	0.981107	0.208633	0.531689
H35	H	0.553288	0.032615	0.000233
H36	H	0.997070	-0.198833	0.000228
H37	H	0.171495	0.105556	0.000253
H38	H	0.825110	0.474189	0.468727
C39	C	0.471630	0.590870	0.000202
N40	N	0.423354	0.703688	0.000237
H41	H	0.634703	0.577265	0.000136
H42	H	0.252906	0.650214	0.000169
C43	C	0.334570	0.091940	0.000244
N44	N	0.382846	-0.020886	0.000246
H45	H	0.106475	0.624909	0.000214
H46	H	0.699722	0.057907	0.000185
H47	H	0.412505	0.154521	0.000269
H48	H	0.393693	0.528289	0.000209
