data_functionalizedCrystal
_audit_creation_method	'MofGen! by Chris Wilmer'
_symmetry_space_group_name_H-M	'P1'
_symmetry_Int_Tables_number	1
_symmetry_cell_setting	triclinic
loop_
_symmetry_equiv_pos_as_xyz
  x,y,z
_cell_length_a	10.654550
_cell_length_b	23.532407
_cell_length_c	9.130313
_cell_angle_alpha	89.990840
_cell_angle_beta	89.999724
_cell_angle_gamma	83.666804
loop_
_atom_site_label
_atom_site_type_symbol
_atom_site_fract_x
_atom_site_fract_y
_atom_site_fract_z
O1	O	1.665305	0.079985	-0.121707
O2	O	1.299585	0.087605	-0.121735
O3	O	1.493474	0.000935	-0.121693
O4	O	1.471417	0.166655	-0.121749
O5	O	1.493460	0.000933	0.121905
O6	O	1.299572	0.087603	0.121863
O7	O	1.665292	0.079982	0.121892
Cu8	Cu	1.482431	0.083792	0.144120
Cu9	Cu	1.482447	0.083795	-0.143964
O10	O	1.471404	0.166652	0.121850
C11	C	1.252799	0.087044	0.000061
C12	C	1.113408	0.085370	0.000051
C13	C	1.032306	0.136400	0.000038
C14	C	0.901335	0.134824	0.000064
C15	C	0.932582	0.031183	0.000110
C16	C	1.063550	0.032760	0.000094
C17	C	1.492905	-0.020286	0.000110
C18	C	1.491217	-0.083514	0.000121
C19	C	1.595364	-0.481938	0.000049
C20	C	1.593795	-0.541349	0.000037
O21	O	1.690341	-0.577464	-0.000009
N22	N	1.478529	-0.564726	0.000030
C23	C	1.364824	-0.528689	0.000018
O24	O	1.266636	-0.554029	0.000009
C25	C	1.366394	-0.469280	0.000019
C26	C	1.481668	-0.445906	0.000041
C27	C	1.710629	-0.458564	0.000070
C28	C	1.712197	-0.399158	0.000084
C29	C	1.598500	-0.363126	0.000077
C30	C	1.483236	-0.386500	0.000055
C31	C	1.252690	-0.433244	-0.000003
C32	C	1.254270	-0.373831	-0.000004
C33	C	1.369544	-0.350458	0.000019
C34	C	1.371107	-0.291061	0.000062
N35	N	1.486374	-0.267684	0.000070
C36	C	1.600070	-0.303716	0.000077
C37	C	1.361535	-0.653453	0.000014
C38	C	1.359964	-0.712861	0.000023
C39	C	1.588936	-0.725517	0.000040
C40	C	1.590506	-0.666108	0.000041
C41	C	1.476802	-0.630076	0.000022
C42	C	1.603355	-0.178958	0.000108
C43	C	1.604913	-0.119546	0.000128
C44	C	1.375942	-0.106896	0.000104
C45	C	1.374383	-0.166303	0.000091
C46	C	1.488100	-0.202333	0.000088
O47	O	1.274613	-0.254911	0.000103
O48	O	1.698241	-0.278369	0.000067
C49	C	1.712079	0.080543	0.000093
C50	C	1.851469	0.082217	0.000093
C51	C	1.471972	0.187873	0.000044
C52	C	1.473661	0.251101	0.000023
N53	N	1.482429	0.083790	0.346743
N54	N	1.482458	0.083793	-0.346586
C55	C	1.568311	0.045429	0.423413
C56	C	1.568323	0.045429	0.576750
C57	C	1.396567	0.122156	0.576733
C58	C	1.396550	0.122153	0.423399
H59	H	1.698787	-0.100519	0.000150
H60	H	1.695954	-0.208288	0.000100
C61	C	1.152769	-0.023375	0.000102
H62	H	1.104320	-0.054934	0.000108
H63	H	1.204517	-0.024914	0.085044
H64	H	1.204499	-0.024912	-0.084864
C65	C	1.087153	0.194267	0.000003
H66	H	1.176769	0.187900	-0.000019
H67	H	1.059278	0.215301	0.084944
H68	H	1.059261	0.215299	-0.084963
C69	C	1.302119	0.164357	0.661058
H70	H	1.314437	0.158870	0.763360
H71	H	1.218389	0.157820	0.635951
H72	H	1.315285	0.202423	0.635900
H73	H	1.638238	0.014190	0.361004
H74	H	1.803219	-0.487896	0.000070
C75	C	1.662798	0.003234	0.661082
H76	H	1.713944	-0.019610	0.593463
H77	H	1.617940	-0.020664	0.720918
H78	H	1.714818	0.023946	0.720876
H79	H	1.681514	-0.754865	0.000040
H80	H	1.266096	-0.731886	0.000030
H81	H	1.806065	-0.380133	0.000096
H82	H	1.326609	0.153392	0.360969
H83	H	1.268937	-0.624119	0.000011
C84	C	0.812128	0.190957	0.000040
H85	H	0.860584	0.222513	0.000001
H86	H	0.760393	0.192500	0.084993
H87	H	0.760382	0.192493	-0.084914
H88	H	0.891971	-0.011650	0.000154
H89	H	1.158822	-0.452264	-0.000031
C90	C	1.129191	-0.334200	-0.000019
H91	H	1.060322	-0.356633	-0.000023
H92	H	1.125047	-0.310753	-0.084962
H93	H	1.125034	-0.310770	0.084945
H94	H	1.280517	-0.185334	0.000113
C95	C	1.717305	-0.640402	0.000052
H96	H	1.784788	-0.670375	0.000049
H97	H	1.722680	-0.617493	0.084997
H98	H	1.722686	-0.617487	-0.084910
H99	H	1.283373	-0.077548	0.000103
