data_functionalizedCrystal
_audit_creation_method	'MofGen! by Chris Wilmer'
_symmetry_space_group_name_H-M	'P1'
_symmetry_Int_Tables_number	1
_symmetry_cell_setting	triclinic
loop_
_symmetry_equiv_pos_as_xyz
  x,y,z
_cell_length_a	19.077105
_cell_length_b	19.077432
_cell_length_c	19.076919
_cell_angle_alpha	89.934943
_cell_angle_beta	89.923776
_cell_angle_gamma	85.334714
loop_
_atom_site_label
_atom_site_type_symbol
_atom_site_fract_x
_atom_site_fract_y
_atom_site_fract_z
Zn1	Zn	1.072466	-0.340536	0.427310
Zn2	Zn	1.081824	-0.453714	0.305447
Zn3	Zn	0.959291	-0.331106	0.305466
Zn4	Zn	0.959628	-0.453289	0.418216
O5	O	1.018302	-0.394661	0.364110
O6	O	1.172211	-0.359673	0.414942
O7	O	1.069345	-0.433681	0.207263
O8	O	0.970246	-0.233858	0.325443
O9	O	1.179087	-0.442824	0.325410
O10	O	1.053396	-0.240785	0.414961
O11	O	0.979321	-0.343602	0.207278
O12	O	0.860832	-0.343190	0.316625
O13	O	0.970821	-0.442101	0.517608
O14	O	0.861080	-0.432958	0.399461
O15	O	1.053723	-0.359261	0.524290
O16	O	1.069672	-0.552157	0.316592
O17	O	0.979895	-0.551845	0.399443
C18	C	0.835415	-0.387005	0.357059
C19	C	0.757175	-0.383747	0.354059
C20	C	0.720571	-0.429019	0.395704
C21	C	0.647055	-0.425949	0.392889
C22	C	0.610146	-0.377610	0.348423
C23	C	0.646755	-0.332333	0.306776
C24	C	0.720269	-0.335401	0.309596
C25	C	0.390267	-0.363414	0.335377
C26	C	0.316748	-0.360352	0.332559
C27	C	0.317053	-0.453967	0.418673
C28	C	0.390569	-0.457033	0.421486
C29	C	0.427171	-0.411754	0.379841
N30	N	0.535002	-0.374472	0.345543
N31	N	0.502314	-0.414889	0.382726
C32	C	1.025854	-0.577542	0.357044
C33	C	1.029149	-0.655783	0.354047
C34	C	0.983925	-0.692401	0.395737
C35	C	0.987023	-0.765917	0.392919
C36	C	1.035349	-0.802813	0.348414
C37	C	1.080575	-0.766190	0.306719
C38	C	1.077473	-0.692675	0.309534
C39	C	1.049640	-1.022693	0.335369
C40	C	1.052741	-1.096213	0.332559
C41	C	0.959187	-1.095935	0.418758
C42	C	0.956092	-1.022419	0.421572
C43	C	1.001315	-0.985802	0.379875
N44	N	1.038519	-0.877958	0.345533
N45	N	0.998142	-0.910658	0.382752
C46	C	1.201904	-0.402348	0.371188
C47	C	1.280144	-0.405624	0.374205
C48	C	1.011266	-0.401686	0.547120
C49	C	1.008267	-0.404679	0.625107
C50	C	1.010740	-0.211068	0.371219
C51	C	1.007517	-0.132831	0.374248
C52	C	1.025350	-0.387615	0.181815
C53	C	1.028477	-0.384429	0.103841
C54	C	1.050019	-0.362957	0.665226
C55	C	1.047193	-0.365767	0.738504
C56	C	1.002618	-0.410302	0.771661
C57	C	0.960862	-0.452026	0.731537
C58	C	0.963685	-0.449212	0.658261
C59	C	0.989544	-0.423339	0.990441
C60	C	0.986725	-0.426151	1.063722
C61	C	1.073055	-0.339891	1.070683
C62	C	1.075877	-0.337084	0.997405
C63	C	1.034119	-0.378805	0.957288
N64	N	0.999730	-0.413177	0.846563
N65	N	1.037004	-0.375926	0.882388
H66	H	0.286698	-0.320980	0.296355
H67	H	0.955551	-0.457322	0.957786
C68	C	1.098505	-0.314720	0.629190
C69	C	1.146898	-0.354846	0.587333
C70	C	1.191579	-0.310432	0.554136
H71	H	1.071497	-0.281815	0.600700
H72	H	1.123007	-0.290286	0.663558
H73	H	1.122399	-0.379269	0.552969
H74	H	1.173923	-0.387750	0.615807
H75	H	1.216081	-0.285997	0.588504
H76	H	1.164565	-0.277529	0.525649
H77	H	1.224423	-0.337652	0.525737
H78	H	0.916741	-0.992379	0.457812
H79	H	1.119920	-0.796236	0.270479
H80	H	1.086464	-0.992885	0.301419
H81	H	0.616698	-0.292972	0.270575
C82	C	1.105128	-1.136397	0.284242
C83	C	1.098152	-1.208614	0.290692
C84	C	1.146378	-1.245652	0.246177
H85	H	1.096158	-1.122195	0.237144
H86	H	1.151551	-1.126744	0.296779
H87	H	1.051740	-1.218263	0.278150
H88	H	1.107129	-1.222837	0.337780
H89	H	1.192801	-1.235999	0.258715
H90	H	1.137403	-1.231445	0.199082
H91	H	1.141656	-1.294656	0.250552
H92	H	1.114298	-0.662861	0.275585
H93	H	1.081193	-0.331794	0.771165
H94	H	1.112177	-0.300820	0.970414
C95	C	0.912585	-0.500472	0.767574
C96	C	0.952681	-0.548884	0.809418
C97	C	0.908234	-0.593531	0.842617
H98	H	0.879693	-0.473443	0.796072
H99	H	0.888135	-0.524959	0.733206
H100	H	0.977119	-0.524399	0.843782
H101	H	0.985571	-0.575929	0.780937
H102	H	0.883784	-0.618019	0.808248
H103	H	0.875344	-0.566497	0.871111
H104	H	0.935433	-0.626388	0.871006
H105	H	1.107052	-0.305923	1.103355
C106	C	0.760041	-0.286168	0.264498
C107	C	0.798846	-0.244389	0.307660
C108	C	0.835483	-0.199019	0.266142
H109	H	0.791056	-0.312986	0.233935
H110	H	0.727550	-0.256902	0.237627
H111	H	0.831333	-0.273652	0.334520
H112	H	0.767848	-0.217557	0.338222
H113	H	0.802993	-0.169752	0.239270
H114	H	0.866494	-0.225842	0.235581
H115	H	0.861811	-0.170662	0.295421
H116	H	0.950425	-0.462419	1.090717
C117	C	0.910121	-1.135816	0.463941
C118	C	0.923165	-1.208093	0.451939
C119	C	0.877968	-1.244852	0.493543
H120	H	0.918017	-1.126063	0.511974
H121	H	0.862711	-1.121483	0.452259
H122	H	0.970564	-1.222421	0.463626
H123	H	0.915264	-1.217868	0.403914
H124	H	0.830559	-1.230519	0.481860
H125	H	0.885868	-1.235093	0.541573
H126	H	0.886808	-1.293895	0.485401
H127	H	0.929679	-0.483179	0.625597
H128	H	0.944576	-0.662365	0.431981
H129	H	0.617256	-0.462814	0.426801
C130	C	0.760512	-0.481526	0.444054
C131	C	0.712715	-0.520502	0.479937
C132	C	0.749480	-0.568871	0.524493
H133	H	0.791486	-0.512385	0.417158
H134	H	0.786891	-0.457035	0.476844
H135	H	0.686347	-0.544992	0.447151
H136	H	0.681739	-0.489662	0.506846
H137	H	0.775859	-0.544379	0.557283
H138	H	0.780453	-0.599725	0.497592
H139	H	0.717055	-0.595317	0.548850
H140	H	0.950191	-0.795728	0.426861
H141	H	0.420615	-0.496397	0.457693
H142	H	0.287243	-0.490829	0.452579
C143	C	0.429876	-0.314220	0.290084
C144	C	0.381816	-0.271245	0.250528
C145	C	0.418281	-0.225922	0.208789
H146	H	0.456259	-0.285755	0.319185
H147	H	0.460824	-0.341096	0.259490
H148	H	0.350880	-0.244372	0.281118
H149	H	0.355432	-0.299691	0.221414
H150	H	0.449229	-0.252797	0.178195
H151	H	0.444663	-0.197461	0.237895
H152	H	0.385679	-0.196762	0.181941
