data_functionalizedCrystal
_audit_creation_method	'MofGen! by Chris Wilmer'
_symmetry_space_group_name_H-M	'P1'
_symmetry_Int_Tables_number	1
_symmetry_cell_setting	triclinic
loop_
_symmetry_equiv_pos_as_xyz
  x,y,z
_cell_length_a	17.038272
_cell_length_b	17.038272
_cell_length_c	14.421503
_cell_angle_alpha	90.004327
_cell_angle_beta	89.997443
_cell_angle_gamma	91.111556
loop_
_atom_site_label
_atom_site_type_symbol
_atom_site_fract_x
_atom_site_fract_y
_atom_site_fract_z
O1	O	1.048759	0.170526	-0.076996
O2	O	1.548759	0.670526	0.423004
O3	O	0.820947	0.167818	-0.077024
O4	O	1.320947	0.667818	0.422976
O5	O	0.933499	0.055267	-0.077003
O6	O	1.433499	0.555267	0.422997
O7	O	0.936207	0.283078	-0.077017
O8	O	1.436207	0.783078	0.422983
O9	O	0.933480	0.055283	0.077221
O10	O	1.433480	0.555283	0.577221
O11	O	0.820928	0.167835	0.077200
O12	O	1.320928	0.667835	0.577200
O13	O	1.048740	0.170543	0.077227
O14	O	1.548740	0.670543	0.577227
Cu15	Cu	0.934832	0.169190	0.091295
Cu16	Cu	1.434832	0.669190	0.591295
Cu17	Cu	0.934855	0.169171	-0.091092
Cu18	Cu	1.434855	0.669171	0.408908
O19	O	0.936188	0.283095	0.077206
O20	O	1.436188	0.783095	0.577206
C21	C	0.791645	0.165364	0.000085
C22	C	1.291645	0.665364	0.500085
C23	C	0.704361	0.158016	0.000074
C24	C	1.204361	0.658016	0.500074
C25	C	0.658752	0.225479	0.000071
C26	C	1.158752	0.725479	0.500071
C27	C	0.576740	0.218570	0.000084
C28	C	1.076740	0.718570	0.500084
C29	C	0.540339	0.144197	0.000094
C30	C	1.040339	0.644197	0.500094
C31	C	0.585954	0.076728	0.000100
C32	C	1.085954	0.576728	0.500100
C33	C	0.667965	0.083638	0.000094
C34	C	1.167965	0.583638	0.500094
C35	C	0.292951	0.119787	0.000120
C36	C	0.792951	0.619787	0.500120
C37	C	0.210935	0.112882	0.000124
C38	C	0.710935	0.612882	0.500124
C39	C	0.201726	0.254725	0.000110
C40	C	0.701726	0.754725	0.500110
C41	C	0.283739	0.261628	0.000097
C42	C	0.783739	0.761628	0.500097
C43	C	0.329347	0.194159	0.000109
C44	C	0.829347	0.694159	0.500109
C45	C	0.456510	0.137133	0.000105
C46	C	0.956510	0.637133	0.500105
C47	C	0.413174	0.201224	0.000105
C48	C	0.913174	0.701224	0.500105
C49	C	0.931027	0.025982	0.000108
C50	C	1.431027	0.525982	0.500108
C51	C	0.923679	-0.061301	0.000107
C52	C	1.423679	0.438699	0.500107
C53	C	0.991142	-0.106911	0.000116
C54	C	1.491142	0.393089	0.500116
C55	C	0.984233	-0.188923	0.000107
C56	C	1.484233	0.311077	0.500107
C57	C	0.909860	-0.225324	0.000095
C58	C	1.409860	0.274676	0.500095
C59	C	0.842391	-0.179708	0.000083
C60	C	1.342391	0.320292	0.500083
C61	C	0.849301	-0.097698	0.000086
C62	C	1.349301	0.402302	0.500086
C63	C	0.885449	-0.472712	0.000079
C64	C	1.385449	0.027288	0.500079
C65	C	0.878545	-0.554728	0.000079
C66	C	1.378545	-0.054728	0.500079
C67	C	1.020387	-0.563937	0.000101
C68	C	1.520387	-0.063937	0.500101
C69	C	1.027291	-0.481924	0.000109
C70	C	1.527291	0.018076	0.500109
C71	C	0.959822	-0.436316	0.000093
C72	C	1.459822	0.063684	0.500093
C73	C	0.902796	-0.309153	0.000088
C74	C	1.402796	0.190847	0.500088
C75	C	0.966886	-0.352488	0.000093
C76	C	1.466886	0.147512	0.500093
C77	C	1.078042	0.172997	0.000117
C78	C	1.578042	0.672997	0.500117
C79	C	1.165326	0.180346	0.000121
C80	C	1.665326	0.680346	0.500121
C81	C	0.938660	0.312379	0.000093
C82	C	1.438660	0.812379	0.500093
C83	C	0.946008	0.399663	0.000088
C84	C	1.446008	0.899663	0.500088
N85	N	0.934822	0.169204	0.219576
N86	N	1.434822	0.669204	0.719576
N87	N	0.934870	0.169151	-0.219373
N88	N	1.434870	0.669151	0.280627
C89	C	0.882767	0.221222	0.469220
C90	C	1.382767	0.721222	0.969220
C91	C	0.954743	0.241185	0.531031
C92	C	1.454743	0.741185	1.031031
C93	C	0.934840	0.169187	0.408738
C94	C	1.434840	0.669187	0.908738
C95	C	0.862884	0.149244	0.531022
C96	C	1.362884	0.649244	1.031022
C97	C	0.934851	0.169171	0.591459
C98	C	1.434851	0.669171	1.091459
C99	C	1.006854	0.189187	0.469187
C100	C	1.506854	0.689187	0.969187
C101	C	0.914947	0.097212	0.469173
C102	C	1.414947	0.597212	0.969173
C103	C	0.986972	0.117148	0.530955
C104	C	1.486972	0.617148	1.030955
C105	C	0.934833	0.169198	0.303477
C106	C	1.434833	0.669198	0.803477
C107	C	0.934867	0.169160	0.696718
C108	C	1.434867	0.669160	1.196718
H109	H	0.539608	0.273507	0.000080
H110	H	1.039608	0.773507	0.500080
H111	H	0.313370	0.322190	0.000078
H112	H	0.813370	0.822190	0.500078
C113	C	0.759386	0.051634	0.535121
C114	C	1.259386	0.551634	1.035121
C115	C	0.780732	0.126471	0.567689
C116	C	1.280732	0.626471	1.067689
H117	H	0.708670	0.037579	0.557761
H118	H	1.208670	0.537579	1.057761
H119	H	0.758678	0.051952	0.469266
H120	H	1.258678	0.551952	0.969266
H121	H	0.796327	0.014616	0.556263
H122	H	1.296327	0.514616	1.056263
H123	H	0.743794	0.163491	0.546541
H124	H	1.243794	0.663491	1.046541
H125	H	0.781434	0.126158	0.633558
H126	H	1.281434	0.626158	1.133558
C127	C	0.745625	0.315531	-0.079233
C128	C	1.245625	0.815531	0.420767
C129	C	0.698758	0.307235	0.000055
C130	C	1.198758	0.807235	0.500055
H131	H	0.770316	0.366008	-0.079243
H132	H	1.270316	0.866008	0.420757
H133	H	0.784525	0.276349	-0.079226
H134	H	1.284525	0.776349	0.420774
H135	H	0.713813	0.309877	-0.133003
H136	H	1.213813	0.809877	0.366997
H137	H	0.730571	0.312884	0.053825
H138	H	1.230571	0.812884	0.553825
H139	H	0.659852	0.346429	0.000056
H140	H	1.159852	0.846429	0.500056
C141	C	0.071921	0.307117	0.000122
C142	C	0.571921	0.807117	0.500122
C143	C	0.151592	0.328883	0.000110
C144	C	0.651592	0.828883	0.500110
H145	H	0.040973	0.352903	0.000130
H146	H	0.540973	0.852903	0.500130
H147	H	0.060375	0.276847	-0.053655
H148	H	0.560375	0.776847	0.446345
H149	H	0.060383	0.276850	0.053908
H150	H	0.560383	0.776850	0.553908
H151	H	0.163131	0.359146	-0.053681
H152	H	0.663131	0.859146	0.446319
H153	H	0.163143	0.359165	0.053891
H154	H	0.663143	0.859165	0.553891
H155	H	1.027441	-0.322847	0.000082
H156	H	1.527441	0.177153	0.500082
H157	H	1.031065	0.073137	0.557891
H158	H	1.531065	0.573137	1.057891
H159	H	0.817978	-0.584363	0.000084
H160	H	1.317978	-0.084363	0.500084
C161	C	0.893136	0.015816	0.335368
C162	C	1.393136	0.515816	0.835368
C163	C	0.892193	0.015077	0.432452
C164	C	1.392193	0.515077	0.932452
H165	H	0.879087	-0.034892	0.312699
H166	H	1.379087	0.465108	0.812699
H167	H	0.856665	0.052918	0.313321
H168	H	1.356665	0.552918	0.813321
H169	H	0.944304	0.029912	0.314246
H170	H	1.444304	0.529912	0.814246
H171	H	0.841023	0.000986	0.453575
H172	H	1.341023	0.500986	0.953575
H173	H	0.928666	-0.022037	0.454509
H174	H	1.428666	0.477963	0.954509
C175	C	0.765543	0.009116	-0.079186
C176	C	1.265543	0.509116	0.420814
C177	C	0.718105	0.009482	0.000095
C178	C	1.218105	0.509482	0.500095
H179	H	0.796500	-0.036664	-0.079177
H180	H	1.296500	0.463336	0.420823
H181	H	0.733358	0.009356	-0.132955
H182	H	1.233358	0.509356	0.367045
H183	H	0.798952	0.054404	-0.079182
H184	H	1.298952	0.554404	0.420818
H185	H	0.684691	-0.035803	0.000087
H186	H	1.184691	0.464197	0.500087
H187	H	0.750293	0.009235	0.053878
H188	H	1.250293	0.509235	0.553878
H189	H	0.426863	0.076578	0.000139
H190	H	0.926863	0.576578	0.500139
C191	C	0.395836	0.340738	0.000090
C192	C	0.895836	0.840738	0.500090
C193	C	0.453183	0.282974	0.000094
C194	C	0.953183	0.782974	0.500094
H195	H	0.420543	0.391206	0.000086
H196	H	0.920543	0.891206	0.500086
H197	H	0.364042	0.335087	-0.053686
H198	H	0.864042	0.835087	0.446314
H199	H	0.364039	0.335100	0.053877
H200	H	0.864039	0.835100	0.553877
H201	H	0.484977	0.288608	-0.053697
H202	H	0.984977	0.788608	0.446303
H203	H	0.484990	0.288627	0.053875
H204	H	0.984990	0.788627	0.553875
H205	H	0.330076	0.064848	0.000130
H206	H	0.830076	0.564848	0.500130
C207	C	0.228270	-0.026637	0.000148
C208	C	0.728270	0.473363	0.500148
C209	C	0.170921	0.031125	0.000137
C210	C	0.670921	0.531125	0.500137
H211	H	0.203565	-0.077106	0.000159
H212	H	0.703565	0.422894	0.500159
H213	H	0.260067	-0.021003	-0.053629
H214	H	0.760067	0.478997	0.446371
H215	H	0.260065	-0.020981	0.053933
H216	H	0.760065	0.479019	0.553933
H217	H	0.139130	0.025472	-0.053652
H218	H	0.639130	0.525472	0.446348
H219	H	0.139111	0.025488	0.053920
H220	H	0.639111	0.525488	0.553920
C221	C	1.114172	-0.089514	-0.079155
C222	C	1.614172	0.410486	0.420845
C223	C	1.072895	-0.066900	0.000124
C224	C	1.572895	0.433100	0.500124
H225	H	1.164642	-0.064809	-0.079154
H226	H	1.664642	0.435191	0.420846
H227	H	1.119712	-0.144877	-0.079148
H228	H	1.619712	0.355123	0.420852
H229	H	1.086161	-0.074179	-0.132931
H230	H	1.586161	0.425821	0.367069
H231	H	1.100904	-0.082240	0.053901
H232	H	1.600904	0.417760	0.553901
H233	H	1.067359	-0.011525	0.000126
H234	H	1.567359	0.488475	0.500126
H235	H	1.087853	-0.452293	0.000119
H236	H	1.587853	0.047707	0.500119
H237	H	0.971579	0.302046	0.558201
H238	H	1.471579	0.802046	1.058201
H239	H	0.556310	0.016172	0.000122
H240	H	1.056310	0.516172	0.500122
C241	C	0.748240	0.260532	0.465175
C242	C	1.248240	0.760532	0.965175
C243	C	0.823389	0.280679	0.432617
C244	C	1.323389	0.780679	0.932617
H245	H	0.711588	0.297243	0.442579
H246	H	1.211588	0.797243	0.942579
H247	H	0.733984	0.209432	0.443989
H248	H	1.233984	0.709432	0.943989
H249	H	0.748181	0.261273	0.531039
H250	H	1.248181	0.761273	1.031039
H251	H	0.823449	0.279932	0.366752
H252	H	1.323449	0.779932	0.866752
H253	H	0.837649	0.331792	0.453797
H254	H	1.337649	0.831792	0.953797
C255	C	0.730542	-0.064603	-0.079209
C256	C	1.230542	0.435397	0.420791
C257	C	0.775142	-0.047562	0.000077
C258	C	1.275142	0.452438	0.500077
H259	H	0.684756	-0.033654	-0.079213
H260	H	1.184756	0.466346	0.420787
H261	H	0.760822	-0.053055	-0.132975
H262	H	1.260822	0.446945	0.367025
H263	H	0.715788	-0.118656	-0.079200
H264	H	1.215788	0.381344	0.420800
H265	H	0.789901	0.006491	0.000065
H266	H	1.289901	0.506491	0.500065
H267	H	0.744856	-0.059103	0.053857
H268	H	1.244856	0.440897	0.553857
H269	H	1.067729	0.206120	0.442140
H270	H	1.567729	0.706120	0.942140
H271	H	1.039170	-0.226054	0.000116
H272	H	1.539170	0.273946	0.500116
C273	C	1.161284	-0.564800	0.000120
C274	C	1.661284	-0.064800	0.500120
C275	C	1.094546	-0.614070	0.000110
C276	C	1.594546	-0.114070	0.500110
H277	H	1.207068	-0.595751	0.000128
H278	H	1.707068	-0.095751	0.500128
H279	H	1.161033	-0.532625	-0.053656
H280	H	1.661033	-0.032625	0.446344
H281	H	1.161017	-0.532618	0.053907
H282	H	1.661017	-0.032618	0.553907
H283	H	1.094811	-0.646248	-0.053681
H284	H	1.594811	-0.146248	0.446319
H285	H	1.094798	-0.646258	0.053891
H286	H	1.594798	-0.146258	0.553891
C287	C	0.719351	-0.197094	0.079337
C288	C	1.219351	0.302906	0.579337
C289	C	0.760636	-0.219714	0.000066
C290	C	1.260636	0.280286	0.500066
H291	H	0.668876	-0.221787	0.079323
H292	H	1.168876	0.278213	0.579323
H293	H	0.747347	-0.212430	0.133113
H294	H	1.247347	0.287570	0.633113
H295	H	0.713820	-0.141722	0.079326
H296	H	1.213820	0.358278	0.579326
H297	H	0.766172	-0.275086	0.000080
H298	H	1.266172	0.224914	0.500080
H299	H	0.732633	-0.204384	-0.053724
H300	H	1.232633	0.295616	0.446276
H301	H	0.842241	-0.338800	0.000080
H302	H	1.342241	0.161200	0.500080
C303	C	0.744553	-0.471859	0.000079
C304	C	1.244553	0.028141	0.500079
C305	C	0.811288	-0.422586	0.000078
C306	C	1.311288	0.077414	0.500078
H307	H	0.698767	-0.440909	0.000087
H308	H	1.198767	0.059091	0.500087
H309	H	0.744812	-0.504036	-0.053701
H310	H	1.244812	-0.004036	0.446299
H311	H	0.744814	-0.504039	0.053861
H312	H	1.244814	-0.004039	0.553861
H313	H	0.811030	-0.390410	-0.053708
H314	H	1.311030	0.109590	0.446292
H315	H	0.811028	-0.390395	0.053864
H316	H	1.311028	0.109605	0.553864
