data_functionalizedCrystal
_audit_creation_method	'MofGen! by Chris Wilmer'
_symmetry_space_group_name_H-M	'P1'
_symmetry_Int_Tables_number	1
_symmetry_cell_setting	triclinic
loop_
_symmetry_equiv_pos_as_xyz
  x,y,z
_cell_length_a	9.065218
_cell_length_b	10.723024
_cell_length_c	7.540329
_cell_angle_alpha	89.997572
_cell_angle_beta	89.996962
_cell_angle_gamma	84.741877
loop_
_atom_site_label
_atom_site_type_symbol
_atom_site_fract_x
_atom_site_fract_y
_atom_site_fract_z
O1	O	1.959359	0.182984	-0.147482
O2	O	1.529989	0.197993	-0.147484
O3	O	1.754578	0.008953	-0.147476
O4	O	1.734770	0.372025	-0.147490
O5	O	1.754565	0.008950	0.147489
O6	O	1.529976	0.197991	0.147481
O7	O	1.959346	0.182982	0.147483
Cu8	Cu	1.744660	0.190486	0.174415
Cu9	Cu	1.744676	0.190489	-0.174416
O10	O	1.734757	0.372022	0.147475
C11	C	1.475004	0.196550	-0.000002
C12	C	1.311186	0.192237	-0.000003
C13	C	1.753130	-0.037554	0.000004
C14	C	1.748817	-0.176126	-0.000002
C15	C	1.874486	-0.250598	-0.000004
C16	C	1.870031	-0.393819	-0.000011
C17	C	2.014331	0.184425	-0.000003
C18	C	2.178150	0.188738	-0.000014
C19	C	1.736205	0.418529	-0.000009
C20	C	1.740518	0.557101	-0.000014
N21	N	1.744659	0.190483	0.419763
N22	N	1.744688	0.190482	-0.419764
H23	H	1.977613	-0.457815	-0.000004
H24	H	1.632930	-0.378911	-0.000001
C25	C	1.600804	-0.232237	-0.000099
C26	C	1.485730	-0.135775	-0.000140
C27	C	1.349356	-0.187413	-0.000254
H28	H	1.593504	-0.282478	0.102729
H29	H	1.593647	-0.282444	-0.103006
H30	H	1.492884	-0.085589	0.102757
H31	H	1.492982	-0.085526	-0.102960
H32	H	1.342199	-0.237620	-0.103162
H33	H	1.342071	-0.237653	0.102575
H34	H	1.271262	-0.121972	-0.000298
C35	C	2.022203	-0.194007	0.000090
C36	C	1.997253	-0.063202	0.000138
C37	C	2.133299	-0.011033	0.000250
H38	H	2.076861	-0.220632	-0.102741
H39	H	2.076748	-0.220709	0.102994
H40	H	1.942732	-0.036511	-0.102755
H41	H	1.942618	-0.036542	0.102962
H42	H	2.187844	-0.037735	0.103153
H43	H	2.187947	-0.037667	-0.102584
H44	H	2.116389	0.077722	0.000299
