data_functionalizedCrystal
_audit_creation_method	'MofGen! by Chris Wilmer'
_symmetry_space_group_name_H-M	'P1'
_symmetry_Int_Tables_number	1
_symmetry_cell_setting	triclinic
loop_
_symmetry_equiv_pos_as_xyz
  x,y,z
_cell_length_a	14.971482
_cell_length_b	10.489741
_cell_length_c	8.965430
_cell_angle_alpha	89.998489
_cell_angle_beta	90.003515
_cell_angle_gamma	84.075891
loop_
_atom_site_label
_atom_site_type_symbol
_atom_site_fract_x
_atom_site_fract_y
_atom_site_fract_z
O1	O	1.187893	0.166186	0.124019
O2	O	0.927606	0.186096	0.124026
O3	O	1.063672	-0.009526	0.124014
O4	O	1.051826	0.361807	0.124032
O5	O	1.063660	-0.009510	-0.124065
O6	O	0.927593	0.186112	-0.124053
O7	O	1.187880	0.166202	-0.124060
Cu8	Cu	1.057736	0.176158	-0.146708
Cu9	Cu	1.057750	0.176139	0.146674
O10	O	1.051814	0.361823	-0.124047
C11	C	0.894270	0.185215	-0.000012
C12	C	0.794957	0.182549	-0.000010
C13	C	0.748299	0.181302	-0.135239
C14	C	0.654986	0.178777	-0.135241
C15	C	0.608332	0.177508	-0.000012
C16	C	0.654998	0.178751	0.135228
C17	C	0.748310	0.181267	0.135228
C18	C	0.460506	0.173510	0.135218
C19	C	0.367187	0.170996	0.135219
C20	C	0.367182	0.171020	-0.135251
C21	C	0.460494	0.173536	-0.135251
C22	C	0.507153	0.174781	-0.000010
C23	C	1.062771	-0.057039	-0.000025
C24	C	1.060094	-0.198637	-0.000022
C25	C	0.973519	-0.265774	-0.000009
C26	C	1.014411	-0.358362	-0.122326
C27	C	1.014443	-0.358353	0.122261
C28	C	1.101021	-0.289361	-0.122440
C29	C	1.101042	-0.289342	0.122256
C30	C	1.141996	-0.381904	-0.000090
C31	C	1.221216	0.167083	-0.000018
C32	C	1.320529	0.169749	-0.000011
C33	C	1.052715	0.409337	-0.000005
C34	C	1.055392	0.550935	0.000002
N35	N	1.057732	0.176171	-0.353057
C36	C	0.995329	0.267334	-0.549761
C37	C	0.976498	0.152408	-0.450302
C38	C	1.076523	0.291088	-0.450308
C39	C	1.038889	0.061133	-0.549706
C40	C	1.138951	0.199888	-0.549722
C41	C	1.120153	0.084878	-0.450307
N42	N	1.057761	0.176117	0.353023
H43	H	0.902338	-0.215297	-0.000130
H44	H	1.137616	-0.258947	-0.225965
O45	O	0.894575	0.128257	-0.398363
C46	C	0.874296	0.007948	-0.451148
H47	H	0.914720	-0.017918	-0.556579
H48	H	0.892231	-0.067990	-0.362106
C49	C	0.723658	0.045818	-0.357176
C50	C	0.773303	0.014054	-0.486676
H51	H	0.661360	0.049580	-0.379086
H52	H	0.737321	0.126870	-0.321609
H53	H	0.738614	-0.017469	-0.282987
H54	H	0.758354	0.077348	-0.560855
H55	H	0.759635	-0.066989	-0.522257
H56	H	0.977773	-0.388943	-0.225734
O57	O	0.932373	0.359385	-0.601690
C58	C	0.951482	0.480242	-0.548903
H59	H	0.994016	0.467225	-0.443473
H60	H	0.989898	0.529771	-0.637944
C61	C	0.810766	0.578928	-0.642868
C62	C	0.863001	0.562940	-0.513370
H63	H	0.756188	0.629943	-0.620956
H64	H	0.797893	0.497505	-0.678438
H65	H	0.842790	0.620197	-0.717058
H66	H	0.830982	0.521658	-0.439191
H67	H	0.875867	0.644358	-0.477788
O68	O	0.322009	0.169715	0.266711
C69	C	0.383195	0.171382	0.386078
H70	H	0.453155	0.132815	0.346443
H71	H	0.384397	0.273896	0.427662
C72	C	0.267980	0.134187	0.562518
C73	C	0.353904	0.086809	0.513840
H74	H	0.249910	0.082024	0.641331
H75	H	0.226756	0.133069	0.482099
H76	H	0.268992	0.219615	0.597161
H77	H	0.352888	0.001389	0.479182
H78	H	0.395127	0.087911	0.594256
H79	H	0.498493	0.174524	0.245346
O80	O	1.183016	-0.007284	-0.398347
C81	C	1.141009	-0.094852	-0.309862
H82	H	1.074436	-0.046638	-0.266036
H83	H	1.128187	-0.181736	-0.380060
C84	C	1.284136	-0.197490	-0.231407
C85	C	1.202374	-0.138268	-0.177569
H86	H	1.321990	-0.224276	-0.149806
H87	H	1.312438	-0.138497	-0.291025
H88	H	1.273439	-0.269885	-0.289906
H89	H	1.213071	-0.065866	-0.119088
H90	H	1.174075	-0.197250	-0.117937
H91	H	1.207602	0.220017	-0.593429
O92	O	0.609763	0.177696	0.266684
C93	C	0.623127	0.288705	0.348938
H94	H	0.687738	0.327327	0.310490
H95	H	0.564013	0.364588	0.330186
C96	C	0.550947	0.207852	0.563276
C97	C	0.630307	0.255281	0.516062
H98	H	0.555372	0.187238	0.666367
H99	H	0.541940	0.133065	0.507860
H100	H	0.501694	0.271096	0.547638
H101	H	0.679557	0.192032	0.531684
H102	H	0.639323	0.330057	0.571486
H103	H	0.617002	0.177740	-0.245358
H104	H	1.137648	-0.258729	0.225670
O105	O	1.227003	-0.441807	-0.000431
C106	C	1.272299	-0.406609	-0.129546
H107	H	1.221156	-0.373413	-0.219275
H108	H	1.314469	-0.325330	-0.101533
C109	C	1.396714	-0.563572	-0.077007
C110	C	1.333899	-0.522810	-0.187219
H111	H	1.434716	-0.635247	-0.112581
H112	H	1.366200	-0.587282	0.009983
H113	H	1.431847	-0.495828	-0.053674
H114	H	1.298761	-0.590547	-0.210537
H115	H	1.364410	-0.499113	-0.274215
H116	H	0.977806	-0.388899	0.225680
H117	H	0.498476	0.174577	-0.245366
O118	O	1.019691	-0.054765	-0.601635
C119	C	0.941108	-0.038534	-0.689196
H120	H	0.899584	0.054409	-0.656179
H121	H	0.960180	-0.034169	-0.812059
C122	C	0.936600	-0.266406	-0.704029
C123	C	0.885595	-0.152257	-0.663468
H124	H	0.902358	-0.336557	-0.688165
H125	H	0.989545	-0.277342	-0.645042
H126	H	0.952490	-0.262750	-0.806412
H127	H	0.869716	-0.155907	-0.561082
H128	H	0.832647	-0.141323	-0.722437
H129	H	1.092416	0.388298	-0.406674
O130	O	0.793634	0.182761	-0.266565
C131	C	0.838203	0.294582	-0.274645
H132	H	0.803500	0.370974	-0.197903
H133	H	0.911055	0.271531	-0.238317
C134	C	0.877976	0.250852	-0.530465
C135	C	0.835349	0.344681	-0.436219
H136	H	0.876220	0.281753	-0.630132
H137	H	0.847953	0.175513	-0.525021
H138	H	0.938683	0.231651	-0.500174
H139	H	0.774641	0.363868	-0.466499
H140	H	0.865363	0.420024	-0.441671
H141	H	0.329188	0.170006	-0.245369
H142	H	0.786298	0.182284	0.245346
