data_functionalizedCrystal
_audit_creation_method	'MofGen! by Chris Wilmer'
_symmetry_space_group_name_H-M	'P1'
_symmetry_Int_Tables_number	1
_symmetry_cell_setting	triclinic
loop_
_symmetry_equiv_pos_as_xyz
  x,y,z
_cell_length_a	16.992694
_cell_length_b	16.992695
_cell_length_c	16.053802
_cell_angle_alpha	87.258926
_cell_angle_beta	92.750953
_cell_angle_gamma	90.668223
loop_
_atom_site_label
_atom_site_type_symbol
_atom_site_fract_x
_atom_site_fract_y
_atom_site_fract_z
O1	O	-1.053959	-0.163815	-0.069325
O2	O	-0.553959	0.336185	0.430675
O3	O	-0.825560	-0.161983	-0.069350
O4	O	-0.325560	0.338017	0.430650
O5	O	-0.938844	-0.048699	-0.069331
O6	O	-0.438844	0.451301	0.430669
O7	O	-0.940676	-0.277099	-0.069344
O8	O	-0.440676	0.222901	0.430656
O9	O	-0.932607	-0.054907	0.069527
O10	O	-0.432607	0.445093	0.569527
O11	O	-0.819323	-0.168191	0.069508
O12	O	-0.319323	0.331809	0.569508
O13	O	-1.047722	-0.170023	0.069533
O14	O	-0.547722	0.329977	0.569533
Zn15	Zn	-0.932532	-0.170093	0.091567
Zn16	Zn	-0.432532	0.329907	0.591567
Zn17	Zn	-0.940750	-0.161913	-0.091384
Zn18	Zn	-0.440750	0.338087	0.408616
O19	O	-0.934438	-0.283307	0.069514
O20	O	-0.434438	0.216693	0.569514
C21	C	-0.793082	-0.162731	0.000076
C22	C	-0.293082	0.337269	0.500076
C23	C	-0.705597	-0.155702	0.000067
C24	C	-0.205597	0.344298	0.500067
C25	C	-0.933370	-0.022443	0.000098
C26	C	-0.433370	0.477557	0.500098
C27	C	-0.926341	0.065042	0.000097
C28	C	-0.426341	0.565042	0.500097
C29	C	-1.080201	-0.169275	0.000105
C30	C	-0.580201	0.330725	0.500105
C31	C	-1.167685	-0.176304	0.000109
C32	C	-0.667685	0.323696	0.500109
C33	C	-0.659607	-0.223520	0.000064
C34	C	-0.159607	0.276480	0.500064
C35	C	-0.577405	-0.216911	0.000076
C36	C	-0.077405	0.283089	0.500076
C37	C	-0.541197	-0.142484	0.000085
C38	C	-0.041197	0.357516	0.500085
C39	C	-0.587193	-0.074661	0.000091
C40	C	-0.087193	0.425339	0.500091
C41	C	-0.669393	-0.081270	0.000085
C42	C	-0.169393	0.418730	0.500085
C43	C	-0.295881	-0.115090	0.000109
C44	C	0.204119	0.384910	0.500109
C45	C	-0.213676	-0.108486	0.000112
C46	C	0.286324	0.391514	0.500112
C47	C	-0.203893	-0.250737	0.000099
C48	C	0.296107	0.249263	0.500099
C49	C	-0.286095	-0.257339	0.000088
C50	C	0.213905	0.242661	0.500088
C51	C	-0.332084	-0.189517	0.000098
C52	C	0.167916	0.310483	0.500098
N53	N	-0.457174	-0.135727	0.000094
N54	N	0.042826	0.364273	0.500094
N55	N	-0.416105	-0.196275	0.000094
N56	N	0.083895	0.303725	0.500094
C57	C	-0.939913	-0.309563	0.000084
C58	C	-0.439913	0.190437	0.500084
C59	C	-0.946942	-0.397047	0.000079
C60	C	-0.446942	0.102953	0.500079
N61	N	-0.926930	-0.175675	0.216427
N62	N	-0.426930	0.324325	0.716427
C63	C	-0.994158	0.111032	0.000105
C64	C	-0.494158	0.611032	0.500105
C65	C	-0.987550	0.193233	0.000096
C66	C	-0.487550	0.693233	0.500096
C67	C	-0.913123	0.229442	0.000086
C68	C	-0.413123	0.729442	0.500086
C69	C	-0.845300	0.183446	0.000075
C70	C	-0.345300	0.683446	0.500075
C71	C	-0.851910	0.101246	0.000078
C72	C	-0.351910	0.601246	0.500078
C73	C	-0.885729	0.474757	0.000071
C74	C	-0.385729	0.974757	0.500071
C75	C	-0.879124	0.556962	0.000071
C76	C	-0.379124	1.056962	0.500071
C77	C	-1.021375	0.566745	0.000091
C78	C	-0.521375	1.066745	0.500091
C79	C	-1.027978	0.484543	0.000099
C80	C	-0.527978	0.984543	0.500099
C81	C	-0.960155	0.438554	0.000083
C82	C	-0.460155	0.938554	0.500083
N83	N	-0.906366	0.313465	0.000079
N84	N	-0.406366	0.813465	0.500079
N85	N	-0.966913	0.354533	0.000084
N86	N	-0.466913	0.854533	0.500084
N87	N	-0.946358	-0.156325	-0.216243
N88	N	-0.446358	0.343675	0.283757
C89	C	-0.975152	-0.127492	0.260129
C90	C	-0.475152	0.372508	0.760129
C91	C	-0.971241	-0.131404	0.347535
C92	C	-0.471241	0.368596	0.847535
C93	C	-0.919110	-0.183504	0.391237
C94	C	-0.419110	0.316496	0.891237
C95	C	-0.870883	-0.231689	0.347529
C96	C	-0.370883	0.268311	0.847529
C97	C	-0.874791	-0.227772	0.260125
C98	C	-0.374791	0.272228	0.760125
C99	C	-0.902039	-0.200593	0.652644
C100	C	-0.402039	0.299407	1.152644
C101	C	-0.898136	-0.204508	0.740055
C102	C	-0.398136	0.295492	1.240055
C103	C	-0.998493	-0.104222	0.740054
C104	C	-0.498493	0.395778	1.240054
C105	C	-1.002400	-0.100313	0.652648
C106	C	-0.502400	0.399687	1.152648
C107	C	-0.954169	-0.148494	0.608948
C108	C	-0.454169	0.351506	1.108948
N109	N	-0.915113	-0.187507	0.480580
N110	N	-0.415113	0.312493	0.980580
N111	N	-0.958163	-0.144487	0.519606
N112	N	-0.458163	0.355513	1.019606
H113	H	-0.689081	-0.284126	0.000056
H114	H	-0.189081	0.215874	0.500056
F115	F	-1.107194	0.446014	0.000089
F116	F	-0.607194	0.946014	0.500089
F117	F	-1.093551	0.615695	0.000106
F118	F	-0.593551	1.115695	0.500106
F119	F	-1.022563	-0.080122	0.394046
F120	F	-0.522563	0.419878	0.894046
H121	H	-0.818513	0.586440	0.000076
H122	H	-0.318513	1.086440	0.500076
F123	F	-0.528462	-0.289093	0.000069
F124	F	-0.028462	0.210907	0.500069
H125	H	-1.044848	-0.057889	0.617067
H126	H	-0.544848	0.442111	1.117067
F127	F	-1.073374	0.072503	0.000125
F128	F	-0.573374	0.572503	0.500125
F129	F	-0.813545	0.425822	0.000053
F130	F	-0.313545	0.925822	0.500053
H131	H	-0.333316	-0.059864	0.000118
H132	H	0.166684	0.440136	0.500118
H133	H	-1.037759	-0.064994	0.775643
H134	H	-0.537759	0.435006	1.275643
H135	H	-0.784700	0.212933	0.000061
H136	H	-0.284700	0.712933	0.500061
H137	H	-0.796685	0.063801	0.000071
H138	H	-0.296685	0.563801	0.500071
H139	H	-1.017605	-0.085070	0.224552
H140	H	-0.517605	0.414930	0.724552
H141	H	-0.828433	-0.274107	0.383117
H142	H	-0.328433	0.225893	0.883117
F143	F	-0.175141	-0.029267	0.000136
F144	F	0.324859	0.470733	0.500136
H145	H	-0.315571	-0.317945	0.000071
H146	H	0.184429	0.182055	0.500071
F147	F	-0.154943	-0.322913	0.000090
F148	F	0.345057	0.177087	0.500090
H149	H	-0.855683	-0.246937	0.775633
H150	H	-0.355683	0.253063	1.275633
H151	H	-0.557705	-0.014061	0.000110
H152	H	-0.057705	0.485939	0.500110
H153	H	-0.862769	-0.239826	0.617070
H154	H	-0.362769	0.260174	1.117070
F155	F	-0.823463	-0.279053	0.213615
F156	F	-0.323463	0.220947	0.713615
H157	H	-1.042774	0.230676	0.000105
H158	H	-0.542774	0.730676	0.500105
F159	F	-0.718339	-0.009089	0.000091
F160	F	-0.218339	0.490911	0.500091
