data_functionalizedCrystal
_audit_creation_method	'MofGen! by Chris Wilmer'
_symmetry_space_group_name_H-M	'P1'
_symmetry_Int_Tables_number	1
_symmetry_cell_setting	triclinic
loop_
_symmetry_equiv_pos_as_xyz
  x,y,z
_cell_length_a	6.817900
_cell_length_b	12.840964
_cell_length_c	10.992421
_cell_angle_alpha	81.917726
_cell_angle_beta	108.764763
_cell_angle_gamma	88.344333
loop_
_atom_site_label
_atom_site_type_symbol
_atom_site_fract_x
_atom_site_fract_y
_atom_site_fract_z
V1	V	-3.925745	0.325195	-0.180761
O2	O	-3.887452	0.319020	0.005599
O3	O	-3.904621	0.322957	-0.355449
O4	O	-3.821120	0.467030	-0.179335
O5	O	-3.971531	0.173948	-0.171734
V6	V	-4.413124	0.307106	-0.158310
O7	O	-4.178545	0.364874	-0.230009
O8	O	-4.610521	0.267428	-0.109062
O9	O	-4.211041	0.309345	0.016378
O10	O	-4.568813	0.313282	-0.344670
O11	O	-4.484734	0.458353	-0.167337
O12	O	-4.294542	0.165271	-0.159736
C13	C	-3.758077	0.317823	-0.397992
C14	C	-3.821718	0.316938	-0.540811
C15	C	-3.647431	0.619733	-0.173354
C16	C	-3.651564	0.501601	-0.173352
C17	C	-4.127429	0.130694	-0.165733
C18	C	-4.110435	0.012563	-0.165742
C19	C	-3.693516	0.309805	-0.736032
C20	C	-3.627141	0.310312	-0.587392
C21	C	-3.948710	0.219669	-0.578549
C22	C	-4.013543	0.218639	-0.727082
C23	C	-4.029466	0.418035	-0.767504
C24	C	-3.959189	0.420145	-0.619009
V25	V	-3.908690	0.811359	-0.180781
O26	O	-3.943865	0.962569	-0.171756
O27	O	-3.814205	0.664174	-0.179352
O28	O	-3.886028	0.852727	-0.355467
O29	O	-3.871544	0.772710	0.005578
V30	V	-4.394125	0.848811	-0.158339
O31	O	-4.163427	0.795823	-0.230032
O32	O	-4.588793	0.887035	-0.109095
O33	O	-4.265796	0.984748	-0.159764
O34	O	-4.476140	0.703518	-0.167365
O35	O	-4.548461	0.893376	-0.344700
O36	O	-4.193973	0.796194	0.016352
C37	C	-4.020929	0.314476	0.058914
C38	C	-3.936524	0.315367	0.201732
C39	C	-3.739033	0.860252	-0.398000
C40	C	-3.801340	0.897215	-0.540817
C41	C	-4.004899	0.771700	0.058898
C42	C	-3.921868	0.733700	0.201717
C43	C	-4.011667	0.920026	-0.614486
C44	C	-4.070237	0.954772	-0.748675
C45	C	-3.918478	0.966699	-0.809196
C46	C	-3.708133	0.943888	-0.735517
C47	C	-3.649565	0.909150	-0.601328
C48	C	-3.709815	0.703430	0.262212
C49	C	-3.631766	0.667737	0.396408
C50	C	-3.765776	0.662309	0.470106
C51	C	-3.977847	0.692586	0.409603
C52	C	-4.055890	0.728285	0.275411
H53	H	-3.529729	0.379814	-0.562269
H54	H	-4.228565	0.752924	0.226166
H55	H	-3.459084	0.643087	0.445649
Br56	Br	-3.583724	0.424924	-0.814469
Br57	Br	-4.217667	0.903852	-0.532381
H58	H	-3.702203	0.633237	0.579372
H59	H	-3.852411	0.143262	-0.523606
Br60	Br	-4.355711	0.985720	-0.848640
Br61	Br	-3.502199	0.960075	-0.817673
Br62	Br	-3.572039	0.186402	-0.769159
H63	H	-4.086941	0.688161	0.469628
H64	H	-3.521414	0.236210	-0.534266
Br65	Br	-4.198351	0.438255	-0.568836
H66	H	-3.600664	0.707849	0.202225
H67	H	-4.189843	0.218485	-0.767964
Br68	Br	-3.903495	0.089917	-0.755094
H69	H	-3.966196	0.994985	-0.918462
H70	H	-4.093691	0.220791	-0.548323
H71	H	-3.980464	0.491636	-0.817699
Br72	Br	-4.324299	0.426525	-0.836091
Br73	Br	-3.364103	0.878188	-0.501367
Br74	Br	-3.807989	0.540094	-0.580307
