data_functionalizedCrystal
_audit_creation_method	'MofGen! by Chris Wilmer'
_symmetry_space_group_name_H-M	'P1'
_symmetry_Int_Tables_number	1
_symmetry_cell_setting	triclinic
loop_
_symmetry_equiv_pos_as_xyz
  x,y,z
_cell_length_a	16.109301
_cell_length_b	12.837942
_cell_length_c	15.186229
_cell_angle_alpha	89.999517
_cell_angle_beta	90.002891
_cell_angle_gamma	89.145211
loop_
_atom_site_label
_atom_site_type_symbol
_atom_site_fract_x
_atom_site_fract_y
_atom_site_fract_z
O1	O	1.113718	0.133235	0.073172
O2	O	1.613718	0.633235	0.573172
O3	O	0.872974	0.149816	0.073186
O4	O	1.372974	0.649816	0.573186
O5	O	0.988008	-0.009376	0.073174
O6	O	1.488008	0.490624	0.573174
O7	O	0.998684	0.292426	0.073184
O8	O	1.498684	0.792426	0.573184
O9	O	0.987993	-0.009367	-0.073283
O10	O	1.487993	0.490633	0.426717
O11	O	0.872959	0.149825	-0.073271
O12	O	1.372959	0.649825	0.426729
O13	O	1.113704	0.133244	-0.073285
O14	O	1.613704	0.633244	0.426715
Zn15	Zn	0.993329	0.141536	-0.096532
Zn16	Zn	1.493329	0.641536	0.403468
Zn17	Zn	0.993348	0.141524	0.096432
Zn18	Zn	1.493348	0.641524	0.596432
O19	O	0.998670	0.292435	-0.073273
O20	O	1.498670	0.792435	0.426727
C21	C	0.841938	0.149149	-0.000041
C22	C	1.341938	0.649149	0.499959
C23	C	0.749483	0.147135	-0.000036
C24	C	1.249483	0.647135	0.499964
C25	C	0.534343	0.236914	-0.000043
C26	C	1.034343	0.736914	0.499957
C27	C	0.447471	0.235014	-0.000049
C28	C	0.947471	0.735014	0.499951
C29	C	0.452341	0.046138	-0.000051
C30	C	0.952341	0.546138	0.499949
C31	C	0.539211	0.048040	-0.000052
C32	C	1.039211	0.548040	0.499948
C33	C	0.580209	0.143431	-0.000043
C34	C	1.080209	0.643431	0.499957
C35	C	0.406468	0.139629	-0.000048
C36	C	0.906468	0.639629	0.499952
C37	C	0.312278	0.137568	-0.000055
C38	C	0.812278	0.637568	0.499945
C39	C	0.674405	0.145492	-0.000039
C40	C	1.174405	0.645492	0.499961
C41	C	0.984394	-0.047990	-0.000054
C42	C	1.484394	0.452010	0.499946
C43	C	0.973637	-0.163064	-0.000052
C44	C	1.473637	0.336936	0.499948
C45	C	1.102954	-0.404066	-0.000041
C46	C	1.602954	0.095934	0.499959
C47	C	1.092851	-0.512188	-0.000039
C48	C	1.592851	-0.012188	0.499961
C49	C	0.943328	-0.487433	-0.000040
C50	C	1.443328	0.012567	0.499960
C51	C	0.953431	-0.379311	-0.000042
C52	C	1.453431	0.120689	0.499958
C53	C	1.033247	-0.337632	-0.000044
C54	C	1.533247	0.162368	0.499956
C55	C	1.043349	-0.229507	-0.000052
C56	C	1.543349	0.270493	0.499948
C57	C	0.893827	-0.204754	-0.000046
C58	C	1.393827	0.295246	0.499954
C59	C	0.883724	-0.312876	-0.000044
C60	C	1.383724	0.187124	0.499956
C61	C	1.144739	0.133911	-0.000056
C62	C	1.644739	0.633911	0.499944
C63	C	1.237195	0.135924	-0.000056
C64	C	1.737195	0.635924	0.499944
C65	C	1.002284	0.331050	-0.000043
C66	C	1.502284	0.831050	0.499957
C67	C	1.013041	0.446124	-0.000040
C68	C	1.513041	0.946124	0.499960
N69	N	0.993323	0.141543	-0.228224
N70	N	1.493323	0.641543	0.271776
C71	C	1.048741	0.204417	-0.453948
C72	C	1.548741	0.704417	0.046052
C73	C	1.048750	0.204409	-0.546138
C74	C	1.548750	0.704409	-0.046138
C75	C	0.937940	0.078627	-0.546145
C76	C	1.437940	0.578627	-0.046145
C77	C	0.937936	0.078630	-0.453957
C78	C	1.437936	0.578630	0.046043
C79	C	0.993336	0.141531	-0.407861
C80	C	1.493336	0.641531	0.092139
C81	C	0.993348	0.141521	-0.592239
C82	C	1.493348	0.641521	-0.092239
C83	C	0.993357	0.141512	-0.692195
C84	C	1.493357	0.641512	-0.192195
C85	C	0.993328	0.141538	-0.307898
C86	C	1.493328	0.641538	0.192102
N87	N	0.993361	0.141508	0.228125
N88	N	1.493361	0.641508	0.728125
H89	H	0.567721	0.314588	-0.000043
H90	H	1.067721	0.814588	0.499957
Br91	Br	0.601464	-0.078840	-0.000064
Br92	Br	1.101464	0.421160	0.499936
H93	H	0.818741	-0.346827	-0.000039
H94	H	1.318741	0.153173	0.499961
H95	H	0.410130	0.311138	-0.000050
H96	H	0.910130	0.811138	0.499950
Br97	Br	0.862754	-0.006727	-0.608710
Br98	Br	1.362754	0.493273	-0.108710
H99	H	1.167943	-0.370130	-0.000051
H100	H	1.667943	0.129870	0.499949
Br101	Br	1.123931	0.289775	-0.391391
Br102	Br	1.623931	0.789775	0.108609
Br103	Br	0.835016	-0.544017	-0.000005
Br104	Br	1.335016	-0.044017	0.499995
Br105	Br	0.862737	-0.006722	-0.391405
Br106	Br	1.362737	0.493278	0.108595
Br107	Br	0.396695	-0.083315	-0.000060
Br108	Br	0.896695	0.416685	0.499940
Br109	Br	1.187457	-0.602348	-0.000029
Br110	Br	1.687457	-0.102348	0.499971
Br111	Br	1.151668	-0.172942	-0.000064
Br112	Br	1.651668	0.327058	0.499936
Br113	Br	0.799219	-0.114586	-0.000066
Br114	Br	1.299219	0.385414	0.499934
H115	H	1.093867	0.255616	-0.583657
H116	H	1.593867	0.755616	-0.083657
