data_functionalizedCrystal
_audit_creation_method	'MofGen! by Chris Wilmer'
_symmetry_space_group_name_H-M	'P1'
_symmetry_Int_Tables_number	1
_symmetry_cell_setting	triclinic
loop_
_symmetry_equiv_pos_as_xyz
  x,y,z
_cell_length_a	18.215405
_cell_length_b	18.215407
_cell_length_c	18.215399
_cell_angle_alpha	90.020112
_cell_angle_beta	89.972040
_cell_angle_gamma	89.977347
loop_
_atom_site_label
_atom_site_type_symbol
_atom_site_fract_x
_atom_site_fract_y
_atom_site_fract_z
Zn1	Zn	-0.292990	-1.125079	-0.416133
Zn2	Zn	-0.416062	-1.124994	-0.293068
Zn3	Zn	-0.293014	-1.002013	-0.293079
Zn4	Zn	-0.416019	-1.001983	-0.416091
O5	O	-0.354522	-1.063517	-0.354592
O6	O	-0.309324	-1.228052	-0.399821
O7	O	-0.399768	-1.108657	-0.190085
O8	O	-0.190027	-1.018387	-0.309424
O9	O	-0.399745	-1.227989	-0.309405
O10	O	-0.190009	-1.108803	-0.399832
O11	O	-0.309365	-1.018303	-0.190093
O12	O	-0.309323	-0.899025	-0.309384
O13	O	-0.399671	-1.018335	-0.519081
O14	O	-0.399695	-0.899002	-0.399760
O15	O	-0.309282	-1.108774	-0.519112
O16	O	-0.519041	-1.108627	-0.309365
O17	O	-0.519009	-1.018251	-0.399749
C18	C	-0.354507	-0.872311	-0.354569
C19	C	-0.354519	-0.790512	-0.354576
C20	C	-0.545728	-1.063447	-0.354567
C21	C	-0.627527	-1.063484	-0.354581
C22	C	-0.401648	-0.602326	-0.401574
C23	C	-0.401649	-0.525467	-0.401582
C24	C	-0.307400	-0.525461	-0.307614
C25	C	-0.307395	-0.602318	-0.307610
C26	C	-0.354523	-0.640748	-0.354589
C27	C	-0.354529	-0.487032	-0.354601
C28	C	-0.354531	-0.403699	-0.354609
C29	C	-0.354521	-0.724087	-0.354582
C30	C	-0.815651	-1.110586	-0.401720
C31	C	-0.892509	-1.110613	-0.401734
C32	C	-0.892641	-1.016539	-0.307511
C33	C	-0.815783	-1.016509	-0.307501
C34	C	-0.777290	-1.063537	-0.354605
C35	C	-0.931006	-1.063594	-0.354628
C36	C	-1.014340	-1.063622	-0.354643
C37	C	-0.693951	-1.063508	-0.354591
C38	C	-0.162569	-1.063608	-0.354634
C39	C	-0.080770	-1.063647	-0.354652
C40	C	-0.354469	-1.063560	-0.546545
C41	C	-0.354447	-1.063579	-0.628344
C42	C	-0.354534	-0.255470	-0.354613
C43	C	-0.354534	-0.337269	-0.354614
C44	C	-0.307318	-1.110697	-0.893419
C45	C	-0.307338	-1.110689	-0.816561
C46	C	-0.401470	-1.016520	-0.816518
C47	C	-0.401453	-1.016533	-0.893375
C48	C	-0.354373	-1.063621	-0.931824
C49	C	-0.354410	-1.063599	-0.778108
C50	C	-0.354432	-1.063589	-0.694774
C51	C	-0.354352	-1.063631	-1.015163
C52	C	-0.354520	-1.063516	-0.163386
C53	C	-0.354335	-1.063641	-0.081588
H54	H	-0.440022	-0.494186	-0.439843
C55	C	-0.453481	-0.644600	-0.453254
C56	C	-0.537136	-0.634000	-0.447110
C57	C	-0.588969	-0.676273	-0.498794
C58	C	-0.557147	-0.729146	-0.556622
C59	C	-0.473487	-0.739748	-0.562769
C60	C	-0.421654	-0.697475	-0.511085
H61	H	-0.560696	-0.594859	-0.404299
H62	H	-0.650899	-0.668424	-0.494243
H63	H	-0.595516	-0.760438	-0.594882
H64	H	-0.449927	-0.778890	-0.605579
H65	H	-0.359724	-0.705324	-0.515636
C66	C	-0.255559	-0.644589	-0.255920
C67	C	-0.203728	-0.602321	-0.204236
C68	C	-0.151894	-0.644592	-0.152549
C69	C	-0.151889	-0.729132	-0.152546
C70	C	-0.203722	-0.771406	-0.204231
C71	C	-0.255556	-0.729134	-0.255918
H72	H	-0.203730	-0.539735	-0.204236
H73	H	-0.113524	-0.613298	-0.114288
H74	H	-0.113518	-0.760424	-0.114284
H75	H	-0.203720	-0.833991	-0.204231
H76	H	-0.293926	-0.760428	-0.294180
H77	H	-0.269031	-0.494161	-0.269365
H78	H	-0.784548	-0.978193	-0.269134
H79	H	-0.784311	-1.148878	-0.440075
H80	H	-0.439799	-0.978182	-0.785204
H81	H	-0.923739	-1.148923	-0.440101
H82	H	-0.923991	-0.978252	-0.269160
H83	H	-0.268982	-1.149039	-0.924722
C84	C	-0.255575	-1.162473	-0.774315
C85	C	-0.203793	-1.214266	-0.816611
C86	C	-0.152028	-1.266053	-0.774366
C87	C	-0.152046	-1.266047	-0.689826
C88	C	-0.203831	-1.214252	-0.647526
C89	C	-0.255595	-1.162465	-0.689771
H90	H	-0.203778	-1.214272	-0.879196
H91	H	-0.113694	-1.304395	-0.805679
H92	H	-0.113727	-1.304383	-0.658553
H93	H	-0.203846	-1.214246	-0.584940
H94	H	-0.293929	-1.124123	-0.658457
C95	C	-0.453210	-0.964738	-0.935627
C96	C	-0.504985	-0.912932	-0.893338
C97	C	-0.556738	-0.861139	-0.935590
C98	C	-0.556717	-0.861153	-1.020130
C99	C	-0.504940	-0.912960	-1.062423
C100	C	-0.453186	-0.964753	-1.020172
H101	H	-0.505002	-0.912921	-0.830752
H102	H	-0.595067	-0.822788	-0.904281
H103	H	-0.595028	-0.822812	-1.051407
H104	H	-0.504922	-0.912972	-1.125009
H105	H	-0.414858	-1.003105	-1.051480
