data_functionalizedCrystal
_audit_creation_method	'MofGen! by Chris Wilmer'
_symmetry_space_group_name_H-M	'P1'
_symmetry_Int_Tables_number	1
_symmetry_cell_setting	triclinic
loop_
_symmetry_equiv_pos_as_xyz
  x,y,z
_cell_length_a	13.032831
_cell_length_b	12.759394
_cell_length_c	12.759387
_cell_angle_alpha	89.968340
_cell_angle_beta	82.805208
_cell_angle_gamma	82.819699
loop_
_atom_site_label
_atom_site_type_symbol
_atom_site_fract_x
_atom_site_fract_y
_atom_site_fract_z
Zn1	Zn	1.597764	-0.622502	-0.797708
Zn2	Zn	1.597655	-0.798205	-0.622012
Zn3	Zn	1.422992	-0.600208	-0.599762
Zn4	Zn	1.422984	-0.775792	-0.775381
O5	O	1.510349	-0.699177	-0.698716
O6	O	1.743992	-0.664520	-0.793057
O7	O	1.574443	-0.771990	-0.472034
O8	O	1.446225	-0.456151	-0.626053
O9	O	1.743912	-0.793608	-0.663974
O10	O	1.574629	-0.472530	-0.771483
O11	O	1.446119	-0.626523	-0.455687
O12	O	1.276749	-0.604790	-0.604403
O13	O	1.446212	-0.755408	-0.925370
O14	O	1.276743	-0.733791	-0.733430
O15	O	1.574622	-0.642787	-0.941773
O16	O	1.574435	-0.942247	-0.642325
O17	O	1.446106	-0.925780	-0.755004
C18	C	1.238827	-0.664440	-0.664080
C19	C	1.122668	-0.649605	-0.649287
C20	C	1.070906	-0.706920	-0.706436
C21	C	0.950850	-0.691588	-0.691149
C22	C	1.510286	-0.972137	-0.698683
C23	C	1.510355	-1.088922	-0.698716
C24	C	1.644085	-1.106028	-0.581496
C25	C	1.710977	-1.169446	-0.522902
C26	C	1.711038	-1.279175	-0.522938
C27	C	1.644202	-1.325489	-0.581577
C28	C	1.577310	-1.262072	-0.640171
C29	C	1.577254	-1.152340	-0.640126
C30	C	1.443587	-1.244966	-0.757396
C31	C	1.443519	-1.135236	-0.757355
C32	C	1.376751	-1.291280	-0.816035
C33	C	1.309852	-1.227862	-0.874625
C34	C	1.309793	-1.118126	-0.874585
C35	C	1.376627	-1.071819	-0.815949
C36	C	1.782932	-0.734051	-0.733488
C37	C	1.899090	-0.748912	-0.748306
C38	C	1.510428	-0.699084	-0.972760
C39	C	1.510462	-0.699045	-1.089541
C40	C	1.510440	-0.425155	-0.698776
C41	C	1.510479	-0.308384	-0.698802
C42	C	1.644184	-0.581782	-1.106643
C43	C	1.711059	-0.523136	-1.170056
C44	C	1.711085	-0.523101	-1.279781
C45	C	1.644225	-0.581715	-1.326094
C46	C	1.577350	-0.640361	-1.262680
C47	C	1.577334	-0.640392	-1.152954
C48	C	1.443624	-0.757616	-1.245578
C49	C	1.443602	-0.757659	-1.135853
C50	C	1.376764	-0.816230	-1.291891
C51	C	1.309892	-0.874883	-1.228477
C52	C	1.309870	-0.874917	-1.118746
C53	C	1.376726	-0.816304	-1.072440
C54	C	1.510330	-0.699201	-0.425746
C55	C	1.510499	-0.698971	-0.308992
H56	H	0.943650	-0.809330	-0.808562
H57	H	1.765513	-1.330811	-0.475231
H58	H	1.644028	-1.016680	-0.581445
H59	H	1.376578	-0.982471	-0.815903
C60	C	0.961521	-0.559947	-0.559895
C61	C	0.890705	-0.610013	-0.609814
H62	H	0.924388	-0.509583	-0.509689
H63	H	1.004065	-0.611069	-0.525008
H64	H	1.004127	-0.525218	-0.611137
H65	H	0.848104	-0.644748	-0.558573
H66	H	0.848143	-0.558882	-0.644702
C67	C	1.250319	-0.942325	-0.926586
C68	C	1.236264	-1.048420	-0.938997
H69	H	1.204929	-0.899297	-0.966359
H70	H	1.235037	-0.922466	-0.854040
H71	H	1.320523	-0.933257	-0.950961
H72	H	1.166062	-1.057489	-0.914615
H73	H	1.251539	-1.068284	-1.011559
C74	C	1.770259	-1.008829	-0.470775
C75	C	1.784438	-1.118535	-0.458443
H76	H	1.815608	-0.977404	-0.430977
H77	H	1.785519	-0.992732	-0.543309
H78	H	1.700035	-0.981950	-0.446386
H79	H	1.854660	-1.145415	-0.482840
H80	H	1.769185	-1.134641	-0.385894
H81	H	1.078103	-0.589180	-0.589046
H82	H	1.644267	-1.414838	-0.581612
C83	C	1.403449	-1.451762	-0.919450
C84	C	1.376826	-1.411897	-0.816081
H85	H	1.403500	-1.526227	-0.919475
H86	H	1.354046	-1.420627	-0.962726
H87	H	1.470869	-1.435480	-0.946244
H88	H	1.309403	-1.428172	-0.789289
H89	H	1.426231	-1.443043	-0.772789
C90	C	1.258896	-1.255021	-1.046003
C91	C	1.236398	-1.278774	-0.939079
H92	H	1.213551	-1.286462	-1.085793
H93	H	1.249273	-1.180603	-1.054355
H94	H	1.329121	-1.281908	-1.070379
H95	H	1.166175	-1.251880	-0.914700
H96	H	1.246012	-1.353207	-0.930721
C97	C	1.716967	-0.517998	-0.958774
C98	C	1.644163	-0.581825	-0.986032
H99	H	1.716949	-0.518020	-0.884313
H100	H	1.784392	-0.544797	-0.992199
H101	H	1.698923	-0.447883	-0.981309
H102	H	1.662211	-0.651942	-0.963503
H103	H	1.576724	-0.555029	-0.952594
H104	H	1.765494	-0.475412	-1.132336
C105	C	1.295337	-1.014292	-1.349984
C106	C	1.236407	-0.939308	-1.279383
H107	H	1.249968	-1.054070	-1.381407
H108	H	1.335153	-0.979351	-1.403444
H109	H	1.340843	-1.060318	-1.312973
H110	H	1.190906	-0.893276	-1.316395
H111	H	1.196573	-0.974250	-1.225914
H112	H	1.765534	-0.475340	-1.331412
C113	C	1.277394	-0.776671	-1.436390
C114	C	1.376789	-0.816194	-1.412501
H115	H	1.277414	-0.776647	-1.510851
H116	H	1.228009	-0.819985	-1.405254
H117	H	1.259362	-0.706568	-1.409279
H118	H	1.394818	-0.886300	-1.439606
H119	H	1.426190	-0.772880	-1.443650
H120	H	1.644243	-0.581672	-1.415437
H121	H	1.255400	-0.922660	-1.067119
C122	C	1.476115	-0.855851	-0.927955
C123	C	1.376714	-0.816335	-0.951830
H124	H	1.476109	-0.855859	-0.853496
H125	H	1.494144	-0.925948	-0.955054
H126	H	1.525500	-0.812532	-0.959112
H127	H	1.327329	-0.859659	-0.920681
H128	H	1.358672	-0.746227	-0.924719
H129	H	1.115471	-0.767336	-0.766685
