data_functionalizedCrystal
_audit_creation_method	'MofGen! by Chris Wilmer'
_symmetry_space_group_name_H-M	'P1'
_symmetry_Int_Tables_number	1
_symmetry_cell_setting	triclinic
loop_
_symmetry_equiv_pos_as_xyz
  x,y,z
_cell_length_a	10.489741
_cell_length_b	10.489716
_cell_length_c	8.965430
_cell_angle_alpha	90.005880
_cell_angle_beta	89.997334
_cell_angle_gamma	84.534155
loop_
_atom_site_label
_atom_site_type_symbol
_atom_site_fract_x
_atom_site_fract_y
_atom_site_fract_z
O1	O	1.694041	0.179957	-0.123932
O2	O	1.322843	0.196850	-0.123954
O3	O	1.516905	0.002804	-0.123948
O4	O	1.499979	0.374004	-0.123938
O5	O	1.516882	0.002823	0.124131
O6	O	1.322821	0.196869	0.124125
O7	O	1.694018	0.179976	0.124146
Cu8	Cu	1.508417	0.188424	0.146787
Cu9	Cu	1.508444	0.188402	-0.146595
O10	O	1.499957	0.374022	0.124140
C11	C	1.275301	0.195584	0.000082
C12	C	1.133672	0.191767	0.000073
C13	C	1.065542	0.068301	0.000084
C14	C	0.973421	0.126616	-0.122227
C15	C	0.973433	0.126663	0.122359
C16	C	1.043416	0.250132	-0.122339
C17	C	1.043437	0.250163	0.122357
C18	C	0.951344	0.308568	0.000016
C19	C	1.515622	-0.044719	0.000087
C20	C	1.511817	-0.186350	0.000073
C21	C	1.630822	-0.284024	0.000093
C22	C	1.567948	-0.361394	-0.122222
C23	C	1.567898	-0.361339	0.122364
C24	C	1.448993	-0.261854	-0.122344
C25	C	1.448961	-0.261794	0.122352
C26	C	1.386000	-0.339115	0.000007
C27	C	1.741561	0.181243	0.000107
C28	C	1.883190	0.185060	0.000106
C29	C	1.501240	0.421545	0.000102
C30	C	1.505044	0.563176	0.000106
N31	N	1.508408	0.188439	0.353136
C32	C	1.418631	0.278152	0.450439
C33	C	1.534123	0.303965	0.549861
C34	C	1.392958	0.162644	0.549842
C35	C	1.623958	0.214310	0.450369
C36	C	1.482717	0.072939	0.450341
C37	C	1.598292	0.098704	0.549718
N38	N	1.508439	0.188401	0.647056
H39	H	0.942421	0.074367	-0.225637
H40	H	1.618151	-0.404804	0.225770
N41	N	1.634494	-0.419038	-0.259187
H42	H	1.590503	-0.381430	-0.351577
H43	H	1.726901	-0.399407	-0.258959
N44	N	1.318150	0.378721	0.392701
H45	H	1.337739	0.465923	0.428910
H46	H	1.318332	0.377372	0.280061
N47	N	0.932386	0.057467	0.259340
H48	H	0.887354	-0.019178	0.228139
H49	H	1.010258	0.027987	0.320959
H50	H	1.734335	-0.259347	-0.000025
N51	N	1.562942	0.433312	0.607794
H52	H	1.649493	0.453480	0.570054
H53	H	1.494997	0.500957	0.571684
N54	N	1.084242	0.319267	-0.259469
H55	H	1.180298	0.321387	-0.258659
H56	H	1.058098	0.272932	-0.351666
H57	H	1.398759	-0.218268	0.225761
H58	H	1.721628	0.236228	0.406858
N59	N	0.885849	0.443146	-0.000073
H60	H	0.789940	0.439834	0.000808
H61	H	0.912533	0.490103	0.091420
H62	H	1.074469	0.302369	0.225772
H63	H	1.674311	0.022817	0.593036
H64	H	1.398793	-0.218558	-0.225867
H65	H	1.282408	-0.363546	-0.000065
N66	N	1.453857	-0.056383	0.392393
H67	H	1.374056	-0.046154	0.328816
H68	H	1.528317	-0.094688	0.330454
N69	N	1.131313	-0.066166	-0.000056
H70	H	1.106024	-0.112643	-0.092537
H71	H	1.227178	-0.062546	0.000944
N72	N	1.263621	0.133759	0.607737
H73	H	1.195868	0.201602	0.571626
H74	H	1.243617	0.047165	0.569974
