data_functionalizedCrystal
_audit_creation_method	'MofGen! by Chris Wilmer'
_symmetry_space_group_name_H-M	'P1'
_symmetry_Int_Tables_number	1
_symmetry_cell_setting	triclinic
loop_
_symmetry_equiv_pos_as_xyz
  x,y,z
_cell_length_a	9.065218
_cell_length_b	10.654559
_cell_length_c	9.130313
_cell_angle_alpha	89.998313
_cell_angle_beta	89.999659
_cell_angle_gamma	84.752265
loop_
_atom_site_label
_atom_site_type_symbol
_atom_site_fract_x
_atom_site_fract_y
_atom_site_fract_z
O1	O	1.959393	0.184153	-0.121805
O2	O	1.530027	0.199259	-0.121807
O3	O	1.754575	0.009006	-0.121795
O4	O	1.734845	0.374405	-0.121817
O5	O	1.754572	0.009011	0.121804
O6	O	1.530024	0.199264	0.121792
O7	O	1.959391	0.184158	0.121794
Cu8	Cu	1.744707	0.191711	0.144035
Cu9	Cu	1.744710	0.191705	-0.144049
O10	O	1.734842	0.374410	0.121781
C11	C	1.753122	-0.037795	0.000004
C12	C	1.748779	-0.177255	0.000004
C13	C	1.475047	0.197809	-0.000008
C14	C	1.311227	0.193469	-0.000008
C15	C	1.742671	-0.373799	-0.132808
C16	C	1.746747	-0.242761	-0.132792
C17	C	1.746751	-0.242794	0.132793
C18	C	1.742685	-0.373831	0.132775
C19	C	1.742662	-0.373778	-0.286142
C20	C	1.746738	-0.242740	-0.286126
C21	C	2.014371	0.185607	-0.000009
C22	C	2.178190	0.189948	-0.000018
C23	C	1.736295	0.421211	-0.000021
C24	C	1.740638	0.560671	-0.000030
N25	N	1.744716	0.191715	0.346658
N26	N	1.744713	0.191692	-0.346671
C27	C	1.844171	0.107500	0.423315
C28	C	1.844167	0.107485	0.576652
C29	C	1.645247	0.275910	0.576661
C30	C	1.645245	0.275918	0.423327
C31	C	1.959021	0.010265	0.423312
C32	C	1.959017	0.010250	0.576649
H33	H	1.741052	-0.427183	0.240896
H34	H	1.748420	-0.189450	0.240917
C35	C	1.880402	-0.435751	-0.365673
H36	H	1.877626	-0.524671	-0.365694
H37	H	1.967223	-0.414723	-0.316637
H38	H	1.881311	-0.406105	-0.463770
H39	H	1.564248	0.344481	0.360913
H40	H	1.644768	-0.196857	-0.344989
H41	H	1.923166	-0.081114	0.624201
H42	H	1.635058	-0.403777	-0.333726
H43	H	1.854347	-0.212733	-0.333705
C44	C	1.535847	0.368534	0.661001
H45	H	1.550096	0.356473	0.763300
H46	H	1.437241	0.353727	0.635869
H47	H	1.552736	0.452554	0.635877
H48	H	1.933826	-0.086367	0.381698
H49	H	2.066146	0.041278	0.375752
H50	H	2.072400	0.032217	0.618264
