data_functionalizedCrystal
_audit_creation_method	'MofGen! by Chris Wilmer'
_symmetry_space_group_name_H-M	'P1'
_symmetry_Int_Tables_number	1
_symmetry_cell_setting	triclinic
loop_
_symmetry_equiv_pos_as_xyz
  x,y,z
_cell_length_a	11.892095
_cell_length_b	11.026607
_cell_length_c	11.026607
_cell_angle_alpha	108.586017
_cell_angle_beta	94.748248
_cell_angle_gamma	85.244973
loop_
_atom_site_label
_atom_site_type_symbol
_atom_site_fract_x
_atom_site_fract_y
_atom_site_fract_z
O1	O	0.094001	-1.733101	-0.527257
O2	O	0.094003	-1.366522	-0.466493
O3	O	0.093998	-1.519429	-0.313585
O4	O	0.094006	-1.580194	-0.680165
O5	O	-0.094009	-1.506675	-0.326309
O6	O	-0.094005	-1.353767	-0.479217
O7	O	-0.094006	-1.720347	-0.539981
Zn8	Zn	-0.123856	-1.535032	-0.511619
Zn9	Zn	0.123852	-1.551837	-0.494855
O10	O	-0.094002	-1.567439	-0.692889
C11	C	-0.000001	-1.312485	-0.461645
C12	C	-0.000000	-1.170471	-0.428228
C13	C	-0.000004	-1.501842	-0.272288
C14	C	-0.000000	-1.468426	-0.130273
N15	N	-0.292909	-1.523572	-0.523062
C16	C	-0.529561	-1.643030	-0.403709
C17	C	-0.647903	-1.635031	-0.411718
C18	C	-0.647936	-1.499568	-0.547082
C19	C	-0.529595	-1.507567	-0.539073
C20	C	-0.470411	-1.579302	-0.467385
C21	C	-0.352067	-1.587308	-0.459384
C22	C	-0.352103	-1.451838	-0.594740
C23	C	-0.470445	-1.443839	-0.602749
N24	N	0.292906	-1.563304	-0.483404
C25	C	-0.000001	-1.774384	-0.544829
C26	C	0.000006	-1.916398	-0.578245
C27	C	0.000003	-1.116822	-0.520498
C28	C	0.000003	-0.970043	-0.485962
C29	C	0.000003	-1.585026	-0.734186
C30	C	0.000006	-1.618443	-0.876200
C31	C	0.000001	-1.560695	-0.076624
C32	C	0.000005	-1.526160	0.070155
H33	H	-0.303881	-1.645722	-0.401016
O34	O	-0.000141	-1.401351	0.144836
C35	C	-0.097526	-1.333752	0.111954
H36	H	-0.129995	-1.386298	0.009955
H37	H	-0.075626	-1.233109	0.118311
H38	H	-0.165705	-1.327186	0.181007
H39	H	-0.000002	-1.179554	-0.625061
O40	O	-0.705414	-1.696732	-0.349706
C41	C	-0.773903	-1.606682	-0.260802
H42	H	-0.738259	-1.508117	-0.234233
H43	H	-0.775237	-1.636459	-0.170987
H44	H	-0.863592	-1.602653	-0.305294
H45	H	0.000030	-0.907316	-0.381391
H46	H	-0.518646	-1.385430	-0.661112
O47	O	0.000203	-1.685473	-0.151387
C48	C	0.097561	-1.753080	-0.118455
H49	H	0.165615	-1.683105	-0.071131
H50	H	0.130247	-1.827000	-0.208669
H51	H	0.075547	-1.803803	-0.048940
O52	O	0.000199	-1.095602	-0.303487
C53	C	0.097555	-1.024390	-0.272094
H54	H	0.165612	-1.075070	-0.340915
H55	H	0.130239	-1.015966	-0.169756
H56	H	0.075540	-0.924554	-0.280222
O57	O	0.000203	-1.743230	0.049047
C58	C	0.097558	-1.810839	0.081981
H59	H	0.165617	-1.740869	0.129296
H60	H	0.130238	-1.884768	-0.008230
H61	H	0.075543	-1.861551	0.151505
H62	H	0.000008	-1.363863	-0.067540
O63	O	0.000223	-0.991281	-0.702968
C64	C	0.097585	-1.075691	-0.721175
H65	H	0.165627	-1.034246	-0.643126
H66	H	0.130288	-1.088533	-0.819078
H67	H	0.075572	-1.172550	-0.716047
O68	O	-0.472239	-1.712724	-0.333981
C69	C	-0.549824	-1.767293	-0.279529
H70	H	-0.634193	-1.709028	-0.272353
H71	H	-0.515625	-1.766825	-0.179706
H72	H	-0.562390	-1.870152	-0.342495
H73	H	-0.696139	-1.441153	-0.605439
H74	H	-0.303930	-1.399951	-0.646594
