data_functionalizedCrystal
_audit_creation_method	'MofGen! by Chris Wilmer'
_symmetry_space_group_name_H-M	'P1'
_symmetry_Int_Tables_number	1
_symmetry_cell_setting	triclinic
loop_
_symmetry_equiv_pos_as_xyz
  x,y,z
_cell_length_a	29.839134
_cell_length_b	29.839131
_cell_length_c	29.839125
_cell_angle_alpha	89.982291
_cell_angle_beta	90.012189
_cell_angle_gamma	89.978008
loop_
_atom_site_label
_atom_site_type_symbol
_atom_site_fract_x
_atom_site_fract_y
_atom_site_fract_z
Zn1	Zn	0.686719	0.179149	0.254008
Zn2	Zn	1.186719	0.679149	0.754008
Zn3	Zn	0.686652	0.254261	0.178878
Zn4	Zn	1.186652	0.754261	0.678878
Zn5	Zn	0.611602	0.179121	0.178890
Zn6	Zn	1.111602	0.679121	0.678890
Zn7	Zn	0.611550	0.254227	0.253979
Zn8	Zn	1.111550	0.754227	0.753979
O9	O	0.649131	0.216690	0.216439
O10	O	1.149131	0.716690	0.716439
O11	O	0.749578	0.189139	0.244048
O12	O	1.249578	0.689139	0.744048
O13	O	0.676690	0.244296	0.116012
O14	O	1.176690	0.744296	0.616012
O15	O	0.621617	0.116257	0.188872
O16	O	1.121617	0.616257	0.688872
O17	O	0.749528	0.244324	0.188851
O18	O	1.249528	0.744324	0.688851
O19	O	0.676805	0.116278	0.244060
O20	O	1.176805	0.616278	0.744060
O21	O	0.621551	0.189090	0.116021
O22	O	1.121551	0.689090	0.616021
O23	O	0.548728	0.189058	0.188844
O24	O	1.048728	0.689058	0.688844
O25	O	0.621528	0.244266	0.316850
O26	O	1.121528	0.744266	0.816850
O27	O	0.548690	0.244238	0.244011
O28	O	1.048690	0.744238	0.744011
O29	O	0.676755	0.189106	0.316871
O30	O	1.176755	0.689106	0.816871
O31	O	0.676639	0.317124	0.188823
O32	O	1.176639	0.817124	0.688823
O33	O	0.621462	0.317099	0.243999
O34	O	1.121462	0.817099	0.743999
C35	C	0.532408	0.216641	0.216426
C36	C	1.032408	0.716641	0.716426
C37	C	0.482474	0.216632	0.216431
C38	C	0.982474	0.716632	0.716431
C39	C	0.125909	0.188015	0.245237
C40	C	0.625909	0.688015	0.745237
C41	C	0.313582	0.187979	0.245226
C42	C	0.813582	0.687979	0.745226
O43	O	0.337865	0.163591	0.269715
O44	O	0.837865	0.663591	0.769715
N45	N	0.337029	0.216661	0.216442
N46	N	0.837029	0.716661	0.716442
C47	C	0.313555	0.245357	0.187660
C48	C	0.813555	0.745357	0.687660
O49	O	0.337804	0.269755	0.163181
O50	O	0.837804	0.769755	0.663181
C51	C	0.125883	0.245395	0.187673
C52	C	0.625883	0.745395	0.687673
C53	C	0.102438	0.216707	0.216456
C54	C	0.602438	0.716707	0.716456
C55	C	0.102464	0.159330	0.274017
C56	C	0.602464	0.659330	0.774017
C57	C	0.055548	0.159338	0.274018
C58	C	0.555548	0.659338	0.774018
C59	C	0.032078	0.188030	0.245238
C60	C	0.532078	0.688030	0.745238
C61	C	0.055522	0.216715	0.216457
C62	C	0.555522	0.716715	0.716457
C63	C	0.102409	0.274092	0.158894
C64	C	0.602409	0.774092	0.658894
C65	C	0.055488	0.274100	0.158901
C66	C	0.555488	0.774100	0.658901
C67	C	0.032044	0.245412	0.187684
C68	C	0.532044	0.745412	0.687684
C69	C	-0.014864	0.245415	0.187677
C70	C	0.485136	0.745415	0.687677
N71	N	-0.038311	0.216732	0.216461
N72	N	0.461689	0.716732	0.716461
C73	C	-0.014840	0.188040	0.245242
C74	C	0.485160	0.688040	0.745242
C75	C	0.412085	0.245334	0.187655
C76	C	0.912085	0.745334	0.687655
C77	C	0.459003	0.245324	0.187651
C78	C	0.959003	0.745324	0.687651
C79	C	0.459027	0.187947	0.245218
C80	C	0.959027	0.687947	0.745218
C81	C	0.412108	0.187955	0.245219
C82	C	0.912108	0.687955	0.745219
C83	C	0.388638	0.216652	0.216439
C84	C	0.888638	0.716652	0.716439
C85	C	-0.113366	0.188058	0.245240
C86	C	0.386634	0.688058	0.745240
C87	C	-0.160286	0.188067	0.245237
C88	C	0.339714	0.688067	0.745237
C89	C	-0.160305	0.245445	0.187672
C90	C	0.339695	0.745445	0.687672
C91	C	-0.113390	0.245435	0.187674
C92	C	0.386610	0.745435	0.687674
C93	C	-0.089921	0.216740	0.216461
C94	C	0.410079	0.716740	0.716461
O95	O	-0.039176	0.269794	0.163204
O96	O	0.460824	0.769794	0.663204
O97	O	-0.039098	0.163652	0.269725
O98	O	0.460902	0.663652	0.769725
C99	C	0.172824	0.188007	0.245236
C100	C	0.672824	0.688007	0.745236
C101	C	0.196269	0.216692	0.216455
C102	C	0.696269	0.716692	0.716455
C103	C	0.172798	0.245384	0.187675
C104	C	0.672798	0.745384	0.687675
C105	C	0.243187	0.216682	0.216451
C106	C	0.743187	0.716682	0.716451
C107	C	0.266657	0.187990	0.245231
C108	C	0.766657	0.687990	0.745231
C109	C	0.243210	0.159308	0.274016
C110	C	0.743210	0.659308	0.774016
C111	C	0.196295	0.159315	0.274016
C112	C	0.696295	0.659315	0.774016
C113	C	0.196245	0.274067	0.158891
C114	C	0.696245	0.774067	0.658891
C115	C	0.243161	0.274056	0.158892
C116	C	0.743161	0.774056	0.658892
C117	C	0.266631	0.245364	0.187672
C118	C	0.766631	0.745364	0.687672
C119	C	0.649050	0.333412	0.216416
C120	C	1.149050	0.833412	0.716416
C121	C	0.649056	0.383347	0.216422
C122	C	1.149056	0.883347	0.716422
C123	C	0.649143	0.216686	0.333617
C124	C	1.149143	0.716686	0.833617
C125	C	0.649148	0.216684	0.383551
C126	C	1.149148	0.716684	0.883551
C127	C	0.766309	0.216738	0.216451
C128	C	1.266309	0.716738	0.716451
C129	C	0.816244	0.216759	0.216457
C130	C	1.316244	0.716759	0.716457
C131	C	0.649225	0.099511	0.216471
C132	C	1.149225	0.599511	0.716471
C133	C	0.649264	0.049577	0.216484
C134	C	1.149264	0.549577	0.716484
C135	C	0.677914	0.692990	0.187750
C136	C	1.177914	1.192990	0.687750
C137	C	0.677969	0.880663	0.187767
C138	C	1.177969	1.380663	0.687767
O139	O	0.702440	0.904928	0.163373
O140	O	1.202440	1.404928	0.663373
N141	N	0.649224	0.904132	0.216472
N142	N	1.149224	1.404132	0.716472
C143	C	0.620465	0.880679	0.245177
C144	C	1.120465	1.380679	0.745177
O145	O	0.596020	0.904946	0.269596
O146	O	1.096020	1.404946	0.769596
C147	C	0.620412	0.693007	0.245162
C148	C	1.120412	1.193007	0.745162
C149	C	0.649156	0.669541	0.216452
C150	C	1.149156	1.169541	0.716452
C151	C	0.706655	0.669524	0.159043
C152	C	1.206655	1.169524	0.659043
C153	C	0.706640	0.622609	0.159037
C154	C	1.206640	1.122609	0.659037
C155	C	0.677882	0.599159	0.187738
C156	C	1.177882	1.099159	0.687738
C157	C	0.649140	0.622625	0.216446
C158	C	1.149140	1.122625	0.716446
C159	C	0.591656	0.669555	0.273868
C160	C	1.091656	1.169555	0.773868
C161	C	0.591646	0.622634	0.273863
C162	C	1.091646	1.122634	0.773863
C163	C	0.620390	0.599168	0.245153
C164	C	1.120390	1.099168	0.745153
C165	C	0.620367	0.552260	0.245141
C166	C	1.120367	1.052260	0.745141
N167	N	0.649112	0.528792	0.216437
N168	N	1.149112	1.028792	0.716437
C169	C	0.677869	0.552242	0.187735
C170	C	1.177869	1.052242	0.687735
C171	C	0.620494	0.979209	0.245183
C172	C	1.120494	1.479209	0.745183
C173	C	0.620507	1.026127	0.245186
C174	C	1.120507	1.526127	0.745186
C175	C	0.678012	1.026109	0.187777
C176	C	1.178012	1.526109	0.687777
C177	C	0.677996	0.979190	0.187772
C178	C	1.177996	1.479190	0.687772
C179	C	0.649239	0.955741	0.216478
C180	C	1.149239	1.455741	0.716478
C181	C	0.677834	0.453716	0.187725
C182	C	1.177834	0.953716	0.687725
C183	C	0.677814	0.406796	0.187720
C184	C	1.177814	0.906796	0.687720
C185	C	0.620311	0.406819	0.245131
C186	C	1.120311	0.906819	0.745131
C187	C	0.620329	0.453734	0.245134
C188	C	1.120329	0.953734	0.745134
C189	C	0.649094	0.477182	0.216429
C190	C	1.149094	0.977182	0.716429
O191	O	0.595912	0.527966	0.269527
O192	O	1.095912	1.027966	0.769527
O193	O	0.702318	0.527966	0.163327
O194	O	1.202318	1.027966	0.663327
C195	C	0.677930	0.739906	0.187756
C196	C	1.177930	1.239906	0.687756
C197	C	0.649188	0.763372	0.216463
C198	C	1.149188	1.263372	0.716463
C199	C	0.620430	0.739922	0.245165
C200	C	1.120430	1.239922	0.745165
C201	C	0.649200	0.810289	0.216467
C202	C	1.149200	1.310289	0.716467
C203	C	0.677958	0.833739	0.187765
C204	C	1.177958	1.333739	0.687765
C205	C	0.706703	0.810271	0.159060
C206	C	1.206703	1.310271	0.659060
C207	C	0.706687	0.763355	0.159054
C208	C	1.206687	1.263355	0.659054
C209	C	0.591685	0.763390	0.273870
C210	C	1.091685	1.263390	0.773870
C211	C	0.591703	0.810306	0.273873
C212	C	1.091703	1.310306	0.773873
C213	C	0.620461	0.833755	0.245171
C214	C	1.120461	1.333755	0.745171
C215	C	0.649145	0.216661	0.099716
C216	C	1.149145	0.716661	0.599716
C217	C	0.649227	0.216536	0.049782
C218	C	1.149227	0.716536	0.549782
C219	C	0.677935	0.187887	0.693209
C220	C	1.177935	0.687887	1.193209
C221	C	0.677957	0.187849	0.880882
C222	C	1.177957	0.687849	1.380882
O223	O	0.702399	0.163407	0.905159
O224	O	1.202399	0.663407	1.405159
N225	N	0.649208	0.216564	0.904337
N226	N	1.149208	0.716564	1.404337
C227	C	0.620449	0.245288	0.880870
C228	C	1.120449	0.745288	1.380870
O229	O	0.595993	0.269708	0.905126
O230	O	1.095993	0.769708	1.405126
C231	C	0.620424	0.245324	0.693198
C232	C	1.120424	0.745324	1.193198
C233	C	0.649179	0.216610	0.669746
C234	C	1.149179	0.716610	1.169746
C235	C	0.706687	0.159175	0.669757
C236	C	1.206687	0.659175	1.169757
C237	C	0.706683	0.159187	0.622841
C238	C	1.206683	0.659187	1.122841
C239	C	0.677927	0.187910	0.599378
C240	C	1.177927	0.687910	1.099378
C241	C	0.649175	0.216622	0.622830
C242	C	1.149175	0.716622	1.122830
C243	C	0.591663	0.274045	0.669732
C244	C	1.091663	0.774045	1.169732
C245	C	0.591659	0.274051	0.622811
C246	C	1.091659	0.774051	1.122811
C247	C	0.620414	0.245337	0.599359
C248	C	1.120414	0.745337	1.099359
C249	C	0.620415	0.245356	0.552451
C250	C	1.120415	0.745356	1.052451
N251	N	0.649164	0.216642	0.528997
N252	N	1.149164	0.716642	1.028997
C253	C	0.677920	0.187918	0.552460
C254	C	1.177920	0.687918	1.052460
C255	C	0.620464	0.245268	0.979401
C256	C	1.120464	0.745268	1.479401
C257	C	0.620471	0.245260	1.026319
C258	C	1.120471	0.745260	1.526319
C259	C	0.677979	0.187820	1.026327
C260	C	1.177979	0.687820	1.526327
C261	C	0.677974	0.187830	0.979409
C262	C	1.177974	0.687830	1.479409
C263	C	0.649213	0.216553	0.955946
C264	C	1.149213	0.716553	1.455946
C265	C	0.677910	0.187945	0.453934
C266	C	1.177910	0.687945	0.953934
C267	C	0.677904	0.187961	0.407015
C268	C	1.177904	0.687961	0.907015
C269	C	0.620395	0.245399	0.407010
C270	C	1.120395	0.745399	0.907010
C271	C	0.620401	0.245385	0.453926
C272	C	1.120401	0.745385	0.953926
C273	C	0.649160	0.216655	0.477386
C274	C	1.149160	0.716655	0.977386
O275	O	0.595982	0.269782	0.528146
O276	O	1.095982	0.769782	1.028146
O277	O	0.702365	0.163495	0.528196
O278	O	1.202365	0.663495	1.028196
C279	C	0.677939	0.187875	0.740124
C280	C	1.177939	0.687875	1.240124
C281	C	0.649187	0.216587	0.763577
C282	C	1.149187	0.716587	1.263577
C283	C	0.620431	0.245310	0.740113
C284	C	1.120431	0.745310	1.240113
C285	C	0.649194	0.216579	0.810494
C286	C	1.149194	0.716579	1.310494
C287	C	0.677950	0.187856	0.833958
C288	C	1.177950	0.687856	1.333958
C289	C	0.706699	0.159141	0.810503
C290	C	1.206699	0.659141	1.310503
C291	C	0.706695	0.159152	0.763588
C292	C	1.206695	0.659152	1.263588
C293	C	0.591682	0.274025	0.763568
C294	C	1.091682	0.774025	1.263568
C295	C	0.591689	0.274011	0.810483
C296	C	1.091689	0.774011	1.310483
C297	C	0.620445	0.245288	0.833947
C298	C	1.120445	0.745288	1.333947
H299	H	-0.179372	0.164704	0.268675
H300	H	0.320628	0.664704	0.768675
H301	H	0.177140	0.297432	0.135454
H302	H	0.677140	0.797432	0.635454
Cl303	Cl	0.555524	0.699043	0.309968
Cl304	Cl	1.055524	1.199043	0.809968
Cl305	Cl	0.555514	0.310146	0.699203
Cl306	Cl	1.055514	0.810146	1.199203
Cl307	Cl	0.584255	0.281485	0.483409
Cl308	Cl	1.084255	0.781485	0.983409
Cl309	Cl	0.026082	0.123276	0.310209
Cl310	Cl	0.526082	0.623276	0.810209
Cl311	Cl	0.714056	0.151862	0.377535
Cl312	Cl	1.214056	0.651862	0.877535
Cl313	Cl	0.714133	0.949695	0.151678
Cl314	Cl	1.214133	1.449695	0.651678
Cl315	Cl	0.714163	1.055596	0.151695
Cl316	Cl	1.214163	1.555596	0.651695
H317	H	0.701220	0.387692	0.164340
H318	H	1.201220	0.887692	0.664340
H319	H	0.730046	0.603506	0.135660
H320	H	1.230046	1.103506	0.635660
Cl321	Cl	0.714062	0.151825	0.483421
Cl322	Cl	1.214062	0.651825	0.983421
H323	H	0.701393	0.164432	1.045439
H324	H	1.201393	0.664432	1.545439
Cl325	Cl	0.742854	0.839759	0.122978
Cl326	Cl	1.242854	1.339759	0.622978
Cl327	Cl	0.584365	1.055622	0.281275
Cl328	Cl	1.084365	1.555622	0.781275
H329	H	-0.179424	0.268804	0.164238
H330	H	0.320576	0.768804	0.664238
H331	H	0.568233	0.297436	0.603710
H332	H	1.068233	0.797436	1.103710
Cl333	Cl	0.555563	0.839800	0.309969
Cl334	Cl	1.055563	1.339800	0.809969
H335	H	0.730093	0.744253	0.135676
H336	H	1.230093	1.244253	0.635676
Cl337	Cl	0.584327	0.281365	1.055796
Cl338	Cl	1.084327	0.781365	1.555796
H339	H	0.568265	0.297416	0.744469
H340	H	1.068265	0.797416	1.244469
H341	H	0.730097	0.135805	0.603751
H342	H	1.230097	0.635805	1.103751
H343	H	0.177210	0.135955	0.297454
H344	H	0.677210	0.635955	0.797454
H345	H	-0.094264	0.164691	0.268682
H346	H	0.405736	0.664691	0.768682
H347	H	0.730104	0.135783	0.688855
H348	H	1.230104	0.635783	1.188855
Cl349	Cl	0.555528	0.733918	0.309955
Cl350	Cl	1.055528	1.233918	0.809955
H351	H	0.568274	0.297398	0.829574
H352	H	1.068274	0.797398	1.329574
H353	H	0.262245	0.297416	0.135449
H354	H	0.762245	0.797416	0.635449
H355	H	0.596925	0.472841	0.268513
H356	H	1.096925	0.972841	0.768513
Cl357	Cl	0.272725	0.123237	0.310195
Cl358	Cl	0.772725	0.623237	0.810195
H359	H	0.478145	0.164583	0.268651
H360	H	0.978145	0.664583	0.768651
Cl361	Cl	0.713995	0.483185	0.151638
Cl362	Cl	1.213995	0.983185	0.651638
H363	H	0.568229	0.603544	0.297240
H364	H	1.068229	1.103544	0.797240
H365	H	0.701388	0.164449	0.960317
H366	H	1.201388	0.664449	1.460317
Cl367	Cl	0.584163	0.377331	0.281213
Cl368	Cl	1.084163	0.877331	0.781213
H369	H	0.121569	0.135965	0.297456
H370	H	0.621569	0.635965	0.797456
Cl371	Cl	0.382640	0.151890	0.281405
Cl372	Cl	0.882640	0.651890	0.781405
H373	H	0.730076	0.688612	0.135670
H374	H	1.230076	1.188612	0.635670
H375	H	0.597044	0.268660	0.960302
H376	H	1.097044	0.768660	1.460302
H377	H	0.478088	0.268679	0.164208
H378	H	0.978088	0.768679	0.664208
H379	H	0.597076	0.960121	0.268559
H380	H	1.097076	1.460121	0.768559
Cl381	Cl	0.584245	0.281505	0.377505
Cl382	Cl	1.084245	0.781505	0.877505
H383	H	0.730110	0.135771	0.744497
H384	H	1.230110	0.635771	1.244497
Cl385	Cl	0.742851	0.123033	0.840009
Cl386	Cl	1.242851	0.623033	1.340009
Cl387	Cl	0.131871	0.310152	0.122701
Cl388	Cl	0.631871	0.810152	0.622701
Cl389	Cl	0.025986	0.310181	0.122721
Cl390	Cl	0.525986	0.810181	0.622721
Cl391	Cl	0.382587	0.281407	0.151464
Cl392	Cl	0.882587	0.781407	0.651464
H393	H	-0.094300	0.268791	0.164232
H394	H	0.405700	0.768791	0.664232
