data_functionalizedCrystal
_audit_creation_method	'MofGen! by Chris Wilmer'
_symmetry_space_group_name_H-M	'P1'
_symmetry_Int_Tables_number	1
_symmetry_cell_setting	triclinic
loop_
_symmetry_equiv_pos_as_xyz
  x,y,z
_cell_length_a	11.026607
_cell_length_b	15.944551
_cell_length_c	9.482900
_cell_angle_alpha	99.334197
_cell_angle_beta	78.636152
_cell_angle_gamma	96.042377
loop_
_atom_site_label
_atom_site_type_symbol
_atom_site_fract_x
_atom_site_fract_y
_atom_site_fract_z
O1	O	1.629108	0.341447	-0.120915
O2	O	2.129108	0.841447	0.379085
O3	O	1.275798	0.301394	-0.120914
O4	O	1.775798	0.801394	0.379086
O5	O	1.462099	0.200605	-0.120901
O6	O	1.962099	0.700605	0.379099
O7	O	1.442807	0.442235	-0.120927
O8	O	1.942807	0.942235	0.379073
O9	O	1.424257	0.221183	0.120889
O10	O	1.924257	0.721183	0.620889
O11	O	1.237956	0.321972	0.120876
O12	O	1.737956	0.821972	0.620876
O13	O	1.591266	0.362024	0.120875
O14	O	2.091266	0.862024	0.620875
Cu15	Cu	1.411156	0.343877	0.142953
Cu16	Cu	1.911156	0.843877	0.642953
Cu17	Cu	1.455908	0.319541	-0.142992
Cu18	Cu	1.955908	0.819541	0.357008
O19	O	1.404965	0.462813	0.120862
O20	O	1.904965	0.962813	0.620862
C21	C	1.211666	0.304294	-0.000019
C22	C	1.711666	0.804294	0.499981
C23	C	1.076950	0.282267	-0.000019
C24	C	1.576950	0.782267	0.499981
C25	C	1.442377	0.179479	-0.000006
C26	C	1.942377	0.679479	0.499994
C27	C	1.439975	0.085870	-0.000005
C28	C	1.939975	0.585870	0.499995
C29	C	1.003151	0.343086	-0.000026
C30	C	1.503151	0.843086	0.499974
C31	C	0.863914	0.320322	-0.000026
C32	C	1.363914	0.820322	0.499974
C33	C	1.318759	-0.147313	-0.000025
C34	C	1.818759	0.352687	0.499975
C35	C	1.356391	-0.189675	0.119192
C36	C	1.856391	0.310325	0.619192
C37	C	1.435632	-0.085514	-0.000016
C38	C	1.935632	0.414486	0.499984
C39	C	1.393728	-0.209942	-0.119194
C40	C	1.893728	0.290058	0.380806
C41	C	1.431430	-0.251064	-0.000034
C42	C	1.931430	0.248936	0.499966
C43	C	1.473281	-0.126634	0.119299
C44	C	1.973281	0.373366	0.619299
C45	C	1.510618	-0.146907	-0.119194
C46	C	2.010618	0.353093	0.380806
C47	C	1.548331	-0.189236	0.000052
C48	C	2.048331	0.310764	0.500052
C49	C	1.438050	0.009855	-0.000005
C50	C	1.938050	0.509855	0.499995
C51	C	1.429020	-0.346429	-0.000034
C52	C	1.929020	0.153571	0.499966
C53	C	1.655399	0.359124	-0.000023
C54	C	2.155399	0.859124	0.499977
C55	C	1.790116	0.381150	-0.000033
C56	C	2.290116	0.881150	0.499967
C57	C	1.424688	0.483939	-0.000036
C58	C	1.924688	0.983939	0.499964
C59	C	1.427091	0.577547	-0.000046
C60	C	1.927091	1.077547	0.499954
N61	N	1.379688	0.360994	0.344071
N62	N	1.879688	0.860994	0.844071
N63	N	1.487386	0.302419	-0.344110
N64	N	1.987386	0.802419	0.155890
C65	C	1.446618	0.324584	0.416275
C66	C	1.946618	0.824584	0.916275
C67	C	1.420446	0.338834	0.583690
C68	C	1.920446	0.838834	1.083690
H69	H	1.043047	0.412009	-0.000025
H70	H	1.543047	0.912009	0.499975
H71	H	1.221729	-0.128660	0.000094
H72	H	1.721729	0.371340	0.500094
H73	H	0.824028	0.251392	-0.000055
H74	H	1.324028	0.751392	0.499945
N75	N	1.324232	0.391170	0.661584
N76	N	1.824232	0.891170	1.161584
N77	N	1.214655	0.371797	0.644720
N78	N	1.714655	0.871797	1.144720
H79	H	1.146703	0.408758	0.699732
H80	H	1.646703	0.908758	1.199732
H81	H	1.575784	-0.127888	-0.219988
H82	H	2.075784	0.372112	0.280012
H83	H	0.830006	0.450078	-0.000031
H84	H	1.330006	0.950078	0.499969
H85	H	1.360054	-0.246072	-0.219990
H86	H	1.860054	0.253928	0.280010
N87	N	1.542798	0.272239	0.338331
N88	N	2.042798	0.772239	0.838331
N89	N	1.563919	0.260735	0.202444
N90	N	2.063919	0.760735	0.702444
H91	H	1.631848	0.223764	0.147396
H92	H	2.131848	0.723764	0.647396
H93	H	1.564064	0.260692	0.593771
H94	H	2.064064	0.760692	1.093771
N95	N	1.283489	0.413323	0.422015
N96	N	1.783489	0.913323	0.922015
N97	N	1.262360	0.424820	0.557902
N98	N	1.762360	0.924820	1.057902
H99	H	1.194416	0.461778	0.612950
H100	H	1.694416	0.961778	1.112950
N101	N	1.026908	0.195804	0.000023
N102	N	1.526908	0.695804	0.500023
N103	N	0.943513	0.176404	0.101954
N104	N	1.443513	0.676404	0.601954
H105	H	0.908173	0.115337	0.101988
H106	H	1.408173	0.615337	0.601988
H107	H	1.291183	-0.208678	0.219980
H108	H	1.791183	0.291322	0.719980
N109	N	1.515437	-0.081412	0.245868
N110	N	2.015437	0.418588	0.745868
N111	N	1.524037	-0.001737	0.266326
N112	N	2.024037	0.498263	0.766326
H113	H	1.553805	0.030204	0.355715
H114	H	2.053805	0.530204	0.855715
H115	H	1.645417	-0.207711	0.000119
H116	H	2.145417	0.292289	0.500119
