data_functionalizedCrystal
_audit_creation_method	'MofGen! by Chris Wilmer'
_symmetry_space_group_name_H-M	'P1'
_symmetry_Int_Tables_number	1
_symmetry_cell_setting	triclinic
loop_
_symmetry_equiv_pos_as_xyz
  x,y,z
_cell_length_a	10.489711
_cell_length_b	19.188930
_cell_length_c	9.565339
_cell_angle_alpha	90.012640
_cell_angle_beta	90.004493
_cell_angle_gamma	83.835895
loop_
_atom_site_label
_atom_site_type_symbol
_atom_site_fract_x
_atom_site_fract_y
_atom_site_fract_z
O1	O	1.691872	0.098407	0.116328
O2	O	1.320464	0.107674	0.116322
O3	O	1.516886	0.001456	0.116298
O4	O	1.495450	0.204625	0.116352
O5	O	1.516876	0.001447	-0.116222
O6	O	1.320454	0.107665	-0.116199
O7	O	1.691862	0.098397	-0.116192
Zn8	Zn	1.506156	0.103030	-0.153113
Zn9	Zn	1.506170	0.103042	0.153242
O10	O	1.495440	0.204616	-0.116168
C11	C	1.272942	0.106974	0.000060
C12	C	1.131358	0.104893	0.000056
C13	C	1.516187	-0.024564	0.000034
C14	C	1.514103	-0.102083	0.000022
C15	C	0.947543	0.168770	0.000090
C16	C	1.040407	0.136867	0.114723
C17	C	1.040370	0.136841	-0.114523
C18	C	0.971968	0.069248	0.114814
C19	C	0.971921	0.069231	-0.114536
C20	C	1.064759	0.037279	0.000126
C21	C	1.629357	-0.146241	0.000017
C22	C	1.627399	-0.219078	0.000039
C23	C	1.510181	-0.247753	0.000038
C24	C	1.394912	-0.203585	0.000051
C25	C	1.396873	-0.130750	0.000042
N26	N	1.420578	-0.356356	-0.079094
N27	N	1.418723	-0.425547	-0.079089
C28	C	1.504266	-0.467201	0.000066
N29	N	1.591753	-0.437051	0.079200
N30	N	1.593611	-0.367854	0.079188
C31	C	1.508042	-0.326730	0.000048
C32	C	1.617405	-0.590338	0.000088
C33	C	1.615442	-0.663176	0.000119
C34	C	1.382952	-0.647681	0.000116
C35	C	1.384918	-0.574845	0.000099
C36	C	1.502148	-0.546178	0.000079
C37	C	1.739384	0.099098	0.000072
C38	C	1.880968	0.101179	0.000085
C39	C	1.496139	0.230636	0.000099
C40	C	1.498223	0.308154	0.000120
N41	N	1.506157	0.103021	-0.362192
C42	C	1.596301	0.053512	-0.546539
C43	C	1.621726	0.116534	-0.453283
C44	C	1.480789	0.040004	-0.453379
C45	C	1.531661	0.166100	-0.546474
C46	C	1.390674	0.089528	-0.546578
C47	C	1.416050	0.152596	-0.453364
N48	N	1.506179	0.103045	0.362322
H49	H	0.896610	0.224325	0.000218
H50	H	1.709300	-0.699130	0.000123
H51	H	1.293034	0.078080	-0.587588
C52	C	1.313076	0.209225	-0.398426
H53	H	1.252491	0.187788	-0.343784
H54	H	1.352550	0.241734	-0.342469
H55	H	1.270643	0.233084	-0.475139
C56	C	1.270088	-0.082173	0.000034
H57	H	1.199994	-0.109680	0.000030
H58	H	1.266024	-0.053423	0.081110
H59	H	1.266021	-0.053454	-0.081070
H60	H	1.287510	-0.671027	0.000122
C61	C	0.930855	0.030624	-0.245481
H62	H	0.953993	0.054701	-0.326860
H63	H	0.972602	-0.015823	-0.246320
H64	H	0.840618	0.029193	-0.244066
C65	C	0.931234	0.030653	0.245891
H66	H	1.004811	0.015870	0.300559
H67	H	0.873281	0.061348	0.299492
H68	H	0.890494	-0.009079	0.218482
H69	H	1.459322	-0.013299	-0.412483
H70	H	1.115460	-0.018327	0.000169
C71	C	1.081424	0.175506	0.245661
H72	H	1.040882	0.222222	0.245537
H73	H	1.056856	0.151946	0.327069
H74	H	1.171842	0.176201	0.245135
H75	H	1.291065	-0.538890	0.000095
H76	H	1.070682	0.165448	-0.211438
C77	C	1.754179	-0.267664	0.000025
H78	H	1.736219	-0.315148	0.000039
H79	H	1.802252	-0.258921	-0.081066
H80	H	1.802274	-0.258903	0.081114
C81	C	1.758304	-0.114711	0.000019
H82	H	1.826666	-0.151446	0.000034
H83	H	1.763905	-0.086628	-0.081064
H84	H	1.763902	-0.086613	0.081116
H85	H	1.672575	0.011680	-0.587448
C86	C	1.265976	-0.235124	0.000044
H87	H	1.281314	-0.284827	0.000034
H88	H	1.218537	-0.219996	0.081128
H89	H	1.218535	-0.220014	-0.081052
C90	C	1.746349	-0.558801	0.000081
H91	H	1.814713	-0.595535	0.000102
H92	H	1.751946	-0.530723	-0.081010
H93	H	1.751948	-0.530697	0.081170
C94	C	1.753662	0.131971	-0.397910
H95	H	1.817611	0.096744	-0.429804
H96	H	1.772314	0.176406	-0.431153
H97	H	1.752462	0.132271	-0.298602
H98	H	1.553233	0.219416	-0.587197
