data_functionalizedCrystal
_audit_creation_method	'MofGen! by Chris Wilmer'
_symmetry_space_group_name_H-M	'P1'
_symmetry_Int_Tables_number	1
_symmetry_cell_setting	triclinic
loop_
_symmetry_equiv_pos_as_xyz
  x,y,z
_cell_length_a	13.032831
_cell_length_b	21.295417
_cell_length_c	21.295411
_cell_angle_alpha	89.978356
_cell_angle_beta	82.805709
_cell_angle_gamma	82.834379
loop_
_atom_site_label
_atom_site_type_symbol
_atom_site_fract_x
_atom_site_fract_y
_atom_site_fract_z
Zn1	Zn	1.597617	-0.373109	-0.477900
Zn2	Zn	1.597455	-0.478348	-0.372613
Zn3	Zn	1.422846	-0.359717	-0.359300
Zn4	Zn	1.422795	-0.464947	-0.464508
O5	O	1.510179	-0.419030	-0.418580
O6	O	1.743834	-0.398283	-0.475109
O7	O	1.574247	-0.462615	-0.282754
O8	O	1.446119	-0.273410	-0.375066
O9	O	1.743715	-0.475601	-0.397755
O10	O	1.574523	-0.283250	-0.462200
O11	O	1.445962	-0.375457	-0.272973
O12	O	1.276601	-0.362462	-0.362080
O13	O	1.446032	-0.452761	-0.554378
O14	O	1.276564	-0.439775	-0.439376
O15	O	1.574473	-0.385288	-0.564216
O16	O	1.574197	-0.564653	-0.384770
O17	O	1.445875	-0.554808	-0.452285
C18	C	1.238665	-0.398212	-0.397831
C19	C	1.122510	-0.389321	-0.388969
C20	C	1.510042	-0.582572	-0.418535
C21	C	1.510079	-0.652542	-0.418544
C22	C	1.070733	-0.423671	-0.423205
C23	C	0.950681	-0.414482	-0.414047
C24	C	1.576955	-0.690519	-0.383435
C25	C	1.577004	-0.756266	-0.383452
C26	C	1.510158	-0.784031	-0.418572
C27	C	1.443277	-0.746046	-0.453688
C28	C	1.443237	-0.680301	-0.453675
N29	N	1.418740	-0.880292	-0.416384
N30	N	1.418781	-0.942747	-0.416394
C31	C	1.510275	-0.982115	-0.418617
N32	N	1.601729	-0.956669	-0.420817
N33	N	1.601687	-0.894208	-0.420804
C34	C	1.510194	-0.855319	-0.418591
C35	C	1.577210	-1.091382	-0.383525
C36	C	1.577261	-1.157129	-0.383548
C37	C	1.443524	-1.146907	-0.453779
C38	C	1.443483	-1.081162	-0.453761
C39	C	1.510324	-1.053403	-0.418630
C40	C	1.782753	-0.439931	-0.439411
C41	C	1.898908	-0.448837	-0.448288
C42	C	1.510265	-0.419024	-0.582777
C43	C	1.510302	-0.419021	-0.652748
C44	C	1.510345	-0.254853	-0.418642
C45	C	1.510415	-0.184890	-0.418668
C46	C	1.577179	-0.383886	-0.690739
C47	C	1.577177	-0.383858	-0.756481
C48	C	1.510310	-0.418978	-0.784231
C49	C	1.443421	-0.454115	-0.746232
C50	C	1.443417	-0.454137	-0.680490
N51	N	1.502248	-0.473428	-0.886831
N52	N	1.502258	-0.473406	-0.949283
C53	C	1.510317	-0.418915	-0.982307
N54	N	1.518386	-0.364446	-0.950520
N55	N	1.518382	-0.364469	-0.888063
C56	C	1.510307	-0.418959	-0.855517
C57	C	1.577195	-0.383747	-1.091583
C58	C	1.577187	-0.383718	-1.157326
C59	C	1.443436	-0.453981	-1.147076
C60	C	1.443439	-0.454004	-1.081334
C61	C	1.510324	-0.418888	-1.053592
C62	C	1.510152	-0.418996	-0.255027
C63	C	1.510318	-0.418837	-0.185072
H64	H	1.115284	-0.459880	-0.459299
Cl65	Cl	1.661000	-0.655627	-0.339281
H66	H	1.631641	-0.355291	-0.668155
Cl67	Cl	1.661236	-0.339670	-0.804248
Cl68	Cl	1.359155	-0.632556	-0.497815
H69	H	0.943453	-0.485047	-0.484386
H70	H	1.077959	-0.353107	-0.352880
Cl71	Cl	1.661082	-0.804017	-0.339310
Cl72	Cl	1.661350	-1.204874	-0.339411
H73	H	1.631640	-1.068780	-0.354922
Cl74	Cl	1.359246	-0.780950	-0.497842
Cl75	Cl	1.359356	-0.498264	-0.781117
H76	H	1.389101	-1.169514	-0.482377
Cl77	Cl	1.359399	-1.033416	-0.497898
H78	H	1.388953	-0.482747	-0.649558
H79	H	1.631652	-0.355149	-1.068994
H80	H	1.631644	-0.355102	-1.188257
Cl81	Cl	1.359364	-0.498126	-1.181955
H82	H	0.906135	-0.378266	-0.377956
Cl83	Cl	1.359365	-0.498180	-1.033572
