data_functionalizedCrystal
_audit_creation_method	'MofGen! by Chris Wilmer'
_symmetry_space_group_name_H-M	'P1'
_symmetry_Int_Tables_number	1
_symmetry_cell_setting	triclinic
loop_
_symmetry_equiv_pos_as_xyz
  x,y,z
_cell_length_a	14.853569
_cell_length_b	14.853559
_cell_length_c	17.766277
_cell_angle_alpha	89.995835
_cell_angle_beta	89.992614
_cell_angle_gamma	83.633509
loop_
_atom_site_label
_atom_site_type_symbol
_atom_site_fract_x
_atom_site_fract_y
_atom_site_fract_z
O1	O	1.196366	0.117713	-0.062556
O2	O	0.933907	0.131733	-0.062565
O3	O	1.072151	-0.006508	-0.062559
O4	O	1.058122	0.255953	-0.062561
O5	O	1.072127	-0.006515	0.062629
O6	O	0.933882	0.131726	0.062624
O7	O	1.196342	0.117706	0.062633
Cu8	Cu	1.065110	0.124715	0.074059
Cu9	Cu	1.065139	0.124723	-0.073991
O10	O	1.058098	0.255946	0.062627
C11	C	0.900306	0.131094	0.000028
C12	C	0.800222	0.129189	0.000025
C13	C	0.763848	0.046178	0.000023
C14	C	0.742554	0.210411	0.000030
C15	C	0.648520	0.208625	0.000031
C16	C	0.612146	0.125614	0.000029
C17	C	0.669806	0.044389	0.000026
C18	C	0.590853	0.289848	0.000042
C19	C	0.496812	0.288065	0.000043
C20	C	0.460437	0.205053	0.000036
C21	C	0.518103	0.123825	0.000032
C22	C	0.481729	0.040813	0.000030
C23	C	0.539394	-0.040416	0.000021
C24	C	0.633430	-0.038623	0.000019
C25	C	0.366401	0.203260	0.000038
C26	C	0.387687	0.039024	0.000033
C27	C	1.071505	-0.040100	0.000034
C28	C	1.069604	-0.140184	0.000029
C29	C	1.061554	-0.563355	-0.068211
C30	C	1.061527	-0.563358	0.068274
C31	C	1.063320	-0.469324	0.068275
C32	C	1.064229	-0.422302	0.000031
C33	C	1.063344	-0.469313	-0.068213
C34	C	1.064196	-0.422305	0.136518
C35	C	1.065988	-0.328266	0.136521
C36	C	1.066904	-0.281243	0.068277
C37	C	1.066020	-0.328260	0.000030
C38	C	1.066929	-0.281237	-0.068213
C39	C	1.066051	-0.328253	-0.136461
C40	C	1.064260	-0.422290	-0.136457
C41	C	1.068695	-0.187206	0.068273
C42	C	1.068719	-0.187195	-0.068215
C43	C	1.229943	0.118345	0.000038
C44	C	1.330027	0.120249	0.000036
C45	C	1.058744	0.289538	0.000033
C46	C	1.060645	0.389622	0.000032
N47	N	1.065096	0.124708	0.178189
N48	N	1.065160	0.124723	-0.178121
C49	C	1.126331	0.063526	0.217579
C50	C	1.126336	0.063522	0.296380
C51	C	1.065115	0.124716	0.335790
C52	C	1.003869	0.185903	0.296391
C53	C	1.003860	0.185899	0.217591
C54	C	1.053403	0.206808	0.460627
C55	C	1.053419	0.206813	0.539426
C56	C	1.065140	0.124727	0.578836
C57	C	1.076863	0.042632	0.539438
C58	C	1.076854	0.042629	0.460638
C59	C	1.065119	0.124726	0.421236
C60	C	1.126383	0.063534	0.703671
C61	C	1.126382	0.063529	0.782475
C62	C	1.003919	0.185918	0.782484
C63	C	1.003916	0.185916	0.703682
C64	C	1.065153	0.124725	0.664281
H65	H	0.680389	-0.104755	0.000013
H66	H	1.069389	-0.148928	0.123839
H67	H	1.069464	-0.148916	-0.123788
O68	O	1.060601	-0.614061	-0.141817
H69	H	0.999553	-0.588044	-0.174541
O70	O	0.826040	-0.041428	0.000014
H71	H	0.784945	-0.099448	0.000008
O72	O	0.781779	0.299943	0.000035
H73	H	0.856856	0.287541	0.000029
H74	H	1.176202	0.013697	0.328457
O75	O	1.067024	-0.277534	-0.210067
H76	H	1.129237	-0.242650	-0.213331
H77	H	0.319454	0.269396	0.000052
O78	O	0.630082	0.379377	0.000051
H79	H	0.672413	0.384133	-0.050980
H80	H	0.449869	0.354207	0.000050
H81	H	1.043844	0.273657	0.428545
H82	H	0.358079	-0.028574	0.000028
H83	H	1.063544	-0.460578	-0.192020
H84	H	1.086397	-0.024215	0.428563
H85	H	0.954057	0.235740	0.671609
H86	H	1.066706	-0.289994	0.192092
H87	H	1.060781	-0.601648	0.123835
H88	H	0.954069	0.235740	0.814570
H89	H	1.043879	0.273659	0.571498
H90	H	1.063451	-0.460597	0.192078
O91	O	1.192364	-0.002481	0.175079
H92	H	1.234939	-0.045033	0.215713
H93	H	1.176244	0.013702	0.814546
O94	O	1.089498	-0.045914	0.581930
H95	H	1.087523	-0.032125	0.643344
O96	O	1.192415	-0.002471	0.661165
H97	H	1.234987	-0.045029	0.701797
O98	O	0.937844	0.251919	0.338887
H99	H	0.893990	0.213900	0.374810
O100	O	0.500160	-0.129950	0.000022
H101	H	0.425083	-0.117540	0.000025
O102	O	0.937819	0.251898	0.175099
H103	H	0.895250	0.294455	0.215738
