data_functionalizedCrystal
_audit_creation_method	'MofGen! by Chris Wilmer'
_symmetry_space_group_name_H-M	'P1'
_symmetry_Int_Tables_number	1
_symmetry_cell_setting	triclinic
loop_
_symmetry_equiv_pos_as_xyz
  x,y,z
_cell_length_a	18.426585
_cell_length_b	14.809374
_cell_length_c	14.809374
_cell_angle_alpha	60.797835
_cell_angle_beta	89.999492
_cell_angle_gamma	67.427171
loop_
_atom_site_label
_atom_site_type_symbol
_atom_site_fract_x
_atom_site_fract_y
_atom_site_fract_z
Zr1	Zr	0.801597	0.955238	-0.203700
O2	O	0.712699	1.113155	-0.350856
O3	O	0.816264	0.777472	-0.145624
O4	O	0.845949	0.926621	-0.332165
O5	O	0.673914	0.993501	-0.031917
O6	O	0.965376	0.926626	-0.332169
O7	O	0.683014	0.964006	-0.164315
O8	O	0.912274	0.659826	0.001519
O9	O	0.727016	1.260301	-0.365605
O10	O	0.926851	0.857945	-0.136522
O11	O	0.830933	0.879953	-0.037712
O12	O	0.865884	1.055557	-0.257339
O13	O	0.769966	1.077565	-0.158529
Zr14	Zr	0.977556	1.002288	0.007454
Zr15	Zr	0.992069	0.955247	-0.203706
Zr16	Zr	0.787084	1.002280	0.007460
Zr17	Zr	0.824431	1.189920	-0.227222
Zr18	Zr	0.954723	0.767606	0.030976
O19	O	0.962890	1.180054	-0.050623
O20	O	0.983526	1.113167	-0.350865
O21	O	0.692063	1.180042	-0.050614
O22	O	1.066454	0.844371	0.154610
O23	O	1.087090	0.777484	-0.145633
O24	O	0.795628	0.844359	0.154619
O25	O	1.105240	0.964025	-0.164329
O26	O	0.933204	1.030905	0.135918
O27	O	0.813777	1.030900	0.135922
O28	O	1.096140	0.993520	-0.031931
O29	O	0.878415	1.260308	-0.365610
O30	O	0.900738	0.697218	0.169363
O31	O	1.052138	0.697225	0.169358
O32	O	1.063674	0.659833	0.001514
O33	O	0.715480	1.297693	-0.197760
O34	O	0.866879	1.297700	-0.197766
O35	O	0.913269	0.901969	0.061093
O36	O	1.009187	0.879961	-0.037717
O37	O	0.948220	1.077573	-0.158535
O38	O	0.852302	1.099581	-0.059725
C39	C	0.861016	0.685212	-0.068701
C40	C	0.851322	0.585583	-0.058715
C41	C	0.894582	0.530248	-0.103280
C42	C	0.884565	0.427277	-0.092960
C43	C	0.651325	0.978752	-0.098115
C44	C	0.570465	0.978748	-0.098113
C45	C	0.274355	0.978783	-0.098134
C46	C	0.356741	0.978778	-0.098131
C47	C	0.422408	0.978766	-0.098124
C48	C	0.504798	0.978761	-0.098120
C49	C	1.127828	0.978774	-0.098131
C50	C	1.208688	0.978778	-0.098134
C51	C	0.907731	0.919921	-0.362252
C52	C	0.913892	0.899951	-0.451895
C53	C	0.918138	1.272314	-0.127546
C54	C	0.927831	1.371943	-0.137531
C55	C	0.886395	0.989076	-0.551795
C56	C	0.892762	0.968438	-0.644447
C57	C	0.871423	1.037605	0.166006
C58	C	0.865262	1.057575	0.255649
C59	C	1.099267	0.685223	-0.068709
C60	C	1.170434	0.585598	-0.058726
C61	C	0.842862	0.744054	0.195428
C62	C	0.827007	0.664396	0.295057
C63	C	1.081113	0.744065	0.195420
C64	C	1.146119	0.664410	0.295046
C65	C	0.698040	1.213461	-0.391667
C66	C	0.633035	1.293116	-0.491293
C67	C	0.679886	1.272303	-0.127538
C68	C	0.608720	1.371928	-0.137521
C69	C	0.936292	1.213472	-0.391675
C70	C	0.952146	1.293131	-0.491303
C71	C	1.160877	0.527319	-0.105622
C72	C	1.227741	0.433719	-0.096263
C73	C	1.304160	0.398396	-0.040001
C74	C	1.313717	0.456684	0.006895
C75	C	1.246854	0.550287	-0.002471
C76	C	0.862539	0.638481	0.393427
C77	C	0.847640	0.563649	0.487046
C78	C	0.797212	0.514726	0.482292
C79	C	0.761676	0.540647	0.383911
C80	C	0.776571	0.615484	0.290294
C81	C	1.226722	0.615516	0.290254
C82	C	1.287811	0.540683	0.383853
C83	C	1.268294	0.514740	0.482245
C84	C	1.187683	0.563643	0.487035
C85	C	1.126596	0.638481	0.393436
C86	C	0.552432	1.342022	-0.486501
C87	C	0.491346	1.416883	-0.580104
C88	C	0.510864	1.442831	-0.678496
C89	C	0.591475	1.393922	-0.683285
C90	C	0.652560	1.319068	-0.589685
C91	C	0.618278	1.430215	-0.090635
C92	C	0.551418	1.523835	-0.100020
C93	C	0.474999	1.559162	-0.156284
C94	C	0.465442	1.500870	-0.203176
C95	C	0.532303	1.407256	-0.193797
C96	C	1.002578	1.342031	-0.486515
C97	C	1.017491	1.416868	-0.580118
C98	C	0.981966	1.442809	-0.678508
C99	C	0.931532	1.393899	-0.683293
C100	C	0.916625	1.319058	-0.589691
H101	H	0.972290	0.400792	-0.183323
H102	H	1.031509	1.320924	-0.406410
N103	N	1.391775	0.420574	0.064390
N104	N	1.403112	0.388577	0.160571
H105	H	1.458241	0.363066	0.201185
H106	H	0.806871	0.556723	-0.012919
N107	N	0.387375	1.536980	-0.260647
N108	N	0.327691	1.620562	-0.269001
H109	H	0.272553	1.646066	-0.309585
H110	H	0.559215	1.571283	-0.061829
N111	N	1.246684	0.641987	0.189766
N112	N	1.318661	0.598315	0.185521
H113	H	1.332766	0.617007	0.114555
H114	H	0.858144	1.080658	-0.568729
H115	H	0.461117	1.503784	-0.754704
N116	N	0.829793	1.172475	-0.765613
N117	N	0.758240	1.239468	-0.817187
H118	H	0.733188	1.320615	-0.832201
N119	N	0.522513	1.347719	-0.241680
N120	N	0.476277	1.300382	-0.214563
H121	H	0.469356	1.258337	-0.248384
H122	H	0.994111	1.503752	-0.754716
N123	N	0.895257	1.420413	-0.783808
N124	N	0.908577	1.487243	-0.867365
H125	H	0.882955	1.505975	-0.938358
H126	H	0.425714	1.456694	-0.576184
N127	N	1.044254	0.688393	0.398325
N128	N	0.989709	0.755192	0.314759
H129	H	0.931554	0.790434	0.318218
H130	H	1.358597	0.322175	-0.032382
H131	H	0.921022	0.876849	-0.627505
H132	H	0.718189	1.279247	-0.593598
H133	H	0.875556	1.279250	-0.593605
H134	H	0.680496	1.401462	-0.044812
H135	H	0.939039	0.559101	-0.149069
N136	N	1.330707	0.438293	0.577840
N137	N	1.402671	0.394647	0.573534
H138	H	1.446754	0.340652	0.641045
H139	H	0.942149	0.808368	-0.434961
N140	N	0.828808	0.391060	-0.035495
N141	N	0.820755	0.307457	-0.027184
H142	H	0.781380	0.281874	0.013403
H143	H	1.098660	0.556075	-0.151448
N144	N	1.217955	0.374203	-0.144176
N145	N	1.149714	0.405753	-0.194393
H146	H	1.142799	0.363723	-0.228232
N147	N	1.167767	0.537120	0.587553
N148	N	1.222323	0.470289	0.671108
H149	H	1.208259	0.451546	0.742103
N150	N	0.740294	0.641918	0.189817
N151	N	0.783799	0.618405	0.132370
H152	H	0.758177	0.637068	0.061409
H153	H	0.420564	1.635389	-0.163913
H154	H	1.353444	0.500872	0.379935
H155	H	1.254646	0.597729	0.035725
N156	N	1.069010	1.466808	-0.575195
N157	N	1.100713	1.443641	-0.487337
H158	H	1.137099	1.478908	-0.483857
H159	H	0.903601	0.678309	0.397318
N160	N	0.611390	1.420450	-0.783804
N161	N	0.556835	1.487283	-0.867359
H162	H	0.570898	1.506018	-0.938354
N163	N	0.532498	1.315511	-0.385995
N164	N	0.549301	1.213627	-0.315968
H165	H	0.535218	1.194910	-0.244986
N166	N	0.883964	0.537176	0.587522
N167	N	0.959187	0.490542	0.617863
H168	H	0.984843	0.471846	0.688822
N169	N	0.782007	0.438287	0.577935
N170	N	0.813744	0.415164	0.665756
H171	H	0.803010	0.361178	0.733308
H172	H	0.720616	0.500803	0.380056
