data_functionalizedCrystal
_audit_creation_method	'MofGen! by Chris Wilmer'
_symmetry_space_group_name_H-M	'P1'
_symmetry_Int_Tables_number	1
_symmetry_cell_setting	triclinic
loop_
_symmetry_equiv_pos_as_xyz
  x,y,z
_cell_length_a	10.686220
_cell_length_b	16.120444
_cell_length_c	10.686551
_cell_angle_alpha	91.291368
_cell_angle_beta	89.691918
_cell_angle_gamma	97.071939
loop_
_atom_site_label
_atom_site_type_symbol
_atom_site_fract_x
_atom_site_fract_y
_atom_site_fract_z
Zn1	Zn	1.957915	-0.203138	0.579050
Zn2	Zn	2.457915	0.296862	1.079050
Zn3	Zn	1.931016	-0.353950	0.381663
Zn4	Zn	2.431016	0.146050	0.881663
Zn5	Zn	1.730526	-0.224453	0.387116
Zn6	Zn	2.230526	0.275547	0.887116
Zn7	Zn	1.737566	-0.352261	0.607302
Zn8	Zn	2.237566	0.147739	1.107302
O9	O	1.839256	-0.283450	0.488783
O10	O	2.339256	0.216550	0.988783
O11	O	2.130470	-0.214930	0.538760
O12	O	2.630470	0.285070	1.038760
O13	O	1.890217	-0.346399	0.207630
O14	O	2.390217	0.153601	0.707630
O15	O	1.769001	-0.105022	0.403035
O16	O	2.269001	0.394978	0.903035
O17	O	2.110707	-0.325731	0.393741
O18	O	2.610707	0.174269	0.893741
O19	O	1.936063	-0.089362	0.544048
O20	O	2.436063	0.410638	1.044048
O21	O	1.742918	-0.251258	0.211637
O22	O	2.242918	0.248742	0.711637
O23	O	1.555337	-0.249620	0.430430
O24	O	2.055337	0.250380	0.930430
O25	O	1.780999	-0.322853	0.778310
O26	O	2.280999	0.177147	1.278310
O27	O	1.560509	-0.343521	0.592199
O28	O	2.060509	0.156479	1.092199
O29	O	1.942889	-0.213292	0.757553
O30	O	2.442889	0.286708	1.257553
O31	O	1.897043	-0.470329	0.421136
O32	O	2.397043	0.029671	0.921136
O33	O	1.754916	-0.469089	0.586912
O34	O	2.254916	0.030911	1.086912
C35	C	1.512256	-0.298701	0.514973
C36	C	2.012256	0.201299	1.014973
C37	C	1.372365	-0.305243	0.526208
C38	C	1.872365	0.194757	1.026208
C39	C	1.823861	-0.499940	0.506522
C40	C	2.323861	0.000060	1.006522
C41	C	1.817394	-0.592548	0.514144
C42	C	2.317394	-0.092548	1.014144
C43	C	1.873136	-0.803942	0.449489
C44	C	2.373136	-0.303942	0.949489
C45	C	1.805610	-0.762096	0.528070
C46	C	2.305610	-0.262096	1.028070
C47	C	1.812169	-0.667750	0.520319
C48	C	2.312169	-0.167750	1.020319
C49	C	1.866579	-0.898296	0.457238
C50	C	2.366579	-0.398296	0.957238
C51	C	2.167532	-0.268141	0.462491
C52	C	2.667532	0.231859	0.962491
C53	C	2.307424	-0.261617	0.451287
C54	C	2.807424	0.238383	0.951287
C55	C	1.865730	-0.265507	0.814511
C56	C	2.365730	0.234493	1.314511
C57	C	1.877012	-0.257860	0.953317
C58	C	2.377012	0.242140	1.453317
C59	C	1.854747	-0.066112	0.470998
C60	C	2.354747	0.433888	0.970998
C61	C	1.861349	0.026504	0.463420
C62	C	2.361349	0.526504	0.963420
C63	C	1.812961	-0.301261	0.164311
C64	C	2.312961	0.198739	0.664311
C65	C	1.801940	-0.308661	0.025467
C66	C	2.301940	0.191339	0.525467
H67	H	1.358846	-0.219262	0.378547
H68	H	1.858846	0.280738	0.878547
H69	H	1.320936	-0.347607	0.598946
H70	H	1.820936	0.152393	1.098946
F71	F	1.723606	-0.807879	0.623611
F72	F	2.223606	-0.307879	1.123611
H73	H	1.935866	-0.768917	0.376397
H74	H	2.435866	-0.268917	0.876397
H75	H	1.949925	-0.208517	0.997743
H76	H	2.449925	0.291483	1.497743
H77	H	1.729040	-0.358006	0.981047
H78	H	2.229040	0.141994	1.481047
