data_functionalizedCrystal
_audit_creation_method	'MofGen! by Chris Wilmer'
_symmetry_space_group_name_H-M	'P1'
_symmetry_Int_Tables_number	1
_symmetry_cell_setting	triclinic
loop_
_symmetry_equiv_pos_as_xyz
  x,y,z
_cell_length_a	25.639242
_cell_length_b	25.639239
_cell_length_c	19.121175
_cell_angle_alpha	92.412705
_cell_angle_beta	87.534810
_cell_angle_gamma	90.033587
loop_
_atom_site_label
_atom_site_type_symbol
_atom_site_fract_x
_atom_site_fract_y
_atom_site_fract_z
Zn1	Zn	0.811850	-0.220847	-0.397264
Zn2	Zn	1.311850	0.279153	0.102736
Zn3	Zn	0.808041	-0.304552	-0.279810
Zn4	Zn	1.308041	0.195448	0.220190
Zn5	Zn	0.720693	-0.217125	-0.279811
Zn6	Zn	1.220693	0.282875	0.220189
Zn7	Zn	0.724369	-0.308244	-0.397204
Zn8	Zn	1.224369	0.191756	0.102796
O9	O	0.766238	-0.262692	-0.338522
O10	O	1.266238	0.237308	0.161478
O11	O	0.884510	-0.231964	-0.381708
O12	O	1.384510	0.268036	0.118292
O13	O	0.793321	-0.289852	-0.181527
O14	O	1.293321	0.210148	0.318473
O15	O	0.732841	-0.144454	-0.295417
O16	O	1.232841	0.355546	0.204583
O17	O	0.881712	-0.293461	-0.295416
O18	O	1.381712	0.206539	0.204584
O19	O	0.799813	-0.147189	-0.381709
O20	O	1.299813	0.352811	0.118291
O21	O	0.729148	-0.225619	-0.181527
O22	O	1.229148	0.274381	0.318473
O23	O	0.648015	-0.229199	-0.295359
O24	O	1.148015	0.270801	0.204641
O25	O	0.739106	-0.299753	-0.495496
O26	O	1.239106	0.200247	0.004504
O27	O	0.650716	-0.296144	-0.381607
O28	O	1.150716	0.203856	0.118393
O29	O	0.803378	-0.235543	-0.495540
O30	O	1.303378	0.264457	0.004460
O31	O	0.796886	-0.378206	-0.295357
O32	O	1.296886	0.121794	0.204643
O33	O	0.735412	-0.380918	-0.381606
O34	O	1.235412	0.119082	0.118394
C35	C	0.630394	-0.262668	-0.338477
C36	C	1.130394	0.237332	0.161523
C37	C	0.572280	-0.262671	-0.338474
C38	C	1.072280	0.237329	0.161526
C39	C	0.319676	-0.227780	-0.293691
C40	C	0.819676	0.272220	0.206309
C41	C	0.374280	-0.227775	-0.293682
C42	C	0.874280	0.272225	0.206318
O43	O	0.401315	-0.198078	-0.255566
O44	O	0.901315	0.301922	0.244434
N45	N	0.403007	-0.262679	-0.338509
N46	N	0.903007	0.237321	0.161491
C47	C	0.377128	-0.297586	-0.383353
C48	C	0.877128	0.202414	0.116647
O49	O	0.406577	-0.327274	-0.421482
O50	O	0.906577	0.172726	0.078518
C51	C	0.322525	-0.297589	-0.383365
C52	C	0.822525	0.202411	0.116635
C53	C	0.293800	-0.262686	-0.338530
C54	C	0.793800	0.237314	0.161470
C55	C	0.290951	-0.192880	-0.248860
C56	C	0.790951	0.307120	0.251140
C57	C	0.236350	-0.192886	-0.248868
C58	C	0.736350	0.307114	0.251132
C59	C	0.210475	-0.227792	-0.293707
C60	C	0.710475	0.272208	0.206293
C61	C	0.239200	-0.262692	-0.338538
C62	C	0.739200	0.237308	0.161462
C63	C	0.296647	-0.332493	-0.428212
C64	C	0.796647	0.167507	0.071788
C65	C	0.242041	-0.332492	-0.428221
C66	C	0.742041	0.167508	0.071779
C67	C	0.213316	-0.297590	-0.383386
C68	C	0.713316	0.202410	0.116614
C69	C	0.158724	-0.297604	-0.383385
C70	C	0.658724	0.202396	0.116615
N71	N	0.129997	-0.262700	-0.338558
N72	N	0.629997	0.237300	0.161442
C73	C	0.155872	-0.227794	-0.293719
C74	C	0.655872	0.272206	0.206281
C75	C	0.491798	-0.297579	-0.383326
C76	C	0.991798	0.202421	0.116674
C77	C	0.546400	-0.297579	-0.383311
C78	C	1.046400	0.202421	0.116689
C79	C	0.543548	-0.227767	-0.293640
C80	C	1.043548	0.272233	0.206360
C81	C	0.488945	-0.227769	-0.293652
C82	C	0.988945	0.272231	0.206348
C83	C	0.463070	-0.262675	-0.338498
C84	C	0.963070	0.237325	0.161502
C85	C	0.041208	-0.227810	-0.293739
C86	C	0.541208	0.272190	0.206261
C87	C	-0.013397	-0.227820	-0.293749
C88	C	0.486603	0.272180	0.206251
C89	C	-0.010540	-0.297630	-0.383422
C90	C	0.489460	0.202370	0.116578
C91	C	0.044060	-0.297622	-0.383410
C92	C	0.544060	0.202378	0.116590
C93	C	0.069933	-0.262707	-0.338566
C94	C	0.569933	0.237293	0.161434
O95	O	0.131653	-0.327285	-0.421484
O96	O	0.631653	0.172715	0.078516
O97	O	0.126417	-0.198107	-0.255603
O98	O	0.626417	0.301893	0.244397
C99	C	0.766149	-0.398533	-0.338490
C100	C	1.266149	0.101467	0.161510
C101	C	0.766160	-0.456648	-0.338500
C102	C	1.266160	0.043352	0.161500
C103	C	0.798337	-0.815589	-0.293689
C104	C	1.298337	-0.315589	0.206311
C105	C	0.798357	-0.870194	-0.293699
C106	C	1.298357	-0.370194	0.206301
O107	O	0.825623	-0.897220	-0.255564
O108	O	1.325623	-0.397220	0.244436
N109	N	0.766332	-0.898932	-0.338569
N110	N	1.266332	-0.398932	0.161431
C111	C	0.734287	-0.873064	-0.383438
C112	C	1.234287	-0.373064	0.116562
O113	O	0.707049	-0.902522	-0.421605
O114	O	1.207049	-0.402522	0.078395
C115	C	0.734269	-0.818460	-0.383431
C116	C	1.234269	-0.318460	0.116569
C117	C	0.766294	-0.789724	-0.338553
C118	C	1.266294	-0.289724	0.161447
C119	C	0.830359	-0.786853	-0.248816
C120	C	1.330359	-0.286853	0.251184
C121	C	0.830337	-0.732252	-0.248805
C122	C	1.330337	-0.232252	0.251195
C123	C	0.798294	-0.706387	-0.293669
C124	C	1.298294	-0.206387	0.206331
C125	C	0.766272	-0.735123	-0.338543
C126	C	1.266272	-0.235123	0.161457
C127	C	0.702228	-0.792593	-0.428303
C128	C	1.202228	-0.292593	0.071697
C129	C	0.702214	-0.737986	-0.428293
C130	C	1.202214	-0.237986	0.071707
C131	C	0.734238	-0.709249	-0.383415
C132	C	1.234238	-0.209249	0.116585
C133	C	0.734207	-0.654658	-0.383397
C134	C	1.234207	-0.154658	0.116603
N135	N	0.766233	-0.625919	-0.338527
N136	N	1.266233	-0.125919	0.161473
C137	C	0.798277	-0.651784	-0.293663
C138	C	1.298277	-0.151784	0.206337
C139	C	0.734327	-0.987735	-0.383449
C140	C	1.234327	-0.487735	0.116551
C141	C	0.734341	-1.042337	-0.383452
C142	C	1.234341	-0.542337	0.116548
C143	C	0.798412	-1.039463	-0.293714
C144	C	1.298412	-0.539463	0.206286
C145	C	0.798395	-0.984860	-0.293707
C146	C	1.298395	-0.484860	0.206293
C147	C	0.766353	-0.958996	-0.338578
C148	C	1.266353	-0.458996	0.161422
C149	C	0.798229	-0.537118	-0.293644
C150	C	1.298229	-0.037118	0.206356
C151	C	0.798203	-0.482513	-0.293636
C152	C	1.298203	0.017487	0.206364
C153	C	0.734134	-0.485391	-0.383377
C154	C	1.234134	0.014609	0.116623
C155	C	0.734158	-0.539992	-0.383383
C156	C	1.234158	-0.039992	0.116617
C157	C	0.766209	-0.565854	-0.338514
C158	C	1.266209	-0.065854	0.161486
O159	O	0.706957	-0.627596	-0.421514
O160	O	1.206957	-0.127596	0.078486
O161	O	0.825515	-0.622319	-0.255509
O162	O	1.325515	-0.122319	0.244491
C163	C	0.902613	-0.262716	-0.338569
C164	C	1.402613	0.237284	0.161431
C165	C	0.960727	-0.262726	-0.338588
C166	C	1.460727	0.237274	0.161412
C167	C	0.772077	-0.268475	-0.521714
C168	C	1.272077	0.231525	-0.021714
C169	C	0.774565	-0.270940	-0.599780
C170	C	1.274565	0.229060	-0.099780
C171	C	0.766342	-0.126320	-0.338570
C172	C	1.266342	0.373680	0.161430
C173	C	0.766387	-0.068207	-0.338590
C174	C	1.266387	0.431793	0.161410
C175	C	0.742323	-0.238656	-0.636455
C176	C	1.242323	0.261344	-0.136455
C177	C	0.744659	-0.240976	-0.709806
C178	C	1.244659	0.259024	-0.209806
C179	C	0.779239	-0.275577	-0.746480
C180	C	1.279239	0.224423	-0.246480
C181	C	0.811482	-0.307865	-0.709800
C182	C	1.311482	0.192135	-0.209800
C183	C	0.809143	-0.305547	-0.636450
C184	C	1.309143	0.194453	-0.136450
C185	C	0.787970	-0.284251	-0.967948
C186	C	1.287970	0.215749	-0.467948
C187	C	0.790307	-0.286565	-1.041303
C188	C	1.290307	0.213435	-0.541303
C189	C	0.723483	-0.219677	-1.041304
C190	C	1.223483	0.280323	-0.541304
C191	C	0.721150	-0.217360	-0.967953
C192	C	1.221150	0.282640	-0.467953
C193	C	0.753391	-0.249649	-0.931279
C194	C	1.253391	0.250351	-0.431279
C195	C	0.781629	-0.277949	-0.821457
C196	C	1.281629	0.222051	-0.321457
C197	C	0.750998	-0.247280	-0.856304
C198	C	1.250998	0.252720	-0.356304
C199	C	0.760452	-0.256893	-0.156043
C200	C	1.260452	0.243107	0.343957
C201	C	0.758066	-0.254281	-0.077978
C202	C	1.258066	0.245719	0.422022
H203	H	0.220977	-0.360915	-0.464743
H204	H	0.720977	0.139085	0.035257
N205	N	0.569977	-0.192100	-0.247842
N206	N	1.069977	0.307900	0.252158
N207	N	0.544328	-0.160935	-0.207819
N208	N	1.044328	0.339065	0.292181
H209	H	0.562994	-0.135746	-0.175476
H210	H	1.062994	0.364254	0.324524
N211	N	0.073407	-0.333282	-0.429191
N212	N	0.573407	0.166718	0.070809
N213	N	0.067136	-0.381372	-0.424413
N214	N	0.567136	0.118628	0.075587
H215	H	0.087860	-0.406556	-0.456749
H216	H	0.587860	0.093444	0.043251
N217	N	0.459597	-0.192121	-0.247859
N218	N	0.959597	0.307879	0.252141
N219	N	0.427675	-0.209049	-0.203065
N220	N	0.927675	0.290951	0.296935
H221	H	0.406949	-0.183871	-0.170722
H222	H	0.906949	0.316129	0.329278
N223	N	0.830956	-0.563531	-0.247799
N224	N	1.330956	-0.063531	0.252201
N225	N	0.811169	-0.592612	-0.203019
N226	N	1.311169	-0.092612	0.296981
H227	H	0.834279	-0.611266	-0.170637
H228	H	1.334279	-0.111266	0.329363
H229	H	0.818469	-0.314743	-1.071161
H230	H	1.318469	0.185257	-0.571161
N231	N	-0.036985	-0.333282	-0.429215
N232	N	0.463015	0.166718	0.070785
N233	N	-0.085738	-0.333276	-0.429213
N234	N	0.414262	0.166724	0.070787
H235	H	-0.104417	-0.358454	-0.461557
H236	H	0.395583	0.141546	0.038443
N237	N	0.701451	-0.569347	-0.429231
N238	N	1.201451	-0.069347	0.070769
N239	N	0.721262	-0.601192	-0.474024
N240	N	1.221262	-0.101192	0.025976
H241	H	0.698167	-0.621921	-0.506412
H242	H	1.198167	-0.121921	-0.006412
H243	H	0.824281	-0.459117	-0.257089
H244	H	1.324281	0.040883	0.242911
N245	N	0.669480	-0.711559	-0.474118
N246	N	1.169480	-0.211559	0.025882
N247	N	0.669461	-0.662806	-0.474106
N248	N	1.169461	-0.162806	0.025894
H249	H	0.646342	-0.644142	-0.506468
H250	H	1.146342	-0.144142	-0.006468
N251	N	0.711732	-0.208002	-0.747283
N252	N	1.211732	0.291998	-0.247283
N253	N	0.679705	-0.227681	-0.788198
N254	N	1.179705	0.272319	-0.288198
H255	H	0.656450	-0.204392	-0.814670
H256	H	1.156450	0.295608	-0.314670
N257	N	0.846806	-0.343201	-0.747275
N258	N	1.346806	0.156799	-0.247275
N259	N	0.881439	-0.326098	-0.788222
N260	N	1.381439	0.173902	-0.288222
H261	H	0.906389	-0.351052	-0.814691
H262	H	1.406389	0.148948	-0.314691
H263	H	0.697234	-0.193389	-1.071172
H264	H	1.197234	0.306611	-0.571172
H265	H	0.320026	-0.360915	-0.464722
H266	H	0.820026	0.139085	0.035278
H267	H	0.856416	-0.708858	-0.212264
H268	H	1.356416	-0.208858	0.287736
H269	H	0.835401	-0.331832	-0.606590
H270	H	1.335401	0.168168	-0.106590
H271	H	0.814217	-0.310549	-0.938097
H272	H	1.314217	0.189451	-0.438097
H273	H	0.722841	-0.219109	-0.826441
H274	H	1.222841	0.280891	-0.326441
N275	N	0.067629	-0.192155	-0.247919
N276	N	0.567629	0.307845	0.252081
N277	N	0.096644	-0.209081	-0.203108
N278	N	0.596644	0.290919	0.296892
H279	H	0.115303	-0.183902	-0.170744
H280	H	0.615303	0.316098	0.329256
N281	N	0.863091	-0.813258	-0.202972
N282	N	1.363091	-0.313258	0.297028
N283	N	0.857589	-0.805122	-0.138161
N284	N	1.357589	-0.305122	0.361839
H285	H	0.880706	-0.823767	-0.105776
H286	H	1.380706	-0.323767	0.394224
H287	H	0.708043	-0.464324	-0.419902
H288	H	1.208043	0.035676	0.080098
H289	H	0.714167	-0.210476	-0.606600
H290	H	1.214167	0.289524	-0.106600
N291	N	0.207003	-0.157236	-0.203078
N292	N	0.707003	0.342764	0.296922
N293	N	0.175082	-0.174159	-0.158280
N294	N	0.675082	0.325841	0.341720
H295	H	0.154356	-0.148979	-0.125941
H296	H	0.654356	0.351021	0.374059
N297	N	0.831108	-0.955517	-0.247860
N298	N	1.331108	-0.455517	0.252140
N299	N	0.859712	-0.978624	-0.207805
N300	N	1.359712	-0.478624	0.292195
H301	H	0.882818	-0.957903	-0.175423
H302	H	1.382818	-0.457903	0.324577
H303	H	0.809783	-0.306122	-0.851325
H304	H	1.309783	0.193878	-0.351325
N305	N	0.317368	-0.157216	-0.203052
N306	N	0.817368	0.342784	0.296948
N307	N	0.291704	-0.126060	-0.163034
N308	N	0.791704	0.373940	0.336966
H309	H	0.310357	-0.100871	-0.130676
H310	H	0.810357	0.399129	0.369324
H311	H	0.569783	-0.326006	-0.419812
H312	H	1.069783	0.173994	0.080188
H313	H	0.470735	-0.326007	-0.419844
H314	H	0.970735	0.173993	0.080156
N315	N	0.831149	-1.065880	-0.247880
N316	N	1.331149	-0.565880	0.252120
N317	N	0.825657	-1.057760	-0.183065
N318	N	1.325657	-0.557760	0.316935
H319	H	0.848775	-1.076417	-0.150696
H320	H	1.348775	-0.576417	0.349304
H321	H	0.692990	-0.189185	-0.938098
H322	H	1.192990	0.310815	-0.438098
H323	H	0.708230	-0.966679	-0.419986
H324	H	1.208230	-0.466679	0.080014
N325	N	-0.042731	-0.192166	-0.247941
N326	N	0.457269	0.307834	0.252059
N327	N	-0.019617	-0.161003	-0.207911
N328	N	0.480383	0.338997	0.292089
H329	H	-0.040331	-0.135822	-0.175560
H330	H	0.459669	0.364178	0.324440
N331	N	0.701617	-1.071679	-0.429287
N332	N	1.201617	-0.571679	0.070713
N333	N	0.673009	-1.048572	-0.469335
N334	N	1.173009	-0.548572	0.030665
H335	H	0.649897	-1.069292	-0.501710
H336	H	1.149897	-0.569292	-0.001710
H337	H	0.676148	-0.815981	-0.464844
H338	H	1.176148	-0.315981	0.035156
