data_functionalizedCrystal
_audit_creation_method	'MofGen! by Chris Wilmer'
_symmetry_space_group_name_H-M	'P1'
_symmetry_Int_Tables_number	1
_symmetry_cell_setting	triclinic
loop_
_symmetry_equiv_pos_as_xyz
  x,y,z
_cell_length_a	19.077269
_cell_length_b	19.077600
_cell_length_c	12.759393
_cell_angle_alpha	87.736498
_cell_angle_beta	92.276332
_cell_angle_gamma	94.645727
loop_
_atom_site_label
_atom_site_type_symbol
_atom_site_fract_x
_atom_site_fract_y
_atom_site_fract_z
Zn1	Zn	1.088900	0.323879	-0.548116
Zn2	Zn	1.093516	0.441769	-0.379217
Zn3	Zn	0.971013	0.319179	-0.379239
Zn4	Zn	0.975693	0.436985	-0.561633
O5	O	1.032280	0.380453	-0.467051
O6	O	1.188158	0.343487	-0.520045
O7	O	1.077238	0.425542	-0.232203
O8	O	0.982761	0.221162	-0.395993
O9	O	1.191549	0.430100	-0.395956
O10	O	1.069372	0.224616	-0.520066
O11	O	0.987236	0.335476	-0.232219
O12	O	0.872988	0.330836	-0.409100
O13	O	0.990737	0.421946	-0.706858
O14	O	0.876426	0.417388	-0.543104
O15	O	1.073910	0.338848	-0.696927
O16	O	1.081776	0.539774	-0.409063
O17	O	0.995212	0.536259	-0.543083
C18	C	1.039522	0.563594	-0.477560
C19	C	1.042685	0.641945	-0.482086
C20	C	0.849129	0.373084	-0.477572
C21	C	0.770777	0.369948	-0.482098
C22	C	1.032330	0.380387	-0.741078
C23	C	1.032352	0.380359	-0.857852
C24	C	0.735727	0.413497	-0.419514
C25	C	0.662107	0.410550	-0.423781
C26	C	0.623539	0.364052	-0.490627
C27	C	0.658594	0.320501	-0.553219
C28	C	0.732213	0.323452	-0.548956
C29	C	0.403173	0.350404	-0.510319
C30	C	0.329549	0.347456	-0.514574
C31	C	0.333068	0.437506	-0.385138
C32	C	0.406687	0.440449	-0.380877
C33	C	0.441737	0.396901	-0.443472
N34	N	0.548287	0.361038	-0.494988
N35	N	0.516987	0.399919	-0.439116
C36	C	1.216146	0.387851	-0.456491
C37	C	1.294499	0.391004	-0.451990
C38	C	1.065380	1.083166	-0.514527
C39	C	1.062400	1.009547	-0.510265
C40	C	1.015853	0.971007	-0.443488
C41	C	0.972287	1.006090	-0.380962
C42	C	0.975270	1.079709	-0.385220
C43	C	1.002102	0.750646	-0.423818
C44	C	0.999120	0.677023	-0.419567
C45	C	1.089235	0.680485	-0.548869
C46	C	1.092212	0.754104	-0.553125
C47	C	1.048648	0.789181	-0.490595
N48	N	1.012805	0.895756	-0.439132
N49	N	1.051700	0.864431	-0.494946
C50	C	1.024998	1.196596	-0.456516
C51	C	1.021815	1.118245	-0.452008
C52	C	1.075663	0.337083	-0.907544
C53	C	1.075674	0.337053	-1.017265
C54	C	0.989060	0.423582	-1.027594
C55	C	0.989046	0.423608	-0.917874
C56	C	1.032269	0.380469	-0.194086
C57	C	1.032376	0.380304	-0.077293
H58	H	0.633573	0.446012	-0.372818
H59	H	1.124703	0.651918	-0.599777
O60	O	1.122369	0.290438	-0.842803
H61	H	1.089401	0.253321	-0.792561
O62	O	0.948915	0.635456	-0.347532
H63	H	0.954156	0.578372	-0.355088
O64	O	0.942307	0.470272	-0.864283
H65	H	0.956566	0.526082	-0.887799
H66	H	0.431701	0.314945	-0.561290
H67	H	1.103277	1.114540	-0.568915
O68	O	0.955114	0.788475	-0.356383
H69	H	0.899213	0.772173	-0.376713
O70	O	1.122389	0.290370	-1.070850
H71	H	1.089428	0.253218	-1.120577
H72	H	0.953804	0.458795	-1.076477
H73	H	0.934389	0.974707	-0.326585
H74	H	0.767125	0.451358	-0.365076
O75	O	0.448287	0.490595	-0.308769
H76	H	0.411545	0.520384	-0.265967
H77	H	0.304523	0.472961	-0.334178
O78	O	0.928288	1.117543	-0.317776
H79	H	0.938189	1.175209	-0.331941
H80	H	0.298148	0.309585	-0.569006
O81	O	0.616995	0.270343	-0.625309
H82	H	0.584718	0.300587	-0.682431
O83	O	0.770023	0.276477	-0.616448
H84	H	0.730837	0.243641	-0.663638
H85	H	1.130124	0.785479	-0.607490
O86	O	1.109406	0.971710	-0.577666
H87	H	1.142275	1.010877	-0.624813
