data_functionalizedCrystal
_audit_creation_method	'MofGen! by Chris Wilmer'
_symmetry_space_group_name_H-M	'P1'
_symmetry_Int_Tables_number	1
_symmetry_cell_setting	triclinic
loop_
_symmetry_equiv_pos_as_xyz
  x,y,z
_cell_length_a	12.759401
_cell_length_b	25.639239
_cell_length_c	12.759393
_cell_angle_alpha	89.964022
_cell_angle_beta	89.979062
_cell_angle_gamma	90.040211
loop_
_atom_site_label
_atom_site_type_symbol
_atom_site_fract_x
_atom_site_fract_y
_atom_site_fract_z
Zn1	Zn	1.606091	-0.208104	-0.593980
Zn2	Zn	1.605909	-0.295549	-0.418283
Zn3	Zn	1.430390	-0.208132	-0.418315
Zn4	Zn	1.430308	-0.295513	-0.593921
O5	O	1.518175	-0.251825	-0.506125
O6	O	1.753088	-0.219708	-0.570685
O7	O	1.582584	-0.283980	-0.271266
O8	O	1.453808	-0.134963	-0.441656
O9	O	1.752954	-0.283953	-0.441601
O10	O	1.582895	-0.134943	-0.570716
O11	O	1.453631	-0.219755	-0.271290
O12	O	1.283358	-0.219720	-0.441598
O13	O	1.453669	-0.283891	-0.740950
O14	O	1.283298	-0.283918	-0.570615
O15	O	1.582816	-0.219672	-0.740993
O16	O	1.582505	-0.368710	-0.441544
O17	O	1.453492	-0.368683	-0.570584
C18	C	1.245207	-0.251818	-0.506104
C19	C	1.128431	-0.251828	-0.506120
C20	C	1.517998	-0.387667	-0.506077
C21	C	1.518018	-0.445781	-0.506091
C22	C	1.073565	-0.285307	-0.573193
C23	C	0.963841	-0.285309	-0.573214
C24	C	0.963858	-0.218352	-0.439079
C25	C	1.073580	-0.218347	-0.439065
C26	C	1.585527	-0.806146	-0.439048
C27	C	1.585568	-0.860750	-0.439062
O28	O	1.642783	-0.888988	-0.382007
N29	N	1.518359	-0.888064	-0.506194
C30	C	1.451113	-0.860770	-0.573324
O31	O	1.393952	-0.889017	-0.630428
C32	C	1.451079	-0.806167	-0.573315
C33	C	1.518284	-0.778856	-0.506171
C34	C	1.652728	-0.778835	-0.371910
C35	C	1.652685	-0.724234	-0.371895
C36	C	1.585442	-0.696945	-0.439018
C37	C	1.518242	-0.724255	-0.506156
C38	C	1.383839	-0.778874	-0.640449
C39	C	1.383810	-0.724267	-0.640435
C40	C	1.451016	-0.696957	-0.573291
C41	C	1.450956	-0.642365	-0.573263
N42	N	1.518165	-0.615052	-0.506131
C43	C	1.585408	-0.642341	-0.439008
C44	C	1.451192	-0.975441	-0.573341
C45	C	1.451221	-1.030043	-0.573346
C46	C	1.585677	-1.030019	-0.439085
C47	C	1.585642	-0.975416	-0.439075
C48	C	1.518401	-0.948127	-0.506208
C49	C	1.585313	-0.527676	-0.438981
C50	C	1.585261	-0.473071	-0.438969
C51	C	1.450810	-0.473100	-0.573233
C52	C	1.450857	-0.527700	-0.573242
C53	C	1.518117	-0.554987	-0.506112
O54	O	1.393774	-0.614093	-0.630292
O55	O	1.642569	-0.614088	-0.381925
C56	C	1.792208	-0.251831	-0.506146
C57	C	1.908984	-0.251834	-0.506156
C58	C	1.518253	-0.251774	-0.780158
C59	C	1.518287	-0.251753	-0.896935
C60	C	1.518381	-0.115452	-0.506196
C61	C	1.518468	-0.057337	-0.506226
C62	C	1.585539	-0.218309	-0.951821
C63	C	1.585556	-0.218286	-1.061546
C64	C	1.451068	-0.285156	-1.061487
C65	C	1.451045	-0.285176	-0.951765
C66	C	1.518157	-0.251837	-0.233157
C67	C	1.518327	-0.251711	-0.116381
H68	H	1.118221	-0.312568	-0.627796
H69	H	1.707412	-0.702001	-0.317224
O70	O	1.650797	-0.554116	-0.373820
C71	C	1.755482	-0.540708	-0.396893
H72	H	1.757590	-0.501050	-0.437290
H73	H	1.802629	-0.538829	-0.321111
H74	H	1.790879	-0.571402	-0.450934
H75	H	0.919174	-0.312570	-0.627833
O76	O	1.650699	-0.185812	-0.898445
C77	C	1.590917	-0.152044	-0.835009
H78	H	1.511269	-0.170488	-0.818544
H79	H	1.633707	-0.145048	-0.757864
H80	H	1.579434	-0.113292	-0.877319
O81	O	0.910736	-0.185785	-0.373904
C82	C	0.982695	-0.156243	-0.314682
H83	H	1.060931	-0.154454	-0.357714
H84	H	0.951037	-0.115044	-0.303627
H85	H	0.994304	-0.175343	-0.234819
H86	H	1.118253	-0.191082	-0.384446
H87	H	1.396273	-0.312410	-0.907075
O88	O	1.318436	-0.697704	-0.705504
C89	C	1.250560	-0.666188	-0.645629
H90	H	1.287643	-0.658013	-0.566040
H91	H	1.236426	-0.627784	-0.688409
H92	H	1.172726	-0.687280	-0.634024
O93	O	1.650499	-0.446599	-0.373598
C94	C	1.627586	-0.459987	-0.268869
H95	H	1.587226	-0.499654	-0.266670
H96	H	1.703437	-0.461835	-0.221828
H97	H	1.573570	-0.429297	-0.233421
H98	H	1.396136	-0.549938	-0.627919
O99	O	1.318452	-0.805420	-0.705531
C100	C	1.250650	-0.837076	-0.645690
H101	H	1.244176	-0.820662	-0.562929
H102	H	1.169785	-0.837718	-0.683634
H103	H	1.283159	-0.878444	-0.642117
H104	H	1.396058	-0.450872	-0.627881
H105	H	1.396324	-0.312369	-1.106143
H106	H	1.640318	-0.191052	-1.106229
O107	O	1.718084	-0.805258	-0.306600
C108	C	1.777399	-0.769433	-0.247371
H109	H	1.734333	-0.730535	-0.243707
H110	H	1.788656	-0.785224	-0.164598
H111	H	1.857170	-0.763571	-0.285909
O112	O	1.651027	-0.948969	-0.373822
C113	C	1.710357	-0.984771	-0.314562
H114	H	1.713991	-1.023676	-0.357610
H115	H	1.793133	-0.968961	-0.303421
H116	H	1.671924	-0.990627	-0.234738
H117	H	1.396486	-1.052275	-0.628011
O118	O	1.651042	-1.056614	-0.374054
C119	C	1.636676	-1.110664	-0.388491
H120	H	1.602128	-1.118092	-0.469505
H121	H	1.715418	-1.131362	-0.381572
H122	H	1.580868	-1.126243	-0.326071
H123	H	1.396428	-0.953225	-0.628006
