data_functionalizedCrystal
_audit_creation_method	'MofGen! by Chris Wilmer'
_symmetry_space_group_name_H-M	'P1'
_symmetry_Int_Tables_number	1
_symmetry_cell_setting	triclinic
loop_
_symmetry_equiv_pos_as_xyz
  x,y,z
_cell_length_a	10.654547
_cell_length_b	10.654541
_cell_length_c	11.295483
_cell_angle_alpha	94.135029
_cell_angle_beta	85.854153
_cell_angle_gamma	84.484992
loop_
_atom_site_label
_atom_site_type_symbol
_atom_site_fract_x
_atom_site_fract_y
_atom_site_fract_z
O1	O	1.676226	0.168030	-0.099045
O2	O	1.310748	0.184833	-0.099043
O3	O	1.501891	-0.006308	-0.099037
O4	O	1.485083	0.359170	-0.099051
O5	O	1.485102	0.010455	0.099013
O6	O	1.293959	0.201595	0.099007
O7	O	1.659438	0.184792	0.099005
Cu8	Cu	1.475165	0.194724	0.117090
Cu9	Cu	1.495020	0.174901	-0.117128
O10	O	1.468294	0.375932	0.098999
C11	C	1.255555	0.191979	-0.000017
C12	C	1.116112	0.188286	-0.000016
C13	C	0.872397	0.163048	-0.215952
C14	C	0.947067	0.155648	-0.323910
C15	C	1.078084	0.159128	-0.323907
C16	C	1.134434	0.170006	-0.215934
C17	C	1.059765	0.177406	-0.107977
C18	C	0.928745	0.173928	-0.107992
C19	C	1.041443	0.195686	0.107941
C20	C	0.910424	0.192215	0.107941
C21	C	1.097793	0.206564	0.215913
C22	C	1.023122	0.213973	0.323873
C23	C	0.892097	0.210494	0.323866
C24	C	0.835754	0.199615	0.215898
C25	C	1.492263	-0.044725	-0.000012
C26	C	1.488573	-0.184168	-0.000014
C27	C	1.717136	-0.212136	-0.000001
C28	C	1.829678	-0.291628	0.000009
C29	C	1.826203	-0.422646	0.000005
C30	C	1.710173	-0.474174	-0.000012
C31	C	1.597631	-0.394682	-0.000021
C32	C	1.601118	-0.263662	-0.000014
C33	C	1.369071	-0.366715	-0.000043
C34	C	1.372543	-0.235696	-0.000031
C35	C	1.253042	-0.418243	-0.000060
C36	C	1.140496	-0.338750	-0.000060
C37	C	1.143976	-0.207724	-0.000055
C38	C	1.260001	-0.156204	-0.000040
C39	C	1.714630	0.177645	-0.000023
C40	C	1.854074	0.181338	-0.000032
C41	C	1.477922	0.414349	-0.000028
C42	C	1.481614	0.553792	-0.000034
N43	N	1.461210	0.208666	0.281826
N44	N	1.508985	0.160949	-0.281863
C45	C	1.609445	0.060517	0.531120
C46	C	1.598907	0.071062	0.655783
C47	C	1.429592	0.240294	0.655818
C48	C	1.440130	0.229749	0.531155
C49	C	1.530060	0.139859	0.468810
C50	C	1.540603	0.129321	0.344144
C51	C	1.371283	0.298546	0.344181
C52	C	1.360745	0.309091	0.468845
H53	H	1.138881	0.153101	-0.411815
C54	C	1.085111	0.225976	0.442629
N55	N	1.131804	0.235034	0.532078
H56	H	1.917845	-0.487371	0.000003
C57	C	1.720968	-0.068012	0.000014
N58	N	1.723858	0.040543	0.000023
H59	H	1.663548	0.006453	0.706513
C60	C	0.728274	0.159229	-0.215966
N61	N	0.619720	0.156350	-0.215978
H62	H	1.204475	0.209388	0.215908
H63	H	1.356365	0.313472	0.706595
H64	H	1.250221	-0.524927	-0.000070
H65	H	1.287522	0.382274	0.519620
H66	H	1.306646	0.363155	0.293434
H67	H	1.613831	0.056132	0.293384
H68	H	1.052330	-0.143008	-0.000068
C69	C	1.278563	0.173784	-0.215938
N70	N	1.387124	0.176619	-0.215939
H71	H	0.901173	0.146787	-0.411818
H72	H	0.831307	0.216525	0.411778
H73	H	1.707355	-0.580859	-0.000029
H74	H	1.924146	-0.249659	0.000033
H75	H	0.729073	0.196789	0.215881
C76	C	1.263840	-0.012082	-0.000036
N77	N	1.266737	0.096472	-0.000038
H78	H	1.046034	-0.380716	-0.000082
C79	C	1.708372	-0.038356	0.462538
N80	N	1.782886	-0.112830	0.410884
