data_functionalizedCrystal
_audit_creation_method	'MofGen! by Chris Wilmer'
_symmetry_space_group_name_H-M	'P1'
_symmetry_Int_Tables_number	1
_symmetry_cell_setting	triclinic
loop_
_symmetry_equiv_pos_as_xyz
  x,y,z
_cell_length_a	19.077105
_cell_length_b	12.594516
_cell_length_c	19.076919
_cell_angle_alpha	92.275735
_cell_angle_beta	90.076224
_cell_angle_gamma	87.708332
loop_
_atom_site_label
_atom_site_type_symbol
_atom_site_fract_x
_atom_site_fract_y
_atom_site_fract_z
Zn1	Zn	1.058345	-0.514931	-0.440441
Zn2	Zn	1.063009	-0.686070	-0.322942
Zn3	Zn	0.945560	-0.500673	-0.318234
Zn4	Zn	0.940831	-0.685429	-0.435695
O5	O	1.001936	-0.596776	-0.379328
O6	O	1.157296	-0.543869	-0.428812
O7	O	1.051361	-0.655778	-0.223986
O8	O	0.960549	-0.353621	-0.334461
O9	O	1.160723	-0.669604	-0.342486
O10	O	1.043411	-0.364097	-0.424246
O11	O	0.965072	-0.519568	-0.220527
O12	O	0.846600	-0.518945	-0.329859
O13	O	0.952488	-0.668510	-0.534656
O14	O	0.843125	-0.654684	-0.416157
O15	O	1.038825	-0.543247	-0.538143
O16	O	1.046775	-0.834928	-0.337883
O17	O	0.957011	-0.834457	-0.420722
C18	C	0.819366	-0.585199	-0.371982
C19	C	0.741261	-0.580272	-0.368856
C20	C	0.702780	-0.648729	-0.412248
C21	C	0.629392	-0.644086	-0.409314
C22	C	0.594487	-0.570992	-0.362984
C23	C	0.632974	-0.502528	-0.319591
C24	C	0.706360	-0.507166	-0.322529
C25	C	0.375197	-0.549527	-0.349391
C26	C	0.301805	-0.544896	-0.346455
C27	C	0.298228	-0.686453	-0.436179
C28	C	0.371616	-0.691089	-0.439109
C29	C	0.410096	-0.622622	-0.395719
N30	N	0.519473	-0.566247	-0.359983
N31	N	0.485109	-0.627362	-0.398724
C32	C	1.001904	-0.873314	-0.379315
C33	C	1.001954	-0.991624	-0.379335
C34	C	1.050829	-1.061101	-0.334331
C35	C	1.065420	-1.136633	-0.399156
C36	C	0.987449	-1.126899	-0.314555
C37	C	1.016576	-1.065601	-0.444195
C38	C	0.938577	-1.055856	-0.359549
C39	C	0.953142	-1.131357	-0.424417
C40	C	1.185219	-0.608399	-0.386703
C41	C	1.263323	-0.613352	-0.389846
C42	C	0.994608	-0.607398	-0.562609
C43	C	0.991485	-0.611924	-0.640712
C44	C	1.001987	-0.319160	-0.379358
C45	C	1.002008	-0.200856	-0.379371
C46	C	1.034967	-0.548835	-0.679222
C47	C	1.032024	-0.553084	-0.752608
C48	C	0.985603	-0.620427	-0.787483
C49	C	0.942117	-0.683518	-0.748968
C50	C	0.945056	-0.679263	-0.675583
C51	C	0.971988	-0.640140	-1.006765
C52	C	0.969053	-0.644392	-1.080155
C53	C	1.058960	-0.513956	-1.083790
C54	C	1.061899	-0.509712	-1.010404
C55	C	1.018410	-0.572799	-0.971895
N56	N	0.982596	-0.624774	-0.862495
N57	N	1.021414	-0.568446	-0.896884
C58	C	1.009276	-0.586121	-0.196762
C59	C	1.012535	-0.581304	-0.118665
H60	H	0.737691	-0.451416	-0.287199
H61	H	1.072771	-0.494001	-0.650832
C62	C	1.033271	-1.029199	-0.518250
N63	N	1.045849	-1.001778	-0.574026
C64	C	0.970840	-1.163483	-0.240523
N65	N	0.958335	-1.191034	-0.184762
C66	C	0.891046	-0.757586	-0.787333
N67	N	0.852578	-0.813375	-0.816229
H68	H	1.067433	-0.501713	-0.783959
H69	H	0.400030	-0.750613	-0.476834
C70	C	0.587065	-0.719414	-0.457035
N71	N	0.555186	-0.776161	-0.492976
C72	C	1.106786	-0.444552	-1.126155
N73	N	1.142807	-0.392268	-1.158064
H74	H	1.099702	-0.454877	-0.982014
C75	C	0.897332	-1.172780	-0.475912
N76	N	0.855298	-1.203980	-0.514700
H77	H	0.406519	-0.493783	-0.314054
H78	H	0.884974	-1.020516	-0.342776
C79	C	0.917982	-0.718475	-1.118516
N80	N	0.879517	-0.774271	-1.147409
C81	C	0.924146	-0.709534	-0.964415
N82	N	0.888108	-0.761804	-0.932514
H83	H	0.273387	-0.485361	-0.308732
C84	C	1.106672	-1.019409	-0.282969
N85	N	1.148735	-0.988002	-0.244289
H86	H	0.909642	-0.730626	-0.644229
H87	H	0.731194	-0.708254	-0.449972
C88	C	1.137856	-1.184353	-0.421789
N89	N	1.192417	-1.220294	-0.438830
C90	C	0.255893	-0.761754	-0.483910
N91	N	0.224007	-0.818471	-0.519866
H92	H	0.604548	-0.443009	-0.281872
