data_functionalizedCrystal
_audit_creation_method	'MofGen! by Chris Wilmer'
_symmetry_space_group_name_H-M	'P1'
_symmetry_Int_Tables_number	1
_symmetry_cell_setting	triclinic
loop_
_symmetry_equiv_pos_as_xyz
  x,y,z
_cell_length_a	11.169417
_cell_length_b	21.395361
_cell_length_c	21.395356
_cell_angle_alpha	90.030681
_cell_angle_beta	90.022062
_cell_angle_gamma	90.028930
loop_
_atom_site_label
_atom_site_type_symbol
_atom_site_fract_x
_atom_site_fract_y
_atom_site_fract_z
Zn1	Zn	-1.834797	0.249484	-0.354223
Zn2	Zn	-1.834614	0.354261	-0.249440
Zn3	Zn	-1.634082	0.249498	-0.249462
Zn4	Zn	-1.634019	0.354225	-0.354183
O5	O	-1.734378	0.301867	-0.301827
O6	O	-2.002723	0.263392	-0.340330
O7	O	-1.807962	0.340385	-0.161765
O8	O	-1.660810	0.161818	-0.263385
O9	O	-2.002588	0.340371	-0.263347
O10	O	-1.808275	0.161808	-0.340352
O11	O	-1.660632	0.263416	-0.161781
O12	O	-1.466124	0.263381	-0.263346
O13	O	-1.660704	0.340310	-0.441866
O14	O	-1.466078	0.340323	-0.340284
O15	O	-1.808214	0.263357	-0.441895
O16	O	-1.807902	0.441934	-0.263308
O17	O	-1.660526	0.441907	-0.340262
C18	C	-1.422553	0.301850	-0.301814
C19	C	-1.289153	0.301858	-0.301823
C20	C	-1.734472	0.301828	-0.465250
C21	C	-1.734513	0.301811	-0.534892
C22	C	-1.734220	0.464654	-0.301792
C23	C	-1.734262	0.534296	-0.301798
C24	C	-1.047420	0.301878	-0.301836
C25	C	-1.180820	0.301868	-0.301830
C26	C	-1.734570	0.138443	-0.301876
C27	C	-1.734652	0.068802	-0.301896
C28	C	-1.811068	0.567002	-0.261769
C29	C	-1.811124	0.632437	-0.261783
C30	C	-1.734352	0.665164	-0.301820
C31	C	-1.657540	0.632450	-0.341856
C32	C	-1.657495	0.567016	-0.341846
C33	C	-1.626288	0.768877	-0.306731
C34	C	-1.626331	0.834310	-0.306737
C35	C	-1.734492	0.866985	-0.301856
C36	C	-1.842613	0.834219	-0.296956
C37	C	-1.842568	0.768785	-0.296945
C38	C	-1.734393	0.736116	-0.301836
C39	C	-1.811365	0.970643	-0.261840
C40	C	-1.811423	1.036080	-0.261859
C41	C	-1.657828	1.036091	-0.341929
C42	C	-1.657781	0.970656	-0.341914
C43	C	-1.734548	0.937936	-0.301866
C44	C	-1.657818	0.261729	-0.567603
C45	C	-1.657814	0.261718	-0.633039
C46	C	-1.734526	0.301782	-0.665760
C47	C	-1.811226	0.341872	-0.633040
C48	C	-1.811219	0.341887	-0.567606
C49	C	-1.842661	0.306709	-0.769444
C50	C	-1.842670	0.306690	-0.834877
C51	C	-1.734546	0.301739	-0.867581
C52	C	-1.626409	0.296795	-0.834843
C53	C	-1.626403	0.296810	-0.769409
C54	C	-1.734541	0.301770	-0.736712
C55	C	-1.657841	0.261642	-0.971245
C56	C	-1.657834	0.261635	-1.036682
C57	C	-1.811256	0.341786	-1.036682
C58	C	-1.811252	0.341796	-0.971247
C59	C	-1.734546	0.301721	-0.938532
C60	C	-1.734353	0.301860	-0.139039
C61	C	-1.734545	0.301700	-0.069398
H62	H	-1.873579	0.540363	-0.229162
C63	C	-1.573286	0.934675	-0.385940
H64	H	-1.584261	0.891018	-0.380204
H65	H	-1.492663	0.945441	-0.376737
H66	H	-1.590827	0.945361	-0.428050
H67	H	-1.873708	0.374434	-0.944612
C68	C	-1.573002	0.531035	-0.385876
H69	H	-1.583975	0.487378	-0.380137
H70	H	-1.492379	0.541802	-0.376674
H71	H	-1.590545	0.541719	-0.427986
C72	C	-1.895593	0.385975	-0.531621
H73	H	-1.941285	0.409833	-0.560478
H74	H	-1.849651	0.413276	-0.506076
H75	H	-1.947919	0.362010	-0.506116
H76	H	-1.873674	0.659072	-0.229187
H77	H	-1.538355	0.292785	-0.742757
C78	C	-1.961491	0.732744	-0.291565
H79	H	-2.025920	0.761572	-0.288664
H80	H	-1.959954	0.707242	-0.255243
H81	H	-1.971976	0.707192	-0.327480
H82	H	-1.930688	0.860821	-0.292981
H83	H	-1.873976	1.062708	-0.229264
H84	H	-1.595324	1.062737	-0.374530
H85	H	-1.930721	0.310713	-0.861527
H86	H	-1.873684	0.374492	-0.659686
H87	H	-1.930717	0.310735	-0.742823
C88	C	-1.895816	0.934649	-0.217798
H89	H	-1.941583	0.963502	-0.193966
H90	H	-1.849918	0.909163	-0.190471
H91	H	-1.948069	0.909082	-0.241791
C92	C	-1.507409	0.870349	-0.312133
H93	H	-1.522924	0.913998	-0.311434
H94	H	-1.469001	0.859615	-0.350259
H95	H	-1.456939	0.859673	-0.278024
C96	C	-1.507304	0.732940	-0.312105
H97	H	-1.442919	0.761824	-0.315017
H98	H	-1.508811	0.707389	-0.348420
H99	H	-1.496770	0.707444	-0.276184
H100	H	-1.595354	0.229099	-0.540971
C101	C	-1.573455	0.217622	-0.669030
H102	H	-1.527778	0.193754	-0.640174
H103	H	-1.521134	0.241575	-0.694542
H104	H	-1.619422	0.190320	-0.694568
C105	C	-1.573090	0.668446	-0.385894
H106	H	-1.584108	0.712101	-0.380163
H107	H	-1.590605	0.657687	-0.427998
H108	H	-1.492449	0.657764	-0.376681
C109	C	-1.507463	0.291367	-0.870808
H110	H	-1.522947	0.292078	-0.914466
H111	H	-1.469108	0.253228	-0.860097
H112	H	-1.456960	0.325460	-0.860055
H113	H	-1.595381	0.229011	-0.944608
C114	C	-1.573467	0.217542	-1.072665
H115	H	-1.527795	0.193674	-1.043808
H116	H	-1.521142	0.241497	-1.098174
H117	H	-1.619426	0.190240	-1.098208
C118	C	-1.895639	0.385855	-1.072667
H119	H	-1.884665	0.380103	-1.116323
H120	H	-1.878029	0.427954	-1.061927
H121	H	-1.976292	0.376686	-1.061961
