data_functionalizedCrystal
_audit_creation_method	'MofGen! by Chris Wilmer'
_symmetry_space_group_name_H-M	'P1'
_symmetry_Int_Tables_number	1
_symmetry_cell_setting	triclinic
loop_
_symmetry_equiv_pos_as_xyz
  x,y,z
_cell_length_a	10.654558
_cell_length_b	10.654550
_cell_length_c	17.766277
_cell_angle_alpha	89.994852
_cell_angle_beta	89.991280
_cell_angle_gamma	84.486610
loop_
_atom_site_label
_atom_site_type_symbol
_atom_site_fract_x
_atom_site_fract_y
_atom_site_fract_z
O1	O	1.667844	0.176451	-0.062582
O2	O	1.302367	0.193246	-0.062585
O3	O	1.493508	0.002109	-0.062581
O4	O	1.476702	0.367587	-0.062586
O5	O	1.493474	0.002099	0.062608
O6	O	1.302333	0.193236	0.062603
O7	O	1.667810	0.176440	0.062607
Cu8	Cu	1.485068	0.184837	0.074036
Cu9	Cu	1.485108	0.184849	-0.074014
O10	O	1.476668	0.367577	0.062602
C11	C	1.255552	0.192005	0.000009
C12	C	1.116109	0.188309	0.000007
C13	C	0.919589	0.183119	-0.068233
C14	C	1.050612	0.186581	-0.068234
C15	C	1.050579	0.186563	0.068253
C16	C	0.919559	0.183092	0.068253
C17	C	0.854097	0.181404	-0.136479
C18	C	0.919619	0.183147	-0.204725
C19	C	1.050641	0.186609	-0.204726
C20	C	1.116142	0.188327	-0.136480
C21	C	1.492257	-0.044694	0.000013
C22	C	1.488565	-0.184137	0.000010
C23	C	1.601106	-0.263620	0.000013
C24	C	1.597630	-0.394641	0.000008
C25	C	1.369061	-0.366684	-0.000001
C26	C	1.372539	-0.235666	-0.000001
C27	C	1.717133	-0.212091	0.000024
C28	C	1.829683	-0.291575	0.000029
C29	C	1.826207	-0.422596	0.000023
C30	C	1.710180	-0.474133	0.000014
C31	C	1.714625	0.177681	0.000011
C32	C	1.854067	0.181377	0.000008
C33	C	1.477919	0.414380	0.000007
C34	C	1.481611	0.553823	0.000005
N35	N	1.485049	0.184828	0.178166
N36	N	1.485137	0.184848	-0.178144
C37	C	1.569715	0.100235	0.217555
C38	C	1.569722	0.100229	0.296357
C39	C	1.485076	0.184838	0.335767
C40	C	1.400394	0.269438	0.296368
C41	C	1.400381	0.269433	0.217568
C42	C	1.469616	0.299076	0.460603
C43	C	1.469638	0.299083	0.539402
C44	C	1.485109	0.184854	0.578813
C45	C	1.500585	0.070613	0.539416
C46	C	1.500572	0.070608	0.460616
C47	C	1.485080	0.184853	0.421212
C48	C	1.569787	0.100247	0.703648
C49	C	1.569786	0.100240	0.782451
C50	C	1.400464	0.269459	0.782461
C51	C	1.400460	0.269456	0.703659
C52	C	1.485128	0.184851	0.664257
H53	H	1.103987	0.188017	-0.260296
H54	H	1.103920	0.187964	0.123816
C55	C	1.720967	-0.067967	0.000030
N56	N	1.723854	0.040588	0.000036
C57	C	0.847566	0.181250	-0.279791
N58	N	0.793298	0.179821	-0.336333
H59	H	1.280898	-0.170948	-0.000003
C60	C	0.847481	0.181176	0.143322
N61	N	0.793192	0.179729	0.199866
H62	H	0.747411	0.178589	-0.136486
H63	H	1.222831	0.191139	-0.136486
H64	H	1.638653	0.031342	0.185476
C65	C	1.517601	-0.055050	0.582762
N66	N	1.530418	-0.149695	0.615414
H67	H	1.638669	0.031341	0.328433
C68	C	1.957306	-0.234881	0.000038
N69	N	2.053433	-0.192180	0.000047
C70	C	1.950012	-0.510024	0.000028
N71	N	2.043268	-0.575873	0.000038
C72	C	1.517578	-0.055054	0.417282
N73	N	1.530379	-0.149705	0.384643
C74	C	1.706362	-0.618262	0.000004
N75	N	1.703488	-0.726818	-0.000000
C76	C	1.662911	0.007170	0.660303
N77	N	1.733051	-0.062939	0.627658
C78	C	1.662908	0.007154	0.825779
N79	N	1.733044	-0.062966	0.858414
C80	C	1.241441	-0.423381	0.000001
N81	N	1.145314	-0.466085	0.000007
C82	C	1.307353	0.362532	0.825807
N83	N	1.237218	0.432636	0.858459
H84	H	1.331522	0.338345	0.671587
H85	H	1.457045	0.392104	0.571473
C86	C	1.452596	0.424745	0.417258
N87	N	1.439777	0.519396	0.384612
C88	C	1.307277	0.362503	0.339720
N89	N	1.237135	0.432597	0.372373
H90	H	1.331434	0.338320	0.185497
