data_functionalizedCrystal
_audit_creation_method	'MofGen! by Chris Wilmer'
_symmetry_space_group_name_H-M	'P1'
_symmetry_Int_Tables_number	1
_symmetry_cell_setting	triclinic
loop_
_symmetry_equiv_pos_as_xyz
  x,y,z
_cell_length_a	14.044220
_cell_length_b	10.723024
_cell_length_c	9.198806
_cell_angle_alpha	90.003648
_cell_angle_beta	89.995861
_cell_angle_gamma	91.171627
loop_
_atom_site_label
_atom_site_type_symbol
_atom_site_fract_x
_atom_site_fract_y
_atom_site_fract_z
O1	O	0.133040	-1.670498	-0.120888
O2	O	0.633040	-1.170498	0.379112
O3	O	0.145774	-1.308620	-0.120893
O4	O	0.645774	-0.808620	0.379107
O5	O	0.001387	-1.484127	-0.120876
O6	O	0.501387	-0.984127	0.379124
O7	O	0.277427	-1.494991	-0.120905
O8	O	0.777427	-0.994991	0.379095
O9	O	0.001387	-1.484112	0.120909
O10	O	0.501387	-0.984112	0.620909
O11	O	0.145774	-1.308604	0.120892
O12	O	0.645774	-0.808604	0.620892
O13	O	0.133039	-1.670483	0.120898
O14	O	0.633039	-1.170483	0.620898
Cu15	Cu	0.139407	-1.489542	0.142972
Cu16	Cu	0.639407	-0.989542	0.642972
Cu17	Cu	0.139407	-1.489560	-0.142967
Cu18	Cu	0.639407	-0.989560	0.357033
O19	O	0.277427	-1.494975	0.120881
O20	O	0.777427	-0.994975	0.620881
C21	C	0.144847	-1.262020	-0.000001
C22	C	0.644847	-0.762020	0.499999
C23	C	0.142075	-1.123188	-0.000003
C24	C	0.642075	-0.623188	0.499997
C25	C	-0.033958	-1.479364	0.000017
C26	C	0.466042	-0.979364	0.500017
C27	C	-0.139276	-1.465180	0.000019
C28	C	0.360724	-0.965180	0.500019
C29	C	0.133966	-1.717083	0.000002
C30	C	0.633966	-1.217083	0.500002
C31	C	0.136739	-1.855914	-0.000006
C32	C	0.636739	-1.355914	0.499994
C33	C	-0.332106	-1.439248	-0.000003
C34	C	0.167894	-0.939248	0.499997
C35	C	-0.389085	-1.539849	-0.000006
C36	C	0.110915	-1.039849	0.499994
C37	C	-0.496383	-1.525420	-0.000017
C38	C	0.003617	-1.025420	0.499983
C39	C	-0.224799	-1.453675	0.000009
C40	C	0.275201	-0.953675	0.500009
C41	C	0.312772	-1.499738	-0.000016
C42	C	0.812772	-0.999738	0.499984
C43	C	0.418090	-1.513923	-0.000027
C44	C	0.918090	-1.013923	0.499973
N45	N	0.139406	-1.489539	0.344086
N46	N	0.639406	-0.989539	0.844086
C47	C	0.222866	-1.056288	-0.000012
C48	C	0.722866	-0.556288	0.499988
C49	C	0.220002	-0.912798	-0.000013
C50	C	0.720002	-0.412798	0.499987
N51	N	0.139401	-1.489573	-0.344081
N52	N	0.639401	-0.989573	0.155919
C53	C	0.078514	-1.563202	0.416290
C54	C	0.578514	-1.063202	0.916290
C55	C	0.078511	-1.563221	0.583702
C56	C	0.578511	-1.063221	1.083702
H57	H	-0.357284	-1.636814	-0.000102
H58	H	0.142716	-1.136814	0.499898
F59	F	0.010374	-1.645663	0.664858
F60	F	0.510374	-1.145663	1.164858
H61	H	0.294155	-1.105243	-0.000011
H62	H	0.794155	-0.605243	0.499989
H63	H	0.289166	-0.855286	-0.000027
H64	H	0.789166	-0.355286	0.499973
H65	H	0.191538	-1.426508	0.593836
H66	H	0.691538	-0.926508	1.093836
H67	H	0.191531	-1.426481	0.406208
H68	H	0.691531	-0.926481	0.906208
H69	H	0.067571	-0.913420	-0.000007
H70	H	0.567571	-0.413420	0.499993
H71	H	-0.363906	-1.342291	-0.000008
H72	H	0.136094	-0.842291	0.499992
F73	F	0.010207	-1.645378	0.335098
F74	F	0.510207	-1.145378	0.835098
F75	F	0.048892	-1.059208	0.000017
F76	F	0.548892	-0.559208	0.500017
