data_functionalizedCrystal
_audit_creation_method	'MofGen! by Chris Wilmer'
_symmetry_space_group_name_H-M	'P1'
_symmetry_Int_Tables_number	1
_symmetry_cell_setting	triclinic
loop_
_symmetry_equiv_pos_as_xyz
  x,y,z
_cell_length_a	17.639762
_cell_length_b	12.594516
_cell_length_c	17.639252
_cell_angle_alpha	101.214363
_cell_angle_beta	87.851044
_cell_angle_gamma	101.240598
loop_
_atom_site_label
_atom_site_type_symbol
_atom_site_fract_x
_atom_site_fract_y
_atom_site_fract_z
Zn1	Zn	1.247785	-0.030538	0.195078
Zn2	Zn	1.222073	-0.250069	0.068094
Zn3	Zn	1.095143	-0.099741	0.093722
Zn4	Zn	1.120776	-0.236139	0.220683
O5	O	1.171444	-0.154122	0.144394
O6	O	1.350648	-0.036527	0.156792
O7	O	1.183747	-0.264919	-0.034783
O8	O	1.115425	0.058396	0.107177
O9	O	1.331758	-0.197815	0.063497
O10	O	1.227570	0.109240	0.181643
O11	O	1.090492	-0.154474	-0.015954
O12	O	0.992269	-0.140967	0.132005
O13	O	1.159112	-0.174074	0.323563
O14	O	1.011101	-0.241178	0.225282
O15	O	1.252425	-0.023019	0.304751
O16	O	1.208602	-0.397179	0.088325
O17	O	1.134180	-0.386944	0.200432
C18	C	0.974130	-0.197071	0.184204
C19	C	0.889721	-0.215465	0.201252
C20	C	0.780560	-0.293684	0.273763
C21	C	0.859874	-0.276395	0.257737
C22	C	0.840261	-0.171795	0.160773
C23	C	0.760945	-0.189071	0.176794
C24	C	0.731101	-0.250018	0.233288
C25	C	0.711486	-0.145405	0.136319
C26	C	0.632176	-0.162685	0.152336
C27	C	0.602326	-0.223631	0.208826
C28	C	0.651791	-0.267297	0.249305
C29	C	0.741330	-0.084465	0.079821
C30	C	0.691871	-0.040799	0.039347
C31	C	0.612561	-0.058072	0.055367
C32	C	0.582710	-0.119018	0.111857
C33	C	0.563095	-0.014405	0.014888
C34	C	0.483785	-0.031685	0.030905
C35	C	0.503401	-0.136298	0.127874
C36	C	1.171406	-0.430675	0.144388
C37	C	1.171465	-0.548962	0.144397
C38	C	1.212013	-0.623712	0.083464
C39	C	1.244569	-0.667711	0.149040
C40	C	1.139012	-0.715726	0.078846
C41	C	1.204064	-0.591383	0.210002
C42	C	1.098466	-0.639414	0.139767
C43	C	1.131005	-0.683372	0.205396
C44	C	1.369529	-0.111005	0.104430
C45	C	1.453941	-0.092632	0.087399
C46	C	1.211496	-0.089273	0.342484
C47	C	1.228564	-0.061639	0.426898
C48	C	1.171506	0.123521	0.144413
C49	C	1.171533	0.241836	0.144421
C50	C	1.041810	-0.363985	0.753491
C51	C	1.057864	-0.338001	0.832808
C52	C	1.155023	-0.180721	0.813210
C53	C	1.138975	-0.206689	0.733891
C54	C	1.082368	-0.298323	0.704038
C55	C	1.179532	-0.141027	0.684438
C56	C	1.163488	-0.166996	0.605125
C57	C	1.106886	-0.258628	0.575265
C58	C	1.066324	-0.324292	0.624725
C59	C	1.236142	-0.049398	0.714292
C60	C	1.276700	0.016264	0.664838
C61	C	1.260652	-0.009700	0.585524
C62	C	1.204050	-0.101332	0.555665
C63	C	1.301214	0.055964	0.536065
C64	C	1.285170	0.029995	0.456751
C65	C	1.188006	-0.127301	0.476352
C66	C	1.131539	-0.218746	0.947077
C67	C	1.114460	-0.246389	0.862665
H68	H	1.246318	-0.597304	0.031973
H69	H	1.306334	-0.680840	0.152973
N70	N	1.085621	-0.718031	0.273724
H71	H	1.110245	-0.671913	0.323182
H72	H	1.085519	-0.798427	0.273053
H73	H	1.036714	-0.626266	0.135811
N74	N	1.328914	0.100808	0.403405
H75	H	1.367207	0.162799	0.434352
H76	H	1.291354	0.132562	0.376739
N77	N	1.240561	-0.520376	0.283448
H78	H	1.210226	-0.542461	0.329475
H79	H	1.240329	-0.440400	0.282906
N80	N	0.748365	-0.359424	0.334694
H81	H	0.690617	-0.363744	0.338695
H82	H	0.773206	-0.322192	0.386155
H83	H	1.111538	-0.769455	0.023401
N84	N	0.980757	-0.462819	0.721282
H85	H	0.938919	-0.437992	0.695480
H86	H	0.957554	-0.500436	0.764682
H87	H	1.141893	-0.201897	0.452048
H88	H	1.024833	-0.391478	0.873071
H89	H	0.479102	-0.185914	0.173885
N90	N	1.089563	-0.286658	0.489723
H91	H	1.137783	-0.301148	0.460091
H92	H	1.071727	-0.222909	0.473506
N93	N	1.005266	-0.423121	0.592517
H94	H	0.982002	-0.460779	0.635880
H95	H	1.029515	-0.476425	0.553369
N96	N	0.913221	-0.323499	0.301392
H97	H	0.882277	-0.364730	0.339609
H98	H	0.953254	-0.261559	0.329946
H99	H	1.322791	0.090870	0.689156
H100	H	0.805910	-0.070400	0.066781
H101	H	0.716181	0.008820	-0.006653
N102	N	1.216077	-0.081894	0.845411
H103	H	1.220088	-0.075406	0.903159
H104	H	1.201464	-0.012986	0.833939
N105	N	1.253429	-0.021364	0.799840
H106	H	1.295441	0.046649	0.811249
H107	H	1.271196	-0.085143	0.816088
N108	N	0.872451	-0.106067	0.099840
H109	H	0.930199	-0.101746	0.095834
H110	H	0.861007	-0.029194	0.114557
N111	N	1.362270	0.154790	0.568262
H112	H	1.404111	0.129961	0.594059
H113	H	1.338017	0.208137	0.607371
N114	N	0.516784	-0.242281	0.226099
H115	H	0.500522	-0.168862	0.244009
H116	H	0.505447	-0.287554	0.268009
H117	H	0.587405	0.035208	-0.031115
N118	N	0.619588	-0.333020	0.310243
H119	H	0.644374	-0.295824	0.361738
H120	H	0.630978	-0.409921	0.295509
H121	H	0.443515	0.003880	-0.002050
