data_functionalizedCrystal
_audit_creation_method	'MofGen! by Chris Wilmer'
_symmetry_space_group_name_H-M	'P1'
_symmetry_Int_Tables_number	1
_symmetry_cell_setting	triclinic
loop_
_symmetry_equiv_pos_as_xyz
  x,y,z
_cell_length_a	15.944551
_cell_length_b	16.992697
_cell_length_c	15.021413
_cell_angle_alpha	90.000840
_cell_angle_beta	89.995971
_cell_angle_gamma	87.083594
loop_
_atom_site_label
_atom_site_type_symbol
_atom_site_fract_x
_atom_site_fract_y
_atom_site_fract_z
O1	O	-0.178115	-1.040401	0.073887
O2	O	-0.176160	-0.812116	0.073918
O3	O	-0.055281	-0.932493	0.073907
O4	O	-0.298994	-0.920025	0.073898
O5	O	-0.055266	-0.932480	-0.074157
O6	O	-0.176146	-0.812103	-0.074147
O7	O	-0.178100	-1.040389	-0.074177
Zn8	Zn	-0.177121	-0.926244	-0.097670
Zn9	Zn	-0.177140	-0.926261	0.097411
O10	O	-0.298980	-0.920012	-0.074166
C11	C	-0.173639	-0.782897	-0.000111
C12	C	-0.166139	-0.695853	-0.000099
C13	C	-0.238504	-0.645616	-0.000101
C14	C	-0.231452	-0.563829	-0.000112
C15	C	-0.152034	-0.532280	-0.000114
C16	C	-0.079664	-0.582523	-0.000114
C17	C	-0.086717	-0.664309	-0.000109
C18	C	-0.122802	-0.288681	-0.000132
C19	C	-0.115755	-0.206889	-0.000134
C20	C	-0.267543	-0.188200	-0.000134
C21	C	-0.274589	-0.269988	-0.000124
C22	C	-0.202219	-0.320224	-0.000129
N23	N	-0.144824	-0.448681	-0.000122
N24	N	-0.209430	-0.403822	-0.000127
C25	C	-0.330316	-0.920536	-0.000135
C26	C	-0.423666	-0.922088	-0.000139
C27	C	-0.643776	-1.000412	-0.000136
C28	C	-0.702345	-0.964035	-0.073136
C29	C	-0.594580	-0.924895	-0.000132
C30	C	-0.702344	-0.964029	0.072844
C31	C	-0.759675	-0.927612	-0.000121
C32	C	-0.651920	-0.888497	-0.073192
C33	C	-0.651913	-0.888502	0.072854
C34	C	-0.710462	-0.852070	-0.000163
C35	C	-0.499473	-0.923332	-0.000139
C36	C	-0.854781	-0.929170	-0.000120
C37	C	-0.023945	-0.931969	-0.000122
C38	C	0.069405	-0.930417	-0.000112
C39	C	-0.180621	-0.069608	-0.000143
C40	C	-0.188119	-0.156653	-0.000136
N41	N	-0.177147	-0.926273	0.230548
C42	C	-0.121343	-0.982045	0.470197
C43	C	-0.198304	-0.997086	0.529560
C44	C	-0.177136	-0.926262	0.412155
C45	C	-0.100165	-0.911247	0.529534
C46	C	-0.177118	-0.926253	0.587579
C47	C	-0.254138	-0.941338	0.470212
C48	C	-0.155947	-0.855467	0.470181
C49	C	-0.232961	-0.870478	0.529517
C50	C	-0.177145	-0.926269	0.311098
C51	C	-0.177117	-0.926245	0.688635
N52	N	-0.177108	-0.926239	0.769192
H53	H	-0.303174	-0.671296	-0.000099
Cl54	Cl	-0.598840	-1.097187	-0.000257
Cl55	Cl	-0.354655	-0.961053	0.430154
H56	H	-0.724583	-0.995989	0.134556
H57	H	-0.216224	-1.056951	0.555643
H58	H	-0.280191	-0.823297	0.555398
H59	H	-0.074227	-1.029254	0.444153
H60	H	-0.138005	-0.795621	0.444079
H61	H	-0.290379	-0.522929	-0.000113
H62	H	-0.339260	-0.295669	-0.000112
Cl63	Cl	-0.358517	-0.125043	-0.000131
Cl64	Cl	-0.617536	-0.839238	0.168156
H65	H	-0.027789	-0.705211	-0.000107
H66	H	-0.035080	-0.898550	0.555593
H67	H	-0.051080	-0.181206	-0.000134
H68	H	-0.629782	-0.856576	-0.134973
H69	H	-0.724588	-0.995970	-0.134860
Cl70	Cl	-0.031821	-0.351824	-0.000137
Cl71	Cl	-0.755154	-0.755207	-0.000204
H72	H	-0.015000	-0.556830	-0.000128
