data_functionalizedCrystal
_audit_creation_method	'MofGen! by Chris Wilmer'
_symmetry_space_group_name_H-M	'P1'
_symmetry_Int_Tables_number	1
_symmetry_cell_setting	triclinic
loop_
_symmetry_equiv_pos_as_xyz
  x,y,z
_cell_length_a	10.489741
_cell_length_b	14.519709
_cell_length_c	12.996460
_cell_angle_alpha	90.007090
_cell_angle_beta	90.002874
_cell_angle_gamma	84.109659
loop_
_atom_site_label
_atom_site_type_symbol
_atom_site_fract_x
_atom_site_fract_y
_atom_site_fract_z
O1	O	-1.692699	-0.130116	-0.085506
O2	O	-1.359366	0.203217	0.247828
O3	O	-1.026033	0.536550	0.581161
O4	O	-1.321376	-0.142329	-0.085522
O5	O	-0.988043	0.191004	0.247811
O6	O	-0.654710	0.524337	0.581145
O7	O	-1.516883	-0.002038	-0.085504
O8	O	-1.183549	0.331295	0.247829
O9	O	-0.850216	0.664629	0.581163
O10	O	-1.497193	-0.270408	-0.085524
O11	O	-1.163859	0.062926	0.247810
O12	O	-0.830526	0.396259	0.581143
O13	O	-1.516862	-0.002030	0.085630
O14	O	-1.183529	0.331303	0.418963
O15	O	-0.850196	0.664637	0.752296
O16	O	-1.321356	-0.142322	0.085612
O17	O	-0.988022	0.191012	0.418945
O18	O	-0.654689	0.524345	0.752279
O19	O	-1.692679	-0.130108	0.085628
O20	O	-1.359345	0.203225	0.418961
O21	O	-1.026012	0.536558	0.752295
Cu22	Cu	-1.507015	-0.136214	0.101246
Cu23	Cu	-1.173682	0.197119	0.434579
Cu24	Cu	-0.840349	0.530453	0.767913
Cu25	Cu	-1.507040	-0.136224	-0.101140
Cu26	Cu	-1.173706	0.197110	0.232194
Cu27	Cu	-0.840373	0.530443	0.565527
O28	O	-1.497172	-0.270400	0.085610
O29	O	-1.163839	0.062934	0.418944
O30	O	-0.830506	0.396267	0.752277
C31	C	-1.273844	-0.141403	0.000043
C32	C	-0.940511	0.191930	0.333376
C33	C	-0.607177	0.525264	0.666710
C34	C	-1.132243	-0.138643	0.000037
C35	C	-0.798910	0.194690	0.333370
C36	C	-0.465577	0.528023	0.666704
C37	C	-1.515955	0.032331	0.000063
C38	C	-1.182622	0.365664	0.333396
C39	C	-0.849288	0.698997	0.666730
C40	C	-1.513205	0.134727	0.000063
C41	C	-1.179872	0.468060	0.333397
C42	C	-0.846538	0.801394	0.666730
C43	C	-1.740211	-0.131035	0.000061
C44	C	-1.406878	0.202299	0.333394
C45	C	-1.073544	0.535632	0.666728
C46	C	-1.881812	-0.133794	0.000060
C47	C	-1.548478	0.199539	0.333393
C48	C	-1.215145	0.532872	0.666727
C49	C	-1.065034	-0.049380	0.000053
C50	C	-0.731700	0.283953	0.333387
C51	C	-0.398367	0.617287	0.666720
C52	C	-0.972477	-0.091551	-0.084326
C53	C	-0.639144	0.241782	0.249008
C54	C	-0.305811	0.575116	0.582341
C55	C	-0.972491	-0.091564	0.084399
C56	C	-0.639158	0.241769	0.417732
C57	C	-0.305824	0.575102	0.751066
C58	C	-1.041552	-0.180851	-0.084411
C59	C	-0.708219	0.152482	0.248922
C60	C	-0.374885	0.485816	0.582255
C61	C	-1.041575	-0.180852	0.084389
C62	C	-0.708242	0.152481	0.417722
C63	C	-0.374909	0.485815	0.751056
C64	C	-0.949046	-0.223088	-0.000010
C65	C	-0.615712	0.110245	0.333323
C66	C	-0.282379	0.443579	0.666656
C67	C	-1.498100	-0.304768	0.000041
C68	C	-1.164767	0.028565	0.333374
C69	C	-0.831433	0.361898	0.666708
C70	C	-1.500850	-0.407165	0.000034
C71	C	-1.167517	-0.073831	0.333367
C72	C	-0.834183	0.259502	0.666700
N73	N	-1.507008	-0.136207	0.243593
N74	N	-1.173674	0.197126	0.576926
N75	N	-0.840341	0.530460	0.910260
C76	C	-1.503082	0.509678	0.000036
C77	C	-1.169748	0.843011	0.333370
C78	C	-0.836415	1.176345	0.666703
C79	C	-1.505893	0.405355	0.000044
C80	C	-1.172560	0.738688	0.333377
C81	C	-0.839226	1.072021	0.666711
C82	C	-1.508143	0.322206	0.000051
C83	C	-1.174810	0.655539	0.333384
C84	C	-0.841476	0.988872	0.666717
C85	C	-1.510955	0.217876	0.000057
C86	C	-1.177622	0.551209	0.333390
C87	C	-0.844288	0.884543	0.666723
N88	N	-1.507057	-0.136223	-0.243487
N89	N	-1.173724	0.197110	0.089847
N90	N	-0.840391	0.530443	0.423180
C91	C	-1.507038	-0.136224	0.663407
C92	C	-1.173704	0.197109	0.996741
C93	C	-0.840371	0.530442	1.330074
C94	C	-1.507026	-0.136223	0.546602
C95	C	-1.173692	0.197111	0.879935
C96	C	-0.840359	0.530444	1.213269
C97	C	-1.507023	-0.136216	0.453504
C98	C	-1.173690	0.197117	0.786837
C99	C	-0.840357	0.530450	1.120170
C100	C	-1.507010	-0.136213	0.336691
C101	C	-1.173677	0.197120	0.670025
C102	C	-0.840343	0.530453	1.003358
H103	H	-1.115488	0.024000	-0.000047
H104	H	-0.782155	0.357334	0.333286
H105	H	-0.448821	0.690667	0.666620
H106	H	-0.941865	-0.053785	-0.155658
H107	H	-0.608532	0.279548	0.177676
H108	H	-0.275198	0.612882	0.511009
H109	H	-0.941898	-0.053776	0.155735
H110	H	-0.608565	0.279558	0.489068
H111	H	-0.275232	0.612891	0.822402
Cl112	Cl	-1.088545	-0.239123	-0.194675
Cl113	Cl	-0.755212	0.094210	0.138658
Cl114	Cl	-0.421879	0.427544	0.471992
H115	H	-0.898856	-0.296546	-0.000062
H116	H	-0.565523	0.036788	0.333272
H117	H	-0.232189	0.370121	0.666605
H118	H	-1.072219	-0.218587	0.155724
H119	H	-0.738886	0.114746	0.489058
H120	H	-0.405553	0.448080	0.822391
