data_functionalizedCrystal
_audit_creation_method	'MofGen! by Chris Wilmer'
_symmetry_space_group_name_H-M	'P1'
_symmetry_Int_Tables_number	1
_symmetry_cell_setting	triclinic
loop_
_symmetry_equiv_pos_as_xyz
  x,y,z
_cell_length_a	16.992701
_cell_length_b	11.892295
_cell_length_c	16.992695
_cell_angle_alpha	85.838279
_cell_angle_beta	89.332304
_cell_angle_gamma	85.845074
loop_
_atom_site_label
_atom_site_type_symbol
_atom_site_fract_x
_atom_site_fract_y
_atom_site_fract_z
O1	O	1.046133	0.094012	-0.171621
O2	O	0.817733	0.094012	-0.169792
O3	O	0.931018	0.094003	-0.056506
O4	O	0.932848	0.094021	-0.284907
O5	O	0.940441	-0.094000	-0.047074
O6	O	0.827156	-0.093990	-0.160360
O7	O	1.055556	-0.093991	-0.162190
Zn8	Zn	0.942852	-0.123840	-0.159777
Zn9	Zn	0.930437	0.123862	-0.172204
O10	O	0.942271	-0.093982	-0.275475
C11	C	0.793084	0.000011	-0.162721
C12	C	0.705600	0.000011	-0.155693
C13	C	0.213681	0.000011	-0.108471
C14	C	0.295882	0.000005	-0.115080
C15	C	0.332088	0.000016	-0.189509
C16	C	0.286090	0.000022	-0.257332
C17	C	0.203891	0.000020	-0.250721
C18	C	0.577402	0.000015	-0.216905
C19	C	0.659607	0.000020	-0.223511
C20	C	0.669394	0.000001	-0.081259
C21	C	0.587192	0.000006	-0.074655
C22	C	0.541201	0.000006	-0.142478
N23	N	0.416111	0.000013	-0.196267
N24	N	0.457181	0.000001	-0.135719
N25	N	0.951330	-0.292890	-0.151297
C26	C	0.862876	-0.529582	-0.239727
C27	C	0.868821	-0.647921	-0.233793
C28	C	0.969168	-0.647909	-0.133498
C29	C	0.963223	-0.529570	-0.139432
C30	C	0.910075	-0.470411	-0.192548
C31	C	0.904126	-0.352070	-0.198478
C32	C	1.004477	-0.352060	-0.098187
C33	C	1.010422	-0.470399	-0.092253
C34	C	1.080204	0.000013	-0.169261
C35	C	1.167688	0.000021	-0.176289
C36	C	0.933373	0.000002	-0.022430
C37	C	0.926345	0.000002	0.065054
N38	N	0.921964	0.292911	-0.180679
C39	C	0.939915	0.000022	-0.309551
C40	C	0.946943	0.000029	-0.397036
C41	C	0.994163	0.000001	0.111046
C42	C	0.987553	0.000012	0.193246
C43	C	0.913125	0.000016	0.229454
C44	C	0.845302	0.000020	0.183456
C45	C	0.851912	0.000018	0.101257
C46	C	0.885730	0.000031	0.474767
C47	C	0.879125	0.000030	0.556972
C48	C	1.021377	0.000024	0.566757
C49	C	1.027981	0.000014	0.484556
C50	C	0.960157	0.000025	0.438565
N51	N	0.906368	0.000023	0.313475
N52	N	0.966915	0.000026	0.354544
H53	H	0.166445	0.000024	-0.305946
H54	H	0.333326	-0.000007	-0.059855
N55	N	0.846805	-0.288268	-0.255768
H56	H	0.876603	-0.239155	-0.294985
H57	H	0.807610	-0.239248	-0.225890
H58	H	1.054770	-0.000009	0.081573
H59	H	0.184208	0.000010	-0.047864
N60	N	0.698661	0.000031	-0.303791
H61	H	0.657054	0.000028	-0.345754
H62	H	0.736049	-0.069661	-0.306131
H63	H	0.706848	-0.000000	-0.026041
N64	N	0.527810	-0.000113	-0.290047
H65	H	0.563224	-0.000144	-0.338196
H66	H	0.489958	0.069536	-0.293957
N67	N	1.060702	-0.000003	0.242850
H68	H	1.045223	0.000004	0.300417
H69	H	1.089427	0.069686	0.227117
H70	H	1.088588	0.000011	0.455082
H71	H	0.315576	0.000024	-0.317933
N72	N	1.094526	0.000011	0.616360
H73	H	1.079049	0.000012	0.673927
H74	H	1.123248	0.069704	0.600629
N75	N	0.798846	0.000036	0.596027
H76	H	0.756882	0.000046	0.554420
H77	H	0.789521	0.069731	0.626422
N78	N	0.548146	-0.000014	0.005623
H79	H	0.489094	-0.000010	-0.000481
H80	H	0.561159	0.069677	0.032031
H81	H	0.819595	-0.481413	-0.282971
H82	H	0.830388	-0.696095	-0.272212
H83	H	1.012446	-0.696092	-0.090258
N84	N	0.765027	0.000014	0.222507
H85	H	0.723067	0.000015	0.180896
H86	H	0.755691	0.069707	0.252901
H87	H	1.053697	-0.518580	-0.049009
N88	N	1.055387	-0.288241	-0.047294
H89	H	1.043557	-0.204296	-0.059110
H90	H	1.112838	-0.308909	-0.058879
N91	N	0.812581	0.000038	0.425169
H92	H	0.764431	0.000035	0.460582
H93	H	0.815717	-0.069657	0.394349
H94	H	0.796687	0.000019	0.063811
