data_functionalizedCrystal
_audit_creation_method	'MofGen! by Chris Wilmer'
_symmetry_space_group_name_H-M	'P1'
_symmetry_Int_Tables_number	1
_symmetry_cell_setting	triclinic
loop_
_symmetry_equiv_pos_as_xyz
  x,y,z
_cell_length_a	14.044220
_cell_length_b	14.044220
_cell_length_c	13.101039
_cell_angle_alpha	86.332523
_cell_angle_beta	93.659868
_cell_angle_gamma	93.188878
loop_
_atom_site_label
_atom_site_type_symbol
_atom_site_fract_x
_atom_site_fract_y
_atom_site_fract_z
O1	O	-1.281968	-0.225348	-0.085109
O2	O	-0.781968	0.274652	0.414891
O3	O	-1.005298	-0.217041	-0.085135
O4	O	-0.505298	0.282959	0.414865
O5	O	-1.139480	-0.082860	-0.085112
O6	O	-0.639480	0.417140	0.414888
O7	O	-1.147787	-0.359530	-0.085132
O8	O	-0.647787	0.140470	0.414868
O9	O	-1.129854	-0.092504	0.085316
O10	O	-0.629854	0.407496	0.585316
O11	O	-0.995673	-0.226686	0.085293
O12	O	-0.495673	0.273314	0.585293
O13	O	-1.272343	-0.234993	0.085319
O14	O	-0.772343	0.265007	0.585319
Zn15	Zn	-1.132479	-0.232371	0.112365
Zn16	Zn	-0.632479	0.267629	0.612365
Zn17	Zn	-1.145162	-0.219663	-0.112181
Zn18	Zn	-0.645162	0.280337	0.387819
O19	O	-1.138161	-0.369175	0.085296
O20	O	-0.638161	0.130825	0.585296
C21	C	-1.131031	-0.052060	0.000102
C22	C	-0.631031	0.447940	0.500102
C23	C	-1.120187	0.054083	0.000102
C24	C	-0.620187	0.554083	0.500102
C25	C	-0.964864	-0.218228	0.000076
C26	C	-0.464864	0.281772	0.500076
C27	C	-0.858722	-0.207383	0.000066
C28	C	-0.358722	0.292617	0.500066
C29	C	-1.312777	-0.233806	0.000106
C30	C	-0.812777	0.266194	0.500106
C31	C	-1.418920	-0.244651	0.000109
C32	C	-0.918920	0.255349	0.500109
C33	C	-0.664383	-0.187558	0.000088
C34	C	-0.164383	0.312442	0.500088
C35	C	-0.613253	-0.264472	0.000087
C36	C	-0.113253	0.235528	0.500087
C37	C	-0.505116	-0.253441	0.000099
C38	C	-0.005116	0.246559	0.500099
C39	C	-0.772529	-0.198587	0.000076
C40	C	-0.272529	0.301413	0.500076
C41	C	-1.146610	-0.399974	0.000080
C42	C	-0.646610	0.100026	0.500080
C43	C	-1.157455	-0.506116	0.000073
C44	C	-0.657455	-0.006116	0.500073
N45	N	-1.123831	-0.241043	0.265612
N46	N	-0.623831	0.258957	0.765612
C47	C	-1.100362	0.248421	0.000086
C48	C	-0.600362	0.748421	0.500086
C49	C	-1.177276	0.299551	0.000090
C50	C	-0.677276	0.799551	0.500090
C51	C	-1.166245	0.407688	0.000080
C52	C	-0.666245	0.907688	0.500080
C53	C	-1.111391	0.140275	0.000095
C54	C	-0.611391	0.640275	0.500095
N55	N	-1.153817	-0.210984	-0.265428
N56	N	-0.653817	0.289016	0.234572
C57	C	-1.112065	-0.252851	0.474653
C58	C	-0.612065	0.247149	0.974653
C59	C	-1.165580	-0.199179	0.525538
C60	C	-0.665580	0.300821	1.025538
C61	C	-1.159034	-0.205749	0.641855
C62	C	-0.659034	0.294251	1.141855
C63	C	-1.118610	-0.246282	0.358325
C64	C	-0.618610	0.253718	0.858325
H65	H	-0.650693	-0.338605	0.000077
H66	H	-0.150693	0.161395	0.500077
N67	N	-1.002165	0.297998	0.000081
N68	N	-0.502165	0.797998	0.500081
H69	H	-0.997731	0.342777	-0.063097
H70	H	-0.497731	0.842777	0.436903
H71	H	-0.990667	0.335581	0.063301
H72	H	-0.490667	0.835581	0.563301
N73	N	-0.614800	-0.089364	0.000107
N74	N	-0.114800	0.410636	0.500107
H75	H	-0.543459	-0.095305	0.000114
H76	H	-0.043459	0.404695	0.500114
H77	H	-0.637486	-0.049975	-0.063073
H78	H	-0.137486	0.450025	0.436927
N79	N	-1.275476	0.249968	0.000104
N80	N	-0.775476	0.749968	0.500104
H81	H	-1.269542	0.178627	0.000111
H82	H	-0.769542	0.678627	0.500111
H83	H	-1.307713	0.265535	0.063289
H84	H	-0.807713	0.765535	0.563289
N85	N	-1.232785	-0.131775	0.467539
N86	N	-0.732785	0.368225	0.967539
H87	H	-1.227999	-0.136576	0.391463
H88	H	-0.727999	0.363424	0.891463
H89	H	-1.300430	-0.149499	0.486227
H90	H	-0.800430	0.350501	0.986227
N91	N	-1.044875	-0.320263	0.532647
N92	N	-0.544875	0.179737	1.032647
H93	H	-0.977192	-0.302590	0.514050
H94	H	-0.477192	0.197410	1.014050
H95	H	-1.049748	-0.315434	0.608704
H96	H	-0.549748	0.184566	1.108704
