data_functionalizedCrystal
_audit_creation_method	'MofGen! by Chris Wilmer'
_symmetry_space_group_name_H-M	'P1'
_symmetry_Int_Tables_number	1
_symmetry_cell_setting	triclinic
loop_
_symmetry_equiv_pos_as_xyz
  x,y,z
_cell_length_a	13.185408
_cell_length_b	13.339070
_cell_length_c	7.540329
_cell_angle_alpha	89.998761
_cell_angle_beta	89.999446
_cell_angle_gamma	83.801397
loop_
_atom_site_label
_atom_site_type_symbol
_atom_site_fract_x
_atom_site_fract_y
_atom_site_fract_z
O1	O	1.373292	-0.243487	-0.147360
O2	O	1.084460	-0.148750	-0.147387
O3	O	1.195728	-0.334357	-0.147372
O4	O	1.262025	-0.057879	-0.147376
O5	O	1.195718	-0.334356	0.147594
O6	O	1.084450	-0.148749	0.147578
O7	O	1.373283	-0.243486	0.147605
Cu8	Cu	1.228866	-0.196117	0.174524
Cu9	Cu	1.228877	-0.196118	-0.174306
O10	O	1.262015	-0.057879	0.147589
C11	C	1.046733	-0.139145	0.000092
C12	C	0.934328	-0.110538	0.000081
C13	C	0.895277	-0.008684	0.000076
C14	C	0.789668	0.018197	0.000091
C15	C	0.723099	-0.056774	0.000098
C16	C	0.762150	-0.158631	0.000091
C17	C	0.867770	-0.185514	0.000089
C18	C	0.695592	-0.233605	0.000112
C19	C	0.734643	-0.335461	0.000104
C20	C	0.840253	-0.362340	0.000101
C21	C	0.906821	-0.287369	0.000094
C22	C	0.589973	-0.206722	0.000113
C23	C	0.562466	-0.383552	0.000127
C24	C	0.668075	-0.410432	0.000111
C25	C	1.184524	-0.368997	0.000108
C26	C	1.151143	-0.472211	0.000097
C27	C	1.410697	-0.907668	0.000123
C28	C	1.442064	-0.810695	0.000142
C29	C	1.369336	-0.726069	0.000130
C30	C	1.265237	-0.738426	0.000100
C31	C	1.233867	-0.835408	0.000094
C32	C	1.192506	-0.653810	0.000102
C33	C	1.088406	-0.666166	0.000072
C34	C	1.057042	-0.763140	0.000065
C35	C	1.129770	-0.847766	0.000077
C36	C	1.223876	-0.556827	0.000108
C37	C	1.047045	-0.484568	0.000079
C38	C	1.015679	-0.581541	0.000060
C39	C	1.411010	-0.253091	0.000122
C40	C	1.523415	-0.281698	0.000121
C41	C	1.273219	-0.023239	0.000106
C42	C	1.306600	0.079975	0.000105
N43	N	1.228865	-0.196119	0.419873
N44	N	1.228884	-0.196126	-0.419655
H45	H	0.949485	0.052346	0.000083
H46	H	0.558188	-0.123789	0.000122
C47	C	0.746713	0.130231	0.000103
C48	C	0.819929	0.212699	0.000097
C49	C	0.776974	0.324741	0.000111
C50	C	0.660804	0.354314	0.000132
C51	C	0.587582	0.271844	0.000138
C52	C	0.630536	0.159802	0.000123
H53	H	0.905931	0.190809	0.000082
H54	H	0.831179	0.385790	0.000107
H55	H	0.629007	0.437254	0.000143
H56	H	0.501579	0.293734	0.000153
H57	H	0.576331	0.098753	0.000127
H58	H	0.992818	-0.309250	0.000087
H59	H	0.699886	-0.493365	0.000105
H60	H	0.972278	-0.773195	0.000053
H61	H	0.637108	-0.034882	0.000113
H62	H	1.469901	-0.976575	0.000147
H63	H	0.872044	-0.445278	0.000118
H64	H	0.508265	-0.444600	0.000051
H65	H	1.394881	-0.647111	0.000147
H66	H	1.308634	-0.546778	0.000133
H67	H	1.526821	-0.800642	0.000170
H68	H	1.104236	-0.926732	0.000054
H69	H	0.930919	-0.591616	0.000036
H70	H	0.987824	-0.415664	0.000079
