data_functionalizedCrystal
_audit_creation_method	'MofGen! by Chris Wilmer'
_symmetry_space_group_name_H-M	'P1'
_symmetry_Int_Tables_number	1
_symmetry_cell_setting	triclinic
loop_
_symmetry_equiv_pos_as_xyz
  x,y,z
_cell_length_a	9.065215
_cell_length_b	9.065218
_cell_length_c	9.730223
_cell_angle_alpha	89.997438
_cell_angle_beta	89.997253
_cell_angle_gamma	85.015291
loop_
_atom_site_label
_atom_site_type_symbol
_atom_site_fract_x
_atom_site_fract_y
_atom_site_fract_z
O1	O	1.960401	0.216336	-0.114268
O2	O	2.293735	0.549669	0.219066
O3	O	2.627068	0.883003	0.552399
O4	O	1.531116	0.234087	-0.114273
O5	O	1.864449	0.567420	0.219060
O6	O	2.197783	0.900754	0.552393
O7	O	1.754632	0.010569	-0.114268
O8	O	2.087965	0.343902	0.219066
O9	O	2.421299	0.677236	0.552399
O10	O	1.736885	0.439854	-0.114274
O11	O	2.070219	0.773187	0.219060
O12	O	2.403552	1.106521	0.552393
O13	O	1.754617	0.010563	0.114312
O14	O	2.087951	0.343896	0.447646
O15	O	2.421284	0.677229	0.780979
O16	O	1.531101	0.234081	0.114306
O17	O	1.864435	0.567414	0.447640
O18	O	2.197768	0.900747	0.780973
O19	O	1.960387	0.216330	0.114312
O20	O	2.293720	0.549663	0.447645
O21	O	2.627053	0.882996	0.780979
Zn22	Zn	1.745742	0.225204	0.150601
Zn23	Zn	2.079075	0.558537	0.483935
Zn24	Zn	2.412408	0.891871	0.817268
Zn25	Zn	1.745761	0.225212	-0.150563
Zn26	Zn	2.079094	0.558546	0.182771
Zn27	Zn	2.412428	0.891879	0.516104
O28	O	1.736871	0.439848	0.114306
O29	O	2.070204	0.773181	0.447640
O30	O	2.403538	1.106514	0.780973
C31	C	1.476122	0.232379	0.000016
C32	C	1.809455	0.565712	0.333349
C33	C	2.142789	0.899045	0.666682
C34	C	1.312279	0.227281	0.000013
C35	C	1.645612	0.560614	0.333347
C36	C	1.978946	0.893947	0.666680
C37	C	1.752919	-0.044421	0.000020
C38	C	2.086252	0.288913	0.333353
C39	C	2.419586	0.622246	0.666687
C40	C	1.747819	-0.208264	0.000013
C41	C	2.081153	0.125070	0.333347
C42	C	2.414486	0.458403	0.666680
C43	C	2.015381	0.218038	0.000020
C44	C	2.348714	0.551371	0.333353
C45	C	2.682047	0.884704	0.666687
C46	C	2.179224	0.223136	0.000013
C47	C	2.512557	0.556469	0.333347
C48	C	2.845891	0.889802	0.666680
C49	C	1.738584	0.494837	0.000016
C50	C	2.071917	0.828171	0.333349
C51	C	2.405250	1.161504	0.666682
C52	C	1.743683	0.658680	0.000013
C53	C	2.077017	0.992014	0.333347
C54	C	2.410350	1.325347	0.666680
N55	N	1.745739	0.225198	0.356138
N56	N	2.079073	0.558531	0.689471
N57	N	2.412406	0.891864	1.022804
N58	N	1.745775	0.225207	-0.356099
N59	N	2.079108	0.558541	-0.022766
N60	N	2.412442	0.891874	0.310568
C61	C	1.844747	0.126266	0.428066
C62	C	2.178080	0.459600	0.761399
C63	C	2.511413	0.792933	1.094733
C64	C	1.844761	0.126267	0.571949
C65	C	2.178095	0.459600	0.905282
C66	C	2.511428	0.792934	1.238616
C67	C	1.646757	0.324143	0.571962
C68	C	1.980090	0.657477	0.905296
C69	C	2.313424	0.990810	1.238629
C70	C	1.646736	0.324134	0.428082
C71	C	1.980070	0.657468	0.761415
C72	C	2.313403	0.990801	1.094749
H73	H	1.925359	0.045704	0.369492
H74	H	2.258692	0.379038	0.702826
H75	H	2.592026	0.712371	1.036159
H76	H	1.566106	0.404697	0.369514
H77	H	1.899439	0.738030	0.702847
H78	H	2.232772	1.071363	1.036181
H79	H	1.925380	0.045707	0.630509
H80	H	2.258714	0.379040	0.963843
H81	H	2.592047	0.712373	1.297176
H82	H	1.566153	0.404697	0.630554
H83	H	1.899486	0.738031	0.963887
H84	H	2.232819	1.071364	1.297221
