data_functionalizedCrystal
_audit_creation_method	'MofGen! by Chris Wilmer'
_symmetry_space_group_name_H-M	'P1'
_symmetry_Int_Tables_number	1
_symmetry_cell_setting	triclinic
loop_
_symmetry_equiv_pos_as_xyz
  x,y,z
_cell_length_a	12.594517
_cell_length_b	12.594509
_cell_length_c	18.215405
_cell_angle_alpha	89.965356
_cell_angle_beta	90.024317
_cell_angle_gamma	89.977786
loop_
_atom_site_label
_atom_site_type_symbol
_atom_site_fract_x
_atom_site_fract_y
_atom_site_fract_z
Zn1	Zn	1.627202	-0.601838	-0.292973
Zn2	Zn	2.127202	-0.101838	0.207027
Zn3	Zn	1.627065	-0.423839	-0.416053
Zn4	Zn	2.127065	0.076161	0.083947
Zn5	Zn	1.449206	-0.423864	-0.293004
Zn6	Zn	1.949206	0.076136	0.206996
Zn7	Zn	1.449160	-0.601767	-0.416001
Zn8	Zn	1.949160	-0.101767	0.083999
O9	O	1.538158	-0.512827	-0.354508
O10	O	2.038158	-0.012827	0.145492
O11	O	1.776129	-0.578245	-0.309309
O12	O	2.276129	-0.078245	0.190691
O13	O	1.603433	-0.274897	-0.399765
O14	O	2.103433	0.225103	0.100235
O15	O	1.472893	-0.447513	-0.190016
O16	O	1.972893	0.052487	0.309984
O17	O	1.776029	-0.447471	-0.399735
O18	O	2.276029	0.052529	0.100265
O19	O	1.603666	-0.578269	-0.189993
O20	O	2.103666	-0.078269	0.310007
O21	O	1.472761	-0.274915	-0.309361
O22	O	1.972761	0.225085	0.190639
O23	O	1.300254	-0.447444	-0.309311
O24	O	1.800254	0.052556	0.190689
O25	O	1.472816	-0.750722	-0.399647
O26	O	1.972816	-0.250722	0.100353
O27	O	1.300221	-0.578148	-0.399677
O28	O	1.800221	-0.078148	0.100323
O29	O	1.603622	-0.750774	-0.309259
O30	O	2.103622	-0.250774	0.190741
O31	O	1.603389	-0.447402	-0.519031
O32	O	2.103389	0.052598	-0.019031
O33	O	1.472684	-0.578124	-0.518993
O34	O	1.972684	-0.078124	-0.018993
C35	C	1.261617	-0.512791	-0.354492
C36	C	1.761617	-0.012791	0.145508
C37	C	1.143312	-0.512801	-0.354503
C38	C	1.643312	-0.012801	0.145497
C39	C	1.538229	-0.790448	-0.354444
C40	C	2.038229	-0.290448	0.145556
C41	C	1.538260	-0.908753	-0.354416
C42	C	2.038260	-0.408753	0.145584
C43	C	1.003282	-0.441874	-0.305299
C44	C	1.503282	0.058126	0.194701
C45	C	1.074145	-0.539003	-0.287368
C46	C	1.574145	-0.039003	0.212632
C47	C	1.074021	-0.415683	-0.372401
C48	C	1.574021	0.084317	0.127599
C49	C	1.003389	-0.610060	-0.336566
C50	C	1.503389	-0.110060	0.163434
C51	C	1.003258	-0.486674	-0.421630
C52	C	1.503258	0.013326	0.078370
C53	C	1.074089	-0.583870	-0.403725
C54	C	1.574089	-0.083870	0.096275
C55	C	1.467137	-0.977978	-0.403550
C56	C	1.967137	-0.477978	0.096450
C57	C	1.564253	-1.048767	-0.421532
C58	C	2.064253	-0.548767	0.078468
C59	C	1.441219	-1.048764	-0.336390
C60	C	1.941219	-0.548764	0.163610
C61	C	1.635427	-0.977984	-0.372433
C62	C	2.135427	-0.477984	0.127567
C63	C	1.512327	-0.977974	-0.287260
C64	C	2.012327	-0.477974	0.212740
C65	C	1.609511	-1.048731	-0.305216
C66	C	2.109511	-0.548731	0.194784
C67	C	1.815779	-0.512863	-0.354525
C68	C	2.315779	-0.012863	0.145475
C69	C	1.934084	-0.512879	-0.354532
C70	C	2.434084	-0.012879	0.145468
C71	C	1.538046	-0.512776	-0.545714
C72	C	2.038046	-0.012776	-0.045714
C73	C	1.538095	-0.512789	-0.627513
C74	C	2.038095	-0.012789	-0.127513
C75	C	1.538148	-0.236286	-0.354519
C76	C	2.038148	0.263714	0.145481
C77	C	1.538324	-0.117981	-0.354339
C78	C	2.038324	0.382019	0.145661
C79	C	1.606313	-0.444847	-0.815702
C80	C	2.106313	0.055153	-0.315702
C81	C	1.606361	-0.444873	-0.892561
C82	C	2.106361	0.055127	-0.392561
C83	C	1.470139	-0.580883	-0.892561
C84	C	1.970139	-0.080883	-0.392561
C85	C	1.470098	-0.580862	-0.815704
C86	C	1.970098	-0.080862	-0.315704
C87	C	1.538183	-0.512838	-0.777277
C88	C	2.038183	-0.012838	-0.277277
C89	C	1.538272	-0.512885	-0.930993
C90	C	2.038272	-0.012885	-0.430993
C91	C	1.538323	-0.512913	-1.014326
C92	C	2.038323	-0.012913	-0.514326
C93	C	1.538134	-0.512811	-0.693938
C94	C	2.038134	-0.012811	-0.193938
C95	C	1.538300	-0.512902	-0.162555
C96	C	2.038300	-0.012902	0.337445
C97	C	1.538360	-0.512933	-0.080756
C98	C	2.038360	-0.012933	0.419244
H99	H	0.972196	-0.381934	-0.263645
H100	H	1.472196	0.118066	0.236355
Cl101	Cl	1.122208	-0.573192	-0.199741
Cl102	Cl	1.622208	-0.073192	0.300259
Cl103	Cl	1.692017	-0.359398	-0.940865
Cl104	Cl	2.192017	0.140602	-0.440865
H105	H	1.586222	-1.079863	-0.478292
H106	H	2.086222	-0.579863	0.021708
Cl107	Cl	1.384547	-0.666390	-0.940875
Cl108	Cl	1.884547	-0.166390	-0.440875
Cl109	Cl	1.384447	-0.666348	-0.767394
Cl110	Cl	1.884447	-0.166348	-0.267394
H111	H	0.972491	-0.692248	-0.321374
H112	H	1.472491	-0.192248	0.178626
Cl113	Cl	0.955142	-0.452449	-0.509231
Cl114	Cl	1.455142	0.047551	-0.009231
Cl115	Cl	1.121788	-0.676628	-0.467988
Cl116	Cl	1.621788	-0.176628	0.032012
H117	H	1.490330	-0.946855	-0.230516
H118	H	1.990330	-0.446855	0.269484
Cl119	Cl	1.121928	-0.288828	-0.395755
Cl120	Cl	1.621928	0.211172	0.104245
H121	H	1.669755	-1.079601	-0.263632
H122	H	2.169755	-0.579601	0.236368
H123	H	1.407037	-0.946913	-0.445166
H124	H	1.907037	-0.446913	0.054834
H125	H	1.717544	-0.947024	-0.387712
H126	H	2.217544	-0.447024	0.112288
H127	H	1.359126	-1.079855	-0.321175
H128	H	1.859126	-0.579855	0.178825
H129	H	1.661754	-0.389460	-0.784417
H130	H	2.161754	0.110540	-0.284417
