data_functionalizedCrystal
_audit_creation_method	'MofGen! by Chris Wilmer'
_symmetry_space_group_name_H-M	'P1'
_symmetry_Int_Tables_number	1
_symmetry_cell_setting	triclinic
loop_
_symmetry_equiv_pos_as_xyz
  x,y,z
_cell_length_a	14.628931
_cell_length_b	14.628931
_cell_length_c	14.628931
_cell_angle_alpha	59.999972
_cell_angle_beta	90.000118
_cell_angle_gamma	60.000000
loop_
_atom_site_label
_atom_site_type_symbol
_atom_site_fract_x
_atom_site_fract_y
_atom_site_fract_z
Zr1	Zr	0.880620	1.000576	-0.119961
O2	O	0.734659	1.191282	-0.265922
O3	O	0.925365	0.809870	-0.075216
O4	O	0.925365	1.000576	-0.265922
O5	O	0.734660	1.000576	0.075216
O6	O	1.075797	1.000575	-0.265921
O7	O	0.734659	1.000576	-0.075216
O8	O	1.075797	0.659438	0.075217
O9	O	0.734659	1.341714	-0.265922
O10	O	1.056714	0.888310	-0.056133
O11	O	0.944448	0.888310	0.056133
O12	O	0.944448	1.112841	-0.168399
O13	O	0.832183	1.112842	-0.056133
Zr14	Zr	1.120543	1.000575	0.119961
Zr15	Zr	1.120542	1.000575	-0.119961
Zr16	Zr	0.880621	1.000576	0.119961
Zr17	Zr	0.880621	1.240497	-0.119961
Zr18	Zr	1.120542	0.760654	0.119961
O19	O	1.075798	1.191281	0.075216
O20	O	1.075797	1.191281	-0.265922
O21	O	0.734660	1.191282	0.075215
O22	O	1.266504	0.809869	0.265922
O23	O	1.266503	0.809869	-0.075215
O24	O	0.925366	0.809870	0.265922
O25	O	1.266503	1.000575	-0.075216
O26	O	1.075798	1.000575	0.265922
O27	O	0.925366	1.000576	0.265921
O28	O	1.266503	1.000575	0.075216
O29	O	0.925365	1.341713	-0.265922
O30	O	1.075797	0.659438	0.265922
O31	O	1.266503	0.659437	0.265922
O32	O	1.266503	0.659437	0.075217
O33	O	0.734660	1.341714	-0.075217
O34	O	0.925366	1.341713	-0.075217
O35	O	1.056714	0.888310	0.168399
O36	O	1.168980	0.888309	0.056133
O37	O	1.056714	1.112841	-0.056133
O38	O	0.944449	1.112841	0.056133
C39	C	1.000581	0.700470	0.000000
C40	C	1.000581	0.598617	0.000001
C41	C	1.056272	0.553208	-0.055691
C42	C	1.056273	0.447938	-0.055692
C43	C	0.700476	1.000576	-0.000000
C44	C	0.598623	1.000577	-0.000001
C45	C	0.608905	0.889194	0.055691
C46	C	0.503635	0.889192	0.055692
C47	C	1.300687	1.000575	0.000000
C48	C	1.402540	1.000574	0.000001
C49	C	1.000581	1.000576	-0.300105
C50	C	1.000581	1.000576	-0.401958
C51	C	1.000582	1.300681	-0.000000
C52	C	1.000582	1.402534	-0.000001
C53	C	0.921823	1.000576	-0.552633
C54	C	0.921821	1.000576	-0.447362
C55	C	1.000582	1.000576	0.300105
C56	C	1.000582	1.000576	0.401958
C57	C	1.300687	0.700469	0.000001
C58	C	1.402540	0.598616	0.000001
C59	C	1.000582	0.700470	0.300106
C60	C	1.000582	0.598617	0.401959
C61	C	1.300687	0.700469	0.300106
C62	C	1.402540	0.598616	0.401959
C63	C	0.700476	1.300682	-0.300106
C64	C	0.598622	1.402535	-0.401959
C65	C	0.700476	1.300682	-0.000001
C66	C	0.598623	1.402535	-0.000001
C67	C	1.000581	1.300681	-0.300106
C68	C	1.000581	1.402534	-0.401959
C69	C	1.392257	0.553207	-0.055690
C70	C	1.497526	0.447936	-0.055691
C71	C	1.056273	0.553208	0.503060
C72	C	1.056275	0.447938	0.608331
C73	C	1.503641	0.553207	0.391677
C74	C	1.608913	0.447936	0.496947
H75	H	0.952895	0.441584	0.047676
H76	H	0.393903	1.095938	-0.047686
H77	H	1.511899	0.441570	0.606679
O78	O	0.841472	1.000341	-0.599064
C79	C	0.846686	0.888999	-0.520054
H80	H	0.934060	0.811172	-0.454764
H81	H	0.827872	0.851614	-0.564347
H82	H	0.782345	0.914177	-0.477164
O83	O	1.081122	1.000345	-0.448459
C84	C	1.141668	0.889005	-0.448170
H85	H	1.133589	0.811174	-0.380354
H86	H	1.233657	0.851624	-0.430660
H87	H	1.106719	0.914184	-0.533259
O88	O	1.113001	0.599929	0.513407
C89	C	1.069944	0.655323	0.572422
H90	H	0.980648	0.683971	0.564534
H91	H	1.070022	0.744749	0.535955
H92	H	1.124343	0.582045	0.664495
H93	H	0.854388	1.000583	-0.408316
H94	H	1.512264	0.592268	0.304942
H95	H	1.488898	0.408881	-0.103366
O96	O	0.943860	0.449086	0.494524
C97	C	1.019149	0.425675	0.435716
H98	H	1.096296	0.413667	0.472365
H99	H	0.976699	0.510724	0.343632
H100	H	1.045333	0.333706	0.443595
H101	H	0.512264	0.793833	0.103364
O102	O	0.495211	1.114425	-0.057050
C103	C	0.482848	1.185753	-0.171469
H104	H	0.568963	1.152554	-0.181120
H105	H	0.432406	1.292984	-0.207379
H106	H	0.437179	1.169399	-0.218429
O107	O	0.943875	0.551785	0.056968
C108	C	1.019188	0.417686	0.139173
H109	H	1.096332	0.377221	0.114517
H110	H	0.976760	0.368032	0.146204
H111	H	1.045371	0.399370	0.223268
O112	O	0.712459	0.775543	0.112476
C113	C	0.794512	0.800847	0.099849
H114	H	0.757113	0.901601	0.020689
H115	H	0.868346	0.726060	0.093103
H116	H	0.824427	0.795340	0.175543
O117	O	1.608796	0.449079	0.056972
C118	C	1.556918	0.425666	0.139191
H119	H	1.491776	0.413663	0.114546
H120	H	1.514323	0.510712	0.146231
H121	H	1.622704	0.333694	0.223279
O122	O	1.080996	1.000712	-0.551586
C123	C	1.075804	1.112067	-0.630510
H124	H	1.033809	1.149228	-0.718617
H125	H	1.164164	1.086984	-0.621093
H126	H	1.025243	1.190031	-0.615642
O127	O	1.288703	0.599897	-0.112476
C128	C	1.206650	0.694627	-0.099850
H129	H	1.244048	0.678822	-0.020690
H130	H	1.132815	0.686929	-0.093105
H131	H	1.176737	0.794728	-0.175544
H132	H	1.489276	0.559562	0.047675
O133	O	1.113336	0.401238	0.711771
C134	C	1.227746	0.345849	0.724114
H135	H	1.248519	0.317182	0.663480
H136	H	1.280703	0.256436	0.813625
H137	H	1.246532	0.419138	0.705221
H138	H	0.952898	0.559564	0.393339
O139	O	1.712461	0.401267	0.486841
C140	C	1.794517	0.306543	0.594196
H141	H	1.757115	0.322336	0.657555
H142	H	1.868340	0.314262	0.593242
H143	H	1.824448	0.206438	0.618602
O144	O	1.392188	0.552233	0.505407
C145	C	1.333170	0.654302	0.517747
H146	H	1.341062	0.735710	0.457107
H147	H	1.369632	0.617751	0.607255
H148	H	1.241096	0.691979	0.498860
O149	O	1.113255	0.599611	-0.112590
C150	C	1.165013	0.536975	-0.164396
H151	H	1.176677	0.439943	-0.118497
H152	H	1.250117	0.520557	-0.161215
H153	H	1.110103	0.599773	-0.255365
H154	H	1.103948	0.408893	-0.103376
