data_functionalizedCrystal
_audit_creation_method	'MofGen! by Chris Wilmer'
_symmetry_space_group_name_H-M	'P1'
_symmetry_Int_Tables_number	1
_symmetry_cell_setting	triclinic
loop_
_symmetry_equiv_pos_as_xyz
  x,y,z
_cell_length_a	12.759395
_cell_length_b	16.625546
_cell_length_c	12.759387
_cell_angle_alpha	89.964440
_cell_angle_beta	89.979491
_cell_angle_gamma	90.024005
loop_
_atom_site_label
_atom_site_type_symbol
_atom_site_fract_x
_atom_site_fract_y
_atom_site_fract_z
Zn1	Zn	1.606212	-0.320926	-0.593970
Zn2	Zn	1.606079	-0.455781	-0.418276
Zn3	Zn	1.430510	-0.320970	-0.418307
Zn4	Zn	1.430479	-0.455724	-0.593915
O5	O	1.518320	-0.388350	-0.506117
O6	O	1.753215	-0.338820	-0.570674
O7	O	1.582747	-0.437941	-0.271259
O8	O	1.453886	-0.208132	-0.441645
O9	O	1.753118	-0.437898	-0.441592
O10	O	1.582974	-0.208099	-0.570704
O11	O	1.453757	-0.338895	-0.271282
O12	O	1.283485	-0.338840	-0.441592
O13	O	1.453833	-0.437800	-0.740944
O14	O	1.283462	-0.437843	-0.570610
O15	O	1.582943	-0.338765	-0.740984
O16	O	1.582716	-0.568606	-0.441539
O17	O	1.453704	-0.568564	-0.570580
C18	C	1.245352	-0.388341	-0.506099
C19	C	1.128576	-0.388356	-0.506116
C20	C	1.128590	-0.491615	-0.640246
C21	C	1.073737	-0.543250	-0.707314
C22	C	0.964015	-0.543260	-0.707327
C23	C	0.909144	-0.491627	-0.640267
C24	C	0.963998	-0.439991	-0.573199
C25	C	1.073722	-0.439989	-0.573191
C26	C	0.963984	-0.336730	-0.439076
C27	C	1.073705	-0.336723	-0.439056
C28	C	0.909113	-0.285096	-0.372016
C29	C	0.963967	-0.233463	-0.304942
C30	C	1.073695	-0.233456	-0.304931
C31	C	1.128559	-0.285087	-0.371989
C32	C	1.518220	-0.597841	-0.506073
C33	C	1.518274	-0.687462	-0.506090
C34	C	1.518457	-1.015638	-0.506199
C35	C	1.518403	-0.924329	-0.506171
C36	C	1.518365	-0.851553	-0.506144
C37	C	1.518312	-0.760239	-0.506117
C38	C	1.792353	-0.388361	-0.506136
C39	C	1.909130	-0.388365	-0.506144
C40	C	1.518399	-0.388271	-0.780151
C41	C	1.518433	-0.388238	-0.896928
C42	C	1.518448	-0.178041	-0.506184
C43	C	1.518503	-0.088420	-0.506213
C44	C	1.652885	-0.285119	-0.896990
C45	C	1.720126	-0.233547	-0.951881
C46	C	1.720151	-0.233518	-1.061603
C47	C	1.652927	-0.285064	-1.116435
C48	C	1.585686	-0.336635	-1.061544
C49	C	1.585670	-0.336661	-0.951819
C50	C	1.451230	-0.439749	-1.061482
C51	C	1.451209	-0.439784	-0.951760
C52	C	1.384006	-0.491295	-1.116314
C53	C	1.316769	-0.542872	-1.061422
C54	C	1.316747	-0.542900	-0.951694
C55	C	1.383968	-0.491355	-0.896868
C56	C	1.518301	-0.388371	-0.233150
C57	C	1.518471	-0.388177	-0.116374
H58	H	0.919353	-0.585302	-0.761944
C59	C	1.134090	-0.600045	-0.781075
H60	H	1.085706	-0.630792	-0.821025
H61	H	1.176860	-0.635134	-0.740796
H62	H	1.176925	-0.569238	-0.826929
H63	H	0.819803	-0.491632	-0.640292
C64	C	1.794071	-0.176854	-0.891565
H65	H	1.784436	-0.184261	-0.818357
H66	H	1.778744	-0.122672	-0.909563
H67	H	1.864658	-0.188667	-0.909556
H68	H	1.261980	-0.584887	-0.907008
H69	H	1.384028	-0.491264	-1.205655
C70	C	1.652950	-0.285027	-1.237126
H71	H	1.702625	-0.246932	-1.261964
H72	H	1.585166	-0.271072	-1.261941
H73	H	1.671094	-0.337057	-1.261932
H74	H	1.774898	-0.191519	-1.106296
C75	C	1.242835	-0.599565	-1.121737
H76	H	1.252481	-0.592162	-1.194945
H77	H	1.172248	-0.587768	-1.103747
H78	H	1.258179	-0.653750	-1.103745
H79	H	1.652881	-0.285145	-0.807648
C80	C	1.383941	-0.491385	-0.776178
H81	H	1.334272	-0.529483	-0.751336
H82	H	1.365811	-0.439355	-0.751377
H83	H	1.451728	-0.505348	-0.751362
C84	C	0.788422	-0.285102	-0.372027
H85	H	0.763603	-0.246953	-0.322491
H86	H	0.763568	-0.337116	-0.353732
H87	H	0.763639	-0.271222	-0.439867
C88	C	1.249281	-0.491603	-0.640239
H89	H	1.274103	-0.529742	-0.689787
H90	H	1.274074	-0.505473	-0.572406
H91	H	1.274124	-0.439582	-0.658546
H92	H	0.919282	-0.191424	-0.250352
C93	C	1.134026	-0.176654	-0.231158
H94	H	1.085629	-0.145911	-0.191222
H95	H	1.176864	-0.141560	-0.271430
H96	H	1.176791	-0.207452	-0.185291
H97	H	1.217900	-0.285088	-0.371983
