data_functionalizedCrystal
_audit_creation_method	'MofGen! by Chris Wilmer'
_symmetry_space_group_name_H-M	'P1'
_symmetry_Int_Tables_number	1
_symmetry_cell_setting	triclinic
loop_
_symmetry_equiv_pos_as_xyz
  x,y,z
_cell_length_a	6.817900
_cell_length_b	17.253917
_cell_length_c	16.015572
_cell_angle_alpha	81.607036
_cell_angle_beta	104.485554
_cell_angle_gamma	102.659311
loop_
_atom_site_label
_atom_site_type_symbol
_atom_site_fract_x
_atom_site_fract_y
_atom_site_fract_z
V1	V	-3.991577	-0.031760	-0.271733
O2	O	-3.979873	0.080951	-0.258300
O3	O	-3.943227	-0.139362	-0.277819
O4	O	-3.927881	0.003579	-0.386621
O5	O	-3.995325	-0.062980	-0.148745
V6	V	-4.477181	-0.022396	-0.256058
O7	O	-4.248272	-0.052300	-0.306118
O8	O	-4.670684	-0.001856	-0.221672
O9	O	-4.302325	0.085206	-0.249972
O10	O	-4.606282	-0.135107	-0.269491
O11	O	-4.590830	0.008824	-0.379046
O12	O	-4.317671	-0.057735	-0.141170
C13	C	-3.788735	-0.166682	-0.275582
C14	C	-3.830387	-0.254424	-0.281324
C15	C	-3.820021	-0.307070	-0.205740
C16	C	-3.859178	-0.389512	-0.211138
C17	C	-3.908686	-0.419307	-0.292121
C18	C	-3.919057	-0.366654	-0.367711
C19	C	-3.879915	-0.284213	-0.362312
C20	C	-4.028973	-0.664643	-0.316662
C21	C	-4.068110	-0.747090	-0.322054
C22	C	-4.008231	-0.769943	-0.165481
C23	C	-3.969080	-0.687499	-0.160089
C24	C	-3.979465	-0.634854	-0.235679
N25	N	-3.948704	-0.503576	-0.297640
N26	N	-3.939461	-0.550587	-0.230159
C27	C	-3.769158	0.015654	-0.414369
C28	C	-3.798363	0.043835	-0.508342
C29	C	-4.087113	-0.206301	-0.904406
C30	C	-4.114560	-0.179795	-0.992702
C31	C	-4.037508	-0.042661	-0.957891
C32	C	-4.010044	-0.069156	-0.869589
C33	C	-4.034853	-0.150977	-0.842855
C34	C	-3.957784	-0.013831	-0.808038
C35	C	-3.930333	-0.040324	-0.719745
C36	C	-3.955143	-0.122142	-0.693003
C37	C	-4.007402	-0.177470	-0.754562
C38	C	-3.932991	0.067989	-0.834775
C39	C	-3.880731	0.123314	-0.773224
C40	C	-3.853265	0.096821	-0.684929
C41	C	-3.878074	0.015004	-0.658186
C42	C	-3.801006	0.152149	-0.623370
C43	C	-3.773555	0.125656	-0.535077
C44	C	-3.850623	-0.011489	-0.569893
C45	C	-4.120159	0.112521	-0.252206
C46	C	-4.057744	0.200264	-0.246470
C47	C	-4.139736	-0.069814	-0.113418
C48	C	-4.089770	-0.097991	-0.019443
H49	H	-4.037406	-0.621788	-0.378212
H50	H	-3.959384	-0.390919	-0.433649
H51	H	-4.108416	-0.771345	-0.388003
H52	H	-3.850739	-0.432374	-0.149590
H53	H	-3.888379	-0.241349	-0.423862
H54	H	-3.999784	-0.812815	-0.103940
Cl55	Cl	-3.967519	0.101294	-0.945775
Cl56	Cl	-3.906841	-0.650050	-0.058278
Cl57	Cl	-3.707942	0.195206	-0.457696
Cl58	Cl	-3.881764	-0.114351	-0.536276
H59	H	-3.779694	-0.282818	-0.139795
H60	H	-3.932795	-0.143711	-0.621108
Cl61	Cl	-4.038542	-0.280332	-0.720944
Cl62	Cl	-4.118253	-0.309163	-0.870789
Cl63	Cl	-3.849548	0.226171	-0.806843
Cl64	Cl	-4.180269	-0.249356	-1.070081
Cl65	Cl	-3.769849	0.255005	-0.656992
Cl66	Cl	-4.006326	0.060196	-0.991510
