data_functionalizedCrystal
_audit_creation_method	'MofGen! by Chris Wilmer'
_symmetry_space_group_name_H-M	'P1'
_symmetry_Int_Tables_number	1
_symmetry_cell_setting	triclinic
loop_
_symmetry_equiv_pos_as_xyz
  x,y,z
_cell_length_a	16.120530
_cell_length_b	16.120444
_cell_length_c	16.120297
_cell_angle_alpha	84.384883
_cell_angle_beta	89.871860
_cell_angle_gamma	90.168401
loop_
_atom_site_label
_atom_site_type_symbol
_atom_site_fract_x
_atom_site_fract_y
_atom_site_fract_z
Zn1	Zn	1.224979	-0.422266	0.554818
Zn2	Zn	1.224872	-0.554951	0.422125
Zn3	Zn	1.093719	-0.408182	0.408061
Zn4	Zn	1.078869	-0.554183	0.554057
O5	O	1.155610	-0.484895	0.484765
O6	O	1.341001	-0.446082	0.543421
O7	O	1.213644	-0.529908	0.303627
O8	O	1.117390	-0.293419	0.421961
O9	O	1.340922	-0.543565	0.445931
O10	O	1.213826	-0.303767	0.529783
O11	O	1.117286	-0.422078	0.293294
O12	O	0.975713	-0.421333	0.421223
O13	O	1.092082	-0.542257	0.670791
O14	O	0.964804	-0.528600	0.528486
O15	O	1.199428	-0.445338	0.671350
O16	O	1.199245	-0.671480	0.445193
O17	O	1.091978	-0.670916	0.542124
C18	C	0.940172	-0.473356	0.473247
C19	C	0.848004	-0.468440	0.468340
C20	C	0.679253	-0.459446	0.459387
C21	C	0.632801	-0.510409	0.510208
C22	C	0.538902	-0.505404	0.505226
C23	C	0.773160	-0.464449	0.464367
C24	C	1.144010	-0.701441	0.495121
C25	C	1.139122	-0.794086	0.499584
C26	C	1.181160	-1.005244	0.461807
C27	C	1.130213	-0.963704	0.507740
C28	C	1.135171	-0.869320	0.503201
C29	C	1.176203	-1.099637	0.466346
C30	C	1.371889	-0.496481	0.496330
C31	C	1.464055	-0.501417	0.501258
C32	C	1.144110	-0.495283	0.702158
C33	C	1.139210	-0.499710	0.794797
C34	C	1.167277	-0.267506	0.474388
C35	C	1.172248	-0.174868	0.469966
C36	C	1.167116	-0.474490	0.268218
C37	C	1.172189	-0.469838	0.175577
C38	C	1.130233	-0.507771	0.964409
C39	C	1.181163	-0.461778	1.005971
C40	C	1.176169	-0.466264	1.100348
C41	C	1.135227	-0.503287	0.870023
H42	H	0.648503	-0.412062	0.412140
C43	C	1.066246	-1.011414	0.565463
C44	C	1.061306	-1.107163	0.569974
C45	C	0.997338	-1.154876	0.627689
C46	C	0.938309	-1.106839	0.680894
C47	C	0.943248	-1.011084	0.676385
C48	C	1.007216	-0.963371	0.618670
H49	H	1.105004	-1.142728	0.530587
H50	H	0.993682	-1.225760	0.631026
H51	H	0.890956	-1.142159	0.723618
H52	H	0.899550	-0.975520	0.715772
H53	H	1.010871	-0.892487	0.615333
C54	C	1.245109	-0.957535	0.404072
C55	C	1.338401	-0.974674	0.416534
C56	C	1.402345	-0.926954	0.358797
C57	C	1.372998	-0.862095	0.288596
C58	C	1.279702	-0.844953	0.276131
C59	C	1.215757	-0.892673	0.333868
H60	H	1.360129	-1.022689	0.468503
H61	H	1.471410	-0.939644	0.368025
H62	H	1.420334	-0.826770	0.245856
H63	H	1.257973	-0.796938	0.224162
H64	H	1.146693	-0.879983	0.324640
C65	C	1.245141	-0.404035	0.958293
C66	C	1.250113	-0.399575	0.862550
C67	C	1.314090	-0.341836	0.814869
C68	C	1.373093	-0.288557	0.862931
C69	C	1.368123	-0.293015	0.958679
C70	C	1.304147	-0.350754	1.006360
H71	H	1.206433	-0.439017	0.826967
H72	H	1.317769	-0.338536	0.743990
H73	H	1.420453	-0.245815	0.827634
H74	H	1.411803	-0.253573	0.994262
H75	H	1.300468	-0.354054	1.077240
C76	C	1.066269	-0.565521	1.012087
C77	C	1.061310	-0.569983	1.107831
C78	C	0.997350	-0.627735	1.155521
C79	C	0.938350	-0.681024	1.107467
C80	C	0.943307	-0.676564	1.011718
C81	C	1.007267	-0.618813	0.964028
H82	H	1.104988	-0.530533	1.143408
H83	H	0.993681	-0.631036	1.226401
H84	H	0.891003	-0.723776	1.142770
H85	H	0.899629	-0.716014	0.976141
H86	H	1.010936	-0.615512	0.893148
C87	C	0.674337	-0.574437	0.574035
C88	C	0.769604	-0.579422	0.578986
C89	C	0.811144	-0.643452	0.642806
C90	C	0.757418	-0.702496	0.701675
C91	C	0.662145	-0.697513	0.696726
C92	C	0.620605	-0.633483	0.632906
H93	H	0.809381	-0.535713	0.535405
H94	H	0.881672	-0.647140	0.646469
H95	H	0.788168	-0.749894	0.748919
H96	H	0.622368	-0.741222	0.740306
H97	H	0.550077	-0.629795	0.629243
