data_functionalizedCrystal
_audit_creation_method	'MofGen! by Chris Wilmer'
_symmetry_space_group_name_H-M	'P1'
_symmetry_Int_Tables_number	1
_symmetry_cell_setting	triclinic
loop_
_symmetry_equiv_pos_as_xyz
  x,y,z
_cell_length_a	17.038272
_cell_length_b	8.559649
_cell_length_c	7.681481
_cell_angle_alpha	85.069100
_cell_angle_beta	96.145203
_cell_angle_gamma	80.445110
loop_
_atom_site_label
_atom_site_type_symbol
_atom_site_fract_x
_atom_site_fract_y
_atom_site_fract_z
O1	O	-1.008525	-0.358157	0.146201
O2	O	-0.781219	-0.352697	0.146253
O3	O	-0.914898	-0.125546	0.146221
O4	O	-0.874846	-0.585307	0.146234
O5	O	-0.931355	-0.097520	-0.146641
O6	O	-0.797676	-0.324671	-0.146609
O7	O	-1.024983	-0.330131	-0.146661
Zn8	Zn	-0.913942	-0.322951	-0.193133
Zn9	Zn	-0.892259	-0.359876	0.192725
O10	O	-0.891303	-0.557281	-0.146628
C11	C	-0.760617	-0.333714	-0.000171
C12	C	-0.674711	-0.318886	-0.000151
C13	C	-1.045584	-0.349114	-0.000232
C14	C	-1.131489	-0.363943	-0.000241
N15	N	-0.928747	-0.297750	-0.456471
C16	C	-0.616439	-0.455039	-0.000149
C17	C	-0.535725	-0.441093	-0.000173
C18	C	-0.513285	-0.290994	-0.000188
C19	C	-0.571564	-0.154831	-0.000196
C20	C	-0.652277	-0.168777	-0.000184
C21	C	-0.270481	-0.241725	-0.000236
C22	C	-0.189761	-0.227790	-0.000243
C23	C	-0.153928	-0.514053	-0.000224
C24	C	-0.234644	-0.527987	-0.000202
C25	C	-0.292916	-0.391823	-0.000219
C26	C	-0.430782	-0.276737	-0.000208
C27	C	-0.375418	-0.406081	-0.000212
C28	C	-0.926162	-0.052416	-0.000208
C29	C	-0.935196	0.123735	-0.000200
C30	C	-0.880039	-0.630411	-0.000196
C31	C	-0.871004	-0.806564	-0.000192
N32	N	-0.877461	-0.385066	0.456063
H33	H	-0.634703	-0.577265	-0.000136
H34	H	-0.809136	0.118349	-0.000184
H35	H	-0.825110	-0.474189	-0.468727
O36	O	-0.991178	-0.191219	-0.546000
C37	C	-1.056128	0.083654	-0.602837
C38	C	-0.985399	-0.036825	-0.501304
H39	H	-1.051470	0.208512	-0.566765
H40	H	-1.115036	0.051365	-0.566647
H41	H	-1.054209	0.080278	-0.750380
H42	H	-0.987242	-0.033513	-0.353737
H43	H	-0.926522	-0.004495	-0.537640
O44	O	-1.009047	0.213273	-0.000533
C45	C	-1.142881	0.294527	-0.152227
C46	C	-1.059278	0.193083	-0.152091
H47	H	-1.183521	0.278213	-0.274730
H48	H	-1.137319	0.425438	-0.152352
H49	H	-1.169711	0.254944	-0.029611
H50	H	-1.032400	0.232526	-0.274686
H51	H	-1.064892	0.062193	-0.151875
O52	O	-0.479134	-0.573433	0.000148
C53	C	-0.415313	-0.828389	0.151841
C54	C	-0.479416	-0.678575	0.151719
H55	H	-0.415531	-0.913452	0.274354
H56	H	-0.353741	-0.792756	0.151934
H57	H	-0.429250	-0.889918	0.029236
H58	H	-0.465555	-0.616976	0.274304
H59	H	-0.540968	-0.714309	0.151534
O60	O	-0.256316	-0.673914	0.000053
C61	C	-0.241847	-0.937326	0.151879
C62	C	-0.217232	-0.772136	0.151771
H63	H	-0.210272	-1.016775	0.274548
H64	H	-0.223999	-0.993558	0.029407
H65	H	-0.309549	-0.923894	0.151811
H66	H	-0.149535	-0.785429	0.151901
H67	H	-0.235138	-0.715963	0.274232
O68	O	-0.397192	-0.551886	-0.000505
C69	C	-0.399765	-0.786356	-0.152130
C70	C	-0.375071	-0.621244	-0.152049
H71	H	-0.381875	-0.842494	-0.274621
H72	H	-0.467467	-0.773003	-0.152235
H73	H	-0.368182	-0.865856	-0.029503
H74	H	-0.406598	-0.541655	-0.274655
H75	H	-0.307361	-0.634718	-0.151852
H76	H	-0.106475	-0.624909	-0.000214
H77	H	-0.171495	-0.105556	-0.000253
H78	H	-0.553288	-0.032615	-0.000233
O79	O	-0.708778	-0.036366	-0.000098
C80	C	-0.735811	0.249047	-0.000215
C81	C	-0.671741	0.099213	-0.000263
H82	H	-0.705893	0.358704	-0.000385
H83	H	-0.767590	0.238056	0.122381
H84	H	-0.781400	0.261309	-0.122743
H85	H	-0.626102	0.086861	0.122183
H86	H	-0.640024	0.110270	-0.122939
H87	H	-0.317918	-0.130850	-0.000252
H88	H	-0.412505	-0.154521	-0.000269
