data_functionalizedCrystal
_audit_creation_method	'MofGen! by Chris Wilmer'
_symmetry_space_group_name_H-M	'P1'
_symmetry_Int_Tables_number	1
_symmetry_cell_setting	triclinic
loop_
_symmetry_equiv_pos_as_xyz
  x,y,z
_cell_length_a	8.597213
_cell_length_b	8.559649
_cell_length_c	9.130313
_cell_angle_alpha	90.000859
_cell_angle_beta	82.298078
_cell_angle_gamma	77.624681
loop_
_atom_site_label
_atom_site_type_symbol
_atom_site_fract_x
_atom_site_fract_y
_atom_site_fract_z
O1	O	2.053755	0.238022	-0.380956
O2	O	1.594616	0.256286	-0.323019
O3	O	1.864636	0.015184	-0.357090
O4	O	1.783735	0.479124	-0.346885
O5	O	1.864632	0.015190	-0.113491
O6	O	1.594612	0.256293	-0.079420
O7	O	2.053751	0.238029	-0.137357
Cu8	Cu	1.824181	0.247161	-0.086146
Cu9	Cu	1.824186	0.247154	-0.374230
O10	O	1.783731	0.479131	-0.103285
C11	C	1.536379	0.254329	-0.193871
C12	C	1.362857	0.248467	-0.171975
C13	C	1.870765	-0.044247	-0.236067
C14	C	1.889014	-0.221342	-0.238378
C15	C	2.111988	0.239986	-0.266508
C16	C	2.285510	0.245848	-0.288413
C17	C	1.777602	0.538562	-0.224312
C18	C	1.759353	0.715657	-0.222011
N19	N	1.824190	0.247166	0.116476
N20	N	1.824191	0.247137	-0.576853
C21	C	1.943777	0.140443	0.178038
C22	C	1.943775	0.140424	0.331375
C23	C	1.704592	0.353865	0.361575
C24	C	1.704589	0.353875	0.208241
C25	C	2.081872	0.017219	0.160604
C26	C	2.081870	0.017200	0.313941
H27	H	1.634383	-0.202798	-0.206236
H28	H	2.013993	-0.302896	-0.254137
H29	H	1.296319	0.246229	-0.055535
H30	H	1.607200	0.440763	0.158121
C31	C	1.573050	0.471244	0.462519
H32	H	1.590182	0.455960	0.562656
H33	H	1.470603	0.452232	0.450314
H34	H	1.577234	0.577969	0.436872
H35	H	2.058722	-0.098891	0.364409
C36	C	2.067063	-0.148601	0.106236
H37	H	2.060959	-0.216801	0.187932
H38	H	2.158446	-0.193341	0.036900
H39	H	1.972620	-0.137956	0.060357
C40	C	2.228908	0.070723	0.077783
H41	H	2.223885	0.068919	-0.025500
H42	H	2.324506	0.000027	0.097838
H43	H	2.229020	0.176260	0.109902
C44	C	1.375373	0.248885	-0.445707
H45	H	1.484123	0.252552	-0.440279
H46	H	1.325579	0.340738	-0.494020
H47	H	1.371887	0.155211	-0.499857
C48	C	2.239900	0.055213	0.350231
H49	H	2.304885	0.070876	0.261104
H50	H	2.295755	-0.031441	0.400974
H51	H	2.216542	0.149685	0.410990
