data_functionalizedCrystal
_audit_creation_method	'MofGen! by Chris Wilmer'
_symmetry_space_group_name_H-M	'P1'
_symmetry_Int_Tables_number	1
_symmetry_cell_setting	triclinic
loop_
_symmetry_equiv_pos_as_xyz
  x,y,z
_cell_length_a	6.817900
_cell_length_b	15.866870
_cell_length_c	10.943624
_cell_angle_alpha	110.425160
_cell_angle_beta	108.838799
_cell_angle_gamma	102.655915
loop_
_atom_site_label
_atom_site_type_symbol
_atom_site_fract_x
_atom_site_fract_y
_atom_site_fract_z
V1	V	-4.123267	-0.132606	-0.465660
O2	O	-4.072829	0.006398	-0.391843
O3	O	-4.108858	-0.262961	-0.524945
O4	O	-4.101110	-0.130555	-0.640251
O5	O	-4.080631	-0.126924	-0.275739
V6	V	-4.599090	-0.115981	-0.435356
O7	O	-4.401416	-0.169075	-0.532137
O8	O	-4.771139	-0.079512	-0.368879
O9	O	-4.390293	0.014373	-0.376071
O10	O	-4.766925	-0.254985	-0.509173
O11	O	-4.759124	-0.121663	-0.625277
O12	O	-4.398041	-0.118032	-0.260765
C13	C	-3.961278	-0.294739	-0.533718
C14	C	-4.030959	-0.401305	-0.583354
C15	C	-3.950655	-0.683418	-0.122938
C16	C	-4.016146	-0.783558	-0.169621
C17	C	-4.139936	-0.810895	-0.419093
C18	C	-4.074444	-0.710755	-0.372429
C19	C	-3.979808	-0.647024	-0.224350
C20	C	-4.103597	-0.674361	-0.473842
C21	C	-4.038121	-0.574230	-0.427182
C22	C	-3.943492	-0.510493	-0.279110
C23	C	-3.914333	-0.546893	-0.177691
C24	C	-4.198248	-0.738094	-0.621921
C25	C	-4.227401	-0.701700	-0.723333
C26	C	-4.161910	-0.601567	-0.676673
C27	C	-4.067281	-0.537830	-0.528601
C28	C	-4.191070	-0.565167	-0.778093
C29	C	-4.125594	-0.465036	-0.731433
C30	C	-4.001805	-0.437699	-0.481941
C31	C	-3.951393	-0.125841	-0.680800
C32	C	-4.014785	-0.125027	-0.823939
C33	C	-3.859294	-0.119542	-0.898476
C34	C	-4.053424	-0.200952	-1.043210
C35	C	-3.933636	-0.042175	-0.934259
C36	C	-4.208130	-0.206513	-0.966833
C37	C	-4.088258	-0.047664	-0.857824
C38	C	-4.282526	-0.129097	-1.002539
C39	C	-4.201216	0.046146	-0.367297
C40	C	-4.110775	0.152712	-0.317670
C41	C	-4.211100	-0.122749	-0.220211
C42	C	-4.126945	-0.123559	-0.077068
H43	H	-3.873561	-0.631523	-0.002356
H44	H	-3.890189	-0.428961	-0.241122
H45	H	-4.217003	-0.862798	-0.539660
C46	C	-3.777712	0.051661	-0.917585
C47	C	-3.874933	0.122426	-0.957428
C48	C	-3.718994	0.216256	-0.940751
C49	C	-3.465835	0.239321	-0.884232
C50	C	-3.368601	0.168554	-0.844386
C51	C	-3.524540	0.074724	-0.861062
H52	H	-4.062348	0.105353	-0.999270
H53	H	-3.790975	0.268642	-0.970248
H54	H	-3.350400	0.308779	-0.871888
H55	H	-3.181186	0.185626	-0.802544
H56	H	-3.452559	0.022337	-0.831565
H57	H	-4.462079	-0.133156	-1.047716
H58	H	-3.837238	-0.494998	-0.057108
C59	C	-4.364110	-0.300449	-0.983801
C60	C	-4.617542	-0.324006	-1.041703
C61	C	-4.773509	-0.417943	-1.058669
C62	C	-4.676044	-0.488323	-1.017732
C63	C	-4.422598	-0.464768	-0.959826
C64	C	-4.266631	-0.370831	-0.942860
H65	H	-4.689704	-0.271906	-1.072010
H66	H	-4.961127	-0.435380	-1.101536
H67	H	-4.791500	-0.557860	-1.030292
H68	H	-4.350437	-0.516868	-0.929519
H69	H	-4.079014	-0.353394	-0.899994
H70	H	-4.149366	-0.435405	-0.814015
H71	H	-3.924711	-0.385804	-0.361359
H72	H	-4.102238	0.017144	-0.777997
H73	H	-3.992393	-0.813184	-0.087027
H74	H	-3.679863	-0.115611	-0.853157
H75	H	-4.251560	-0.819627	-0.659906
C76	C	-4.295173	-0.635285	-0.940971
C77	C	-4.181558	-0.703235	-0.998990
C78	C	-4.285659	-0.773354	-1.161869
C79	C	-4.503376	-0.775523	-1.266729
C80	C	-4.617004	-0.707571	-1.208712
C81	C	-4.512903	-0.637451	-1.045833
H82	H	-4.020379	-0.701631	-0.921365
H83	H	-4.201543	-0.823657	-1.204816
H84	H	-4.580439	-0.827430	-1.387301
H85	H	-4.778183	-0.709174	-1.286337
H86	H	-4.597019	-0.587149	-1.002885
H87	H	-4.304468	-0.753604	-0.843900
H88	H	-4.039360	-0.265756	-1.123001
