data_functionalizedCrystal
_audit_creation_method	'MofGen! by Chris Wilmer'
_symmetry_space_group_name_H-M	'P1'
_symmetry_Int_Tables_number	1
_symmetry_cell_setting	triclinic
loop_
_symmetry_equiv_pos_as_xyz
  x,y,z
_cell_length_a	16.120490
_cell_length_b	12.759400
_cell_length_c	12.759393
_cell_angle_alpha	89.968436
_cell_angle_beta	87.082392
_cell_angle_gamma	87.107198
loop_
_atom_site_label
_atom_site_type_symbol
_atom_site_fract_x
_atom_site_fract_y
_atom_site_fract_z
Zn1	Zn	1.274631	-0.499844	-0.675387
Zn2	Zn	1.274547	-0.675557	-0.499702
Zn3	Zn	1.135207	-0.490968	-0.490822
Zn4	Zn	1.135198	-0.666551	-0.666443
O5	O	1.204896	-0.583230	-0.583088
O6	O	1.391287	-0.530636	-0.659541
O7	O	1.256032	-0.651126	-0.351501
O8	O	1.153741	-0.345127	-0.515331
O9	O	1.391226	-0.659732	-0.530466
O10	O	1.256175	-0.351648	-0.650930
O11	O	1.153660	-0.515509	-0.344977
O12	O	1.018539	-0.506776	-0.506659
O13	O	1.153726	-0.644382	-0.814653
O14	O	1.018532	-0.635776	-0.635688
O15	O	1.256166	-0.521903	-0.821224
O16	O	1.256024	-0.821381	-0.521794
O17	O	1.153645	-0.814764	-0.644298
C18	C	1.204847	-0.856194	-0.583063
C19	C	1.204902	-0.972974	-0.583093
C20	C	0.988285	-0.569336	-0.569240
C21	C	0.895618	-0.563417	-0.563341
C22	C	1.258270	-1.031251	-0.519383
C23	C	1.258321	-1.140978	-0.519418
C24	C	1.151629	-1.134142	-0.646876
C25	C	1.151583	-1.024417	-0.646846
C26	C	1.319865	-1.035198	-0.445792
C27	C	1.319916	-1.144925	-0.445828
C28	C	0.684684	-0.613922	-0.613691
C29	C	0.725959	-0.552621	-0.552568
C30	C	0.820366	-0.558630	-0.558564
C31	C	0.590269	-0.607915	-0.607697
C32	C	1.422353	-0.597179	-0.596991
C33	C	1.515020	-0.603123	-0.602916
C34	C	1.204955	-0.583128	-0.857126
C35	C	1.204979	-0.583084	-0.973904
C36	C	1.204969	-0.309201	-0.583138
C37	C	1.204999	-0.192427	-0.583159
C38	C	1.258328	-0.519303	-1.032189
C39	C	1.258347	-0.519267	-1.141915
C40	C	1.151669	-0.646800	-1.135059
C41	C	1.151645	-0.646831	-1.025336
C42	C	1.319920	-0.445676	-1.036148
C43	C	1.319940	-0.445640	-1.145874
C44	C	1.204886	-0.583259	-0.310120
C45	C	1.205023	-0.583017	-0.193353
H46	H	1.108134	-0.976970	-0.698733
H47	H	1.296753	-0.999770	-0.366990
O48	O	1.401168	-1.195100	-0.489716
H49	H	1.397855	-1.281766	-0.487945
O50	O	1.094110	-1.189625	-0.715622
H51	H	1.103102	-1.275714	-0.704935
O52	O	1.094145	-0.715555	-1.190530
H53	H	1.103124	-0.704821	-1.276621
O54	O	1.297077	-1.183037	-0.336577
H55	H	1.239854	-1.227761	-0.338121
O56	O	1.297041	-0.336441	-0.995256
H57	H	1.285848	-0.282939	-1.062254
H58	H	1.108201	-0.698763	-0.977883
H59	H	1.296837	-0.366851	-1.178446
O60	O	0.731790	-0.689417	-0.688964
H61	H	0.686993	-0.733398	-0.732824
H62	H	0.690394	-0.495627	-0.495736
H63	H	1.381239	-0.478772	-1.006029
O64	O	1.405463	-0.479995	-1.190797
H65	H	1.447315	-0.496854	-1.125771
H66	H	1.384414	-1.009475	-0.471766
