data_functionalizedCrystal
_audit_creation_method	'MofGen! by Chris Wilmer'
_symmetry_space_group_name_H-M	'P1'
_symmetry_Int_Tables_number	1
_symmetry_cell_setting	triclinic
loop_
_symmetry_equiv_pos_as_xyz
  x,y,z
_cell_length_a	12.996460
_cell_length_b	10.654550
_cell_length_c	14.519731
_cell_angle_alpha	95.913108
_cell_angle_beta	89.992872
_cell_angle_gamma	90.002324
loop_
_atom_site_label
_atom_site_type_symbol
_atom_site_fract_x
_atom_site_fract_y
_atom_site_fract_z
O1	O	-0.085493	-1.666611	0.129533
O2	O	-0.085512	-1.301015	0.141874
O3	O	-0.085492	-1.493492	0.001516
O4	O	-0.085512	-1.474134	0.269890
O5	O	0.085641	-1.493472	0.001509
O6	O	0.085622	-1.300995	0.141866
O7	O	0.085641	-1.666591	0.129525
Cu8	Cu	0.101257	-1.483791	0.135695
Cu9	Cu	-0.101128	-1.483815	0.135704
O10	O	0.085622	-1.474114	0.269882
C11	C	0.000053	-1.254216	0.140964
C12	C	0.000046	-1.114798	0.138253
N13	N	0.243605	-1.483784	0.135688
N14	N	-0.243475	-1.483832	0.135704
C15	C	0.663419	-1.483813	0.135705
C16	C	0.546614	-1.483801	0.135703
C17	C	0.453515	-1.483799	0.135697
C18	C	0.336703	-1.483786	0.135694
C19	C	0.000075	-1.492575	-0.032852
C20	C	0.000075	-1.489857	-0.135246
C21	C	0.000074	-1.713390	0.130435
C22	C	0.000075	-1.852808	0.133146
C23	C	0.000043	-1.034527	0.220893
C24	C	0.000061	-0.903530	0.218340
C25	C	0.000081	-0.933090	0.050500
C26	C	0.000070	-1.064084	0.053053
C27	C	0.000073	-1.487648	-0.218402
C28	C	0.000065	-1.484889	-0.322725
C29	C	0.000058	-1.482698	-0.405875
C30	C	0.000052	-1.479939	-0.510205
C31	C	0.000052	-1.475031	0.304251
C32	C	0.000045	-1.477749	0.406645
H33	H	0.000060	-0.838177	0.285634
H34	H	0.000031	-1.075814	0.290268
C35	C	0.000144	-0.878267	-0.042091
C36	C	0.000171	-0.976609	-0.113918
C37	C	0.000238	-0.926158	-0.199226
H38	H	-0.059516	-0.827798	-0.046703
H39	H	0.059848	-0.827818	-0.046630
H40	H	-0.059527	-1.027037	-0.109381
H41	H	0.059826	-1.027086	-0.109336
H42	H	0.059942	-0.875709	-0.203765
H43	H	-0.059423	-0.875690	-0.203829
H44	H	0.000266	-0.992874	-0.247971
H45	H	0.000076	-1.129445	-0.014246
