data_functionalizedCrystal
_audit_creation_method	'MofGen! by Chris Wilmer'
_symmetry_space_group_name_H-M	'P1'
_symmetry_Int_Tables_number	1
_symmetry_cell_setting	triclinic
loop_
_symmetry_equiv_pos_as_xyz
  x,y,z
_cell_length_a	17.077404
_cell_length_b	13.897448
_cell_length_c	17.077396
_cell_angle_alpha	89.971798
_cell_angle_beta	89.982756
_cell_angle_gamma	90.017917
loop_
_atom_site_label
_atom_site_type_symbol
_atom_site_fract_x
_atom_site_fract_y
_atom_site_fract_z
Zn1	Zn	1.200065	-0.384001	-0.443849
Zn2	Zn	1.199990	-0.545316	-0.312585
Zn3	Zn	1.068802	-0.384037	-0.312597
Zn4	Zn	1.068777	-0.545257	-0.443809
O5	O	1.134409	-0.464653	-0.378210
O6	O	1.309902	-0.405410	-0.426448
O7	O	1.182566	-0.523962	-0.202740
O8	O	1.086257	-0.249051	-0.330029
O9	O	1.309847	-0.523927	-0.330010
O10	O	1.182695	-0.249024	-0.426459
O11	O	1.086184	-0.405471	-0.202748
O12	O	0.958952	-0.405414	-0.329990
O13	O	1.086214	-0.523826	-0.553661
O14	O	0.958934	-0.523861	-0.426391
O15	O	1.182671	-0.405352	-0.553690
O16	O	1.182542	-0.680290	-0.329971
O17	O	1.086140	-0.680246	-0.426380
C18	C	0.930461	-0.464635	-0.378188
C19	C	0.843211	-0.464651	-0.378198
C20	C	0.802232	-0.526419	-0.428313
C21	C	0.720251	-0.526422	-0.428326
C22	C	0.679252	-0.464659	-0.378218
C23	C	0.720237	-0.402884	-0.328100
C24	C	0.802216	-0.402878	-0.328092
C25	C	0.549367	-0.402903	-0.328119
C26	C	0.467382	-0.402910	-0.328126
C27	C	0.467402	-0.526447	-0.428353
C28	C	0.549381	-0.526441	-0.428345
C29	C	0.590361	-0.464666	-0.378226
C30	C	1.134351	-0.715267	-0.378187
C31	C	1.134399	-0.822481	-0.378204
C32	C	1.134481	-1.018776	-0.378253
C33	C	1.134433	-0.909544	-0.378228
C34	C	1.339153	-0.464671	-0.378232
C35	C	1.426403	-0.464679	-0.378242
C36	C	1.134448	-0.464578	-0.582954
C37	C	1.134465	-0.464546	-0.670204
C38	C	1.134488	-0.213060	-0.378250
C39	C	1.134521	-0.105846	-0.378267
C40	C	1.084294	-0.402841	-0.711198
C41	C	1.084307	-0.402819	-0.793179
C42	C	1.134495	-0.464498	-0.834164
C43	C	1.184668	-0.526211	-0.793164
C44	C	1.184651	-0.526237	-0.711185
C45	C	1.184702	-0.526150	-0.964034
C46	C	1.184721	-0.526123	-1.046019
C47	C	1.084358	-0.402732	-1.046028
C48	C	1.084341	-0.402758	-0.964049
C49	C	1.134515	-0.464470	-0.923055
C50	C	1.134415	-0.464658	-0.174262
C51	C	1.134550	-0.464418	-0.087013
H52	H	0.686848	-0.352592	-0.287305
H53	H	0.582761	-0.576738	-0.469142
O54	O	0.841904	-0.342851	-0.279331
C55	C	0.833237	-0.220288	-0.179948
C56	C	0.788194	-0.288238	-0.235117
H57	H	0.789833	-0.176102	-0.144198
H58	H	0.871570	-0.264464	-0.138785
H59	H	0.871665	-0.169944	-0.216066
H60	H	0.749724	-0.338596	-0.199062
H61	H	0.749911	-0.244003	-0.276282
O62	O	0.589054	-0.342872	-0.279355
C63	C	0.580387	-0.220322	-0.179961
C64	C	0.535344	-0.288262	-0.235138
H65	H	0.536982	-0.176138	-0.144209
H66	H	0.618716	-0.264506	-0.138800
H67	H	0.618818	-0.169976	-0.216072
H68	H	0.496870	-0.338623	-0.199090
H69	H	0.497064	-0.244019	-0.276301
O70	O	0.680414	-0.586292	-0.477090
C71	C	0.587872	-0.599465	-0.583037
C72	C	0.632950	-0.531547	-0.527870
H73	H	0.549474	-0.555232	-0.624096
H74	H	0.631227	-0.643592	-0.618899
H75	H	0.549501	-0.649867	-0.546913
H76	H	0.671322	-0.481087	-0.563934
H77	H	0.589553	-0.487488	-0.492006
O78	O	1.035698	-0.342656	-1.085815
C79	C	0.997619	-0.178573	-1.110906
C80	C	1.052781	-0.246496	-1.065805
H81	H	1.011400	-0.100815	-1.094733
H82	H	1.006255	-0.189074	-1.176547
H83	H	0.934320	-0.195559	-1.094786
H84	H	1.116102	-0.229553	-1.081859
H85	H	1.044078	-0.235982	-1.000176
H86	H	0.434033	-0.576743	-0.469164
O87	O	1.035458	-0.342922	-0.832906
C88	C	0.901947	-0.296111	-0.857995
C89	C	0.957186	-0.363992	-0.812947
H90	H	0.838652	-0.313135	-0.841887
H91	H	0.915693	-0.218325	-0.841875
H92	H	0.910608	-0.306664	-0.923626
H93	H	0.948556	-0.353525	-0.747306
H94	H	0.943427	-0.441753	-0.829132
H95	H	1.225567	-0.576394	-0.930659
O96	O	0.427505	-0.343032	-0.279397
C97	C	0.334825	-0.329833	-0.173523
C98	C	0.379959	-0.397766	-0.228631
H99	H	0.296361	-0.374056	-0.132476
H100	H	0.378144	-0.285669	-0.137647
H101	H	0.296516	-0.279466	-0.209695
H102	H	0.418270	-0.448190	-0.192519
H103	H	0.336598	-0.441862	-0.264510
O104	O	1.035501	-0.343059	-0.671302
C105	C	0.929472	-0.330109	-0.578776
C106	C	0.984696	-0.397918	-0.623892
H107	H	0.888371	-0.374436	-0.540447
H108	H	0.965474	-0.279701	-0.540355
H109	H	0.893650	-0.285983	-0.622175
H110	H	1.020530	-0.442106	-0.580550
H111	H	0.948649	-0.448262	-0.662325
O112	O	1.035701	-0.342742	-0.924198
C113	C	1.025165	-0.212590	-0.831619
C114	C	1.080340	-0.280479	-0.876715
H115	H	1.061232	-0.162247	-0.793205
H116	H	0.989317	-0.168409	-0.874961
H117	H	0.984085	-0.256910	-0.793262
H118	H	1.121467	-0.236234	-0.915073
H119	H	1.116132	-0.324664	-0.833330
H120	H	1.225589	-0.576348	-1.079387
O121	O	1.233504	-0.585990	-0.833010
C122	C	1.339468	-0.598950	-0.925610
C123	C	1.284221	-0.531141	-0.880521
H124	H	1.380476	-0.554633	-0.964046
H125	H	1.375381	-0.643043	-0.882263
H126	H	1.303404	-0.649388	-0.963944
H127	H	1.320225	-0.480645	-0.842186
H128	H	1.248306	-0.487115	-0.923911
O129	O	1.233348	-0.586311	-0.671446
C130	C	1.271351	-0.750407	-0.646297
C131	C	1.216170	-0.682474	-0.691364
H132	H	1.257471	-0.828170	-0.662372
H133	H	1.334671	-0.733555	-0.662435
H134	H	1.262727	-0.739783	-0.580670
H135	H	1.224723	-0.693061	-0.757002
H136	H	1.152870	-0.699344	-0.675161
O137	O	0.841934	-0.586447	-0.477063
C138	C	0.833292	-0.709012	-0.576447
C139	C	0.788235	-0.641066	-0.521287
H140	H	0.789896	-0.753203	-0.612204
H141	H	0.871676	-0.664832	-0.617603
H142	H	0.871670	-0.759351	-0.540322
H143	H	0.749815	-0.590714	-0.557348
H144	H	0.749901	-0.685306	-0.480128
