data_functionalizedCrystal
_audit_creation_method	'MofGen! by Chris Wilmer'
_symmetry_space_group_name_H-M	'P1'
_symmetry_Int_Tables_number	1
_symmetry_cell_setting	triclinic
loop_
_symmetry_equiv_pos_as_xyz
  x,y,z
_cell_length_a	13.897448
_cell_length_b	13.897449
_cell_length_c	13.032268
_cell_angle_alpha	97.161368
_cell_angle_beta	82.851959
_cell_angle_gamma	89.982475
loop_
_atom_site_label
_atom_site_type_symbol
_atom_site_fract_x
_atom_site_fract_y
_atom_site_fract_z
Zn1	Zn	-0.453250	-1.405387	0.590887
Zn2	Zn	0.046750	-0.905387	1.090887
Zn3	Zn	-0.594089	-1.425779	0.416147
Zn4	Zn	-0.094089	-0.925779	0.916147
Zn5	Zn	-0.432811	-1.264573	0.416159
Zn6	Zn	0.067189	-0.764573	0.916159
Zn7	Zn	-0.614497	-1.244065	0.590830
Zn8	Zn	-0.114497	-0.744065	1.090830
O9	O	-0.523662	-1.334951	0.503506
O10	O	-0.023662	-0.834951	1.003506
O11	O	-0.471945	-1.543072	0.567726
O12	O	0.028055	-1.043072	1.067726
O13	O	-0.555600	-1.421512	0.269919
O14	O	-0.055600	-0.921512	0.769919
O15	O	-0.300544	-1.283301	0.439366
O16	O	0.199456	-0.783301	0.939366
O17	O	-0.575419	-1.558054	0.439345
O18	O	-0.075419	-1.058054	0.939345
O19	O	-0.315560	-1.386757	0.567737
O20	O	0.184440	-0.886757	1.067737
O21	O	-0.437110	-1.303075	0.269928
O22	O	0.062890	-0.803075	0.769928
O23	O	-0.456899	-1.126873	0.439311
O24	O	0.043101	-0.626873	0.939311
O25	O	-0.610202	-1.248347	0.737068
O26	O	-0.110202	-0.748347	1.237068
O27	O	-0.590383	-1.111806	0.567641
O28	O	-0.090383	-0.611806	1.067641
O29	O	-0.491734	-1.366870	0.737109
O30	O	0.008266	-0.866870	1.237109
O31	O	-0.731775	-1.401626	0.439291
O32	O	-0.231775	-0.901626	0.939291
O33	O	-0.746768	-1.268121	0.567630
O34	O	-0.246768	-0.768121	1.067630
C35	C	-0.774273	-1.334884	0.503476
C36	C	-0.274273	-0.834884	1.003476
C37	C	-0.881489	-1.334940	0.503498
C38	C	-0.381489	-0.834940	1.003498
C39	C	-0.523639	-1.084341	0.503472
C40	C	-0.023639	-0.584341	1.003472
C41	C	-0.523655	-0.977126	0.503482
C42	C	-0.023655	-0.477126	1.003482
C43	C	-0.555525	-1.303046	0.776064
C44	C	-0.055525	-0.803046	1.276064
C45	C	-0.569103	-1.289451	0.892212
C46	C	-0.069103	-0.789451	1.392212
C47	C	-1.077792	-1.335033	0.503563
C48	C	-0.577792	-0.835033	1.003563
C49	C	-0.968555	-1.334978	0.503530
C50	C	-0.468555	-0.834978	1.003530
C51	C	-0.272075	-1.335042	0.503559
C52	C	0.227925	-0.835042	1.003559
C53	C	-0.164864	-1.335080	0.503582
C54	C	0.335136	-0.835080	1.003582
C55	C	-0.523655	-0.780828	0.503502
C56	C	-0.023655	-0.280828	1.003502
C57	C	-0.523652	-0.890062	0.503488
C58	C	-0.023652	-0.390062	1.003488
C59	C	-0.523678	-0.586541	0.503530
C60	C	-0.023678	-0.086541	1.003530
C61	C	-0.523666	-0.693757	0.503515
C62	C	-0.023666	-0.193757	1.003515
C63	C	-0.491853	-1.366787	0.232008
C64	C	0.008147	-0.866787	0.732008
C65	C	-0.478003	-1.380570	0.115861
C66	C	0.021997	-0.880570	0.615861
C67	C	-0.516541	-1.342032	0.944015
C68	C	-0.016541	-0.842032	1.444015
C69	C	-0.530573	-1.327981	1.064060
C70	C	-0.030573	-0.827981	1.564060
H71	H	-0.585959	-1.272552	1.108579
H72	H	-0.085959	-0.772552	1.608579
H73	H	-0.422605	-1.435988	1.071343
H74	H	0.077395	-0.935988	1.571343
O75	O	-0.635305	-1.223395	0.945200
O76	O	-0.135305	-0.723395	1.445200
C77	C	-0.728359	-1.247548	0.918609
C78	C	-0.228359	-0.747548	1.418609
H79	H	-0.721160	-1.293841	0.839344
H80	H	-0.221160	-0.793841	1.339344
H81	H	-0.771184	-1.178341	0.914966
H82	H	-0.271184	-0.678341	1.414966
H83	H	-0.767977	-1.289991	0.980014
H84	H	-0.267977	-0.789991	1.480014
O85	O	-0.450402	-1.408030	0.890793
O86	O	0.049598	-0.908030	1.390793
C87	C	-0.380756	-1.360473	0.827684
C88	C	0.119244	-0.860473	1.327684
H89	H	-0.412879	-1.289247	0.811427
H90	H	0.087121	-0.789247	1.311427
H91	H	-0.358926	-1.408690	0.750897
H92	H	0.141074	-0.908690	1.250897
H93	H	-0.314145	-1.345026	0.869693
H94	H	0.185855	-0.845026	1.369693
