data_functionalizedCrystal
_audit_creation_method	'MofGen! by Chris Wilmer'
_symmetry_space_group_name_H-M	'P1'
_symmetry_Int_Tables_number	1
_symmetry_cell_setting	triclinic
loop_
_symmetry_equiv_pos_as_xyz
  x,y,z
_cell_length_a	13.897447
_cell_length_b	25.639242
_cell_length_c	13.897441
_cell_angle_alpha	89.968225
_cell_angle_beta	90.029327
_cell_angle_gamma	89.985811
loop_
_atom_site_label
_atom_site_type_symbol
_atom_site_fract_x
_atom_site_fract_y
_atom_site_fract_z
Zn1	Zn	-0.384121	-0.799339	0.545674
Zn2	Zn	0.115879	-0.299339	1.045674
Zn3	Zn	-0.545443	-0.799278	0.384379
Zn4	Zn	-0.045443	-0.299278	0.884379
Zn5	Zn	-0.384149	-0.711902	0.384361
Zn6	Zn	0.115851	-0.211902	0.884361
Zn7	Zn	-0.545361	-0.711889	0.545600
Zn8	Zn	-0.045361	-0.211889	1.045600
O9	O	-0.464769	-0.755602	0.465003
O10	O	0.035231	-0.255602	0.965003
O11	O	-0.405544	-0.872496	0.524316
O12	O	0.094456	-0.372496	1.024316
O13	O	-0.524093	-0.787668	0.249395
O14	O	-0.024093	-0.287668	0.749395
O15	O	-0.249164	-0.723531	0.405783
O16	O	0.250836	-0.223531	0.905783
O17	O	-0.524066	-0.872451	0.405813
O18	O	-0.024066	-0.372451	0.905813
O19	O	-0.249143	-0.787770	0.524299
O20	O	0.250857	-0.287770	1.024299
O21	O	-0.405591	-0.723473	0.249382
O22	O	0.094409	-0.223473	0.749382
O23	O	-0.405511	-0.638735	0.405712
O24	O	0.094489	-0.138735	0.905712
O25	O	-0.523927	-0.723509	0.680592
O26	O	-0.023927	-0.223509	1.180592
O27	O	-0.523953	-0.638726	0.524173
O28	O	-0.023953	-0.138726	1.024173
O29	O	-0.405465	-0.787758	0.680646
O30	O	0.094535	-0.287758	1.180646
O31	O	-0.680414	-0.787655	0.405742
O32	O	-0.180414	-0.287655	0.905742
O33	O	-0.680354	-0.723451	0.524191
O34	O	-0.180354	-0.223451	1.024191
C35	C	-0.464727	-0.619759	0.464933
C36	C	0.035273	-0.119759	0.964933
C37	C	-0.464732	-0.561645	0.464926
C38	C	0.035268	-0.061645	0.964926
C39	C	-0.402989	-0.310448	0.403403
C40	C	0.097011	0.189552	0.903403
C41	C	-0.402981	-0.365052	0.403393
C42	C	0.097019	0.134948	0.903393
O43	O	-0.350430	-0.393286	0.351043
O44	O	0.149570	0.106714	0.851043
N45	N	-0.464743	-0.392371	0.464965
N46	N	0.035257	0.107629	0.964965
C47	C	-0.526510	-0.365084	0.526557
C48	C	-0.026510	0.134916	1.026557
O49	O	-0.579042	-0.393335	0.578929
O50	O	-0.079042	0.106665	1.078929
C51	C	-0.526513	-0.310480	0.526571
C52	C	-0.026513	0.189520	1.026571
C53	C	-0.464754	-0.283164	0.464988
C54	C	0.035246	0.216836	0.964988
C55	C	-0.341235	-0.283132	0.341826
C56	C	0.158765	0.216868	0.841826
C57	C	-0.341245	-0.228531	0.341834
C58	C	0.158755	0.271469	0.841834
C59	C	-0.403009	-0.201247	0.403419
C60	C	0.096991	0.298753	0.903419
C61	C	-0.464764	-0.228563	0.464996
C62	C	0.035236	0.271437	0.964996
C63	C	-0.588275	-0.283193	0.588167
C64	C	-0.088275	0.216807	1.088167
C65	C	-0.588272	-0.228586	0.588176
C66	C	-0.088272	0.271414	1.088176
C67	C	-0.526513	-0.201270	0.526593
C68	C	-0.026513	0.298730	1.026593
C69	C	-0.526539	-0.146679	0.526590
C70	C	-0.026539	0.353321	1.026590
N71	N	-0.464777	-0.119359	0.465018
N72	N	0.035223	0.380641	0.965018
C73	C	-0.403012	-0.146644	0.403433
C74	C	0.096988	0.353356	0.903433
C75	C	-0.526498	-0.479754	0.526526
C76	C	-0.026498	0.020246	1.026526
C77	C	-0.526501	-0.534356	0.526508
C78	C	-0.026501	-0.034356	1.026508
C79	C	-0.402970	-0.534321	0.403345
C80	C	0.097030	-0.034321	0.903345
C81	C	-0.402973	-0.479718	0.403359
C82	C	0.097027	0.020282	0.903359
C83	C	-0.464736	-0.452435	0.464954
C84	C	0.035264	0.047565	0.964954
C85	C	-0.403039	-0.031979	0.403454
C86	C	0.096961	0.468021	0.903454
C87	C	-0.403057	0.022627	0.403465
C88	C	0.096943	0.522627	0.903465
C89	C	-0.526584	0.022587	0.526631
C90	C	-0.026584	0.522587	1.026631
C91	C	-0.526570	-0.032013	0.526617
C92	C	-0.026570	0.467987	1.026617
C93	C	-0.464789	-0.059295	0.465025
C94	C	0.035211	0.440705	0.965025
O95	O	-0.579060	-0.118411	0.578916
O96	O	-0.079060	0.381589	1.078916
O97	O	-0.350480	-0.118386	0.351079
O98	O	0.149520	0.381614	0.851079
C99	C	-0.715383	-0.755559	0.464981
C100	C	-0.215383	-0.255559	0.964981
C101	C	-0.822597	-0.755589	0.465004
C102	C	-0.322597	-0.255589	0.965004
C103	C	-0.909667	-0.755614	0.465026
C104	C	-0.409667	-0.255614	0.965026
C105	C	-1.018899	-0.755651	0.465051
C106	C	-0.518899	-0.255651	0.965051
C107	C	-0.213176	-0.755659	0.465047
C108	C	0.286824	-0.255659	0.965047
C109	C	-0.105962	-0.755683	0.465066
C110	C	0.394038	-0.255683	0.965066
C111	C	-0.464683	-0.755639	0.716597
C112	C	0.035317	-0.255639	1.216597
C113	C	-0.464647	-0.755655	0.823811
C114	C	0.035353	-0.255655	1.323811
C115	C	-0.464809	0.108025	0.465061
C116	C	0.035191	0.608025	0.965061
C117	C	-0.464822	0.049911	0.465050
C118	C	0.035178	0.549911	0.965050
C119	C	-0.464784	-0.755595	0.214389
C120	C	0.035216	-0.255595	0.714389
C121	C	-0.464549	-0.755681	0.107176
C122	C	0.035451	-0.255681	0.607176
C123	C	-0.464582	-0.755669	1.020106
C124	C	0.035418	-0.255669	1.520106
C125	C	-0.464621	-0.755660	0.910873
C126	C	0.035379	-0.255660	1.410873
H127	H	-0.576874	0.044812	0.576769
H128	H	-0.076874	0.544812	1.076769
Cl129	Cl	-0.665919	-0.317520	0.665592
Cl130	Cl	-0.165919	0.182480	1.165592
Cl131	Cl	-0.325373	-0.066267	0.326021
Cl132	Cl	0.174627	0.433733	0.826021
H133	H	-0.638565	-0.206375	0.638338
H134	H	-0.138565	0.293625	1.138338
H135	H	-0.352680	-0.457481	0.353216
H136	H	0.147320	0.042519	0.853216
Cl137	Cl	-0.263575	-0.317422	0.264395
Cl138	Cl	0.236425	0.182578	0.764395
H139	H	-0.576866	-0.054256	0.576755
H140	H	-0.076866	0.445744	1.076755
Cl141	Cl	-0.325321	-0.568632	0.325924
Cl142	Cl	0.174679	-0.068632	0.825924
H143	H	-0.290954	-0.206295	0.291687
H144	H	0.209046	0.293705	0.791687
H145	H	-0.576802	-0.556593	0.576645
H146	H	-0.076802	-0.056593	1.076645
H147	H	-0.352764	0.044865	0.353314
H148	H	0.147236	0.544865	0.853314
Cl149	Cl	-0.604160	-0.445461	0.603959
Cl150	Cl	-0.104160	0.054539	1.103959
