data_functionalizedCrystal
_audit_creation_method	'MofGen! by Chris Wilmer'
_symmetry_space_group_name_H-M	'P1'
_symmetry_Int_Tables_number	1
_symmetry_cell_setting	triclinic
loop_
_symmetry_equiv_pos_as_xyz
  x,y,z
_cell_length_a	8.597340
_cell_length_b	13.339070
_cell_length_c	7.088929
_cell_angle_alpha	82.086468
_cell_angle_beta	103.954719
_cell_angle_gamma	100.340786
loop_
_atom_site_label
_atom_site_type_symbol
_atom_site_fract_x
_atom_site_fract_y
_atom_site_fract_z
O1	O	2.162869	0.138878	0.197309
O2	O	1.705496	0.155386	0.121963
O3	O	1.881691	-0.000086	0.150994
O4	O	1.986674	0.294349	0.168278
O5	O	1.905217	-0.020910	0.472846
O6	O	1.729022	0.134561	0.443814
O7	O	2.186395	0.118054	0.519161
Cu8	Cu	1.959856	0.124406	0.510875
Cu9	Cu	1.932034	0.149033	0.130248
O10	O	2.010200	0.273525	0.490129
C11	C	1.657525	0.144361	0.273048
C12	C	1.479529	0.142523	0.243726
C13	C	1.875720	-0.048171	0.308996
C14	C	1.822860	-0.160426	0.300280
C15	C	2.233871	-0.525583	0.367990
C16	C	2.283542	-0.420115	0.376191
C17	C	2.168375	-0.355188	0.357213
C18	C	2.003530	-0.395738	0.330035
C19	C	1.953855	-0.501217	0.321849
C20	C	1.888360	-0.330822	0.311072
C21	C	1.723514	-0.371372	0.283893
C22	C	1.673848	-0.476841	0.275707
C23	C	1.789014	-0.541768	0.294685
C24	C	1.938034	-0.225343	0.319258
C25	C	1.658019	-0.200977	0.273116
C26	C	1.608348	-0.306444	0.264916
C27	C	2.234366	0.129079	0.368071
C28	C	2.412360	0.130917	0.397381
C29	C	2.016170	0.321611	0.332123
C30	C	2.069030	0.433866	0.340826
N31	N	1.979436	0.107084	0.778589
N32	N	1.912464	0.166347	-0.137464
H33	H	1.400855	0.151054	0.089724
O34	O	1.820475	0.247681	0.739249
H35	H	1.822066	0.246231	0.583555
O36	O	1.516560	0.119631	0.601366
H37	H	1.439365	0.110841	0.709305
O38	O	2.115819	-0.181611	0.348560
H39	H	2.135559	-0.125646	0.222218
O40	O	2.221935	-0.241431	0.366038
H41	H	2.355907	-0.224140	0.388106
H42	H	2.417759	-0.387107	0.398322
O43	O	2.071397	0.025730	0.901880
H44	H	2.069779	0.027163	1.057570
O45	O	1.533787	-0.130962	0.252662
H46	H	1.447518	-0.136877	0.108860
H47	H	2.327622	-0.578456	0.383455
H48	H	1.539621	-0.509853	0.253591
O49	O	1.735432	-0.655528	0.285863
H50	H	1.843213	-0.693858	0.303635
H51	H	1.474127	-0.339476	0.242788
