data_functionalizedCrystal
_audit_creation_method	'MofGen! by Chris Wilmer'
_symmetry_space_group_name_H-M	'P1'
_symmetry_Int_Tables_number	1
_symmetry_cell_setting	triclinic
loop_
_symmetry_equiv_pos_as_xyz
  x,y,z
_cell_length_a	12.827893
_cell_length_b	17.637651
_cell_length_c	17.640618
_cell_angle_alpha	109.664195
_cell_angle_beta	101.227343
_cell_angle_gamma	101.219116
loop_
_atom_site_label
_atom_site_type_symbol
_atom_site_fract_x
_atom_site_fract_y
_atom_site_fract_z
Zn1	Zn	1.641984	-0.233954	0.399577
Zn2	Zn	1.553272	-0.399693	0.233846
Zn3	Zn	1.422920	-0.261853	0.261760
Zn4	Zn	1.422910	-0.371777	0.371646
O5	O	1.510271	-0.316819	0.316707
O6	O	1.776452	-0.255947	0.377599
O7	O	1.498859	-0.404767	0.122202
O8	O	1.489110	-0.142786	0.303413
O9	O	1.711276	-0.377714	0.255837
O10	O	1.650055	-0.122289	0.404666
O11	O	1.403090	-0.303496	0.142710
O12	O	1.276683	-0.276427	0.276330
O13	O	1.489092	-0.330136	0.490698
O14	O	1.276675	-0.357188	0.357062
O15	O	1.650045	-0.228878	0.511218
O16	O	1.498848	-0.511356	0.228754
O17	O	1.403072	-0.490846	0.329995
C18	C	1.238762	-0.316806	0.316695
C19	C	1.122608	-0.316817	0.316705
C20	C	1.070797	-0.356874	0.356561
C21	C	0.950747	-0.356885	0.356572
C22	C	1.441367	-0.531010	0.273332
C23	C	1.411993	-0.622637	0.254804
C24	C	1.734180	-0.870276	0.457724
C25	C	1.706541	-0.956376	0.440299
C26	C	1.539005	-0.977848	0.334762
C27	C	1.566632	-0.891749	0.352175
C28	C	1.664220	-0.837969	0.413657
C29	C	1.496673	-0.859441	0.308109
C30	C	1.524296	-0.773349	0.325523
C31	C	1.621877	-0.719564	0.387005
C32	C	1.691843	-0.751877	0.431072
C33	C	1.399082	-0.913222	0.246631
C34	C	1.329122	-0.880914	0.202564
C35	C	1.356748	-0.794821	0.219975
C36	C	1.454330	-0.741036	0.281456
C37	C	1.286783	-0.762509	0.175907
C38	C	1.314405	-0.676416	0.193322
C39	C	1.481953	-0.654944	0.298871
C40	C	1.782841	-0.316832	0.316720
C41	C	1.898994	-0.316838	0.316725
C42	C	1.579463	-0.273281	0.531702
C43	C	1.608948	-0.254727	0.623321
C44	C	1.579479	-0.101788	0.360269
C45	C	1.608972	-0.010154	0.378833
C46	C	1.441428	-0.360129	0.102560
C47	C	1.412220	-0.378450	0.010989
C48	C	1.734298	-0.175861	0.763137
C49	C	1.706582	-0.193302	0.677046
C50	C	1.538988	-0.298734	0.655672
C51	C	1.566686	-0.281300	0.741763
C52	C	1.664343	-0.219863	0.795489
C53	C	1.496732	-0.325302	0.774115
C54	C	1.524432	-0.307872	0.860198
C55	C	1.622086	-0.246440	0.913928
C56	C	1.692043	-0.202433	0.881572
C57	C	1.399080	-0.386742	0.720386
C58	C	1.329125	-0.430744	0.752738
C59	C	1.356821	-0.413310	0.838824
C60	C	1.454475	-0.351878	0.892554
C61	C	1.286863	-0.457317	0.871180
C62	C	1.314563	-0.439886	0.957263
C63	C	1.482174	-0.334448	0.978637
H64	H	1.561425	-0.611155	0.348930
Cl65	Cl	1.364262	-0.408659	0.612165
H66	H	1.813810	-0.125824	0.806886
Cl67	Cl	1.139521	-0.409815	0.409228
H68	H	1.249615	-0.480768	0.708983
H69	H	1.257600	-0.475718	0.983604
Cl70	Cl	0.881959	-0.409841	0.409252
Cl71	Cl	0.967770	-0.263891	0.264033
Cl72	Cl	1.604914	-0.257179	1.046192
H73	H	1.644366	-0.649463	0.401182
Cl74	Cl	1.053885	-0.263874	0.264038
H75	H	1.813651	-0.826487	0.507783
Cl76	Cl	1.814537	-0.684263	0.508356
Cl77	Cl	1.794507	-0.996988	0.495699
Cl78	Cl	1.364474	-1.021478	0.224615
Cl79	Cl	1.206440	-0.948529	0.125281
H80	H	1.207322	-0.806307	0.125854
Cl81	Cl	1.416322	-1.045462	0.257479
H82	H	1.257436	-0.650112	0.157439
H83	H	1.644639	-0.232251	0.984022
Cl84	Cl	1.814782	-0.125164	0.949126
H85	H	1.763553	-0.157464	0.650710
H86	H	1.459478	-0.348758	0.611916
H87	H	1.207357	-0.507344	0.827423
