data_functionalizedCrystal
_audit_creation_method	'MofGen! by Chris Wilmer'
_symmetry_space_group_name_H-M	'P1'
_symmetry_Int_Tables_number	1
_symmetry_cell_setting	triclinic
loop_
_symmetry_equiv_pos_as_xyz
  x,y,z
_cell_length_a	27.435584
_cell_length_b	27.434948
_cell_length_c	27.431174
_cell_angle_alpha	60.005483
_cell_angle_beta	60.011353
_cell_angle_gamma	59.993028
loop_
_atom_site_label
_atom_site_type_symbol
_atom_site_fract_x
_atom_site_fract_y
_atom_site_fract_z
O1	O	0.067437	-0.712144	0.595551
O2	O	0.567437	-0.212144	1.095551
O3	O	0.025356	-0.554453	0.479848
O4	O	0.525356	-0.054453	0.979848
O5	O	0.125206	-0.654236	0.479781
O6	O	0.625206	-0.154236	0.979781
O7	O	-0.032412	-0.612361	0.595618
O8	O	0.467588	-0.112361	1.095618
O9	O	0.158328	-0.621117	0.512835
O10	O	0.658328	-0.121117	1.012835
O11	O	0.058479	-0.521333	0.512902
O12	O	0.558479	-0.021333	1.012902
O13	O	0.100560	-0.679025	0.628605
O14	O	0.600560	-0.179025	1.128605
Zn15	Zn	0.084778	-0.594921	0.576001
Zn16	Zn	0.584778	-0.094921	1.076001
Zn17	Zn	0.041138	-0.638557	0.532452
Zn18	Zn	0.541138	-0.138557	1.032452
O19	O	0.000710	-0.579241	0.628672
O20	O	0.500710	-0.079241	1.128672
N21	N	0.114563	-0.565144	0.605726
N22	N	0.614563	-0.065144	1.105726
N23	N	0.011358	-0.668338	0.502727
N24	N	0.511358	-0.168338	1.002727
C25	C	0.156385	-0.523520	0.904506
C26	C	0.656385	-0.023520	1.404506
C27	C	0.413419	-0.523497	0.647322
C28	C	0.913419	-0.023497	1.147322
C29	C	0.156253	-0.523488	0.647384
C30	C	0.656253	-0.023488	1.147384
C31	C	0.156238	-0.266354	0.647407
C32	C	0.656238	0.233646	1.147407
C33	C	0.197637	-0.390463	0.688753
C34	C	0.697637	0.109537	1.188753
C35	C	0.197646	-0.482126	0.688741
C36	C	0.697646	0.017874	1.188741
C37	C	0.220575	-0.459215	0.711654
C38	C	0.720575	0.040785	1.211654
C39	C	0.320555	-0.441991	0.659023
C40	C	0.820555	0.058009	1.159023
C41	C	0.383051	-0.462825	0.638179
C42	C	0.883051	0.037175	1.138179
C43	C	0.383069	-0.563942	0.676737
C44	C	0.883069	-0.063942	1.176737
C45	C	0.320575	-0.543107	0.697583
C46	C	0.820575	-0.043107	1.197583
C47	C	0.212704	-0.359206	0.627313
C48	C	0.712704	0.140794	1.127313
C49	C	0.191849	-0.296705	0.606496
C50	C	0.691849	0.203295	1.106496
C51	C	0.140866	-0.296722	0.708562
C52	C	0.640866	0.203278	1.208562
C53	C	0.161721	-0.359223	0.729379
C54	C	0.661721	0.140777	1.229379
C55	C	0.136200	-0.467030	0.703858
C56	C	0.636200	0.032970	1.203858
C57	C	0.115361	-0.487857	0.683021
C58	C	0.615361	0.012143	1.183021
C59	C	0.217408	-0.538877	0.631968
C60	C	0.717408	-0.038877	1.131968
C61	C	0.238249	-0.518050	0.652796
C62	C	0.738249	-0.018050	1.152796
C63	C	0.136259	-0.467047	0.811668
C64	C	0.636259	0.032953	1.311668
C65	C	0.115461	-0.487892	0.874167
C66	C	0.615461	0.012108	1.374167
C67	C	0.217537	-0.538923	0.874131
C68	C	0.717537	-0.038923	1.374131
C69	C	0.238333	-0.518080	0.811631
C70	C	0.738333	-0.018080	1.311631
C71	C	0.197693	-0.482140	0.780401
C72	C	0.697693	0.017860	1.280401
C73	C	0.289320	-0.482131	0.688723
C74	C	0.789320	0.017869	1.188723
C75	C	0.132699	-0.546027	0.973247
C76	C	0.632699	-0.046027	1.473247
C77	C	0.482158	-0.545613	0.624075
C78	C	0.982158	-0.045613	1.124075
C79	C	0.132521	-0.546006	0.624886
C80	C	0.632521	-0.046006	1.124886
C81	C	0.132917	-0.197607	0.625310
C82	C	0.632917	0.302393	1.125310
C83	C	-0.098217	-0.686189	0.484419
C84	C	0.401783	-0.186189	0.984419
C85	C	-0.006438	-0.686322	0.392891
C86	C	0.493562	-0.186322	0.892891
C87	C	-0.006621	-0.777944	0.484592
C88	C	0.493379	-0.277944	0.984592
C89	C	-0.006606	-0.686315	0.484649
C90	C	0.493394	-0.186315	0.984649
C91	C	-0.029470	-0.709193	0.461638
C92	C	0.470530	-0.209193	0.961638
N93	N	0.538410	-0.565162	0.605628
N94	N	1.038410	-0.065162	1.105628
O95	O	0.742647	-0.575135	0.458625
O96	O	1.242647	-0.075135	0.958625
O97	O	0.742821	-0.691181	0.616169
O98	O	1.242821	-0.191181	1.116169
O99	O	0.742757	-0.690917	0.516248
O100	O	1.242757	-0.190917	1.016248
O101	O	0.742711	-0.575399	0.558546
O102	O	1.242711	-0.075399	1.058546
O103	O	0.643472	-0.657878	0.549405
O104	O	1.143472	-0.157878	1.049405
O105	O	0.643536	-0.658142	0.649326
O106	O	1.143536	-0.158142	1.149326
O107	O	0.643362	-0.542096	0.491782
O108	O	1.143362	-0.042096	0.991782
Zn109	Zn	0.627685	-0.594873	0.575818
Zn110	Zn	1.127685	-0.094873	1.075818
Zn111	Zn	0.758498	-0.638404	0.532133
Zn112	Zn	1.258498	-0.138404	1.032133
O113	O	0.643426	-0.542360	0.591702
O114	O	1.143426	-0.042360	1.091702
N115	N	0.847774	-0.668115	0.502317
N116	N	1.347774	-0.168115	1.002317
N117	N	0.114542	-0.141354	0.605766
N118	N	0.614542	0.358646	1.105766
O119	O	-0.032397	0.062987	0.595660
O120	O	0.467603	0.562987	1.095660
O121	O	0.125155	0.062987	0.479633
O122	O	0.625155	0.562987	0.979633
O123	O	0.025219	0.062974	0.479910
O124	O	0.525219	0.562974	0.979910
O125	O	0.067539	0.063001	0.595383
O126	O	0.567539	0.563001	1.095383
O127	O	0.058343	-0.036320	0.513009
O128	O	0.558343	0.463680	1.013009
O129	O	0.158279	-0.036306	0.512732
O130	O	0.658279	0.463694	1.012732
O131	O	0.000728	-0.036306	0.628759
O132	O	0.500728	0.463694	1.128759
Zn133	Zn	0.084763	-0.052071	0.576000
Zn134	Zn	0.584763	0.447929	1.076000
Zn135	Zn	0.041120	0.078752	0.532392
Zn136	Zn	0.541120	0.578752	1.032392
O137	O	0.100664	-0.036292	0.628482
O138	O	0.600664	0.463708	1.128482
N139	N	0.011333	0.168036	0.502628
N140	N	0.511333	0.668036	1.002628
N141	N	0.114782	-0.565197	1.029501
N142	N	0.614782	-0.065197	1.529501
O143	O	0.104681	-0.712124	1.233827
O144	O	0.604681	-0.212124	1.733827
O145	O	-0.011334	-0.554523	1.233839
O146	O	0.488666	-0.054523	1.733839
O147	O	-0.011066	-0.654443	1.233797
O148	O	0.488934	-0.154443	1.733797
O149	O	0.104414	-0.612204	1.233869
O150	O	0.604414	-0.112204	1.733869
O151	O	0.022028	-0.621336	1.134509
O152	O	0.522028	-0.121336	1.634509
O153	O	0.021760	-0.521417	1.134551
O154	O	0.521760	-0.021417	1.634551
O155	O	0.137775	-0.679018	1.134539
O156	O	0.637775	-0.179018	1.634539
Zn157	Zn	0.085022	-0.594961	1.118780
Zn158	Zn	0.585022	-0.094961	1.618780
Zn159	Zn	0.041420	-0.638580	1.249597
Zn160	Zn	0.541420	-0.138580	1.749597
O161	O	0.137508	-0.579098	1.134580
O162	O	0.637508	-0.079098	1.634580
N163	N	0.011658	-0.668350	1.338876
N164	N	0.511658	-0.168350	1.838876
C165	C	0.037974	-0.518023	0.480435
C166	C	0.537974	-0.018023	0.980435
C167	C	0.161625	-0.641592	0.480351
C168	C	0.661625	-0.141592	0.980351
C169	C	0.087941	-0.715455	0.628017
C170	C	0.587941	-0.215455	1.128017
C171	C	-0.035710	-0.591885	0.628101
C172	C	0.464290	-0.091885	1.128101
C173	C	0.693199	-0.690642	0.652596
C174	C	1.193199	-0.190642	1.152596
C175	C	0.693122	-0.690315	0.528855
C176	C	1.193122	-0.190315	1.028855
C177	C	0.692981	-0.542634	0.455356
C178	C	1.192981	-0.042634	0.955356
C179	C	0.693062	-0.542961	0.579095
C180	C	1.193062	-0.042961	1.079095
C181	C	0.161524	0.013463	0.480164
C182	C	0.661524	0.513463	0.980164
C183	C	0.037807	0.013324	0.480547
C184	C	0.537807	0.513324	0.980547
C185	C	-0.035683	0.013341	0.628188
C186	C	0.464317	0.513341	1.128188
C187	C	0.088076	0.013357	0.627845
C188	C	0.588076	0.513357	1.127845
C189	C	-0.010764	-0.518114	1.184196
C190	C	0.489236	-0.018114	1.684196
C191	C	-0.010426	-0.641846	1.184125
C192	C	0.489574	-0.141846	1.684125
C193	C	0.137205	-0.715426	1.184182
C194	C	0.637205	-0.215426	1.684182
C195	C	0.136875	-0.591687	1.184231
C196	C	0.636875	-0.091687	1.684231
H197	H	0.103160	-0.437777	0.786243
H198	H	0.603160	0.062223	1.286243
O199	O	0.215415	0.013821	0.436651
O200	O	0.715415	0.513821	0.936651
C201	C	0.313609	0.014283	0.408739
C202	C	0.813609	0.514283	0.908739
C203	C	0.252601	0.013892	0.458064
C204	C	0.752601	0.513892	0.958064
H205	H	0.343695	0.014327	0.426038
H206	H	0.843695	0.514327	0.926038
H207	H	0.307123	0.055936	0.368151
H208	H	0.807123	0.555936	0.868151
H209	H	0.335188	-0.027171	0.395522
H210	H	0.835188	0.472829	0.895522
H211	H	0.230988	0.055317	0.471333
H212	H	0.730988	0.555317	0.971333
H213	H	0.259126	-0.027789	0.498620
H214	H	0.759126	0.472211	0.998620
O215	O	-0.089707	0.013456	0.671593
O216	O	0.410293	0.513456	1.171593
C217	C	-0.195912	0.064893	0.700408
C218	C	0.304088	0.564893	1.200408
C219	C	-0.134767	0.064840	0.651206
C220	C	0.365233	0.564840	1.151206
H221	H	-0.232360	0.106426	0.683939
H222	H	0.267640	0.606426	1.183939
H223	H	-0.196011	0.064944	0.741992
H224	H	0.303989	0.564944	1.241992
H225	H	-0.204634	0.023320	0.711705
H226	H	0.295366	0.523320	1.211705
H227	H	-0.126006	0.106406	0.639858
H228	H	0.373994	0.606406	1.139858
H229	H	-0.134697	0.064758	0.609653
H230	H	0.365303	0.564758	1.109653
H231	H	0.250475	-0.568133	0.602707
H232	H	0.750475	-0.068133	1.102707
O233	O	-0.054275	-0.464141	1.184171
O234	O	0.445725	0.035859	1.684171
C235	C	-0.154928	-0.402960	1.184183
C236	C	0.345072	0.097040	1.684183
C237	C	-0.105700	-0.464106	1.184199
C238	C	0.394300	0.035894	1.684199
H239	H	-0.196520	-0.402915	1.184219
H240	H	0.303480	0.097085	1.684219
H241	H	-0.138546	-0.366491	1.142631
H242	H	0.361454	0.133509	1.642631
H243	H	-0.166172	-0.394219	1.225735
H244	H	0.333828	0.105781	1.725735
H245	H	-0.094433	-0.472904	1.142676
H246	H	0.405567	0.027096	1.642676
H247	H	-0.122108	-0.500542	1.225779
H248	H	0.377892	-0.000542	1.725779
H249	H	0.173631	-0.760687	1.184171
H250	H	0.673631	-0.260687	1.684171
H251	H	0.097136	0.013366	0.664120
H252	H	0.597136	0.513366	1.164120
O253	O	-0.053616	-0.652692	1.184022
O254	O	0.446384	-0.152692	1.684022
C255	C	-0.080902	-0.723592	1.183941
C256	C	0.419098	-0.223592	1.683941
C257	C	-0.031933	-0.711385	1.184043
C258	C	0.468067	-0.211385	1.684043
H259	H	-0.063394	-0.771049	1.183971
H260	H	0.436606	-0.271049	1.683971
H261	H	-0.093915	-0.690562	1.142360
H262	H	0.406085	-0.190562	1.642360
H263	H	-0.121672	-0.718213	1.225464
H264	H	0.378328	-0.218213	1.725464
H265	H	0.008869	-0.716772	1.142548
H266	H	0.508869	-0.216772	1.642548
H267	H	-0.018971	-0.744413	1.225652
H268	H	0.481029	-0.244413	1.725652
H269	H	0.206895	-0.650521	0.443974
H270	H	0.706895	-0.150521	0.943974
O271	O	0.693061	-0.733631	0.518158
O272	O	1.193061	-0.233631	1.018158
C273	C	0.641661	-0.798772	0.546856
C274	C	1.141661	-0.298772	1.046856
C275	C	0.641663	-0.749729	0.559044
C276	C	1.141663	-0.249729	1.059044
H277	H	0.600104	-0.811794	0.579896
H278	H	1.100104	-0.311794	1.079896
H279	H	0.683211	-0.839536	0.552200
H280	H	1.183211	-0.339536	1.052200
H281	H	0.641649	-0.781261	0.499413
H282	H	1.141649	-0.281261	0.999413
H283	H	0.641654	-0.767184	0.606484
H284	H	1.141654	-0.267184	1.106484
H285	H	0.600116	-0.708975	0.553660
H286	H	1.100116	-0.208975	1.053660
O287	O	0.693152	-0.734093	0.706597
O288	O	1.193152	-0.234093	1.206597
C289	C	0.641830	-0.799446	0.794196
C290	C	1.141830	-0.299446	1.294196
C291	C	0.641800	-0.750229	0.733058
C292	C	1.141800	-0.250229	1.233058
H293	H	0.600322	-0.812515	0.815602
H294	H	1.100322	-0.312515	1.315602
H295	H	0.641799	-0.782164	0.824344
H296	H	1.141799	-0.282164	1.324344
H297	H	0.683422	-0.840128	0.787881
H298	H	1.183422	-0.340128	1.287881
H299	H	0.600215	-0.709530	0.739317
H300	H	1.100215	-0.209530	1.239317
H301	H	0.641862	-0.767559	0.702931
H302	H	1.141862	-0.267559	1.202931
O303	O	0.026920	0.013271	0.437347
O304	O	0.526920	0.513271	0.937347
C305	C	-0.044022	0.013254	0.410056
C306	C	0.455978	0.513254	0.910056
C307	C	-0.031771	0.013311	0.459033
C308	C	0.468229	0.513311	0.959033
H309	H	-0.091477	0.013299	0.427566
H310	H	0.408523	0.513299	0.927566
H311	H	-0.011003	-0.028320	0.397030
H312	H	0.488997	0.471680	0.897030
H313	H	-0.038664	0.054788	0.369293
H314	H	0.461336	0.554788	0.869293
H315	H	-0.037138	-0.028194	0.499828
H316	H	0.462862	0.471806	0.999828
H317	H	-0.064788	0.054913	0.472008
H318	H	0.435212	0.554913	0.972008
O319	O	0.692940	-0.499239	0.401340
O320	O	1.192940	0.000761	0.901340
C321	C	0.692812	-0.471465	0.303021
C322	C	1.192812	0.028535	0.803021
C323	C	0.692874	-0.520666	0.364161
C324	C	1.192874	-0.020666	0.864161
H325	H	0.692746	-0.488766	0.272949
H326	H	1.192746	0.011234	0.772949
H327	H	0.734349	-0.458418	0.281522
H328	H	1.234349	0.041582	0.781522
H329	H	0.651248	-0.430764	0.309347
H330	H	1.151248	0.069236	0.809347
H331	H	0.734410	-0.561399	0.357888
H332	H	1.234410	-0.061399	0.857888
H333	H	0.651310	-0.533663	0.385640
H334	H	1.151310	-0.033663	0.885640
H335	H	0.693053	-0.506675	0.588146
H336	H	1.193053	-0.006675	1.088146
O337	O	0.180144	-0.580975	1.184353
O338	O	0.680144	-0.080975	1.684353
C339	C	0.245297	-0.609730	1.235791
C340	C	0.745297	-0.109730	1.735791
C341	C	0.196287	-0.621917	1.235736
C342	C	0.696287	-0.121917	1.735736
H343	H	0.258373	-0.642832	1.277324
H344	H	0.758373	-0.142832	1.777324
H345	H	0.227813	-0.562307	1.235839
H346	H	0.727813	-0.062307	1.735839
H347	H	0.286021	-0.615054	1.194222
H348	H	0.786021	-0.115054	1.694222
H349	H	0.155547	-0.616626	1.277298
H350	H	0.655547	-0.116626	1.777298
H351	H	0.213819	-0.669335	1.235657
H352	H	0.713819	-0.169335	1.735657
H353	H	-0.080982	-0.582959	0.664476
H354	H	0.419018	-0.082959	1.164476
H355	H	0.250633	-0.568176	0.899553
H356	H	0.750633	-0.068176	1.399553
O357	O	0.055760	-0.473143	0.904441
O358	O	0.555760	0.026857	1.404441
C359	C	-0.043288	-0.420344	0.897874
C360	C	0.456712	0.079656	1.397874
C361	C	0.024305	-0.436990	0.863512
C362	C	0.524305	0.063010	1.363512
H363	H	-0.068739	-0.391122	0.864798
H364	H	0.431261	0.108878	1.364798
H365	H	-0.055608	-0.394867	0.927120
H366	H	0.444392	0.105133	1.427120
H367	H	-0.055557	-0.462761	0.927148
H368	H	0.444443	0.037239	1.427148
H369	H	0.036622	-0.394603	0.834205
H370	H	0.536622	0.105397	1.334205
H371	H	0.036588	-0.462490	0.834304
H372	H	0.536588	0.037510	1.334304
H373	H	0.103135	-0.437780	0.733124
H374	H	0.603135	0.062220	1.233124
O375	O	0.298034	-0.532778	0.781353
O376	O	0.798034	-0.032778	1.281353
C377	C	0.397083	-0.585625	0.787917
C378	C	0.897083	-0.085625	1.287917
C379	C	0.329491	-0.569012	0.822280
C380	C	0.829491	-0.069012	1.322280
H381	H	0.422536	-0.614933	0.820992
H382	H	0.922536	-0.114933	1.320992
H383	H	0.409405	-0.543234	0.758676
H384	H	0.909405	-0.043234	1.258676
H385	H	0.409349	-0.611041	0.758637
H386	H	0.909349	-0.111041	1.258637
H387	H	0.317177	-0.543611	0.851592
H388	H	0.817177	-0.043611	1.351592
H389	H	0.317205	-0.611425	0.851483
H390	H	0.817205	-0.111425	1.351483
H391	H	0.065328	-0.475552	0.695316
H392	H	0.565328	0.024448	1.195316
H393	H	0.295144	-0.575796	0.721768
H394	H	0.795144	-0.075796	1.221768
O395	O	0.297957	-0.532772	0.638066
O396	O	0.797957	-0.032772	1.138066
C397	C	0.396979	-0.585504	0.585158
C398	C	0.896979	-0.085504	1.085158
C399	C	0.329378	-0.568898	0.601817
C400	C	0.829378	-0.068898	1.101817
H401	H	0.422403	-0.614703	0.555838
H402	H	0.922403	-0.114703	1.055838
H403	H	0.409362	-0.610991	0.627527
H404	H	0.909362	-0.110991	1.127527
H405	H	0.409218	-0.543068	0.559743
H406	H	0.909218	-0.043068	1.059743
H407	H	0.317091	-0.611302	0.627218
H408	H	0.817091	-0.111302	1.127218
H409	H	0.317032	-0.543387	0.559426
H410	H	0.817032	-0.043387	1.059426
O411	O	0.413343	-0.623197	0.685408
O412	O	0.913343	-0.123197	1.185408
C413	C	0.406771	-0.721288	0.725810
C414	C	0.906771	-0.221288	1.225810
C415	C	0.372414	-0.654202	0.716045
C416	C	0.872414	-0.154202	1.216045
H417	H	0.373695	-0.746374	0.750570
H418	H	0.873695	-0.246374	1.250570
H419	H	0.436034	-0.738927	0.753312
H420	H	0.936034	-0.238927	1.253312
H421	H	0.436027	-0.728222	0.680735
H422	H	0.936027	-0.228222	1.180735
H423	H	0.343125	-0.647217	0.761092
H424	H	0.843125	-0.147217	1.261092
H425	H	0.343188	-0.636596	0.688516
H426	H	0.843188	-0.136596	1.188516
O427	O	0.098664	-0.769449	0.671425
O428	O	0.598664	-0.269449	1.171425
C429	C	0.104119	-0.822896	0.770900
C430	C	0.604119	-0.322896	1.270900
C431	C	0.091974	-0.761712	0.721787
C432	C	0.591974	-0.261712	1.221787
H433	H	0.098702	-0.816660	0.811634
H434	H	0.598702	-0.316660	1.311634
H435	H	0.151553	-0.852921	0.753514
H436	H	0.651553	-0.352921	1.253514
H437	H	0.071049	-0.844403	0.783922
H438	H	0.571049	-0.344403	1.283922
H439	H	0.125006	-0.740153	0.708743
H440	H	0.625006	-0.240153	1.208743
H441	H	0.044525	-0.731729	0.739200
H442	H	0.544525	-0.231729	1.239200
O443	O	0.413365	-0.423795	0.609236
O444	O	0.913365	0.076205	1.109236
C445	C	0.432420	-0.337141	0.525020
C446	C	0.932420	0.162859	1.025020
C447	C	0.398061	-0.381310	0.557731
C448	C	0.898061	0.118690	1.057731
H449	H	0.420049	-0.302774	0.483378
H450	H	0.920049	0.197226	0.983378
H451	H	0.482463	-0.362470	0.511595
H452	H	0.982463	0.137530	1.011595
H453	H	0.420151	-0.313457	0.555901
H454	H	0.920151	0.186543	1.055901
H455	H	0.410280	-0.405007	0.526883
H456	H	0.910280	0.094993	1.026883
H457	H	0.348026	-0.355950	0.571165
H458	H	0.848026	0.144050	1.071165
O459	O	0.290131	-0.382783	0.650522
O460	O	0.790131	0.117217	1.150522
C461	C	0.219614	-0.307153	0.696575
C462	C	0.719614	0.192847	1.196575
C463	C	0.254022	-0.374224	0.706287
C464	C	0.754022	0.125776	1.206287
H465	H	0.190422	-0.300210	0.741652
H466	H	0.690422	0.199790	1.241652
H467	H	0.190296	-0.289532	0.669136
H468	H	0.690296	0.210468	1.169136
H469	H	0.252689	-0.282055	0.671740
H470	H	0.752689	0.217945	1.171740
H471	H	0.220990	-0.399371	0.731138
H472	H	0.720990	0.100629	1.231138
H473	H	0.283349	-0.391798	0.733701
H474	H	0.783349	0.108202	1.233701
H475	H	0.241946	-0.384640	0.594232
H476	H	0.741946	0.115360	1.094232
H477	H	0.204115	-0.271255	0.556464
H478	H	0.704115	0.228745	1.056464
O479	O	0.106061	-0.266342	0.747997
O480	O	0.606061	0.233658	1.247997
C481	C	0.094905	-0.195740	0.783678
C482	C	0.594905	0.304260	1.283678
C483	C	0.134391	-0.230120	0.738997
C484	C	0.634391	0.269880	1.238997
H485	H	0.117789	-0.166437	0.776409
H486	H	0.617789	0.333563	1.276409
H487	H	0.087732	-0.228785	0.831184
H488	H	0.587732	0.271215	1.331184
H489	H	0.049935	-0.166514	0.776490
H490	H	0.549935	0.333486	1.276490
H491	H	0.179383	-0.259347	0.746130
H492	H	0.679383	0.240653	1.246130
H493	H	0.141515	-0.197043	0.691507
H494	H	0.641515	0.302957	1.191507
O495	O	0.147157	-0.389564	0.789070
O496	O	0.647157	0.110436	1.289070
C497	C	0.151931	-0.408679	0.882677
C498	C	0.651931	0.091321	1.382677
C499	C	0.168476	-0.374293	0.815084
C500	C	0.668476	0.125707	1.315084
H501	H	0.169148	-0.396336	0.903731
H502	H	0.669148	0.103664	1.403731
H503	H	0.173022	-0.458723	0.890612
H504	H	0.673022	0.041277	1.390612
H505	H	0.101329	-0.396403	0.903734
H506	H	0.601329	0.103597	1.403734
H507	H	0.219069	-0.386519	0.793982
H508	H	0.719069	0.113481	1.293982
H509	H	0.147342	-0.324258	0.807191
H510	H	0.647342	0.175742	1.307191
O511	O	0.027149	-0.463961	0.437137
O512	O	0.527149	0.036039	0.937137
C513	C	-0.043672	-0.365663	0.409674
C514	C	0.456328	0.134337	0.909674
C515	C	-0.031497	-0.426865	0.458757
C516	C	0.468503	0.073135	0.958757
H517	H	-0.091082	-0.335649	0.427141
H518	H	0.408918	0.164351	0.927141
H519	H	-0.038360	-0.371837	0.368949
H520	H	0.461640	0.128163	0.868949
H521	H	-0.010566	-0.344179	0.396606
H522	H	0.489434	0.155821	0.896606
H523	H	-0.064592	-0.448382	0.471876
H524	H	0.435408	0.051618	0.971876
H525	H	-0.036789	-0.420651	0.499450
H526	H	0.463211	0.079349	0.999450
