data_functionalizedCrystal
_audit_creation_method	'MofGen! by Chris Wilmer'
_symmetry_space_group_name_H-M	'P1'
_symmetry_Int_Tables_number	1
_symmetry_cell_setting	triclinic
loop_
_symmetry_equiv_pos_as_xyz
  x,y,z
_cell_length_a	16.959455
_cell_length_b	18.050590
_cell_length_c	16.959447
_cell_angle_alpha	89.968225
_cell_angle_beta	89.979626
_cell_angle_gamma	90.015572
loop_
_atom_site_label
_atom_site_type_symbol
_atom_site_fract_x
_atom_site_fract_y
_atom_site_fract_z
Zn1	Zn	1.208392	-0.295704	-0.447028
Zn2	Zn	1.708392	0.204296	0.052972
Zn3	Zn	1.208318	-0.419905	-0.314846
Zn4	Zn	1.708318	0.080095	0.185154
Zn5	Zn	1.076221	-0.295727	-0.314852
Zn6	Zn	1.576221	0.204273	0.185148
Zn7	Zn	1.076189	-0.419850	-0.446971
Zn8	Zn	1.576189	0.080150	0.053029
O9	O	1.142280	-0.357797	-0.380924
O10	O	1.642280	0.142203	0.119076
O11	O	1.318993	-0.312193	-0.429516
O12	O	1.818993	0.187807	0.070484
O13	O	1.190778	-0.403466	-0.204236
O14	O	1.690778	0.096534	0.295764
O15	O	1.093798	-0.191800	-0.332412
O16	O	1.593798	0.308200	0.167588
O17	O	1.318939	-0.403443	-0.332402
O18	O	1.818939	0.096557	0.167598
O19	O	1.190904	-0.191782	-0.429521
O20	O	1.690904	0.308218	0.070479
O21	O	1.093726	-0.312233	-0.204240
O22	O	1.593726	0.187767	0.295760
O23	O	0.965606	-0.312179	-0.332356
O24	O	1.465606	0.187821	0.167644
O25	O	1.093744	-0.403349	-0.557590
O26	O	1.593744	0.096651	-0.057590
O27	O	0.965582	-0.403372	-0.429423
O28	O	1.465582	0.096628	0.070577
O29	O	1.190873	-0.312139	-0.557632
O30	O	1.690873	0.187861	-0.057632
O31	O	1.190747	-0.523823	-0.332347
O32	O	1.690747	-0.023823	0.167653
O33	O	1.093672	-0.523782	-0.429418
O34	O	1.593672	-0.023782	0.070582
C35	C	0.936914	-0.357772	-0.380885
C36	C	1.436914	0.142228	0.119115
C37	C	0.849057	-0.357780	-0.380886
C38	C	1.349057	0.142220	0.119114
C39	C	0.477543	-0.405264	-0.330332
C40	C	0.977543	0.094736	0.169668
C41	C	0.477620	-0.310391	-0.431613
C42	C	0.977620	0.189609	0.068387
C43	C	0.560166	-0.310379	-0.431594
C44	C	1.060166	0.189621	0.068406
C45	C	0.601404	-0.357811	-0.380944
C46	C	1.101404	0.142189	0.119056
C47	C	0.560096	-0.405254	-0.330313
C48	C	1.060096	0.094746	0.169687
C49	C	0.601481	-0.262941	-0.482230
C50	C	1.101481	0.237059	0.017770
C51	C	0.684032	-0.262928	-0.482214
C52	C	1.184032	0.237072	0.017786
C53	C	0.725271	-0.310356	-0.431559
C54	C	1.225271	0.189644	0.068441
C55	C	0.683958	-0.357801	-0.380925
C56	C	1.183958	0.142199	0.119075
C57	C	0.725195	-0.405233	-0.330274
C58	C	1.225195	0.094767	0.169726
C59	C	0.683884	-0.452675	-0.279636
C60	C	1.183884	0.047325	0.220364
C61	C	0.601335	-0.452683	-0.279657
C62	C	1.101335	0.047317	0.220343
C63	C	0.807819	-0.310348	-0.431537
C64	C	1.307819	0.189652	0.068463
C65	C	0.807749	-0.405224	-0.330255
C66	C	1.307749	0.094776	0.169745
C67	C	1.142219	-0.550749	-0.380893
C68	C	1.642219	-0.050749	0.119107
C69	C	1.142266	-0.633294	-0.380906
C70	C	1.642266	-0.133294	0.119094
C71	C	1.195165	-0.832740	-0.328192
C72	C	1.695165	-0.332740	0.171808
C73	C	1.214468	-0.882070	-0.400335
C74	C	1.714468	-0.382070	0.099665
C75	C	1.142310	-0.784425	-0.380937
C76	C	1.642310	-0.284425	0.119063
C77	C	1.123088	-0.882177	-0.308827
C78	C	1.623088	-0.382177	0.191173
C79	C	1.142355	-0.930410	-0.380962
C80	C	1.642355	-0.430410	0.119038
C81	C	1.161650	-0.832667	-0.453118
C82	C	1.661650	-0.332667	0.046882
C83	C	1.070237	-0.832770	-0.361562
C84	C	1.570237	-0.332770	0.138438
C85	C	1.089513	-0.882077	-0.433754
C86	C	1.589513	-0.382077	0.066246
C87	C	1.142287	-0.700327	-0.380922
C88	C	1.642287	-0.200327	0.119078
C89	C	1.142379	-1.014506	-0.380985
C90	C	1.642379	-0.514506	0.119015
C91	C	1.348448	-0.357821	-0.380965
C92	C	1.848448	0.142179	0.119035
C93	C	1.436305	-0.357832	-0.380982
C94	C	1.936305	0.142168	0.119018
C95	C	1.142313	-0.357735	-0.587093
C96	C	1.642313	0.142265	-0.087093
C97	C	1.142327	-0.357709	-0.674949
C98	C	1.642327	0.142291	-0.174949
C99	C	1.142362	-0.164091	-0.380973
C100	C	1.642362	0.335909	0.119027
C101	C	1.142398	-0.081545	-0.380994
C102	C	1.642398	0.418455	0.119006
C103	C	1.091851	-0.405119	-1.046406
C104	C	1.591851	0.094881	-0.546406
C105	C	1.192992	-0.310142	-1.046445
C106	C	1.692992	0.189858	-0.546445
C107	C	1.192971	-0.310158	-0.963899
C108	C	1.692971	0.189842	-0.463899
C109	C	1.142390	-0.357656	-0.922603
C110	C	1.642390	0.142344	-0.422603
C111	C	1.091830	-0.405138	-0.963852
C112	C	1.591830	0.094862	-0.463852
C113	C	1.243536	-0.262682	-0.922643
C114	C	1.743536	0.237318	-0.422643
C115	C	1.243518	-0.262696	-0.840092
C116	C	1.743518	0.237304	-0.340092
C117	C	1.192932	-0.310191	-0.798794
C118	C	1.692932	0.189809	-0.298794
C119	C	1.142369	-0.357674	-0.840049
C120	C	1.642369	0.142326	-0.340049
C121	C	1.091788	-0.405172	-0.798753
C122	C	1.591788	0.094828	-0.298753
C123	C	1.041220	-0.452653	-0.840006
C124	C	1.541220	0.047347	-0.340006
C125	C	1.041244	-0.452633	-0.922554
C126	C	1.541244	0.047367	-0.422554
C127	C	1.192908	-0.310211	-0.716246
C128	C	1.692908	0.189789	-0.216246
C129	C	1.091767	-0.405191	-0.716199
C130	C	1.591767	0.094809	-0.216199
C131	C	1.142293	-0.357804	-0.175558
C132	C	1.642293	0.142196	0.324442
C133	C	1.142432	-0.357621	-0.087702
C134	C	1.642432	0.142379	0.412298
H135	H	0.841319	-0.443846	-0.289006
H136	H	1.341319	0.056154	0.210994
H137	H	0.567692	-0.491307	-0.238430
H138	H	1.067692	0.008693	0.261570
C139	C	1.248623	-0.257892	-1.091873
C140	C	1.748623	0.242108	-0.591873
N141	N	1.290522	-0.218532	-1.126094
N142	N	1.790522	0.281468	-0.626094
H143	H	1.050570	-0.443864	-0.682581
H144	H	1.550570	0.056136	-0.182581
H145	H	1.177867	-0.811012	-0.514163
H146	H	1.677867	-0.311012	-0.014163
H147	H	1.044835	-0.903604	-0.478421
H148	H	1.544835	-0.403604	0.021579
H149	H	1.284721	-0.224016	-0.956272
H150	H	1.784721	0.275984	-0.456272
H151	H	0.717661	-0.224297	-0.523446
H152	H	1.217661	0.275703	-0.023446
C153	C	1.248530	-0.257986	-0.670871
C154	C	1.748530	0.242014	-0.170871
N155	N	1.290425	-0.218647	-0.636695
N156	N	1.790425	0.281353	-0.136695
H157	H	1.284692	-0.224034	-0.806510
H158	H	1.784692	0.275966	-0.306510
C159	C	0.987897	-0.803480	-0.339368
C160	C	1.487897	-0.303480	0.160632
N161	N	0.925878	-0.781415	-0.322641
N162	N	1.425878	-0.281415	0.177359
H163	H	0.717470	-0.491297	-0.238400
H164	H	1.217470	0.008703	0.261600
C165	C	0.432100	-0.457447	-0.274632
C166	C	0.932100	0.042553	0.225368
N167	N	0.397871	-0.496753	-0.232679
N168	N	0.897871	0.003247	0.267321
C169	C	1.296834	-0.911333	-0.422493
C170	C	1.796834	-0.411333	0.077507
N171	N	1.358874	-0.933373	-0.439176
N172	N	1.858874	-0.433373	0.060824
C173	C	0.985620	-0.504853	-0.967939
C174	C	1.485620	-0.004853	-0.467939
N175	N	0.943725	-0.544184	-1.002126
N176	N	1.443725	-0.044184	-0.502126
C177	C	1.101095	-0.911551	-0.226428
C178	C	1.601095	-0.411551	0.273572
N179	N	1.084534	-0.933673	-0.164364
N180	N	1.584534	-0.433673	0.335636
C181	C	0.853258	-0.258166	-0.487236
C182	C	1.353258	0.241834	0.012764
N183	N	0.887482	-0.218858	-0.529191
N184	N	1.387482	0.281142	-0.029191
C185	C	0.985582	-0.504899	-0.794569
C186	C	1.485582	-0.004899	-0.294569
N187	N	0.943676	-0.544249	-0.760343
N188	N	1.443676	-0.044249	-0.260343
H189	H	1.050678	-0.443775	-1.079998
H190	H	1.550678	0.056225	-0.579998
C191	C	0.432256	-0.258208	-0.487314
C192	C	0.932256	0.241792	0.012686
N193	N	0.398084	-0.218896	-0.529263
N194	N	0.898084	0.281104	-0.029263
C195	C	1.255568	-0.803463	-0.268000
C196	C	1.755568	-0.303463	0.232000
N197	N	1.301066	-0.781409	-0.222669
N198	N	1.801066	-0.281409	0.277331
C199	C	0.556114	-0.210753	-0.537923
C200	C	1.056114	0.289247	-0.037923
N201	N	0.521941	-0.171434	-0.579864
N202	N	1.021941	0.328566	-0.079864
