data_functionalizedCrystal
_audit_creation_method	'MofGen! by Chris Wilmer'
_symmetry_space_group_name_H-M	'P1'
_symmetry_Int_Tables_number	1
_symmetry_cell_setting	triclinic
loop_
_symmetry_equiv_pos_as_xyz
  x,y,z
_cell_length_a	16.994747
_cell_length_b	21.395362
_cell_length_c	21.395355
_cell_angle_alpha	90.043940
_cell_angle_beta	90.006168
_cell_angle_gamma	89.973055
loop_
_atom_site_label
_atom_site_type_symbol
_atom_site_fract_x
_atom_site_fract_y
_atom_site_fract_z
Zn1	Zn	0.313785	0.957945	0.354693
Zn2	Zn	0.445671	0.957883	0.249961
Zn3	Zn	0.313822	0.853160	0.249894
Zn4	Zn	0.445688	0.853165	0.354665
O5	O	0.379741	0.905538	0.302303
O6	O	0.331258	1.045615	0.340839
O7	O	0.428190	0.943964	0.162274
O8	O	0.203436	0.867084	0.263780
O9	O	0.428154	1.045570	0.263893
O10	O	0.203409	0.944069	0.340775
O11	O	0.331320	0.867024	0.162225
O12	O	0.331336	0.765483	0.263753
O13	O	0.428182	0.867092	0.442347
O14	O	0.428217	0.765487	0.340728
O15	O	0.331274	0.944074	0.442367
O16	O	0.556055	0.943969	0.263866
O17	O	0.556067	0.867033	0.340792
C18	C	0.379783	0.742751	0.302231
C19	C	0.379820	0.673109	0.302214
C20	C	0.430333	0.640415	0.342235
C21	C	0.430314	0.574979	0.342263
C22	C	0.379790	0.542241	0.302259
C23	C	0.329267	0.574944	0.262235
C24	C	0.329282	0.640378	0.262213
C25	C	0.373435	0.438515	0.245852
C26	C	0.373425	0.373082	0.245873
C27	C	0.379738	0.340420	0.302328
C28	C	0.386077	0.373200	0.358764
C29	C	0.386092	0.438634	0.358742
C30	C	0.379767	0.471289	0.302279
C31	C	0.430233	0.236773	0.342383
C32	C	0.430208	0.171337	0.342412
C33	C	0.329165	0.171302	0.262378
C34	C	0.329186	0.236738	0.262355
C35	C	0.379724	0.269469	0.302356
C36	C	0.584681	0.905502	0.302332
C37	C	0.674003	0.905507	0.302330
C38	C	0.174001	0.905578	0.302271
C39	C	0.084679	0.905597	0.302258
Zn40	Zn	0.944908	0.853178	0.249877
Zn41	Zn	0.944850	0.957973	0.354665
Zn42	Zn	0.813080	0.853186	0.354655
Zn43	Zn	0.812926	0.957895	0.249940
O44	O	0.878941	0.905558	0.302284
O45	O	1.055282	0.867108	0.263755
O46	O	0.927410	0.944109	0.442342
O47	O	0.830656	0.765507	0.340725
O48	O	1.055239	0.944101	0.340743
O49	O	0.927510	0.765501	0.263745
O50	O	0.830599	0.867123	0.442334
O51	O	0.702678	0.867047	0.340786
O52	O	0.830394	0.943968	0.162254
O53	O	0.702566	0.943976	0.263853
O54	O	0.927361	0.867033	0.162207
O55	O	0.927261	1.045640	0.340804
O56	O	0.830338	1.045583	0.263863
C57	C	0.379725	0.905590	0.465727
C58	C	0.379719	0.905613	0.535368
C59	C	0.379700	1.068962	0.302377
C60	C	0.379683	1.138603	0.302408
C61	C	0.379700	0.905523	0.139516
C62	C	0.379485	0.905622	0.069875
C63	C	0.329256	0.945695	0.568093
C64	C	0.329222	0.945694	0.633528
C65	C	0.379665	0.905617	0.666236
C66	C	0.430131	0.865527	0.633504
C67	C	0.430158	0.865525	0.568070
C68	C	0.450690	0.900661	0.769925
C69	C	0.450665	0.900668	0.835358
C70	C	0.379582	0.905621	0.868057
C71	C	0.308522	0.910581	0.835316
C72	C	0.308549	0.910579	0.769882
C73	C	0.379641	0.905615	0.737189
C74	C	0.329078	0.945705	0.971734
C75	C	0.329043	0.945700	1.037171
C76	C	0.429958	0.865536	1.037146
C77	C	0.429986	0.865538	0.971710
C78	C	0.379548	0.905626	0.939009
C79	C	0.878779	1.068346	0.302344
C80	C	0.878732	1.137987	0.302387
C81	C	0.878867	0.905491	0.138861
C82	C	0.878835	0.905462	0.069220
C83	C	0.879106	0.742135	0.302227
C84	C	0.879177	0.672493	0.302202
C85	C	0.879060	0.905581	0.465072
C86	C	0.879242	0.905435	0.534713
C87	C	0.929221	1.170703	0.342434
C88	C	0.929192	1.236138	0.342475
C89	C	0.878671	1.268857	0.302472
C90	C	0.828181	1.236136	0.262421
C91	C	0.828214	1.170702	0.262377
C92	C	0.929306	0.865387	0.036488
C93	C	0.929277	0.865348	-0.028948
C94	C	0.878780	0.905386	-0.061650
C95	C	0.828303	0.945462	-0.028913
C96	C	0.828330	0.945498	0.036521
C97	C	0.828777	0.639789	0.342270
C98	C	0.828828	0.574354	0.342247
C99	C	0.879282	0.541624	0.302159
C100	C	0.929684	0.574333	0.262086
C101	C	0.929629	0.639767	0.262106
C102	C	0.828558	0.865571	0.567386
C103	C	0.828729	0.865421	0.632821
C104	C	0.879581	0.905140	0.665582
C105	C	0.930271	0.945005	0.632904
C106	C	0.930103	0.945151	0.567470
H107	H	0.391251	0.465321	0.404694
O108	O	0.979774	0.983522	0.664702
C109	C	1.114232	1.013193	0.684596
C110	C	1.058266	0.969521	0.648555
H111	H	1.177704	1.001898	0.671545
H112	H	1.105705	1.006237	0.736982
H113	H	1.100711	1.063814	0.671910
H114	H	1.071752	0.918884	0.661189
H115	H	1.066803	0.976531	0.596178
O116	O	0.479158	0.826539	0.665177
C117	C	0.579285	0.747055	0.658247
C118	C	0.523790	0.791170	0.622301
H119	H	0.615397	0.718457	0.623598
H120	H	0.543105	0.714261	0.688830
H121	H	0.620477	0.775824	0.688932
H122	H	0.482587	0.762451	0.591582
H123	H	0.560019	0.823965	0.591757
O124	O	0.879261	0.478061	0.302245
C125	C	0.823964	0.384180	0.346189
C126	C	0.823923	0.456164	0.346160
H127	H	0.779216	0.366454	0.381681
H128	H	0.885045	0.366398	0.359213
H129	H	0.807624	0.366397	0.297654
H130	H	0.840229	0.474000	0.394680
H131	H	0.762835	0.473903	0.333101
H132	H	0.970762	0.547674	0.229447
H133	H	0.288024	0.144648	0.229809
O134	O	0.878639	0.905411	-0.125213
C135	C	0.823256	0.949343	-0.219105
C136	C	0.823315	0.949370	-0.147121
H137	H	0.778543	0.984890	-0.236840
H138	H	0.806887	0.900827	-0.236914
H139	H	0.884344	0.962322	-0.236853
H140	H	0.762245	0.936418	-0.129320
H141	H	0.839727	0.997892	-0.129355
O142	O	0.779077	0.827072	0.535544
C143	C	0.672349	0.819365	0.461788
C144	C	0.728323	0.863043	0.497815
H145	H	0.631311	0.848429	0.431266
H146	H	0.636104	0.790861	0.496363
H147	H	0.708236	0.786460	0.431031
H148	H	0.692497	0.895986	0.528574
H149	H	0.764570	0.891503	0.463207
H150	H	0.787191	0.978061	-0.055549
O151	O	0.978342	1.138861	0.381209
C152	C	1.084938	1.065025	0.389499
C153	C	1.029338	1.101027	0.345516
H154	H	1.126192	1.034438	0.360658
H155	H	1.048842	1.034353	0.422268
H156	H	1.120977	1.099671	0.418135
H157	H	0.993286	1.066426	0.316839
H158	H	1.065479	1.131709	0.312788
O159	O	0.779281	0.984493	0.068216
C160	C	0.679105	1.063934	0.061326
C161	C	0.734629	1.019812	0.025359
H162	H	0.642977	1.092490	0.026692
H163	H	0.715263	1.096765	0.091942
H164	H	0.637929	1.035172	0.091981
H165	H	0.775816	1.048523	-0.005330
H166	H	0.698422	0.986979	-0.005217
O167	O	0.779687	0.671478	0.381235
C168	C	0.679685	0.664572	0.460761
C169	C	0.735232	0.628613	0.416655
H170	H	0.643740	0.629932	0.489420
H171	H	0.638346	0.695169	0.432045
H172	H	0.715894	0.695244	0.493504
H173	H	0.699087	0.597907	0.383904
H174	H	0.776573	0.598055	0.445411
O175	O	0.778997	1.267852	0.223593
C176	C	0.644764	1.287916	0.193339
C177	C	0.700379	1.251948	0.237338
H178	H	0.581190	1.275081	0.204445
H179	H	0.658478	1.275037	0.142785
H180	H	0.653457	1.340299	0.200244
H181	H	0.691717	1.199556	0.230489
H182	H	0.686651	1.264879	0.287876
O183	O	0.779249	1.138829	0.223486
C184	C	0.734508	1.038031	0.187935
C185	C	0.790006	1.074044	0.232011
H186	H	0.743174	0.985647	0.194822
H187	H	0.748295	1.050854	0.137402
H188	H	0.670919	1.050937	0.198984
H189	H	0.853613	1.061158	0.221018
H190	H	0.776151	1.061218	0.282531
O191	O	0.978261	1.267818	0.381447
C192	C	1.078471	1.260898	0.460831
C193	C	1.022930	1.224947	0.416738
H194	H	1.114613	1.226253	0.489366
H195	H	1.042326	1.291521	0.493684
H196	H	1.119633	1.291544	0.432048
H197	H	0.981757	1.194267	0.445471
H198	H	1.059125	1.194363	0.383884
H199	H	0.391216	0.346609	0.404736
H200	H	0.471484	0.667061	0.374808
H201	H	0.471380	0.263425	0.374957
H202	H	0.471447	0.548354	0.374855
H203	H	0.471340	0.144718	0.375005
H204	H	0.970675	0.666390	0.229480
H205	H	0.508560	0.896459	0.743306
O206	O	0.978385	0.826430	0.068150
C207	C	1.078554	0.746982	0.061189
C208	C	1.023001	0.791064	0.025260
H209	H	1.114652	0.718386	0.026529
H210	H	1.042422	0.714185	0.091804
H211	H	1.119757	0.775777	0.091841
H212	H	0.981787	0.762319	-0.005426
H213	H	1.059182	0.823863	-0.005315
H214	H	0.787447	0.832958	0.659418
H215	H	0.878652	1.322137	0.302514
O216	O	0.879860	0.904945	0.729144
C217	C	0.955578	0.888268	0.822893
C218	C	0.955374	0.888450	0.750910
H219	H	1.016629	0.874946	0.840513
H220	H	0.910658	0.852934	0.840650
H221	H	0.939606	0.936839	0.840807
H222	H	0.971366	0.839906	0.732943
H223	H	1.000278	0.923818	0.733196
O224	O	0.978205	0.826354	-0.060767
C225	C	0.988904	0.741743	-0.134683
C226	C	0.933401	0.785852	-0.098679
H227	H	0.952703	0.708995	-0.165353
H228	H	1.024989	0.713096	-0.100093
H229	H	1.030121	0.770518	-0.165290
H230	H	0.892137	0.757125	-0.068071
H231	H	0.897371	0.814501	-0.133303
O232	O	0.367371	0.341315	0.191005
C233	C	0.424106	0.321137	0.089765
C234	C	0.431048	0.357158	0.151870
H235	H	0.475590	0.333922	0.058113
H236	H	0.366466	0.334018	0.065737
H237	H	0.425149	0.268762	0.099490
H238	H	0.430039	0.409541	0.142200
H239	H	0.488681	0.344224	0.175880
H240	H	0.787784	0.547731	0.374881
O241	O	0.280098	0.268404	0.223415
C242	C	0.179843	0.261463	0.144064
C243	C	0.235413	0.225523	0.188122
H244	H	0.143689	0.226809	0.115528
H245	H	0.215965	0.292025	0.111211
H246	H	0.138693	0.292168	0.172875
H247	H	0.276574	0.194784	0.159361
H248	H	0.199242	0.195001	0.220977
H249	H	0.368291	0.465102	0.199876
H250	H	0.971374	0.977617	0.540873
O251	O	0.479109	0.826610	0.536181
C252	C	0.523912	0.791113	0.435364
C253	C	0.468420	0.835203	0.471401
H254	H	0.515301	0.798055	0.382984
H255	H	0.510066	0.740580	0.448137
H256	H	0.587498	0.802095	0.448300
H257	H	0.404815	0.824278	0.458485
H258	H	0.482333	0.885723	0.458625
H259	H	0.288146	0.666998	0.229623
O260	O	0.280228	0.543215	0.223286
C261	C	0.241768	0.523074	0.116754
C262	C	0.297346	0.559054	0.160793
H263	H	0.255600	0.535856	0.066219
H264	H	0.178175	0.535996	0.127770
H265	H	0.250421	0.470693	0.123673
H266	H	0.288764	0.611444	0.153899
H267	H	0.360919	0.546080	0.149766
H268	H	0.288126	0.978333	0.660178
O269	O	0.280182	0.984650	0.536424
C270	C	0.180122	1.064188	0.543359
C271	C	0.235647	1.020095	0.579302
H272	H	0.144113	1.092866	0.578009
H273	H	0.138842	1.035461	0.512708
H274	H	0.216352	1.096914	0.512742
H275	H	0.199480	0.987361	0.609953
H276	H	0.276929	1.048862	0.609914
O277	O	0.239567	0.915302	0.738009
C278	C	0.151194	0.867373	0.664094
C279	C	0.229345	0.861956	0.700139
H280	H	0.142897	0.824243	0.633478
H281	H	0.152399	0.910927	0.633447
H282	H	0.100398	0.870943	0.698712
H283	H	0.280183	0.858361	0.665566
H284	H	0.228072	0.818411	0.730796
O285	O	0.239469	0.915272	0.867095
C286	C	0.151066	0.867370	0.940915
C287	C	0.229276	0.861975	0.904953
H288	H	0.142808	0.824292	0.971542
H289	H	0.100256	0.870871	0.906298
H290	H	0.152260	0.910971	0.971561
H291	H	0.228160	0.818376	0.874306
H292	H	0.280053	0.858508	0.939604
H293	H	0.288004	0.978343	0.945107
H294	H	0.471021	0.832898	1.063776
O295	O	0.279995	0.984697	1.068865
C296	C	0.179883	1.064188	1.061982
C297	C	0.235403	1.020066	1.026010
H298	H	0.143804	1.092787	1.027350
H299	H	0.216042	1.096981	1.092639
H300	H	0.138662	1.035424	1.092596
H301	H	0.276635	1.048780	0.995362
H302	H	0.199195	0.987272	0.995393
H303	H	0.471083	0.832902	0.945065
H304	H	0.508526	0.896633	0.862011
