data_functionalizedCrystal
_audit_creation_method	'MofGen! by Chris Wilmer'
_symmetry_space_group_name_H-M	'P1'
_symmetry_Int_Tables_number	1
_symmetry_cell_setting	triclinic
loop_
_symmetry_equiv_pos_as_xyz
  x,y,z
_cell_length_a	27.440280
_cell_length_b	21.606444
_cell_length_c	21.606444
_cell_angle_alpha	60.001331
_cell_angle_beta	89.996802
_cell_angle_gamma	59.992903
loop_
_atom_site_label
_atom_site_type_symbol
_atom_site_fract_x
_atom_site_fract_y
_atom_site_fract_z
Zr1	Zr	0.469488	0.677393	-0.081222
O2	O	0.391665	0.806525	-0.180042
O3	O	0.493346	0.548270	-0.050932
O4	O	0.493339	0.677394	-0.180050
O5	O	0.391675	0.677397	0.050931
O6	O	0.573541	0.677384	-0.180054
O7	O	0.391671	0.677401	-0.050923
O8	O	0.573553	0.446405	0.050915
O9	O	0.391664	0.908376	-0.180038
O10	O	0.563374	0.601369	-0.038013
O11	O	0.503523	0.601373	0.038003
O12	O	0.503516	0.753400	-0.114018
O13	O	0.443665	0.753404	-0.038002
Zr14	Zr	0.597407	0.677370	0.081217
Zr15	Zr	0.597401	0.677377	-0.081228
Zr16	Zr	0.469494	0.677386	0.081223
Zr17	Zr	0.469487	0.839833	-0.081217
Zr18	Zr	0.597409	0.514930	0.081212
O19	O	0.573550	0.806493	0.050927
O20	O	0.573540	0.806503	-0.180050
O21	O	0.391674	0.806515	0.050935
O22	O	0.675231	0.548238	0.180036
O23	O	0.675221	0.548248	-0.050940
O24	O	0.493355	0.548260	0.180045
O25	O	0.675220	0.677366	-0.050936
O26	O	0.573556	0.677369	0.180045
O27	O	0.493354	0.677379	0.180049
O28	O	0.675224	0.677362	0.050918
O29	O	0.493338	0.908363	-0.180043
O30	O	0.573558	0.446400	0.180038
O31	O	0.675231	0.446387	0.180033
O32	O	0.675226	0.446393	0.050910
O33	O	0.391669	0.908370	-0.050916
O34	O	0.493343	0.908358	-0.050920
O35	O	0.563380	0.601363	0.114012
O36	O	0.623231	0.601359	0.037997
O37	O	0.563372	0.753390	-0.038008
O38	O	0.503522	0.753394	0.038007
C39	C	0.533449	0.474194	-0.000009
C40	C	0.533450	0.405233	-0.000011
C41	C	0.373448	0.677401	0.000005
C42	C	0.319146	0.677408	0.000007
C43	C	0.564690	0.372834	-0.039692
C44	C	0.564692	0.308034	-0.039687
C45	C	0.533450	0.275639	-0.000005
C46	C	0.502209	0.308041	0.039680
C47	C	0.502211	0.372836	0.039679
C48	C	0.502202	0.046732	0.039686
C49	C	0.502201	-0.018065	0.039683
C50	C	0.564683	-0.018070	-0.039679
C51	C	0.564685	0.046724	-0.039680
C52	C	0.533447	0.079118	0.000008
C53	C	0.533446	0.149380	0.000003
C54	C	0.533447	0.205382	-0.000004
C55	C	-0.017554	0.677364	-0.056116
C56	C	-0.068572	0.677358	-0.056116
O57	O	-0.094949	0.677328	-0.103822
N58	N	-0.094088	0.677357	-0.000005
C59	C	-0.068579	0.677354	0.056115
O60	O	-0.094967	0.677352	0.103842
C61	C	-0.017560	0.677354	0.056118
C62	C	0.007950	0.677364	-0.000002
C63	C	0.007956	0.677373	-0.112231
C64	C	0.058969	0.677381	-0.112231
C65	C	0.084473	0.677380	-0.056116
C66	C	0.058963	0.677371	-0.000002
C67	C	0.007950	0.677344	0.112240
C68	C	0.058973	0.677343	0.112238
C69	C	0.084483	0.677353	0.056119
C70	C	0.135481	0.677378	0.056112
N71	N	0.160997	0.677379	0.000001
C72	C	0.135493	0.677380	-0.056114
C73	C	-0.175723	0.677352	0.056105
C74	C	-0.226744	0.677359	0.056100
C75	C	-0.226733	0.677361	-0.056131
C76	C	-0.175713	0.677361	-0.056128
C77	C	-0.150207	0.677353	-0.000006
C78	C	0.242625	0.677397	-0.056110
C79	C	0.293642	0.677409	-0.056107
C80	C	0.293628	0.677402	0.056126
C81	C	0.242614	0.677395	0.056121
C82	C	0.217115	0.677390	-0.000001
O83	O	0.161892	0.677406	0.103795
O84	O	0.161891	0.677371	-0.103827
C85	C	0.693447	0.677362	-0.000010
C86	C	0.747750	0.677355	-0.000013
C87	C	0.533440	0.677390	-0.203197
C88	C	0.533437	0.677393	-0.272160
C89	C	0.533446	0.880570	0.000004
C90	C	0.533445	0.949530	0.000006
C91	C	0.502191	0.756751	-0.344232
C92	C	0.502196	0.756749	-0.409027
C93	C	0.533444	0.677387	-0.401748
C94	C	0.564693	0.598023	-0.329668
C95	C	0.564691	0.598027	-0.264874
C96	C	0.564703	0.598008	-0.590971
C97	C	0.564701	0.598011	-0.655772
C98	C	0.502208	0.756730	-0.735123
C99	C	0.502206	0.756734	-0.670330
C100	C	0.533458	0.677370	-0.598256
C101	C	0.533453	0.677374	-0.527998
C102	C	0.533446	0.677383	-0.472004
C103	C	0.533456	0.677373	0.203192
C104	C	0.533459	0.677370	0.272154
C105	C	0.693449	0.474174	-0.000017
C106	C	0.747752	0.405207	-0.000021
C107	C	0.533457	0.474185	0.203185
C108	C	0.533461	0.405222	0.272146
C109	C	0.693457	0.474165	0.203178
C110	C	0.747763	0.405195	0.272136
C111	C	0.373438	0.880598	-0.203183
C112	C	0.319133	0.949568	-0.272141
C113	C	0.373446	0.880589	0.000011
C114	C	0.319143	0.949556	0.000016
C115	C	0.533438	0.880578	-0.203191
C116	C	0.533434	0.949541	-0.272151
C117	C	0.742008	0.372825	-0.039707
C118	C	0.793027	0.308032	-0.039726
C119	C	0.849788	0.275618	-0.000056
C120	C	0.855531	0.308007	0.039631
C121	C	0.804513	0.372803	0.039646
C122	C	0.564707	0.372830	0.344213
C123	C	0.564708	0.308041	0.409015
C124	C	0.533466	0.275640	0.401747
C125	C	0.502216	0.308038	0.329672
C126	C	0.502212	0.372830	0.264872
C127	C	0.804512	0.372804	0.264840
C128	C	0.855543	0.308009	0.329626
C129	C	0.849823	0.275601	0.401709
C130	C	0.793068	0.307998	0.409003
C131	C	0.742038	0.372797	0.344217
C132	C	0.262383	0.981967	-0.264845
C133	C	0.211352	1.046783	-0.329632
C134	C	0.217072	1.079193	-0.401714
C135	C	0.273827	1.046792	-0.409008
C136	C	0.324857	0.981982	-0.344222
C137	C	0.324887	0.981945	0.039695
C138	C	0.273868	1.046756	0.039696
C139	C	0.217107	1.079172	0.000024
C140	C	0.211365	1.046780	-0.039660
C141	C	0.262383	0.981975	-0.039666
C142	C	0.564683	0.981922	-0.264859
C143	C	0.564691	1.046711	-0.329648
C144	C	0.533448	1.079124	-0.401728
C145	C	0.502198	1.046737	-0.409019
C146	C	0.502194	0.981944	-0.344230
H147	H	0.590128	0.399209	-0.072009
Br148	Br	0.785315	0.264008	0.506835
H149	H	0.590131	0.281653	-0.071997
Br150	Br	0.533477	0.187707	0.489699
Br151	Br	0.134335	1.090741	-0.319714
H152	H	0.314409	0.677419	-0.101809
Br153	Br	0.785220	0.264088	-0.093589
H154	H	0.371064	0.955603	-0.350172
H155	H	0.533456	1.131883	-0.454477
Br156	Br	0.147874	1.167123	0.000039
Br157	Br	0.812291	0.416776	0.167022
H158	H	0.314400	0.677405	0.101811
H159	H	0.476758	0.821358	-0.676264
H160	H	0.901751	0.281637	0.323674
H161	H	0.476769	0.399195	0.206194
H162	H	0.257698	0.955606	-0.071975
Br163	Br	0.919084	0.187659	0.489626
Br164	Br	0.607111	0.490299	-0.645889
H165	H	0.371100	0.955557	0.072006
Br166	Br	0.134327	1.090781	-0.093496
Br167	Br	0.607089	0.490300	-0.493164
H168	H	0.278555	1.073118	0.072014
H169	H	0.590125	0.955542	-0.206173
Br170	Br	0.919022	0.187679	-0.000084
H171	H	0.901752	0.281606	0.071929
H172	H	0.476779	0.281647	0.323766
Br173	Br	0.812318	0.416737	0.093514
H174	H	0.590137	1.073074	-0.323697
Br175	Br	0.665023	0.416745	0.354133
Br176	Br	0.459793	1.090742	-0.506848
Br177	Br	0.459775	0.938014	-0.354140
Br178	Br	0.208028	0.677390	-0.132275
Br179	Br	0.254604	0.937992	-0.167027
H180	H	0.695795	0.399216	-0.072021
H181	H	0.590122	-0.044455	-0.071993
Br182	Br	0.607082	0.090691	-0.093542
H183	H	0.079738	0.677385	-0.157926
H184	H	0.175516	1.131966	-0.454461
Br185	Br	-0.026647	0.677372	-0.188395
Br186	Br	0.607116	0.416784	0.354097
Br187	Br	0.281580	1.090786	-0.506840
H188	H	0.476759	-0.044439	0.071998
Br189	Br	0.607107	0.490322	-0.167059
H190	H	0.476768	0.073096	0.072006
H191	H	0.476775	0.281656	0.071994
H192	H	0.590157	0.281671	0.467695
H193	H	-0.154946	0.677369	-0.101825
Br194	Br	0.459816	0.416803	0.093538
H195	H	-0.247516	0.677365	0.101791
Br196	Br	-0.261356	0.677363	-0.132286
H197	H	-0.012812	0.677336	0.157938
Br198	Br	0.093587	0.677327	0.188411
Br199	Br	-0.141116	0.677350	0.132274
Br200	Br	0.207988	0.677399	0.132276
H201	H	0.476742	0.821377	-0.350168
H202	H	0.476754	0.821370	-0.467709
H203	H	0.590139	0.533406	-0.323745
Br204	Br	0.459794	0.864440	-0.832943
