data_functionalizedCrystal
_audit_creation_method	'MofGen! by Chris Wilmer'
_symmetry_space_group_name_H-M	'P1'
_symmetry_Int_Tables_number	1
_symmetry_cell_setting	triclinic
loop_
_symmetry_equiv_pos_as_xyz
  x,y,z
_cell_length_a	16.992694
_cell_length_b	18.266242
_cell_length_c	16.992695
_cell_angle_alpha	89.993686
_cell_angle_beta	89.331777
_cell_angle_gamma	90.003271
loop_
_atom_site_label
_atom_site_type_symbol
_atom_site_fract_x
_atom_site_fract_y
_atom_site_fract_z
O1	O	1.050856	0.060790	-0.166918
O2	O	0.822456	0.060811	-0.165087
O3	O	0.935740	0.060795	-0.051803
O4	O	0.937571	0.060806	-0.280203
O5	O	0.935719	-0.060967	-0.051795
O6	O	0.822435	-0.060951	-0.165079
O7	O	1.050835	-0.060972	-0.166911
Zn8	Zn	0.936631	-0.080294	-0.165994
Zn9	Zn	0.936659	0.080133	-0.166004
O10	O	0.937550	-0.060956	-0.280195
C11	C	0.793085	-0.000067	-0.162727
C12	C	0.705600	-0.000059	-0.155699
N13	N	0.936618	-0.189781	-0.165987
C14	C	0.659610	-0.000056	-0.223517
C15	C	0.577409	-0.000066	-0.216908
C16	C	0.541201	-0.000074	-0.142480
C17	C	0.587198	-0.000079	-0.074657
C18	C	0.669397	-0.000074	-0.081267
C19	C	0.295886	-0.000095	-0.115086
C20	C	0.213681	-0.000098	-0.108481
C21	C	0.203898	-0.000087	-0.250732
C22	C	0.286099	-0.000077	-0.257335
C23	C	0.332089	-0.000086	-0.189512
N24	N	0.457178	-0.000083	-0.135723
N25	N	0.416110	-0.000083	-0.196270
C26	C	0.986800	-0.228097	-0.115852
C27	C	0.986805	-0.304742	-0.115849
C28	C	0.936636	-0.343067	-0.165994
C29	C	0.886445	-0.304742	-0.216133
C30	C	0.886436	-0.228099	-0.216129
N31	N	0.930981	-0.463396	-0.235021
N32	N	0.930994	-0.536204	-0.235022
C33	C	0.936659	-0.573990	-0.166007
N34	N	0.942326	-0.536217	-0.096990
N35	N	0.942317	-0.463403	-0.096989
C36	C	0.936640	-0.426174	-0.166003
C37	C	0.986849	-0.695413	-0.115864
C38	C	0.986848	-0.772060	-0.115860
C39	C	0.886492	-0.772058	-0.216151
C40	C	0.886489	-0.695414	-0.216148
C41	C	0.936671	-0.657096	-0.166006
C42	C	1.080205	-0.000092	-0.169270
C43	C	1.167690	-0.000096	-0.176299
N44	N	0.936678	0.189620	-0.166005
C45	C	0.933374	-0.000086	-0.022439
C46	C	0.926345	-0.000085	0.065046
C47	C	0.939917	-0.000073	-0.309559
C48	C	0.946945	-0.000069	-0.397044
C49	C	0.994163	-0.000092	0.111037
C50	C	0.987554	-0.000084	0.193238
C51	C	0.913127	-0.000075	0.229446
C52	C	0.845303	-0.000066	0.183449
C53	C	0.851913	-0.000068	0.101250
C54	C	0.885732	-0.000062	0.474760
C55	C	0.879127	-0.000062	0.556966
C56	C	1.021379	-0.000080	0.566749
C57	C	1.027982	-0.000086	0.484547
C58	C	0.960159	-0.000073	0.438558
N59	N	0.906369	-0.000070	0.313468
N60	N	0.966917	-0.000073	0.354537
H61	H	0.689084	-0.000049	-0.284124
H62	H	0.818516	-0.000066	0.586443
H63	H	1.027709	-0.803257	-0.075029
H64	H	0.796688	-0.000062	0.063804
O65	O	0.832366	-0.654088	-0.270232
H66	H	0.792024	-0.619187	-0.234671
O67	O	0.832381	-0.813383	-0.270241
H68	H	0.840820	-0.873116	-0.261825
H69	H	0.315574	-0.000062	-0.317942
O70	O	0.527801	-0.000064	-0.290053
H71	H	0.566789	-0.000048	-0.342917
H72	H	0.166444	-0.000081	-0.305950
O73	O	0.765029	-0.000059	0.222505
H74	H	0.732202	0.049575	0.204384
H75	H	0.184203	-0.000104	-0.047870
H76	H	0.557710	-0.000096	-0.014056
H77	H	1.027670	-0.335944	-0.075021
H78	H	1.088589	-0.000094	0.455073
H79	H	0.845596	-0.335951	-0.256961
O80	O	0.719008	-0.000075	-0.008122
H81	H	0.680022	-0.000075	0.044744
O82	O	0.345486	-0.000105	-0.041938
H83	H	0.306495	-0.000105	0.010925
O84	O	1.040912	-0.186766	-0.061762
H85	H	1.075801	-0.226291	-0.026893
O86	O	1.094526	-0.000094	0.616353
H87	H	1.129913	0.049527	0.602912
H88	H	0.845571	-0.196901	-0.256956
H89	H	1.054770	-0.000104	0.081563
H90	H	1.027708	-0.664213	-0.075033
H91	H	0.830505	-0.000052	0.437325
O92	O	1.060700	-0.000104	0.242845
H93	H	1.113564	-0.000125	0.203858
