data_functionalizedCrystal
_audit_creation_method	'MofGen! by Chris Wilmer'
_symmetry_space_group_name_H-M	'P1'
_symmetry_Int_Tables_number	1
_symmetry_cell_setting	triclinic
loop_
_symmetry_equiv_pos_as_xyz
  x,y,z
_cell_length_a	23.532407
_cell_length_b	23.532407
_cell_length_c	13.930277
_cell_angle_alpha	89.990782
_cell_angle_beta	89.998126
_cell_angle_gamma	82.848678
loop_
_atom_site_label
_atom_site_type_symbol
_atom_site_fract_x
_atom_site_fract_y
_atom_site_fract_z
O1	O	0.755262	0.069134	-0.079721
O2	O	1.255262	0.569134	0.420279
O3	O	0.589398	0.079138	-0.079750
O4	O	1.089398	0.579138	0.420250
O5	O	0.677332	-0.008796	-0.079717
O6	O	1.177332	0.491204	0.420283
O7	O	0.667328	0.157068	-0.079754
O8	O	1.167328	0.657068	0.420246
O9	O	0.677320	-0.008798	0.079945
O10	O	1.177320	0.491202	0.579945
O11	O	0.589386	0.079136	0.079912
O12	O	1.089386	0.579136	0.579912
O13	O	0.755250	0.069133	0.079941
O14	O	1.255250	0.569133	0.579941
Zn15	Zn	0.672316	0.074134	0.105276
Zn16	Zn	1.172316	0.574134	0.605276
Zn17	Zn	0.672332	0.074136	-0.105085
Zn18	Zn	1.172332	0.574136	0.394915
O19	O	0.667316	0.157066	0.079908
O20	O	1.167316	0.657066	0.579908
C21	C	0.568176	0.078882	0.000077
C22	C	1.068176	0.578882	0.500077
C23	C	0.504959	0.078116	0.000067
C24	C	1.004959	0.578116	0.500067
C25	C	0.677071	-0.030013	0.000116
C26	C	1.177071	0.469987	0.500116
C27	C	0.676305	-0.093230	0.000124
C28	C	1.176305	0.406770	0.500124
C29	C	0.723539	-0.492333	0.000079
C30	C	1.223539	0.007667	0.500079
C31	C	0.722827	-0.551733	0.000072
C32	C	1.222827	-0.051733	0.500072
O33	O	0.766613	-0.588478	0.000044
O34	O	1.266613	-0.088478	0.500044
N35	N	0.670551	-0.574359	0.000063
N36	N	1.170551	-0.074359	0.500063
C37	C	0.618983	-0.537582	0.000052
C38	C	1.118983	-0.037582	0.500052
O39	O	0.574452	-0.562281	0.000043
O40	O	1.074452	-0.062281	0.500043
C41	C	0.619695	-0.478182	0.000053
C42	C	1.119695	0.021818	0.500053
C43	C	0.671974	-0.455560	0.000071
C44	C	1.171974	0.044440	0.500071
C45	C	0.775814	-0.469710	0.000097
C46	C	1.275814	0.030290	0.500097
C47	C	0.776525	-0.410313	0.000106
C48	C	1.276525	0.089687	0.500106
C49	C	0.724961	-0.373540	0.000098
C50	C	1.224961	0.126460	0.500098
C51	C	0.672685	-0.396164	0.000080
C52	C	1.172685	0.103836	0.500080
C53	C	0.568127	-0.441406	0.000035
C54	C	1.068127	0.058594	0.500035
C55	C	0.568844	-0.382004	0.000035
C56	C	1.068844	0.117996	0.500035
C57	C	0.621123	-0.359381	0.000053
C58	C	1.121123	0.140619	0.500053
C59	C	0.621832	-0.299995	0.000082
C60	C	1.121832	0.200005	0.500082
N61	N	0.674109	-0.277368	0.000090
N62	N	1.174109	0.222632	0.500090
C63	C	0.725673	-0.314141	0.000098
C64	C	1.225673	0.185859	0.500098
C65	C	0.617491	-0.662324	0.000050
C66	C	1.117491	-0.162324	0.500050
C67	C	0.616778	-0.721722	0.000056
C68	C	1.116778	-0.221722	0.500056
C69	C	0.720623	-0.735869	0.000074
C70	C	1.220623	-0.235869	0.500074
C71	C	0.721335	-0.676470	0.000074
C72	C	1.221335	-0.176470	0.500074
C73	C	0.669767	-0.639698	0.000058
C74	C	1.169767	-0.139698	0.500058
C75	C	0.727163	-0.189405	0.000118
C76	C	1.227163	0.310595	0.500118
C77	C	0.727869	-0.130003	0.000132
C78	C	1.227869	0.369997	0.500132
C79	C	0.624025	-0.115860	0.000109
C80	C	1.124025	0.384140	0.500109
C81	C	0.623318	-0.175257	0.000101
C82	C	1.123318	0.324743	0.500101
C83	C	0.674891	-0.212029	0.000102
C84	C	1.174891	0.287971	0.500102
O85	O	0.578070	-0.263215	0.000105
O86	O	1.078070	0.236785	0.500105
O87	O	0.770196	-0.289433	0.000095
O88	O	1.270196	0.210567	0.500095
C89	C	0.105856	0.125350	0.000100
C90	C	0.605856	0.625350	0.500100
C91	C	0.046456	0.124638	0.000106
C92	C	0.546456	0.624638	0.500106
O93	O	0.009711	0.168424	0.000131
O94	O	0.509711	0.668424	0.500131
N95	N	0.023830	0.072362	0.000116
N96	N	0.523830	0.572362	0.500116
C97	C	0.060607	0.020794	0.000129
C98	C	0.560607	0.520794	0.500129
O99	O	0.035908	-0.023737	0.000139
O100	O	0.535908	0.476263	0.500139
C101	C	0.120006	0.021506	0.000130
C102	C	0.620006	0.521506	0.500130
C103	C	0.142629	0.073785	0.000110
C104	C	0.642629	0.573785	0.500110
C105	C	0.128479	0.177625	0.000081
C106	C	0.628479	0.677625	0.500081
C107	C	0.187876	0.178336	0.000073
C108	C	0.687876	0.678336	0.500073
C109	C	0.224649	0.126772	0.000084
C110	C	0.724649	0.626772	0.500084
C111	C	0.202025	0.074496	0.000103
C112	C	0.702025	0.574496	0.500103
C113	C	0.156783	-0.030062	0.000151
C114	C	0.656783	0.469938	0.500151
C115	C	0.216185	-0.029345	0.000152
C116	C	0.716185	0.470655	0.500152
C117	C	0.238808	0.022934	0.000133
C118	C	0.738808	0.522934	0.500133
C119	C	0.298194	0.023643	0.000106
C120	C	0.798194	0.523643	0.500106
N121	N	0.320820	0.075920	0.000096
N122	N	0.820820	0.575920	0.500096
C123	C	0.284048	0.127484	0.000085
C124	C	0.784048	0.627484	0.500085
C125	C	-0.064135	0.019302	0.000129
C126	C	0.435865	0.519302	0.500129
C127	C	-0.123533	0.018589	0.000122
C128	C	0.376467	0.518589	0.500122
C129	C	-0.137680	0.122434	0.000100
C130	C	0.362320	0.622434	0.500100
C131	C	-0.078281	0.123146	0.000100
C132	C	0.421719	0.623146	0.500100
C133	C	-0.041509	0.071578	0.000119
C134	C	0.458491	0.571578	0.500119
C135	C	0.408784	0.128974	0.000068
C136	C	0.908784	0.628974	0.500068
C137	C	0.468186	0.129680	0.000056
C138	C	0.968186	0.629680	0.500056
C139	C	0.482329	0.025836	0.000083
C140	C	0.982329	0.525836	0.500083
C141	C	0.422932	0.025129	0.000090
C142	C	0.922932	0.525129	0.500090
C143	C	0.386160	0.076702	0.000085
C144	C	0.886160	0.576702	0.500085
O145	O	0.334974	-0.020119	0.000085
O146	O	0.834974	0.479881	0.500085
O147	O	0.308755	0.172007	0.000087
O148	O	0.808755	0.672007	0.500087
C149	C	0.776472	0.069388	0.000112
C150	C	1.276472	0.569388	0.500112
C151	C	0.839689	0.070154	0.000116
C152	C	1.339689	0.570154	0.500116
C153	C	0.667577	0.178283	0.000072
C154	C	1.167577	0.678283	0.500072
C155	C	0.668343	0.241500	0.000059
C156	C	1.168343	0.741500	0.500059
N157	N	0.672309	0.074132	0.248842
N158	N	1.172309	0.574132	0.748842
N159	N	0.672343	0.074134	-0.248651
N160	N	1.172343	0.574134	0.251349
C161	C	0.633394	0.113058	0.701097
C162	C	1.133394	0.613058	1.201097
C163	C	0.711286	0.035210	0.701096
C164	C	1.211286	0.535210	1.201096
C165	C	0.711279	0.035208	0.600600
C166	C	1.211279	0.535208	1.100600
C167	C	0.672330	0.074133	0.550348
C168	C	1.172330	0.574133	1.050348
C169	C	0.633387	0.113059	0.600592
C170	C	1.133387	0.613059	1.100592
C171	C	0.750225	-0.003713	0.550349
C172	C	1.250225	0.496287	1.050349
C173	C	0.750220	-0.003716	0.449847
C174	C	1.250220	0.496284	0.949847
C175	C	0.711268	0.035206	0.399593
C176	C	1.211268	0.535206	0.899593
C177	C	0.672323	0.074133	0.449843
C178	C	1.172323	0.574133	0.949843
C179	C	0.633373	0.113057	0.399591
C180	C	1.133373	0.613057	0.899591
C181	C	0.594425	0.151982	0.449839
C182	C	1.094425	0.651982	0.949839
C183	C	0.594434	0.151981	0.550338
C184	C	1.094434	0.651981	1.050338
C185	C	0.711259	0.035208	0.299094
C186	C	1.211259	0.535208	0.799094
C187	C	0.633367	0.113058	0.299086
C188	C	1.133367	0.613058	0.799086
H189	H	0.770443	-0.111587	0.000149
H190	H	1.270443	0.388413	0.500149
F191	F	0.791670	-0.045143	0.396376
F192	F	1.291670	0.454857	0.896376
F193	F	0.775503	-0.775016	0.000077
F194	F	1.275503	-0.275016	0.500077
H195	H	0.743000	0.003522	0.742014
H196	H	1.243000	0.503522	1.242014
F197	F	0.211944	0.233980	0.000057
F198	F	0.711944	0.733980	0.500057
H199	H	0.580748	-0.193677	0.000112
H200	H	1.080748	0.306323	0.500112
F201	F	0.752711	-0.006213	0.245623
F202	F	1.252711	0.493787	0.745623
F203	F	0.791680	-0.045134	0.603830
F204	F	1.291680	0.454866	1.103830
F205	F	0.569149	-0.076714	0.000100
F206	F	1.069149	0.423286	0.500100
F207	F	0.552977	0.193410	0.396347
F208	F	1.052977	0.693410	0.896347
F209	F	0.782053	-0.228531	0.000120
F210	F	1.282053	0.271469	0.500120
H211	H	-0.167632	0.164421	0.000095
H212	H	0.332368	0.664421	0.500095
F213	F	0.832169	-0.386245	0.000105
F214	F	1.332169	0.113755	0.500105
F215	F	0.591907	0.154485	0.245612
F216	F	1.091907	0.654485	0.745612
H217	H	0.098544	0.219617	0.000075
H218	H	0.598544	0.719617	0.500075
H219	H	0.817806	-0.499645	0.000100
H220	H	1.317806	0.000355	0.500100
F221	F	0.561135	-0.745792	0.000054
F222	F	1.061135	-0.245792	0.500054
H223	H	0.138375	-0.072634	0.000168
H224	H	0.638375	0.427366	0.500168
F225	F	-0.054210	0.178789	0.000081
F226	F	0.445790	0.678789	0.500081
H227	H	0.486602	0.172255	0.000039
H228	H	0.986602	0.672255	0.500039
F229	F	0.521475	-0.029040	0.000096
F230	F	1.021475	0.470960	0.500096
F231	F	-0.147603	-0.037054	0.000121
F232	F	0.352397	0.462946	0.500121
F233	F	0.369658	0.183864	0.000064
F234	F	0.869658	0.683864	0.500064
H235	H	0.575496	-0.632386	0.000045
H236	H	1.075496	-0.132386	0.500045
F237	F	0.776978	-0.652399	0.000094
F238	F	1.276978	-0.152399	0.500094
H239	H	-0.034198	-0.022693	0.000136
H240	H	0.465802	0.477307	0.500136
F241	F	0.512483	-0.465469	0.000011
F242	F	1.012483	0.034531	0.500011
H243	H	0.601681	0.144749	0.742011
H244	H	1.101681	0.644749	1.242011
H245	H	0.246123	-0.071339	0.000169
H246	H	0.746123	0.428661	0.500169
F247	F	0.552987	0.193405	0.603819
F248	F	1.052987	0.693405	1.103819
H249	H	0.404512	-0.017441	0.000092
H250	H	0.904512	0.482559	0.500092
H251	H	0.526850	-0.352066	0.000020
H252	H	1.026850	0.147934	0.500020
