data_functionalizedCrystal
_audit_creation_method	'MofGen! by Chris Wilmer'
_symmetry_space_group_name_H-M	'P1'
_symmetry_Int_Tables_number	1
_symmetry_cell_setting	triclinic
loop_
_symmetry_equiv_pos_as_xyz
  x,y,z
_cell_length_a	19.121241
_cell_length_b	29.839131
_cell_length_c	19.120915
_cell_angle_alpha	92.398903
_cell_angle_beta	89.877787
_cell_angle_gamma	92.469032
loop_
_atom_site_label
_atom_site_type_symbol
_atom_site_fract_x
_atom_site_fract_y
_atom_site_fract_z
Zn1	Zn	1.054809	-0.162191	-0.442143
Zn2	Zn	1.388142	0.171142	-0.108810
Zn3	Zn	1.721475	0.504475	0.224523
Zn4	Zn	1.059714	-0.233989	-0.324885
Zn5	Zn	1.393047	0.099344	0.008449
Zn6	Zn	1.726381	0.432677	0.341782
Zn7	Zn	0.942580	-0.161928	-0.319913
Zn8	Zn	1.275913	0.171405	0.013420
Zn9	Zn	1.609247	0.504738	0.346753
Zn10	Zn	0.937517	-0.240351	-0.437069
Zn11	Zn	1.270850	0.092983	-0.103736
Zn12	Zn	1.604183	0.426316	0.229597
O13	O	0.998655	-0.199615	-0.381003
O14	O	1.331988	0.133718	-0.047669
O15	O	1.665321	0.467052	0.285664
O16	O	1.153567	-0.169163	-0.430793
O17	O	1.486901	0.164170	-0.097459
O18	O	1.820234	0.497503	0.235874
O19	O	1.048348	-0.221658	-0.226122
O20	O	1.381681	0.111675	0.107211
O21	O	1.715014	0.445008	0.440545
O22	O	0.957533	-0.099095	-0.336170
O23	O	1.290867	0.234238	-0.002837
O24	O	1.624200	0.567571	0.330496
O25	O	1.157171	-0.221913	-0.344643
O26	O	1.490505	0.111420	-0.011310
O27	O	1.823838	0.444754	0.322023
O28	O	1.039987	-0.099289	-0.425972
O29	O	1.373321	0.234045	-0.092639
O30	O	1.706654	0.567378	0.240694
O31	O	0.962290	-0.168715	-0.222470
O32	O	1.295623	0.164618	0.110864
O33	O	1.628957	0.497951	0.444197
O34	O	0.843800	-0.174883	-0.331250
O35	O	1.177134	0.158450	0.002083
O36	O	1.510467	0.491783	0.335416
O37	O	0.948904	-0.232755	-0.535846
O38	O	1.282237	0.100579	-0.202512
O39	O	1.615571	0.433912	0.130821
O40	O	0.840080	-0.232500	-0.417324
O41	O	1.173414	0.100834	-0.083991
O42	O	1.506747	0.434167	0.249342
O43	O	1.035078	-0.175331	-0.539574
O44	O	1.368411	0.158002	-0.206240
O45	O	1.701744	0.491335	0.127093
O46	O	1.043438	-0.297701	-0.339723
O47	O	1.376771	0.035632	-0.006390
O48	O	1.710105	0.368966	0.326943
O49	O	0.953660	-0.302374	-0.422145
O50	O	1.286994	0.030959	-0.088811
O51	O	1.620327	0.364292	0.244522
C52	C	0.816502	-0.204354	-0.373198
C53	C	1.149835	0.128980	-0.039864
C54	C	1.483169	0.462313	0.293469
C55	C	0.738575	-0.206392	-0.369875
C56	C	1.071909	0.126941	-0.036542
C57	C	1.405242	0.460274	0.296791
C58	C	0.700087	-0.179933	-0.413236
C59	C	1.033420	0.153400	-0.079903
C60	C	1.366753	0.486733	0.253431
C61	C	0.626867	-0.181847	-0.410108
C62	C	0.960200	0.151487	-0.076775
C63	C	1.293533	0.484820	0.256558
C64	C	0.592137	-0.210221	-0.363623
C65	C	0.925470	0.123112	-0.030289
C66	C	1.258803	0.456446	0.303044
C67	C	0.630631	-0.236681	-0.320257
C68	C	0.963964	0.096653	0.013076
C69	C	1.297297	0.429986	0.346410
C70	C	0.703849	-0.234765	-0.323382
C71	C	1.037183	0.098568	0.009952
C72	C	1.370516	0.431902	0.343285
C73	C	0.371157	-0.217375	-0.351937
C74	C	0.704491	0.115958	-0.018604
C75	C	1.037824	0.449292	0.314730
C76	C	0.297933	-0.219290	-0.348817
C77	C	0.631267	0.114044	-0.015484
C78	C	0.964600	0.447377	0.317850
C79	C	0.294175	-0.164454	-0.438668
C80	C	0.627508	0.168879	-0.105334
C81	C	0.960841	0.502212	0.227999
C82	C	0.367395	-0.162543	-0.441791
C83	C	0.700728	0.170790	-0.108458
C84	C	1.034061	0.504123	0.224875
C85	C	0.405882	-0.189001	-0.398423
C86	C	0.739216	0.144332	-0.065090
C87	C	1.072549	0.477665	0.268243
C88	C	0.517294	-0.212178	-0.360426
C89	C	0.850627	0.121155	-0.027093
C90	C	1.183961	0.454488	0.306241
C91	C	0.480724	-0.187041	-0.401617
C92	C	0.814057	0.146292	-0.068284
C93	C	1.147391	0.479625	0.265050
C94	C	0.998550	-0.316339	-0.380939
C95	C	1.331884	0.016995	-0.047606
C96	C	1.665217	0.350328	0.285728
C97	C	0.998569	-0.366272	-0.380938
C98	C	1.331902	-0.032939	-0.047605
C99	C	1.665236	0.300394	0.285729
C100	C	1.041576	-0.675983	-0.427826
C101	C	1.374909	-0.342650	-0.094493
C102	C	1.708243	-0.009316	0.238841
C103	C	1.041650	-0.863655	-0.427871
C104	C	1.374984	-0.530322	-0.094538
C105	C	1.708317	-0.196989	0.238795
O106	O	1.078114	-0.887979	-0.467689
O107	O	1.411447	-0.554645	-0.134356
O108	O	1.744780	-0.221312	0.198978
N109	N	0.998771	-0.887056	-0.381086
N110	N	1.332104	-0.553723	-0.047752
N111	N	1.665437	-0.220389	0.285581
C112	C	0.955866	-0.863536	-0.334288
C113	C	1.289199	-0.530203	-0.000955
C114	C	1.622532	-0.196869	0.332378
O115	O	0.919390	-0.887746	-0.294500
O116	O	1.252724	-0.554413	0.038833
O117	O	1.586057	-0.221080	0.372167
C118	C	0.955788	-0.675865	-0.334247
C119	C	1.289122	-0.342532	-0.000913
C120	C	1.622455	-0.009198	0.332420
C121	C	0.998676	-0.652466	-0.381031
C122	C	1.332009	-0.319133	-0.047698
C123	C	1.665343	0.014200	0.285636
C124	C	1.084460	-0.652584	-0.474607
C125	C	1.417793	-0.319251	-0.141273
C126	C	1.751127	0.014082	0.192060
C127	C	1.084444	-0.605669	-0.474592
C128	C	1.417777	-0.272336	-0.141259
C129	C	1.751110	0.060998	0.192074
C130	C	1.041544	-0.582152	-0.427797
C131	C	1.374877	-0.248819	-0.094464
C132	C	1.708210	0.084514	0.238869
C133	C	0.998660	-0.605551	-0.381016
C134	C	1.331993	-0.272218	-0.047683
C135	C	1.665327	0.061116	0.285650
C136	C	0.912880	-0.652346	-0.287453
C137	C	1.246214	-0.319013	0.045880
C138	C	1.579547	0.014321	0.379213
C139	C	0.912863	-0.605425	-0.287448
C140	C	1.246197	-0.272092	0.045885
C141	C	1.579530	0.061241	0.379218
C142	C	0.955751	-0.582027	-0.334232
C143	C	1.289085	-0.248693	-0.000899
C144	C	1.622418	0.084640	0.332434
C145	C	0.955744	-0.535119	-0.334207
C146	C	1.289077	-0.201785	-0.000874
C147	C	1.622410	0.131548	0.332460
N148	N	0.998624	-0.511718	-0.380993
N149	N	1.331957	-0.178385	-0.047659
N150	N	1.665290	0.154949	0.285674
C151	C	1.041524	-0.535235	-0.427788
C152	C	1.374857	-0.201901	-0.094455
C153	C	1.708190	0.131432	0.238879
C154	C	0.955910	-0.962066	-0.334312
C155	C	1.289244	-0.628733	-0.000979
C156	C	1.622577	-0.295399	0.332354
C157	C	0.955931	-1.008984	-0.334322
C158	C	1.289264	-0.675650	-0.000988
C159	C	1.622597	-0.342317	0.332345
C160	C	1.041714	-1.009100	-0.427906
C161	C	1.375048	-0.675766	-0.094573
C162	C	1.708381	-0.342433	0.238761
C163	C	1.041697	-0.962181	-0.427893
C164	C	1.375031	-0.628848	-0.094559
C165	C	1.708364	-0.295514	0.238774
C166	C	0.998790	-0.938665	-0.381098
C167	C	1.332124	-0.605332	-0.047765
C168	C	1.665457	-0.271999	0.285569
C169	C	1.041487	-0.436709	-0.427754
C170	C	1.374820	-0.103376	-0.094420
C171	C	1.708153	0.229958	0.238913
C172	C	1.041469	-0.389789	-0.427733
C173	C	1.374802	-0.056456	-0.094400
C174	C	1.708136	0.276877	0.238934
C175	C	0.955683	-0.389678	-0.334152
C176	C	1.289016	-0.056344	-0.000818
C177	C	1.622349	0.276989	0.332515
C178	C	0.955703	-0.436593	-0.334169
C179	C	1.289036	-0.103260	-0.000836
C180	C	1.622370	0.230074	0.332497
C181	C	0.998607	-0.460108	-0.380976
C182	C	1.331940	-0.126774	-0.047643
C183	C	1.665274	0.206559	0.285690
O184	O	0.919294	-0.510767	-0.294416
O185	O	1.252627	-0.177433	0.038918
O186	O	1.585960	0.155900	0.372251
O187	O	1.077982	-0.511017	-0.467581
O188	O	1.411315	-0.177684	-0.134247
O189	O	1.744649	0.155650	0.199086
C190	C	1.041592	-0.722898	-0.427840
C191	C	1.374926	-0.389565	-0.094507
C192	C	1.708259	-0.056232	0.238826
C193	C	0.998708	-0.746297	-0.381060
C194	C	1.332042	-0.412964	-0.047726
C195	C	1.665375	-0.079630	0.285607
C196	C	0.955808	-0.722780	-0.334264
C197	C	1.289142	-0.389447	-0.000931
C198	C	1.622475	-0.056114	0.332402
C199	C	0.998729	-0.793215	-0.381069
C200	C	1.332062	-0.459881	-0.047736
C201	C	1.665395	-0.126548	0.285598
C202	C	1.041629	-0.816731	-0.427864
C203	C	1.374962	-0.483398	-0.094531
C204	C	1.708295	-0.150065	0.238803
C205	C	1.084508	-0.793331	-0.474650
C206	C	1.417842	-0.459997	-0.141317
C207	C	1.751175	-0.126664	0.192017
C208	C	1.084492	-0.746415	-0.474636
C209	C	1.417826	-0.413082	-0.141302
C210	C	1.751159	-0.079748	0.192031
C211	C	0.912929	-0.746181	-0.287479
C212	C	1.246262	-0.412848	0.045855
C213	C	1.579595	-0.079514	0.379188
C214	C	0.912949	-0.793096	-0.287496
C215	C	1.246282	-0.459763	0.045837
C216	C	1.579616	-0.126430	0.379170
C217	C	0.955849	-0.816613	-0.334292
C218	C	1.289182	-0.483280	-0.000958
C219	C	1.622516	-0.149947	0.332375
C220	C	1.181519	-0.194858	-0.388839
C221	C	1.514852	0.138475	-0.055505
C222	C	1.848186	0.471809	0.277828
C223	C	1.259445	-0.192831	-0.392178
C224	C	1.592778	0.140502	-0.058845
C225	C	1.926111	0.473836	0.274489
C226	C	0.990879	-0.204782	-0.563858
C227	C	1.324212	0.128551	-0.230525
C228	C	1.657546	0.461885	0.102809
C229	C	0.987565	-0.206984	-0.641780
C230	C	1.320899	0.126350	-0.308447
C231	C	1.654232	0.459683	0.024887
C232	C	0.998778	-0.082435	-0.381083
C233	C	1.332111	0.250898	-0.047749
C234	C	1.665445	0.584231	0.285584
C235	C	0.998831	-0.032500	-0.381117
C236	C	1.332164	0.300833	-0.047784
C237	C	1.665497	0.634166	0.285550
C238	C	0.966580	-0.220962	-1.082394
C239	C	1.299913	0.112372	-0.749061
C240	C	1.633247	0.445705	-0.415727
C241	C	0.969691	-0.218886	-1.009178
C242	C	1.303024	0.114447	-0.675844
C243	C	1.636358	0.447781	-0.342511
C244	C	1.016116	-0.187954	-0.974514
C245	C	1.349449	0.145380	-0.641181
C246	C	1.682783	0.478713	-0.307848
C247	C	1.059428	-0.159092	-1.013071
C248	C	1.392761	0.174242	-0.679737
C249	C	1.726095	0.507575	-0.346404
C250	C	1.056313	-0.161165	-1.086285
C251	C	1.389646	0.172168	-0.752952
C252	C	1.722980	0.505501	-0.419619
C253	C	1.027762	-0.180195	-0.753551
C254	C	1.361096	0.153138	-0.420217
C255	C	1.694429	0.486471	-0.086884
C256	C	1.030875	-0.178125	-0.680331
C257	C	1.364209	0.155209	-0.346998
C258	C	1.697542	0.488542	-0.013664
C259	C	0.941137	-0.237919	-0.676443
C260	C	1.274471	0.095414	-0.343110
C261	C	1.607804	0.428748	-0.009776
C262	C	0.938029	-0.239992	-0.749659
C263	C	1.271363	0.093342	-0.416326
C264	C	1.604696	0.426675	-0.082993
C265	C	0.981339	-0.211128	-0.788209
C266	C	1.314672	0.122205	-0.454876
C267	C	1.648005	0.455539	-0.121543
C268	C	1.019298	-0.185832	-0.899676
C269	C	1.352632	0.147501	-0.566342
C270	C	1.685965	0.480834	-0.233009
C271	C	0.978152	-0.213247	-0.863046
C272	C	1.311486	0.120086	-0.529713
C273	C	1.644819	0.453419	-0.196380
C274	C	1.006441	-0.194435	-0.198861
C275	C	1.339774	0.138899	0.134473
C276	C	1.673107	0.472232	0.467806
C277	C	1.009890	-0.192103	-0.120945
C278	C	1.343224	0.141231	0.212388
C279	C	1.676557	0.474564	0.545722
H280	H	0.402485	-0.238919	-0.316624
H281	H	0.735819	0.094414	0.016709
H282	H	1.069152	0.427747	0.350042
H283	H	0.595532	-0.160302	-0.445419
H284	H	0.928866	0.173031	-0.112085
H285	H	1.262199	0.506365	0.221248
F286	F	1.080291	-0.145202	-0.643441
F287	F	1.413624	0.188132	-0.310108
F288	F	1.746958	0.521465	0.023226
F289	F	0.917171	-0.253886	-1.119279
F290	F	1.250504	0.079447	-0.785946
F291	F	1.583837	0.412780	-0.452612
H292	H	0.920786	-0.455645	-0.296069
H293	H	1.254119	-0.122311	0.037265
H294	H	1.587453	0.211022	0.370598
H295	H	0.602348	-0.259782	-0.282404
H296	H	0.935681	0.073552	0.050929
H297	H	1.269014	0.406885	0.384263
F298	F	0.888624	-0.272918	-0.786546
F299	F	1.221957	0.060415	-0.453212
F300	F	1.555290	0.393749	-0.119879
F301	F	0.480325	-0.242376	-0.310955
F302	F	0.813659	0.090957	0.022379
F303	F	1.146992	0.424290	0.355712
F304	F	1.087343	-0.937283	-0.477687
F305	F	1.420677	-0.603949	-0.144353
F306	F	1.754010	-0.270616	0.188980
F307	F	0.895045	-0.268634	-0.635411
F308	F	1.228378	0.064700	-0.302077
F309	F	1.561712	0.398033	0.031256
F310	F	1.108823	-0.126162	-0.976177
F311	F	1.442157	0.207171	-0.642843
F312	F	1.775490	0.540504	-0.309510
F313	F	1.073885	-0.149494	-0.794570
F314	F	1.407219	0.183840	-0.461237
F315	F	1.740552	0.517173	-0.127904
F316	F	0.404352	-0.132346	-0.491271
F317	F	0.737685	0.200988	-0.157938
F318	F	1.071018	0.534321	0.175395
H319	H	1.091578	-0.137664	-1.117673
H320	H	1.424912	0.195670	-0.784339
H321	H	1.758245	0.529003	-0.451006
H322	H	0.262830	-0.142913	-0.473975
H323	H	0.596163	0.190420	-0.140641
H324	H	0.929497	0.523753	0.192692
F325	F	1.087372	-1.034136	-0.477709
F326	F	1.420706	-0.700802	-0.144375
F327	F	1.754039	-0.367469	0.188958
H328	H	0.877921	-0.586281	-0.249343
H329	H	1.211254	-0.252948	0.083990
H330	H	1.544587	0.080386	0.417323
F331	F	0.910237	-0.937045	-0.284506
F332	F	1.243571	-0.603711	0.048828
F333	F	1.576904	-0.270378	0.382161
H334	H	1.076396	-0.370739	-0.465830
H335	H	1.409729	-0.037406	-0.132497
H336	H	1.743062	0.295927	0.200836
F337	F	1.087151	-0.461728	-0.477570
F338	F	1.420484	-0.128395	-0.144236
F339	F	1.753818	0.204938	0.189097
F340	F	1.068691	-0.152903	-0.862777
F341	F	1.402024	0.180430	-0.529444
F342	F	1.735358	0.513763	-0.196111
H343	H	0.934431	-0.242391	-0.977793
H344	H	1.267764	0.090943	-0.644460
H345	H	1.601097	0.424276	-0.311126
H346	H	1.119364	-0.586621	-0.512690
H347	H	1.452698	-0.253287	-0.179356
H348	H	1.786031	0.080046	0.153977
H349	H	0.940350	-0.238430	-0.891272
H350	H	1.273683	0.094903	-0.557939
H351	H	1.607016	0.428237	-0.224606
H352	H	0.728359	-0.156829	-0.451092
H353	H	1.061692	0.176504	-0.117758
H354	H	1.395025	0.509838	0.215575
H355	H	0.877993	-0.727037	-0.249373
H356	H	1.211327	-0.393704	0.083960
H357	H	1.544660	-0.060371	0.417293
F358	F	0.260972	-0.249500	-0.299351
F359	F	0.594305	0.083834	0.033982
F360	F	0.927639	0.417167	0.367315
H361	H	0.509004	-0.163937	-0.439462
H362	H	0.842338	0.169396	-0.106129
H363	H	1.175671	0.502730	0.227204
F364	F	0.744812	-0.262926	-0.277231
F365	F	1.078145	0.070407	0.056102
F366	F	1.411478	0.403740	0.389435
H367	H	1.119394	-0.671727	-0.512717
H368	H	1.452727	-0.338394	-0.179384
H369	H	1.786061	-0.005060	0.153950
F370	F	0.910293	-1.033881	-0.284519
F371	F	1.243626	-0.700547	0.048814
F372	F	1.576960	-0.367214	0.382147
H373	H	0.877956	-0.671389	-0.249357
H374	H	1.211290	-0.338056	0.083977
H375	H	1.544623	-0.004722	0.417310
F376	F	0.910029	-0.364641	-0.284351
F377	F	1.243362	-0.031308	0.048983
F378	F	1.576695	0.302026	0.382316
H379	H	1.119415	-0.727367	-0.512732
H380	H	1.452749	-0.394034	-0.179398
H381	H	1.786082	-0.060701	0.153935
H382	H	0.878026	-0.812143	-0.249393
H383	H	1.211359	-0.478810	0.083941
H384	H	1.544692	-0.145477	0.417274
F385	F	1.130168	-0.818367	-0.524451
F386	F	1.463502	-0.485034	-0.191117
F387	F	1.796835	-0.151700	0.142216
