data_functionalizedCrystal
_audit_creation_method	'MofGen! by Chris Wilmer'
_symmetry_space_group_name_H-M	'P1'
_symmetry_Int_Tables_number	1
_symmetry_cell_setting	triclinic
loop_
_symmetry_equiv_pos_as_xyz
  x,y,z
_cell_length_a	6.817900
_cell_length_b	9.514072
_cell_length_c	14.858572
_cell_angle_alpha	90.776379
_cell_angle_beta	104.524003
_cell_angle_gamma	118.843421
loop_
_atom_site_label
_atom_site_type_symbol
_atom_site_fract_x
_atom_site_fract_y
_atom_site_fract_z
V1	V	-4.123443	-0.223218	-0.290692
V2	V	-3.790110	0.110116	0.042641
V3	V	-3.456777	0.443449	0.375975
O4	O	-4.021919	0.009686	-0.284409
O5	O	-3.688585	0.343020	0.048925
O6	O	-3.355252	0.676353	0.382258
O7	O	-4.158163	-0.441603	-0.289425
O8	O	-3.824829	-0.108269	0.043908
O9	O	-3.491496	0.225064	0.377242
O10	O	-4.078948	-0.220240	-0.417144
O11	O	-3.745615	0.113093	-0.083811
O12	O	-3.412281	0.446426	0.249523
O13	O	-4.101682	-0.213208	-0.155806
O14	O	-3.768348	0.120125	0.177528
O15	O	-3.435015	0.453458	0.510861
V16	V	-4.595795	-0.195306	-0.274471
V17	V	-4.262462	0.138028	0.058862
V18	V	-3.929128	0.471361	0.392196
O19	O	-4.409207	-0.284445	-0.326274
O20	O	-4.075874	0.048889	0.007059
O21	O	-3.742540	0.382222	0.340392
O22	O	-4.760229	-0.134079	-0.238889
O23	O	-4.426895	0.199255	0.094445
O24	O	-4.093562	0.532588	0.427778
O25	O	-4.337869	0.023079	-0.275738
O26	O	-4.004536	0.356413	0.057595
O27	O	-3.671202	0.689746	0.390929
O28	O	-4.814717	-0.428210	-0.280754
O29	O	-4.481383	-0.094876	0.052579
O30	O	-4.148050	0.238457	0.385912
O31	O	-4.734954	-0.205315	-0.409357
O32	O	-4.401620	0.128018	-0.076024
O33	O	-4.068287	0.461352	0.257309
O34	O	-4.417084	-0.198283	-0.148019
O35	O	-4.083751	0.135050	0.185314
O36	O	-3.750417	0.468384	0.518648
C37	C	-4.023258	-0.494826	-0.285025
C38	C	-3.689924	-0.161493	0.048308
C39	C	-3.356591	0.171841	0.381641
C40	C	-4.132958	-0.673362	-0.284832
C41	C	-3.799624	-0.340028	0.048501
C42	C	-3.466291	-0.006695	0.381834
C43	C	-3.922210	-0.212454	-0.447942
C44	C	-3.588876	0.120879	-0.114609
C45	C	-3.255543	0.454212	0.218724
C46	C	-3.967663	-0.211465	-0.551322
C47	C	-3.634330	0.121868	-0.217989
C48	C	-3.300997	0.455201	0.115345
C49	C	-4.134027	-0.207850	-0.929878
C50	C	-3.800694	0.125483	-0.596545
C51	C	-3.467360	0.458816	-0.263212
C52	C	-4.087731	-0.208856	-0.824552
C53	C	-3.754398	0.124477	-0.491219
C54	C	-3.421065	0.457811	-0.157886
C55	C	-4.050847	-0.209659	-0.740604
C56	C	-3.717514	0.123674	-0.407270
C57	C	-3.384181	0.457007	-0.073937
C58	C	-4.004547	-0.210662	-0.635271
C59	C	-3.671214	0.122671	-0.301937
C60	C	-3.337881	0.456004	0.031396
C61	C	-4.136119	0.076294	-0.280135
C62	C	-3.802786	0.409628	0.053198
C63	C	-3.469453	0.742961	0.386531
C64	C	-4.005658	0.254828	-0.280334
C65	C	-3.672325	0.588162	0.052999
C66	C	-3.338992	0.921495	0.386332
C67	C	-4.237166	-0.206074	-0.117216
C68	C	-3.903833	0.127259	0.216117
C69	C	-3.570499	0.460593	0.549451
C70	C	-4.170948	-0.207055	-0.013835
C71	C	-3.837614	0.126278	0.319498
C72	C	-3.504281	0.459612	0.652831
H73	H	-4.325902	-0.748484	-0.288568
H74	H	-3.992569	-0.415151	0.044765
H75	H	-3.659236	-0.081818	0.378099
H76	H	-3.812720	-0.670054	-0.276585
H77	H	-3.479386	-0.336721	0.056748
H78	H	-3.146053	-0.003387	0.390081
