data_functionalizedCrystal
_audit_creation_method	'MofGen! by Chris Wilmer'
_symmetry_space_group_name_H-M	'P1'
_symmetry_Int_Tables_number	1
_symmetry_cell_setting	triclinic
loop_
_symmetry_equiv_pos_as_xyz
  x,y,z
_cell_length_a	10.654550
_cell_length_b	18.266242
_cell_length_c	10.654550
_cell_angle_alpha	90.003376
_cell_angle_beta	84.484929
_cell_angle_gamma	90.005777
loop_
_atom_site_label
_atom_site_type_symbol
_atom_site_fract_x
_atom_site_fract_y
_atom_site_fract_z
O1	O	1.667849	0.060821	0.176401
O2	O	1.302371	0.060834	0.193207
O3	O	1.493513	0.060828	0.002065
O4	O	1.476707	0.060827	0.367543
O5	O	1.493480	-0.060934	0.002055
O6	O	1.302338	-0.060928	0.193197
O7	O	1.667816	-0.060941	0.176391
Zn8	Zn	1.485072	-0.080267	0.184792
Zn9	Zn	1.485115	0.080160	0.184806
O10	O	1.476674	-0.060935	0.367533
C11	C	1.255556	-0.000045	0.191968
C12	C	1.116113	-0.000040	0.188276
N13	N	1.485052	-0.189754	0.184782
C14	C	1.036628	-0.000042	0.300818
C15	C	0.905607	-0.000055	0.297341
C16	C	0.933570	-0.000060	0.068772
C17	C	1.064588	-0.000053	0.072250
C18	C	1.569718	-0.228065	0.100187
C19	C	1.569726	-0.304710	0.100181
C20	C	1.485080	-0.343041	0.184793
C21	C	1.400398	-0.304720	0.269395
C22	C	1.400384	-0.228076	0.269389
N23	N	1.470062	-0.463373	0.295783
N24	N	1.470083	-0.536181	0.295784
C25	C	1.485115	-0.573963	0.184811
N26	N	1.500151	-0.536187	0.073834
N27	N	1.500136	-0.463372	0.073834
C28	C	1.485085	-0.426148	0.184807
C29	C	1.569795	-0.695382	0.100202
C30	C	1.569794	-0.772028	0.100195
C31	C	1.400472	-0.772036	0.269419
C32	C	1.400466	-0.695391	0.269416
C33	C	1.485134	-0.657069	0.184809
C34	C	1.714631	-0.000060	0.177630
C35	C	1.854074	-0.000060	0.181322
C36	C	1.492263	-0.000051	-0.044738
C37	C	1.488571	-0.000046	-0.184181
N38	N	1.485145	0.189647	0.184806
C39	C	1.483372	0.066321	-0.380716
C40	C	1.486854	0.066325	-0.249696
C41	C	1.486819	-0.066426	-0.249695
C42	C	1.483346	-0.066430	-0.380714
C43	C	1.477925	-0.000054	0.414336
C44	C	1.481616	-0.000054	0.553779
H45	H	1.078574	-0.000038	0.395294
H46	H	0.840894	-0.000058	0.388984
H47	H	0.891602	-0.000075	-0.025693
H48	H	1.331546	-0.803244	0.338307
H49	H	1.481962	0.120368	-0.434048
F50	F	1.488726	0.136971	-0.179988
H51	H	1.638733	-0.664178	0.031306
H52	H	1.488225	-0.120467	-0.196344
F53	F	1.149188	-0.000055	-0.047539
F54	F	1.659823	-0.187281	0.010137
H55	H	1.331475	-0.335932	0.338285
H56	H	1.481921	-0.120484	-0.434050
F57	F	1.310267	-0.187300	0.359432
F58	F	1.659904	-0.812804	0.010146
F59	F	1.659844	-0.345491	0.010138
H60	H	1.331528	-0.664196	0.338307
