data_functionalizedCrystal
_audit_creation_method	'MofGen! by Chris Wilmer'
_symmetry_space_group_name_H-M	'P1'
_symmetry_Int_Tables_number	1
_symmetry_cell_setting	triclinic
loop_
_symmetry_equiv_pos_as_xyz
  x,y,z
_cell_length_a	10.654545
_cell_length_b	10.654556
_cell_length_c	9.730223
_cell_angle_alpha	89.993594
_cell_angle_beta	89.997108
_cell_angle_gamma	95.514772
loop_
_atom_site_label
_atom_site_type_symbol
_atom_site_fract_x
_atom_site_fract_y
_atom_site_fract_z
O1	O	1.667835	-0.176376	0.114276
O2	O	1.302356	-0.193188	0.114282
O3	O	1.493495	-0.002043	0.114270
O4	O	1.476697	-0.367521	0.114288
O5	O	1.493504	-0.002028	-0.114310
O6	O	1.302366	-0.193173	-0.114298
O7	O	1.667845	-0.176361	-0.114304
Zn8	Zn	1.485107	-0.184764	-0.150593
Zn9	Zn	1.485094	-0.184784	0.150571
O10	O	1.476706	-0.367506	-0.114292
C11	C	1.255563	-0.191947	-0.000008
C12	C	1.116119	-0.188258	-0.000006
C13	C	1.050620	-0.186512	-0.124605
C14	C	0.919600	-0.183025	-0.124606
C15	C	0.919591	-0.183033	0.124605
C16	C	1.050609	-0.186511	0.124604
C17	C	1.492265	0.044762	-0.000019
C18	C	1.488570	0.184205	-0.000017
C19	C	1.714638	-0.177602	-0.000012
C20	C	1.854082	-0.181291	-0.000005
N21	N	1.485124	-0.184750	-0.356129
C22	C	1.486836	0.249727	-0.124615
C23	C	1.483375	0.380750	-0.124612
C24	C	1.483376	0.380716	0.124599
C25	C	1.486846	0.249697	0.124594
C26	C	1.486830	0.249746	-0.268495
C27	C	1.483369	0.380769	-0.268491
C28	C	1.477938	0.585689	-0.000004
C29	C	1.481639	0.446247	-0.000009
N30	N	1.485087	-0.184789	0.356107
C31	C	1.408449	-0.107719	0.571929
C32	C	1.408426	-0.107741	0.428046
C33	C	1.561765	-0.261829	0.428059
C34	C	1.561780	-0.261812	0.571939
C35	C	1.319923	-0.018753	0.571921
C36	C	1.319901	-0.018775	0.428038
H37	H	0.866277	-0.181604	-0.226067
H38	H	1.359629	0.075756	0.616518
H39	H	1.394699	0.405609	-0.323738
H40	H	1.225250	-0.058077	0.383440
H41	H	1.103955	-0.187934	-0.226070
O42	O	1.201695	-0.055148	0.618615
C43	C	1.158703	0.042099	0.699092
H44	H	1.212226	0.135968	0.669343
H45	H	1.053583	0.046644	0.680590
H46	H	1.175532	0.022322	0.812418
O47	O	1.488482	0.186237	0.245751
C48	C	1.486247	0.272145	0.355730
H49	H	1.444078	0.360691	0.319211
H50	H	1.426392	0.226837	0.442887
H51	H	1.586460	0.298375	0.394024
H52	H	1.350999	0.080221	0.388958
H53	H	0.866236	-0.181612	0.226057
O54	O	1.114159	-0.188431	0.245683
C55	C	1.068842	-0.296146	0.321514
H56	H	1.023541	-0.371078	0.248617
H57	H	1.150548	-0.334879	0.378031
H58	H	0.995795	-0.269582	0.399211
O59	O	1.481463	0.444376	0.245597
C60	C	1.370893	0.506913	0.253027
H61	H	1.296053	0.458151	0.182322
H62	H	1.334399	0.503943	0.363231
H63	H	1.392815	0.609212	0.219539
H64	H	1.624206	-0.324550	0.630508
H65	H	1.575505	0.224926	-0.323746
H66	H	1.397385	0.198045	-0.313133
H67	H	1.624174	-0.324572	0.369475
O68	O	1.590203	0.442330	-0.321627
C69	C	1.694932	0.414142	-0.242806
H70	H	1.671331	0.320937	-0.186676
H71	H	1.779220	0.406214	-0.313372
H72	H	1.718931	0.492480	-0.164637
