data_functionalizedCrystal
_audit_creation_method	'MofGen! by Chris Wilmer'
_symmetry_space_group_name_H-M	'P1'
_symmetry_Int_Tables_number	1
_symmetry_cell_setting	triclinic
loop_
_symmetry_equiv_pos_as_xyz
  x,y,z
_cell_length_a	19.288840
_cell_length_b	19.288865
_cell_length_c	17.766277
_cell_angle_alpha	90.006751
_cell_angle_beta	90.013814
_cell_angle_gamma	83.131131
loop_
_atom_site_label
_atom_site_type_symbol
_atom_site_fract_x
_atom_site_fract_y
_atom_site_fract_z
O1	O	-0.921362	-0.086561	-0.062728
O2	O	-0.719099	-0.098268	-0.062704
O3	O	-0.826075	0.008716	-0.062702
O4	O	-0.814386	-0.193546	-0.062730
O5	O	-0.826061	0.008712	0.062487
O6	O	-0.719085	-0.098272	0.062485
O7	O	-0.921348	-0.086565	0.062460
Cu8	Cu	-0.820215	-0.092419	0.073903
Cu9	Cu	-0.820232	-0.092414	-0.074147
O10	O	-0.814372	-0.193549	0.062458
C11	C	-0.693215	-0.097896	-0.000106
C12	C	-0.616110	-0.096774	-0.000096
C13	C	-0.825692	0.034591	-0.000105
C14	C	-0.824563	0.111694	-0.000099
C15	C	-0.947232	-0.086937	-0.000139
C16	C	-1.024336	-0.088059	-0.000154
C17	C	-0.579915	-0.096233	-0.068338
C18	C	-0.507468	-0.095171	-0.068347
C19	C	-0.471221	-0.094636	-0.000110
C20	C	-0.507425	-0.095181	0.068141
C21	C	-0.579870	-0.096250	0.068148
C22	C	-0.361888	-0.052260	0.052164
C23	C	-0.289445	-0.051187	0.052155
C24	C	-0.247778	-0.091342	-0.000129
C25	C	-0.278563	-0.132562	-0.052416
C26	C	-0.351008	-0.133631	-0.052408
C27	C	-0.392667	-0.093477	-0.000110
C28	C	-0.133027	-0.089650	-0.068386
C29	C	-0.060578	-0.088593	-0.068392
C30	C	-0.060537	-0.088596	0.068098
C31	C	-0.132984	-0.089661	0.068102
C32	C	-0.169225	-0.090185	-0.000142
N33	N	-0.820208	-0.092422	0.178034
C34	C	-0.814755	-0.219424	-0.000140
C35	C	-0.815884	-0.296527	-0.000152
C36	C	-0.887331	0.156396	-0.000103
C37	C	-0.886270	0.228843	-0.000114
C38	C	-0.822438	0.256585	-0.000107
C39	C	-0.759661	0.211873	-0.000107
C40	C	-0.760723	0.139428	-0.000103
C41	C	-0.772252	0.364866	0.043750
C42	C	-0.771193	0.437311	0.043750
C43	C	-0.819158	0.480030	-0.000123
C44	C	-0.868195	0.450298	-0.043988
C45	C	-0.869257	0.377852	-0.043984
C46	C	-0.821278	0.335139	-0.000112
C47	C	-0.880781	0.603288	-0.000141
C48	C	-0.879717	0.675736	-0.000158
C49	C	-0.753106	0.658764	-0.000143
C50	C	-0.754171	0.586318	-0.000134
C51	C	-0.818010	0.558584	-0.000130
N52	N	-0.820244	-0.092406	-0.178277
C53	C	-0.862237	-0.134416	0.782310
C54	C	-0.862230	-0.134423	0.703508
C55	C	-0.820238	-0.092407	0.664122
C56	C	-0.778236	-0.050394	0.703545
C57	C	-0.778239	-0.050394	0.782345
C58	C	-0.818512	-0.029782	0.539288
C59	C	-0.818514	-0.029781	0.460489
C60	C	-0.820225	-0.092408	0.421076
C61	C	-0.821949	-0.155038	0.460472
C62	C	-0.821952	-0.155037	0.539272
C63	C	-0.820230	-0.092403	0.578677
C64	C	-0.862213	-0.134429	0.296217
C65	C	-0.862201	-0.134437	0.217414
C66	C	-0.778212	-0.050402	0.217452
C67	C	-0.778219	-0.050400	0.296254
C68	C	-0.820224	-0.092413	0.335632
H69	H	-0.609417	-0.096660	-0.123907
H70	H	-0.162456	-0.090097	0.123672
Br71	Br	-0.458334	-0.094438	-0.160968
Br72	Br	-0.222024	-0.187064	-0.123376
Br73	Br	-0.707151	0.306897	0.103299
Br74	Br	-0.919178	-0.191476	0.163922
H75	H	-0.932763	0.580706	-0.000141
Br76	Br	-0.182214	-0.090366	-0.161000
Br77	Br	-0.919239	-0.191437	0.835748
Br78	Br	-0.824288	-0.240030	0.592736
Br79	Br	-0.935801	0.337502	-0.103515
H80	H	-0.477908	-0.094748	0.123700
Br81	Br	-0.721243	0.006624	0.835839
Br82	Br	-0.668980	0.525647	-0.000128
Br83	Br	-0.721213	0.006613	0.164009
H84	H	-0.744027	-0.016188	0.328345
Br85	Br	-0.816170	0.055213	0.407031
H86	H	-0.823343	-0.206035	0.428383
H87	H	-0.907253	0.485079	-0.079715
H88	H	-0.930833	0.712132	-0.000165
Br89	Br	-0.675530	0.078756	-0.000100
H90	H	-0.817112	0.021219	0.571371
Br91	Br	-0.666474	0.696406	-0.000141
Br92	Br	-0.392787	-0.189571	-0.123362
Br93	Br	-0.011452	-0.087867	-0.161015
H94	H	-0.731261	0.461512	0.079463
Br95	Br	-0.721241	0.006623	0.650096
Br96	Br	-0.418429	0.002239	0.123130
Br97	Br	-0.011352	-0.087880	0.160707
H98	H	-0.707687	0.234465	-0.000103
Br99	Br	-0.247670	0.004736	0.123128
H100	H	-0.609340	-0.096692	0.123721
Br101	Br	-0.919236	-0.191430	0.650007
Br102	Br	-0.973970	0.118761	-0.000118
H103	H	-0.937386	0.265246	-0.000121
Br104	Br	-0.919217	-0.191446	0.349663
