data_functionalizedCrystal
_audit_creation_method	'MofGen! by Chris Wilmer'
_symmetry_space_group_name_H-M	'P1'
_symmetry_Int_Tables_number	1
_symmetry_cell_setting	triclinic
loop_
_symmetry_equiv_pos_as_xyz
  x,y,z
_cell_length_a	19.805407
_cell_length_b	12.827892
_cell_length_c	19.805399
_cell_angle_alpha	89.977471
_cell_angle_beta	89.980427
_cell_angle_gamma	90.015392
loop_
_atom_site_label
_atom_site_type_symbol
_atom_site_fract_x
_atom_site_fract_y
_atom_site_fract_z
Zn1	Zn	1.034788	-0.416057	-0.382743
Zn2	Zn	1.034724	-0.590812	-0.269565
Zn3	Zn	0.921602	-0.416086	-0.269568
Zn4	Zn	0.921587	-0.590757	-0.382712
O5	O	0.978175	-0.503428	-0.326147
O6	O	1.129496	-0.439250	-0.367742
O7	O	1.019698	-0.567670	-0.174849
O8	O	0.936649	-0.269846	-0.284595
O9	O	1.129449	-0.567642	-0.284590
O10	O	1.019806	-0.269825	-0.367745
O11	O	0.936588	-0.439299	-0.174851
O12	O	0.826884	-0.439245	-0.284565
O13	O	0.936624	-0.567547	-0.477433
O14	O	0.826873	-0.567575	-0.367691
O15	O	1.019792	-0.439196	-0.477456
O16	O	1.019684	-0.737041	-0.284560
O17	O	0.936563	-0.737000	-0.367688
C18	C	0.802319	-0.503408	-0.326125
C19	C	0.727087	-0.503425	-0.326132
C20	C	0.691755	-0.570347	-0.369346
C21	C	0.621067	-0.570349	-0.369355
C22	C	0.585712	-0.503433	-0.326147
C23	C	0.621049	-0.436504	-0.282931
C24	C	0.691736	-0.436497	-0.282926
C25	C	0.335975	-0.436527	-0.282954
C26	C	0.265283	-0.436540	-0.282961
C27	C	0.265306	-0.570378	-0.369383
C28	C	0.335993	-0.570372	-0.369378
C29	C	0.371324	-0.503439	-0.326165
C30	C	0.447973	-0.503436	-0.326156
C31	C	0.509065	-0.503440	-0.326152
C32	C	0.978133	-0.774938	-0.326135
C33	C	0.978177	-0.891091	-0.326153
C34	C	1.019357	-0.942862	-0.285064
C35	C	1.019403	-1.062912	-0.285081
C36	C	1.154718	-0.503449	-0.326169
C37	C	1.229950	-0.503458	-0.326179
C38	C	0.978213	-0.503362	-0.502690
C39	C	0.978229	-0.503334	-0.577922
C40	C	0.978236	-0.230858	-0.326174
C41	C	0.978262	-0.114705	-0.326185
C42	C	1.021536	-0.436499	-0.613279
C43	C	1.021543	-0.436468	-0.683968
C44	C	0.978246	-0.503280	-0.719298
C45	C	0.934935	-0.570118	-0.683935
C46	C	0.934925	-0.570143	-0.613248
C47	C	0.934973	-0.570021	-0.969009
C48	C	0.934988	-0.569994	-1.039701
C49	C	1.021591	-0.436347	-1.039728
C50	C	1.021581	-0.436371	-0.969041
C51	C	0.978268	-0.503205	-0.933685
C52	C	0.978260	-0.503236	-0.857037
C53	C	0.978257	-0.503255	-0.795945
C54	C	0.978176	-0.503418	-0.150291
C55	C	0.978291	-0.503152	-0.075060
H56	H	0.236499	-0.382043	-0.247776
H57	H	1.054581	-0.898310	-0.249875
H58	H	0.899715	-0.624457	-0.940230
O59	O	0.892939	-0.634984	-0.718357
C60	C	0.902221	-0.620616	-0.788330
H61	H	0.954466	-0.586397	-0.797999
H62	H	0.897615	-0.698882	-0.815185
H63	H	0.862090	-0.564952	-0.808388
O64	O	0.370185	-0.371477	-0.240915
C65	C	0.323819	-0.312402	-0.202794
H66	H	0.273428	-0.355215	-0.200403
H67	H	0.344222	-0.301132	-0.149477
H68	H	0.316316	-0.233092	-0.227673
H69	H	0.942958	-0.935645	-0.361346
O70	O	1.063500	-0.371542	-0.578890
C71	C	1.024971	-0.304039	-0.538016
H72	H	0.973669	-0.340898	-0.527409
H73	H	1.052537	-0.290047	-0.488317
H74	H	1.017551	-0.226590	-0.565268
O75	O	0.892845	-0.635179	-0.579004
C76	C	0.854624	-0.694133	-0.625343
H77	H	0.882351	-0.697725	-0.675739
H78	H	0.847393	-0.776478	-0.604912
H79	H	0.803223	-0.655869	-0.632850
O80	O	0.370232	-0.635406	-0.411414
C81	C	0.323888	-0.694493	-0.449548
H82	H	0.273506	-0.651702	-0.451943
H83	H	0.344334	-0.705743	-0.502863
H84	H	0.316351	-0.773812	-0.424677
O85	O	0.892990	-0.634863	-1.074126
C86	C	0.902280	-0.620493	-1.144098
H87	H	0.954526	-0.586274	-1.153760
H88	H	0.897677	-0.698759	-1.170954
H89	H	0.862152	-0.564829	-1.164160
H90	H	0.720536	-0.624841	-0.404529
H91	H	0.592257	-0.382015	-0.247753
H92	H	1.056840	-0.381970	-0.940279
O93	O	1.063580	-0.371397	-0.718234
C94	C	1.048799	-0.267250	-0.700973
H95	H	1.022770	-0.265109	-0.649646
H96	H	1.097659	-0.220402	-0.698562
H97	H	1.014018	-0.232023	-0.740753
O98	O	0.586824	-0.635318	-0.411422
C99	C	0.604118	-0.612616	-0.478908
H100	H	0.655444	-0.572434	-0.480354
H101	H	0.606546	-0.688106	-0.509164
H102	H	0.564348	-0.558953	-0.501777
O103	O	0.230880	-0.635293	-0.411346
C104	C	0.160908	-0.620970	-0.402079
H105	H	0.151253	-0.540278	-0.380005
H106	H	0.134067	-0.628168	-0.452774
H107	H	0.140824	-0.682882	-0.365968
H108	H	1.054656	-1.107433	-0.249901
H109	H	0.720502	-0.381997	-0.247740
H110	H	0.943002	-1.070191	-0.361363
H111	H	1.056856	-0.381923	-1.068524
