data_functionalizedCrystal
_audit_creation_method	'MofGen! by Chris Wilmer'
_symmetry_space_group_name_H-M	'P1'
_symmetry_Int_Tables_number	1
_symmetry_cell_setting	triclinic
loop_
_symmetry_equiv_pos_as_xyz
  x,y,z
_cell_length_a	12.827892
_cell_length_b	12.827893
_cell_length_c	12.827885
_cell_angle_alpha	90.021189
_cell_angle_beta	90.026888
_cell_angle_gamma	90.015540
loop_
_atom_site_label
_atom_site_type_symbol
_atom_site_fract_x
_atom_site_fract_y
_atom_site_fract_z
Zn1	Zn	0.416032	-1.597656	-0.590923
Zn2	Zn	0.916032	-1.097656	-0.090923
Zn3	Zn	0.590810	-1.597544	-0.416192
Zn4	Zn	1.090810	-1.097544	0.083808
Zn5	Zn	0.416078	-1.422897	-0.416191
Zn6	Zn	0.916078	-0.922897	0.083809
Zn7	Zn	0.590727	-1.422876	-0.590886
Zn8	Zn	1.090727	-0.922876	-0.090886
O9	O	0.503412	-1.510243	-0.503548
O10	O	1.003412	-1.010243	-0.003548
O11	O	0.439233	-1.743877	-0.567761
O12	O	0.939233	-1.243877	-0.067761
O13	O	0.567685	-1.574338	-0.269956
O14	O	1.067685	-1.074338	0.230044
O15	O	0.269836	-1.446134	-0.439384
O16	O	0.769836	-0.946134	0.060616
O17	O	0.567641	-1.743795	-0.439387
O18	O	1.067641	-1.243795	0.060613
O19	O	0.269802	-1.574529	-0.567759
O20	O	0.769802	-1.074529	-0.067759
O21	O	0.439310	-1.446026	-0.269955
O22	O	0.939310	-0.946026	0.230045
O23	O	0.439230	-1.276658	-0.439349
O24	O	0.939230	-0.776658	0.060651
O25	O	0.567499	-1.446099	-0.737127
O26	O	1.067499	-0.946099	-0.237127
O27	O	0.567543	-1.276643	-0.567697
O28	O	1.067543	-0.776643	-0.067697
O29	O	0.439152	-1.574509	-0.737154
O30	O	0.939152	-1.074509	-0.237154
O31	O	0.737035	-1.574318	-0.439351
O32	O	1.237035	-1.074318	0.060649
O33	O	0.736974	-1.445991	-0.567698
O34	O	1.236974	-0.945991	-0.067698
C35	C	0.774922	-1.510169	-0.503543
C36	C	1.274922	-1.010169	-0.003543
C37	C	0.891075	-1.510232	-0.503576
C38	C	1.391075	-1.010232	-0.003576
C39	C	0.503383	-1.238733	-0.503519
C40	C	1.003383	-0.738733	-0.003519
C41	C	0.503396	-1.122580	-0.503532
C42	C	1.003396	-0.622580	-0.003532
C43	C	0.942855	-1.573806	-0.440139
C44	C	1.442855	-1.073806	0.059861
C45	C	1.062905	-1.573874	-0.440172
C46	C	1.562905	-1.073874	0.059828
C47	C	1.230841	-1.510338	-0.503589
C48	C	1.730841	-1.010338	-0.003589
C49	C	1.114688	-1.510357	-0.503638
C50	C	1.614688	-1.010357	-0.003638
C51	C	0.439967	-1.070836	-0.567152
C52	C	0.939967	-0.570836	-0.067152
C53	C	0.439979	-0.950785	-0.567167
C54	C	0.939979	-0.450785	-0.067167
C55	C	0.503311	-1.510314	-0.776118
C56	C	1.003311	-1.010314	-0.276118
C57	C	0.503269	-1.510345	-0.892272
C58	C	1.003269	-1.010345	-0.392272
C59	C	0.503432	-0.782813	-0.503569
C60	C	1.003432	-0.282813	-0.003569
C61	C	0.503419	-0.898966	-0.503557
C62	C	1.003419	-0.398966	-0.003557
C63	C	0.439746	-1.573893	-0.944070
C64	C	0.939746	-1.073893	-0.444070
C65	C	0.439700	-1.573925	-1.064120
C66	C	0.939700	-1.073925	-0.564120
C67	C	0.503436	-1.510232	-0.232038
C68	C	1.003436	-1.010232	0.267962
C69	C	0.503185	-1.510405	-0.115886
C70	C	1.003185	-1.010405	0.384114
H71	H	0.898312	-1.628190	-0.385808
H72	H	1.398312	-1.128190	0.114192
Cl73	Cl	0.959841	-1.426278	-0.587476
Cl74	Cl	1.459841	-0.926278	-0.087476
H75	H	0.385678	-0.906286	-0.621638
H76	H	0.885678	-0.406286	-0.121638
H77	H	0.557612	-1.455956	-0.936802
H78	H	1.057612	-0.955956	-0.436802
H79	H	0.385650	-1.115412	-0.621606
H80	H	0.885650	-0.615412	-0.121606
Cl81	Cl	0.587274	-0.967657	-0.419461
Cl82	Cl	1.087274	-0.467657	0.080539
H83	H	1.107435	-1.628299	-0.385858
H84	H	1.607435	-1.128299	0.114142
H85	H	0.557707	-1.078004	-0.449072
H86	H	1.057707	-0.578004	0.050928
Cl87	Cl	0.355803	-1.657832	-0.875327
Cl88	Cl	0.855803	-1.157832	-0.375327
Cl89	Cl	0.355736	-1.657934	-1.132888
Cl90	Cl	0.855736	-1.157934	-0.632888
Cl91	Cl	1.045950	-1.426310	-0.587491
Cl92	Cl	1.545950	-0.926310	-0.087491
Cl93	Cl	0.587163	-1.426404	-1.047124
Cl94	Cl	1.087163	-0.926404	-0.547124
