data_functionalizedCrystal
_audit_creation_method	'MofGen! by Chris Wilmer'
_symmetry_space_group_name_H-M	'P1'
_symmetry_Int_Tables_number	1
_symmetry_cell_setting	triclinic
loop_
_symmetry_equiv_pos_as_xyz
  x,y,z
_cell_length_a	8.559649
_cell_length_b	7.088929
_cell_length_c	8.559649
_cell_angle_alpha	95.344185
_cell_angle_beta	110.221336
_cell_angle_gamma	95.324331
loop_
_atom_site_label
_atom_site_type_symbol
_atom_site_fract_x
_atom_site_fract_y
_atom_site_fract_z
O1	O	-2.108181	0.158989	-0.036315
O2	O	-1.632696	0.158989	0.047467
O3	O	-1.912330	0.158987	-0.232167
O4	O	-1.828548	0.158991	0.243319
O5	O	-1.949709	-0.158988	-0.269612
O6	O	-1.670076	-0.158986	0.010021
O7	O	-2.145561	-0.158986	-0.073760
Cu8	Cu	-1.911231	-0.188020	-0.035289
Cu9	Cu	-1.867026	0.188023	0.008995
O10	O	-1.865927	-0.158984	0.205873
C11	C	-1.591077	0.000002	0.035093
C12	C	-1.411378	0.000002	0.053992
C13	C	-1.187180	0.000002	-0.061387
C14	C	-1.366879	0.000003	-0.080286
N15	N	-1.942335	-0.452508	-0.066438
C16	C	-1.937368	0.000003	-0.311198
C17	C	-1.956266	0.000014	-0.490896
N18	N	-1.835937	0.452511	0.040130
C19	C	-1.840888	0.000004	0.284905
C20	C	-1.821989	0.000006	0.464604
H21	H	-1.311988	0.000012	0.183421
H22	H	-1.725668	-0.465842	0.150565
Cl23	Cl	-2.112610	-0.578570	-0.236940
Cl24	Cl	-1.622168	0.000002	-0.381967
Cl25	Cl	-2.156100	-0.000012	-0.644337
H26	H	-1.466256	0.000012	-0.209704
