data_functionalizedCrystal
_audit_creation_method	'MofGen! by Chris Wilmer'
_symmetry_space_group_name_H-M	'P1'
_symmetry_Int_Tables_number	1
_symmetry_cell_setting	triclinic
loop_
_symmetry_equiv_pos_as_xyz
  x,y,z
_cell_length_a	12.827893
_cell_length_b	12.827892
_cell_length_c	12.827885
_cell_angle_alpha	89.970214
_cell_angle_beta	89.980728
_cell_angle_gamma	90.015362
loop_
_atom_site_label
_atom_site_type_symbol
_atom_site_fract_x
_atom_site_fract_y
_atom_site_fract_z
Zn1	Zn	1.597670	-0.415983	-0.590849
Zn2	Zn	1.931003	-0.082650	-0.257515
Zn3	Zn	2.264336	0.250683	0.075818
Zn4	Zn	1.597564	-0.590761	-0.416109
Zn5	Zn	1.930897	-0.257427	-0.082776
Zn6	Zn	2.264230	0.075906	0.250558
Zn7	Zn	1.422911	-0.416034	-0.416122
Zn8	Zn	1.756244	-0.082701	-0.082789
Zn9	Zn	2.089578	0.250633	0.250544
Zn10	Zn	1.422896	-0.590683	-0.590809
Zn11	Zn	1.756230	-0.257350	-0.257476
Zn12	Zn	2.089563	0.075984	0.075858
O13	O	1.510260	-0.503365	-0.503472
O14	O	1.843593	-0.170032	-0.170139
O15	O	2.176927	0.163301	0.163194
O16	O	1.743892	-0.439179	-0.567680
O17	O	2.077225	-0.105846	-0.234347
O18	O	2.410558	0.227488	0.098987
O19	O	1.574357	-0.567637	-0.269875
O20	O	1.907691	-0.234303	0.063459
O21	O	2.241024	0.099030	0.396792
O22	O	1.446144	-0.269791	-0.439322
O23	O	1.779477	0.063542	-0.105989
O24	O	2.112810	0.396875	0.227344
O25	O	1.743814	-0.567587	-0.439300
O26	O	2.077147	-0.234254	-0.105966
O27	O	2.410480	0.099079	0.227367
O28	O	1.574538	-0.269754	-0.567693
O29	O	1.907871	0.063579	-0.234360
O30	O	2.241205	0.396913	0.098974
O31	O	1.446041	-0.439266	-0.269884
O32	O	1.779374	-0.105932	0.063449
O33	O	2.112708	0.227401	0.396782
O34	O	1.276673	-0.439190	-0.439284
O35	O	1.610006	-0.105857	-0.105950
O36	O	1.943340	0.227476	0.227383
O37	O	1.446118	-0.567455	-0.737050
O38	O	1.779452	-0.234121	-0.403717
O39	O	2.112785	0.099212	-0.070384
O40	O	1.276662	-0.567504	-0.567625
O41	O	1.609996	-0.234171	-0.234292
O42	O	1.943329	0.099163	0.099041
O43	O	1.574524	-0.439104	-0.737080
O44	O	1.907857	-0.105770	-0.403746
O45	O	2.241190	0.227563	-0.070413
O46	O	1.574343	-0.736986	-0.439261
O47	O	1.907677	-0.403653	-0.105928
O48	O	2.241010	-0.070320	0.227406
O49	O	1.446016	-0.736929	-0.567612
O50	O	1.779349	-0.403596	-0.234279
O51	O	2.112682	-0.070263	0.099054
C52	C	1.238750	-0.503345	-0.503452
C53	C	1.572084	-0.170012	-0.170119
C54	C	1.905417	0.163322	0.163214
C55	C	1.122597	-0.503362	-0.503469
C56	C	1.455930	-0.170028	-0.170135
C57	C	1.789264	0.163305	0.163198
C58	C	1.070835	-0.566954	-0.566878
C59	C	1.404168	-0.233621	-0.233545
C60	C	1.737501	0.099712	0.099789
C61	C	0.950784	-0.566973	-0.566896
C62	C	1.284118	-0.233640	-0.233563
C63	C	1.617451	0.099694	0.099770
C64	C	1.510195	-0.774875	-0.503454
C65	C	1.843528	-0.441542	-0.170120
C66	C	2.176861	-0.108208	0.163213
C67	C	1.510262	-0.891028	-0.503481
C68	C	1.843596	-0.557695	-0.170147
C69	C	2.176929	-0.224362	0.163186
C70	C	1.573838	-0.942807	-0.440039
C71	C	1.907172	-0.609473	-0.106706
C72	C	2.240505	-0.276140	0.226628
C73	C	1.573910	-1.062857	-0.440066
C74	C	1.907243	-0.729524	-0.106732
C75	C	2.240576	-0.396190	0.226601
C76	C	1.782830	-0.503386	-0.503493
C77	C	2.116164	-0.170053	-0.170159
C78	C	2.449497	0.163280	0.163174
C79	C	1.898983	-0.503395	-0.503502
C80	C	2.232317	-0.170062	-0.170168
C81	C	2.565650	0.163272	0.163165
C82	C	1.510331	-0.503265	-0.776043
C83	C	1.843665	-0.169932	-0.442709
C84	C	2.176998	0.163402	-0.109376
C85	C	1.510362	-0.503222	-0.892196
C86	C	1.843695	-0.169889	-0.558862
C87	C	2.177028	0.163445	-0.225529
C88	C	1.510354	-0.230795	-0.503514
C89	C	1.843688	0.102538	-0.170180
C90	C	2.177021	0.435872	0.163153
C91	C	1.510394	-0.114642	-0.503531
C92	C	1.843728	0.218691	-0.170198
C93	C	2.177061	0.552025	0.163135
C94	C	1.573907	-0.439697	-0.943995
C95	C	1.907241	-0.106364	-0.610662
C96	C	2.240574	0.226969	-0.277328
C97	C	1.573940	-0.439652	-1.064045
C98	C	1.907274	-0.106319	-0.730712
C99	C	2.240607	0.227015	-0.397379
C100	C	1.510249	-0.503390	-0.231962
C101	C	1.843583	-0.170056	0.101371
C102	C	2.176916	0.163277	0.434704
C103	C	1.510422	-0.503138	-0.115810
C104	C	1.843755	-0.169805	0.217524
C105	C	2.177088	0.163529	0.550857
H106	H	1.078036	-0.448927	-0.449199
H107	H	1.411369	-0.115594	-0.115866
H108	H	1.744703	0.217740	0.217467
Cl109	Cl	1.657944	-1.131599	-0.356197
Cl110	Cl	1.991277	-0.798266	-0.022864
Cl111	Cl	2.324611	-0.464932	0.310469
H112	H	1.115396	-0.621381	-0.621155
H113	H	1.448729	-0.288048	-0.287822
H114	H	1.782062	0.045286	0.045511
Cl115	Cl	0.967698	-0.419336	-0.419673
Cl116	Cl	1.301031	-0.086002	-0.086340
Cl117	Cl	1.634364	0.247331	0.246994
Cl118	Cl	1.426346	-1.045907	-0.587391
Cl119	Cl	1.759679	-0.712573	-0.254057
Cl120	Cl	2.093012	-0.379240	0.079276
H121	H	1.455890	-0.935576	-0.557819
H122	H	1.789223	-0.602242	-0.224486
H123	H	2.122557	-0.268909	0.108847
Cl124	Cl	1.657844	-0.355752	-0.875254
Cl125	Cl	1.991177	-0.022418	-0.541920
Cl126	Cl	2.324511	0.310915	-0.208587
H127	H	0.906270	-0.621420	-0.621181
H128	H	1.239603	-0.288087	-0.287847
H129	H	1.572936	0.045246	0.045486
H130	H	1.628220	-0.898262	-0.385708
H131	H	1.961553	-0.564928	-0.052374
H132	H	2.294887	-0.231595	0.280959
H133	H	1.455975	-0.557567	-0.936725
H134	H	1.789309	-0.224234	-0.603392
H135	H	2.122642	0.109099	-0.270059
H136	H	1.628348	-0.385270	-1.108591
H137	H	1.961681	-0.051936	-0.775258
H138	H	2.295014	0.281397	-0.441925
Cl139	Cl	1.426424	-0.587119	-1.047047
Cl140	Cl	1.759758	-0.253786	-0.713713
Cl141	Cl	2.093091	0.079548	-0.380380
