data_functionalizedCrystal
_audit_creation_method	'MofGen! by Chris Wilmer'
_symmetry_space_group_name_H-M	'P1'
_symmetry_Int_Tables_number	1
_symmetry_cell_setting	triclinic
loop_
_symmetry_equiv_pos_as_xyz
  x,y,z
_cell_length_a	16.625548
_cell_length_b	29.839131
_cell_length_c	16.625539
_cell_angle_alpha	89.960252
_cell_angle_beta	89.979432
_cell_angle_gamma	90.036296
loop_
_atom_site_label
_atom_site_type_symbol
_atom_site_fract_x
_atom_site_fract_y
_atom_site_fract_z
Zn1	Zn	1.232609	-0.178840	-0.455845
Zn2	Zn	1.482609	0.071160	-0.205845
Zn3	Zn	1.732609	0.321160	0.044155
Zn4	Zn	1.982609	0.571160	0.294155
Zn5	Zn	1.232482	-0.253971	-0.320985
Zn6	Zn	1.482482	-0.003971	-0.070985
Zn7	Zn	1.732482	0.246029	0.179015
Zn8	Zn	1.982482	0.496029	0.429015
Zn9	Zn	1.097771	-0.178857	-0.321026
Zn10	Zn	1.347771	0.071143	-0.071026
Zn11	Zn	1.597771	0.321143	0.178974
Zn12	Zn	1.847771	0.571143	0.428974
Zn13	Zn	1.097711	-0.253945	-0.455775
Zn14	Zn	1.347711	-0.003945	-0.205775
Zn15	Zn	1.597711	0.246055	0.044225
Zn16	Zn	1.847711	0.496055	0.294225
O17	O	1.165143	-0.216403	-0.388408
O18	O	1.415143	0.033597	-0.138408
O19	O	1.665143	0.283597	0.111592
O20	O	1.915143	0.533597	0.361592
O21	O	1.345425	-0.188810	-0.437968
O22	O	1.595425	0.061190	-0.187968
O23	O	1.845425	0.311190	0.062032
O24	O	2.095425	0.561190	0.312032
O25	O	1.214584	-0.244025	-0.208158
O26	O	1.464584	0.005975	0.041842
O27	O	1.714584	0.255975	0.291842
O28	O	1.964584	0.505975	0.541842
O29	O	1.115735	-0.115987	-0.338956
O30	O	1.365735	0.134013	-0.088956
O31	O	1.615735	0.384013	0.161044
O32	O	1.865735	0.634013	0.411044
O33	O	1.345331	-0.244008	-0.338887
O34	O	1.595331	0.005992	-0.088887
O35	O	1.845331	0.255992	0.161113
O36	O	2.095331	0.505992	0.411113
O37	O	1.214800	-0.115975	-0.438007
O38	O	1.464800	0.134025	-0.188007
O39	O	1.714800	0.384025	0.061993
O40	O	1.964800	0.634025	0.311993
O41	O	1.115612	-0.188839	-0.208188
O42	O	1.365612	0.061161	0.041812
O43	O	1.615612	0.311161	0.291812
O44	O	1.865612	0.561161	0.541812
O45	O	0.984930	-0.188814	-0.338888
O46	O	1.234930	0.061186	-0.088888
O47	O	1.484930	0.311186	0.161112
O48	O	1.734930	0.561186	0.411112
O49	O	1.115634	-0.243964	-0.568617
O50	O	1.365634	0.006036	-0.318617
O51	O	1.615634	0.256036	-0.068617
O52	O	1.865634	0.506036	0.181383
O53	O	0.984887	-0.243981	-0.437888
O54	O	1.234887	0.006019	-0.187888
O55	O	1.484887	0.256019	0.062112
O56	O	1.734887	0.506019	0.312112
O57	O	1.214743	-0.188785	-0.568668
O58	O	1.464743	0.061215	-0.318668
O59	O	1.714743	0.311215	-0.068668
O60	O	1.964743	0.561215	0.181332
O61	O	1.214526	-0.316834	-0.338820
O62	O	1.464526	-0.066834	-0.088820
O63	O	1.714526	0.183166	0.161180
O64	O	1.964526	0.433166	0.411180
O65	O	1.115511	-0.316815	-0.437849
O66	O	1.365511	-0.066815	-0.187849
O67	O	1.615511	0.183185	0.062151
O68	O	1.865511	0.433185	0.312151
C69	C	0.955652	-0.216397	-0.388385
C70	C	1.205652	0.033603	-0.138385
C71	C	1.455652	0.283603	0.111615
C72	C	1.705652	0.533603	0.361615
C73	C	0.866031	-0.216405	-0.388395
C74	C	1.116031	0.033595	-0.138395
C75	C	1.366031	0.283595	0.111605
C76	C	1.616031	0.533595	0.361605
C77	C	0.537856	-0.216408	-0.388429
C78	C	0.787856	0.033592	-0.138429
C79	C	1.037856	0.283592	0.111571
C80	C	1.287856	0.533592	0.361571
C81	C	0.629164	-0.216406	-0.388417
C82	C	0.879164	0.033594	-0.138417
C83	C	1.129164	0.283594	0.111583
C84	C	1.379164	0.533594	0.361583
C85	C	0.701941	-0.216406	-0.388411
C86	C	0.951941	0.033594	-0.138411
C87	C	1.201941	0.283594	0.111589
C88	C	1.451941	0.533594	0.361589
C89	C	0.793255	-0.216404	-0.388401
C90	C	1.043255	0.033596	-0.138401
C91	C	1.293255	0.283596	0.111599
C92	C	1.543255	0.533596	0.361599
C93	C	1.165020	-0.333126	-0.388340
C94	C	1.415020	-0.083126	-0.138340
C95	C	1.665020	0.166874	0.111660
C96	C	1.915020	0.416874	0.361660
C97	C	1.165041	-0.383060	-0.388338
C98	C	1.415041	-0.133060	-0.138338
C99	C	1.665041	0.116940	0.111662
C100	C	1.915041	0.366940	0.361662
C101	C	1.216715	-0.692662	-0.440057
C102	C	1.466715	-0.442662	-0.190057
C103	C	1.716715	-0.192662	0.059943
C104	C	1.966715	0.057338	0.309943
C105	C	1.216803	-0.880335	-0.440106
C106	C	1.466803	-0.630335	-0.190106
C107	C	1.716803	-0.380335	0.059894
C108	C	1.966803	-0.130335	0.309894
O109	O	1.260617	-0.904565	-0.484029
O110	O	1.510617	-0.654565	-0.234029
O111	O	1.760617	-0.404565	0.015971
O112	O	2.010617	-0.154565	0.265971
N113	N	1.165280	-0.903845	-0.388497
N114	N	1.415280	-0.653845	-0.138497
N115	N	1.665280	-0.403845	0.111503
N116	N	1.915280	-0.153845	0.361503
C117	C	1.113728	-0.880434	-0.336877
C118	C	1.363728	-0.630434	-0.086877
C119	C	1.613728	-0.380434	0.163123
C120	C	1.863728	-0.130434	0.413123
O121	O	1.069901	-0.904737	-0.292988
O122	O	1.319901	-0.654737	-0.042988
O123	O	1.569901	-0.404737	0.207012
O124	O	1.819901	-0.154737	0.457012
C125	C	1.113637	-0.692762	-0.336833
C126	C	1.363637	-0.442762	-0.086833
C127	C	1.613637	-0.192762	0.163167
C128	C	1.863637	0.057238	0.413167
C129	C	1.165169	-0.669254	-0.388439
C130	C	1.415169	-0.419254	-0.138439
C131	C	1.665169	-0.169254	0.111561
C132	C	1.915169	0.080746	0.361561
C133	C	1.268242	-0.669154	-0.491660
C134	C	1.518242	-0.419154	-0.241660
C135	C	1.768242	-0.169154	0.008340
C136	C	2.018242	0.080846	0.258340
C137	C	1.268223	-0.622239	-0.491644
C138	C	1.518223	-0.372239	-0.241644
C139	C	1.768223	-0.122239	0.008356
C140	C	2.018223	0.127761	0.258356
C141	C	1.216677	-0.598831	-0.440026
C142	C	1.466677	-0.348831	-0.190026
C143	C	1.716677	-0.098831	0.059974
C144	C	1.966677	0.151169	0.309974
C145	C	1.165150	-0.622339	-0.388423
C146	C	1.415150	-0.372339	-0.138423
C147	C	1.665150	-0.122339	0.111577
C148	C	1.915150	0.127661	0.361577
C149	C	1.062082	-0.669352	-0.285217
C150	C	1.312082	-0.419352	-0.035217
C151	C	1.562082	-0.169352	0.214783
C152	C	1.812082	0.080648	0.464783
C153	C	1.062063	-0.622431	-0.285212
C154	C	1.312063	-0.372431	-0.035212
C155	C	1.562063	-0.122431	0.214788
C156	C	1.812063	0.127569	0.464788
C157	C	1.113594	-0.598923	-0.336818
C158	C	1.363594	-0.348923	-0.086818
C159	C	1.613594	-0.098923	0.163182
C160	C	1.863594	0.151077	0.413182
C161	C	1.113584	-0.552016	-0.336790
C162	C	1.363584	-0.302016	-0.086790
C163	C	1.613584	-0.052016	0.163210
C164	C	1.863584	0.197984	0.413210
N165	N	1.165107	-0.528505	-0.388398
N166	N	1.415107	-0.278505	-0.138398
N167	N	1.665107	-0.028505	0.111602
N168	N	1.915107	0.221495	0.361602
C169	C	1.216653	-0.551913	-0.440016
C170	C	1.466653	-0.301913	-0.190016
C171	C	1.716653	-0.051913	0.059984
C172	C	1.966653	0.198087	0.309984
C173	C	1.113781	-0.978965	-0.336902
C174	C	1.363781	-0.728965	-0.086902
C175	C	1.613781	-0.478965	0.163098
C176	C	1.863781	-0.228965	0.413098
C177	C	1.113805	-1.025882	-0.336912
C178	C	1.363805	-0.775882	-0.086912
C179	C	1.613805	-0.525882	0.163088
C180	C	1.863805	-0.275882	0.413088
C181	C	1.216878	-1.025780	-0.440142
C182	C	1.466878	-0.775780	-0.190142
C183	C	1.716878	-0.525780	0.059858
C184	C	1.966878	-0.275780	0.309858
C185	C	1.216858	-0.978861	-0.440128
C186	C	1.466858	-0.728861	-0.190128
C187	C	1.716858	-0.478861	0.059872
C188	C	1.966858	-0.228861	0.309872
C189	C	1.165303	-0.955455	-0.388511
C190	C	1.415303	-0.705455	-0.138511
C191	C	1.665303	-0.455455	0.111489
C192	C	1.915303	-0.205455	0.361489
C193	C	1.216609	-0.453387	-0.439979
C194	C	1.466609	-0.203387	-0.189979
C195	C	1.716609	0.046613	0.060021
C196	C	1.966609	0.296613	0.310021
C197	C	1.216588	-0.406468	-0.439956
C198	C	1.466588	-0.156468	-0.189956
C199	C	1.716588	0.093532	0.060044
C200	C	1.966588	0.343532	0.310044
C201	C	1.113511	-0.406574	-0.336729
C202	C	1.363511	-0.156574	-0.086729
C203	C	1.613511	0.093426	0.163271
C204	C	1.863511	0.343426	0.413271
C205	C	1.113536	-0.453490	-0.336749
C206	C	1.363536	-0.203490	-0.086749
C207	C	1.613536	0.046510	0.163251
C208	C	1.863536	0.296510	0.413251
C209	C	1.165087	-0.476895	-0.388380
C210	C	1.415087	-0.226895	-0.138380
C211	C	1.665087	0.023105	0.111620
C212	C	1.915087	0.273105	0.361620
O213	O	1.069787	-0.527757	-0.292896
O214	O	1.319787	-0.277757	-0.042896
O215	O	1.569787	-0.027757	0.207104
O216	O	1.819787	0.222243	0.457104
O217	O	1.260461	-0.527602	-0.483911
O218	O	1.510461	-0.277602	-0.233911
O219	O	1.760461	-0.027602	0.016089
O220	O	2.010461	0.222398	0.266089
C221	C	1.216734	-0.739577	-0.440073
C222	C	1.466734	-0.489577	-0.190073
C223	C	1.716734	-0.239577	0.059927
C224	C	1.966734	0.010423	0.309927
C225	C	1.165208	-0.763085	-0.388471
C226	C	1.415208	-0.513085	-0.138471
C227	C	1.665208	-0.263085	0.111529
C228	C	1.915208	-0.013085	0.361529
C229	C	1.113662	-0.739677	-0.336852
C230	C	1.363662	-0.489677	-0.086852
C231	C	1.613662	-0.239677	0.163148
C232	C	1.863662	0.010323	0.413148
C233	C	1.165231	-0.810003	-0.388480
C234	C	1.415231	-0.560003	-0.138480
C235	C	1.665231	-0.310003	0.111520
C236	C	1.915231	-0.060003	0.361520
C237	C	1.216777	-0.833411	-0.440099
C238	C	1.466777	-0.583411	-0.190099
C239	C	1.716777	-0.333411	0.059901
C240	C	1.966777	-0.083411	0.309901
C241	C	1.268300	-0.809901	-0.491707
C242	C	1.518300	-0.559901	-0.241707
C243	C	1.768300	-0.309901	0.008293
C244	C	2.018300	-0.059901	0.258293
C245	C	1.268281	-0.762985	-0.491691
C246	C	1.518281	-0.512985	-0.241691
C247	C	1.768281	-0.262985	0.008309
C248	C	2.018281	-0.012985	0.258309
C249	C	1.062139	-0.763187	-0.285244
C250	C	1.312139	-0.513187	-0.035244
C251	C	1.562139	-0.263187	0.214756
C252	C	1.812139	-0.013187	0.464756
C253	C	1.062163	-0.810103	-0.285263
C254	C	1.312163	-0.560103	-0.035263
C255	C	1.562163	-0.310103	0.214737
C256	C	1.812163	-0.060103	0.464737
C257	C	1.113709	-0.833511	-0.336882
C258	C	1.363709	-0.583511	-0.086882
C259	C	1.613709	-0.333511	0.163118
C260	C	1.863709	-0.083511	0.413118
C261	C	1.375452	-0.216410	-0.388431
C262	C	1.625452	0.033590	-0.138431
C263	C	1.875452	0.283590	0.111569
C264	C	2.125452	0.533590	0.361569
C265	C	1.465073	-0.216413	-0.388441
C266	C	1.715073	0.033587	-0.138441
C267	C	1.965073	0.283587	0.111559
C268	C	2.215073	0.533587	0.361559
C269	C	1.165196	-0.216370	-0.598717
C270	C	1.415196	0.033630	-0.348717
C271	C	1.665196	0.283630	-0.098717
C272	C	1.915196	0.533630	0.151283
C273	C	1.165218	-0.216355	-0.688338
C274	C	1.415218	0.033645	-0.438338
C275	C	1.665218	0.283645	-0.188338
C276	C	1.915218	0.533645	0.061662
C277	C	1.165289	-0.099225	-0.388494
C278	C	1.415289	0.150775	-0.138494
C279	C	1.665289	0.400775	0.111506
C280	C	1.915289	0.650775	0.361506
C281	C	1.165351	-0.049290	-0.388530
C282	C	1.415351	0.200710	-0.138530
C283	C	1.665351	0.450710	0.111470
C284	C	1.915351	0.700710	0.361470
C285	C	1.165255	-0.216305	-1.016514
C286	C	1.415255	0.033695	-0.766514
C287	C	1.665255	0.283695	-0.516514
C288	C	1.915255	0.533695	-0.266514
C289	C	1.165243	-0.216320	-0.925205
C290	C	1.415243	0.033680	-0.675205
C291	C	1.665243	0.283680	-0.425205
C292	C	1.915243	0.533680	-0.175205
C293	C	1.165237	-0.216330	-0.852429
C294	C	1.415237	0.033670	-0.602429
C295	C	1.665237	0.283670	-0.352429
C296	C	1.915237	0.533670	-0.102429
C297	C	1.165224	-0.216345	-0.761115
C298	C	1.415224	0.033655	-0.511115
C299	C	1.665224	0.283655	-0.261115
C300	C	1.915224	0.533655	-0.011115
C301	C	1.165137	-0.216404	-0.178917
C302	C	1.415137	0.033596	0.071083
C303	C	1.665137	0.283596	0.321083
C304	C	1.915137	0.533596	0.571083
C305	C	1.165271	-0.216292	-0.089297
C306	C	1.415271	0.033708	0.160703
C307	C	1.665271	0.283708	0.410703
C308	C	1.915271	0.533708	0.660703
H309	H	1.258582	-0.472439	-0.482027
H310	H	1.508582	-0.222439	-0.232027
H311	H	1.758582	0.027561	0.017973
H312	H	2.008582	0.277561	0.267973
C313	C	1.324899	-0.596384	-0.548418
C314	C	1.574899	-0.346384	-0.298418
C315	C	1.824899	-0.096384	-0.048418
C316	C	2.074899	0.153616	0.201582
H317	H	1.317515	-0.565088	-0.541022
H318	H	1.567515	-0.315088	-0.291022
H319	H	1.817515	-0.065088	-0.041022
H320	H	2.067515	0.184912	0.208978
H321	H	1.313067	-0.604058	-0.602581
H322	H	1.563067	-0.354058	-0.352581
H323	H	1.813067	-0.104058	-0.102581
H324	H	2.063067	0.145942	0.147419
H325	H	1.379087	-0.604054	-0.536666
H326	H	1.629087	-0.354054	-0.286666
H327	H	1.879087	-0.104054	-0.036666
H328	H	2.129087	0.145946	0.213334
C329	C	1.324953	-0.694896	-0.548440
C330	C	1.574953	-0.444896	-0.298440
C331	C	1.824953	-0.194896	-0.048440
C332	C	2.074953	0.055104	0.201560
H333	H	1.355636	-0.674169	-0.579162
H334	H	1.605636	-0.424169	-0.329162
H335	H	1.855636	-0.174169	-0.079162
H336	H	2.105636	0.075831	0.170838
H337	H	1.294111	-0.713200	-0.583555
H338	H	1.544111	-0.463200	-0.333555
H339	H	1.794111	-0.213200	-0.083555
H340	H	2.044111	0.036800	0.166445
H341	H	1.360117	-0.713191	-0.517626
H342	H	1.610117	-0.463191	-0.267626
H343	H	1.860117	-0.213191	-0.017626
H344	H	2.110117	0.036809	0.232374
C345	C	1.057075	-0.953223	-0.280112
C346	C	1.307075	-0.703223	-0.030112
C347	C	1.557075	-0.453223	0.219888
C348	C	1.807075	-0.203223	0.469888
H349	H	1.026405	-0.973948	-0.249375
H350	H	1.276405	-0.723948	0.000625
H351	H	1.526405	-0.473948	0.250625
H352	H	1.776405	-0.223948	0.500625
H353	H	1.021911	-0.934922	-0.310909
H354	H	1.271911	-0.684922	-0.060909
H355	H	1.521911	-0.434922	0.189091
H356	H	1.771911	-0.184922	0.439091
H357	H	1.087936	-0.934923	-0.245000
H358	H	1.337936	-0.684923	0.005000
H359	H	1.587936	-0.434923	0.255000
H360	H	1.837936	-0.184923	0.505000
C361	C	1.273528	-0.953007	-0.496908
C362	C	1.523528	-0.703007	-0.246908
C363	C	1.773528	-0.453007	0.003092
C364	C	2.023528	-0.203007	0.253092
H365	H	1.304222	-0.973672	-0.527654
H366	H	1.554222	-0.723672	-0.277654
H367	H	1.804222	-0.473672	-0.027654
H368	H	2.054222	-0.223672	0.222346
H369	H	1.308672	-0.934696	-0.466106
H370	H	1.558672	-0.684696	-0.216106
H371	H	1.808672	-0.434696	0.033894
H372	H	2.058672	-0.184696	0.283894
H373	H	1.242643	-0.934709	-0.532011
H374	H	1.492643	-0.684709	-0.282011
H375	H	1.742643	-0.434709	-0.032011
H376	H	1.992643	-0.184709	0.217989
C377	C	1.056809	-0.380822	-0.279957
C378	C	1.306809	-0.130822	-0.029957
C379	C	1.556809	0.119178	0.220043
C380	C	1.806809	0.369178	0.470043
H381	H	1.026123	-0.401539	-0.249219
H382	H	1.276123	-0.151539	0.000781
H383	H	1.526123	0.098461	0.250781
H384	H	1.776123	0.348461	0.500781
H385	H	1.021659	-0.362523	-0.310772
H386	H	1.271659	-0.112523	-0.060772
H387	H	1.521659	0.137477	0.189228
H388	H	1.771659	0.387477	0.439228
H389	H	1.087666	-0.362520	-0.244845
H390	H	1.337666	-0.112520	0.005155
H391	H	1.587666	0.137480	0.255155
H392	H	1.837666	0.387480	0.505155
H393	H	1.020201	-0.829239	-0.243232
H394	H	1.270201	-0.579239	0.006768
H395	H	1.520201	-0.329239	0.256768
H396	H	1.770201	-0.079239	0.506768
C397	C	1.005390	-0.695200	-0.228456
C398	C	1.255390	-0.445200	0.021544
C399	C	1.505390	-0.195200	0.271544
C400	C	1.755390	0.054800	0.521544
H401	H	0.974685	-0.674533	-0.197725
H402	H	1.224685	-0.424533	0.052275
H403	H	1.474685	-0.174533	0.302275
H404	H	1.724685	0.075467	0.552275
H405	H	1.036249	-0.713506	-0.193349
H406	H	1.286249	-0.463506	0.056651
H407	H	1.536249	-0.213506	0.306651
H408	H	1.786249	0.036494	0.556651
H409	H	0.970245	-0.713502	-0.259280
H410	H	1.220245	-0.463502	-0.009280
H411	H	1.470245	-0.213502	0.240720
H412	H	1.720245	0.036498	0.490720
H413	H	1.020163	-0.744132	-0.243211
H414	H	1.270163	-0.494132	0.006789
H415	H	1.520163	-0.244132	0.256789
H416	H	1.770163	0.005868	0.506789
H417	H	1.071851	-1.045018	-0.294881
H418	H	1.321851	-0.795018	-0.044881
H419	H	1.571851	-0.545018	0.205119
H420	H	1.821851	-0.295018	0.455119
H421	H	1.258850	-1.044847	-0.482171
H422	H	1.508850	-0.794847	-0.232171
H423	H	1.758850	-0.544847	0.017829
H424	H	2.008850	-0.294847	0.267829
H425	H	1.258554	-0.387329	-0.481980
H426	H	1.508554	-0.137329	-0.231980
H427	H	1.758554	0.112671	0.018020
H428	H	2.008554	0.362671	0.268020
H429	H	1.020078	-0.603375	-0.243180
H430	H	1.270078	-0.353375	0.006820
H431	H	1.520078	-0.103375	0.256820
H432	H	1.770078	0.146625	0.506820
H433	H	1.310242	-0.743849	-0.533714
H434	H	1.560242	-0.493849	-0.283714
H435	H	1.810242	-0.243849	-0.033714
H436	H	2.060242	0.006151	0.216286
C437	C	1.056854	-0.479349	-0.279982
C438	C	1.306854	-0.229349	-0.029982
C439	C	1.556854	0.020651	0.220018
C440	C	1.806854	0.270651	0.470018
H441	H	1.026150	-0.458687	-0.249241
H442	H	1.276150	-0.208687	0.000759
H443	H	1.526150	0.041313	0.250759
H444	H	1.776150	0.291313	0.500759
H445	H	1.087718	-0.497658	-0.244885
H446	H	1.337718	-0.247658	0.005115
H447	H	1.587718	0.002342	0.255115
H448	H	1.837718	0.252342	0.505115
H449	H	1.021708	-0.497649	-0.310810
H450	H	1.271708	-0.247649	-0.060810
H451	H	1.521708	0.002351	0.189190
H452	H	1.771708	0.252351	0.439190
H453	H	1.310273	-0.828967	-0.533734
H454	H	1.560273	-0.578967	-0.283734
H455	H	1.810273	-0.328967	-0.033734
H456	H	2.060273	-0.078967	0.216266
