data_functionalizedCrystal
_audit_creation_method	'MofGen! by Chris Wilmer'
_symmetry_space_group_name_H-M	'P1'
_symmetry_Int_Tables_number	1
_symmetry_cell_setting	triclinic
loop_
_symmetry_equiv_pos_as_xyz
  x,y,z
_cell_length_a	12.759401
_cell_length_b	18.050589
_cell_length_c	18.050582
_cell_angle_alpha	89.981795
_cell_angle_beta	89.986894
_cell_angle_gamma	90.029746
loop_
_atom_site_label
_atom_site_type_symbol
_atom_site_fract_x
_atom_site_fract_y
_atom_site_fract_z
Zn1	Zn	1.606086	-0.295676	-0.419899
Zn2	Zn	1.605960	-0.419860	-0.295719
Zn3	Zn	1.430409	-0.295691	-0.295727
Zn4	Zn	1.430336	-0.419832	-0.419871
O5	O	1.518198	-0.357765	-0.357804
O6	O	1.753091	-0.312155	-0.403434
O7	O	1.582651	-0.403406	-0.191795
O8	O	1.453797	-0.191765	-0.312214
O9	O	1.752998	-0.403392	-0.312200
O10	O	1.582866	-0.191754	-0.403443
O11	O	1.453674	-0.312180	-0.191801
O12	O	1.283378	-0.312154	-0.312187
O13	O	1.453671	-0.403345	-0.523799
O14	O	1.283324	-0.403360	-0.403395
O15	O	1.582795	-0.312128	-0.523820
O16	O	1.582579	-0.523781	-0.312172
O17	O	1.453549	-0.523761	-0.403387
C18	C	1.245230	-0.357756	-0.357789
C19	C	1.128454	-0.357770	-0.357801
C20	C	1.073591	-0.405333	-0.405218
C21	C	0.963867	-0.405336	-0.405232
C22	C	0.963878	-0.310210	-0.310406
C23	C	1.073600	-0.310204	-0.310396
C24	C	1.518071	-0.550717	-0.357792
C25	C	1.518113	-0.633263	-0.357811
C26	C	1.448015	-0.832730	-0.407396
C27	C	1.422412	-0.882164	-0.339629
C28	C	1.518216	-0.784393	-0.357821
C29	C	1.543870	-0.882040	-0.425595
C30	C	1.518314	-0.930378	-0.357836
C31	C	1.492563	-0.832740	-0.290018
C32	C	1.614066	-0.832613	-0.376030
C33	C	1.588499	-0.882025	-0.308216
C34	C	1.518157	-0.700295	-0.357813
C35	C	1.518373	-1.014475	-0.357836
C36	C	1.792231	-0.357775	-0.357819
C37	C	1.909008	-0.357779	-0.357826
C38	C	1.518239	-0.357732	-0.551510
C39	C	1.518257	-0.357718	-0.634055
C40	C	1.518354	-0.164059	-0.357833
C41	C	1.518420	-0.081514	-0.357845
C42	C	1.448093	-0.407254	-0.833495
C43	C	1.543946	-0.425406	-0.882886
C44	C	1.518308	-0.357661	-0.785186
C45	C	1.422508	-0.339489	-0.882877
C46	C	1.518350	-0.357608	-0.931171
C47	C	1.614211	-0.375849	-0.833489
C48	C	1.492709	-0.289900	-0.833476
C49	C	1.588628	-0.308026	-0.882845
C50	C	1.518283	-0.357694	-0.701088
C51	C	1.518386	-0.357575	-1.015268
C52	C	1.518217	-0.357744	-0.164852
C53	C	1.518403	-0.357549	-0.082306
H54	H	0.919203	-0.271485	-0.271810
C55	C	1.132984	-0.258533	-0.258829
C56	C	1.061464	-0.216897	-0.217298
C57	C	1.116130	-0.169298	-0.169784
H58	H	1.175825	-0.226148	-0.287208
H59	H	1.175731	-0.286879	-0.226379
H60	H	1.018735	-0.188554	-0.249743
H61	H	1.018621	-0.249263	-0.188903
H62	H	1.158877	-0.197644	-0.137335
H63	H	1.158969	-0.136918	-0.198170
H64	H	1.067612	-0.141047	-0.141595
C65	C	1.463518	-0.803847	-0.213641
C66	C	1.463736	-0.726285	-0.214537
C67	C	1.436968	-0.699641	-0.144197
H68	H	1.513065	-0.821040	-0.178339
H69	H	1.395650	-0.821185	-0.200625
H70	H	1.531595	-0.708954	-0.227543
H71	H	1.414188	-0.709072	-0.249824
H72	H	1.369099	-0.716980	-0.131182
H73	H	1.486518	-0.716840	-0.108901
H74	H	1.437103	-0.647014	-0.144798
H75	H	1.388770	-0.449248	-0.811827
C76	C	1.133283	-0.456847	-0.456733
C77	C	1.196345	-0.414860	-0.504386
C78	C	1.251354	-0.462288	-0.551848
H79	H	1.085011	-0.485190	-0.485047
H80	H	1.176111	-0.489153	-0.428287
H81	H	1.153520	-0.382566	-0.532829
H82	H	1.244636	-0.386518	-0.476092
H83	H	1.294183	-0.494595	-0.523402
H84	H	1.203075	-0.490629	-0.580157
H85	H	1.294155	-0.433807	-0.584181
C86	C	1.368580	-0.803901	-0.463121
C87	C	1.268418	-0.828998	-0.443713
C88	C	1.195213	-0.802446	-0.495019
H89	H	1.385960	-0.821489	-0.511168
H90	H	1.369473	-0.751271	-0.463032
H91	H	1.267527	-0.881616	-0.443809
H92	H	1.251004	-0.811412	-0.395675
H93	H	1.196106	-0.749817	-0.494930
H94	H	1.212604	-0.820036	-0.543063
H95	H	1.127244	-0.819465	-0.481854
C96	C	1.314477	-0.911335	-0.319072
C97	C	1.316227	-0.988891	-0.318683
C98	C	1.216819	-1.015786	-0.299746
H99	H	1.264551	-0.894542	-0.354299
H100	H	1.295792	-0.893772	-0.271251
H101	H	1.334899	-1.006446	-0.366497
H102	H	1.366132	-1.005704	-0.283455
H103	H	1.198134	-0.998223	-0.251925
H104	H	1.166900	-0.998987	-0.334975
H105	H	1.217995	-1.068409	-0.299473
C106	C	1.722216	-0.396552	-0.804650
C107	C	1.714716	-0.460824	-0.761525
C108	C	1.814186	-0.479927	-0.734953
H109	H	1.749039	-0.357226	-0.775272
H110	H	1.767955	-0.405251	-0.845262
H111	H	1.668994	-0.452121	-0.720918
H112	H	1.687911	-0.500164	-0.790886
H113	H	1.859925	-0.488626	-0.775565
H114	H	1.841001	-0.440597	-0.705579
H115	H	1.809112	-0.523541	-0.705695
C116	C	1.572974	-0.910873	-0.501985
C117	C	1.672603	-0.884706	-0.521351
C118	C	1.699444	-0.911256	-0.591712
H119	H	1.523098	-0.894012	-0.537216
H120	H	1.573491	-0.963501	-0.501342
H121	H	1.672078	-0.832089	-0.521999
H122	H	1.722501	-0.901564	-0.486139
H123	H	1.699962	-0.963884	-0.591069
H124	H	1.649562	-0.894393	-0.626937
H125	H	1.767048	-0.893511	-0.604858
C126	C	1.572649	-0.501834	-0.911790
C127	C	1.498855	-0.553562	-0.886807
C128	C	1.525247	-0.623974	-0.913424
H129	H	1.640201	-0.515167	-0.894171
H130	H	1.573037	-0.501178	-0.964419
H131	H	1.498478	-0.554220	-0.834189
H132	H	1.431296	-0.540253	-0.904424
H133	H	1.525635	-0.623318	-0.966052
H134	H	1.592801	-0.637299	-0.895802
H135	H	1.475177	-0.659078	-0.896482
C136	C	1.667576	-0.910672	-0.252146
C137	C	1.640282	-0.885572	-0.181341
C138	C	1.713090	-0.911957	-0.129667
H139	H	1.735467	-0.892972	-0.264566
H140	H	1.667574	-0.963302	-0.252695
H141	H	1.640295	-0.832953	-0.180793
H142	H	1.572404	-0.903270	-0.168897
H143	H	1.713087	-0.964587	-0.130216
H144	H	1.780976	-0.894255	-0.142094
H145	H	1.694575	-0.894936	-0.081619
C146	C	1.722154	-0.803670	-0.396488
C147	C	1.795751	-0.829749	-0.345221
C148	C	1.895335	-0.803111	-0.364058
H149	H	1.721635	-0.751052	-0.395873
H150	H	1.740311	-0.820542	-0.444659
H151	H	1.777599	-0.812873	-0.297063
H152	H	1.796303	-0.882365	-0.345829
H153	H	1.913491	-0.819983	-0.412229
H154	H	1.894804	-0.750493	-0.363443
H155	H	1.945283	-0.820807	-0.329281
H156	H	1.648093	-0.266065	-0.904376
H157	H	1.471004	-0.232636	-0.811757
C158	C	1.314368	-0.319121	-0.911703
C159	C	1.241162	-0.371246	-0.886683
C160	C	1.141530	-0.352509	-0.913212
H161	H	1.315175	-0.318819	-0.964323
H162	H	1.295627	-0.271355	-0.894038
H163	H	1.259898	-0.418999	-0.904351
H164	H	1.240322	-0.371556	-0.834066
H165	H	1.122789	-0.304743	-0.895547
H166	H	1.142348	-0.352207	-0.965832
H167	H	1.091846	-0.387868	-0.896234
H168	H	0.919203	-0.444066	-0.443845
