data_functionalizedCrystal
_audit_creation_method	'MofGen! by Chris Wilmer'
_symmetry_space_group_name_H-M	'P1'
_symmetry_Int_Tables_number	1
_symmetry_cell_setting	triclinic
loop_
_symmetry_equiv_pos_as_xyz
  x,y,z
_cell_length_a	16.109301
_cell_length_b	15.538191
_cell_length_c	14.586319
_cell_angle_alpha	89.999456
_cell_angle_beta	89.999213
_cell_angle_gamma	65.366787
loop_
_atom_site_label
_atom_site_type_symbol
_atom_site_fract_x
_atom_site_fract_y
_atom_site_fract_z
O1	O	1.066616	0.121093	-0.076175
O2	O	0.820010	0.136163	-0.076189
O3	O	0.991317	-0.008516	-0.076184
O4	O	0.895309	0.265773	-0.076180
O5	O	0.991309	-0.008518	0.076297
O6	O	0.820002	0.136161	0.076292
O7	O	1.066608	0.121091	0.076306
Cu8	Cu	0.943304	0.128626	0.090221
Cu9	Cu	0.943314	0.128629	-0.090105
O10	O	0.895301	0.265770	0.076300
C11	C	0.789215	0.135552	0.000050
C12	C	0.697472	0.133722	0.000044
C13	C	0.450596	0.215316	0.000056
C14	C	0.364396	0.213589	0.000062
C15	C	0.436032	0.041932	0.000056
C16	C	0.522229	0.043660	0.000056
C17	C	0.529508	0.130355	0.000052
C18	C	0.357111	0.126900	0.000057
C19	C	0.263649	0.125027	0.000063
C20	C	0.622975	0.132228	0.000047
C21	C	1.001358	-0.043615	0.000054
C22	C	1.031279	-0.148198	0.000047
C23	C	0.734025	-0.435898	0.000050
C24	C	0.762161	-0.534172	0.000053
C25	C	0.920419	-0.556664	0.000062
C26	C	0.892297	-0.458389	0.000054
C27	C	0.799099	-0.398013	0.000049
C28	C	0.957370	-0.420505	0.000053
C29	C	0.929249	-0.322239	0.000049
C30	C	0.836055	-0.261857	0.000047
C31	C	0.770978	-0.299747	0.000046
C32	C	1.050568	-0.480882	0.000064
C33	C	1.115641	-0.442998	0.000063
C34	C	1.087520	-0.344730	0.000053
C35	C	0.994326	-0.284349	0.000051
C36	C	1.152598	-0.306840	0.000055
C37	C	1.124477	-0.208574	0.000052
C38	C	0.966206	-0.186083	0.000048
C39	C	1.097403	0.121703	0.000065
C40	C	1.189147	0.123533	0.000065
C41	C	0.885260	0.300870	0.000060
C42	C	0.855340	0.405453	0.000062
N43	N	0.943304	0.128624	0.217053
N44	N	0.943324	0.128624	-0.216937
C45	C	1.019171	0.064581	0.452062
C46	C	1.019174	0.064579	0.548043
C47	C	0.867450	0.192669	0.548048
C48	C	0.867445	0.192666	0.452069
C49	C	0.943310	0.128623	0.404078
C50	C	0.943318	0.128624	0.596039
C51	C	0.943320	0.128622	0.700106
C52	C	0.943307	0.128624	0.300004
H53	H	0.890314	-0.136921	0.000037
H54	H	0.586487	-0.025530	0.000056
C55	C	0.302253	0.383435	0.000053
C56	C	0.277655	0.306981	0.000059
H57	H	0.248700	0.441093	0.000047
H58	H	0.337361	0.380539	0.053223
H59	H	0.337368	0.380530	-0.053125
H60	H	0.242545	0.309883	0.053241
H61	H	0.242532	0.309879	-0.053115
C62	C	1.086499	0.007637	0.304930
C63	C	1.102530	-0.005864	0.399308
H64	H	1.137958	-0.035866	0.272366
H65	H	1.034083	-0.002567	0.289235
H66	H	1.076601	0.070499	0.289182
H67	H	1.112421	-0.068723	0.415058
H68	H	1.154962	0.004333	0.415010
H69	H	0.709164	-0.565012	0.000068
C70	C	1.169149	-0.062022	0.538391
C71	C	1.102565	-0.005814	0.600787
H72	H	1.220634	-0.105477	0.570955
H73	H	1.144773	-0.095921	0.500961
H74	H	1.187205	-0.022783	0.500951
H75	H	1.084504	-0.045052	0.638223
H76	H	1.126944	0.028088	0.638233
H77	H	0.996301	-0.605834	0.000070
C78	C	0.706848	0.247937	0.577620
C79	C	0.784065	0.263063	0.600806
H80	H	0.655372	0.291393	0.610196
H81	H	0.695990	0.257106	0.513600
H82	H	0.716812	0.185054	0.593357
H83	H	0.774104	0.325944	0.585064
H84	H	0.794925	0.253901	0.664842
H85	H	0.430094	-0.028652	0.000065
H86	H	1.228479	-0.356012	0.000068
H87	H	1.073460	-0.560896	0.000059
H88	H	0.805665	0.244817	0.412997
H89	H	0.813161	-0.181843	0.000050
H90	H	0.695087	-0.250585	0.000035
H91	H	1.177466	-0.177729	0.000052
H92	H	0.456517	0.285908	0.000059
H93	H	0.658134	-0.386736	0.000039
H94	H	1.191523	-0.492169	0.000071
