data_functionalizedCrystal
_audit_creation_method	'MofGen! by Chris Wilmer'
_symmetry_space_group_name_H-M	'P1'
_symmetry_Int_Tables_number	1
_symmetry_cell_setting	triclinic
loop_
_symmetry_equiv_pos_as_xyz
  x,y,z
_cell_length_a	10.723024
_cell_length_b	17.038272
_cell_length_c	9.798715
_cell_angle_alpha	89.996584
_cell_angle_beta	89.996609
_cell_angle_gamma	87.789713
loop_
_atom_site_label
_atom_site_type_symbol
_atom_site_fract_x
_atom_site_fract_y
_atom_site_fract_z
O1	O	1.667337	0.109720	-0.113484
O2	O	1.305156	0.120222	-0.113489
O3	O	1.484094	0.001144	-0.113475
O4	O	1.488399	0.228799	-0.113497
O5	O	1.484079	0.001144	0.113507
O6	O	1.305141	0.120222	0.113494
O7	O	1.667322	0.109720	0.113498
Zn8	Zn	1.486230	0.114971	0.149534
Zn9	Zn	1.486248	0.114971	-0.149525
O10	O	1.488384	0.228798	0.113485
C11	C	1.258578	0.119458	0.000002
C12	C	1.119813	0.117171	0.000000
C13	C	1.050993	0.183801	-0.000007
C14	C	0.907571	0.181440	-0.000008
C15	C	1.480171	-0.028006	0.000015
C16	C	1.468489	-0.114864	0.000015
C17	C	1.575744	-0.164385	0.000018
C18	C	1.564760	-0.245996	0.000005
C19	C	1.446520	-0.278084	-0.000002
C20	C	1.339256	-0.228557	-0.000009
C21	C	1.350241	-0.146947	-0.000005
C22	C	1.407711	-0.524057	-0.000021
C23	C	1.396734	-0.605673	-0.000020
C24	C	1.622239	-0.623107	-0.000009
C25	C	1.633214	-0.541495	0.000002
C26	C	1.525950	-0.491974	-0.000012
C27	C	1.435289	-0.361504	-0.000011
C28	C	1.537182	-0.408556	-0.000013
C29	C	1.713900	0.110484	0.000005
C30	C	1.852666	0.112771	-0.000003
C31	C	1.492307	0.257948	-0.000009
C32	C	1.503989	0.344806	-0.000017
N33	N	1.486226	0.114970	0.353634
N34	N	1.486261	0.114966	-0.353624
C35	C	1.561337	0.064752	0.421416
C36	C	1.561356	0.064749	0.578579
H37	H	1.672028	-0.138265	0.000031
O38	O	1.281893	-0.636879	0.000209
C39	C	1.268789	-0.683580	0.117750
H40	H	1.336070	-0.663934	0.199920
H41	H	1.168937	-0.676796	0.157199
H42	H	1.290761	-0.747773	0.091179
O43	O	1.107422	0.253925	-0.000250
C44	C	1.182455	0.259359	-0.117785
H45	H	1.147235	0.218348	-0.199951
H46	H	1.177600	0.322346	-0.157247
H47	H	1.283201	0.241778	-0.091200
H48	H	1.633453	-0.382426	-0.000038
H49	H	1.421930	0.157959	0.411954
H50	H	0.848415	0.238480	-0.000020
H51	H	1.421957	0.157965	0.588095
O52	O	0.923353	0.044767	-0.000179
C53	C	0.999193	0.041801	-0.117753
H54	H	1.012249	0.103943	-0.156951
H55	H	1.094028	0.013257	-0.091313
H56	H	0.952633	0.005804	-0.200066
O57	O	1.063644	0.046961	0.000064
C58	C	1.155478	-0.014533	0.000033
H59	H	1.246323	0.007791	0.043005
H60	H	1.122814	-0.064914	0.065933
H61	H	1.171556	-0.036203	-0.108861
H62	H	1.652100	-0.286314	0.000010
H63	H	1.625667	0.021758	0.636869
O64	O	1.748104	-0.510368	-0.000234
C65	C	1.814038	-0.535625	-0.117768
H66	H	1.745057	-0.552949	-0.199943
H67	H	1.872416	-0.485909	-0.157215
H68	H	1.877957	-0.588436	-0.091189
O69	O	1.726300	-0.671323	-0.000068
C70	C	1.691258	-0.750235	-0.000039
H71	H	1.592860	-0.753888	-0.043010
H72	H	1.759095	-0.786815	-0.065941
H73	H	1.693483	-0.773814	0.108855
H74	H	1.242982	-0.254689	-0.000022
O75	O	1.303392	-0.476072	0.000044
C76	C	1.196679	-0.521898	0.000015
H77	H	1.221910	-0.582630	0.042981
H78	H	1.120993	-0.492227	0.065921
H79	H	1.160843	-0.527892	-0.108878
O80	O	1.245926	-0.098952	0.000053
C81	C	1.139207	-0.144771	0.000012
H82	H	1.164424	-0.205502	0.042990
H83	H	1.063516	-0.115094	0.065902
H84	H	1.103385	-0.150768	-0.108886
H85	H	1.339017	-0.387640	-0.000013
O86	O	1.637892	0.013458	0.351673
C87	C	1.565652	-0.035028	0.269023
H88	H	1.471337	-0.004284	0.247804
H89	H	1.616314	-0.047088	0.168464
H90	H	1.550889	-0.092917	0.323964
