data_functionalizedCrystal
_audit_creation_method	'MofGen! by Chris Wilmer'
_symmetry_space_group_name_H-M	'P1'
_symmetry_Int_Tables_number	1
_symmetry_cell_setting	triclinic
loop_
_symmetry_equiv_pos_as_xyz
  x,y,z
_cell_length_a	14.519709
_cell_length_b	14.971486
_cell_length_c	14.048226
_cell_angle_alpha	90.000920
_cell_angle_beta	90.000842
_cell_angle_gamma	83.647136
loop_
_atom_site_label
_atom_site_type_symbol
_atom_site_fract_x
_atom_site_fract_y
_atom_site_fract_z
O1	O	1.223800	0.117253	0.079025
O2	O	0.955315	0.131060	0.079052
O3	O	1.096753	-0.006039	0.079045
O4	O	1.082361	0.254353	0.079032
O5	O	1.096736	-0.006048	-0.079277
O6	O	0.955298	0.131052	-0.079269
O7	O	1.223783	0.117245	-0.079297
Zn8	Zn	1.089538	0.124147	-0.104420
Zn9	Zn	1.089560	0.124158	0.104175
O10	O	1.082344	0.254344	-0.079289
C11	C	0.920947	0.130413	-0.000105
C12	C	0.818567	0.128485	-0.000093
C13	C	0.443675	0.121386	-0.000136
C14	C	0.547982	0.123357	-0.000124
C15	C	0.631118	0.124935	-0.000114
C16	C	0.735431	0.126907	-0.000104
C17	C	1.096101	-0.039369	-0.000112
C18	C	1.094172	-0.138667	-0.000100
C19	C	1.258151	0.117892	-0.000138
C20	C	1.360531	0.119820	-0.000143
N21	N	1.089529	0.124139	-0.246780
C22	C	1.082996	0.287674	-0.000130
C23	C	1.084925	0.386972	-0.000136
C24	C	1.001834	0.444150	-0.000126
C25	C	1.003652	0.537451	-0.000113
C26	C	1.088562	0.573571	-0.000117
C27	C	1.171659	0.516385	-0.000124
C28	C	1.169841	0.423086	-0.000130
C29	C	1.175444	0.710850	-0.000114
C30	C	1.177264	0.804155	-0.000110
C31	C	1.009255	0.825214	-0.000098
C32	C	1.007437	0.731915	-0.000104
C33	C	1.090535	0.674736	-0.000112
C34	C	1.152178	0.063457	-0.296602
C35	C	1.152184	0.063456	-0.396259
C36	C	1.089545	0.124143	-0.446094
C37	C	1.026890	0.184829	-0.396266
C38	C	1.026880	0.184824	-0.296610
C39	C	1.026916	0.184835	-0.603980
C40	C	1.026927	0.184841	-0.703643
C41	C	1.152220	0.063467	-0.703630
C42	C	1.152211	0.063463	-0.603974
C43	C	1.089556	0.124150	-0.554152
N44	N	1.089576	0.124159	0.246536
H45	H	0.935990	0.584003	-0.000103
O46	O	1.256105	0.655214	-0.000251
C47	C	1.260080	0.600638	-0.082263
H48	H	1.186870	0.595806	-0.109591
H49	H	1.294357	0.530571	-0.063832
H50	H	1.302226	0.631402	-0.139683
H51	H	0.975883	0.234239	-0.436846
H52	H	0.975864	0.234237	-0.256046
O53	O	1.212964	0.004300	-0.555715
C54	C	1.197778	-0.084208	-0.580247
H55	H	1.123910	-0.084683	-0.607586
H56	H	1.208354	-0.129200	-0.514806
H57	H	1.248788	-0.110312	-0.638184
H58	H	0.975893	0.234250	-0.563418
O59	O	0.965945	0.243690	-0.752016
C60	C	0.874644	0.228946	-0.727665
H61	H	0.874132	0.157331	-0.700264
H62	H	0.828386	0.239115	-0.793214
H63	H	0.847586	0.278467	-0.669830
H64	H	0.938295	0.702510	-0.000105
H65	H	0.932690	0.414749	-0.000134
H66	H	1.203235	0.014054	-0.744200
O67	O	0.928555	0.880788	0.000087
C68	C	0.924593	0.935393	0.082078
H69	H	0.971720	0.901296	0.139382
H70	H	0.850320	0.945759	0.109606
H71	H	0.948533	1.003277	0.063548
O72	O	1.259824	0.839095	-0.000053
C73	C	1.332779	0.768623	-0.000070
H74	H	1.306857	0.705199	0.029890
H75	H	1.392045	0.788215	0.045910
H76	H	1.358429	0.755470	-0.076021
H77	H	1.203189	0.014042	-0.256033
O78	O	1.254222	0.551321	-0.000080
C79	C	1.327171	0.480843	-0.000110
H80	H	1.301249	0.417423	0.029860
H81	H	1.386450	0.500431	0.045855
H82	H	1.352804	0.467686	-0.076066
O83	O	1.250470	0.367412	-0.000100
C84	C	1.230659	0.277320	-0.000125
H85	H	1.158219	0.273629	0.029852
H86	H	1.283619	0.235133	0.045835
H87	H	1.234118	0.250346	-0.076081
O88	O	1.213140	0.004485	-0.444508
C89	C	1.268417	-0.049086	-0.379153
H90	H	1.269477	-0.012414	-0.308111
H91	H	1.342055	-0.062553	-0.407935
H92	H	1.238421	-0.115607	-0.368568
