data_functionalizedCrystal
_audit_creation_method	'MofGen! by Chris Wilmer'
_symmetry_space_group_name_H-M	'P1'
_symmetry_Int_Tables_number	1
_symmetry_cell_setting	triclinic
loop_
_symmetry_equiv_pos_as_xyz
  x,y,z
_cell_length_a	15.072220
_cell_length_b	14.853567
_cell_length_c	15.995292
_cell_angle_alpha	96.448227
_cell_angle_beta	90.002061
_cell_angle_gamma	90.009531
loop_
_atom_site_label
_atom_site_type_symbol
_atom_site_fract_x
_atom_site_fract_y
_atom_site_fract_z
O1	O	-0.073715	-1.196204	0.109315
O2	O	-0.073729	-0.933724	0.122338
O3	O	-0.073723	-1.072166	-0.006056
O4	O	-0.073721	-1.057762	0.237709
O5	O	0.073842	-1.072132	-0.006049
O6	O	0.073836	-0.933690	0.122345
O7	O	0.073850	-1.196170	0.109322
Zn8	Zn	0.097272	-1.064924	0.115834
Zn9	Zn	-0.097151	-1.064969	0.115825
O10	O	0.073844	-1.057727	0.237716
C11	C	0.000051	-0.900119	0.121751
C12	C	0.000046	-0.800038	0.119983
N13	N	0.229961	-1.064900	0.115840
N14	N	-0.229840	-1.065001	0.115813
C15	C	0.589163	-1.064968	0.115822
C16	C	0.551552	-0.990641	0.184292
C17	C	0.448726	-0.990811	0.184542
C18	C	0.410958	-1.064933	0.115831
C19	C	0.448255	-1.158996	0.135023
C20	C	0.551113	-1.158580	0.135509
C21	C	0.551261	-1.046070	0.027958
C22	C	0.448397	-1.043911	0.028541
C23	C	0.310245	-1.064920	0.115835
C24	C	0.689876	-1.064987	0.115820
C25	C	0.000057	-1.071563	-0.037249
C26	C	0.000050	-1.069805	-0.130204
C27	C	0.000068	-1.229775	0.109908
C28	C	0.000068	-1.329856	0.111677
C29	C	0.000065	-0.387636	0.036239
C30	C	0.000065	-0.366115	0.188774
C31	C	0.000062	-0.460146	0.190437
C32	C	0.000059	-0.517927	0.115000
C33	C	0.000059	-0.481676	0.037900
C34	C	0.000053	-0.496404	0.267535
C35	C	0.000049	-0.590441	0.269201
C36	C	0.000053	-0.648223	0.193763
C37	C	0.000054	-0.611967	0.116660
C38	C	0.000051	-0.669747	0.041223
C39	C	0.000058	-0.633493	-0.035881
C40	C	0.000063	-0.539459	-0.037539
C41	C	0.000048	-0.742258	0.195420
C42	C	0.000045	-0.763788	0.042883
C43	C	0.000058	-1.063344	-0.467950
C44	C	0.000393	-1.163268	-0.444522
C45	C	0.000058	-1.165167	-0.347844
C46	C	0.000055	-1.066550	-0.300390
C47	C	-0.084212	-1.016612	-0.329554
C48	C	-0.084279	-1.015409	-0.426345
C49	C	0.083530	-1.013330	-0.426197
C50	C	0.084640	-1.017033	-0.329700
C51	C	0.000050	-1.068357	-0.205692
C52	C	0.000057	-1.061534	-0.562648
C53	C	0.000062	-1.058331	0.268909
C54	C	0.000063	-1.060088	0.361864
H55	H	0.423511	-0.920892	0.173092
F56	F	0.000034	-0.780839	0.277473
F57	F	0.583633	-1.232977	0.072747
H58	H	0.423789	-1.215625	0.086484
F59	F	-0.089286	-0.919651	-0.445478
F60	F	0.583894	-0.898951	0.169560
H61	H	-0.147268	-1.050022	-0.453125
H62	H	0.424021	-0.974718	0.013979
F63	F	0.000043	-0.629016	0.351261
H64	H	0.060462	-1.204278	-0.328770
H65	H	-0.060450	-1.204537	-0.329396
F66	F	0.000077	-0.349052	-0.045816
H67	H	0.422691	-1.094532	-0.024807
H68	H	0.000090	-0.509931	-0.100312
H69	H	0.089727	-0.945051	-0.296814
F70	F	0.414577	-1.181290	0.217828
F71	F	0.167013	-1.054174	-0.463130
H72	H	0.575096	-1.175235	0.199591
F73	F	0.000057	-0.304620	0.269055
F74	F	0.583050	-1.116916	-0.038644
F75	F	-0.088316	-0.921761	-0.288009
H76	H	0.577247	-0.978970	0.009531
F77	F	-0.078146	-1.213351	-0.482393
F78	F	-0.166179	-1.061976	-0.303289
F79	F	0.000049	-0.694998	-0.116164
H80	H	0.146980	-1.053395	-0.311089
H81	H	0.000047	-0.810827	-0.018548
H82	H	0.577392	-1.002540	0.249125
F83	F	0.084271	-0.917193	-0.444596
F84	F	0.000044	-0.434907	0.347815
F85	F	0.079383	-1.213595	-0.481052
H86	H	0.424114	-1.002877	0.249742
