data_functionalizedCrystal
_audit_creation_method	'MofGen! by Chris Wilmer'
_symmetry_space_group_name_H-M	'P1'
_symmetry_Int_Tables_number	1
_symmetry_cell_setting	triclinic
loop_
_symmetry_equiv_pos_as_xyz
  x,y,z
_cell_length_a	12.759401
_cell_length_b	21.295417
_cell_length_c	12.759393
_cell_angle_alpha	89.961877
_cell_angle_beta	89.981504
_cell_angle_gamma	90.029863
loop_
_atom_site_label
_atom_site_type_symbol
_atom_site_fract_x
_atom_site_fract_y
_atom_site_fract_z
Zn1	Zn	1.606146	-0.250569	-0.593933
Zn2	Zn	2.106146	0.249431	-0.093933
Zn3	Zn	1.605994	-0.355853	-0.418233
Zn4	Zn	2.105994	0.144147	0.081767
Zn5	Zn	1.430448	-0.250602	-0.418273
Zn6	Zn	1.930448	0.249398	0.081727
Zn7	Zn	1.430390	-0.355805	-0.593875
Zn8	Zn	1.930390	0.144195	-0.093875
O9	O	1.518245	-0.303208	-0.506079
O10	O	2.018245	0.196792	-0.006079
O11	O	1.753147	-0.264542	-0.570634
O12	O	2.253147	0.235458	-0.070634
O13	O	1.582668	-0.341926	-0.271218
O14	O	2.082668	0.158074	0.228782
O15	O	1.453842	-0.162509	-0.441616
O16	O	1.953842	0.337491	0.058384
O17	O	1.753035	-0.341894	-0.441548
O18	O	2.253035	0.158106	0.058452
O19	O	1.582927	-0.162484	-0.570673
O20	O	2.082927	0.337516	-0.070673
O21	O	1.453695	-0.264598	-0.271246
O22	O	1.953695	0.235402	0.228754
O23	O	1.283419	-0.264551	-0.441559
O24	O	1.783419	0.235449	0.058441
O25	O	1.453744	-0.341811	-0.740904
O26	O	1.953744	0.158189	-0.240904
O27	O	1.283377	-0.341843	-0.570573
O28	O	1.783377	0.158157	-0.070573
O29	O	1.582871	-0.264495	-0.740947
O30	O	2.082871	0.235505	-0.240947
O31	O	1.582613	-0.443936	-0.441492
O32	O	2.082613	0.056064	0.058508
O33	O	1.453597	-0.443901	-0.570535
O34	O	1.953597	0.056099	-0.070535
C35	C	1.245277	-0.303196	-0.506064
C36	C	1.745277	0.196804	-0.006064
C37	C	1.128501	-0.303206	-0.506083
C38	C	1.628501	0.196794	-0.006083
C39	C	1.518111	-0.466759	-0.506025
C40	C	2.018111	0.033241	-0.006025
C41	C	1.518150	-0.536727	-0.506038
C42	C	2.018150	-0.036727	-0.006038
C43	C	1.073644	-0.343516	-0.573150
C44	C	1.573644	0.156484	-0.073150
C45	C	0.963920	-0.343524	-0.573161
C46	C	1.463920	0.156476	-0.073161
C47	C	0.963919	-0.262910	-0.439031
C48	C	1.463919	0.237090	0.060969
C49	C	1.073641	-0.262899	-0.439025
C50	C	1.573641	0.237101	0.060975
C51	C	1.073644	-0.390061	-0.650586
C52	C	1.573644	0.109939	-0.150586
C53	C	0.963920	-0.390069	-0.650597
C54	C	1.463920	0.109931	-0.150597
C55	C	1.585325	-0.569524	-0.573286
C56	C	2.085325	-0.069524	-0.073286
C57	C	1.585362	-0.635267	-0.573312
C58	C	2.085362	-0.135267	-0.073312
C59	C	1.518235	-0.668210	-0.506071
C60	C	2.018235	-0.168210	-0.006071
C61	C	1.451046	-0.635405	-0.438818
C62	C	1.951046	-0.135405	0.061182
C63	C	1.451003	-0.569664	-0.438802
C64	C	1.951003	-0.069664	0.061198
N65	N	1.510296	-0.771479	-0.414125
N66	N	2.010296	-0.271479	0.085875
N67	N	1.510342	-0.833930	-0.414143
N68	N	2.010342	-0.333930	0.085857
C69	C	1.518357	-0.866284	-0.506118
C70	C	2.018357	-0.366284	-0.006118
N71	N	1.526345	-0.833828	-0.598076
N72	N	2.026345	-0.333828	-0.098076
N73	N	1.526304	-0.771371	-0.598056
N74	N	2.026304	-0.271371	-0.098056
C75	C	1.518273	-0.739495	-0.506082
C76	C	2.018273	-0.239495	-0.006082
C77	C	1.585577	-0.970367	-0.573400
C78	C	2.085577	-0.470367	-0.073400
C79	C	1.585607	-1.036111	-0.573428
C80	C	2.085607	-0.536111	-0.073428
C81	C	1.451296	-1.036248	-0.438925
C82	C	1.951296	-0.536248	0.061075
C83	C	1.451260	-0.970505	-0.438907
C84	C	1.951260	-0.470505	0.061093
C85	C	1.518407	-0.937569	-0.506143
C86	C	2.018407	-0.437569	-0.006143
C87	C	1.792278	-0.303220	-0.506094
C88	C	2.292278	0.196780	-0.006094
C89	C	1.909054	-0.303225	-0.506100
C90	C	2.409054	0.196775	-0.006100
C91	C	1.518318	-0.303144	-0.780112
C92	C	2.018318	0.196856	-0.280112
C93	C	1.518350	-0.303117	-0.896889
C94	C	2.018350	0.196883	-0.396889
C95	C	1.518408	-0.139017	-0.506155
C96	C	2.018408	0.360983	-0.006155
C97	C	1.518477	-0.069049	-0.506188
C98	C	2.018477	0.430951	-0.006188
C99	C	1.585595	-0.262855	-0.951775
C100	C	2.085595	0.237145	-0.451775
C101	C	1.585620	-0.262832	-1.061499
C102	C	2.085620	0.237168	-0.561499
C103	C	1.451151	-0.343339	-1.061441
C104	C	1.951151	0.156661	-0.561441
C105	C	1.451122	-0.343358	-0.951719
C106	C	1.951122	0.156642	-0.451719
C107	C	1.663233	-0.216376	-0.951809
C108	C	2.163233	0.283624	-0.451809
C109	C	1.663258	-0.216353	-1.061533
C110	C	2.163258	0.283647	-0.561533
C111	C	1.518232	-0.303225	-0.233111
C112	C	2.018232	0.196775	0.266889
C113	C	1.518404	-0.303075	-0.116335
C114	C	2.018404	0.196925	0.383665
H115	H	1.118301	-0.230071	-0.384420
H116	H	1.618301	0.269929	0.115580
C117	C	1.377215	-0.387606	-1.121758
C118	C	1.877215	0.112394	-0.621758
H119	H	1.386866	-0.381831	-1.194966
H120	H	1.886866	0.118169	-0.694966
H121	H	1.306629	-0.378395	-1.103777
H122	H	1.806629	0.121605	-0.603777
H123	H	1.392553	-0.429907	-1.103752
H124	H	1.892553	0.070093	-0.603752
H125	H	1.634165	-0.170033	-1.095590
H126	H	2.134165	0.329967	-0.595590
C127	C	1.377132	-0.387635	-0.891348
C128	C	1.877132	0.112365	-0.391348
H129	H	1.337103	-0.411598	-0.939720
H130	H	1.837103	0.088402	-0.439720
H131	H	1.331378	-0.363550	-0.848563
H132	H	1.831378	0.136450	-0.348563
H133	H	1.417271	-0.415080	-0.848525
H134	H	1.917271	0.084920	-0.348525
C135	C	1.633840	-0.150525	-0.911616
C136	C	2.133840	0.349475	-0.411616
H137	H	1.621762	-0.123430	-0.969544
H138	H	2.121762	0.376570	-0.469544
H139	H	1.689531	-0.134335	-0.870267
H140	H	2.189531	0.365665	-0.370267
H141	H	1.572074	-0.153186	-0.870252
H142	H	2.072074	0.346814	-0.370252
H143	H	0.919238	-0.230093	-0.384435
H144	H	1.419238	0.269907	0.115565
C145	C	1.659269	-0.671351	-0.647277
C146	C	2.159269	-0.171351	-0.147277
H147	H	1.699258	-0.642319	-0.687311
H148	H	2.199258	-0.142319	-0.187311
H149	H	1.619083	-0.697000	-0.693028
H150	H	2.119083	-0.197000	-0.193028
H151	H	1.705081	-0.696987	-0.607112
H152	H	2.205081	-0.196987	-0.107112
H153	H	1.396564	-0.943800	-0.384142
H154	H	1.896564	-0.443800	0.115858
H155	H	1.640249	-0.943549	-0.628152
H156	H	2.140249	-0.443549	-0.128152
H157	H	1.740497	-0.233853	-0.917770
H158	H	2.240497	0.266147	-0.417770
H159	H	0.929930	-0.372666	-0.727953
H160	H	1.429930	0.127334	-0.227953
C161	C	1.113928	-0.372493	-0.760554
C162	C	1.613928	0.127507	-0.260554
H163	H	1.056038	-0.365269	-0.805783
H164	H	1.556038	0.134731	-0.305783
H165	H	1.155279	-0.405874	-0.787485
H166	H	1.655279	0.094126	-0.287485
H167	H	1.155309	-0.335487	-0.756236
H168	H	1.655309	0.164513	-0.256236
H169	H	1.744623	-0.229411	-1.091309
H170	H	2.244623	0.270589	-0.591309
C171	C	1.659505	-1.072187	-0.647404
C172	C	2.159505	-0.572187	-0.147404
H173	H	1.699492	-1.043153	-0.687435
H174	H	2.199492	-0.543153	-0.187435
H175	H	1.619312	-1.097832	-0.693158
H176	H	2.119312	-0.597832	-0.193158
H177	H	1.705318	-1.097828	-0.607250
H178	H	2.205318	-0.597828	-0.107250
C179	C	0.923632	-0.455909	-0.620951
C180	C	1.423632	0.044091	-0.120951
H181	H	0.981520	-0.482979	-0.608740
H182	H	1.481520	0.017021	-0.108740
H183	H	0.882286	-0.472151	-0.676593
H184	H	1.382286	0.027849	-0.176593
H185	H	0.882246	-0.453214	-0.559213
H186	H	1.382246	0.046786	-0.059213
H187	H	1.107638	-0.436347	-0.621293
H188	H	1.607638	0.063653	-0.121293
C189	C	1.659182	-0.533297	-0.647243
C190	C	2.159182	-0.033297	-0.147243
H191	H	1.699192	-0.562250	-0.687302
H192	H	2.199192	-0.062250	-0.187302
H193	H	1.704961	-0.507647	-0.607082
H194	H	2.204961	-0.007647	-0.107082
H195	H	1.618952	-0.507651	-0.692988
H196	H	2.118952	-0.007651	-0.192988
H197	H	1.396388	-0.662231	-0.384073
H198	H	1.896388	-0.162231	0.115927
C199	C	1.377113	-0.533586	-0.364819
C200	C	1.877113	-0.033586	0.135181
H201	H	1.337141	-0.562619	-0.324771
H202	H	1.837141	-0.062619	0.175229
H203	H	1.331301	-0.507942	-0.404959
H204	H	1.831301	-0.007942	0.095041
H205	H	1.417322	-0.507944	-0.319065
H206	H	1.917322	-0.007944	0.180935
H207	H	1.396632	-1.063069	-0.384183
H208	H	1.896632	-0.563069	0.115817
