data_functionalizedCrystal
_audit_creation_method	'MofGen! by Chris Wilmer'
_symmetry_space_group_name_H-M	'P1'
_symmetry_Int_Tables_number	1
_symmetry_cell_setting	triclinic
loop_
_symmetry_equiv_pos_as_xyz
  x,y,z
_cell_length_a	19.288867
_cell_length_b	14.044190
_cell_length_c	17.766277
_cell_angle_alpha	89.989261
_cell_angle_beta	89.992126
_cell_angle_gamma	88.164423
loop_
_atom_site_label
_atom_site_type_symbol
_atom_site_fract_x
_atom_site_fract_y
_atom_site_fract_z
O1	O	0.928950	0.118224	-0.062576
O2	O	1.428950	0.618224	0.437424
O3	O	0.727715	0.134169	-0.062584
O4	O	1.227715	0.634169	0.437416
O5	O	0.825309	-0.011776	-0.062566
O6	O	1.325309	0.488224	0.437434
O7	O	0.831356	0.264168	-0.062595
O8	O	1.331356	0.764168	0.437405
O9	O	0.825290	-0.011783	0.062623
O10	O	1.325290	0.488217	0.562623
O11	O	0.727695	0.134161	0.062604
O12	O	1.227695	0.634161	0.562604
O13	O	0.928931	0.118216	0.062612
O14	O	1.428931	0.618216	0.562612
Cu15	Cu	0.828312	0.126188	0.074039
Cu16	Cu	1.328312	0.626188	0.574039
Cu17	Cu	0.828334	0.126197	-0.074011
Cu18	Cu	1.328334	0.626197	0.425989
O19	O	0.831336	0.264161	0.062594
O20	O	1.331336	0.764161	0.562594
C21	C	0.701796	0.133652	0.000009
C22	C	1.201796	0.633652	0.500009
C23	C	0.624593	0.132111	0.000006
C24	C	1.124593	0.632111	0.500006
C25	C	0.068325	0.121014	-0.068224
C26	C	0.568325	0.621014	0.431776
C27	C	0.140865	0.122457	-0.068227
C28	C	0.640865	0.622457	0.431773
C29	C	0.177130	0.123178	0.000013
C30	C	0.677130	0.623178	0.500013
C31	C	0.140849	0.122433	0.068261
C32	C	0.640849	0.622433	0.568261
C33	C	0.068311	0.120981	0.068262
C34	C	0.568311	0.620981	0.568262
C35	C	0.290164	0.180977	0.052288
C36	C	0.790164	0.680977	0.552288
C37	C	0.362701	0.182435	0.052284
C38	C	0.862701	0.682435	0.552284
C39	C	0.400863	0.127652	0.000013
C40	C	0.900863	0.627652	0.500013
C41	C	0.366479	0.071423	-0.052267
C42	C	0.866479	0.571423	0.447733
C43	C	0.293940	0.069972	-0.052266
C44	C	0.793940	0.569972	0.447734
C45	C	0.255786	0.124752	0.000020
C46	C	0.755786	0.624752	0.500020
C47	C	0.515792	0.129954	-0.068234
C48	C	1.015792	0.629954	0.431766
C49	C	0.588333	0.131391	-0.068234
C50	C	1.088333	0.631391	0.431766
C51	C	0.588316	0.131377	0.068256
C52	C	1.088316	0.631377	0.568256
C53	C	0.515776	0.129931	0.068254
C54	C	1.015776	0.629931	0.568254
C55	C	0.479518	0.129224	0.000007
C56	C	0.979518	0.629224	0.500007
C57	C	0.822655	-0.047083	0.000031
C58	C	1.322655	0.452917	0.500031
C59	C	0.814765	-0.152275	0.000037
C60	C	1.314765	0.347725	0.500037
C61	C	0.856297	-0.402738	0.000009
C62	C	1.356297	0.097262	0.500009
C63	C	0.800352	-0.344871	0.000012
C64	C	1.300352	0.155129	0.500012
C65	C	0.808373	-0.237701	0.000026
C66	C	1.308373	0.262299	0.500026
C67	C	0.848277	-0.509918	-0.000005
C68	C	1.348277	-0.009918	0.499995
C69	C	0.954850	0.118734	0.000017
C70	C	1.454850	0.618734	0.500017
C71	C	1.032053	0.120275	0.000015
C72	C	1.532053	0.620275	0.500015
C73	C	0.833991	0.299468	-0.000004
C74	C	1.333991	0.799468	0.499996
C75	C	0.841881	0.404660	-0.000016
C76	C	1.341881	0.904660	0.499984
N77	N	0.828301	0.126182	0.178169
N78	N	1.328301	0.626182	0.678169
N79	N	0.828350	0.126196	-0.178141
N80	N	1.328350	0.626196	0.321859
C81	C	0.871533	0.061589	0.217565
C82	C	1.371533	0.561589	0.717565
C83	C	0.871537	0.061585	0.296366
C84	C	1.371537	0.561585	0.796366
C85	C	0.828316	0.126189	0.335770
C86	C	1.328316	0.626189	0.835770
C87	C	0.785075	0.190787	0.296365
C88	C	1.285075	0.690787	0.796365
C89	C	0.785067	0.190783	0.217565
C90	C	1.285067	0.690783	0.717565
C91	C	0.824566	0.212532	0.460598
C92	C	1.324566	0.712532	0.960598
C93	C	0.824579	0.212537	0.539397
C94	C	1.324579	0.712537	1.039397
C95	C	0.828335	0.126200	0.578816
C96	C	1.328335	0.626200	1.078816
C97	C	0.832093	0.039855	0.539427
C98	C	1.332093	0.539855	1.039427
C99	C	0.832086	0.039851	0.460626
C100	C	1.332086	0.539851	0.960626
C101	C	0.828319	0.126200	0.421216
C102	C	1.328319	0.626200	0.921216
C103	C	0.871574	0.061598	0.703657
C104	C	1.371574	0.561598	1.203657
C105	C	0.871572	0.061592	0.782461
C106	C	1.371572	0.561592	1.282461
C107	C	0.785115	0.190802	0.782458
C108	C	1.285115	0.690802	1.282458
C109	C	0.785112	0.190800	0.703656
C110	C	1.285112	0.690800	1.203656
C111	C	0.828345	0.126198	0.664261
C112	C	1.328345	0.626198	1.164261
H113	H	0.265947	0.024187	-0.094833
H114	H	0.765947	0.524187	0.405167
H115	H	0.910212	-0.371794	0.000019
H116	H	1.410212	0.128206	0.500019
H117	H	0.906775	0.008988	0.814537
H118	H	1.406775	0.508988	1.314537
Cl119	Cl	0.186438	0.123336	0.154049
Cl120	Cl	0.686438	0.623336	0.654049
Cl121	Cl	0.022709	0.120056	0.154056
Cl122	Cl	0.522709	0.620056	0.654056
Cl123	Cl	0.717103	-0.392644	0.000008
Cl124	Cl	1.217103	0.107356	0.500008
H125	H	0.906734	0.008985	0.185491
H126	H	1.406734	0.508985	0.685491
Cl127	Cl	0.925891	-0.019624	0.345900
Cl128	Cl	1.425891	0.480376	0.845900
Cl129	Cl	0.836802	-0.068692	0.411110
Cl130	Cl	1.336802	0.431308	0.911110
H131	H	0.749883	0.243387	0.328451
H132	H	1.249883	0.743387	0.828451
Cl133	Cl	0.633934	0.132311	-0.154029
Cl134	Cl	1.133934	0.632311	0.345971
Cl135	Cl	0.925919	-0.019620	0.654130
Cl136	Cl	1.425919	0.480380	1.154130
Cl137	Cl	0.730715	0.271993	0.168036
Cl138	Cl	1.230715	0.771993	0.668036
Cl139	Cl	0.836821	-0.068691	0.588973
Cl140	Cl	1.336821	0.431309	1.088973
H141	H	0.749911	0.243401	0.671578
H142	H	1.249911	0.743401	1.171578
H143	H	0.749920	0.243401	0.814540
H144	H	1.249920	0.743401	1.314540
Cl145	Cl	0.819909	0.321083	0.411052
Cl146	Cl	1.319909	0.821083	0.911052
Cl147	Cl	0.022747	0.120118	-0.154020
Cl148	Cl	0.522747	0.620118	0.345980
Cl149	Cl	0.186474	0.123389	-0.154020
Cl150	Cl	0.686474	0.623389	0.345980
Cl151	Cl	0.242197	0.249843	0.118014
Cl152	Cl	0.742197	0.749843	0.618014
H153	H	0.486269	0.129376	-0.123805
H154	H	0.986269	0.629376	0.376195
Cl155	Cl	0.819859	0.321084	0.588908
Cl156	Cl	1.319859	0.821084	1.088908
Cl157	Cl	0.633899	0.132268	0.154044
Cl158	Cl	1.133899	0.632268	0.654044
H159	H	0.390690	0.228243	0.094837
H160	H	0.890690	0.728243	0.594837
Cl161	Cl	0.414445	0.002552	-0.117987
Cl162	Cl	0.914445	0.502552	0.382013
H163	H	0.486242	0.129332	0.123822
H164	H	0.986242	0.629332	0.623822
