data_functionalizedCrystal
_audit_creation_method	'MofGen! by Chris Wilmer'
_symmetry_space_group_name_H-M	'P1'
_symmetry_Int_Tables_number	1
_symmetry_cell_setting	triclinic
loop_
_symmetry_equiv_pos_as_xyz
  x,y,z
_cell_length_a	16.974897
_cell_length_b	14.853567
_cell_length_c	16.053789
_cell_angle_alpha	92.881114
_cell_angle_beta	96.538804
_cell_angle_gamma	83.518021
loop_
_atom_site_label
_atom_site_type_symbol
_atom_site_fract_x
_atom_site_fract_y
_atom_site_fract_z
O1	O	1.055292	0.121830	0.140651
O2	O	1.555292	0.621830	0.640651
O3	O	0.824436	0.135691	0.125070
O4	O	1.324436	0.635691	0.625070
O5	O	0.946030	-0.002465	0.133279
O6	O	1.446030	0.497535	0.633279
O7	O	0.933697	0.259986	0.132442
O8	O	1.433697	0.759986	0.632442
O9	O	0.940048	-0.009262	-0.005984
O10	O	1.440048	0.490738	0.494016
O11	O	0.818453	0.128894	-0.014193
O12	O	1.318453	0.628894	0.485807
O13	O	1.049309	0.115033	0.001388
O14	O	1.549309	0.615033	0.501388
Zn15	Zn	0.932931	0.120885	-0.028513
Zn16	Zn	1.432931	0.620885	0.471487
Zn17	Zn	0.940814	0.129840	0.154972
Zn18	Zn	1.440814	0.629840	0.654972
O19	O	0.927715	0.253189	-0.006821
O20	O	1.427715	0.753189	0.493179
C21	C	0.791901	0.131637	0.053445
C22	C	1.291901	0.631637	0.553445
C23	C	0.703868	0.129672	0.047503
C24	C	1.203868	0.629672	0.547503
C25	C	0.665764	0.132456	0.120618
C26	C	1.165764	0.632456	0.620618
C27	C	0.583046	0.130623	0.115023
C28	C	1.083046	0.630623	0.615023
C29	C	0.538435	0.126001	0.036313
C30	C	1.038435	0.626001	0.536313
C31	C	0.576544	0.123220	-0.036807
C32	C	1.076544	0.623220	0.463193
C33	C	0.659260	0.125059	-0.031212
C34	C	1.159260	0.625059	0.468788
C35	C	0.290702	0.120110	0.011438
C36	C	0.790702	0.620110	0.511438
C37	C	0.207981	0.118269	0.005848
C38	C	0.707981	0.618269	0.505848
C39	C	0.214489	0.125674	0.157679
C40	C	0.714489	0.625674	0.657679
C41	C	0.297206	0.127507	0.163268
C42	C	0.797206	0.627507	0.663268
C43	C	0.335308	0.124731	0.090147
C44	C	0.835308	0.624731	0.590147
N45	N	0.453884	0.124125	0.030592
N46	N	0.953884	0.624125	0.530592
N47	N	0.419856	0.126613	0.095869
N48	N	0.919856	0.626613	0.595869
C49	C	0.942480	-0.039452	0.063613
C50	C	1.442480	0.460548	0.563613
C51	C	0.940806	-0.139537	0.063507
C52	C	1.440806	0.360463	0.563507
C53	C	0.861497	-0.552126	0.058138
C54	C	1.361497	-0.052126	0.558138
C55	C	1.005954	-0.573307	0.067888
C56	C	1.505954	-0.073307	0.567888
C57	C	1.007529	-0.479272	0.067999
C58	C	1.507529	0.020728	0.567999
C59	C	0.936086	-0.421660	0.063179
C60	C	1.436086	0.078340	0.563179
C61	C	0.863070	-0.458082	0.058247
C62	C	1.363070	0.041918	0.558247
C63	C	1.080544	-0.442843	0.072923
C64	C	1.580544	0.057157	0.572923
C65	C	1.082122	-0.348802	0.073033
C66	C	1.582122	0.151198	0.573033
C67	C	1.010679	-0.291188	0.068218
C68	C	1.510679	0.208812	0.568218
C69	C	0.937659	-0.327616	0.063287
C70	C	1.437659	0.172384	0.563287
C71	C	0.866217	-0.270003	0.058466
C72	C	1.366217	0.229997	0.558466
C73	C	0.793196	-0.306429	0.053541
C74	C	1.293196	0.193571	0.553541
C75	C	0.791627	-0.400468	0.053432
C76	C	1.291627	0.099532	0.553432
C77	C	1.012248	-0.197149	0.068328
C78	C	1.512248	0.302851	0.568328
C79	C	0.867789	-0.175959	0.058575
C80	C	1.367789	0.324041	0.558575
C81	C	1.081845	0.119087	0.073016
C82	C	1.581845	0.619087	0.573016
C83	C	1.169877	0.121052	0.078962
C84	C	1.669877	0.621052	0.578962
C85	C	0.931265	0.290177	0.062848
C86	C	1.431265	0.790177	0.562848
C87	C	0.932939	0.390261	0.062959
C88	C	1.432939	0.890261	0.562959
N89	N	0.927558	0.114772	-0.153737
N90	N	1.427558	0.614772	0.346263
C91	C	0.973830	0.167449	-0.194305
C92	C	1.473830	0.667449	0.305695
C93	C	0.970082	0.163168	-0.281965
C94	C	1.470082	0.663168	0.218035
C95	C	0.920056	0.106214	-0.329055
C96	C	1.420056	0.606214	0.170945
C97	C	0.873783	0.053531	-0.288481
C98	C	1.373783	0.553531	0.211519
C99	C	0.877536	0.057808	-0.200822
C100	C	1.377536	0.557808	0.299178
C101	C	0.903673	0.087539	-0.591571
C102	C	1.403673	0.587539	-0.091571
C103	C	0.899922	0.083268	-0.679236
C104	C	1.399922	0.583268	-0.179236
C105	C	0.996222	0.192904	-0.672714
C106	C	1.496222	0.692904	-0.172714
C107	C	0.999967	0.197180	-0.585054
C108	C	1.499967	0.697180	-0.085054
C109	C	0.953696	0.144494	-0.544487
C110	C	1.453696	0.644494	-0.044487
N111	N	0.916222	0.101838	-0.418658
N112	N	1.416222	0.601838	0.081342
N113	N	0.957536	0.148865	-0.454886
N114	N	1.457536	0.648865	0.045114
N115	N	0.946194	0.135945	0.280195
N116	N	1.446194	0.635945	0.780195
H117	H	0.690283	0.122796	-0.090750
H118	H	1.190283	0.622796	0.409250
O119	O	0.528371	0.118790	-0.121708
O120	O	1.028371	0.618790	0.378292
H121	H	0.464430	0.118172	-0.113318
H122	H	0.964430	0.618172	0.386682
O123	O	1.160875	-0.309513	0.078365
O124	O	1.660875	0.190487	0.578365
H125	H	1.210288	-0.365374	0.081708
H126	H	1.710288	0.134626	0.581708
O127	O	0.790732	-0.113820	0.053368
O128	O	1.290732	0.386180	0.553368
H129	H	0.739698	-0.154951	0.049917
H130	H	1.239698	0.345049	0.549917
O131	O	1.027781	0.228882	-0.143515
O132	O	1.527781	0.728882	0.356485
H133	H	1.090419	0.208618	-0.156046
H134	H	1.590419	0.708618	0.343954
H135	H	1.071700	-0.167495	0.072332
H136	H	1.571700	0.332505	0.572332
H137	H	0.702081	0.136217	0.184713
H138	H	1.202081	0.636217	0.684713
H139	H	0.732177	-0.430135	0.049421
H140	H	1.232177	0.069865	0.549421
H141	H	0.735028	-0.259509	0.049610
H142	H	1.235028	0.240491	0.549610
O143	O	0.331802	0.117116	-0.067418
O144	O	0.831802	0.617116	0.432582
H145	H	0.362325	0.179179	-0.068965
H146	H	0.862325	0.679179	0.431035
O147	O	1.053926	0.258609	-0.534270
O148	O	1.553926	0.758609	-0.034270
H149	H	1.048756	0.252740	-0.466500
H150	H	1.548756	0.752740	0.033500
O151	O	1.083008	-0.635439	0.073079
O152	O	1.583008	-0.135439	0.573079
H153	H	1.069647	-0.706950	0.072176
H154	H	1.569647	-0.206950	0.572176
H155	H	1.007763	0.206061	-0.314991
H156	H	1.507763	0.706061	0.185009
O157	O	0.541951	0.133576	0.193882
O158	O	1.041951	0.633576	0.693882
H159	H	0.586871	0.137071	0.249554
H160	H	1.086871	0.637071	0.749554
O161	O	0.845963	0.021833	-0.730025
O162	O	1.345963	0.521833	-0.230025
H163	H	0.851121	0.027722	-0.797795
H164	H	1.351121	0.527722	-0.297795
O165	O	0.827625	0.000999	-0.157059
O166	O	1.327625	0.500999	0.342941
H167	H	0.792202	-0.039316	-0.204530
H168	H	1.292202	0.460684	0.295470
H169	H	0.865996	0.044638	-0.558552
H170	H	1.365996	0.544638	-0.058552
O171	O	1.046142	0.249711	-0.716465
O172	O	1.546142	0.749711	-0.216465
H173	H	1.035138	0.237162	-0.785330
H174	H	1.535138	0.737162	-0.285330
H175	H	0.802046	-0.581789	0.054131
H176	H	1.302046	-0.081789	0.554131
O177	O	0.819827	-0.007905	-0.339260
O178	O	1.319827	0.492095	0.160740
H179	H	0.775537	0.033245	-0.382071
H180	H	1.275537	0.533245	0.117929
O181	O	0.345323	0.132497	0.248162
O182	O	0.845323	0.632497	0.748162
H183	H	0.304929	0.134132	0.298065
H184	H	0.804929	0.634132	0.798065
H185	H	0.183457	0.127937	0.217209
H186	H	0.683457	0.627937	0.717209
H187	H	1.138708	-0.489757	0.076840
H188	H	1.638708	0.010243	0.576840
O189	O	0.159858	0.113292	-0.079051
O190	O	0.659858	0.613292	0.420949
H191	H	0.200247	0.111680	-0.128957
H192	H	0.700247	0.611680	0.371043
