data_functionalizedCrystal
_audit_creation_method	'MofGen! by Chris Wilmer'
_symmetry_space_group_name_H-M	'P1'
_symmetry_Int_Tables_number	1
_symmetry_cell_setting	triclinic
loop_
_symmetry_equiv_pos_as_xyz
  x,y,z
_cell_length_a	16.959455
_cell_length_b	16.959453
_cell_length_c	19.805399
_cell_angle_alpha	89.973285
_cell_angle_beta	89.976446
_cell_angle_gamma	90.017008
loop_
_atom_site_label
_atom_site_type_symbol
_atom_site_fract_x
_atom_site_fract_y
_atom_site_fract_z
Zn1	Zn	1.208409	-0.314763	-0.382796
Zn2	Zn	1.208324	-0.446945	-0.269609
Zn3	Zn	1.076230	-0.314778	-0.269612
Zn4	Zn	1.076202	-0.446896	-0.382748
O5	O	1.142292	-0.380845	-0.326191
O6	O	1.319009	-0.332311	-0.367800
O7	O	1.190778	-0.429439	-0.174893
O8	O	1.093811	-0.204165	-0.284648
O9	O	1.318947	-0.429425	-0.284642
O10	O	1.190922	-0.204154	-0.367803
O11	O	1.093729	-0.332337	-0.174895
O12	O	0.965616	-0.332289	-0.284601
O13	O	1.093764	-0.429342	-0.477471
O14	O	0.965595	-0.429356	-0.367722
O15	O	1.190895	-0.332264	-0.477506
O16	O	1.190751	-0.557549	-0.284596
O17	O	1.093682	-0.557514	-0.367719
C18	C	0.936925	-0.380820	-0.326157
C19	C	0.849069	-0.380828	-0.326159
C20	C	0.477550	-0.431363	-0.282869
C21	C	0.477636	-0.330394	-0.369596
C22	C	0.560182	-0.330381	-0.369579
C23	C	0.601416	-0.380860	-0.326208
C24	C	0.560104	-0.431353	-0.282853
C25	C	0.601500	-0.279895	-0.412939
C26	C	0.684051	-0.279881	-0.412924
C27	C	0.725287	-0.330357	-0.369549
C28	C	0.683969	-0.380850	-0.326191
C29	C	0.725203	-0.431330	-0.282820
C30	C	0.683887	-0.481820	-0.239458
C31	C	0.601339	-0.481829	-0.239477
C32	C	0.807835	-0.330348	-0.369530
C33	C	0.807757	-0.431320	-0.282803
C34	C	1.142226	-0.586212	-0.326166
C35	C	1.142270	-0.674068	-0.326178
C36	C	1.192922	-1.045480	-0.369572
C37	C	1.091882	-1.045608	-0.282911
C38	C	1.091852	-0.963062	-0.282896
C39	C	1.142358	-0.921721	-0.326220
C40	C	1.192893	-0.962926	-0.369559
C41	C	1.041313	-0.921851	-0.239562
C42	C	1.041281	-0.839300	-0.239545
C43	C	1.091791	-0.797958	-0.282866
C44	C	1.142328	-0.839168	-0.326207
C45	C	1.192834	-0.797827	-0.369531
C46	C	1.243376	-0.839035	-0.412869
C47	C	1.243403	-0.921584	-0.412880
C48	C	1.091764	-0.715409	-0.282854
C49	C	1.192805	-0.715273	-0.369518
C50	C	1.348460	-0.380872	-0.326226
C51	C	1.436316	-0.380883	-0.326241
C52	C	1.142336	-0.380796	-0.502734
C53	C	1.142355	-0.380774	-0.577966
C54	C	1.142379	-0.174677	-0.326231
C55	C	1.142417	-0.086821	-0.326248
C56	C	1.192932	-0.330223	-0.613330
C57	C	1.192940	-0.330200	-0.684018
C58	C	1.142374	-0.380733	-0.719342
C59	C	1.091791	-0.431286	-0.683973
C60	C	1.091780	-0.431305	-0.613286
C61	C	1.091836	-0.431213	-0.969047
C62	C	1.091853	-0.431192	-1.039739
C63	C	1.192997	-0.330108	-1.039779
C64	C	1.192985	-0.330127	-0.969091
C65	C	1.142399	-0.380677	-0.933729
C66	C	1.142390	-0.380700	-0.857081
C67	C	1.142387	-0.380714	-0.795989
C68	C	1.142293	-0.380838	-0.150335
C69	C	1.142427	-0.380636	-0.075104
H70	H	0.567922	-0.238803	-0.448254
F71	F	1.246833	-0.276305	-1.077419
H72	H	1.050657	-0.472385	-0.940263
H73	H	1.284494	-0.805366	-0.448147
H74	H	1.234112	-0.289076	-0.584574
F75	F	1.246799	-0.276424	-0.721651
F76	F	0.557363	-0.535560	-0.193334
H77	H	1.233935	-0.681618	-0.404795
H78	H	0.443907	-0.472468	-0.247563
H79	H	1.050672	-0.472343	-1.068497
H80	H	1.050759	-1.079273	-0.247642
H81	H	1.050617	-0.472428	-0.712739
F82	F	1.037946	-0.485106	-0.575650
F83	F	1.246807	-0.276346	-0.931501
H84	H	1.284551	-0.955143	-0.448164
H85	H	1.234074	-1.079035	-0.404855
F86	F	0.728015	-0.226145	-0.459072
F87	F	0.727781	-0.535547	-0.193305
F88	F	0.851634	-0.485044	-0.236637
H89	H	1.000128	-0.805753	-0.204257
F90	F	1.037976	-0.671556	-0.236736
F91	F	0.433750	-0.276681	-0.415759
H92	H	1.000192	-0.955517	-0.204292
F93	F	0.851802	-0.276621	-0.415678
