data_functionalizedCrystal
_audit_creation_method	'MofGen! by Chris Wilmer'
_symmetry_space_group_name_H-M	'P1'
_symmetry_Int_Tables_number	1
_symmetry_cell_setting	triclinic
loop_
_symmetry_equiv_pos_as_xyz
  x,y,z
_cell_length_a	11.792241
_cell_length_b	22.010155
_cell_length_c	11.792241
_cell_angle_alpha	89.995433
_cell_angle_beta	95.806584
_cell_angle_gamma	90.011508
loop_
_atom_site_label
_atom_site_type_symbol
_atom_site_fract_x
_atom_site_fract_y
_atom_site_fract_z
O1	O	1.506927	0.050466	-0.155565
O2	O	2.006927	0.550466	0.344435
O3	O	1.176586	0.050481	-0.171598
O4	O	1.676586	0.550481	0.328402
O5	O	1.349773	0.050469	0.001589
O6	O	1.849773	0.550469	0.501589
O7	O	1.333740	0.050478	-0.328752
O8	O	1.833740	0.550478	0.171248
O9	O	1.349721	-0.050581	0.001589
O10	O	1.849721	0.449419	0.501589
O11	O	1.176534	-0.050570	-0.171598
O12	O	1.676534	0.449430	0.328402
O13	O	1.506875	-0.050584	-0.155565
O14	O	2.006875	0.449416	0.344435
Cu15	Cu	1.341700	-0.059804	-0.163581
Cu16	Cu	1.841700	0.440196	0.336419
Cu17	Cu	1.341762	0.059700	-0.163582
Cu18	Cu	1.841762	0.559700	0.336418
O19	O	1.333688	-0.050572	-0.328752
O20	O	1.833688	0.449428	0.171248
C21	C	1.134269	-0.000043	-0.170591
C22	C	1.634269	0.499957	0.329409
C23	C	1.008255	-0.000038	-0.167576
C24	C	1.508255	0.499962	0.332424
N25	N	1.341664	-0.143856	-0.163580
N26	N	1.841664	0.356144	0.336420
C27	C	0.777543	-0.000055	-0.162034
C28	C	1.277543	0.499945	0.337966
C29	C	0.905928	-0.000045	-0.165113
C30	C	1.405928	0.499955	0.334887
C31	C	1.411023	-0.563637	-0.232873
C32	C	1.911023	-0.063637	0.267127
C33	C	1.411037	-0.627244	-0.232870
C34	C	1.911037	-0.127244	0.267130
O35	O	1.469968	-0.660137	-0.291778
O36	O	1.969968	-0.160137	0.208222
N37	N	1.341784	-0.659063	-0.163569
N38	N	1.841784	-0.159063	0.336431
C39	C	1.272522	-0.627271	-0.094257
C40	C	1.772522	-0.127271	0.405743
O41	O	1.213619	-0.660176	-0.035310
O42	O	1.713619	-0.160176	0.464690
C43	C	1.272515	-0.563665	-0.094255
C44	C	1.772515	-0.063665	0.405745
C45	C	1.341764	-0.531849	-0.163569
C46	C	1.841764	-0.031849	0.336431
C47	C	1.480268	-0.531821	-0.302181
C48	C	1.980268	-0.031821	0.197819
C49	C	1.480252	-0.468218	-0.302185
C50	C	1.980252	0.031782	0.197815
C51	C	1.410993	-0.436430	-0.232881
C52	C	1.910993	0.063570	0.267119
C53	C	1.341749	-0.468246	-0.163573
C54	C	1.841749	0.031754	0.336427
C55	C	1.203260	-0.531874	-0.024938
C56	C	1.703260	-0.031874	0.475062
C57	C	1.203260	-0.468263	-0.024941
C58	C	1.703260	0.031737	0.475059
C59	C	1.272509	-0.436448	-0.094255
C60	C	1.772509	0.063552	0.405745
C61	C	1.272474	-0.372855	-0.094274
C62	C	1.772474	0.127145	0.405726
N63	N	1.341727	-0.341036	-0.163575
N64	N	1.841727	0.158964	0.336425
C65	C	1.410986	-0.372824	-0.232878
C66	C	1.910986	0.127176	0.267122
C67	C	1.272542	-0.760849	-0.094267
C68	C	1.772542	-0.260849	0.405733
C69	C	1.272542	-0.824454	-0.094274
C70	C	1.772542	-0.324454	0.405726
C71	C	1.411059	-0.824423	-0.232886
C72	C	1.911059	-0.324423	0.267114
C73	C	1.411052	-0.760816	-0.232883
C74	C	1.911052	-0.260816	0.267117
C75	C	1.341795	-0.729030	-0.163568
C76	C	1.841795	-0.229030	0.336432
C77	C	1.410949	-0.239252	-0.232882
C78	C	1.910949	0.260748	0.267118
C79	C	1.410924	-0.175644	-0.232884
C80	C	1.910924	0.324356	0.267116
C81	C	1.272412	-0.175680	-0.094268
C82	C	1.772412	0.324320	0.405732
C83	C	1.272432	-0.239284	-0.094271
C84	C	1.772432	0.260716	0.405729
C85	C	1.341709	-0.271068	-0.163581
C86	C	1.841709	0.228932	0.336419
O87	O	1.213577	-0.339922	-0.035393
O88	O	1.713577	0.160078	0.464607
O89	O	1.469891	-0.339911	-0.291805
O90	O	1.969891	0.160089	0.208195
C91	C	1.549192	-0.000059	-0.156572
C92	C	2.049192	0.499941	0.343428
C93	C	1.675206	-0.000061	-0.159587
C94	C	2.175206	0.499939	0.340413
C95	C	1.348740	-0.000056	0.043880
C96	C	1.848740	0.499944	0.543880
C97	C	1.345726	-0.000055	0.169894
C98	C	1.845726	0.499945	0.669894
N99	N	1.341806	0.143753	-0.163574
N100	N	1.841806	0.643753	0.336426
C101	C	1.334721	-0.000046	-0.371043
C102	C	1.834721	0.499954	0.128957
C103	C	1.337736	-0.000043	-0.497057
C104	C	1.837736	0.499957	0.002943
C105	C	1.340183	-0.000045	0.400606
C106	C	1.840183	0.499955	0.900606
C107	C	1.343262	-0.000051	0.272221
C108	C	1.843262	0.499949	0.772221
H109	H	1.467314	-0.149742	-0.289333
H110	H	1.967314	0.350258	0.210667
O111	O	1.485658	-0.273530	-0.307645
O112	O	1.985658	0.226470	0.192355
H113	H	1.533790	-0.240713	-0.355842
H114	H	2.033790	0.259287	0.144158
H115	H	1.146862	-0.442386	0.031506
H116	H	1.646862	0.057614	0.531506
O117	O	1.554947	-0.433905	-0.376940
O118	O	2.054947	0.066095	0.123060
H119	H	1.603110	-0.466704	-0.425117
H120	H	2.103110	0.033296	0.074883
O121	O	1.197838	-0.726581	-0.019479
O122	O	1.697838	-0.226581	0.480521
H123	H	1.251883	-0.697610	0.041173
H124	H	1.751883	-0.197610	0.541173
O125	O	1.485750	-0.726507	-0.307640
O126	O	1.985750	-0.226507	0.192360
H127	H	1.431710	-0.697536	-0.368283
H128	H	1.931710	-0.197536	0.131717
O129	O	1.197788	-0.141390	-0.019443
O130	O	1.697788	0.358610	0.480557
H131	H	1.209456	-0.091817	-0.031060
H132	H	1.709456	0.408183	0.468940
H133	H	1.536673	-0.557696	-0.358616
H134	H	2.036673	-0.057696	0.141384
H135	H	1.146871	-0.557767	0.031507
H136	H	1.646871	-0.057767	0.531507
O137	O	1.197742	-0.273606	-0.019517
O138	O	1.697742	0.226394	0.480483
H139	H	1.149583	-0.240813	0.028677
H140	H	1.649583	0.259187	0.528677
H141	H	1.467452	-0.850316	-0.289318
H142	H	1.967452	-0.350316	0.210682
O143	O	1.197874	-0.858768	-0.019494
O144	O	1.697874	-0.358768	0.480506
H145	H	1.149732	-0.825972	0.028709
H146	H	1.649732	-0.325972	0.528709
