data_functionalizedCrystal
_audit_creation_method	'MofGen! by Chris Wilmer'
_symmetry_space_group_name_H-M	'P1'
_symmetry_Int_Tables_number	1
_symmetry_cell_setting	triclinic
loop_
_symmetry_equiv_pos_as_xyz
  x,y,z
_cell_length_a	12.759401
_cell_length_b	18.215405
_cell_length_c	12.759393
_cell_angle_alpha	89.963505
_cell_angle_beta	89.980324
_cell_angle_gamma	90.025312
loop_
_atom_site_label
_atom_site_type_symbol
_atom_site_fract_x
_atom_site_fract_y
_atom_site_fract_z
Zn1	Zn	1.606192	-0.292940	-0.593941
Zn2	Zn	2.106192	0.207060	-0.093941
Zn3	Zn	1.606052	-0.416024	-0.418243
Zn4	Zn	2.106052	0.083976	0.081757
Zn5	Zn	1.430491	-0.292977	-0.418280
Zn6	Zn	1.930491	0.207023	0.081720
Zn7	Zn	1.430451	-0.415971	-0.593884
Zn8	Zn	1.930451	0.084029	-0.093884
O9	O	1.518296	-0.354478	-0.506087
O10	O	2.018296	0.145522	-0.006087
O11	O	1.753194	-0.309275	-0.570642
O12	O	2.253194	0.190725	-0.070642
O13	O	1.582721	-0.399740	-0.271226
O14	O	2.082721	0.100260	0.228774
O15	O	1.453873	-0.189988	-0.441621
O16	O	1.953873	0.310012	0.058379
O17	O	1.753091	-0.399704	-0.441558
O18	O	2.253091	0.100296	0.058442
O19	O	1.582960	-0.189961	-0.570679
O20	O	2.082960	0.310039	-0.070679
O21	O	1.453737	-0.309337	-0.271254
O22	O	1.953737	0.190663	0.228746
O23	O	1.283464	-0.309285	-0.441566
O24	O	1.783464	0.190715	0.058434
O25	O	1.453806	-0.399612	-0.740912
O26	O	1.953806	0.100388	-0.240912
O27	O	1.283436	-0.399648	-0.570581
O28	O	1.783436	0.100352	-0.070581
O29	O	1.582922	-0.309223	-0.740954
O30	O	2.082922	0.190777	-0.240954
O31	O	1.582683	-0.519002	-0.441502
O32	O	2.082683	-0.019002	0.058498
O33	O	1.453670	-0.518962	-0.570545
O34	O	1.953670	-0.018962	-0.070545
C35	C	1.245329	-0.354465	-0.506072
C36	C	1.745329	0.145535	-0.006072
C37	C	1.128552	-0.354478	-0.506091
C38	C	1.628552	0.145522	-0.006091
C39	C	1.073745	-0.307476	-0.573409
C40	C	1.573745	0.192524	-0.073409
C41	C	0.964021	-0.307484	-0.573416
C42	C	1.464021	0.192516	-0.073416
C43	C	0.963922	-0.401501	-0.438783
C44	C	1.463922	0.098499	0.061217
C45	C	1.073644	-0.401489	-0.438772
C46	C	1.573644	0.098511	0.061228
C47	C	1.518186	-0.545684	-0.506036
C48	C	2.018186	-0.045684	-0.006036
C49	C	1.518234	-0.627483	-0.506050
C50	C	2.018234	-0.127483	-0.006050
C51	C	1.585569	-0.815673	-0.438981
C52	C	2.085569	-0.315673	0.061019
C53	C	1.585616	-0.892532	-0.439006
C54	C	2.085616	-0.392532	0.060994
C55	C	1.451158	-0.892531	-0.573268
C56	C	1.951158	-0.392531	-0.073268
C57	C	1.451118	-0.815674	-0.573247
C58	C	1.951118	-0.315674	-0.073247
C59	C	1.518321	-0.777247	-0.506098
C60	C	2.018321	-0.277247	-0.006098
C61	C	1.518409	-0.930963	-0.506144
C62	C	2.018409	-0.430963	-0.006144
C63	C	1.518460	-1.014296	-0.506172
C64	C	2.018460	-0.514296	-0.006172
C65	C	1.518272	-0.693908	-0.506071
C66	C	2.018272	-0.193908	-0.006071
C67	C	1.792330	-0.354491	-0.506102
C68	C	2.292330	0.145509	-0.006102
C69	C	1.909106	-0.354497	-0.506109
C70	C	2.409106	0.145503	-0.006109
C71	C	1.518375	-0.354407	-0.780120
C72	C	2.018375	0.145593	-0.280120
C73	C	1.518409	-0.354377	-0.896897
C74	C	2.018409	0.145623	-0.396897
C75	C	1.518436	-0.162525	-0.506161
C76	C	2.018436	0.337475	-0.006161
C77	C	1.518496	-0.080726	-0.506192
C78	C	2.018496	0.419274	-0.006192
C79	C	1.585644	-0.307304	-0.951783
C80	C	2.085644	0.192696	-0.451783
C81	C	1.585662	-0.307272	-1.061507
C82	C	2.085662	0.192728	-0.561507
C83	C	1.451206	-0.401394	-1.061450
C84	C	1.951206	0.098606	-0.561450
C85	C	1.451183	-0.401421	-0.951728
C86	C	1.951183	0.098579	-0.451728
C87	C	1.518279	-0.354495	-0.233119
C88	C	2.018279	0.145505	0.266881
C89	C	1.518449	-0.354318	-0.116343
C90	C	2.018449	0.145682	0.383657
H91	H	0.919202	-0.439776	-0.383976
H92	H	1.419202	0.060224	0.116024
C93	C	1.133937	-0.453195	-0.364722
C94	C	1.633937	0.046805	0.135278
H95	H	1.085522	-0.481203	-0.324642
H96	H	1.585522	0.018797	0.175358
H97	H	1.176732	-0.425001	-0.319017
H98	H	1.676732	0.074999	0.180983
H99	H	1.176742	-0.485291	-0.404833
H100	H	1.676742	0.014709	0.095167
H101	H	1.396476	-0.439697	-1.106107
H102	H	1.896476	0.060303	-0.606107
H103	H	1.640292	-0.784388	-0.384305
H104	H	2.140292	-0.284388	0.115695
H105	H	1.640377	-0.923816	-0.384355
H106	H	2.140377	-0.423816	0.115645
H107	H	1.396425	-0.439753	-0.907039
H108	H	1.896425	0.060247	-0.407039
H109	H	1.118448	-0.269195	-0.628220
H110	H	1.618448	0.230805	-0.128220
H111	H	0.919401	-0.269209	-0.628231
H112	H	1.419401	0.230791	-0.128231
H113	H	1.396442	-0.923827	-0.627938
H114	H	1.896442	-0.423827	-0.127938
H115	H	1.396356	-0.784384	-0.627907
H116	H	1.896356	-0.284384	-0.127907
C117	C	1.659575	-0.255549	-0.891472
C118	C	2.159575	0.244451	-0.391472
H119	H	1.699612	-0.227504	-0.939879
H120	H	2.199612	0.272496	-0.439879
H121	H	1.705325	-0.283708	-0.848661
H122	H	2.205325	0.216292	-0.348661
H123	H	1.619389	-0.223490	-0.848681
H124	H	2.119389	0.276510	-0.348681
H125	H	1.640410	-0.268939	-1.106190
H126	H	2.140410	0.231061	-0.606190
