data_functionalizedCrystal
_audit_creation_method	'MofGen! by Chris Wilmer'
_symmetry_space_group_name_H-M	'P1'
_symmetry_Int_Tables_number	1
_symmetry_cell_setting	triclinic
loop_
_symmetry_equiv_pos_as_xyz
  x,y,z
_cell_length_a	15.944551
_cell_length_b	13.339070
_cell_length_c	11.804365
_cell_angle_alpha	105.124870
_cell_angle_beta	101.830656
_cell_angle_gamma	80.435984
loop_
_atom_site_label
_atom_site_type_symbol
_atom_site_fract_x
_atom_site_fract_y
_atom_site_fract_z
O1	O	0.408901	-1.362759	-0.099080
O2	O	0.908901	-0.862759	0.400920
O3	O	0.353629	-1.068226	-0.099072
O4	O	0.853629	-0.568226	0.400928
O5	O	0.260866	-1.223533	-0.099066
O6	O	0.760866	-0.723533	0.400934
O7	O	0.501664	-1.207452	-0.099087
O8	O	1.001664	-0.707452	0.400913
O9	O	0.285253	-1.182647	0.098989
O10	O	0.785253	-0.682647	0.598989
O11	O	0.378016	-1.027340	0.098982
O12	O	0.878016	-0.527340	0.598982
O13	O	0.433288	-1.321872	0.098974
O14	O	0.933288	-0.821872	0.598974
Cu15	Cu	0.407879	-1.170873	0.117062
Cu16	Cu	0.907879	-0.670873	0.617062
Cu17	Cu	0.379038	-1.219226	-0.117160
Cu18	Cu	0.879038	-0.719226	0.382840
O19	O	0.526051	-1.166565	0.098968
O20	O	1.026051	-0.666565	0.598968
C21	C	0.356486	-1.010093	-0.000044
C22	C	0.856486	-0.510093	0.499956
C23	C	0.328657	-0.897788	-0.000040
C24	C	0.828657	-0.397788	0.499960
C25	C	0.241610	-1.202422	-0.000038
C26	C	0.741610	-0.702422	0.499962
C27	C	0.147897	-1.200420	-0.000038
C28	C	0.647897	-0.700420	0.499962
C29	C	0.430430	-1.380006	-0.000057
C30	C	0.930430	-0.880006	0.499943
C31	C	0.458259	-1.492312	-0.000068
C32	C	0.958259	-0.992312	0.499932
C33	C	-0.090508	-1.099370	-0.000051
C34	C	0.409492	-0.599370	0.499949
C35	C	-0.128567	-1.126136	0.097600
C36	C	0.371433	-0.626136	0.597600
C37	C	-0.023674	-1.196800	-0.000047
C38	C	0.476326	-0.696800	0.499953
C39	C	-0.152588	-1.166470	-0.097666
C40	C	0.347412	-0.666470	0.402334
C41	C	-0.189405	-1.193297	-0.000060
C42	C	0.310595	-0.693297	0.499940
C43	C	-0.060489	-1.223576	0.097685
C44	C	0.439511	-0.723576	0.597685
C45	C	-0.084518	-1.263915	-0.097668
C46	C	0.415482	-0.763915	0.402332
C47	C	-0.122540	-1.290747	0.000007
C48	C	0.377460	-0.790747	0.500007
C49	C	0.071799	-1.198815	-0.000038
C50	C	0.571799	-0.698815	0.499962
C51	C	-0.284874	-1.191288	-0.000061
C52	C	0.215126	-0.691288	0.499939
C53	C	0.545307	-1.187677	-0.000062
C54	C	1.045307	-0.687677	0.499938
C55	C	0.639019	-1.189681	-0.000071
C56	C	1.139019	-0.689681	0.499929
N57	N	0.428165	-1.136871	0.281801
N58	N	0.928165	-0.636871	0.781801
C59	C	0.545045	-0.533018	-0.000078
C60	C	1.045045	-0.033018	0.499922
C61	C	0.571194	-0.638534	-0.000085
C62	C	1.071194	-0.138534	0.499915
C63	C	0.510562	-0.703352	-0.000073
C64	C	1.010562	-0.203352	0.499927
C65	C	0.423776	-0.662645	-0.000055
C66	C	0.923776	-0.162645	0.499945
C67	C	0.397622	-0.557121	-0.000058
C68	C	0.897622	-0.057121	0.499942
C69	C	0.363140	-0.727455	-0.000053
C70	C	0.863140	-0.227455	0.499947
C71	C	0.276354	-0.686748	-0.000035
C72	C	0.776354	-0.186748	0.499965
C73	C	0.250205	-0.581234	-0.000037
C74	C	0.750205	-0.081234	0.499963
C75	C	0.310837	-0.516415	-0.000048
C76	C	0.810837	-0.016415	0.499952
C77	C	0.389293	-0.832980	-0.000051
C78	C	0.889293	-0.332980	0.499949
C79	C	0.241871	-0.857083	-0.000031
C80	C	0.741871	-0.357083	0.499969
C81	C	0.215721	-0.751567	-0.000024
C82	C	0.715721	-0.251567	0.499976
N83	N	0.358748	-1.253235	-0.281899
N84	N	0.858748	-0.753235	0.218101
C85	C	0.310017	-1.334885	0.655758
C86	C	0.810017	-0.834885	1.155758
C87	C	0.294667	-1.360606	0.531097
C88	C	0.794667	-0.860606	1.031097
C89	C	0.328040	-1.304674	0.468767
C90	C	0.828040	-0.804674	0.968767
C91	C	0.376766	-1.223018	0.531110
C92	C	0.876766	-0.723018	1.031110
C93	C	0.392123	-1.197300	0.655783
C94	C	0.892123	-0.697300	1.155783
C95	C	0.410146	-1.167089	0.468792
C96	C	0.910146	-0.667089	0.968792
C97	C	0.458872	-1.085432	0.531135
C98	C	0.958872	-0.585432	1.031135
C99	C	0.474226	-1.059718	0.655795
C100	C	0.974226	-0.559718	1.155795
C101	C	0.440854	-1.115650	0.718126
C102	C	0.940854	-0.615650	1.218126
C103	C	0.394789	-1.192807	0.344119
C104	C	0.894789	-0.692807	0.844119
C105	C	0.476895	-1.055221	0.344144
C106	C	0.976895	-0.555221	0.844144
C107	C	0.492245	-1.029500	0.468805
C108	C	0.992245	-0.529500	0.968805
H109	H	-0.076032	-1.018477	0.000049
H110	H	0.423968	-0.518477	0.500049
H111	H	0.531858	-0.789268	-0.000082
H112	H	1.031858	-0.289268	0.499918
H113	H	0.282855	-1.380423	0.706515
H114	H	0.782855	-0.880423	1.206515
H115	H	-0.148112	-1.067883	0.180159
H116	H	0.351888	-0.567883	0.680159
H117	H	-0.020727	-1.247689	0.180333
H118	H	0.479273	-0.747689	0.680333
H119	H	0.315540	-1.325620	0.367263
H120	H	0.815540	-0.825620	0.867263
H121	H	0.254996	-1.427091	0.480342
H122	H	0.754996	-0.927091	0.980342
H123	H	0.145057	-0.718410	-0.000019
H124	H	0.645057	-0.218410	0.499981
H125	H	0.453348	-1.094705	0.819635
H126	H	0.953348	-0.594705	1.319635
H127	H	0.513910	-0.993236	0.706555
H128	H	1.013910	-0.493236	1.206555
H129	H	-0.136831	-1.371679	0.000060
H130	H	0.363169	-0.871679	0.500060
H131	H	0.641854	-0.671672	-0.000109
H132	H	1.141854	-0.171672	0.499891
H133	H	0.289550	-0.430494	-0.000042
H134	H	0.789550	0.069506	0.499958
H135	H	0.179536	-0.548096	-0.000035
H136	H	0.679536	-0.048096	0.499965
H137	H	0.192498	-0.909859	-0.000026
H138	H	0.692498	-0.409859	0.499974
H139	H	0.355116	-1.259292	0.293371
H140	H	0.855116	-0.759292	0.793371
H141	H	-0.064960	-1.322133	-0.180231
H142	H	0.435040	-0.822133	0.319769
H143	H	0.531919	-0.963014	0.519580
H144	H	1.031919	-0.463014	1.019580
H145	H	0.594401	-0.480236	-0.000097
H146	H	1.094401	0.019764	0.499903
H147	H	0.504072	-1.009678	0.293396
H148	H	1.004072	-0.509678	0.793396
H149	H	-0.192437	-1.142292	-0.180228
H150	H	0.307563	-0.642292	0.319772
H151	H	0.459956	-0.866112	-0.000061
H152	H	0.959956	-0.366112	0.499939
