data_functionalizedCrystal
_audit_creation_method	'MofGen! by Chris Wilmer'
_symmetry_space_group_name_H-M	'P1'
_symmetry_Int_Tables_number	1
_symmetry_cell_setting	triclinic
loop_
_symmetry_equiv_pos_as_xyz
  x,y,z
_cell_length_a	13.897449
_cell_length_b	18.215405
_cell_length_c	18.215399
_cell_angle_alpha	89.969449
_cell_angle_beta	90.018532
_cell_angle_gamma	89.973835
loop_
_atom_site_label
_atom_site_type_symbol
_atom_site_fract_x
_atom_site_fract_y
_atom_site_fract_z
Zn1	Zn	1.474633	0.292967	0.416077
Zn2	Zn	1.474513	0.416038	0.293005
Zn3	Zn	1.313329	0.292993	0.293027
Zn4	Zn	1.313284	0.415999	0.416033
O5	O	1.393940	0.354499	0.354536
O6	O	1.609599	0.309298	0.399761
O7	O	1.453100	0.399743	0.190024
O8	O	1.334795	0.190005	0.309378
O9	O	1.609511	0.399718	0.309340
O10	O	1.453305	0.189986	0.399782
O11	O	1.334679	0.309342	0.190040
O12	O	1.178341	0.309304	0.309335
O13	O	1.334719	0.399651	0.519023
O14	O	1.178308	0.399676	0.399707
O15	O	1.453262	0.309260	0.519055
O16	O	1.453057	0.519017	0.309297
O17	O	1.334602	0.518988	0.399685
C18	C	1.143326	0.354489	0.354519
C19	C	1.036112	0.354503	0.354529
C20	C	1.393838	0.545705	0.354500
C21	C	1.393883	0.627504	0.354510
C22	C	1.393999	0.354448	0.546489
C23	C	1.394024	0.354427	0.628288
C24	C	0.839817	0.354505	0.354548
C25	C	0.949049	0.354502	0.354536
C26	C	1.645533	0.354509	0.354553
C27	C	1.752747	0.354514	0.354560
C28	C	1.394068	0.162546	0.354587
C29	C	1.394123	0.080747	0.354609
C30	C	1.455707	0.815689	0.307531
C31	C	1.455750	0.892547	0.307549
C32	C	1.332296	0.892557	0.401593
C33	C	1.332259	0.815700	0.401578
C34	C	1.393963	0.777268	0.354543
C35	C	1.394043	0.930984	0.354576
C36	C	1.394090	1.014317	0.354595
C37	C	1.393918	0.693929	0.354524
C38	C	1.393937	0.354496	0.163329
C39	C	1.394099	0.354311	0.081531
C40	C	1.455771	0.307316	0.816500
C41	C	1.455783	0.307295	0.893358
C42	C	1.332345	0.401424	0.893313
C43	C	1.332329	0.401441	0.816456
C44	C	1.394048	0.354388	0.778051
C45	C	1.394075	0.354349	0.931767
C46	C	1.394087	0.354326	1.015101
C47	C	1.394035	0.354410	0.694712
H48	H	1.505951	0.784399	0.269234
C49	C	1.202462	0.729333	0.411695
C50	C	1.264386	0.773459	0.453257
H51	H	1.160570	0.703253	0.443601
H52	H	1.165604	0.759362	0.379620
H53	H	1.239220	0.695450	0.383687
H54	H	1.227628	0.807347	0.481262
H55	H	1.301247	0.743428	0.485345
H56	H	1.506030	0.923826	0.269268
C57	C	1.577775	0.214265	0.824267
C58	C	1.523601	0.255589	0.774284
H59	H	1.619645	0.182326	0.798205
H60	H	1.614659	0.246322	0.854236
H61	H	1.535759	0.186112	0.854249
H62	H	1.565618	0.283746	0.744305
H63	H	1.486715	0.223528	0.744302
C64	C	1.285226	0.916168	0.526181
C65	C	1.264471	0.934807	0.453288
H66	H	1.243354	0.942255	0.558094
H67	H	1.276363	0.864903	0.532897
H68	H	1.350036	0.928719	0.536990
H69	H	1.199662	0.922251	0.442477
H70	H	1.273326	0.986084	0.446568
C71	C	1.469260	0.208274	0.979809
C72	C	1.523630	0.255548	0.935618
H73	H	1.511148	0.176322	1.005893
H74	H	1.432522	0.236292	1.013682
H75	H	1.427247	0.180137	0.949817
H76	H	1.565638	0.283688	0.965610
H77	H	1.560384	0.227526	0.901741
H78	H	1.282097	0.439734	0.924592
C79	C	1.210321	0.494493	0.824125
C80	C	1.264481	0.453190	0.774187
H81	H	1.168441	0.526440	0.798029
H82	H	1.173449	0.462424	0.854106
H83	H	1.252346	0.522636	0.854101
H84	H	1.222456	0.425042	0.744215
H85	H	1.301356	0.485263	0.744194
