data_functionalizedCrystal
_audit_creation_method	'MofGen! by Chris Wilmer'
_symmetry_space_group_name_H-M	'P1'
_symmetry_Int_Tables_number	1
_symmetry_cell_setting	triclinic
loop_
_symmetry_equiv_pos_as_xyz
  x,y,z
_cell_length_a	14.853558
_cell_length_b	14.853567
_cell_length_c	9.198806
_cell_angle_alpha	90.000611
_cell_angle_beta	89.996582
_cell_angle_gamma	83.633032
loop_
_atom_site_label
_atom_site_type_symbol
_atom_site_fract_x
_atom_site_fract_y
_atom_site_fract_z
O1	O	1.196369	0.117662	-0.120862
O2	O	0.933909	0.131692	-0.120867
O3	O	1.072150	-0.006553	-0.120869
O4	O	1.058128	0.255907	-0.120860
O5	O	1.072139	-0.006553	0.120916
O6	O	0.933898	0.131692	0.120918
O7	O	1.196358	0.117662	0.120923
Cu8	Cu	1.065127	0.124677	0.142997
Cu9	Cu	1.065140	0.124677	-0.142942
O10	O	1.058117	0.255907	0.120925
C11	C	0.900314	0.131058	0.000024
C12	C	0.800230	0.129158	0.000022
C13	C	0.753216	0.128266	-0.131781
C14	C	0.753203	0.128255	0.131822
C15	C	0.659169	0.126465	0.131825
C16	C	0.612155	0.125574	0.000022
C17	C	0.659174	0.126473	-0.131783
C18	C	0.612144	0.125556	0.263627
C19	C	0.518104	0.123765	0.263635
C20	C	0.471088	0.122880	0.131831
C21	C	0.518113	0.123781	0.000021
C22	C	0.471098	0.122889	-0.131782
C23	C	0.518121	0.123796	-0.263594
C24	C	0.612157	0.125588	-0.263587
C25	C	0.377051	0.121088	0.131824
C26	C	0.377056	0.121096	-0.131784
C27	C	1.071509	-0.040141	0.000019
C28	C	1.069605	-0.140225	0.000007
C29	C	0.979439	-0.552756	0.000032
C30	C	1.143673	-0.574042	0.000036
C31	C	1.145463	-0.480009	0.000027
C32	C	1.064240	-0.422344	0.000023
C33	C	0.981227	-0.458713	0.000028
C34	C	1.228474	-0.443632	0.000037
C35	C	1.230268	-0.349593	0.000030
C36	C	1.149044	-0.291927	0.000016
C37	C	1.066027	-0.328301	0.000019
C38	C	0.984805	-0.270637	0.000016
C39	C	0.901787	-0.307009	0.000008
C40	C	0.900003	-0.401047	0.000014
C41	C	1.150828	-0.197890	0.000010
C42	C	0.986592	-0.176594	0.000011
C43	C	1.229953	0.118296	0.000028
C44	C	1.330037	0.120197	0.000021
C45	C	1.058758	0.289496	0.000033
C46	C	1.060662	0.389580	0.000036
N47	N	1.065125	0.124676	0.344111
N48	N	1.065150	0.124671	-0.344056
C49	C	1.123170	0.066377	0.416307
C50	C	1.123184	0.066374	0.583720
H51	H	0.338769	0.120358	0.239143
O52	O	0.662886	0.126552	-0.405735
H53	H	0.636896	0.187612	-0.468936
H54	H	1.172852	0.016463	0.354181
O55	O	0.467418	0.122828	-0.405759
H56	H	0.416612	0.183409	-0.412063
H57	H	1.172882	0.016465	0.645805
O58	O	0.999323	0.190799	0.426409
H59	H	1.011086	0.261059	0.397267
H60	H	0.911848	-0.582375	0.000021
H61	H	0.791506	0.129009	-0.239099
H62	H	0.338783	0.120376	-0.239115
O63	O	0.999315	0.190796	0.573736
H64	H	0.928958	0.179400	0.602904
O65	O	1.231276	-0.636230	0.000054
H66	H	1.216086	-0.707731	0.000056
H67	H	0.920449	-0.129649	0.000002
H68	H	0.791488	0.128974	0.239130
O69	O	0.662846	0.126522	0.405781
H70	H	0.736133	0.127935	0.383634
H71	H	0.835656	-0.260047	0.000016
H72	H	1.294601	-0.490589	0.000054
O73	O	0.467386	0.122801	0.405793
H74	H	0.515877	0.123729	0.497441
H75	H	0.832414	-0.430670	0.000010
H76	H	1.297865	-0.319987	0.000034
O77	O	1.240355	-0.158654	0.000009
H78	H	1.296534	-0.214550	0.000006
