data_functionalizedCrystal
_audit_creation_method	'MofGen! by Chris Wilmer'
_symmetry_space_group_name_H-M	'P1'
_symmetry_Int_Tables_number	1
_symmetry_cell_setting	triclinic
loop_
_symmetry_equiv_pos_as_xyz
  x,y,z
_cell_length_a	13.033293
_cell_length_b	13.032868
_cell_length_c	13.034296
_cell_angle_alpha	89.135208
_cell_angle_beta	76.645775
_cell_angle_gamma	74.808508
loop_
_atom_site_label
_atom_site_type_symbol
_atom_site_fract_x
_atom_site_fract_y
_atom_site_fract_z
Zn1	Zn	1.689338	0.097706	-0.818224
Zn2	Zn	1.644043	0.297934	-0.663120
Zn3	Zn	1.483375	0.148594	-0.623742
Zn4	Zn	1.489069	0.297835	-0.818092
O5	O	1.576456	0.210517	-0.730794
O6	O	1.834382	0.103012	-0.814185
O7	O	1.601390	0.299462	-0.511648
O8	O	1.527270	-0.004410	-0.633116
O9	O	1.801104	0.250119	-0.700230
O10	O	1.678590	-0.041797	-0.776001
O11	O	1.483349	0.189743	-0.482717
O12	O	1.333078	0.189646	-0.632987
O13	O	1.536975	0.249949	-0.964357
O14	O	1.337261	0.299293	-0.775775
O15	O	1.684111	0.102916	-0.964455
O16	O	1.606912	0.444175	-0.700102
O17	O	1.493054	0.444102	-0.813959
C18	C	1.296003	0.249982	-0.700094
C19	C	1.176025	0.266886	-0.686989
C20	C	1.139004	0.201721	-0.737637
C21	C	1.015000	0.219191	-0.724093
C22	C	1.545718	0.482053	-0.761315
C23	C	1.532672	0.598198	-0.774418
C24	C	1.583255	0.649966	-0.723979
C25	C	1.569773	0.770008	-0.737520
C26	C	1.858004	0.170900	-0.761615
C27	C	1.977983	0.154017	-0.774749
C28	C	1.607310	0.937921	-0.700165
C29	C	1.620363	0.821773	-0.687074
C30	C	1.616231	0.170745	-1.003387
C31	C	1.633180	0.153796	-1.119549
C32	C	1.567937	0.218989	-1.171290
C33	C	1.585453	0.201474	-1.291350
C34	C	1.536907	0.250051	-0.459261
C35	C	1.520200	0.266676	-0.343088
H36	H	0.954895	0.287917	-0.670697
H37	H	1.499115	0.287774	-1.126704
H38	H	1.702008	0.085018	-1.164137
H39	H	1.199111	0.132995	-0.791023
H40	H	1.636548	0.605417	-0.670775
H41	H	1.451373	0.335466	-1.298508
H42	H	1.516486	0.814553	-0.790736
H43	H	1.115917	0.335607	-0.633597
H44	H	1.654286	0.132690	-1.335934
H45	H	1.038087	0.085284	-0.828137
H46	H	1.479389	0.642748	-0.827630
H47	H	1.673659	0.777227	-0.633867
