data_functionalizedCrystal
_audit_creation_method	'MofGen! by Chris Wilmer'
_symmetry_space_group_name_H-M	'P1'
_symmetry_Int_Tables_number	1
_symmetry_cell_setting	triclinic
loop_
_symmetry_equiv_pos_as_xyz
  x,y,z
_cell_length_a	12.645331
_cell_length_b	12.759400
_cell_length_c	12.759393
_cell_angle_alpha	89.968436
_cell_angle_beta	90.021878
_cell_angle_gamma	89.986337
loop_
_atom_site_label
_atom_site_type_symbol
_atom_site_fract_x
_atom_site_fract_y
_atom_site_fract_z
Zn1	Zn	1.620745	0.418233	0.594076
Zn2	Zn	1.620639	0.593952	0.418396
Zn3	Zn	1.443462	0.418284	0.418405
Zn4	Zn	1.443451	0.593867	0.594027
O5	O	1.532074	0.506084	0.506226
O6	O	1.769078	0.441556	0.570789
O7	O	1.597096	0.570706	0.271376
O8	O	1.467028	0.271256	0.441732
O9	O	1.769000	0.570656	0.441717
O10	O	1.597277	0.271219	0.570797
O11	O	1.466925	0.441644	0.271383
O12	O	1.295113	0.441562	0.441685
O13	O	1.467009	0.570512	0.741055
O14	O	1.295105	0.570562	0.570714
O15	O	1.597266	0.441474	0.741091
O16	O	1.597085	0.740962	0.441670
O17	O	1.466906	0.740900	0.570705
C18	C	1.532011	0.779051	0.506204
C19	C	1.532081	0.895828	0.506230
C20	C	1.256644	0.506059	0.506196
C21	C	1.138814	0.506074	0.506208
C22	C	1.532148	0.505978	0.780260
C23	C	1.532180	0.505933	0.897036
C24	C	0.971220	0.424546	0.425484
C25	C	1.093780	0.424757	0.425128
C26	C	1.094300	0.616752	0.475963
C27	C	0.971702	0.616307	0.475412
C28	C	0.971662	0.477976	0.617489
C29	C	1.094268	0.475504	0.616871
C30	C	1.808579	0.506110	0.506257
C31	C	1.926409	0.506121	0.506271
C32	C	1.532166	0.232051	0.506271
C33	C	1.532205	0.115274	0.506290
C34	C	1.599941	0.950687	0.439116
C35	C	1.600006	1.060412	0.439148
C36	C	1.464343	1.060407	0.573412
C37	C	1.464284	0.950685	0.573384
C38	C	1.667738	0.895831	0.371961
C39	C	1.735602	0.950690	0.304841
C40	C	1.735667	1.060414	0.304873
C41	C	1.667868	1.115279	0.372026
C42	C	1.532061	0.506114	0.233259
C43	C	1.532235	0.505863	0.116483
C44	C	1.600014	0.438737	0.951919
C45	C	1.600040	0.438699	1.061643
C46	C	1.464393	0.573062	1.061593
C47	C	1.464363	0.573094	0.951871
C48	C	1.667831	0.371575	0.897085
C49	C	1.735672	0.304374	0.951967
C50	C	1.735697	0.304336	1.061691
C51	C	1.667881	0.371499	1.116533
H52	H	1.123876	0.342685	0.444085
O53	O	1.801689	0.239024	1.114843
C54	C	1.861515	0.179737	1.042912
H55	H	1.865147	0.222798	0.964690
H56	H	1.822723	0.099942	1.031255
C57	C	1.969896	0.111711	1.181826
C58	C	1.974366	0.164603	1.085754
H59	H	2.039507	0.102371	1.208253
H60	H	1.929589	0.151651	1.230288
H61	H	1.937566	0.045221	1.172098
H62	H	2.006683	0.231097	1.095485
H63	H	2.014681	0.124674	1.037294
O64	O	1.130922	0.645537	0.379972
C65	C	1.196819	0.565908	0.339950
H66	H	1.176262	0.488193	0.379061
H67	H	1.282984	0.586158	0.356710
C68	C	1.205422	0.652005	0.172720
C69	C	1.180168	0.556551	0.220751
H70	H	1.195157	0.646235	0.099192
H71	H	1.161030	0.705655	0.199684
H72	H	1.277225	0.668869	0.186697
H73	H	1.108364	0.539696	0.206784
H74	H	1.224549	0.502898	0.193782
H75	H	1.667895	0.371451	1.205878
O76	O	1.398448	1.113537	0.638734
C77	C	1.338520	1.041587	0.697948
H78	H	1.381896	0.963336	0.701608
H79	H	1.258022	1.030010	0.659398
C80	C	1.269927	1.180443	0.805265
C81	C	1.323207	1.084337	0.809768
H82	H	1.260477	1.206814	0.874240
H83	H	1.310299	1.228918	0.765370
H84	H	1.202851	1.170782	0.773136
H85	H	1.390286	1.094001	0.841885
H86	H	1.282846	1.035864	0.849672
H87	H	1.409110	0.627795	0.907184
O88	O	1.398519	0.897336	0.638687
C89	C	1.458813	0.833750	0.706558
H90	H	1.542317	0.866756	0.713130
H91	H	1.462446	0.750620	0.674049
C92	C	1.304408	0.791462	0.807660
C93	C	1.406966	0.832006	0.815739
H94	H	1.272425	0.790382	0.875007
H95	H	1.263785	0.834298	0.761932
H96	H	1.307449	0.722191	0.780565
H97	H	1.403923	0.901280	0.842820
H98	H	1.447588	0.789181	0.861474
O99	O	1.801503	0.239228	0.898537
C100	C	1.786918	0.253648	0.789924
H101	H	1.752171	0.334730	0.774913
H102	H	1.730475	0.191336	0.758795
C103	C	1.936844	0.144456	0.752044
C104	C	1.894176	0.244047	0.733607
H105	H	2.003004	0.138529	0.717303
H106	H	1.946669	0.134737	0.825218
H107	H	1.889798	0.092541	0.726103
H108	H	1.941215	0.295959	0.759560
H109	H	1.884361	0.253774	0.660436
H110	H	1.123367	0.394057	0.639677
O111	O	1.398630	0.638274	1.115025
C112	C	1.413186	0.623820	1.223637
H113	H	1.495012	0.589412	1.238638
H114	H	1.350333	0.567859	1.254786
C115	C	1.302958	0.772367	1.261517
C116	C	1.403462	0.730114	1.279942
H117	H	1.296955	0.837932	1.296250
H118	H	1.293147	0.782103	1.188344
H119	H	1.250591	0.725723	1.287475
H120	H	1.455826	0.776752	1.253973
H121	H	1.413282	0.720388	1.353113
O122	O	1.668128	1.221865	0.372068
C123	C	1.769728	1.258417	0.399180
H124	H	1.830763	1.195153	0.381266
H125	H	1.771938	1.277807	0.486363
C126	C	1.720312	1.435313	0.357229
C127	C	1.795278	1.357614	0.335218
H128	H	1.736072	1.496505	0.317778
H129	H	1.651861	1.410688	0.338966
H130	H	1.722161	1.451458	0.429882
H131	H	1.793418	1.341461	0.262568
H132	H	1.863730	1.382238	0.353466
H133	H	0.940374	0.442943	0.343551
O134	O	0.936195	0.326264	0.447724
C135	C	0.977714	0.255091	0.373933
H136	H	1.052757	0.289130	0.338006
H137	H	0.916869	0.240754	0.309567
C138	C	0.911721	0.108924	0.472931
C139	C	1.003895	0.150728	0.428812
H140	H	0.927867	0.044546	0.506781
H141	H	0.883745	0.156874	0.522645
H142	H	0.861025	0.096985	0.419285
H143	H	1.054584	0.162678	0.482460
H144	H	1.031881	0.102778	0.379109
H145	H	0.943059	0.640173	0.394106
O146	O	1.130781	0.541084	0.692664
C147	C	1.088863	0.510821	0.790483
H148	H	1.065180	0.424672	0.787528
H149	H	1.016397	0.560645	0.808996
C150	C	1.202043	0.632643	0.879945
C151	C	1.172964	0.526831	0.876319
H152	H	1.253917	0.642523	0.932894
H153	H	1.230281	0.653035	0.814042
H154	H	1.141647	0.674151	0.895369
H155	H	1.233356	0.485327	0.860882
H156	H	1.144737	0.506432	0.942221
O157	O	1.128776	0.446774	0.326787
C158	C	1.190664	0.362677	0.289725
H159	H	1.168410	0.288067	0.333673
H160	H	1.277925	0.380658	0.303173
C161	C	1.197785	0.438947	0.117728
C162	C	1.170446	0.347308	0.171700
H163	H	1.185319	0.429469	0.044924
H164	H	1.156094	0.495608	0.142698
H165	H	1.270502	0.453922	0.128946
H166	H	1.097728	0.332342	0.160492
H167	H	1.212125	0.290644	0.146725
O168	O	0.936961	0.548915	0.689179
C169	C	0.872147	0.623676	0.639138
H170	H	0.838622	0.588835	0.563885
H171	H	0.920958	0.696189	0.619535
C172	C	0.821873	0.697249	0.805040
C173	C	0.780690	0.654452	0.712617
H174	H	0.765461	0.716237	0.850366
H175	H	0.865543	0.646883	0.838754
H176	H	0.862549	0.757670	0.788690
H177	H	0.740027	0.594025	0.728967
H178	H	0.737011	0.704809	0.678907
H179	H	1.667820	0.371601	0.807742
H180	H	1.123472	0.679156	0.532957
O181	O	0.936211	0.691338	0.542406
C182	C	0.874451	0.764668	0.486763
H183	H	0.842567	0.726729	0.412313
H184	H	0.925267	0.835228	0.465142
C185	C	0.820576	0.847300	0.647195
C186	C	0.781408	0.800700	0.555759
H187	H	0.763185	0.869531	0.689756
H188	H	0.862187	0.797899	0.684684
H189	H	0.862922	0.906094	0.629165
H190	H	0.739074	0.741900	0.573790
H191	H	0.739786	0.850092	0.518275
H192	H	0.940761	0.398678	0.644994
O193	O	1.801361	0.897238	0.239648
C194	C	1.786773	0.788630	0.254026
H195	H	1.704935	0.773680	0.288357
H196	H	1.849606	0.757394	0.310022
C197	C	1.897026	0.750741	0.105550
C198	C	1.796507	0.732379	0.147708
H199	H	1.903035	0.716041	0.039969
H200	H	1.906858	0.823912	0.095864
H201	H	1.949375	0.724711	0.152222
H202	H	1.744161	0.758421	0.101041
H203	H	1.786667	0.659211	0.157383
H204	H	1.790933	1.105078	0.250228
H205	H	1.667690	0.806488	0.371924
