data_functionalizedCrystal
_audit_creation_method	'MofGen! by Chris Wilmer'
_symmetry_space_group_name_H-M	'P1'
_symmetry_Int_Tables_number	1
_symmetry_cell_setting	triclinic
loop_
_symmetry_equiv_pos_as_xyz
  x,y,z
_cell_length_a	8.559649
_cell_length_b	15.995350
_cell_length_c	7.088929
_cell_angle_alpha	83.778427
_cell_angle_beta	95.325015
_cell_angle_gamma	76.635520
loop_
_atom_site_label
_atom_site_type_symbol
_atom_site_fract_x
_atom_site_fract_y
_atom_site_fract_z
O1	O	2.103728	-0.018745	-0.158958
O2	O	1.638524	0.024497	-0.158965
O3	O	1.883843	-0.119829	-0.158960
O4	O	1.858409	0.125582	-0.158964
O5	O	1.916627	-0.139156	0.159016
O6	O	1.671308	0.005171	0.159011
O7	O	2.136513	-0.038072	0.159018
Cu8	Cu	1.906904	-0.018215	0.188048
Cu9	Cu	1.868132	0.004641	-0.187995
O10	O	1.891194	0.106255	0.159012
C11	C	1.595386	0.018111	0.000022
C12	C	1.418005	0.027866	0.000019
C13	C	1.899183	-0.160619	0.000025
C14	C	1.896030	-0.253367	0.000014
C15	C	1.884710	-0.590386	0.000020
C16	C	1.709925	-0.531674	-0.000696
C17	C	1.713152	-0.435230	0.000021
C18	C	1.890325	-0.423187	0.000016
C19	C	1.995220	-0.480842	0.181594
C20	C	1.990847	-0.577205	0.181746
C21	C	1.957174	-0.555817	-0.179852
C22	C	1.956885	-0.458723	-0.182252
C23	C	1.893508	-0.328694	0.000020
C24	C	1.881533	-0.684880	0.000029
C25	C	2.179650	-0.031685	0.000027
C26	C	2.357029	-0.041439	0.000017
C27	C	1.875853	0.147046	0.000024
C28	C	1.879005	0.239793	0.000022
N29	N	1.934185	-0.034292	0.452537
N30	N	1.840864	0.020710	-0.452484
H31	H	1.334498	0.094668	0.000007
H32	H	1.440525	-0.108235	0.000009
C33	C	1.710193	0.097711	0.437213
N34	N	1.611767	0.155709	0.354119
C35	C	2.129912	-0.448301	-0.197063
N36	N	2.260248	-0.440456	-0.208201
H37	H	2.030920	-0.091290	0.534195
H38	H	1.631993	-0.394541	-0.130141
H39	H	1.626669	-0.537801	-0.130908
H40	H	1.653755	-0.554668	0.128790
C41	C	2.172000	-0.473606	0.190743
N42	N	2.305148	-0.468148	0.197638
C43	C	1.639192	-0.402366	0.176167
N44	N	1.583484	-0.377613	0.308850
C45	C	1.924842	-0.607615	0.365106
N46	N	1.875119	-0.630514	0.503215
C47	C	2.131020	-0.609818	-0.181515
N48	N	2.261955	-0.650497	-0.182755
C49	C	2.165280	-0.632593	0.192900
N50	N	2.296662	-0.674308	0.201315
C51	C	1.933177	-0.448403	0.364148
N52	N	1.886435	-0.423971	0.501645
H53	H	1.885862	-0.564318	-0.317478
H54	H	1.880031	-0.419258	-0.316578
