data_functionalizedCrystal
_audit_creation_method	'MofGen! by Chris Wilmer'
_symmetry_space_group_name_H-M	'P1'
_symmetry_Int_Tables_number	1
_symmetry_cell_setting	triclinic
loop_
_symmetry_equiv_pos_as_xyz
  x,y,z
_cell_length_a	21.395364
_cell_length_b	12.645330
_cell_length_c	12.645331
_cell_angle_alpha	90.012816
_cell_angle_beta	90.009812
_cell_angle_gamma	90.027597
loop_
_atom_site_label
_atom_site_type_symbol
_atom_site_fract_x
_atom_site_fract_y
_atom_site_fract_z
Zn1	Zn	0.957847	-0.421757	0.599425
Zn2	Zn	1.457847	0.078243	1.099425
Zn3	Zn	0.957809	-0.599001	0.422159
Zn4	Zn	1.457809	-0.099001	0.922159
Zn5	Zn	0.853089	-0.421798	0.422170
Zn6	Zn	1.353089	0.078202	0.922170
Zn7	Zn	0.853064	-0.599025	0.599374
Zn8	Zn	1.353064	-0.099025	1.099374
O9	O	0.905452	-0.510395	0.510782
O10	O	1.405452	-0.010395	1.010782
O11	O	1.045520	-0.445241	0.575927
O12	O	1.545520	0.054759	1.075927
O13	O	0.943912	-0.575501	0.273813
O14	O	1.443912	-0.075501	0.773813
O15	O	0.867011	-0.273445	0.445709
O16	O	1.367011	0.226555	0.945709
O17	O	1.045492	-0.575461	0.445690
O18	O	1.545492	-0.075461	0.945690
O19	O	0.943976	-0.273415	0.575938
O20	O	1.443976	0.226585	1.075938
O21	O	0.866975	-0.445311	0.273821
O22	O	1.366975	0.054689	0.773821
O23	O	0.765407	-0.445335	0.445660
O24	O	1.265407	0.054665	0.945660
O25	O	0.866969	-0.575502	0.747728
O26	O	1.366969	-0.075502	1.247728
O27	O	0.765389	-0.575542	0.575851
O28	O	1.265389	-0.075542	1.075851
O29	O	0.943952	-0.445264	0.747765
O30	O	1.443952	0.054736	1.247765
O31	O	0.943888	-0.747351	0.445641
O32	O	1.443888	-0.247351	0.945641
O33	O	0.866932	-0.747369	0.575840
O34	O	1.366932	-0.247369	1.075840
C35	C	0.742664	-0.510446	0.510752
C36	C	1.242664	-0.010446	1.010752
C37	C	0.673023	-0.510494	0.510765
C38	C	1.173023	-0.010494	1.010765
C39	C	0.640347	-0.442799	0.578684
C40	C	1.140347	0.057201	1.078684
C41	C	0.574911	-0.442771	0.578688
C42	C	1.074911	0.057229	1.078688
C43	C	0.542155	-0.510457	0.510784
C44	C	1.042155	-0.010457	1.010784
C45	C	0.574839	-0.578156	0.442852
C46	C	1.074839	-0.078156	0.942852
C47	C	0.640273	-0.578175	0.442842
C48	C	1.140273	-0.078175	0.942842
C49	C	0.438450	-0.605924	0.502267
C50	C	0.938450	-0.105924	1.002267
C51	C	0.373017	-0.605908	0.502284
C52	C	0.873017	-0.105908	1.002284
C53	C	0.340334	-0.510398	0.510808
C54	C	0.840334	-0.010398	1.010808
C55	C	0.373093	-0.414903	0.519336
C56	C	0.873093	0.085097	1.019336
C57	C	0.438527	-0.414922	0.519326
C58	C	0.938527	0.085078	1.019326
C59	C	0.471202	-0.510443	0.510786
C60	C	0.971202	-0.010443	1.010786
C61	C	0.236705	-0.442667	0.578735
C62	C	0.736705	0.057333	1.078735
C63	C	0.171269	-0.442637	0.578731
C64	C	0.671269	0.057363	1.078731
C65	C	0.171198	-0.578032	0.442901
C66	C	0.671198	-0.078032	0.942901
C67	C	0.236633	-0.578052	0.442898
C68	C	0.736633	-0.078052	0.942898
C69	C	0.269383	-0.510371	0.510821
C70	C	0.769383	-0.010371	1.010821
C71	C	0.905421	-0.785825	0.510757
C72	C	1.405421	-0.285825	1.010757
C73	C	0.905465	-0.903655	0.510782
C74	C	1.405465	-0.403655	1.010782
C75	C	0.953800	-1.071163	0.428707
C76	C	1.453800	-0.571163	0.928707
C77	C	0.953957	-0.948603	0.428908
C78	C	1.453957	-0.448603	0.928908
C79	C	0.923358	-0.948057	0.622526
C80	C	1.423358	-0.448057	1.122526
C81	C	0.923742	-1.070654	0.622091
C82	C	1.423742	-0.570654	1.122091
C83	C	0.839217	-1.071004	0.482213
C84	C	1.339217	-0.571004	0.982213
C85	C	0.839534	-0.948399	0.479707
C86	C	1.339534	-0.448399	0.979707
C87	C	1.068875	-0.510344	0.510812
C88	C	1.568875	-0.010344	1.010812
C89	C	1.138517	-0.510322	0.510825
C90	C	1.638517	-0.010322	1.010825
C91	C	0.905462	-0.510381	0.787287
C92	C	1.405462	-0.010381	1.287287
C93	C	0.905466	-0.510376	0.905117
C94	C	1.405466	-0.010376	1.405117
C95	C	0.905501	-0.233890	0.510830
C96	C	1.405501	0.266110	1.010830
C97	C	0.905521	-0.116060	0.510851
C98	C	1.405521	0.383940	1.010851
C99	C	0.954063	-0.428742	1.072705
C100	C	1.454063	0.071258	1.572705
C101	C	0.953923	-0.428402	0.950145
C102	C	1.453923	0.071598	1.450145
C103	C	0.839451	-0.480063	0.949597
C104	C	1.339451	0.019937	1.449597
C105	C	0.839730	-0.479488	1.072195
C106	C	1.339730	0.020512	1.572195
C107	C	0.922299	-0.622581	1.072311
C108	C	1.422299	-0.122581	1.572311
C109	C	0.923759	-0.621971	0.949705
C110	C	1.423759	-0.121971	1.449705
C111	C	0.905445	-0.510424	1.235352
C112	C	1.405445	-0.010424	1.735352
C113	C	0.905461	-0.510407	1.117522
C114	C	1.405461	-0.010407	1.617522
H115	H	0.346484	-0.337130	0.526276
H116	H	0.846484	0.162870	1.026276
H117	H	0.822942	-1.102001	0.402148
H118	H	1.322942	-0.602001	0.902148
H119	H	0.886903	-0.683429	1.101301
H120	H	1.386903	-0.183429	1.601301
H121	H	0.824927	-0.398958	0.918905
H122	H	1.324927	0.101042	1.418905
H123	H	0.465054	-0.683705	0.495326
H124	H	0.965054	-0.183705	0.995326
Br125	Br	1.003224	-0.896720	0.663638
Br126	Br	1.503224	-0.396720	1.163638
H127	H	0.972207	-1.099152	0.646349
H128	H	1.472207	-0.599152	1.146349
Br129	Br	0.328565	-0.735508	0.490733
Br130	Br	0.828565	-0.235508	0.990733
H131	H	0.890117	-1.100352	0.685403
H132	H	1.390117	-0.600352	1.185403
Br133	Br	0.817040	-0.900041	0.342646
Br134	Br	1.317040	-0.400041	0.842646
H135	H	0.667008	-0.387687	0.633991
H136	H	1.167008	0.112313	1.133991
Br137	Br	0.866528	-0.899550	0.727273
Br138	Br	1.366528	-0.399550	1.227273
H139	H	0.803245	-1.100043	0.542042
H140	H	1.303245	-0.600043	1.042042
H141	H	0.548301	-0.387641	0.633994
H142	H	1.048301	0.112359	1.133994
H143	H	0.890942	-0.686066	0.919051
H144	H	1.390942	-0.186066	1.419051
Br145	Br	1.004734	-0.660072	0.901264
Br146	Br	1.504734	-0.160072	1.401264
H147	H	0.263238	-0.633181	0.387596
H148	H	0.763238	-0.133181	0.887596
Br149	Br	0.482983	-0.285329	0.530896
Br150	Br	0.982983	0.214671	1.030896
H151	H	0.263372	-0.387551	0.634035
H152	H	0.763372	0.112449	1.134035
H153	H	1.002874	-0.447381	0.920073
H154	H	1.502874	0.052619	1.420073
H155	H	0.801624	-0.917815	0.535150
H156	H	1.301624	-0.417815	1.035150
Br157	Br	0.530386	-0.670008	0.350687
Br158	Br	1.030386	-0.170008	0.850687
H159	H	0.802286	-0.536383	1.101841
H160	H	1.302286	-0.036383	1.601841
H161	H	0.144665	-0.387506	0.634038
H162	H	0.644665	0.112494	1.134038
Br163	Br	0.126750	-0.669881	0.350732
Br164	Br	0.626750	-0.169881	0.850732
H165	H	1.003168	-0.447504	1.102197
H166	H	1.503168	0.052496	1.602197
H167	H	0.943057	-0.346103	1.103531
H168	H	1.443057	0.153897	1.603531
H169	H	0.802262	-0.537696	0.920428
H170	H	1.302262	-0.037696	1.420428
Br171	Br	0.935356	-0.289862	0.901283
Br172	Br	1.435356	0.210138	1.401283
H173	H	0.942763	-0.918584	0.346051
H174	H	1.442763	-0.418584	0.846051
H175	H	0.969587	-0.650209	1.103295
H176	H	1.469587	-0.150209	1.603295
Br177	Br	0.684623	-0.670048	0.350653
Br178	Br	1.184623	-0.170048	0.850653
Br179	Br	0.935382	-1.120397	0.290196
Br180	Br	1.435382	-0.620397	0.790196
H181	H	1.003067	-0.919178	0.447850
H182	H	1.503067	-0.419178	0.947850
Br183	Br	1.035216	-1.122348	0.459920
Br184	Br	1.535216	-0.622348	0.959920
Br185	Br	0.815911	-0.342836	1.119891
Br186	Br	1.315911	0.157164	1.619891
