data_functionalizedCrystal
_audit_creation_method	'MofGen! by Chris Wilmer'
_symmetry_space_group_name_H-M	'P1'
_symmetry_Int_Tables_number	1
_symmetry_cell_setting	triclinic
loop_
_symmetry_equiv_pos_as_xyz
  x,y,z
_cell_length_a	13.635800
_cell_length_b	11.102269
_cell_length_c	17.982968
_cell_angle_alpha	85.765856
_cell_angle_beta	77.548040
_cell_angle_gamma	108.605385
loop_
_atom_site_label
_atom_site_type_symbol
_atom_site_fract_x
_atom_site_fract_y
_atom_site_fract_z
V1	V	-2.020686	-0.177030	0.237551
O2	O	-2.000870	0.007282	0.233026
O3	O	-2.009315	-0.349843	0.235928
O4	O	-1.993778	-0.174845	0.341154
O5	O	-2.016515	-0.168928	0.127072
V6	V	-2.261189	-0.154921	0.224336
O7	O	-2.154077	-0.225529	0.266537
O8	O	-2.352897	-0.106422	0.195350
O9	O	-2.160957	0.017892	0.225959
O10	O	-2.339703	-0.339233	0.228861
O11	O	-2.324059	-0.163023	0.334815
O12	O	-2.176494	-0.157106	0.120733
V13	V	-1.520686	-0.177030	0.237551
O14	O	-1.500870	0.007282	0.233026
O15	O	-1.509315	-0.349843	0.235928
O16	O	-1.493778	-0.174845	0.341154
O17	O	-1.516515	-0.168928	0.127072
V18	V	-1.761189	-0.154921	0.224336
O19	O	-1.654077	-0.225529	0.266537
O20	O	-1.852897	-0.106422	0.195350
O21	O	-1.660957	0.017892	0.225959
O22	O	-1.839703	-0.339233	0.228861
O23	O	-1.824059	-0.163023	0.334815
O24	O	-1.676494	-0.157106	0.120733
C25	C	-1.935023	-0.391954	0.232181
C26	C	-1.966351	-0.533234	0.231545
C27	C	-2.030280	-0.750859	0.300417
C28	C	-2.000853	-0.618113	0.301018
C29	C	-1.961287	-0.581108	0.161468
C30	C	-1.990720	-0.713852	0.160868
C31	C	-2.043171	-0.463100	0.388106
C32	C	-2.048222	-0.415230	0.458182
C33	C	-2.016457	-0.470475	0.517147
C34	C	-1.979617	-0.573588	0.506038
C35	C	-1.974555	-0.621451	0.435962
C36	C	-2.006345	-0.566210	0.377000
C37	C	-1.948395	-0.868868	0.073784
C38	C	-1.943327	-0.916733	0.003706
C39	C	-1.975084	-0.861487	-0.055266
C40	C	-2.011906	-0.758367	-0.044166
C41	C	-2.016975	-0.710503	0.025912
C42	C	-1.985221	-0.765757	0.084884
C43	C	-1.915204	-0.168725	0.366406
C44	C	-1.933930	-0.168081	0.451102
C45	C	-2.066920	0.059996	0.229704
C46	C	-2.025211	0.201275	0.230345
C47	C	-2.086739	-0.163230	0.095477
C48	C	-2.057632	-0.163867	0.010780
C49	C	-1.435023	-0.391954	0.232181
C50	C	-1.466351	-0.533234	0.231545
C51	C	-1.415204	-0.168725	0.366406
C52	C	-1.433930	-0.168081	0.451102
C53	C	-2.034160	-0.174148	0.494774
C54	C	-2.051749	-0.173542	0.574354
C55	C	-1.969108	-0.166879	0.610263
C56	C	-1.868869	-0.160809	0.566585
C57	C	-1.851279	-0.161405	0.487005
C58	C	-1.939804	-0.158402	0.887522
C59	C	-1.957403	-0.157810	0.967108
C60	C	-2.140274	-0.170539	0.974871
C61	C	-2.122684	-0.171135	0.895291
C62	C	-2.022445	-0.165058	0.851620
C63	C	-2.003374	-0.165712	0.765329
C64	C	-1.988181	-0.166234	0.696553
C65	C	-1.566920	0.059996	0.229704
C66	C	-1.525211	0.201275	0.230345
C67	C	-1.586739	-0.163230	0.095477
C68	C	-1.557632	-0.163867	0.010780
C69	C	-1.534164	-0.174135	0.494760
C70	C	-1.551769	-0.173514	0.574340
C71	C	-1.469141	-0.166848	0.610261
C72	C	-1.368897	-0.160790	0.566597
C73	C	-1.351291	-0.161402	0.487018
C74	C	-1.458029	-0.170519	-0.025122
C75	C	-1.430661	-0.171102	-0.104704
C76	C	-1.502901	-0.165043	-0.148382
C77	C	-1.602512	-0.158387	-0.112476
C78	C	-1.629875	-0.157795	-0.032895
C79	C	-1.461287	-0.581109	0.161476
C80	C	-1.490735	-0.713858	0.160882
C81	C	-1.530305	-0.750847	0.300432
C82	C	-1.500865	-0.618101	0.301026
C83	C	-1.565974	-0.877224	0.078687
C84	C	-1.560893	-0.925101	0.008613
C85	C	-1.475087	-0.861519	-0.055241
C86	C	-1.394337	-0.750060	-0.049025
C87	C	-1.399411	-0.702189	0.021050
C88	C	-1.485240	-0.765770	0.084902
C89	C	-1.425615	-0.454730	0.383215
C90	C	-1.430682	-0.406857	0.453290
C91	C	-1.516483	-0.470438	0.517150
C92	C	-1.597220	-0.581902	0.510942
C93	C	-1.592154	-0.629775	0.440866
C94	C	-1.506352	-0.566186	0.377006
H95	H	-2.058364	-0.819960	0.356989
O96	O	-1.648028	-1.045273	0.001915
H97	H	-1.651981	-1.126653	0.043573
H98	H	-1.324463	-0.698306	-0.101021
H99	H	-1.801581	-0.155377	0.595827
H100	H	-2.037751	-0.713371	-0.092189
H101	H	-1.635857	-0.928994	0.130675
O102	O	-1.473371	-0.165689	-0.234215
H103	H	-1.474669	-0.076032	-0.265016
H104	H	-2.020569	-0.431490	0.574203
H105	H	-1.944555	-0.705398	0.426916
H106	H	-1.269669	-0.156475	0.451478
O107	O	-1.279759	-0.153667	0.605312
H108	H	-1.262054	-0.066044	0.633263
H109	H	-1.333664	-0.611445	0.026111
O110	O	-1.680419	-0.151856	-0.159595
H111	H	-1.754281	-0.147122	-0.121268
H112	H	-1.710985	-0.152386	-0.003670
H113	H	-2.189982	-0.176567	0.866060
H114	H	-1.769655	-0.156434	0.451445
H115	H	-1.890100	-0.152381	0.996341
H116	H	-1.433185	-0.512013	0.104901
O117	O	-1.380135	-0.177147	0.021990
H118	H	-1.306288	-0.181891	-0.016354
H119	H	-1.349549	-0.176522	-0.133928
O120	O	-1.903605	-1.027949	-0.008283
H121	H	-1.955882	-1.112757	0.035359
H122	H	-1.470952	-0.900510	-0.112296
H123	H	-1.858197	-0.153499	0.851978
O124	O	-1.623288	-0.181305	0.456022
H125	H	-1.695933	-0.185390	0.499758
H126	H	-1.633399	-0.178452	0.609881
O127	O	-1.914137	-0.928449	0.137393
H128	H	-1.887662	-1.008179	0.117896
H129	H	-1.558407	-0.819961	0.357000
H130	H	-1.657899	-0.720540	0.435815
H131	H	-2.221894	-0.175482	1.010438
O132	O	-1.689775	-0.650489	0.579815
H133	H	-1.679741	-0.598466	0.629582
O134	O	-1.521950	-0.418812	0.592736
H135	H	-1.451394	-0.330624	0.586331
H136	H	-1.364928	-0.316104	0.458344
H137	H	-1.355744	-0.402949	0.331217
H138	H	-1.953739	-0.618552	0.554053
H139	H	-2.078226	-0.331277	0.467222
H140	H	-1.933199	-0.511989	0.104903
O141	O	-2.077435	-0.403509	0.324508
H142	H	-2.162590	-0.412353	0.345218
O143	O	-2.056687	-0.599277	0.037890
H144	H	-2.077924	-0.568900	-0.014888
O145	O	-1.488140	-0.166209	0.696096
H146	H	-1.571730	-0.171557	0.720415
H147	H	-2.101460	-0.179582	0.465544
H148	H	-2.133363	-0.178475	0.609908
O149	O	-1.969618	-0.913107	-0.130853
H150	H	-1.938677	-0.994093	-0.128670
