data_functionalizedCrystal
_audit_creation_method	'MofGen! by Chris Wilmer'
_symmetry_space_group_name_H-M	'P1'
_symmetry_Int_Tables_number	1
_symmetry_cell_setting	triclinic
loop_
_symmetry_equiv_pos_as_xyz
  x,y,z
_cell_length_a	15.297327
_cell_length_b	19.077241
_cell_length_c	19.076919
_cell_angle_alpha	89.886096
_cell_angle_beta	78.489658
_cell_angle_gamma	77.647063
loop_
_atom_site_label
_atom_site_type_symbol
_atom_site_fract_x
_atom_site_fract_y
_atom_site_fract_z
Zn1	Zn	-0.332118	-1.011713	0.483504
Zn2	Zn	-0.478730	-0.995791	0.384952
Zn3	Zn	-0.331635	-0.898996	0.361219
Zn4	Zn	-0.490932	-0.871899	0.499265
O5	O	-0.408354	-0.944600	0.432235
O6	O	-0.346661	-1.108622	0.473767
O7	O	-0.453909	-0.987628	0.282787
O8	O	-0.203675	-0.931952	0.360911
O9	O	-0.454376	-1.096925	0.401361
O10	O	-0.204030	-1.014764	0.450754
O11	O	-0.345839	-0.916513	0.265350
O12	O	-0.357672	-0.796380	0.376195
O13	O	-0.475174	-0.885769	0.596191
O14	O	-0.474706	-0.776472	0.477617
O15	O	-0.358493	-0.988489	0.584611
O16	O	-0.608372	-0.961354	0.416645
O17	O	-0.617338	-0.870331	0.500630
C18	C	-0.417461	-0.760751	0.426041
C19	C	-0.421381	-0.682096	0.423411
C20	C	-0.367237	-0.651218	0.459954
C21	C	-0.370915	-0.577314	0.457477
C22	C	-0.428742	-0.534288	0.418459
C23	C	-0.482888	-0.565171	0.381912
C24	C	-0.479204	-0.639074	0.384386
C25	C	-0.445756	-0.312608	0.407005
C26	C	-0.449438	-0.238700	0.404535
C27	C	-0.337463	-0.250848	0.480099
C28	C	-0.333789	-0.324752	0.482573
C29	C	-0.387931	-0.355629	0.446023
N30	N	-0.432505	-0.458745	0.415927
N31	N	-0.384163	-0.431171	0.448551
C32	C	-0.646050	-0.911193	0.462939
C33	C	-0.747736	-0.896964	0.476100
C34	C	-1.015573	-1.046571	0.338421
C35	C	-0.920034	-1.059939	0.326051
C36	C	-0.876955	-1.019197	0.363563
C37	C	-0.929424	-0.965084	0.413445
C38	C	-1.024972	-0.951711	0.425812
C39	C	-0.886354	-0.924336	0.450954
C40	C	-0.938822	-0.870223	0.500836
C41	C	-1.034361	-0.856853	0.513201
C42	C	-1.077440	-0.897596	0.475689
C43	C	-0.790805	-0.937709	0.438587
C44	C	-0.800204	-0.842849	0.525978
C45	C	-0.895743	-0.829481	0.538347
C46	C	-0.169729	-0.978156	0.401427
C47	C	-0.068042	-0.992456	0.388298
C48	C	-0.418248	-0.935883	0.616793
C49	C	-0.422465	-0.932168	0.695441
C50	C	-0.399206	-0.129168	0.438447
C51	C	-0.395294	-0.207822	0.441078
C52	C	-0.398430	-0.953333	0.248387
C53	C	-0.393948	-0.957221	0.169711
C54	C	-0.363699	-0.983901	0.726362
C55	C	-0.367658	-0.980402	0.800260
C56	C	-0.430388	-0.925173	0.843235
C57	C	-0.489156	-0.873435	0.812309
C58	C	-0.485192	-0.876931	0.738412
C59	C	-0.448753	-0.908979	1.064888
C60	C	-0.452714	-0.905488	1.138790
C61	C	-0.331215	-1.012455	1.126736
C62	C	-0.327260	-1.015949	1.052839
C63	C	-0.386025	-0.964209	1.021918
N64	N	-0.434438	-0.921597	0.918770
N65	N	-0.381970	-0.967783	0.946384
H66	H	-0.496532	-0.203669	0.372763
H67	H	-0.276182	-1.060924	1.017853
C68	C	-1.092079	-0.797331	0.568068
H69	H	-1.155149	-0.795199	0.570057
H70	H	-1.078423	-0.807602	0.613934
H71	H	-1.078280	-0.752465	0.554054
C72	C	-0.505314	-0.346564	0.366804
H73	H	-0.540286	-0.310352	0.343219
H74	H	-0.467169	-0.381765	0.332452
H75	H	-0.545247	-0.368516	0.399943
C76	C	-0.953461	-0.769958	0.593214
H77	H	-0.914127	-0.747609	0.613789
H78	H	-0.990858	-0.735205	0.569916
H79	H	-0.990996	-0.790344	0.629795
C80	C	-0.752832	-0.798029	0.567246
H81	H	-0.797763	-0.763880	0.598717
H82	H	-0.715828	-0.828838	0.594178
H83	H	-0.715683	-0.773706	0.534293
H84	H	-0.799162	-1.030084	0.353488
C85	C	-0.558158	-0.812685	0.859580
H86	H	-0.552110	-0.818015	0.908020
H87	H	-0.546476	-0.767596	0.844137
H88	H	-0.618467	-0.814975	0.855753
C89	C	-0.546497	-0.517844	0.338995
H90	H	-0.540944	-0.469406	0.342761
H91	H	-0.529864	-0.534084	0.290133
H92	H	-0.607937	-0.520838	0.357627
H93	H	-0.286704	-0.359779	0.514348
H94	H	-0.503798	-0.860511	1.173780
H95	H	-0.312621	-1.028877	0.691377
C96	C	-1.062956	-1.091379	0.297160
H97	H	-1.018027	-1.125520	0.265678
H98	H	-1.100110	-1.115698	0.330104
H99	H	-1.099954	-1.060560	0.270225
C100	C	-0.538770	-0.673039	0.344195
H101	H	-0.573745	-0.636829	0.320610
H102	H	-0.500629	-0.708243	0.309846
H103	H	-0.578700	-0.694988	0.377341
H104	H	-0.326827	-0.552176	0.487235
H105	H	-0.319807	-1.022530	0.825432
C106	C	-0.862325	-1.119462	0.271190
H107	H	-0.901663	-1.141817	0.250626
H108	H	-0.824784	-1.099087	0.234609
H109	H	-0.824934	-1.154218	0.294496
H110	H	-0.748094	-0.981769	0.397972
H111	H	-0.283371	-1.054579	1.151919
H112	H	-1.155236	-0.886716	0.485760
H113	H	-0.496616	-0.866857	1.039724
H114	H	-0.293382	-0.225700	0.509856
H115	H	-0.533036	-0.834799	0.713236
H116	H	-0.320150	-0.686244	0.491729
