data_functionalizedCrystal
_audit_creation_method	'MofGen! by Chris Wilmer'
_symmetry_space_group_name_H-M	'P1'
_symmetry_Int_Tables_number	1
_symmetry_cell_setting	triclinic
loop_
_symmetry_equiv_pos_as_xyz
  x,y,z
_cell_length_a	19.288864
_cell_length_b	10.723024
_cell_length_c	17.766277
_cell_angle_alpha	89.994854
_cell_angle_beta	89.976791
_cell_angle_gamma	83.802058
loop_
_atom_site_label
_atom_site_type_symbol
_atom_site_fract_x
_atom_site_fract_y
_atom_site_fract_z
O1	O	0.922366	0.155659	-0.062834
O2	O	0.720242	0.176657	-0.062782
O3	O	0.825966	-0.015516	-0.062807
O4	O	0.816642	0.347832	-0.062810
O5	O	0.825947	-0.015526	0.062382
O6	O	0.720223	0.176647	0.062406
O7	O	0.922347	0.155649	0.062355
Cu8	Cu	0.821283	0.166147	0.073811
Cu9	Cu	0.821306	0.166159	-0.074239
O10	O	0.816623	0.347822	0.062379
C11	C	0.694352	0.175976	-0.000181
C12	C	0.617235	0.173948	-0.000162
C13	C	0.573272	0.286707	-0.000175
C14	C	0.500813	0.284801	-0.000183
C15	C	0.472319	0.170131	-0.000193
C16	C	0.516291	0.057358	-0.000176
C17	C	0.588749	0.059266	-0.000160
C18	C	0.363477	0.079991	-0.044077
C19	C	0.291020	0.078087	-0.044098
C20	C	0.248835	0.164239	-0.000239
C21	C	0.279114	0.252317	0.043630
C22	C	0.351572	0.254226	0.043646
C23	C	0.393752	0.168049	-0.000210
C24	C	0.126303	0.274939	-0.000260
C25	C	0.053843	0.273029	-0.000263
C26	C	0.069323	0.045582	-0.000264
C27	C	0.141782	0.047496	-0.000253
C28	C	0.170267	0.162178	-0.000254
C29	C	0.825278	-0.062006	-0.000213
C30	C	0.823248	-0.200518	-0.000215
C31	C	0.882406	-0.276743	-0.000231
C32	C	0.880309	-0.419902	-0.000234
C33	C	0.948237	0.156330	-0.000248
C34	C	1.025354	0.158358	-0.000273
C35	C	0.817311	0.394313	-0.000216
C36	C	0.819341	0.532824	-0.000219
N37	N	0.821273	0.166138	0.177941
N38	N	0.821322	0.166158	-0.178369
C39	C	0.868103	0.081086	0.217318
C40	C	0.868107	0.081080	0.296119
C41	C	0.821287	0.166148	0.335542
C42	C	0.774448	0.251208	0.296156
C43	C	0.774441	0.251203	0.217356
C44	C	0.812728	0.279841	0.460380
C45	C	0.812741	0.279847	0.539179
C46	C	0.821306	0.166163	0.578588
C47	C	0.829874	0.052468	0.539189
C48	C	0.829867	0.052463	0.460389
C49	C	0.821290	0.166163	0.420988
C50	C	0.868143	0.081097	0.703410
C51	C	0.868142	0.081090	0.782214
C52	C	0.774487	0.251228	0.782249
C53	C	0.774485	0.251225	0.703447
C54	C	0.821316	0.166161	0.664033
H55	H	0.465012	0.376626	-0.000191
O56	O	0.238161	0.335964	0.086288
C57	C	0.256838	0.320087	0.162681
H58	H	0.312720	0.273649	0.166879
H59	H	0.252724	0.415506	0.191595
H60	H	0.220173	0.258271	0.191341
O61	O	0.913396	-0.001936	0.179063
C62	C	0.875659	-0.078737	0.133690
H63	H	0.821640	-0.028488	0.121799
H64	H	0.904538	-0.099153	0.078308
H65	H	0.870283	-0.170671	0.164271
H66	H	0.376223	0.325938	0.079369
H67	H	0.149497	0.368320	-0.000250
H68	H	0.906243	0.011817	0.328185
O69	O	0.944699	-0.228227	-0.000382
C70	C	0.982723	-0.269226	-0.065220
H71	H	0.945249	-0.296183	-0.110525
H72	H	1.012586	-0.190460	-0.086993
H73	H	1.021082	-0.354185	-0.050572
H74	H	0.771048	-0.241244	-0.000207
H75	H	0.930952	-0.485398	-0.000244
H76	H	0.736363	0.320488	0.814346
O77	O	0.838160	-0.058085	0.422233
C78	C	0.845741	-0.158431	0.473905
H79	H	0.821482	-0.126199	0.530090
H80	H	0.818363	-0.239617	0.451156
H81	H	0.903506	-0.190620	0.482252
H82	H	0.906274	0.011829	0.671318
H83	H	0.836849	-0.040104	0.571274
O84	O	0.011165	0.382604	-0.000408
C85	C	0.024209	0.452259	-0.065237
H86	H	0.048678	0.386241	-0.110546
H87	H	-0.026940	0.502589	-0.087010
H88	H	0.061437	0.524273	-0.050576
H89	H	0.768695	-0.401687	-0.000200
H90	H	0.266373	0.006374	-0.079822
O91	O	0.184521	-0.062005	-0.000119
C92	C	0.226875	-0.067701	0.064715
H93	H	0.200623	-0.003753	0.110031
H94	H	0.234533	-0.168262	0.086475
H95	H	0.279717	-0.035697	0.050068
O96	O	0.913704	-0.001581	0.820350
C97	C	0.955023	-0.076674	0.768659
H98	H	0.956042	-0.025518	0.712484
H99	H	1.010401	-0.095948	0.791399
H100	H	0.932040	-0.169274	0.760297
H101	H	0.736354	0.320488	0.671385
H102	H	0.046124	-0.047784	-0.000320
H103	H	0.397819	0.009832	-0.079796
H104	H	0.805741	0.372422	0.428300
O105	O	0.804381	0.390395	0.577332
C106	C	0.796826	0.490735	0.525653
H107	H	0.777575	0.456304	0.469496
H108	H	0.757472	0.568565	0.548438
H109	H	0.849320	0.528473	0.517238
H110	H	0.493087	-0.036008	-0.000195
H111	H	0.624544	-0.032558	-0.000150
H112	H	0.736326	0.320470	0.328258
H113	H	0.736305	0.320464	0.185295
H114	H	0.596460	0.380090	-0.000177
