data_functionalizedCrystal
_audit_creation_method	'MofGen! by Chris Wilmer'
_symmetry_space_group_name_H-M	'P1'
_symmetry_Int_Tables_number	1
_symmetry_cell_setting	triclinic
loop_
_symmetry_equiv_pos_as_xyz
  x,y,z
_cell_length_a	27.440280
_cell_length_b	20.919309
_cell_length_c	20.919327
_cell_angle_alpha	55.760361
_cell_angle_beta	86.849805
_cell_angle_gamma	62.590440
loop_
_atom_site_label
_atom_site_type_symbol
_atom_site_fract_x
_atom_site_fract_y
_atom_site_fract_z
Zr1	Zr	0.494960	0.700686	-0.111236
O2	O	0.425612	0.834257	-0.218677
O3	O	0.513319	0.567122	-0.074692
O4	O	0.523104	0.700680	-0.213456
O5	O	0.411407	0.700701	0.025443
O6	O	0.603306	0.700668	-0.213442
O7	O	0.415827	0.700699	-0.079912
O8	O	0.585802	0.461756	0.034782
O9	O	0.428910	0.939613	-0.222782
O10	O	0.584506	0.622047	-0.063455
O11	O	0.521354	0.622058	0.015160
O12	O	0.532874	0.779306	-0.148217
O13	O	0.469722	0.779317	-0.069602
Zr14	Zr	0.615823	0.700671	0.056815
Zr15	Zr	0.622872	0.700666	-0.111214
Zr16	Zr	0.487910	0.700690	0.056793
Zr17	Zr	0.500220	0.868717	-0.117783
Zr18	Zr	0.610562	0.532640	0.063361
O19	O	0.597464	0.834235	0.020270
O20	O	0.607487	0.834229	-0.218646
O21	O	0.415588	0.834263	0.020239
O22	O	0.685171	0.567099	0.164256
O23	O	0.695194	0.567094	-0.074661
O24	O	0.503296	0.567127	0.164225
O25	O	0.699376	0.700655	-0.079864
O26	O	0.587679	0.700677	0.159035
O27	O	0.507477	0.700689	0.159021
O28	O	0.694956	0.700658	0.025491
O29	O	0.530584	0.939597	-0.222764
O30	O	0.580199	0.461759	0.168343
O31	O	0.681873	0.461744	0.168360
O32	O	0.687476	0.461740	0.034799
O33	O	0.423307	0.939616	-0.089221
O34	O	0.524980	0.939601	-0.089203
O35	O	0.577909	0.622051	0.093796
O36	O	0.641061	0.622040	0.015181
O37	O	0.589429	0.779299	-0.069582
O38	O	0.526277	0.779310	0.009034
C39	C	0.548811	0.490498	-0.019022
C40	C	0.546578	0.419165	-0.016243
C41	C	0.578492	0.385647	-0.055974
C42	C	0.576395	0.318617	-0.053355
C43	C	0.542380	0.285111	-0.011009
C44	C	0.510465	0.318632	0.028726
C45	C	0.512565	0.385656	0.026112
C46	C	0.534391	0.082737	-0.001057
C47	C	0.532291	0.015710	0.001552
C48	C	0.598222	0.015698	-0.080528
C49	C	0.600317	0.082728	-0.083143
C50	C	0.568404	0.116240	-0.043404
C51	C	0.540234	0.216597	-0.008333
C52	C	0.570554	0.184747	-0.046075
C53	C	0.395392	0.700703	-0.027238
C54	C	0.341090	0.700711	-0.027247
C55	C	0.031340	0.618576	0.017056
C56	C	-0.019679	0.618571	0.017064
O57	O	-0.023147	0.548759	0.054716
N58	N	-0.072147	0.700658	-0.027182
C59	C	-0.073596	0.782755	-0.071431
O60	O	-0.122909	0.852575	-0.109064
C61	C	-0.022578	0.782759	-0.071433
C62	C	0.029890	0.700667	-0.027191
C63	C	0.083805	0.536491	0.061296
C64	C	0.134820	0.536496	0.061287
C65	C	0.133370	0.618587	0.017039
C66	C	0.080905	0.700672	-0.027200
C67	C	-0.024027	0.864855	-0.115677
C68	C	0.026997	0.864852	-0.115675
C69	C	0.079464	0.782760	-0.071433
C70	C	0.130470	0.782768	-0.071456
N71	N	0.182938	0.700681	-0.027210
C72	C	0.184388	0.618591	0.017037
C73	C	-0.180735	0.782740	-0.071423
C74	C	-0.231753	0.782737	-0.071426
C75	C	-0.177832	0.618553	0.017071
C76	C	-0.126814	0.618557	0.017069
C77	C	-0.128267	0.700653	-0.027177
C78	C	0.291522	0.618608	0.017016
C79	C	0.342540	0.618621	0.017000
C80	C	0.288615	0.782804	-0.071492
C81	C	0.237602	0.782792	-0.071481
C82	C	0.239059	0.700687	-0.027221
O83	O	0.133982	0.852545	-0.109087
O84	O	0.233703	0.548782	0.054673
C85	C	0.715391	0.700654	-0.027183
C86	C	0.769693	0.700645	-0.027174
C87	C	0.564209	0.700673	-0.237390
C88	C	0.567202	0.700672	-0.308723
C89	C	0.561972	0.910859	-0.035399
C90	C	0.564205	0.982192	-0.038178
C91	C	0.524426	0.700677	-0.342245
C92	C	0.527239	0.700683	-0.409274
C93	C	0.572832	0.700678	-0.442776
C94	C	0.615610	0.700675	-0.409251
C95	C	0.612794	0.700676	-0.342227
C96	C	0.583543	0.700683	-0.645149
C97	C	0.586357	0.700680	-0.712177
C98	C	0.497985	0.700689	-0.712196
C99	C	0.495175	0.700684	-0.645167
C100	C	0.537952	0.700687	-0.611650
C101	C	0.575710	0.700681	-0.511289
C102	C	0.535071	0.700689	-0.543142
C103	C	0.546574	0.700684	0.182968
C104	C	0.543581	0.700685	0.254301
C105	C	0.708810	0.490473	-0.018995
C106	C	0.760879	0.419132	-0.016206
C107	C	0.539993	0.490503	0.191157
C108	C	0.534767	0.419172	0.265269
C109	C	0.699993	0.490479	0.191184
C110	C	0.749069	0.419139	0.265306
C111	C	0.410790	0.910878	-0.245606
C112	C	0.361714	0.982218	-0.319727
C113	C	0.401972	0.910883	-0.035427
C114	C	0.349903	0.982225	-0.038215
C115	C	0.570789	0.910854	-0.245578
C116	C	0.576015	0.982185	-0.319690
C117	C	0.755811	0.385633	-0.055951
C118	C	0.804731	0.318609	-0.053347
C119	C	0.858719	0.285081	-0.010993
C120	C	0.863787	0.318587	0.028752
C121	C	0.814868	0.385614	0.026143
C122	C	0.561834	0.385670	0.341127
C123	C	0.556922	0.318656	0.410769
C124	C	0.524945	0.285140	0.404552
C125	C	0.497875	0.318648	0.328686
C126	C	0.502785	0.385666	0.259045
C127	C	0.805086	0.385631	0.259077
C128	C	0.851204	0.318609	0.328715
C129	C	0.841303	0.285091	0.404581
C130	C	0.785281	0.318606	0.410807
C131	C	0.739164	0.385631	0.341170
C132	C	0.305697	1.015734	-0.313499
C133	C	0.259580	1.082777	-0.383138
C134	C	0.269480	1.116298	-0.459004
C135	C	0.325503	1.082779	-0.465230
C136	C	0.371619	1.015742	-0.395592
C137	C	0.354973	1.015731	0.001522
C138	C	0.306054	1.082773	-0.001101
C139	C	0.252065	1.116304	-0.043457
C140	C	0.246997	1.082795	-0.083199
C141	C	0.295916	1.015758	-0.080580
C142	C	0.607996	1.015680	-0.313447
C143	C	0.612917	1.082694	-0.383077
C144	C	0.585854	1.116218	-0.458948
C145	C	0.553873	1.082717	-0.465190
C146	C	0.548955	1.015699	-0.395561
H147	H	0.504589	-0.011566	0.036035
H148	H	0.693554	0.412904	0.346252
H149	H	0.231925	1.170884	-0.515701
H150	H	0.310191	1.110045	0.031265
H151	H	0.297625	0.988445	-0.251732
H152	H	0.896816	0.291328	0.323632
H153	H	0.213968	1.110056	-0.378053
H154	H	0.482772	0.291342	0.063209
H155	H	0.333558	1.110081	-0.527008
H156	H	0.878860	0.230515	0.461278
H157	H	0.589863	1.170788	-0.515638
H158	H	0.777228	0.291306	0.472586
H159	H	0.907751	0.291278	0.063235
H160	H	0.522911	0.988435	-0.400656
H161	H	0.487301	0.700675	-0.314968
H162	H	0.385261	0.551769	0.053030
H163	H	0.813158	0.412911	0.197310
H164	H	0.417230	0.988454	-0.400672
H165	H	0.203034	1.110106	-0.117685
H166	H	0.711856	0.412931	-0.090450
H167	H	0.212237	1.170889	-0.045583
H168	H	0.520952	0.230570	0.461264
H169	H	0.587872	0.412951	0.346204
H170	H	0.084995	0.469639	0.097332
H171	H	-0.084097	0.551710	0.053102
H172	H	0.398928	0.988435	0.036019
H173	H	0.291781	0.988480	-0.112937
H174	H	0.486576	0.412948	0.058462
H175	H	0.630035	0.988395	-0.251675
H176	H	0.638959	1.109964	-0.377979
H177	H	0.606188	0.412927	-0.090460
H178	H	0.531840	1.110022	-0.526974
H179	H	0.647626	0.700673	-0.314934
H180	H	0.602382	0.291326	-0.085706
H181	H	0.292717	0.551750	0.053057
H182	H	0.628015	0.110007	-0.117624
H183	H	0.463158	0.700689	-0.739492
H184	H	0.598251	0.212026	-0.080549
H185	H	0.578968	0.291381	0.472535
H186	H	0.618375	0.700683	-0.617864
H187	H	0.624205	-0.011594	-0.112881
H188	H	0.480745	0.412934	0.197281
H189	H	0.512539	0.189309	0.026144
H190	H	0.652731	0.700677	-0.436535
H191	H	-0.181926	0.849597	-0.107456
H192	H	0.471840	0.291350	0.323636
H193	H	0.508407	0.110011	0.031304
H194	H	0.177538	0.469648	0.097310
H195	H	0.492407	0.700688	-0.436567
H196	H	0.800594	0.291337	-0.085713
H197	H	-0.176660	0.551710	0.053097
H198	H	-0.274470	0.849584	-0.107462
H199	H	-0.066740	0.931703	-0.151703
H200	H	0.898548	0.230502	-0.008874
H201	H	0.194880	0.849638	-0.107516
H202	H	0.287445	0.849640	-0.107520
H203	H	0.025807	0.931706	-0.151696
H204	H	0.458050	0.700688	-0.617891
H205	H	0.623487	0.700675	-0.739451
H206	H	0.819002	0.412880	0.058513
H207	H	0.612833	0.700675	-0.538571
H208	H	0.497948	0.700698	-0.515865
