data_functionalizedCrystal
_audit_creation_method	'MofGen! by Chris Wilmer'
_symmetry_space_group_name_H-M	'P1'
_symmetry_Int_Tables_number	1
_symmetry_cell_setting	triclinic
loop_
_symmetry_equiv_pos_as_xyz
  x,y,z
_cell_length_a	19.077105
_cell_length_b	16.959454
_cell_length_c	19.077174
_cell_angle_alpha	92.276377
_cell_angle_beta	85.483752
_cell_angle_gamma	87.716588
loop_
_atom_site_label
_atom_site_type_symbol
_atom_site_fract_x
_atom_site_fract_y
_atom_site_fract_z
Zn1	Zn	1.093734	-0.384059	-0.441867
Zn2	Zn	1.088928	-0.510707	-0.323986
Zn3	Zn	0.971118	-0.373009	-0.319263
Zn4	Zn	0.975822	-0.510655	-0.437104
O5	O	1.032400	-0.444608	-0.380555
O6	O	1.191747	-0.405505	-0.430199
O7	O	1.069320	-0.487839	-0.224710
O8	O	0.987426	-0.263867	-0.335543
O9	O	1.188216	-0.498553	-0.343593
O10	O	1.077511	-0.271985	-0.425619
O11	O	0.982766	-0.386673	-0.221240
O12	O	0.873091	-0.386623	-0.330926
O13	O	0.995443	-0.498465	-0.536386
O14	O	0.876547	-0.487751	-0.417503
O15	O	1.082072	-0.405455	-0.539885
O16	O	1.073881	-0.621309	-0.338975
O17	O	0.990783	-0.621271	-0.422082
C18	C	0.849240	-0.435983	-0.373185
C19	C	0.770884	-0.432312	-0.370049
C20	C	0.735888	-0.483313	-0.413581
C21	C	0.662264	-0.479854	-0.410638
C22	C	0.623638	-0.425398	-0.364158
C23	C	0.658640	-0.374392	-0.320625
C24	C	0.732263	-0.377848	-0.323572
C25	C	0.403256	-0.409407	-0.350521
C26	C	0.329629	-0.405957	-0.347575
C27	C	0.333258	-0.511418	-0.437590
C28	C	0.406881	-0.514872	-0.440530
C29	C	0.441877	-0.463863	-0.396999
N30	N	0.548383	-0.421864	-0.361147
N31	N	0.517131	-0.467395	-0.400014
C32	C	1.032341	-0.649971	-0.380541
C33	C	1.032381	-0.737830	-0.380561
C34	C	0.989196	-1.109319	-0.423827
C35	C	1.075804	-1.109306	-0.337363
C36	C	1.075779	-1.026758	-0.337356
C37	C	1.032461	-0.985487	-0.380584
C38	C	0.989168	-1.026764	-0.423819
C39	C	1.119066	-0.985475	-0.294116
C40	C	1.119042	-0.902923	-0.294106
C41	C	1.075727	-0.861651	-0.337338
C42	C	1.032433	-0.902932	-0.380576
C43	C	0.989116	-0.861662	-0.423804
C44	C	0.945825	-0.902942	-0.467046
C45	C	0.945854	-0.985492	-0.467051
C46	C	1.075698	-0.779101	-0.337333
C47	C	0.989088	-0.779106	-0.423796
C48	C	1.216275	-0.453267	-0.387954
C49	C	1.294632	-0.456957	-0.391107
C50	C	1.039818	-0.453186	-0.564429
C51	C	1.042979	-0.456842	-0.642786
C52	C	1.032480	-0.238444	-0.380586
C53	C	1.032514	-0.150590	-0.380599
C54	C	0.999402	-0.405889	-0.677791
C55	C	1.002370	-0.409330	-0.751415
C56	C	1.048919	-0.463722	-0.790032
C57	C	1.092497	-0.514680	-0.755023
C58	C	1.089526	-0.511242	-0.681400
C59	C	1.062635	-0.479656	-1.010415
C60	C	1.065604	-0.483088	-1.084043
C61	C	0.975475	-0.377739	-1.080429
C62	C	0.972511	-0.374303	-1.006806
C63	C	1.016087	-0.425264	-0.971802
N64	N	1.051954	-0.467239	-0.865288
N65	N	1.013047	-0.421750	-0.896548
C66	C	1.025052	-0.436007	-0.197398
C67	C	1.022027	-0.432135	-0.119047
H68	H	0.438325	-0.559218	-0.478377
C69	C	0.927540	-0.321690	-1.118931
H70	H	0.899395	-0.288802	-1.085387
H71	H	0.897972	-0.351819	-1.146411
H72	H	0.955683	-0.289858	-1.148741
H73	H	1.154327	-1.019083	-0.258916
H74	H	0.934604	-0.330013	-0.975368
C75	C	1.116816	-0.542916	-1.126522
H76	H	1.142341	-0.572777	-1.095131
H77	H	1.148701	-0.515459	-1.156477
H78	H	1.090995	-0.577427	-1.154156
C79	C	1.110577	-0.535699	-0.971920
H80	H	1.138732	-0.568575	-1.005466
H81	H	1.082446	-0.567533	-0.942107
H82	H	1.140148	-0.505560	-0.944445
H83	H	0.767331	-0.527660	-0.451427
H84	H	0.304756	-0.552946	-0.473031
C85	C	0.287142	-0.346047	-0.296451
H86	H	0.318528	-0.316158	-0.270952
H87	H	0.257167	-0.373444	-0.264537
H88	H	0.259527	-0.311571	-0.322330
C89	C	0.441742	-0.353312	-0.302626
H90	H	0.408192	-0.320396	-0.274517
H91	H	0.471570	-0.321523	-0.330786
H92	H	0.469203	-0.383418	-0.273013
C93	C	0.623768	-0.536001	-0.458480
H94	H	0.657316	-0.568948	-0.486564
H95	H	0.596284	-0.505953	-0.488108
H96	H	0.593963	-0.567769	-0.430267
H97	H	0.627186	-0.330050	-0.282783
C98	C	1.143701	-0.574508	-0.797500
H99	H	1.139236	-0.569253	-0.846361
H100	H	1.132879	-0.626567	-0.785012
H101	H	1.190586	-0.564601	-0.787340
H102	H	0.760756	-0.336314	-0.288128
C103	C	0.941438	-0.733715	-0.471349
H104	H	0.915660	-0.770124	-0.497098
H105	H	0.969609	-0.704179	-0.503166
H106	H	0.909639	-0.698845	-0.443115
C107	C	1.137460	-0.567291	-0.642894
H108	H	1.165613	-0.600173	-0.676437
H109	H	1.109319	-0.599117	-0.613084
H110	H	1.167033	-0.537158	-0.615415
C111	C	1.123309	-0.733692	-0.289773
H112	H	1.117087	-0.678617	-0.295957
H113	H	1.171090	-0.749890	-0.302030
H114	H	1.111114	-0.744546	-0.241984
H115	H	0.910552	-0.869329	-0.502239
H116	H	0.910608	-1.019110	-0.502256
H117	H	0.961501	-0.361593	-0.646353
H118	H	1.154292	-0.869317	-0.258897
C119	C	0.941578	-1.154722	-0.471387
H120	H	0.947793	-1.209797	-0.465201
H121	H	0.953761	-1.143862	-0.519173
H122	H	0.893795	-1.138525	-0.459118
C123	C	1.123453	-1.154701	-0.289820
H124	H	1.117273	-1.209778	-0.296021
H125	H	1.111267	-1.138502	-0.242030
H126	H	1.171225	-1.143842	-0.302092
C127	C	0.954439	-0.353277	-0.789917
H128	H	0.926298	-0.320384	-0.756374
H129	H	0.924867	-0.383402	-0.817396
H130	H	0.982586	-0.321449	-0.819728
