data_functionalizedCrystal
_audit_creation_method	'MofGen! by Chris Wilmer'
_symmetry_space_group_name_H-M	'P1'
_symmetry_Int_Tables_number	1
_symmetry_cell_setting	triclinic
loop_
_symmetry_equiv_pos_as_xyz
  x,y,z
_cell_length_a	12.759401
_cell_length_b	16.625546
_cell_length_c	12.759393
_cell_angle_alpha	89.963602
_cell_angle_beta	89.982549
_cell_angle_gamma	90.021512
loop_
_atom_site_label
_atom_site_type_symbol
_atom_site_fract_x
_atom_site_fract_y
_atom_site_fract_z
Zn1	Zn	1.606187	-0.320973	-0.593950
Zn2	Zn	1.606061	-0.455830	-0.418255
Zn3	Zn	1.430492	-0.321013	-0.418289
Zn4	Zn	1.430454	-0.455765	-0.593897
O5	O	1.518299	-0.388395	-0.506098
O6	O	1.753191	-0.338873	-0.570651
O7	O	1.582735	-0.437991	-0.271239
O8	O	1.453868	-0.208175	-0.441627
O9	O	1.753099	-0.437952	-0.441570
O10	O	1.582950	-0.208146	-0.570684
O11	O	1.453745	-0.338941	-0.271263
O12	O	1.283466	-0.338878	-0.441575
O13	O	1.453802	-0.437841	-0.740925
O14	O	1.283438	-0.437879	-0.570594
O15	O	1.582912	-0.338809	-0.740964
O16	O	1.582697	-0.568654	-0.441519
O17	O	1.453680	-0.568606	-0.570561
C18	C	1.245331	-0.388376	-0.506083
C19	C	1.128555	-0.388388	-0.506102
C20	C	1.073734	-0.336895	-0.573419
C21	C	0.964010	-0.336910	-0.573425
C22	C	0.963937	-0.439919	-0.438795
C23	C	1.073659	-0.439899	-0.438784
C24	C	1.128629	-0.285384	-0.640736
C25	C	1.073809	-0.233887	-0.708060
C26	C	0.964085	-0.233903	-0.708066
C27	C	0.909181	-0.285415	-0.640750
C28	C	1.518199	-0.597886	-0.506054
C29	C	1.518253	-0.687507	-0.506070
C30	C	1.518436	-1.015683	-0.506179
C31	C	1.518382	-0.924374	-0.506152
C32	C	1.518344	-0.851598	-0.506124
C33	C	1.518291	-0.760284	-0.506098
C34	C	1.792332	-0.388415	-0.506113
C35	C	1.909108	-0.388423	-0.506119
C36	C	1.518367	-0.388313	-0.780131
C37	C	1.518396	-0.388278	-0.896908
C38	C	1.518427	-0.178086	-0.506165
C39	C	1.518482	-0.088465	-0.506193
C40	C	1.451260	-0.336694	-0.951789
C41	C	1.451291	-0.336670	-1.061513
C42	C	1.585605	-0.439817	-1.061466
C43	C	1.585567	-0.439845	-0.951743
C44	C	1.384089	-0.285127	-0.896953
C45	C	1.316948	-0.233538	-0.951834
C46	C	1.316979	-0.233514	-1.061558
C47	C	1.384152	-0.285079	-1.116401
C48	C	1.518291	-0.388419	-0.233130
C49	C	1.518466	-0.388227	-0.116354
H50	H	0.819837	-0.285406	-0.640738
H51	H	0.919452	-0.191966	-0.762876
H52	H	1.262303	-0.191513	-1.106239
H53	H	0.919226	-0.481859	-0.383991
O54	O	1.126756	-0.489999	-0.373366
C55	C	1.054779	-0.535461	-0.313943
H56	H	0.976579	-0.538306	-0.356972
H57	H	1.043087	-0.505867	-0.234219
C58	C	1.193629	-0.617760	-0.245752
C59	C	1.097585	-0.621260	-0.298606
H60	H	1.220035	-0.670684	-0.236287
H61	H	1.242123	-0.587130	-0.285783
H62	H	1.183873	-0.593095	-0.179321
H63	H	1.107345	-0.645915	-0.365040
H64	H	1.049094	-0.651896	-0.258585
H65	H	1.384057	-0.285139	-0.807610
O66	O	1.127184	-0.183965	-0.773557
C67	C	1.190685	-0.229924	-0.841283
H68	H	1.157605	-0.293439	-0.847623
H69	H	1.273828	-0.232660	-0.808787
C70	C	1.233050	-0.112622	-0.942809
C71	C	1.192415	-0.190630	-0.950603
H72	H	1.234122	-0.088382	-1.010241
H73	H	1.190272	-0.081657	-0.897178
H74	H	1.302332	-0.114912	-0.915725
H75	H	1.123130	-0.188337	-0.977673
H76	H	1.235182	-0.221593	-0.996241
O77	O	1.650972	-0.489783	-1.114783
C78	C	1.718861	-0.443864	-1.178283
H79	H	1.725375	-0.380369	-1.145239
H80	H	1.686409	-0.441061	-1.261442
C81	C	1.820058	-0.561246	-1.220534
C82	C	1.828065	-0.483262	-1.179943
H83	H	1.887419	-0.585550	-1.221563
H84	H	1.774318	-0.592184	-1.177756
H85	H	1.793010	-0.558900	-1.289829
H86	H	1.855100	-0.485610	-1.110645
H87	H	1.873813	-0.452325	-1.222709
H88	H	1.217972	-0.285365	-0.640738
H89	H	1.640250	-0.481839	-0.907058
H90	H	1.262252	-0.191560	-0.907173
H91	H	1.384170	-0.285058	-1.205746
