data_functionalizedCrystal
_audit_creation_method	'MofGen! by Chris Wilmer'
_symmetry_space_group_name_H-M	'P1'
_symmetry_Int_Tables_number	1
_symmetry_cell_setting	triclinic
loop_
_symmetry_equiv_pos_as_xyz
  x,y,z
_cell_length_a	16.625546
_cell_length_b	19.077142
_cell_length_c	19.076919
_cell_angle_alpha	90.074357
_cell_angle_beta	87.730083
_cell_angle_gamma	92.282081
loop_
_atom_site_label
_atom_site_type_symbol
_atom_site_fract_x
_atom_site_fract_y
_atom_site_fract_z
Zn1	Zn	-0.390096	-1.058281	0.440442
Zn2	Zn	-0.056763	-0.724948	0.773775
Zn3	Zn	0.276570	-0.391615	1.107109
Zn4	Zn	-0.519739	-1.062925	0.322932
Zn5	Zn	-0.186406	-0.729592	0.656265
Zn6	Zn	0.146927	-0.396258	0.989598
Zn7	Zn	-0.379293	-0.945499	0.318232
Zn8	Zn	-0.045959	-0.612165	0.651565
Zn9	Zn	0.287374	-0.278832	0.984898
Zn10	Zn	-0.519251	-0.940747	0.435680
Zn11	Zn	-0.185918	-0.607414	0.769013
Zn12	Zn	0.147416	-0.274080	1.102347
O13	O	-0.452095	-1.001863	0.379321
O14	O	-0.118761	-0.668530	0.712655
O15	O	0.214572	-0.335196	1.045988
O16	O	-0.412019	-1.157229	0.428814
O17	O	-0.078686	-0.823896	0.762147
O18	O	0.254647	-0.490562	1.095480
O19	O	-0.496792	-1.051280	0.223977
O20	O	-0.163459	-0.717947	0.557310
O21	O	0.169875	-0.384614	0.890644
O22	O	-0.267897	-0.960505	0.334469
O23	O	0.065437	-0.627171	0.667803
O24	O	0.398770	-0.293838	1.001136
O25	O	-0.507268	-1.160641	0.342479
O26	O	-0.173934	-0.827308	0.675813
O27	O	0.159399	-0.493974	1.009146
O28	O	-0.275834	-1.043365	0.424256
O29	O	0.057499	-0.710032	0.757590
O30	O	0.390833	-0.376699	1.090923
O31	O	-0.393606	-0.965008	0.220524
O32	O	-0.060273	-0.631674	0.553858
O33	O	0.273060	-0.298341	0.887191
O34	O	-0.393133	-0.846537	0.329852
O35	O	-0.059799	-0.513203	0.663185
O36	O	0.273534	-0.179870	0.996519
O37	O	-0.506435	-0.952406	0.534643
O38	O	-0.173102	-0.619073	0.867976
O39	O	0.160232	-0.285739	1.201309
O40	O	-0.495959	-0.843046	0.416141
O41	O	-0.162626	-0.509712	0.749474
O42	O	0.170707	-0.176379	1.082807
O43	O	-0.411546	-1.038758	0.538141
O44	O	-0.078212	-0.705425	0.871475
O45	O	0.255121	-0.372091	1.204808
O46	O	-0.632504	-1.046673	0.337862
O47	O	-0.299170	-0.713340	0.671195
O48	O	0.034163	-0.380006	1.004529
O49	O	-0.632145	-0.956909	0.420698
O50	O	-0.298812	-0.623576	0.754031
O51	O	0.034522	-0.290242	1.087365
C52	C	-0.443321	-0.819295	0.371970
C53	C	-0.109988	-0.485961	0.705303
C54	C	0.223345	-0.152628	1.038637
C55	C	-0.439588	-0.741191	0.368842
C56	C	-0.106255	-0.407857	0.702175
C57	C	0.227078	-0.074524	1.035508
C58	C	-0.491445	-0.702701	0.412227
C59	C	-0.158112	-0.369367	0.745561
C60	C	0.175221	-0.036034	1.078894
C61	C	-0.487927	-0.629313	0.409291
C62	C	-0.154594	-0.295980	0.742625
C63	C	0.178739	0.037353	1.075958
C64	C	-0.432555	-0.594417	0.362966
C65	C	-0.099222	-0.261084	0.696299
C66	C	0.234111	0.072249	1.029632
C67	C	-0.380693	-0.632913	0.319578
C68	C	-0.047359	-0.299579	0.652912
C69	C	0.285974	0.033754	0.986245
C70	C	-0.384207	-0.706298	0.322518
C71	C	-0.050874	-0.372965	0.655852
C72	C	0.282459	-0.039632	0.989185
C73	C	-0.416291	-0.375130	0.349366
C74	C	-0.082957	-0.041797	0.682700
C75	C	0.250376	0.291537	1.016033
C76	C	-0.412781	-0.301739	0.346428
C77	C	-0.079448	0.031594	0.679761
C78	C	0.253885	0.364928	1.013095
C79	C	-0.520015	-0.298145	0.436142
C80	C	-0.186682	0.035189	0.769476
C81	C	0.146651	0.368522	1.102809
C82	C	-0.523528	-0.371532	0.439075
C83	C	-0.190195	-0.038199	0.772409
C84	C	0.143138	0.295134	1.105742
C85	C	-0.471663	-0.410021	0.395691
C86	C	-0.138330	-0.076688	0.729024
C87	C	0.195004	0.256646	1.062357
N88	N	-0.428960	-0.519404	0.359962
N89	N	-0.095626	-0.186071	0.693295
N90	N	0.237707	0.147263	1.026629
N91	N	-0.475255	-0.485033	0.398698
N92	N	-0.141922	-0.151700	0.732032
N93	N	0.191411	0.181634	1.065365
C94	C	-0.661581	-1.001798	0.379289
C95	C	-0.328248	-0.668464	0.712623
C96	C	0.005085	-0.335131	1.045956
C97	C	-0.751205	-1.001833	0.379302
C98	C	-0.417871	-0.668500	0.712635
C99	C	-0.084538	-0.335166	1.045968
C100	C	-1.079389	-1.001953	0.379380
C101	C	-0.746056	-0.668619	0.712713
C102	C	-0.412723	-0.335286	1.046046
C103	C	-0.988078	-1.001917	0.379360
C104	C	-0.654745	-0.668584	0.712693
C105	C	-0.321412	-0.335250	1.046027
C106	C	-0.915300	-1.001892	0.379340
C107	C	-0.581966	-0.668559	0.712674
C108	C	-0.248633	-0.335226	1.046007
C109	C	-0.823983	-1.001858	0.379321
C110	C	-0.490650	-0.668525	0.712655
C111	C	-0.157316	-0.335191	1.045988
C112	C	-0.241792	-1.001947	0.379370
C113	C	0.091541	-0.668614	0.712703
C114	C	0.424875	-0.335280	1.046036
C115	C	-0.152173	-1.001983	0.379390
C116	C	0.181160	-0.668650	0.712724
C117	C	0.514493	-0.335316	1.046057
C118	C	-0.460141	-0.994534	0.562601
C119	C	-0.126808	-0.661201	0.895934
C120	C	0.206526	-0.327867	1.229268
C121	C	-0.463570	-0.991411	0.640704
C122	C	-0.130236	-0.658077	0.974037
C123	C	0.203097	-0.324744	1.307371
C124	C	-0.460899	-0.185145	0.386693
C125	C	-0.127565	0.148189	0.720027
C126	C	0.205768	0.481522	1.053360
C127	C	-0.464638	-0.263249	0.389814
C128	C	-0.131305	0.070084	0.723147
C129	C	0.202028	0.403418	1.056480
C130	C	-0.444024	-1.009204	0.196756
C131	C	-0.110690	-0.675871	0.530090
C132	C	0.222643	-0.342537	0.863423
C133	C	-0.440374	-1.012464	0.118659
C134	C	-0.107041	-0.679130	0.451993
C135	C	0.226292	-0.345797	0.785326
C136	C	-0.415779	-1.034900	0.679219
C137	C	-0.082446	-0.701566	1.012553
C138	C	0.250888	-0.368233	1.345886
C139	C	-0.418997	-1.031957	0.752605
C140	C	-0.085664	-0.698623	1.085938
C141	C	0.247669	-0.365290	1.419272
C142	C	-0.470011	-0.985527	0.787474
C143	C	-0.136678	-0.652194	1.120807
C144	C	0.196656	-0.318861	1.454141
C145	C	-0.517804	-0.942033	0.748953
C146	C	-0.184470	-0.608700	1.082287
C147	C	0.148863	-0.275367	1.415620
C148	C	-0.514581	-0.944973	0.675569
C149	C	-0.181247	-0.611640	1.008902
C150	C	0.152086	-0.278307	1.342236
C151	C	-0.484944	-0.971910	1.006754
C152	C	-0.151611	-0.638576	1.340088
C153	C	0.181723	-0.305243	1.673421
C154	C	-0.488165	-0.968974	1.080144
C155	C	-0.154832	-0.635641	1.413477
C156	C	0.178502	-0.302308	1.746811
C157	C	-0.389357	-1.058897	1.083791
C158	C	-0.056024	-0.725564	1.417124
C159	C	0.277309	-0.392230	1.750457
C160	C	-0.386142	-1.061836	1.010405
C161	C	-0.052809	-0.728503	1.343738
C162	C	0.280524	-0.395169	1.677071
C163	C	-0.433932	-1.018340	0.971890
C164	C	-0.100598	-0.685006	1.305224
C165	C	0.232735	-0.351673	1.638557
N166	N	-0.473304	-0.982519	0.862486
N167	N	-0.139970	-0.649186	1.195819
N168	N	0.193363	-0.315853	1.529153
N169	N	-0.430634	-1.021344	0.896880
N170	N	-0.097301	-0.688011	1.230213
N171	N	0.236032	-0.354678	1.563546
H172	H	-0.568620	-0.399939	0.476797
H173	H	-0.235287	-0.066606	0.810130
H174	H	0.098047	0.266727	1.143464
H175	H	-0.530156	-0.597978	0.444620
H176	H	-0.196822	-0.264645	0.777953
H177	H	0.136511	0.068689	1.111287
H178	H	-0.374064	-0.406459	0.314034
H179	H	-0.040730	-0.073126	0.647367
H180	H	0.292603	0.260208	0.980701
H181	H	-0.341976	-0.737636	0.287193
H182	H	-0.008642	-0.404303	0.620526
H183	H	0.324691	-0.070969	0.953859
H184	H	-0.523870	-0.936502	0.975405
H185	H	-0.190536	-0.603169	1.308738
H186	H	0.142797	-0.269835	1.642072
H187	H	-0.562240	-0.266799	0.471465
H188	H	-0.228907	0.066534	0.804798
H189	H	0.104427	0.399867	1.138131
H190	H	-0.374241	-1.072710	0.650835
H191	H	-0.040907	-0.739376	0.984168
H192	H	0.292426	-0.406043	1.317501
H193	H	-0.335604	-0.604494	0.281862
H194	H	-0.002271	-0.271161	0.615195
H195	H	0.331062	0.062172	0.948529
H196	H	-0.380083	-1.067372	0.783961
H197	H	-0.046750	-0.734038	1.117295
H198	H	0.286584	-0.400705	1.450628
H199	H	-0.367682	-0.273329	0.308708
H200	H	-0.034348	0.060005	0.642042
H201	H	0.298985	0.393338	0.975375
H202	H	-0.344604	-1.099646	0.982020
H203	H	-0.011270	-0.766312	1.315353
H204	H	0.322063	-0.432979	1.648686
H205	H	-0.553489	-0.909553	0.644210
H206	H	-0.220155	-0.576219	0.977543
H207	H	0.113178	-0.242886	1.310877
H208	H	-0.350449	-1.094308	1.115157
H209	H	-0.017115	-0.760975	1.448490
H210	H	0.316218	-0.427642	1.781823
H211	H	-0.529708	-0.931164	1.108532
H212	H	-0.196375	-0.597831	1.441865
H213	H	0.136958	-0.264497	1.775199
H214	H	-0.536538	-0.731108	0.449948
H215	H	-0.203205	-0.397774	0.783282
H216	H	0.130129	-0.064441	1.116615
H217	H	-0.559337	-0.904227	0.777349
H218	H	-0.226004	-0.570894	1.110683
H219	H	0.107330	-0.237560	1.444016
