data_functionalizedCrystal
_audit_creation_method	'MofGen! by Chris Wilmer'
_symmetry_space_group_name_H-M	'P1'
_symmetry_Int_Tables_number	1
_symmetry_cell_setting	triclinic
loop_
_symmetry_equiv_pos_as_xyz
  x,y,z
_cell_length_a	17.640112
_cell_length_b	21.295417
_cell_length_c	17.640968
_cell_angle_alpha	78.765192
_cell_angle_beta	92.139080
_cell_angle_gamma	101.256239
loop_
_atom_site_label
_atom_site_type_symbol
_atom_site_fract_x
_atom_site_fract_y
_atom_site_fract_z
Zn1	Zn	1.247775	-0.018088	-0.195079
Zn2	Zn	1.747775	0.481912	0.304921
Zn3	Zn	1.221981	-0.147966	-0.068087
Zn4	Zn	1.721981	0.352034	0.431913
Zn5	Zn	1.095099	-0.059037	-0.093722
Zn6	Zn	1.595099	0.440963	0.406278
Zn7	Zn	1.120723	-0.139680	-0.220669
Zn8	Zn	1.620723	0.360320	0.279331
O9	O	1.171395	-0.091193	-0.144389
O10	O	1.671395	0.408807	0.355611
O11	O	1.350625	-0.021647	-0.156795
O12	O	1.850625	0.478353	0.343205
O13	O	1.183631	-0.156775	0.034787
O14	O	1.683631	0.343225	0.534787
O15	O	1.115423	0.034499	-0.107185
O16	O	1.615423	0.534499	0.392815
O17	O	1.331674	-0.117068	-0.063494
O18	O	1.831674	0.382932	0.436506
O19	O	1.227593	0.064584	-0.181652
O20	O	1.727593	0.564584	0.318348
O21	O	1.090412	-0.091439	0.015953
O22	O	1.590412	0.408561	0.515953
O23	O	0.992227	-0.083404	-0.132000
O24	O	1.492227	0.416596	0.368000
O25	O	1.159096	-0.102945	-0.323549
O26	O	1.659096	0.397055	0.176451
O27	O	1.011052	-0.142652	-0.225268
O28	O	1.511052	0.357348	0.274732
O29	O	1.252440	-0.013612	-0.304748
O30	O	1.752440	0.486388	0.195252
O31	O	1.208478	-0.234971	-0.088309
O32	O	1.708478	0.265029	0.411691
O33	O	1.134084	-0.228883	-0.200410
O34	O	1.634084	0.271117	0.299590
C35	C	0.974084	-0.116573	-0.184193
C36	C	1.474084	0.383427	0.315807
C37	C	0.889678	-0.127442	-0.201239
C38	C	1.389678	0.372558	0.298761
C39	C	0.563037	-0.008607	-0.014897
C40	C	1.063037	0.491393	0.485103
C41	C	0.483727	-0.018831	-0.030925
C42	C	0.983727	0.481169	0.469075
C43	C	0.503351	-0.080669	-0.127878
C44	C	1.003351	0.419331	0.372122
C45	C	0.582665	-0.070447	-0.111861
C46	C	1.082665	0.429553	0.388139
C47	C	0.612502	-0.034416	-0.055369
C48	C	1.112502	0.465584	0.444631
C49	C	0.632129	-0.096257	-0.152332
C50	C	1.132129	0.403743	0.347668
C51	C	0.711436	-0.086038	-0.136313
C52	C	1.211436	0.413962	0.363687
C53	C	0.741279	-0.050011	-0.079823
C54	C	1.241279	0.449989	0.420177
C55	C	0.691809	-0.024198	-0.039350
C56	C	1.191809	0.475802	0.460650
C57	C	0.602290	-0.132291	-0.208820
C58	C	1.102290	0.367709	0.291180
C59	C	0.651755	-0.158101	-0.249291
C60	C	1.151755	0.341899	0.250709
C61	C	0.731064	-0.147879	-0.233277
C62	C	1.231064	0.352121	0.266723
C63	C	0.760907	-0.111851	-0.176786
C64	C	1.260907	0.388149	0.323214
C65	C	0.780534	-0.173691	-0.273749
C66	C	1.280534	0.326309	0.226251
C67	C	0.859841	-0.163473	-0.257730
C68	C	1.359841	0.336527	0.242270
C69	C	0.840214	-0.101633	-0.160767
C70	C	1.340214	0.398367	0.339233
C71	C	1.171287	-0.254765	-0.144367
C72	C	1.671287	0.245235	0.355633
C73	C	1.171315	-0.324729	-0.144369
C74	C	1.671315	0.175271	0.355631
C75	C	1.210105	-0.360729	-0.086039
C76	C	1.710105	0.139271	0.413961
C77	C	1.210144	-0.426464	-0.086049
C78	C	1.710144	0.073536	0.413951
C79	C	1.171378	-0.456199	-0.144384
C80	C	1.671378	0.043801	0.355616
C81	C	1.132586	-0.420189	-0.202724
C82	C	1.632586	0.079811	0.297276
C83	C	1.132555	-0.354454	-0.202717
C84	C	1.632555	0.145546	0.297283
N85	N	1.106115	-0.566893	-0.163575
N86	N	1.606115	-0.066893	0.336425
N87	N	1.106146	-0.629339	-0.163577
N88	N	1.606146	-0.129339	0.336423
C89	C	1.171472	-0.654254	-0.144410
C90	C	1.671472	-0.154254	0.355590
N91	N	1.236764	-0.614366	-0.125225
N92	N	1.736764	-0.114366	0.374775
N93	N	1.236731	-0.551916	-0.125220
N94	N	1.736731	-0.051916	0.374780
C95	C	1.171408	-0.527477	-0.144398
C96	C	1.671408	-0.027477	0.355602
C97	C	1.210308	-0.761531	-0.086087
C98	C	1.710308	-0.261531	0.413913
C99	C	1.210349	-0.827266	-0.086102
C100	C	1.710349	-0.327266	0.413898
C101	C	1.132784	-0.820991	-0.202775
C102	C	1.632784	-0.320991	0.297225
C103	C	1.132750	-0.755256	-0.202763
C104	C	1.632750	-0.255256	0.297237
C105	C	1.171510	-0.725531	-0.144415
C106	C	1.671510	-0.225531	0.355585
C107	C	1.369475	-0.065714	-0.104431
C108	C	1.869475	0.434286	0.395569
C109	C	1.453885	-0.054856	-0.087403
C110	C	1.953885	0.445144	0.412597
C111	C	1.211503	-0.052786	-0.342475
C112	C	1.711503	0.447214	0.157525
C113	C	1.228595	-0.036419	-0.426887
C114	C	1.728595	0.463581	0.073113
C115	C	1.171527	0.073024	-0.144424
C116	C	1.671527	0.573024	0.355576
C117	C	1.171584	0.143004	-0.144438
C118	C	1.671584	0.643004	0.355562
C119	C	1.041841	-0.215148	-0.753447
C120	C	1.541841	0.284852	-0.253447
C121	C	1.057917	-0.199759	-0.832762
C122	C	1.557917	0.300241	-0.332762
C123	C	1.155108	-0.106745	-0.813176
C124	C	1.655108	0.393255	-0.313176
C125	C	1.139037	-0.122124	-0.733858
C126	C	1.639037	0.377876	-0.233858
C127	C	1.082403	-0.176327	-0.704000
C128	C	1.582403	0.323673	-0.204000
C129	C	1.179600	-0.083303	-0.684411
C130	C	1.679600	0.416697	-0.184411
C131	C	1.163533	-0.098683	-0.605099
C132	C	1.663533	0.401317	-0.105099
C133	C	1.106903	-0.152885	-0.575235
C134	C	1.606903	0.347115	-0.075235
C135	C	1.066336	-0.191707	-0.624689
C136	C	1.566336	0.308293	-0.124689
C137	C	1.236237	-0.029103	-0.714269
C138	C	1.736237	0.470897	-0.214269
C139	C	1.276800	0.009719	-0.664822
C140	C	1.776800	0.509719	-0.164822
C141	C	1.260729	-0.005659	-0.585510
C142	C	1.760729	0.494341	-0.085510
C143	C	1.204100	-0.059860	-0.555646
C144	C	1.704100	0.440140	-0.055646
C145	C	1.301296	0.033164	-0.536056
C146	C	1.801296	0.533164	-0.036056
C147	C	1.285229	0.017784	-0.456745
C148	C	1.785229	0.517784	0.043255
C149	C	1.188033	-0.075241	-0.476334
C150	C	1.688033	0.424759	0.023666
C151	C	1.131486	-0.129399	0.052935
C152	C	1.631486	0.370601	0.552935
C153	C	1.114541	-0.145569	0.137376
C154	C	1.614541	0.354431	0.637376
H155	H	0.479046	-0.110007	-0.173871
H156	H	0.979046	0.389993	0.326129
F157	F	1.089806	-0.169257	-0.490823
F158	F	1.589806	0.330743	0.009177
H159	H	1.249319	-0.016583	-0.778850
H160	H	1.749319	0.483417	-0.278850
H161	H	0.537713	-0.140610	-0.221860
H162	H	1.037713	0.359390	0.278140
F163	F	1.251643	-0.865579	-0.024019
F164	F	1.751643	-0.365579	0.475981
H165	H	1.241668	-0.336528	-0.038530
H166	H	1.741668	0.163472	0.461470
H167	H	1.241734	-0.455781	-0.038549
H168	H	1.741734	0.044219	0.461451
F169	F	0.912487	-0.190944	-0.300803
F170	F	1.412487	0.309056	0.199197
F171	F	0.431083	0.008638	0.012159
F172	F	0.931083	0.508638	0.512159
F173	F	1.091460	-0.716941	-0.264844
F174	F	1.591460	-0.216941	0.235156
H175	H	1.024882	-0.231377	-0.873021
H176	H	1.524882	0.268623	-0.373021
H177	H	1.101025	-0.444402	-0.250222
H178	H	1.601025	0.055598	0.249778
H179	H	1.020201	-0.235832	-0.600381
H180	H	1.520201	0.264168	-0.100381
H181	H	1.201222	-0.062614	-0.837497
H182	H	1.701222	0.437386	-0.337497
H183	H	0.995706	-0.259273	-0.729140
H184	H	1.495706	0.240727	-0.229140
H185	H	1.101224	-0.845199	-0.250275
H186	H	1.601224	-0.345199	0.249725
F187	F	1.337074	0.067402	-0.696607
F188	F	1.837074	0.567402	-0.196607
F189	F	0.619990	-0.196454	-0.309404
F190	F	1.119990	0.303546	0.190596
H191	H	0.587334	0.020745	0.031092
H192	H	1.087334	0.520745	0.531092
H193	H	1.100967	-0.325141	-0.250217
H194	H	1.600967	0.174859	0.249783
F195	F	1.361575	0.090844	-0.567842
F196	F	1.861575	0.590844	-0.067842
H197	H	1.318258	0.049397	-0.416484
H198	H	1.818258	0.549397	0.083516
F199	F	0.871973	-0.063279	-0.100647
F200	F	1.371973	0.436721	0.399353
F201	F	0.748767	-0.212049	-0.333857
F202	F	1.248767	0.287951	0.166143
F203	F	1.127750	-0.132926	-0.444555
F204	F	1.627750	0.367074	0.055445
H205	H	1.241871	-0.737328	-0.038579
H206	H	1.741871	-0.237328	0.461421
H207	H	0.805856	-0.041693	-0.066780
H208	H	1.305856	0.458307	0.433220
H209	H	0.716105	0.005154	0.006639
H210	H	1.216105	0.505154	0.506639
