data_functionalizedCrystal
_audit_creation_method	'MofGen! by Chris Wilmer'
_symmetry_space_group_name_H-M	'P1'
_symmetry_Int_Tables_number	1
_symmetry_cell_setting	triclinic
loop_
_symmetry_equiv_pos_as_xyz
  x,y,z
_cell_length_a	12.759401
_cell_length_b	12.759400
_cell_length_c	12.759393
_cell_angle_alpha	89.968436
_cell_angle_beta	89.980316
_cell_angle_gamma	90.013799
loop_
_atom_site_label
_atom_site_type_symbol
_atom_site_fract_x
_atom_site_fract_y
_atom_site_fract_z
Zn1	Zn	1.606256	-0.418229	-0.594015
Zn2	Zn	1.606150	-0.593948	-0.418335
Zn3	Zn	1.430557	-0.418281	-0.418350
Zn4	Zn	1.430546	-0.593864	-0.593973
O5	O	1.518377	-0.506081	-0.506168
O6	O	1.753263	-0.441552	-0.570721
O7	O	1.582818	-0.570702	-0.271316
O8	O	1.453913	-0.271253	-0.441677
O9	O	1.753185	-0.570652	-0.441650
O10	O	1.582998	-0.271215	-0.570737
O11	O	1.453811	-0.441640	-0.271327
O12	O	1.283535	-0.441559	-0.441636
O13	O	1.453894	-0.570509	-0.740999
O14	O	1.283527	-0.570559	-0.570665
O15	O	1.582987	-0.441471	-0.741030
O16	O	1.582807	-0.740958	-0.441609
O17	O	1.453791	-0.740896	-0.570650
C18	C	1.245410	-0.506056	-0.506148
C19	C	1.128633	-0.506071	-0.506165
C20	C	1.518315	-0.779048	-0.506146
C21	C	1.518384	-0.895825	-0.506172
C22	C	1.073745	-0.438812	-0.439103
C23	C	0.964021	-0.438837	-0.439116
C24	C	0.964083	-0.573383	-0.573262
C25	C	1.073805	-0.573362	-0.573243
C26	C	1.128573	-0.371521	-0.372025
C27	C	1.073684	-0.304256	-0.304958
C28	C	0.963960	-0.304281	-0.304972
C29	C	0.909124	-0.371571	-0.372051
C30	C	1.585637	-0.950684	-0.439055
C31	C	1.585702	-1.060408	-0.439087
C32	C	1.451252	-1.060404	-0.573357
C33	C	1.451193	-0.950682	-0.573329
C34	C	1.652828	-0.895827	-0.371898
C35	C	1.720086	-0.950686	-0.304775
C36	C	1.720150	-1.060410	-0.304807
C37	C	1.652957	-1.115275	-0.371963
C38	C	1.792411	-0.506106	-0.506189
C39	C	1.909187	-0.506116	-0.506197
C40	C	1.518451	-0.505975	-0.780202
C41	C	1.518482	-0.505929	-0.896978
C42	C	1.518468	-0.232047	-0.506213
C43	C	1.518507	-0.115271	-0.506232
C44	C	1.585710	-0.438733	-0.951858
C45	C	1.585735	-0.438695	-1.061582
C46	C	1.451301	-0.573059	-1.061537
C47	C	1.451272	-0.573091	-0.951815
C48	C	1.652920	-0.371571	-0.897021
C49	C	1.720155	-0.304370	-0.951901
C50	C	1.720180	-0.304332	-1.061626
C51	C	1.652970	-0.371495	-1.116470
C52	C	1.518364	-0.506110	-0.233201
C53	C	1.518537	-0.505859	-0.116425
H54	H	1.217915	-0.371491	-0.372009
Cl55	Cl	1.366647	-0.881710	-0.657708
Cl56	Cl	1.652897	-0.371618	-0.759083
H57	H	0.819780	-0.371591	-0.372052
Cl58	Cl	0.894960	-0.219728	-0.220655
H59	H	1.774867	-0.249682	-0.907240
H60	H	1.396513	-0.627792	-0.907131
Cl61	Cl	0.895147	-0.657970	-0.657584
Cl62	Cl	1.804704	-0.219856	-1.130615
Cl63	Cl	1.366820	-0.657491	-1.130485
Cl64	Cl	1.653046	-0.757889	-0.372147
Cl65	Cl	1.142618	-0.219677	-0.220625
Cl66	Cl	1.652990	-0.371430	-1.254410
H67	H	1.774798	-0.906010	-0.250105
H68	H	1.774922	-1.105074	-0.250160
Cl69	Cl	1.142813	-0.657920	-0.657548
H70	H	1.653024	-1.204620	-0.371992
H71	H	1.396546	-1.105083	-0.628031
