data_functionalizedCrystal
_audit_creation_method	'MofGen! by Chris Wilmer'
_symmetry_space_group_name_H-M	'P1'
_symmetry_Int_Tables_number	1
_symmetry_cell_setting	triclinic
loop_
_symmetry_equiv_pos_as_xyz
  x,y,z
_cell_length_a	19.288867
_cell_length_b	10.540539
_cell_length_c	17.766277
_cell_angle_alpha	90.002391
_cell_angle_beta	90.004231
_cell_angle_gamma	83.831280
loop_
_atom_site_label
_atom_site_type_symbol
_atom_site_fract_x
_atom_site_fract_y
_atom_site_fract_z
O1	O	0.922405	0.158355	0.062564
O2	O	1.422405	0.658355	0.562564
O3	O	0.720287	0.179712	0.062571
O4	O	1.220287	0.679712	0.562571
O5	O	0.825957	-0.015776	0.062567
O6	O	1.325957	0.484224	0.562567
O7	O	0.816735	0.353843	0.062569
O8	O	1.316735	0.853843	0.562569
O9	O	0.825946	-0.015780	-0.062622
O10	O	1.325946	0.484220	0.437378
O11	O	0.720276	0.179708	-0.062617
O12	O	1.220276	0.679708	0.437383
O13	O	0.922393	0.158350	-0.062624
O14	O	1.422393	0.658350	0.437376
Cu15	Cu	0.821333	0.169028	-0.074051
Cu16	Cu	1.321333	0.669028	0.425949
Cu17	Cu	0.821347	0.169034	0.073999
Cu18	Cu	1.321347	0.669034	0.573999
O19	O	0.816723	0.353838	-0.062620
O20	O	1.316723	0.853838	0.437380
C21	C	0.694400	0.179022	-0.000022
C22	C	1.194400	0.679022	0.499978
C23	C	0.617283	0.176958	-0.000019
C24	C	1.117283	0.676958	0.499981
C25	C	0.061625	0.162092	0.068212
C26	C	0.561625	0.662092	0.568212
C27	C	0.134085	0.164024	0.068215
C28	C	0.634085	0.664024	0.568215
C29	C	0.170314	0.164994	-0.000025
C30	C	0.670314	0.664994	0.499975
C31	C	0.134078	0.163998	-0.068273
C32	C	0.634078	0.663998	0.431727
C33	C	0.061620	0.162053	-0.068274
C34	C	0.561620	0.662053	0.431726
C35	C	0.280153	0.242416	-0.052305
C36	C	0.780153	0.742416	0.447695
C37	C	0.352609	0.244368	-0.052302
C38	C	0.852609	0.744368	0.447698
C39	C	0.393800	0.170986	-0.000025
C40	C	0.893800	0.670986	0.499975
C41	C	0.362524	0.095667	0.052260
C42	C	0.862524	0.595667	0.552260
C43	C	0.290065	0.093723	0.052259
C44	C	0.790065	0.593723	0.552259
C45	C	0.248883	0.167101	-0.000032
C46	C	0.748883	0.667101	0.499968
C47	C	0.508597	0.174067	0.068221
C48	C	1.008597	0.674067	0.568221
C49	C	0.581059	0.175991	0.068221
C50	C	1.081059	0.675991	0.568221
C51	C	0.581050	0.175978	-0.068269
C52	C	1.081050	0.675978	0.431731
C53	C	0.508590	0.174041	-0.068267
C54	C	1.008590	0.674041	0.431733
C55	C	0.472367	0.173092	-0.000020
C56	C	0.972367	0.673092	0.499980
C57	C	0.825260	-0.063066	-0.000026
C58	C	1.325260	0.436934	0.499974
C59	C	0.823191	-0.203968	-0.000022
C60	C	1.323191	0.296032	0.499978
C61	C	0.743902	-0.385628	0.000262
C62	C	1.243902	0.114372	0.500262
C63	C	0.745999	-0.239057	-0.000020
C64	C	1.245999	0.260943	0.499980
C65	C	0.860332	-0.266455	-0.071512
C66	C	1.360332	0.233545	0.428488
C67	C	0.857698	-0.412941	-0.071572
C68	C	1.357698	0.087059	0.428428
C69	C	0.859281	-0.413489	0.070790
C70	C	1.359281	0.086511	0.570790
C71	C	0.859992	-0.266523	0.071736
C72	C	1.359992	0.233477	0.571736
C73	C	0.948280	0.159040	-0.000029
C74	C	1.448280	0.659040	0.499971
C75	C	1.025398	0.161104	-0.000027
C76	C	1.525398	0.661104	0.499973
C77	C	0.817421	0.401128	-0.000025
C78	C	1.317421	0.901128	0.499975
C79	C	0.819490	0.542030	-0.000024
C80	C	1.319490	1.042030	0.499976
N81	N	0.821329	0.169024	-0.178182
N82	N	1.321329	0.669024	0.321818
C83	C	0.868150	0.082490	-0.782473
C84	C	1.368150	0.582490	-0.282473
C85	C	0.868151	0.082493	-0.703671
C86	C	1.368151	0.582493	-0.203671
C87	C	0.821348	0.169022	-0.664271
C88	C	1.321348	0.669022	-0.164271
C89	C	0.774552	0.255577	-0.703679
C90	C	1.274552	0.755577	-0.203679
C91	C	0.774557	0.255580	-0.782479
C92	C	1.274557	0.755580	-0.282479
C93	C	0.758168	0.185962	-0.539437
C94	C	1.258168	0.685962	-0.039437
C95	C	0.758163	0.185950	-0.460638
C96	C	1.258163	0.685950	0.039362
C97	C	0.821332	0.169020	-0.421224
C98	C	1.321332	0.669020	0.078776
C99	C	0.884511	0.152076	-0.460619
C100	C	1.384511	0.652076	0.039381
C101	C	0.884516	0.152079	-0.539420
C102	C	1.384516	0.652079	-0.039420
C103	C	0.821337	0.169029	-0.578825
C104	C	1.321337	0.669029	-0.078825
C105	C	0.868129	0.082480	-0.296380
C106	C	1.368129	0.582480	0.203620
C107	C	0.868131	0.082492	-0.217576
C108	C	1.368131	0.582492	0.282424
C109	C	0.774527	0.255570	-0.217586
C110	C	1.274527	0.755570	0.282414
C111	C	0.774531	0.255564	-0.296388
C112	C	1.274531	0.755564	0.203612
C113	C	0.821331	0.169013	-0.335780
C114	C	1.321331	0.669013	0.164220
N115	N	0.821358	0.169029	0.178129
N116	N	1.321358	0.669029	0.678129
H117	H	0.032137	0.161314	0.123784
H118	H	0.532137	0.661314	0.623784
H119	H	0.163581	0.164785	-0.123835
H120	H	0.663581	0.664785	0.376165
H121	H	0.264604	0.032393	0.094830
H122	H	0.764604	0.532393	0.594830
C123	C	0.919617	-0.012710	-0.660319
C124	C	1.419617	0.487290	-0.160319
H125	H	0.912911	-0.000311	-0.607747
H126	H	1.412911	0.499689	-0.107747
H127	H	0.911649	-0.097385	-0.673240
H128	H	1.411649	0.402615	-0.173240
H129	H	0.966045	0.000851	-0.673221
H130	H	1.466045	0.500851	-0.173221
H131	H	0.834303	-0.444483	0.124975
H132	H	1.334303	0.055517	0.624975
H133	H	0.830239	-0.440531	-0.125011
H134	H	1.330239	0.059469	0.374989
C135	C	0.620912	0.177085	0.143286
C136	C	1.120912	0.677085	0.643286
H137	H	0.669255	0.178367	0.133514
H138	H	1.169255	0.678367	0.633514
H139	H	0.604108	0.250781	0.171318
H140	H	1.104108	0.750781	0.671318
H141	H	0.613969	0.102764	0.171333
H142	H	1.113969	0.602764	0.671333
H143	H	0.915036	-0.461957	0.071269
H144	H	1.415036	0.038043	0.571269
H145	H	0.479093	0.173241	-0.123834
H146	H	0.979093	0.673241	0.376166
H147	H	0.736453	0.326052	-0.814558
H148	H	1.236453	0.826052	-0.314558
H149	H	0.246622	0.302167	-0.094884
H150	H	0.746622	0.802167	0.405116
C151	C	0.688673	0.204628	-0.417307
C152	C	1.188673	0.704628	0.082693
H153	H	0.697716	0.202198	-0.364732
H154	H	1.197716	0.702198	0.135268
H155	H	0.664322	0.284813	-0.430229
H156	H	1.164322	0.784813	0.069771
H157	H	0.661114	0.138385	-0.430221
H158	H	1.161114	0.638385	0.069779
H159	H	0.832816	-0.225057	0.124622
H160	H	1.332816	0.274943	0.624622
C161	C	0.620893	0.177043	-0.143332
C162	C	1.120893	0.677043	0.356668
H163	H	0.669235	0.178349	-0.133559
H164	H	1.169235	0.678349	0.366441
H165	H	0.613946	0.102720	-0.171371
H166	H	1.113946	0.602720	0.328629
H167	H	0.604086	0.250736	-0.171371
H168	H	1.104086	0.750736	0.328629
H169	H	0.479103	0.173290	0.123792
H170	H	0.979103	0.673290	0.623792
H171	H	0.378067	0.305728	-0.094860
H172	H	0.878067	0.805728	0.405140
H173	H	0.163587	0.164836	0.123785
H174	H	0.663587	0.664836	0.623785
H175	H	0.032124	0.161254	-0.123844
H176	H	0.532124	0.661254	0.376156
H177	H	0.716774	-0.195801	0.051227
H178	H	1.216774	0.304199	0.551227
H179	H	0.916271	-0.243555	0.076051
H180	H	1.416271	0.256445	0.576051
C181	C	0.702708	-0.423355	0.069510
C182	C	1.202708	0.076645	0.569510
H183	H	0.731234	-0.483568	0.098868
H184	H	1.231234	0.016432	0.598868
H185	H	0.689109	-0.349635	0.098951
H186	H	1.189109	0.150365	0.598951
H187	H	0.662368	-0.460169	0.053430
H188	H	1.162368	0.039831	0.553430
H189	H	0.713529	-0.415161	-0.050716
H190	H	1.213529	0.084839	0.449284
H191	H	0.396059	0.035916	0.094831
H192	H	0.896059	0.535916	0.594831
H193	H	0.716560	-0.196647	-0.051351
H194	H	1.216560	0.303353	0.448649
H195	H	0.935958	0.138286	-0.571492
H196	H	1.435958	0.638286	-0.071492
H197	H	0.913212	-0.462146	-0.074817
H198	H	1.413212	0.037854	0.425183
H199	H	0.906259	0.012018	-0.814543
H200	H	1.406259	0.512018	-0.314543
C201	C	0.936909	-0.237959	-0.075114
C202	C	1.436909	0.262041	0.424886
H203	H	0.946932	-0.187573	-0.032951
H204	H	1.446932	0.312427	0.467049
H205	H	0.966640	-0.315880	-0.074453
H206	H	1.466640	0.184120	0.425547
H207	H	0.944393	-0.192815	-0.120158
H208	H	1.444393	0.307185	0.379842
H209	H	0.834522	-0.223283	-0.124711
H210	H	1.334522	0.276717	0.375289
H211	H	0.935950	0.138300	-0.428531
H212	H	1.435950	0.638300	0.071469
H213	H	0.906239	0.012008	-0.328454
H214	H	1.406239	0.512008	0.171546
H215	H	0.906239	0.012026	-0.185497
H216	H	1.406239	0.512026	0.314503
H217	H	0.736422	0.326029	-0.185507
H218	H	1.236422	0.826029	0.314493
H219	H	0.736426	0.326027	-0.328468
H220	H	1.236426	0.826027	0.171532
C221	C	0.688682	0.204790	-0.582784
C222	C	1.188682	0.704790	-0.082784
H223	H	0.651057	0.214924	-0.548038
H224	H	1.151057	0.714924	-0.048038
H225	H	0.687716	0.278751	-0.613476
H226	H	1.187716	0.778751	-0.113476
H227	H	0.684401	0.132351	-0.613572
H228	H	1.184401	0.632351	-0.113572
C229	C	0.723070	0.350756	-0.660342
C230	C	1.223070	0.850756	-0.160342
H231	H	0.729764	0.338353	-0.607768
H232	H	1.229764	0.838353	-0.107768
H233	H	0.731033	0.435437	-0.673250
H234	H	1.231033	0.935437	-0.173250
H235	H	0.676647	0.337184	-0.673266
H236	H	1.176647	0.837184	-0.173266
