data_functionalizedCrystal
_audit_creation_method	'MofGen! by Chris Wilmer'
_symmetry_space_group_name_H-M	'P1'
_symmetry_Int_Tables_number	1
_symmetry_cell_setting	triclinic
loop_
_symmetry_equiv_pos_as_xyz
  x,y,z
_cell_length_a	21.295418
_cell_length_b	21.295418
_cell_length_c	18.050582
_cell_angle_alpha	89.965893
_cell_angle_beta	89.974933
_cell_angle_gamma	90.043213
loop_
_atom_site_label
_atom_site_type_symbol
_atom_site_fract_x
_atom_site_fract_y
_atom_site_fract_z
Zn1	Zn	-0.250383	0.962310	-0.420280
Zn2	Zn	0.082950	1.295643	-0.086947
Zn3	Zn	0.416283	1.628976	0.246387
Zn4	Zn	-0.355645	0.962235	-0.296085
Zn5	Zn	-0.022311	1.295569	0.037249
Zn6	Zn	0.311022	1.628902	0.370582
Zn7	Zn	-0.250422	0.857050	-0.296062
Zn8	Zn	0.082911	1.190384	0.037271
Zn9	Zn	0.416244	1.523717	0.370604
Zn10	Zn	-0.355648	0.857008	-0.420191
Zn11	Zn	-0.022314	1.190341	-0.086858
Zn12	Zn	0.311019	1.523674	0.246475
O13	O	-0.303025	0.909651	-0.358155
O14	O	0.030309	1.242984	-0.024821
O15	O	0.363642	1.576317	0.308512
O16	O	-0.264329	1.050389	-0.403851
O17	O	0.069004	1.383722	-0.070518
O18	O	0.402338	1.717056	0.262815
O19	O	-0.341702	0.948269	-0.192157
O20	O	-0.008368	1.281602	0.141176
O21	O	0.324965	1.614936	0.474510
O22	O	-0.162328	0.871062	-0.312568
O23	O	0.171006	1.204395	0.020765
O24	O	0.504339	1.537729	0.354099
O25	O	-0.341664	1.050335	-0.312606
O26	O	-0.008331	1.383668	0.020728
O27	O	0.325003	1.717001	0.354061
O28	O	-0.162299	0.948396	-0.403830
O29	O	0.171034	1.281729	-0.070497
O30	O	0.504367	1.615062	0.262837
O31	O	-0.264395	0.870990	-0.192141
O32	O	0.068938	1.204323	0.141193
O33	O	0.402271	1.537657	0.474526
O34	O	-0.264398	0.768955	-0.312482
O35	O	0.068935	1.102289	0.020851
O36	O	0.402268	1.435622	0.354185
O37	O	-0.341669	0.870990	-0.524128
O38	O	-0.008336	1.204323	-0.190794
O39	O	0.324997	1.537656	0.142539
O40	O	-0.341707	0.768924	-0.403679
O41	O	-0.008374	1.102257	-0.070346
O42	O	0.324960	1.435591	0.262987
O43	O	-0.264332	0.948354	-0.524193
O44	O	0.069001	1.281688	-0.190860
O45	O	0.402335	1.615021	0.142474
O46	O	-0.443735	0.948228	-0.312520
O47	O	-0.110401	1.281561	0.020814
O48	O	0.222932	1.614894	0.354147
O49	O	-0.443737	0.870918	-0.403701
O50	O	-0.110403	1.204251	-0.070367
O51	O	0.222930	1.537584	0.262966
C52	C	-0.466576	0.909577	-0.358119
C53	C	-0.133243	1.242910	-0.024786
C54	C	0.200090	1.576244	0.308548
C55	C	-0.536544	0.909603	-0.358129
C56	C	-0.203211	1.242937	-0.024795
C57	C	0.130122	1.576270	0.308538
C58	C	-0.303058	0.746099	-0.358069
C59	C	0.030276	1.079432	-0.024736
C60	C	0.363609	1.412766	0.308598
C61	C	-0.303087	0.676131	-0.358050
C62	C	0.030246	1.009464	-0.024717
C63	C	0.363580	1.342798	0.308617
C64	C	-1.035980	0.950057	-0.310797
C65	C	-0.702647	1.283391	0.022537
C66	C	-0.369313	1.616724	0.355870
C67	C	-0.970238	0.950033	-0.310779
C68	C	-0.636904	1.283367	0.022554
C69	C	-0.303571	1.616700	0.355888
C70	C	-0.937384	0.909739	-0.358207
C71	C	-0.604050	1.243073	-0.024873
C72	C	-0.270717	1.576406	0.308460
C73	C	-0.970278	0.869455	-0.405642
C74	C	-0.636944	1.202788	-0.072309
C75	C	-0.303611	1.536122	0.261025
C76	C	-1.036019	0.869476	-0.405653
C77	C	-0.702686	1.202809	-0.072320
C78	C	-0.369352	1.536142	0.261014
N79	N	-0.834137	0.904841	-0.423190
N80	N	-0.500804	1.238174	-0.089856
N81	N	-0.167470	1.571508	0.243477
N82	N	-0.771686	0.904825	-0.423177
N83	N	-0.438352	1.238159	-0.089844
N84	N	-0.105019	1.571492	0.243490
C85	C	-0.739309	0.909674	-0.358175
C86	C	-0.405976	1.243007	-0.024842
C87	C	-0.072642	1.576340	0.308491
N88	N	-0.771743	0.914551	-0.293185
N89	N	-0.438410	1.247885	0.040148
N90	N	-0.105076	1.581218	0.373481
N91	N	-0.834200	0.914570	-0.293199
N92	N	-0.500867	1.247904	0.040135
N93	N	-0.167533	1.581237	0.373468
C94	C	-0.866098	0.909712	-0.358200
C95	C	-0.532765	1.243046	-0.024866
C96	C	-0.199432	1.576379	0.308467
C97	C	-0.635137	0.949927	-0.310720
C98	C	-0.301804	1.283260	0.022613
C99	C	0.031529	1.616593	0.355946
C100	C	-0.569394	0.949898	-0.310702
C101	C	-0.236060	1.283232	0.022632
C102	C	0.097273	1.616565	0.355965
C103	C	-0.569435	0.869323	-0.405571
C104	C	-0.236102	1.202657	-0.072238
C105	C	0.097232	1.535990	0.261096
C106	C	-0.635178	0.869348	-0.405583
C107	C	-0.301844	1.202682	-0.072250
C108	C	0.031489	1.536015	0.261083
C109	C	-0.668025	0.909653	-0.358159
C110	C	-0.334691	1.242987	-0.024826
C111	C	-0.001358	1.576320	0.308508
C112	C	-0.343395	0.643265	-0.405465
C113	C	-0.010062	0.976598	-0.072132
C114	C	0.323272	1.309931	0.261201
C115	C	-0.343379	0.577522	-0.405499
C116	C	-0.010046	0.910855	-0.072165
C117	C	0.323287	1.244189	0.261168
C118	C	-0.303063	0.544648	-0.358104
C119	C	0.030271	0.877982	-0.024770
C120	C	0.363604	1.211315	0.308563
C121	C	-0.262747	0.577523	-0.310685
C122	C	0.070586	0.910856	0.022648
C123	C	0.403920	1.244190	0.355982
C124	C	-0.262759	0.643264	-0.310658
C125	C	0.070574	0.976597	0.022675
C126	C	0.403908	1.309931	0.356008
N127	N	-0.298140	0.441381	-0.293148
N128	N	0.035193	0.774715	0.040185
N129	N	0.368526	1.108048	0.373518
N130	N	-0.298133	0.378930	-0.293176
N131	N	0.035201	0.712263	0.040157
N132	N	0.368534	1.045597	0.373491
C133	C	-0.303022	0.346574	-0.358182
C134	C	0.030311	0.679907	-0.024849
C135	C	0.363644	1.013241	0.308484
N136	N	-0.307933	0.379028	-0.423162
N137	N	0.025400	0.712362	-0.089828
N138	N	0.358734	1.045695	0.243505
N139	N	-0.307944	0.441485	-0.423133
N140	N	0.025389	0.774819	-0.089800
N141	N	0.358723	1.108152	0.243533
C142	C	-0.303045	0.473363	-0.358128
C143	C	0.030289	0.806696	-0.024794
C144	C	0.363622	1.140030	0.308539
C145	C	-0.343316	0.242422	-0.405638
C146	C	-0.009982	0.575755	-0.072304
C147	C	0.323351	0.909089	0.261029
C148	C	-0.343296	0.176678	-0.405672
C149	C	-0.009962	0.510012	-0.072339
C150	C	0.323371	0.843345	0.260994
C151	C	-0.262667	0.176680	-0.310852
C152	C	0.070667	0.510014	0.022481
C153	C	0.404000	0.843347	0.355815
C154	C	-0.262683	0.242423	-0.310824
C155	C	0.070650	0.575756	0.022509
C156	C	0.403984	0.909089	0.355843
C157	C	-0.303011	0.275290	-0.358216
C158	C	0.030322	0.608623	-0.024883
C159	C	0.363656	0.941956	0.308451
C160	C	-0.138834	0.909742	-0.358206
C161	C	0.194499	1.243075	-0.024873
C162	C	0.527832	1.576409	0.308460
C163	C	-0.068866	0.909781	-0.358229
C164	C	0.264467	1.243114	-0.024895
C165	C	0.597801	1.576447	0.308438
C166	C	-0.302997	0.909675	-0.551860
C167	C	0.030337	1.243009	-0.218527
C168	C	0.363670	1.576342	0.114806
C169	C	-0.302985	0.909686	-0.634406
C170	C	0.030349	1.243019	-0.301073
C171	C	0.363682	1.576353	0.032261
C172	C	-0.302992	1.073841	-0.358241
C173	C	0.030342	1.407174	-0.024908
C174	C	0.363675	1.740508	0.308426
C175	C	-0.302978	1.143809	-0.358278
C176	C	0.030355	1.477143	-0.024944
C177	C	0.363689	1.810476	0.308389
C178	C	-0.344983	0.867647	-0.833822
C179	C	-0.011650	1.200980	-0.500488
C180	C	0.321683	1.534314	-0.167155
C181	C	-0.360355	0.925079	-0.883235
C182	C	-0.027022	1.258412	-0.549901
C183	C	0.306312	1.591745	-0.216568
C184	C	-0.302937	0.909717	-0.785537
C185	C	0.030397	1.243050	-0.452203
C186	C	0.363730	1.576384	-0.118870
C187	C	-0.287548	0.852317	-0.883205
C188	C	0.045786	1.185650	-0.549872
C189	C	0.379119	1.518984	-0.216538
C190	C	-0.302891	0.909742	-0.931522
C191	C	0.030442	1.243075	-0.598188
C192	C	0.363775	1.576409	-0.264855
C193	C	-0.318338	0.967179	-0.833863
C194	C	0.014995	1.300512	-0.500529
C195	C	0.348328	1.633845	-0.167196
C196	C	-0.245504	0.894378	-0.833829
C197	C	0.087829	1.227712	-0.500495
C198	C	0.421162	1.561045	-0.167162
C199	C	-0.260854	0.951849	-0.883220
C200	C	0.072479	1.285183	-0.549886
C201	C	0.405812	1.618516	-0.216553
C202	C	-0.302964	0.909702	-0.701438
C203	C	0.030369	1.243035	-0.368105
C204	C	0.363702	1.576368	-0.034772
C205	C	-0.302864	0.909764	-1.015618
C206	C	0.030470	1.243097	-0.682285
C207	C	0.363803	1.576430	-0.348952
C208	C	-0.303007	0.909662	-0.165203
C209	C	0.030326	1.242996	0.168131
C210	C	0.363660	1.576329	0.501464
C211	C	-0.302842	0.909774	-0.082657
C212	C	0.030492	1.243107	0.250676
C213	C	0.363825	1.576441	0.584009
H214	H	-1.062720	0.982875	-0.272177
H215	H	-0.729387	1.316208	0.061156
H216	H	-0.396054	1.649541	0.394489
H217	H	-0.229837	0.149915	-0.272265
H218	H	0.103497	0.483249	0.061068
H219	H	0.436830	0.816582	0.394401
H220	H	-0.661883	0.982745	-0.272104
H221	H	-0.328550	1.316078	0.061230
H222	H	0.004784	1.649411	0.394563
H223	H	-0.229863	0.269183	-0.272210
H224	H	0.103470	0.602516	0.061124
H225	H	0.436804	0.935850	0.394457
F226	F	-0.182064	0.877380	-0.805440
F227	F	0.151269	1.210713	-0.472106
F228	F	0.484603	1.544046	-0.138773
H229	H	-0.274551	0.803764	-0.904881
H230	H	0.058783	1.137098	-0.571547
H231	H	0.392116	1.470431	-0.238214
H232	H	-0.661954	0.836552	-0.444210
H233	H	-0.328620	1.169886	-0.110877
H234	H	0.004713	1.503219	0.222457
H235	H	-0.331391	1.015746	-0.812279
H236	H	0.001943	1.349079	-0.478945
H237	H	0.335276	1.682412	-0.145612
F238	F	-0.423812	0.942057	-0.911602
F239	F	-0.090479	1.275390	-0.578268
F240	F	0.242854	1.608723	-0.244935
F241	F	-0.391518	0.821189	-0.805470
F242	F	-0.058185	1.154522	-0.472137
F243	F	0.275148	1.487856	-0.138804
F244	F	-0.214353	0.998417	-0.911394
F245	F	0.118980	1.331750	-0.578061
F246	F	0.452314	1.665084	-0.244727
F247	F	-0.534474	0.826432	-0.456040
F248	F	-0.201141	1.159766	-0.122707
F249	F	0.132193	1.493099	0.210627
F250	F	-0.935312	0.826570	-0.456116
F251	F	-0.601978	1.159903	-0.122783
F252	F	-0.268645	1.493237	0.210550
F253	F	-1.071020	0.826607	-0.456140
F254	F	-0.737686	1.159940	-0.122807
F255	F	-0.404353	1.493274	0.210526
F256	F	-0.935231	0.992900	-0.260290
F257	F	-0.601897	1.326234	0.073043
F258	F	-0.268564	1.659567	0.406377
H259	H	-0.376118	0.149919	-0.444288
H260	H	-0.042785	0.483253	-0.110955
H261	H	0.290548	0.816586	0.222378
F262	F	-0.386314	0.678240	-0.455907
F263	F	-0.052980	1.011573	-0.122573
F264	F	0.280353	1.344907	0.210760
F265	F	-0.534394	0.992768	-0.260214
F266	F	-0.201061	1.326101	0.073119
F267	F	0.132273	1.659435	0.406452
F268	F	-0.386282	0.542536	-0.455967
F269	F	-0.052949	0.875869	-0.122634
F270	F	0.280384	1.209203	0.210700
H271	H	-0.229934	0.670024	-0.272047
H272	H	0.103400	1.003357	0.061287
H273	H	0.436733	1.336690	0.394620
F274	F	-0.386233	0.277403	-0.456079
F275	F	-0.052899	0.610737	-0.122746
F276	F	0.280434	0.944070	0.210588
F277	F	-0.219836	0.542536	-0.260247
F278	F	0.113497	0.875869	0.073087
F279	F	0.446830	1.209202	0.406420
