data_functionalizedCrystal
_audit_creation_method	'MofGen! by Chris Wilmer'
_symmetry_space_group_name_H-M	'P1'
_symmetry_Int_Tables_number	1
_symmetry_cell_setting	triclinic
loop_
_symmetry_equiv_pos_as_xyz
  x,y,z
_cell_length_a	14.519709
_cell_length_b	10.489741
_cell_length_c	12.996460
_cell_angle_alpha	89.994152
_cell_angle_beta	90.000034
_cell_angle_gamma	84.109659
loop_
_atom_site_label
_atom_site_type_symbol
_atom_site_fract_x
_atom_site_fract_y
_atom_site_fract_z
O1	O	1.224780	0.167204	-0.085432
O2	O	1.724780	0.667204	0.414568
O3	O	0.956410	0.186894	-0.085464
O4	O	1.456410	0.686894	0.414536
O5	O	1.096702	-0.008613	-0.085441
O6	O	1.596702	0.491387	0.414559
O7	O	1.084488	0.362710	-0.085455
O8	O	1.584488	0.862710	0.414545
O9	O	1.096687	-0.008624	0.085693
O10	O	1.596687	0.491376	0.585693
O11	O	0.956395	0.186883	0.085670
O12	O	1.456395	0.686883	0.585670
O13	O	1.224765	0.167193	0.085702
O14	O	1.724765	0.667193	0.585702
Cu15	Cu	1.090579	0.177037	0.101312
Cu16	Cu	1.590579	0.677037	0.601312
Cu17	Cu	1.090596	0.177050	-0.101074
Cu18	Cu	1.590596	0.677050	0.398926
O19	O	1.084474	0.362699	0.085679
O20	O	1.584474	0.862699	0.585679
C21	C	0.922038	0.185971	0.000099
C22	C	1.422038	0.685971	0.500099
C23	C	0.819642	0.183221	0.000088
C24	C	1.319642	0.683221	0.500088
C25	C	0.444691	0.173098	0.000135
C26	C	0.944691	0.673098	0.500135
C27	C	0.549014	0.175909	0.000121
C28	C	1.049014	0.675909	0.500121
C29	C	0.632163	0.178159	0.000110
C30	C	1.132163	0.678159	0.500110
C31	C	0.736493	0.180971	0.000099
C32	C	1.236493	0.680971	0.500099
C33	C	1.095772	-0.056140	0.000125
C34	C	1.595772	0.443860	0.500125
C35	C	1.093012	-0.197741	0.000123
C36	C	1.593012	0.302259	0.500123
C37	C	1.003749	-0.264951	0.000105
C38	C	1.503749	0.235049	0.500105
C39	C	1.045909	-0.357518	0.084488
C40	C	1.545909	0.142482	0.584488
C41	C	1.045944	-0.357482	-0.084237
C42	C	1.545944	0.142518	0.415763
C43	C	1.135209	-0.288443	0.084575
C44	C	1.635209	0.211557	0.584575
C45	C	1.135232	-0.288398	-0.084225
C46	C	1.635232	0.211602	0.415775
C47	C	1.177457	-0.380938	0.000178
C48	C	1.677457	0.119062	0.500178
C49	C	1.259137	0.168116	0.000136
C50	C	1.759137	0.668116	0.500136
C51	C	1.361533	0.170866	0.000142
C52	C	1.861533	0.670866	0.500142
C53	C	1.085403	0.410227	0.000111
C54	C	1.585403	0.910227	0.500111
C55	C	1.088163	0.551828	0.000106
C56	C	1.588163	1.051828	0.500106
N57	N	1.090573	0.177027	0.243659
N58	N	1.590573	0.677027	0.743659
N59	N	1.090609	0.177049	-0.243421
N60	N	1.590609	0.677049	0.256579
C61	C	1.090595	0.177051	0.663473
C62	C	1.590595	0.677051	1.163473
C63	C	1.090586	0.177049	0.546668
C64	C	1.590586	0.677049	1.046668
C65	C	1.090585	0.177040	0.453570
C66	C	1.590585	0.677040	0.953570
C67	C	1.090575	0.177036	0.336757
C68	C	1.590575	0.677036	0.836757
H69	H	1.008133	-0.388140	0.155819
H70	H	1.508133	0.111860	0.655819
N71	N	0.911678	-0.201715	0.000203
N72	N	1.411678	0.298285	0.500203
N73	N	0.857798	-0.219843	0.072537
N74	N	1.357798	0.280157	0.572537
H75	H	0.792774	-0.175183	0.072611
H76	H	1.292774	0.324817	0.572611
H77	H	1.250914	-0.431128	0.000234
H78	H	1.750914	0.068872	0.500234
H79	H	1.172975	-0.257742	-0.155560
H80	H	1.672975	0.242258	0.344440
N81	N	0.998576	-0.395850	-0.173744
N82	N	1.498576	0.104150	0.326256
N83	N	1.039772	-0.471365	-0.236927
N84	N	1.539772	0.028635	0.263073
H85	H	1.006314	-0.498459	-0.300139
H86	H	1.506314	0.001541	0.199861
N87	N	1.182543	-0.250255	0.174164
N88	N	1.682543	0.249745	0.674164
N89	N	1.192275	-0.134601	0.188648
N90	N	1.692275	0.365399	0.688648
H91	H	1.225702	-0.107626	0.251920
H92	H	1.725702	0.392374	0.751920
