data_functionalizedCrystal
_audit_creation_method	'MofGen! by Chris Wilmer'
_symmetry_space_group_name_H-M	'P1'
_symmetry_Int_Tables_number	1
_symmetry_cell_setting	triclinic
loop_
_symmetry_equiv_pos_as_xyz
  x,y,z
_cell_length_a	27.732048
_cell_length_b	10.489741
_cell_length_c	8.965430
_cell_angle_alpha	89.999293
_cell_angle_beta	90.001729
_cell_angle_gamma	96.409086
loop_
_atom_site_label
_atom_site_type_symbol
_atom_site_fract_x
_atom_site_fract_y
_atom_site_fract_z
O1	O	0.641885	-0.151746	-0.123847
O2	O	0.501237	-0.174821	-0.123892
O3	O	0.574761	0.022455	-0.123859
O4	O	0.568361	-0.349022	-0.123879
O5	O	0.574755	0.022442	0.124220
O6	O	0.501231	-0.174834	0.124187
O7	O	0.641879	-0.151760	0.124232
Cu8	Cu	0.571554	-0.163298	0.146861
Cu9	Cu	0.571562	-0.163282	-0.146521
O10	O	0.568354	-0.349035	0.124200
C11	C	0.483224	-0.174343	0.000142
C12	C	0.429560	-0.172885	0.000125
N13	N	0.571553	-0.163308	0.353210
C14	C	0.574275	0.069959	0.000179
C15	C	0.572828	0.211525	0.000176
C16	C	0.091423	-0.280280	0.000184
C17	C	-0.110271	-0.274868	0.000198
O18	O	-0.140907	-0.373073	0.000257
N19	N	-0.130133	-0.157892	0.000201
C20	C	-0.099568	-0.042260	0.000211
O21	O	-0.121090	0.057360	0.000230
C22	C	0.102124	-0.047673	0.000208
C23	C	0.121984	-0.164657	0.000190
C24	C	0.111282	-0.397254	0.000167
C25	C	0.161703	-0.398606	0.000155
C26	C	0.192264	-0.282983	0.000161
C27	C	0.172404	-0.166008	0.000178
C28	C	0.132688	0.067958	0.000229
C29	C	0.183114	0.066594	0.000232
C30	C	0.202973	-0.050390	0.000213
C31	C	0.253385	-0.051737	0.000172
N32	N	0.273247	-0.168714	0.000168
C33	C	0.242687	-0.284336	0.000163
C34	C	-0.205460	-0.039426	0.000210
C35	C	-0.255883	-0.038073	0.000208
C36	C	-0.266583	-0.270682	0.000197
C37	C	-0.216159	-0.272034	0.000188
C38	C	-0.185598	-0.156403	0.000206
C39	C	0.348574	-0.287166	0.000137
C40	C	0.398999	-0.288508	0.000120
C41	C	0.409694	-0.055900	0.000138
C42	C	0.359273	-0.054557	0.000148
C43	C	0.328714	-0.170201	0.000153
O44	O	0.284050	0.046415	0.000129
O45	O	0.264218	-0.383942	0.000177
C46	C	0.041002	-0.278928	0.000196
C47	C	0.021143	-0.161954	0.000213
C48	C	0.051703	-0.046331	0.000218
C49	C	-0.029280	-0.160600	0.000211
C50	C	-0.059841	-0.276223	0.000205
C51	C	-0.039979	-0.393199	0.000202
C52	C	0.010441	-0.394551	0.000190
C53	C	0.031841	0.070646	0.000222
C54	C	-0.018580	0.071988	0.000232
C55	C	-0.049140	-0.043635	0.000226
C56	C	0.659892	-0.152237	0.000195
C57	C	0.713556	-0.153696	0.000202
C58	C	0.568841	-0.396539	0.000158
C59	C	0.570287	-0.538105	0.000151
C60	C	0.526047	0.277609	0.000150
C61	C	0.548143	0.370696	0.122473
C62	C	0.548160	0.370684	-0.122113
C63	C	0.594944	0.302747	0.122600
C64	C	0.594954	0.302726	-0.122096
C65	C	0.617084	0.395787	0.000256
N66	N	0.571567	-0.163262	-0.352870
C67	C	0.537539	-0.254512	0.450501
C68	C	0.581302	-0.278399	0.549928
C69	C	0.527809	-0.139431	0.549911
C70	C	0.615337	-0.187252	0.450448
C71	C	0.561815	-0.048235	0.450423
C72	C	0.605609	-0.072072	0.549804
H73	H	0.415165	-0.383774	0.000103
C74	C	0.621653	0.262272	0.262468
H75	H	0.622394	0.171946	0.261651
H76	H	0.653896	0.303804	0.262838
H77	H	0.605138	0.286075	0.349213
C78	C	0.521404	0.411420	0.262158
H79	H	0.542749	0.469048	0.319754
H80	H	0.494096	0.452575	0.232750
H81	H	0.510875	0.337750	0.320162
C82	C	-0.277723	0.090609	0.000214
H83	H	-0.252296	0.159269	0.000232
H84	H	-0.297172	0.095988	-0.086293
H85	H	-0.297168	0.095968	0.086739
H86	H	0.487584	0.226267	0.000261
C87	C	0.592439	-0.409828	0.608995
H88	H	0.568237	-0.474555	0.575008
H89	H	0.623285	-0.427409	0.573483
H90	H	0.592653	-0.408607	0.714947
C91	C	0.477829	-0.112160	0.608935
H92	H	0.481406	-0.036056	0.667224
H93	H	0.456820	-0.101549	0.527268
H94	H	0.464429	-0.182059	0.668754
C95	C	0.621674	0.261953	-0.261787
H96	H	0.605009	0.284925	-0.348622
H97	H	0.653832	0.304040	-0.262658
H98	H	0.622654	0.171724	-0.260279
C99	C	0.521416	0.411361	-0.261820
H100	H	0.489077	0.370453	-0.261669
H101	H	0.520944	0.501770	-0.261312
H102	H	0.537726	0.386925	-0.348673
C103	C	0.550660	0.083155	0.391313
H104	H	0.577184	0.120367	0.333009
H105	H	0.522220	0.072235	0.331519
H106	H	0.545699	0.137934	0.472952
C107	C	0.183541	-0.527289	0.000164
H108	H	0.158113	-0.595946	0.000180
H109	H	0.202989	-0.532669	-0.086341
H110	H	0.202987	-0.532653	0.086691
H111	H	0.652345	-0.207545	0.406941
C112	C	0.669088	0.464855	0.000363
H113	H	0.685623	0.441623	0.087335
H114	H	0.685834	0.440556	-0.085696
H115	H	0.667889	0.555008	-0.000452
C116	C	0.644512	0.032160	0.608345
H117	H	0.629464	0.092180	0.666663
H118	H	0.667176	-0.006484	0.668009
H119	H	0.660892	0.075107	0.526464
H120	H	0.508802	-0.331710	0.406900
H121	H	0.323698	-0.381334	0.000146
H122	H	0.086404	-0.491414	0.000168
H123	H	-0.199993	-0.367292	0.000182
C124	C	0.110854	0.196642	0.000270
H125	H	0.136283	0.265297	0.000295
H126	H	0.091404	0.202038	-0.086231
H127	H	0.091412	0.201994	0.086801
H128	H	-0.180582	0.054740	0.000224
C129	C	0.216728	0.193792	0.000235
H130	H	0.197675	0.263648	0.000232
H131	H	0.236625	0.198102	0.086737
H132	H	0.236615	0.198104	-0.086295
H133	H	0.343103	0.040700	0.000142
C134	C	0.443315	0.071279	0.000137
H135	H	0.424268	0.141148	0.000134
H136	H	0.463210	0.075574	0.086642
H137	H	0.463204	0.075583	-0.086390
C138	C	0.032280	-0.523234	0.000185
H139	H	0.006852	-0.591891	0.000196
H140	H	0.051727	-0.528607	-0.086325
H141	H	0.051727	-0.528606	0.086707
C142	C	-0.073600	-0.520384	0.000192
H143	H	-0.054555	-0.590255	0.000174
H144	H	-0.093492	-0.524688	0.086704
H145	H	-0.093493	-0.524677	-0.086328
C146	C	-0.040421	0.200676	0.000242
H147	H	-0.074829	0.184934	0.000238
H148	H	-0.029954	0.248232	0.086754
H149	H	-0.029960	0.248242	-0.086278
H150	H	-0.291474	-0.364826	0.000193
H151	H	0.056720	0.164802	0.000230
