data_functionalizedCrystal
_audit_creation_method	'MofGen! by Chris Wilmer'
_symmetry_space_group_name_H-M	'P1'
_symmetry_Int_Tables_number	1
_symmetry_cell_setting	triclinic
loop_
_symmetry_equiv_pos_as_xyz
  x,y,z
_cell_length_a	12.759401
_cell_length_b	16.959454
_cell_length_c	12.759393
_cell_angle_alpha	90.029640
_cell_angle_beta	90.020938
_cell_angle_gamma	90.021600
loop_
_atom_site_label
_atom_site_type_symbol
_atom_site_fract_x
_atom_site_fract_y
_atom_site_fract_z
Zn1	Zn	1.606227	-0.314611	0.594026
Zn2	Zn	2.106227	0.185389	1.094026
Zn3	Zn	1.606102	-0.446810	0.418349
Zn4	Zn	2.106102	0.053190	0.918349
Zn5	Zn	1.430526	-0.314653	0.418362
Zn6	Zn	1.930526	0.185347	0.918362
Zn7	Zn	1.430501	-0.446755	0.593986
Zn8	Zn	1.930501	0.053245	1.093986
O9	O	1.518339	-0.380707	0.506181
O10	O	2.018339	0.119293	1.006181
O11	O	1.753232	-0.332153	0.570734
O12	O	2.253232	0.167847	1.070734
O13	O	1.582769	-0.429320	0.271330
O14	O	2.082769	0.070680	0.771330
O15	O	1.453896	-0.204037	0.441686
O16	O	1.953896	0.295963	0.941686
O17	O	1.753139	-0.429279	0.441665
O18	O	2.253139	0.070721	0.941665
O19	O	1.582983	-0.204006	0.570746
O20	O	2.082983	0.295994	1.070746
O21	O	1.453774	-0.332225	0.271339
O22	O	1.953774	0.167775	0.771339
O23	O	1.283502	-0.332171	0.441647
O24	O	1.783502	0.167829	0.941647
O25	O	1.453854	-0.429185	0.741013
O26	O	1.953854	0.070815	1.241013
O27	O	1.283484	-0.429226	0.570678
O28	O	1.783484	0.070774	1.070678
O29	O	1.582959	-0.332100	0.741042
O30	O	2.082959	0.167900	1.241042
O31	O	1.582745	-0.557414	0.441626
O32	O	2.082745	-0.057414	0.941626
O33	O	1.453732	-0.557373	0.570666
O34	O	1.953732	-0.057373	1.070666
C35	C	1.245372	-0.380698	0.506160
C36	C	1.745372	0.119302	1.006160
C37	C	1.128595	-0.380713	0.506176
C38	C	1.628595	0.119287	1.006176
C39	C	1.073751	-0.431326	0.573257
C40	C	1.573751	0.068674	1.073257
C41	C	0.964027	-0.431329	0.573277
C42	C	1.464027	0.068671	1.073277
C43	C	0.964000	-0.330103	0.439128
C44	C	1.464000	0.169897	0.939128
C45	C	1.073722	-0.330097	0.439113
C46	C	1.573722	0.169903	0.939113
C47	C	1.518251	-0.586074	0.506163
C48	C	2.018251	-0.086074	1.006163
C49	C	1.518309	-0.673930	0.506190
C50	C	2.018309	-0.173930	1.006190
C51	C	1.451259	-1.045415	0.573365
C52	C	1.951259	-0.545415	1.073365
C53	C	1.585711	-1.045397	0.439104
C54	C	2.085711	-0.545397	0.939104
C55	C	1.585675	-0.962851	0.439094
C56	C	2.085675	-0.462851	0.939094
C57	C	1.518428	-0.921583	0.506220
C58	C	2.018428	-0.421583	1.006220
C59	C	1.451218	-0.962861	0.573355
C60	C	1.951218	-0.462861	1.073355
C61	C	1.652875	-0.921567	0.371953
C62	C	2.152875	-0.421567	0.871953
C63	C	1.652841	-0.839016	0.371940
C64	C	2.152841	-0.339016	0.871940
C65	C	1.585599	-0.797747	0.439071
C66	C	2.085599	-0.297747	0.939071
C67	C	1.518387	-0.839030	0.506210
C68	C	2.018387	-0.339030	1.006210
C69	C	1.451141	-0.797762	0.573335
C70	C	1.951141	-0.297762	1.073335
C71	C	1.383934	-0.839043	0.640480
C72	C	1.883934	-0.339043	1.140480
C73	C	1.383977	-0.921592	0.640486
C74	C	1.883977	-0.421592	1.140486
C75	C	1.585556	-0.715198	0.439065
C76	C	2.085556	-0.215198	0.939065
C77	C	1.451100	-0.715208	0.573326
C78	C	1.951100	-0.215208	1.073326
C79	C	1.792372	-0.380718	0.506202
C80	C	2.292372	0.119282	1.006202
C81	C	1.909149	-0.380722	0.506212
C82	C	2.409149	0.119278	1.006212
C83	C	1.518418	-0.380632	0.780214
C84	C	2.018418	0.119368	1.280214
C85	C	1.518451	-0.380599	0.896991
C86	C	2.018451	0.119401	1.396991
C87	C	1.518456	-0.174539	0.506222
C88	C	2.018456	0.325461	1.006222
C89	C	1.518506	-0.086683	0.506239
C90	C	2.018506	0.413317	1.006239
C91	C	1.518321	-0.380726	0.233213
C92	C	2.018321	0.119274	0.733213
C93	C	1.518491	-0.380536	0.116437
C94	C	2.018491	0.119464	0.616437
C95	C	1.585681	-0.330039	0.951870
C96	C	2.085681	0.169961	1.451870
C97	C	1.585699	-0.330005	1.061594
C98	C	2.085699	0.169995	1.561594
C99	C	1.451254	-0.431098	1.061551
C100	C	1.951254	0.068902	1.561551
C101	C	1.451232	-0.431128	0.951829
C102	C	1.951232	0.068872	1.451829
H103	H	0.919378	-0.472542	0.627903
H104	H	1.419378	0.027458	1.127903
C105	C	1.785756	-0.847299	0.239235
C106	C	2.285756	-0.347299	0.739235
C107	C	1.726723	-0.793643	0.298148
C108	C	2.226723	-0.293643	0.798148
H109	H	1.831374	-0.819286	0.193687
H110	H	2.331374	-0.319286	0.693687
H111	H	1.740018	-0.879534	0.199006
H112	H	2.240018	-0.379534	0.699006
H113	H	1.825926	-0.879459	0.285062
H114	H	2.325926	-0.379459	0.785062
H115	H	1.686547	-0.761487	0.252321
H116	H	2.186547	-0.261487	0.752321
H117	H	1.772467	-0.761395	0.338379
H118	H	2.272467	-0.261395	0.838379
C119	C	1.241910	-0.285139	0.379530
C120	C	1.741910	0.214861	0.879530
C121	C	1.134017	-0.274458	0.365373
C122	C	1.634017	0.225542	0.865373
H123	H	1.279131	-0.250787	0.334014
H124	H	1.779131	0.249213	0.834014
H125	H	1.259856	-0.338226	0.364027
H126	H	1.759856	0.161774	0.864027
H127	H	1.259917	-0.273634	0.450150
H128	H	1.759917	0.226366	0.950150
H129	H	1.116009	-0.285969	0.294755
H130	H	1.616009	0.214031	0.794755
H131	H	1.116064	-0.221359	0.380869
H132	H	1.616064	0.278641	0.880869
H133	H	1.640443	-0.288832	1.106272
H134	H	2.140443	0.211168	1.606272
C135	C	0.930244	-0.196212	0.388266
C136	C	1.430244	0.303788	0.888266
C137	C	0.903683	-0.274472	0.365409
C138	C	1.403683	0.225528	0.865409
H139	H	0.893003	-0.161869	0.342756
H140	H	1.393003	0.338131	0.842756
H141	H	1.003431	-0.188971	0.378657
H142	H	1.503431	0.311029	0.878657
H143	H	0.912293	-0.184720	0.458887
H144	H	1.412293	0.315280	0.958887
H145	H	0.921641	-0.285966	0.294790
H146	H	1.421641	0.214034	0.794790
H147	H	0.830479	-0.281716	0.375010
H148	H	1.330479	0.218284	0.875010
H149	H	1.640413	-0.288893	0.907225
H150	H	2.140413	0.211107	1.407225
H151	H	1.396343	-0.681613	0.627992
H152	H	1.896343	-0.181613	1.127992
H153	H	1.640454	-1.079002	0.384447
H154	H	2.140454	-0.579002	0.884447
C155	C	1.251075	-0.913317	0.773209
C156	C	1.751075	-0.413317	1.273209
C157	C	1.310105	-0.966969	0.714285
C158	C	1.810105	-0.466969	1.214285
H159	H	1.205475	-0.941335	0.818771
H160	H	1.705475	-0.441335	1.318771
H161	H	1.210896	-0.881164	0.727398
H162	H	1.710896	-0.381164	1.227398
H163	H	1.296825	-0.881076	0.813433
H164	H	1.796825	-0.381076	1.313433
H165	H	1.264356	-0.999207	0.674055
H166	H	1.764356	-0.499207	1.174055
H167	H	1.350287	-0.999135	0.760102
H168	H	1.850287	-0.499135	1.260102
H169	H	1.329176	-0.805433	0.695130
H170	H	1.829176	-0.305433	1.195130
H171	H	1.118425	-0.472539	0.627866
H172	H	1.618425	0.027461	1.127866
H173	H	1.396544	-1.079030	0.628035
H174	H	1.896544	-0.579030	1.128035
C175	C	1.712479	-1.048101	0.312211
C176	C	2.212479	-0.548101	0.812211
C177	C	1.726680	-0.966929	0.298063
C178	C	2.226680	-0.466929	0.798063
H179	H	1.758019	-1.076107	0.266565
H180	H	2.258019	-0.576107	0.766565
H181	H	1.641874	-1.061630	0.296879
H182	H	2.141874	-0.561630	0.796879
H183	H	1.727932	-1.061619	0.382784
H184	H	2.227932	-0.561619	0.882784
H185	H	1.711219	-0.953410	0.227492
H186	H	2.211219	-0.453410	0.727492
H187	H	1.797301	-0.953395	0.313389
H188	H	2.297301	-0.453395	0.813389
C189	C	1.600165	-0.622421	0.297746
C190	C	2.100165	-0.122421	0.797746
C191	C	1.659418	-0.669821	0.365264
C192	C	2.159418	-0.169821	0.865264
H193	H	1.645769	-0.594412	0.252180
H194	H	2.145769	-0.094412	0.752180
H195	H	1.560125	-0.586034	0.337728
H196	H	2.060125	-0.086034	0.837728
H197	H	1.554427	-0.654676	0.257528
H198	H	2.054427	-0.154676	0.757528
H199	H	1.705151	-0.637565	0.405488
H200	H	2.205151	-0.137565	0.905488
H201	H	1.699475	-0.706212	0.325279
H202	H	2.199475	-0.206212	0.825279
C203	C	1.391596	-0.475946	1.229729
C204	C	1.891596	0.024054	1.729729
C205	C	1.377377	-0.486644	1.121832
C206	C	1.877377	0.013356	1.621832
H207	H	1.345991	-0.510243	1.266940
H208	H	1.845991	-0.010243	1.766940
H209	H	1.376253	-0.422838	1.247715
H210	H	1.876253	0.077162	1.747715
H211	H	1.462187	-0.487514	1.247707
H212	H	1.962187	0.012486	1.747707
H213	H	1.306787	-0.475070	1.103853
H214	H	1.806787	0.024930	1.603853
H215	H	1.392713	-0.539763	1.103839
H216	H	1.892713	-0.039763	1.603839
H217	H	1.396477	-0.472300	0.907145
H218	H	1.896477	0.027700	1.407145
