data_functionalizedCrystal
_audit_creation_method	'MofGen! by Chris Wilmer'
_symmetry_space_group_name_H-M	'P1'
_symmetry_Int_Tables_number	1
_symmetry_cell_setting	triclinic
loop_
_symmetry_equiv_pos_as_xyz
  x,y,z
_cell_length_a	18.215407
_cell_length_b	15.297327
_cell_length_c	18.215399
_cell_angle_alpha	99.645421
_cell_angle_beta	89.983176
_cell_angle_gamma	99.707397
loop_
_atom_site_label
_atom_site_type_symbol
_atom_site_fract_x
_atom_site_fract_y
_atom_site_fract_z
Zn1	Zn	1.074338	-0.359142	-0.466791
Zn2	Zn	1.052949	-0.510019	-0.365013
Zn3	Zn	0.951272	-0.359178	-0.343743
Zn4	Zn	0.929941	-0.509963	-0.488030
O5	O	1.002125	-0.434575	-0.415894
O6	O	1.174484	-0.379165	-0.453303
O7	O	1.039437	-0.490049	-0.259213
O8	O	0.985476	-0.232926	-0.342275
O9	O	1.158769	-0.490014	-0.378527
O10	O	1.075892	-0.232900	-0.432678
O11	O	0.964736	-0.379226	-0.243586
O12	O	0.845460	-0.379171	-0.362870
O13	O	0.949119	-0.489917	-0.588192
O14	O	0.829787	-0.489952	-0.468877
O15	O	1.055208	-0.379110	-0.572587
O16	O	1.018753	-0.636259	-0.399122
O17	O	0.928379	-0.636217	-0.489502
C18	C	0.810921	-0.434560	-0.415871
C19	C	0.729120	-0.434575	-0.415882
C20	C	0.532772	-0.492350	-0.471033
C21	C	0.455913	-0.492352	-0.471043
C22	C	0.472228	-0.376818	-0.360774
C23	C	0.549086	-0.376811	-0.360768
C24	C	0.579356	-0.434582	-0.415897
C25	C	0.425638	-0.434592	-0.415913
C26	C	0.342304	-0.434594	-0.415923
C27	C	0.662695	-0.434578	-0.415888
C28	C	0.968950	-0.668972	-0.448941
C29	C	0.954825	-0.769248	-0.463103
C30	C	1.103383	-1.051871	-0.314927
C31	C	1.116654	-0.957656	-0.301617
C32	C	1.076198	-0.910550	-0.341987
C33	C	1.022468	-0.957666	-0.395670
C34	C	1.009192	-1.051890	-0.408977
C35	C	0.982007	-0.910569	-0.436037
C36	C	0.928278	-0.957686	-0.489720
C37	C	0.915004	-1.051900	-0.503025
C38	C	0.955460	-1.099007	-0.462654
C39	C	0.995284	-0.816346	-0.422730
C40	C	0.901093	-0.816365	-0.516781
C41	C	0.887822	-0.910579	-0.530090
C42	C	1.194076	-0.434592	-0.415918
C43	C	1.275874	-0.434598	-0.415928
C44	C	1.002170	-0.434503	-0.607837
C45	C	1.002189	-0.434473	-0.689632
C46	C	1.035450	-0.199263	-0.382735
C47	C	1.049651	-0.098987	-0.368604
C48	C	0.963337	-0.376728	-0.869684
C49	C	0.963353	-0.376710	-0.946540
C50	C	1.041144	-0.492109	-0.962802
C51	C	1.041124	-0.492131	-0.885948
C52	C	1.002222	-0.434436	-0.839390
C53	C	1.002258	-0.434396	-0.993101
C54	C	1.002275	-0.434376	-1.076432
C55	C	1.002204	-0.434456	-0.756054
C56	C	1.002132	-0.434582	-0.224689
C57	C	1.002291	-0.434359	-0.142859
H58	H	0.417987	-0.539391	-0.515941
H59	H	0.931661	-0.329749	-0.831779
H60	H	0.557415	-0.539388	-0.515925
H61	H	0.844075	-0.948955	-0.573799
H62	H	0.587017	-0.329764	-0.315869
H63	H	0.931688	-0.329720	-0.971202
O64	O	1.047525	-0.770484	-0.370678
C65	C	1.102735	-0.715919	-0.404912
H66	H	1.078740	-0.701778	-0.458663
H67	H	1.152159	-0.752172	-0.418168
C68	C	1.158167	-0.643813	-0.285775
C69	C	1.128693	-0.626439	-0.351790
H70	H	1.174182	-0.588620	-0.253007
H71	H	1.120973	-0.680577	-0.262711
H72	H	1.199349	-0.674026	-0.296832
H73	H	1.087506	-0.596237	-0.340734
H74	H	1.165881	-0.589668	-0.374851
O75	O	1.078923	-0.548063	-1.008130
C76	C	1.070590	-0.535685	-1.082463
H77	H	1.056349	-0.466058	-1.083151
H78	H	1.023828	-0.589189	-1.111808
C79	C	1.161382	-0.629463	-1.122246
C80	C	1.143897	-0.543942	-1.123091
H81	H	1.206600	-0.634560	-1.147309
H82	H	1.166995	-0.637805	-1.072167
H83	H	1.122408	-0.674040	-1.146699
H84	H	1.182866	-0.499368	-1.098630
H85	H	1.138293	-0.535593	-1.173166
H86	H	1.087006	-0.833836	-0.331147
H87	H	1.136312	-1.090233	-0.282058
O88	O	0.942503	-1.190529	-0.475704
C89	C	0.886391	-1.222018	-0.531726
H90	H	0.883703	-1.167691	-0.567035
H91	H	0.830381	-1.238831	-0.504871
C92	C	0.907688	-1.373815	-0.538134
C93	C	0.904391	-1.307093	-0.581505
H94	H	0.918789	-1.426296	-0.568839
H95	H	0.945490	-1.352602	-0.500389
H96	H	0.861012	-1.387815	-0.515757
H97	H	0.951070	-1.293087	-0.603873
H98	H	0.866597	-1.328306	-0.619255
H99	H	1.072790	-0.539127	-0.861283
O100	O	0.442697	-0.320788	-0.307259
C101	C	0.364872	-0.333163	-0.319096
H102	H	0.344525	-0.402825	-0.352926
H103	H	0.350641	-0.279714	-0.350825
C104	C	0.351562	-0.239222	-0.201917
C105	C	0.326571	-0.324785	-0.243462
H106	H	0.327935	-0.234050	-0.155263
H107	H	0.403994	-0.230882	-0.193942
H108	H	0.339700	-0.194691	-0.228366
H109	H	0.338440	-0.369314	-0.217017
H110	H	0.274139	-0.333133	-0.251430
O111	O	1.168896	-0.912029	-0.249475
C112	C	1.201746	-0.973807	-0.216686
H113	H	1.194815	-1.040941	-0.256312
H114	H	1.173411	-0.983900	-0.162193
C115	C	1.293782	-0.854510	-0.152281
C116	C	1.285275	-0.936964	-0.200954
H117	H	1.345306	-0.831784	-0.142573
H118	H	1.271649	-0.812889	-0.174369
H119	H	1.270165	-0.862933	-0.106876
H120	H	1.308884	-0.928539	-0.246361
H121	H	1.307414	-0.978584	-0.178872
H122	H	0.868149	-0.778011	-0.549652
O123	O	0.862892	-1.097628	-0.555267
C124	C	0.882177	-1.074510	-0.625363
H125	H	0.944625	-1.048549	-0.625465
H126	H	0.850413	-1.019842	-0.636844
C127	C	0.785094	-1.190059	-0.686162
C128	C	0.861795	-1.158180	-0.686289
H129	H	0.772519	-1.241668	-0.723745
H130	H	0.772099	-1.205632	-0.638937
H131	H	0.758634	-1.144494	-0.695727
H132	H	0.888254	-1.203740	-0.676715
H133	H	0.874794	-1.142616	-0.733514
