data_functionalizedCrystal
_audit_creation_method	'MofGen! by Chris Wilmer'
_symmetry_space_group_name_H-M	'P1'
_symmetry_Int_Tables_number	1
_symmetry_cell_setting	triclinic
loop_
_symmetry_equiv_pos_as_xyz
  x,y,z
_cell_length_a	21.295419
_cell_length_b	21.295417
_cell_length_c	19.805399
_cell_angle_alpha	89.970204
_cell_angle_beta	89.981377
_cell_angle_gamma	90.044503
loop_
_atom_site_label
_atom_site_type_symbol
_atom_site_fract_x
_atom_site_fract_y
_atom_site_fract_z
Zn1	Zn	0.962322	-0.250375	-0.382692
Zn2	Zn	1.295656	0.082958	-0.049359
Zn3	Zn	1.628989	0.416291	0.283974
Zn4	Zn	0.962237	-0.355644	-0.269500
Zn5	Zn	1.295570	-0.022311	0.063834
Zn6	Zn	1.628904	0.311023	0.397167
Zn7	Zn	0.857056	-0.250420	-0.269519
Zn8	Zn	1.190390	0.082914	0.063815
Zn9	Zn	1.523723	0.416247	0.397148
Zn10	Zn	0.857016	-0.355638	-0.382648
Zn11	Zn	1.190350	-0.022304	-0.049315
Zn12	Zn	1.523683	0.311029	0.284018
O13	O	0.909658	-0.303019	-0.326090
O14	O	1.242991	0.030314	0.007244
O15	O	1.576325	0.363648	0.340577
O16	O	1.050400	-0.264323	-0.367687
O17	O	1.383734	0.069010	-0.034354
O18	O	1.717067	0.402343	0.298979
O19	O	0.948266	-0.341707	-0.174785
O20	O	1.281599	-0.008374	0.158548
O21	O	1.614932	0.324960	0.491881
O22	O	0.871073	-0.162324	-0.284558
O23	O	1.204406	0.171009	0.048776
O24	O	1.537739	0.504342	0.382109
O25	O	1.050338	-0.341664	-0.284525
O26	O	1.383671	-0.008330	0.048808
O27	O	1.717004	0.325003	0.382141
O28	O	0.948411	-0.162292	-0.367706
O29	O	1.281744	0.171042	-0.034373
O30	O	1.615078	0.504375	0.298961
O31	O	0.870990	-0.264399	-0.174800
O32	O	1.204323	0.068934	0.158534
O33	O	1.537657	0.402267	0.491867
O34	O	0.768962	-0.264393	-0.284515
O35	O	1.102295	0.068940	0.048818
O36	O	1.435628	0.402274	0.382152
O37	O	0.871004	-0.341653	-0.477371
O38	O	1.204338	-0.008320	-0.144037
O39	O	1.537671	0.325014	0.189296
O40	O	0.768932	-0.341696	-0.367631
O41	O	1.102266	-0.008363	-0.034298
O42	O	1.435599	0.324970	0.299036
O43	O	0.948372	-0.264317	-0.477403
O44	O	1.281706	0.069016	-0.144070
O45	O	1.615039	0.402349	0.189264
O46	O	0.948227	-0.443733	-0.284483
O47	O	1.281560	-0.110399	0.048851
O48	O	1.614894	0.222934	0.382184
O49	O	0.870922	-0.443728	-0.367612
O50	O	1.204255	-0.110395	-0.034279
O51	O	1.537588	0.222939	0.299054
C52	C	0.746106	-0.303049	-0.326071
C53	C	1.079440	0.030284	0.007263
C54	C	1.412773	0.363617	0.340596
C55	C	0.676138	-0.303077	-0.326079
C56	C	1.009472	0.030256	0.007255
C57	C	1.342805	0.363589	0.340588
C58	C	0.643327	-0.262872	-0.369448
C59	C	0.976660	0.070461	-0.036115
C60	C	1.309993	0.403795	0.297219
C61	C	0.577584	-0.262855	-0.369451
C62	C	0.910918	0.070478	-0.036117
C63	C	1.244251	0.403812	0.297216
C64	C	0.544656	-0.303055	-0.326091
C65	C	0.877989	0.030278	0.007242
C66	C	1.211322	0.363612	0.340576
C67	C	0.577475	-0.343263	-0.282713
C68	C	0.910809	-0.009930	0.050620
C69	C	1.244142	0.323404	0.383954
C70	C	0.643217	-0.343274	-0.282707
C71	C	0.976550	-0.009941	0.050626
C72	C	1.309883	0.323392	0.383960
N73	N	0.441382	-0.358133	-0.320802
N74	N	0.774715	-0.024800	0.012531
N75	N	1.108048	0.308534	0.345865
N76	N	0.378930	-0.358120	-0.320812
N77	N	0.712264	-0.024787	0.012521
N78	N	1.045597	0.308546	0.345855
C79	C	0.346581	-0.303022	-0.326106
C80	C	0.679914	0.030311	0.007227
C81	C	1.013248	0.363644	0.340561
N82	N	0.379043	-0.247936	-0.331403
N83	N	0.712376	0.085397	0.001931
N84	N	1.045709	0.418731	0.335264
N85	N	0.441500	-0.247949	-0.331397
N86	N	0.774833	0.085384	0.001937
N87	N	1.108167	0.418717	0.335270
C88	C	0.473370	-0.303047	-0.326092
C89	C	0.806704	0.030287	0.007241
C90	C	1.140037	0.363620	0.340574
C91	C	0.242484	-0.262795	-0.369480
C92	C	0.575817	0.070538	-0.036147
C93	C	0.909151	0.403871	0.297186
C94	C	0.176740	-0.262777	-0.369478
C95	C	0.510074	0.070556	-0.036145
C96	C	0.843407	0.403889	0.297188
C97	C	0.176633	-0.343191	-0.282744
C98	C	0.509966	-0.009857	0.050589
C99	C	0.843299	0.323476	0.383922
C100	C	0.242375	-0.343203	-0.282743
C101	C	0.575708	-0.009870	0.050590
C102	C	0.909042	0.323464	0.383924
C103	C	0.275297	-0.303006	-0.326115
C104	C	0.608630	0.030327	0.007219
C105	C	0.941964	0.363660	0.340552
C106	C	0.909578	-0.466571	-0.326055
C107	C	1.242911	-0.133237	0.007278
C108	C	1.576244	0.200096	0.340611
C109	C	0.909601	-0.536539	-0.326063
C110	C	1.242934	-0.203206	0.007270
C111	C	1.576268	0.130128	0.340603
C112	C	0.949848	-0.569331	-0.369390
C113	C	1.283182	-0.235998	-0.036056
C114	C	1.616515	0.097335	0.297277
C115	C	0.949870	-0.635074	-0.369406
C116	C	1.283204	-0.301740	-0.036073
C117	C	1.616537	0.031593	0.297260
C118	C	0.909652	-0.668021	-0.326085
C119	C	1.242985	-0.334688	0.007249
C120	C	1.576319	-0.001355	0.340582
C121	C	0.869397	-0.635221	-0.282755
C122	C	1.202731	-0.301888	0.050578
C123	C	1.536064	0.031446	0.383911
C124	C	0.869372	-0.569480	-0.282745
C125	C	1.202705	-0.236146	0.050589
C126	C	1.536038	0.097187	0.383922
N127	N	0.904898	-0.771284	-0.266849
N128	N	1.238232	-0.437950	0.066484
N129	N	1.571565	-0.104617	0.399818
N130	N	0.904926	-0.833735	-0.266861
N131	N	1.238260	-0.500402	0.066472
N132	N	1.571593	-0.167069	0.399806
C133	C	0.909726	-0.866096	-0.326115
C134	C	1.243059	-0.532763	0.007218
C135	C	1.576392	-0.199429	0.340551
N136	N	0.914508	-0.833646	-0.385358
N137	N	1.247842	-0.500313	-0.052025
N138	N	1.581175	-0.166980	0.281308
N139	N	0.914484	-0.771189	-0.385345
N140	N	1.247817	-0.437856	-0.052012
N141	N	1.581150	-0.104522	0.281321
C142	C	0.909675	-0.739307	-0.326092
C143	C	1.243008	-0.405973	0.007242
C144	C	1.576342	-0.072640	0.340575
C145	C	0.949999	-0.970174	-0.369463
C146	C	1.283332	-0.636841	-0.036130
C147	C	1.616666	-0.303507	0.297203
C148	C	0.950017	-1.035918	-0.369481
C149	C	1.283350	-0.702584	-0.036148
C150	C	1.616683	-0.369251	0.297186
C151	C	0.869547	-1.036064	-0.282824
C152	C	1.202880	-0.702730	0.050509
C153	C	1.536214	-0.369397	0.383842
C154	C	0.869526	-0.970321	-0.282812
C155	C	1.202859	-0.636988	0.050521
C156	C	1.536192	-0.303654	0.383854
C157	C	0.909755	-0.937380	-0.326131
C158	C	1.243089	-0.604047	0.007202
C159	C	1.576422	-0.270714	0.340536
C160	C	1.073848	-0.302989	-0.326109
C161	C	1.407182	0.030344	0.007224
C162	C	1.740515	0.363677	0.340558
C163	C	1.143816	-0.302977	-0.326117
C164	C	1.477150	0.030357	0.007216
C165	C	1.810483	0.363690	0.340549
C166	C	0.909693	-0.302979	-0.502632
C167	C	1.243027	0.030354	-0.169299
C168	C	1.576360	0.363687	0.164034
C169	C	0.909708	-0.302963	-0.577864
C170	C	1.243042	0.030371	-0.244531
C171	C	1.576375	0.363704	0.088802
C172	C	0.909756	-0.138829	-0.326139
C173	C	1.243089	0.194505	0.007194
C174	C	1.576422	0.527838	0.340528
C175	C	0.909797	-0.068861	-0.326160
C176	C	1.243131	0.264473	0.007173
C177	C	1.576464	0.597806	0.340507
C178	C	0.949995	-0.262692	-0.613227
C179	C	1.283328	0.070642	-0.279893
C180	C	1.616661	0.403975	0.053440
C181	C	0.950001	-0.262674	-0.683915
C182	C	1.283335	0.070660	-0.350582
C183	C	1.616668	0.403993	-0.017248
C184	C	0.909724	-0.302930	-0.719240
C185	C	1.243057	0.030404	-0.385907
C186	C	1.576391	0.363737	-0.052573
C187	C	0.869433	-0.343202	-0.683873
C188	C	1.202767	-0.009869	-0.350540
C189	C	1.536100	0.323464	-0.017206
C190	C	0.869424	-0.343217	-0.613186
C191	C	1.202757	-0.009884	-0.279853
C192	C	1.536091	0.323450	0.053481
C193	C	0.869469	-0.343144	-0.968947
C194	C	1.202802	-0.009810	-0.635613
C195	C	1.536135	0.323523	-0.302280
C196	C	0.869482	-0.343127	-1.039639
C197	C	1.202816	-0.009794	-0.706305
C198	C	1.536149	0.323539	-0.372972
C199	C	0.950046	-0.262600	-1.039676
C200	C	1.283379	0.070733	-0.706342
C201	C	1.616713	0.404066	-0.373009
C202	C	0.950037	-0.262615	-0.968988
C203	C	1.283370	0.070718	-0.635655
C204	C	1.616703	0.404052	-0.302322
C205	C	0.909744	-0.302885	-0.933628
C206	C	1.243077	0.030449	-0.600294
C207	C	1.576411	0.363782	-0.266961
C208	C	0.909737	-0.302903	-0.856979
C209	C	1.243070	0.030430	-0.523646
C210	C	1.576403	0.363763	-0.190312
C211	C	0.909734	-0.302915	-0.795887
C212	C	1.243067	0.030418	-0.462554
C213	C	1.576401	0.363752	-0.129221
C214	C	0.909659	-0.303013	-0.150234
C215	C	1.242992	0.030320	0.183100
C216	C	1.576326	0.363653	0.516433
C217	C	0.909766	-0.302853	-0.075002
C218	C	1.243099	0.030481	0.258331
C219	C	1.576433	0.363814	0.591665
H220	H	0.670128	-0.230140	-0.404764
H221	H	1.003461	0.103193	-0.071431
H222	H	1.336794	0.436527	0.261902
H223	H	0.550864	-0.230112	-0.404766
H224	H	0.884197	0.103221	-0.071433
H225	H	1.217530	0.436555	0.261900
C226	C	0.476650	-0.378958	-0.244221
C227	C	0.809983	-0.045624	0.089112
C228	C	1.143316	0.287709	0.422446
C229	C	0.541283	-0.387454	-0.235054
C230	C	0.874616	-0.054121	0.098280
C231	C	1.207950	0.279213	0.431613
H232	H	0.454308	-0.406243	-0.214798
H233	H	0.787641	-0.072909	0.118535
H234	H	1.120975	0.260424	0.451869
H235	H	0.465914	-0.336654	-0.234398
H236	H	0.799247	-0.003321	0.098936
H237	H	1.132581	0.330012	0.432269
H238	H	0.465893	-0.388225	-0.289684
H239	H	0.799227	-0.054892	0.043650
H240	H	1.132560	0.278442	0.376983
H241	H	0.552040	-0.378182	-0.189592
H242	H	0.885373	-0.044849	0.143741
H243	H	1.218707	0.288484	0.477075
H244	H	0.552023	-0.429767	-0.244872
H245	H	0.885356	-0.096434	0.088461
H246	H	1.218690	0.236899	0.421795
H247	H	0.982808	-0.229882	-0.712704
H248	H	1.316141	0.103451	-0.379370
H249	H	1.649475	0.436784	-0.046037
C250	C	0.183454	-0.183305	-0.455221
C251	C	0.516788	0.150028	-0.121888
C252	C	0.850121	0.483361	0.211446
C253	C	0.140671	-0.218580	-0.417154
C254	C	0.474004	0.114754	-0.083821
C255	C	0.807338	0.448087	0.249512
H256	H	0.161185	-0.156023	-0.484657
H257	H	0.494518	0.177311	-0.151324
H258	H	0.827851	0.510644	0.182010
H259	H	0.209108	-0.159194	-0.425780
H260	H	0.542441	0.174139	-0.092447
H261	H	0.875774	0.507473	0.240887
H262	H	0.209079	-0.210778	-0.481051
H263	H	0.542412	0.122555	-0.147718
H264	H	0.875746	0.455888	0.185615
H265	H	0.115049	-0.191107	-0.391320
H266	H	0.448383	0.142226	-0.057987
H267	H	0.781716	0.475560	0.275347
H268	H	0.115007	-0.242693	-0.446599
H269	H	0.448340	0.090641	-0.113266
H270	H	0.781674	0.423974	0.220068
H271	H	0.269290	-0.230060	-0.404792
H272	H	0.602624	0.103273	-0.071459
H273	H	0.935957	0.436606	0.261875
H274	H	0.836796	-1.062889	-0.247555
H275	H	1.170130	-0.729556	0.085778
H276	H	1.503463	-0.396222	0.419111
H277	H	0.836650	-0.662051	-0.247484
H278	H	1.169983	-0.328718	0.085849
H279	H	1.503317	0.004616	0.419182
H280	H	0.669931	-0.376015	-0.247389
H281	H	1.003265	-0.042682	0.085944
H282	H	1.336598	0.290651	0.419277
C283	C	0.075812	-0.378884	-0.244248
C284	C	0.409145	-0.045550	0.089086
C285	C	0.742479	0.287783	0.422419
C286	C	0.140445	-0.387382	-0.235084
C287	C	0.473779	-0.054049	0.098249
C288	C	0.807112	0.279284	0.431582
H289	H	0.053471	-0.406169	-0.214825
H290	H	0.386804	-0.072836	0.118508
H291	H	0.720137	0.260497	0.451841
H292	H	0.065078	-0.336580	-0.234422
H293	H	0.398411	-0.003247	0.098911
H294	H	0.731744	0.330086	0.432245
H295	H	0.065053	-0.388149	-0.289710
H296	H	0.398387	-0.054815	0.043623
H297	H	0.731720	0.278518	0.376956
H298	H	0.151205	-0.378113	-0.189623
H299	H	0.484538	-0.044780	0.143711
H300	H	0.817871	0.288554	0.477044
H301	H	0.151184	-0.429695	-0.244905
H302	H	0.484517	-0.096362	0.088428
H303	H	0.817850	0.236971	0.421761
H304	H	0.982852	-0.229808	-1.068475
H305	H	1.316185	0.103525	-0.735142
H306	H	1.649519	0.436858	-0.401808
H307	H	0.836681	-0.375910	-1.068398
H308	H	1.170015	-0.042577	-0.735065
H309	H	1.503348	0.290757	-0.401732
H310	H	0.269091	-0.375945	-0.247429
H311	H	0.602424	-0.042612	0.085904
H312	H	0.935757	0.290721	0.419237
C313	C	1.029394	-0.575796	-0.455043
C314	C	1.362727	-0.242462	-0.121710
C315	C	1.696060	0.090871	0.211623
C316	C	0.994064	-0.533124	-0.417009
C317	C	1.327397	-0.199790	-0.083676
C318	C	1.660730	0.133543	0.249657
H319	H	1.056687	-0.553440	-0.484444
H320	H	1.390020	-0.220107	-0.151111
H321	H	1.723354	0.113227	0.182223
H322	H	1.053496	-0.601425	-0.425579
H323	H	1.386829	-0.268092	-0.092246
H324	H	1.720163	0.065241	0.241087
H325	H	1.001957	-0.601455	-0.480910
H326	H	1.335290	-0.268121	-0.147576
H327	H	1.668623	0.065212	0.185757
H328	H	1.021501	-0.507468	-0.391139
H329	H	1.354834	-0.174134	-0.057806
H330	H	1.688167	0.159199	0.275528
H331	H	0.969959	-0.507483	-0.446477
H332	H	1.303293	-0.174150	-0.113144
H333	H	1.636626	0.159183	0.220190
C334	C	0.980750	-0.156019	-0.947272
C335	C	1.314084	0.177314	-0.613939
C336	C	1.647417	0.510647	-0.280606
C337	C	0.994308	-0.218358	-0.930164
C338	C	1.327641	0.114975	-0.596831
C339	C	1.660974	0.448309	-0.263498
H340	H	1.008079	-0.128695	-0.923302
H341	H	1.341412	0.204638	-0.589969
H342	H	1.674745	0.537972	-0.256636
H343	H	0.986522	-0.150256	-0.994427
H344	H	1.319856	0.183078	-0.661094
H345	H	1.653189	0.516411	-0.327760
H346	H	0.938457	-0.146829	-0.935678
H347	H	1.271790	0.186505	-0.602345
H348	H	1.605124	0.519838	-0.269012
H349	H	1.036600	-0.227550	-0.941763
H350	H	1.369933	0.105783	-0.608429
H351	H	1.703267	0.439117	-0.275096
H352	H	0.988541	-0.224125	-0.882999
H353	H	1.321874	0.109209	-0.549666
H354	H	1.655208	0.442542	-0.216332
C355	C	0.958594	-0.708948	-0.460465
C356	C	1.291927	-0.375615	-0.127131
C357	C	1.625260	-0.042281	0.206202
C358	C	0.994111	-0.671134	-0.417032
C359	C	1.327444	-0.337801	-0.083698
C360	C	1.660778	-0.004468	0.249635
H361	H	0.985906	-0.731207	-0.489868
H362	H	1.319239	-0.397874	-0.156534
H363	H	1.652573	-0.064540	0.176799
H364	H	0.934645	-0.737968	-0.434663
H365	H	1.267978	-0.404635	-0.101330
H366	H	1.601311	-0.071301	0.232003
H367	H	0.931150	-0.683310	-0.486327
H368	H	1.264483	-0.349977	-0.152994
H369	H	1.597817	-0.016644	0.180339
H370	H	1.021551	-0.696773	-0.391165
H371	H	1.354885	-0.363439	-0.057832
H372	H	1.688218	-0.030106	0.275501
H373	H	1.018070	-0.642111	-0.442836
H374	H	1.351404	-0.308778	-0.109502
H375	H	1.684737	0.024556	0.223831
C376	C	0.789793	-0.422801	-0.676731
C377	C	1.123127	-0.089468	-0.343398
C378	C	1.456460	0.243865	-0.010064
C379	C	0.825158	-0.387453	-0.722700
C380	C	1.158492	-0.054120	-0.389367
C381	C	1.491825	0.279214	-0.056033
H382	H	0.762458	-0.450118	-0.700702
H383	H	1.095791	-0.116785	-0.367368
H384	H	1.429125	0.216548	-0.034035
H385	H	0.817201	-0.446879	-0.649159
H386	H	1.150535	-0.113546	-0.315826
H387	H	1.483868	0.219787	0.017508
H388	H	0.765728	-0.395377	-0.649164
H389	H	1.099062	-0.062044	-0.315831
H390	H	1.432395	0.271290	0.017502
H391	H	0.849227	-0.414877	-0.750264
H392	H	1.182560	-0.081544	-0.416930
H393	H	1.515894	0.251789	-0.083597
H394	H	0.797747	-0.363373	-0.750284
H395	H	1.131080	-0.030040	-0.416951
H396	H	1.464414	0.303293	-0.083617
C397	C	0.789834	-0.576229	-0.197091
C398	C	1.123167	-0.242896	0.136243
C399	C	1.456501	0.090438	0.469576
C400	C	0.825133	-0.533430	-0.235113
C401	C	1.158466	-0.200097	0.098221
C402	C	1.491800	0.133236	0.431554
H403	H	0.762527	-0.553971	-0.167681
H404	H	1.095860	-0.220638	0.165652
H405	H	1.429193	0.112696	0.498985
H406	H	0.765748	-0.601876	-0.226562
H407	H	1.099081	-0.268543	0.106772
H408	H	1.432415	0.064791	0.440105
H409	H	0.817290	-0.601858	-0.171234
H410	H	1.150623	-0.268525	0.162099
H411	H	1.483957	0.064808	0.495433
H412	H	0.797677	-0.507804	-0.260974
H413	H	1.131010	-0.174470	0.072360
H414	H	1.464344	0.158863	0.405693
H415	H	0.849221	-0.507772	-0.205638
H416	H	1.182554	-0.174439	0.127695
H417	H	1.515887	0.158894	0.461029
C418	C	0.789821	-0.422727	-0.976020
C419	C	1.123155	-0.089394	-0.642687
C420	C	1.456488	0.243940	-0.309354
C421	C	0.825172	-0.387400	-0.930084
C422	C	1.158505	-0.054067	-0.596751
C423	C	1.491838	0.279267	-0.263417
H424	H	0.762473	-0.450049	-0.952024
H425	H	1.095806	-0.116716	-0.618691
H426	H	1.429139	0.216618	-0.285358
H427	H	0.765777	-0.395294	-1.003601
H428	H	1.099110	-0.061961	-0.670268
H429	H	1.432444	0.271372	-0.336934
H430	H	0.817242	-0.446804	-1.003581
H431	H	1.150576	-0.113471	-0.670248
H432	H	1.483909	0.219862	-0.336915
H433	H	0.797751	-0.363319	-0.902526
H434	H	1.131084	-0.029986	-0.569193
H435	H	1.464418	0.303348	-0.235859
H436	H	0.849218	-0.414836	-0.902491
H437	H	1.182551	-0.081503	-0.569158
H438	H	1.515885	0.251831	-0.235825
H439	H	0.836612	-0.376003	-0.584395
H440	H	1.169946	-0.042670	-0.251062
H441	H	1.503279	0.290663	0.082272
H442	H	0.982754	-0.943352	-0.404738
H443	H	1.316088	-0.610019	-0.071405
H444	H	1.649421	-0.276686	0.261929
H445	H	0.982791	-1.062616	-0.404765
H446	H	1.316124	-0.729283	-0.071432
H447	H	1.649457	-0.395950	0.261901
C448	C	0.789997	-0.977071	-0.197152
C449	C	1.123331	-0.643738	0.136181
C450	C	1.456664	-0.310404	0.469514
C451	C	0.825293	-0.934271	-0.235177
C452	C	1.158626	-0.600938	0.098156
C453	C	1.491959	-0.267605	0.431489
H454	H	0.762691	-0.954814	-0.167741
H455	H	1.096024	-0.621481	0.165592
H456	H	1.429358	-0.288147	0.498925
H457	H	0.765910	-1.002719	-0.226622
H458	H	1.099244	-0.669386	0.106712
H459	H	1.432577	-0.336052	0.440045
H460	H	0.817456	-1.002699	-0.171298
H461	H	1.150789	-0.669366	0.162036
H462	H	1.484122	-0.336033	0.495369
H463	H	0.797834	-0.908646	-0.261036
H464	H	1.131168	-0.575312	0.072297
H465	H	1.464501	-0.241979	0.405630
H466	H	0.849381	-0.908613	-0.205704
H467	H	1.182715	-0.575279	0.127629
H468	H	1.516048	-0.241946	0.460962
H469	H	0.982795	-0.229912	-0.584470
H470	H	1.316128	0.103421	-0.251137
H471	H	1.649462	0.436754	0.082197
