data_functionalizedCrystal
_audit_creation_method	'MofGen! by Chris Wilmer'
_symmetry_space_group_name_H-M	'P1'
_symmetry_Int_Tables_number	1
_symmetry_cell_setting	triclinic
loop_
_symmetry_equiv_pos_as_xyz
  x,y,z
_cell_length_a	18.215407
_cell_length_b	21.295418
_cell_length_c	21.295412
_cell_angle_alpha	90.029499
_cell_angle_beta	90.016570
_cell_angle_gamma	90.027848
loop_
_atom_site_label
_atom_site_type_symbol
_atom_site_fract_x
_atom_site_fract_y
_atom_site_fract_z
Zn1	Zn	1.125035	-0.250614	0.355921
Zn2	Zn	1.625035	0.249386	0.855921
Zn3	Zn	1.124945	-0.355883	0.250649
Zn4	Zn	1.624945	0.144117	0.750649
Zn5	Zn	1.001975	-0.250633	0.250666
Zn6	Zn	1.501975	0.249367	0.750666
Zn7	Zn	1.001928	-0.355850	0.355881
Zn8	Zn	1.501928	0.144150	0.855881
O9	O	1.063471	-0.303245	0.303279
O10	O	1.563471	0.196755	0.803279
O11	O	1.228008	-0.264584	0.341966
O12	O	1.728008	0.235416	0.841966
O13	O	1.108615	-0.341944	0.162562
O14	O	1.608615	0.158056	0.662562
O15	O	1.018356	-0.162541	0.264652
O16	O	1.518356	0.337459	0.764652
O17	O	1.227942	-0.341925	0.264624
O18	O	1.727942	0.158075	0.764624
O19	O	1.108768	-0.162527	0.341982
O20	O	1.608768	0.337473	0.841982
O21	O	1.018269	-0.264616	0.162574
O22	O	1.518269	0.235384	0.662574
O23	O	0.898985	-0.264584	0.264613
O24	O	1.398985	0.235416	0.764613
O25	O	1.018277	-0.341869	0.443976
O26	O	1.518277	0.158131	0.943976
O27	O	0.898950	-0.341887	0.341914
O28	O	1.398950	0.158113	0.841914
O29	O	1.108723	-0.264552	0.444005
O30	O	1.608723	0.235448	0.944005
O31	O	1.108570	-0.443968	0.264585
O32	O	1.608570	0.056032	0.764585
O33	O	1.018190	-0.443944	0.341898
O34	O	1.518190	0.056056	0.841898
C35	C	0.872265	-0.303234	0.303261
C36	C	1.372265	0.196766	0.803261
C37	C	0.790466	-0.303245	0.303268
C38	C	1.290466	0.196755	0.803268
C39	C	0.602273	-0.343560	0.343469
C40	C	1.102273	0.156440	0.843469
C41	C	0.525415	-0.343562	0.343476
C42	C	1.025415	0.156438	0.843476
C43	C	0.525421	-0.262942	0.263104
C44	C	1.025421	0.237058	0.763104
C45	C	0.602278	-0.262937	0.263099
C46	C	1.102278	0.237063	0.763099
C47	C	0.640702	-0.303250	0.303281
C48	C	1.140702	0.196750	0.803281
C49	C	0.486986	-0.303256	0.303293
C50	C	0.986986	0.196744	0.803293
C51	C	0.403653	-0.303258	0.303301
C52	C	0.903653	0.196742	0.803301
C53	C	0.724041	-0.303247	0.303274
C54	C	1.224041	0.196753	0.803274
C55	C	1.063385	-0.466797	0.303249
C56	C	1.563385	0.033203	0.803249
C57	C	1.063415	-0.536765	0.303257
C58	C	1.563415	-0.036765	0.803257
C59	C	1.110709	-1.036215	0.263124
C60	C	1.610709	-0.536215	0.763124
C61	C	1.110681	-0.970472	0.263109
C62	C	1.610681	-0.470472	0.763109
C63	C	1.063575	-0.937604	0.303323
C64	C	1.563575	-0.437604	0.803323
C65	C	1.016480	-0.970484	0.343544
C66	C	1.516480	-0.470484	0.843544
C67	C	1.016504	-1.036226	0.343553
C68	C	1.516504	-0.536226	0.843553
N69	N	1.057850	-0.834352	0.358406
N70	N	1.557850	-0.334352	0.858406
N71	N	1.057831	-0.771901	0.358396
N72	N	1.557831	-0.271901	0.858396
C73	C	1.063498	-0.739530	0.303297
C74	C	1.563498	-0.239530	0.803297
N75	N	1.069198	-0.771969	0.248208
N76	N	1.569198	-0.271969	0.748208
N77	N	1.069221	-0.834426	0.248219
N78	N	1.569221	-0.334426	0.748219
C79	C	1.063543	-0.866319	0.303317
C80	C	1.563543	-0.366319	0.803317
C81	C	1.110556	-0.635372	0.263059
C82	C	1.610556	-0.135372	0.763059
C83	C	1.110523	-0.569628	0.263043
C84	C	1.610523	-0.069628	0.763043
C85	C	1.016326	-0.569642	0.343484
C86	C	1.516326	-0.069642	0.843484
C87	C	1.016355	-0.635384	0.343495
C88	C	1.516355	-0.135384	0.843495
C89	C	1.063474	-0.668245	0.303283
C90	C	1.563474	-0.168245	0.803283
C91	C	1.255424	-0.303256	0.303298
C92	C	1.755424	0.196744	0.803298
C93	C	1.337223	-0.303261	0.303306
C94	C	1.837223	0.196739	0.803306
C95	C	1.063505	-0.303205	0.467470
C96	C	1.563505	0.196795	0.967470
C97	C	1.063519	-0.303187	0.537438
C98	C	1.563519	0.196813	1.037438
C99	C	1.063578	-0.139055	0.303323
C100	C	1.563578	0.360945	0.803323
C101	C	1.063623	-0.069087	0.303342
C102	C	1.563623	0.430913	0.803342
C103	C	1.063480	-0.303240	0.139728
C104	C	1.563480	0.196760	0.639728
C105	C	1.063608	-0.303080	0.069760
C106	C	1.563608	0.196920	0.569760
C107	C	1.110685	-0.262829	1.036912
C108	C	1.610685	0.237171	1.536912
C109	C	1.110679	-0.262844	0.971170
C110	C	1.610679	0.237156	1.471170
C111	C	1.063583	-0.303104	0.938277
C112	C	1.563583	0.196896	1.438277
C113	C	1.016503	-0.343363	0.971133
C114	C	1.516503	0.156637	1.471133
C115	C	1.016515	-0.343351	1.036874
C116	C	1.516515	0.156649	1.536874
N117	N	0.999142	-0.307948	0.835049
N118	N	1.499142	0.192052	1.335049
N119	N	0.999132	-0.307956	0.772597
N120	N	1.499132	0.192044	1.272597
C121	C	1.063545	-0.303143	0.740203
C122	C	1.563545	0.196857	1.240203
N123	N	1.127968	-0.298311	0.772619
N124	N	1.627968	0.201689	1.272619
N125	N	1.127977	-0.298300	0.835076
N126	N	1.627977	0.201700	1.335076
C127	C	1.063565	-0.303122	0.866992
C128	C	1.563565	0.196878	1.366992
C129	C	1.110619	-0.262906	0.636069
C130	C	1.610619	0.237094	1.136069
C131	C	1.110615	-0.262926	0.570325
C132	C	1.610615	0.237074	1.070325
C133	C	1.016432	-0.343442	0.570290
C134	C	1.516432	0.156558	1.070290
C135	C	1.016443	-0.343426	0.636033
C136	C	1.516443	0.156574	1.136033
C137	C	1.063536	-0.303155	0.668918
C138	C	1.563536	0.196845	1.168918
H139	H	0.633556	-0.376383	0.376189
H140	H	1.133556	0.123617	0.876189
N141	N	1.158802	-0.221709	1.070504
N142	N	1.658802	0.278291	1.570504
N143	N	1.205694	-0.243853	1.107183
N144	N	1.705694	0.256147	1.607183
H145	H	1.239679	-0.214814	1.130909
H146	H	1.739679	0.285186	1.630909
H147	H	0.978161	-1.062990	0.376306
H148	H	1.478161	-0.562990	0.876306
H149	H	0.978179	-0.376130	1.063619
H150	H	1.478179	0.123870	1.563619
N151	N	1.158773	-0.221722	0.937617
N152	N	1.658773	0.278278	1.437617
N153	N	1.200815	-0.185771	0.966987
N154	N	1.700815	0.314229	1.466987
H155	H	1.234782	-0.156728	0.943292
H156	H	1.734782	0.343272	1.443292
N157	N	0.968365	-0.936924	0.384633
N158	N	1.468365	-0.436924	0.884633
N159	N	0.926329	-0.966285	0.420543
N160	N	1.426329	-0.466285	0.920543
H161	H	0.892344	-0.942584	0.449563
H162	H	1.392344	-0.442584	0.949563
N163	N	0.486181	-0.221770	0.222049
N164	N	0.986181	0.278230	0.722049
N165	N	0.520504	-0.185782	0.186170
N166	N	1.020504	0.314218	0.686170
H167	H	0.492793	-0.156704	0.157173
H168	H	0.992793	0.343296	0.657173
N169	N	0.968405	-0.384488	0.937528
N170	N	1.468405	0.115512	1.437528
N171	N	0.968399	-0.384493	0.878831
N172	N	1.468399	0.115507	1.378831
H173	H	0.934430	-0.413540	0.855097
H174	H	1.434430	0.086460	1.355097
N175	N	1.158722	-0.221767	0.669656
N176	N	1.658722	0.278233	1.169656
N177	N	1.200756	-0.185831	0.640316
N178	N	1.700756	0.314169	1.140316
H179	H	1.234728	-0.156774	0.664035
H180	H	1.734728	0.343226	1.164035
N181	N	1.158677	-0.668950	0.221986
N182	N	1.658677	-0.168950	0.721986
N183	N	1.205573	-0.705586	0.244175
N184	N	1.705573	-0.205586	0.744175
H185	H	1.239559	-0.729299	0.215166
H186	H	1.739559	-0.229299	0.715166
H187	H	1.148863	-0.542863	0.230289
H188	H	1.648863	-0.042863	0.730289
N189	N	0.641538	-0.221750	0.222055
N190	N	1.141538	0.278250	0.722055
N191	N	0.632986	-0.163670	0.226338
N192	N	1.132986	0.336330	0.726338
H193	H	0.660714	-0.134581	0.197355
H194	H	1.160714	0.365419	0.697355
H195	H	1.149074	-1.062966	0.230378
H196	H	1.649074	-0.562966	0.730378
H197	H	0.978105	-0.376200	0.662777
H198	H	1.478105	0.123800	1.162777
H199	H	1.148955	-0.230150	0.543582
H200	H	1.648955	0.269850	1.043582
H201	H	1.149025	-0.943703	0.230357
H202	H	1.649025	-0.443703	0.730357
H203	H	0.977968	-0.542881	0.376225
H204	H	1.477968	-0.042881	0.876225
N205	N	0.968254	-0.668956	0.384582
N206	N	1.468254	-0.168956	0.884582
N207	N	0.926195	-0.639606	0.420484
N208	N	1.426195	-0.139606	0.920484
H209	H	0.892220	-0.663315	0.449503
H210	H	1.392220	-0.163315	0.949503
N211	N	0.968321	-0.384558	0.536692
N212	N	1.468321	0.115442	1.036692
N213	N	0.921433	-0.362412	0.500010
N214	N	1.421433	0.137588	1.000010
H215	H	0.887452	-0.391451	0.476278
H216	H	1.387452	0.108549	0.976278
N217	N	0.486172	-0.384738	0.384534
N218	N	0.986172	0.115262	0.884534
N219	N	0.520492	-0.420723	0.420408
N220	N	1.020492	0.079277	0.920408
H221	H	0.492777	-0.449805	0.449409
H222	H	0.992777	0.050195	0.949409
