data_functionalizedCrystal
_audit_creation_method	'MofGen! by Chris Wilmer'
_symmetry_space_group_name_H-M	'P1'
_symmetry_Int_Tables_number	1
_symmetry_cell_setting	triclinic
loop_
_symmetry_equiv_pos_as_xyz
  x,y,z
_cell_length_a	10.654553
_cell_length_b	12.503552
_cell_length_c	10.654550
_cell_angle_alpha	86.445056
_cell_angle_beta	84.485540
_cell_angle_gamma	93.557862
loop_
_atom_site_label
_atom_site_type_symbol
_atom_site_fract_x
_atom_site_fract_y
_atom_site_fract_z
O1	O	1.675027	0.089330	0.169220
O2	O	1.309549	0.089329	0.186022
O3	O	1.500691	0.089326	-0.005118
O4	O	1.483885	0.089334	0.360360
O5	O	1.486299	-0.089316	0.009269
O6	O	1.295157	-0.089313	0.200409
O7	O	1.660636	-0.089312	0.183607
Cu8	Cu	1.476582	-0.105624	0.193322
Cu9	Cu	1.493602	0.105641	0.176307
O10	O	1.469494	-0.089308	0.374747
C11	C	1.255555	0.000008	0.191981
C12	C	1.116112	0.000008	0.188288
N13	N	1.464621	-0.254216	0.205289
C14	C	0.911728	-0.097363	0.190916
C15	C	1.042748	-0.097369	0.194394
C16	C	1.058448	0.097397	0.178715
C17	C	0.927429	0.097402	0.175246
C18	C	0.902665	-0.209809	0.199963
C19	C	1.033685	-0.209815	0.203441
C20	C	1.523163	-0.526651	0.146723
C21	C	1.447035	-0.473325	0.222892
C22	C	1.456822	-0.351402	0.213095
C23	C	1.513378	-0.648585	0.156519
C24	C	1.714629	0.000012	0.177648
C25	C	1.854073	0.000019	0.181341
C26	C	1.492261	0.000006	-0.044722
C27	C	1.488570	0.000010	-0.184166
N28	N	1.505574	0.254234	0.164331
C29	C	1.601111	0.000007	-0.263650
C30	C	1.597635	0.000014	-0.394672
C31	C	1.369066	0.000023	-0.366711
C32	C	1.372544	0.000023	-0.235693
C33	C	1.733073	-0.000003	-0.279793
C34	C	1.729597	0.000004	-0.410815
C35	C	1.477924	0.000014	0.414351
C36	C	1.481616	0.000017	0.553794
H37	H	0.880491	0.176699	0.167465
O38	O	1.360624	-0.528258	0.309440
C39	C	1.271881	-0.701632	0.398157
C40	C	1.369808	-0.639550	0.300108
H41	H	1.279255	-0.791622	0.390628
H42	H	1.290927	-0.679674	0.497175
H43	H	1.172890	-0.679547	0.379196
H44	H	1.468837	-0.661601	0.318952
H45	H	1.350652	-0.661512	0.201123
H46	H	1.773296	-0.074755	-0.446554
H47	H	1.775691	0.077137	-0.462670
H48	H	1.060439	-0.244706	0.297852
H49	H	1.595684	-0.480742	0.074161
O50	O	1.263101	-0.000013	-0.158659
C51	C	1.036032	0.000076	-0.144764
C52	C	1.159884	0.000091	-0.232148
H53	H	0.952551	0.000183	-0.204147
H54	H	1.025823	-0.074702	-0.076728
H55	H	1.038049	0.074821	-0.088719
H56	H	1.157954	-0.074603	-0.288276
H57	H	1.170046	0.074919	-0.300103
O58	O	1.129630	0.192017	0.173012
C59	C	1.169803	0.358505	0.269251
C60	C	1.089119	0.251375	0.275877
H61	H	1.137062	0.406536	0.352391
H62	H	1.273359	0.341837	0.273457
H63	H	1.158663	0.406485	0.176929
H64	H	1.100151	0.203341	0.368186
H65	H	0.985594	0.268118	0.271600
O66	O	1.256469	-0.000016	-0.416972
C67	C	1.149816	0.000063	-0.606426
C68	C	1.277419	0.000083	-0.549676
H69	H	1.166712	0.000166	-0.713726
H70	H	1.088095	-0.074715	-0.567847
H71	H	1.100172	0.074808	-0.579709
H72	H	1.327170	-0.074611	-0.576371
H73	H	1.339049	0.074911	-0.588254
H74	H	1.768880	-0.077137	-0.237954
O75	O	0.843489	-0.261297	0.307747
C76	C	0.867301	-0.355243	0.507546
C77	C	0.934478	-0.296941	0.385558
H78	H	0.940836	-0.384097	0.570478
H79	H	0.805551	-0.297719	0.559935
H80	H	0.805769	-0.427147	0.482486
H81	H	0.996076	-0.225041	0.410507
H82	H	0.996151	-0.354536	0.333201
O83	O	0.864226	-0.251509	0.094004
C84	C	0.926233	-0.329726	-0.101643
C85	C	0.969934	-0.282552	0.018312
H86	H	1.011677	-0.354817	-0.162886
H87	H	0.857471	-0.402745	-0.073863
H88	H	0.877192	-0.266461	-0.157028
H89	H	1.019031	-0.345738	0.073753
H90	H	1.038636	-0.209511	-0.009553
O91	O	1.801649	0.089292	-0.251988
C92	C	1.823059	0.282746	-0.264343
C93	C	1.745271	0.181712	-0.295884
H94	H	1.777523	0.357493	-0.299843
H95	H	1.825871	0.282838	-0.157656
H96	H	1.923438	0.282697	-0.312262
H97	H	1.644856	0.181695	-0.248049
H98	H	1.742564	0.181660	-0.402585
O99	O	1.084934	-0.261166	0.104000
C100	C	1.230651	-0.248163	-0.084683
C101	C	1.172734	-0.189894	0.027883
H102	H	1.301629	-0.190559	-0.146269
H103	H	1.280633	-0.320084	-0.048146
H104	H	1.152487	-0.276973	-0.143019
H105	H	1.250821	-0.161015	0.086264
H106	H	1.122720	-0.118023	-0.008739
