data_functionalizedCrystal
_audit_creation_method	'MofGen! by Chris Wilmer'
_symmetry_space_group_name_H-M	'P1'
_symmetry_Int_Tables_number	1
_symmetry_cell_setting	triclinic
loop_
_symmetry_equiv_pos_as_xyz
  x,y,z
_cell_length_a	17.077404
_cell_length_b	13.897448
_cell_length_c	13.897441
_cell_angle_alpha	90.028012
_cell_angle_beta	89.978207
_cell_angle_gamma	89.980206
loop_
_atom_site_label
_atom_site_type_symbol
_atom_site_fract_x
_atom_site_fract_y
_atom_site_fract_z
Zn1	Zn	1.200090	0.383978	-0.545426
Zn2	Zn	1.533424	0.717312	-0.212092
Zn3	Zn	1.866757	1.050645	0.121241
Zn4	Zn	1.200000	0.545300	-0.384134
Zn5	Zn	1.533333	0.878633	-0.050801
Zn6	Zn	1.866667	1.211967	0.282532
Zn7	Zn	1.068817	0.384021	-0.384141
Zn8	Zn	1.402150	0.717355	-0.050808
Zn9	Zn	1.735484	1.050688	0.282525
Zn10	Zn	1.068798	0.545234	-0.545384
Zn11	Zn	1.402131	0.878567	-0.212051
Zn12	Zn	1.735465	1.211900	0.121283
O13	O	1.134426	0.464633	-0.464771
O14	O	1.467760	0.797967	-0.131438
O15	O	1.801093	1.131300	0.201895
O16	O	1.309925	0.405388	-0.524045
O17	O	1.643259	0.738721	-0.190711
O18	O	1.976592	1.072054	0.142622
O19	O	1.182568	0.523952	-0.249154
O20	O	1.515902	0.857285	0.084180
O21	O	1.849235	1.190618	0.417513
O22	O	1.086277	0.249034	-0.405556
O23	O	1.419610	0.582367	-0.072223
O24	O	1.752943	0.915701	0.261110
O25	O	1.309859	0.523910	-0.405545
O26	O	1.643192	0.857243	-0.072211
O27	O	1.976526	1.190577	0.261122
O28	O	1.182723	0.249002	-0.524051
O29	O	1.516056	0.582336	-0.190718
O30	O	1.849389	0.915669	0.142615
O31	O	1.086189	0.405461	-0.249159
O32	O	1.419522	0.738794	0.084175
O33	O	1.752856	1.072128	0.417508
O34	O	0.958968	0.405397	-0.405516
O35	O	1.292301	0.738730	-0.072182
O36	O	1.625634	1.072063	0.261151
O37	O	1.086244	0.523797	-0.680371
O38	O	1.419577	0.857130	-0.347038
O39	O	1.752911	1.190464	-0.013705
O40	O	0.958954	0.523839	-0.523980
O41	O	1.292287	0.857172	-0.190647
O42	O	1.625620	1.190505	0.142686
O43	O	1.182704	0.405323	-0.680402
O44	O	1.516037	0.738657	-0.347069
O45	O	1.849371	1.071990	-0.013735
O46	O	1.182550	0.680273	-0.405504
O47	O	1.515883	1.013606	-0.072171
O48	O	1.849216	1.346940	0.261162
O49	O	1.086156	0.680224	-0.523974
O50	O	1.419490	1.013557	-0.190640
O51	O	1.752823	1.346891	0.142693
C52	C	0.930478	0.464616	-0.464745
C53	C	1.263812	0.797949	-0.131411
C54	C	1.597145	1.131283	0.201922
C55	C	0.843229	0.464632	-0.464756
C56	C	1.176562	0.797965	-0.131423
C57	C	1.509895	1.131298	0.201910
C58	C	0.802252	0.526397	-0.526342
C59	C	1.135585	0.859731	-0.193008
C60	C	1.468918	1.193064	0.140325
C61	C	0.720271	0.526400	-0.526357
C62	C	1.053605	0.859733	-0.193024
C63	C	1.386938	1.193066	0.140309
C64	C	0.679269	0.464640	-0.464782
C65	C	1.012603	0.797973	-0.131448
C66	C	1.345936	1.131307	0.201885
C67	C	0.720252	0.402867	-0.403193
C68	C	1.053585	0.736201	-0.069860
C69	C	1.386919	1.069534	0.263473
C70	C	0.802231	0.402861	-0.403183
C71	C	1.135564	0.736194	-0.069850
C72	C	1.468898	1.069528	0.263483
C73	C	0.549382	0.402886	-0.403216
C74	C	0.882715	0.736220	-0.069883
C75	C	1.216049	1.069553	0.263450
C76	C	0.467397	0.402894	-0.403225
C77	C	0.800731	0.736227	-0.069891
C78	C	1.134064	1.069560	0.263442
C79	C	0.467422	0.526425	-0.526390
C80	C	0.800756	0.859758	-0.193057
C81	C	1.134089	1.193091	0.140276
C82	C	0.549401	0.526419	-0.526380
C83	C	0.882735	0.859752	-0.193047
C84	C	1.216068	1.193085	0.140286
C85	C	0.590378	0.464647	-0.464791
C86	C	0.923712	0.797980	-0.131457
C87	C	1.257045	1.131314	0.201876
C88	C	1.134362	0.715248	-0.464755
C89	C	1.467696	1.048581	-0.131421
C90	C	1.801029	1.381914	0.201912
C91	C	1.134407	0.822462	-0.464780
C92	C	1.467740	1.155795	-0.131447
C93	C	1.801073	1.489128	0.201887
C94	C	1.134484	1.018757	-0.464849
C95	C	1.467817	1.352090	-0.131516
C96	C	1.801151	1.685423	0.201817
C97	C	1.134439	0.909524	-0.464814
C98	C	1.467772	1.242858	-0.131480
C99	C	1.801106	1.576191	0.201853
C100	C	1.339171	0.464652	-0.464799
C101	C	1.672504	0.797985	-0.131465
C102	C	2.005837	1.131318	0.201868
C103	C	1.426420	0.464659	-0.464810
C104	C	1.759754	0.797993	-0.131477
C105	C	2.093087	1.131326	0.201856
C106	C	1.134482	0.464548	-0.716364
C107	C	1.467815	0.797881	-0.383031
C108	C	1.801149	1.131215	-0.049698
C109	C	1.134506	0.464512	-0.823578
C110	C	1.467839	0.797845	-0.490245
C111	C	1.801172	1.131178	-0.156912
C112	C	1.134505	1.213040	-0.464820
C113	C	1.467839	1.546374	-0.131487
C114	C	1.801172	1.879707	0.201846
C115	C	1.134522	1.105826	-0.464870
C116	C	1.467855	1.439160	-0.131537
C117	C	1.801188	1.772493	0.201796
C118	C	1.134527	0.464447	-1.019874
C119	C	1.467860	0.797780	-0.686540
C120	C	1.801194	1.131113	-0.353207
C121	C	1.134513	0.464485	-0.910641
C122	C	1.467846	0.797819	-0.577308
C123	C	1.801179	1.131152	-0.243975
C124	C	1.134416	0.464649	-0.214157
C125	C	1.467749	0.797982	0.119176
C126	C	1.801083	1.131315	0.452510
C127	C	1.134544	0.464413	-0.106944
C128	C	1.467878	0.797747	0.226390
C129	C	1.801211	1.131080	0.559723
H130	H	0.582783	0.576714	-0.576515
H131	H	0.916116	0.910047	-0.243182
H132	H	1.249450	1.243381	0.090151
H133	H	0.686862	0.352577	-0.353061
H134	H	1.020195	0.685911	-0.019728
H135	H	1.353528	1.019244	0.313605
H136	H	0.835630	0.576693	-0.576481
H137	H	1.168963	0.910026	-0.243147
H138	H	1.502296	1.243359	0.090186
Cl139	Cl	0.600895	0.325229	-0.325788
Cl140	Cl	0.934228	0.658562	0.007545
Cl141	Cl	1.267561	0.991896	0.340879
Cl142	Cl	0.668761	0.604052	-0.603783
Cl143	Cl	1.002094	0.937385	-0.270449
Cl144	Cl	1.335427	1.270718	0.062884
H145	H	0.434055	0.576719	-0.576542
H146	H	0.767388	0.910052	-0.243208
H147	H	1.100722	1.243385	0.090125
H148	H	0.434016	0.352592	-0.353096
H149	H	0.767349	0.685925	-0.019763
H150	H	1.100682	1.019259	0.313571
H151	H	0.835593	0.352560	-0.353039
H152	H	1.168927	0.685893	-0.019706
H153	H	1.502260	1.019227	0.313627
