data_functionalizedCrystal
_audit_creation_method	'MofGen! by Chris Wilmer'
_symmetry_space_group_name_H-M	'P1'
_symmetry_Int_Tables_number	1
_symmetry_cell_setting	triclinic
loop_
_symmetry_equiv_pos_as_xyz
  x,y,z
_cell_length_a	14.853567
_cell_length_b	17.699083
_cell_length_c	16.776229
_cell_angle_alpha	90.007545
_cell_angle_beta	90.004166
_cell_angle_gamma	83.458973
loop_
_atom_site_label
_atom_site_type_symbol
_atom_site_fract_x
_atom_site_fract_y
_atom_site_fract_z
O1	O	-1.196004	-0.098817	-0.066235
O2	O	-0.933501	-0.110588	-0.066249
O3	O	-1.072169	0.005468	-0.066234
O4	O	-1.057336	-0.214872	-0.066249
O5	O	-1.072151	0.005475	0.066342
O6	O	-0.933483	-0.110581	0.066328
O7	O	-1.195986	-0.098810	0.066342
Zn8	Zn	-1.064731	-0.104694	0.087384
Zn9	Zn	-1.064756	-0.104704	-0.087291
O10	O	-1.057318	-0.214865	0.066327
C11	C	-0.899905	-0.110051	0.000038
C12	C	-0.799828	-0.108453	0.000033
C13	C	-1.071628	0.033670	0.000054
C14	C	-1.070034	0.117692	0.000054
C15	C	-1.229582	-0.099347	0.000053
C16	C	-1.329659	-0.100945	0.000053
C17	C	-0.387572	-0.032757	0.000056
C18	C	-0.365784	-0.170634	0.000046
C19	C	-0.459812	-0.172136	0.000043
C20	C	-0.517725	-0.103948	0.000045
C21	C	-0.481610	-0.034258	0.000051
C22	C	-0.495934	-0.241826	0.000030
C23	C	-0.589968	-0.243332	0.000026
C24	C	-0.647883	-0.175143	0.000034
C25	C	-0.611762	-0.105449	0.000040
C26	C	-0.669675	-0.037261	0.000043
C27	C	-0.633556	0.032433	0.000055
C28	C	-0.539524	0.033931	0.000059
C29	C	-0.741915	-0.176641	0.000030
C30	C	-0.763712	-0.038762	0.000038
C31	C	-1.057859	-0.243067	0.000037
C32	C	-1.059453	-0.327089	0.000032
N33	N	-1.064721	-0.104687	0.206595
C34	C	-1.151429	0.166101	0.000060
C35	C	-1.149925	0.245049	0.000052
C36	C	-1.067026	0.275585	0.000046
C37	C	-0.985625	0.227169	0.000038
C38	C	-0.987129	0.148223	0.000039
C39	C	-0.979555	0.545548	0.000031
C40	C	-0.978057	0.624499	0.000032
C41	C	-1.142352	0.642373	0.000044
C42	C	-1.143856	0.563428	0.000046
C43	C	-1.062455	0.515019	0.000034
C44	C	-1.064087	0.429415	0.000040
C45	C	-1.065394	0.361187	0.000045
N46	N	-1.064773	-0.104704	-0.206502
C47	C	-1.126142	-0.053319	0.248319
C48	C	-1.126147	-0.053318	0.331771
C49	C	-1.064735	-0.104690	0.373498
C50	C	-1.003308	-0.156061	0.331769
C51	C	-1.003299	-0.156057	0.248318
C52	C	-1.003340	-0.156076	0.668316
C53	C	-1.003356	-0.156077	0.751773
C54	C	-1.126188	-0.053337	0.751769
C55	C	-1.126180	-0.053333	0.668318
C56	C	-1.064750	-0.104701	0.626596
C57	C	-1.064744	-0.104700	0.536108
C58	C	-1.064745	-0.104695	0.463985
H59	H	-0.680721	0.087952	0.000051
H60	H	-1.216206	0.284461	0.000059
H61	H	-1.208632	0.681798	0.000050
C62	C	-0.887954	0.657507	-0.000024
C63	C	-0.816988	0.598217	-0.000058
C64	C	-0.733978	0.628595	-0.000119
H65	H	-0.883813	0.687926	0.046196
H66	H	-0.883920	0.687907	-0.046275
H67	H	-0.821020	0.567830	0.046189
H68	H	-0.821099	0.567793	-0.046273
H69	H	-0.729944	0.658995	-0.046371
H70	H	-0.729846	0.659014	0.046101
H71	H	-0.685817	0.588372	-0.000150
C72	C	-0.895709	0.260466	0.000071
C73	C	-0.911810	0.339965	0.000095
C74	C	-0.829001	0.370662	0.000139
H75	H	-0.862139	0.243934	-0.046151
H76	H	-0.862188	0.243901	0.046320
H77	H	-0.945317	0.356523	-0.046150
H78	H	-0.945367	0.356517	0.046313
H79	H	-0.795479	0.354097	0.046388
H80	H	-0.795436	0.354125	-0.046083
H81	H	-0.839914	0.424604	0.000163
C82	C	-1.192861	0.002543	0.203163
C83	C	-1.246634	0.047543	0.257569
C84	C	-1.308096	0.099021	0.216003
H85	H	-1.230410	-0.024651	0.170595
H86	H	-1.160522	0.034143	0.170637
H87	H	-1.278970	0.015947	0.290080
H88	H	-1.209110	0.074753	0.290138
H89	H	-1.275757	0.130621	0.183477
H90	H	-1.345639	0.071821	0.183436
H91	H	-1.344583	0.129564	0.252911
H92	H	-0.913274	0.506142	0.000021
C93	C	-1.192696	0.002539	0.377108
C94	C	-1.144796	0.048967	0.425016
C95	C	-1.206074	0.100441	0.466780
H96	H	-1.230188	-0.024658	0.409717
H97	H	-1.229258	0.033173	0.340326
H98	H	-1.108250	0.018337	0.461793
H99	H	-1.107308	0.076181	0.392426
H100	H	-1.242635	0.131075	0.429998
H101	H	-1.243562	0.073238	0.499385
H102	H	-1.173582	0.131953	0.499285
H103	H	-0.953343	-0.197912	0.785746
H104	H	-1.211361	0.538570	0.000055
H105	H	-0.510108	0.090673	0.000087
C106	C	-1.192896	0.002528	0.623159
C107	C	-1.246671	0.047530	0.677561
C108	C	-1.308130	0.099008	0.635992
H109	H	-1.230444	-0.024665	0.590590
H110	H	-1.160554	0.034127	0.590634
H111	H	-1.279011	0.015936	0.710072
H112	H	-1.209149	0.074741	0.710132
H113	H	-1.275788	0.130607	0.603467
H114	H	-1.345671	0.071808	0.603424
H115	H	-1.344618	0.129553	0.672897
C116	C	-1.241529	0.133099	0.000024
C117	C	-1.312489	0.192395	0.000003
C118	C	-1.395503	0.162025	-0.000045
H119	H	-1.245658	0.102690	0.046243
H120	H	-1.245584	0.102690	-0.046228
H121	H	-1.308436	0.222791	0.046250
H122	H	-1.308389	0.222809	-0.046213
H123	H	-1.399558	0.131617	-0.046296
H124	H	-1.399623	0.131617	0.046175
H125	H	-1.443659	0.202253	-0.000066
H126	H	-0.619367	-0.300081	0.000017
H127	H	-0.953324	-0.197902	0.634353
H128	H	-0.358160	0.023987	0.000068
C129	C	-0.826543	0.035297	-0.000125
C130	C	-0.810255	0.077242	-0.068337
C131	C	-0.868125	0.145464	-0.068520
H132	H	-0.815665	0.063961	0.046057
H133	H	-0.887732	0.024456	-0.000175
H134	H	-0.749080	0.088085	-0.068279
H135	H	-0.821138	0.048601	-0.114530
H136	H	-0.929314	0.134623	-0.068570
H137	H	-0.857242	0.174120	-0.022335
H138	H	-0.857087	0.173928	-0.114804
H139	H	-0.953300	-0.197886	0.365748
C140	C	-0.936575	-0.211916	0.203159
C141	C	-0.882811	-0.256921	0.257561
C142	C	-0.821338	-0.308392	0.215991
H143	H	-0.899021	-0.184718	0.170614
H144	H	-0.968906	-0.243513	0.170611
H145	H	-0.850482	-0.225328	0.290096
H146	H	-0.920340	-0.284136	0.290109
H147	H	-0.853670	-0.339990	0.183443
H148	H	-0.783791	-0.281187	0.183447
H149	H	-0.784858	-0.338939	0.252897
H150	H	-1.176206	-0.011508	0.785748
C151	C	-0.302952	-0.244686	-0.000125
C152	C	-0.319238	-0.286638	-0.068346
C153	C	-0.261362	-0.354856	-0.068534
H154	H	-0.313826	-0.273346	0.046051
H155	H	-0.241765	-0.233840	-0.000167
H156	H	-0.380411	-0.297485	-0.068296
H157	H	-0.308358	-0.258001	-0.114533
H158	H	-0.200174	-0.344011	-0.068576
H159	H	-0.272240	-0.383510	-0.022355
H160	H	-0.272397	-0.383326	-0.114825
H161	H	-0.920849	0.108808	0.000035
C162	C	-0.433169	-0.315914	0.000147
C163	C	-0.449487	-0.357881	0.068336
C164	C	-0.391690	-0.426143	0.068465
H165	H	-0.371963	-0.305149	0.000195
H166	H	-0.444115	-0.344526	-0.046068
H167	H	-0.438534	-0.329275	0.114538
H168	H	-0.510681	-0.368666	0.068302
H169	H	-0.402636	-0.454755	0.022251
H170	H	-0.330487	-0.415370	0.068511
H171	H	-0.402759	-0.454629	0.114726
H172	H	-0.771318	-0.233385	0.000022
