data_functionalizedCrystal
_audit_creation_method	'MofGen! by Chris Wilmer'
_symmetry_space_group_name_H-M	'P1'
_symmetry_Int_Tables_number	1
_symmetry_cell_setting	triclinic
loop_
_symmetry_equiv_pos_as_xyz
  x,y,z
_cell_length_a	18.101398
_cell_length_b	29.839131
_cell_length_c	18.101389
_cell_angle_alpha	90.021287
_cell_angle_beta	90.024327
_cell_angle_gamma	90.036686
loop_
_atom_site_label
_atom_site_type_symbol
_atom_site_fract_x
_atom_site_fract_y
_atom_site_fract_z
Zn1	Zn	1.132068	-0.178957	0.418824
Zn2	Zn	1.131941	-0.254074	0.294976
Zn3	Zn	1.008227	-0.178952	0.294985
Zn4	Zn	1.008155	-0.254055	0.418765
O5	O	1.070098	-0.216510	0.356887
O6	O	1.235684	-0.188932	0.402416
O7	O	1.115507	-0.244115	0.191344
O8	O	1.024737	-0.116086	0.311441
O9	O	1.235591	-0.244119	0.311426
O10	O	1.115723	-0.116089	0.402425
O11	O	1.024615	-0.188924	0.191351
O12	O	0.904584	-0.188905	0.311384
O13	O	1.024615	-0.244087	0.522406
O14	O	0.904532	-0.244082	0.402324
O15	O	1.115654	-0.188913	0.522449
O16	O	1.115438	-0.316938	0.311369
O17	O	1.024493	-0.316924	0.402315
C18	C	0.877687	-0.216491	0.356849
C19	C	0.795373	-0.216494	0.356850
C20	C	0.496282	-0.216522	0.356912
C21	C	0.527616	-0.181633	0.299974
C22	C	0.613234	-0.181726	0.299731
C23	C	0.644665	-0.216508	0.356881
C24	C	0.613533	-0.263830	0.335553
C25	C	0.527888	-0.263636	0.335157
C26	C	0.527900	-0.204501	0.435313
C27	C	0.613552	-0.203447	0.434885
C28	C	0.728524	-0.216503	0.356865
C29	C	0.412423	-0.216531	0.356926
C30	C	1.069964	-0.333232	0.356851
C31	C	1.069975	-0.383167	0.356860
C32	C	1.117539	-0.692805	0.309601
C33	C	1.117631	-0.880478	0.309629
O34	O	1.157965	-0.904738	0.269420
N35	N	1.070251	-0.903952	0.356943
C36	C	1.022849	-0.880504	0.404257
O37	O	0.982558	-0.904777	0.444506
C38	C	1.022762	-0.692832	0.404231
C39	C	1.070139	-0.669361	0.356909
C40	C	1.164913	-0.669333	0.262283
C41	C	1.164887	-0.622418	0.262273
C42	C	1.117487	-0.598974	0.309582
C43	C	1.070113	-0.622445	0.356899
C44	C	0.975365	-0.669386	0.451548
C45	C	0.975348	-0.622465	0.451539
C46	C	1.022725	-0.598993	0.404217
C47	C	1.022687	-0.552086	0.404198
N48	N	1.070066	-0.528612	0.356884
C49	C	1.117466	-0.552056	0.309576
C50	C	1.022898	-0.979035	0.404266
C51	C	1.022918	-1.025953	0.404272
C52	C	1.117700	-1.025923	0.309645
C53	C	1.117675	-0.979004	0.309636
C54	C	1.070277	-0.955561	0.356952
C55	C	1.117407	-0.453530	0.309559
C56	C	1.117374	-0.406610	0.309551
C57	C	1.022595	-0.406645	0.404181
C58	C	1.022625	-0.453560	0.404186
C59	C	1.070037	-0.477002	0.356872
O60	O	0.982379	-0.527797	0.444393
O61	O	1.157763	-0.527776	0.269344
C62	C	1.117565	-0.739720	0.309610
C63	C	1.070192	-0.763192	0.356928
C64	C	1.022792	-0.739748	0.404236
C65	C	1.070212	-0.810109	0.356934
C66	C	1.117612	-0.833553	0.309625
C67	C	1.164991	-0.810079	0.262311
C68	C	1.164965	-0.763164	0.262302
C69	C	0.975413	-0.763222	0.451550
C70	C	0.975442	-0.810137	0.451556
C71	C	1.022842	-0.833581	0.404247
C72	C	1.263260	-0.216528	0.356927
C73	C	1.345574	-0.216536	0.356943
C74	C	1.070141	-0.216498	0.550049
C75	C	1.070159	-0.216493	0.632364
C76	C	1.070252	-0.099331	0.356941
C77	C	1.070318	-0.049397	0.356963
C78	C	1.070098	-0.216488	0.164477
C79	C	1.070223	-0.216367	0.082163
C80	C	1.070202	-0.216409	0.931455
C81	C	1.012726	-0.251013	0.900102
C82	C	1.012881	-0.251173	0.814484
C83	C	1.070180	-0.216451	0.783072
C84	C	1.148202	-0.229306	0.814177
C85	C	1.147881	-0.229533	0.899822
C86	C	1.050335	-0.168874	0.899883
C87	C	1.048599	-0.169148	0.814232
C88	C	1.070172	-0.216474	0.699213
C89	C	1.070215	-0.216387	1.015314
H90	H	0.634950	-0.227008	0.479581
C91	C	0.500524	-0.238828	0.492629
C92	C	0.523932	-0.234407	0.574107
C93	C	0.496551	-0.268734	0.631416
C94	C	0.445761	-0.307483	0.607248
C95	C	0.422350	-0.311905	0.525767
C96	C	0.449731	-0.277578	0.468457
H97	H	0.561532	-0.205721	0.592001
H98	H	0.513881	-0.265460	0.691734
H99	H	0.425491	-0.332894	0.649672
H100	H	0.384750	-0.340591	0.507873
H101	H	0.432401	-0.280852	0.408139
H102	H	0.506064	-0.189489	0.242218
C103	C	0.641689	-0.134319	0.317763
C104	C	0.690810	-0.126586	0.386073
C105	C	0.719265	-0.079176	0.404093
C106	C	0.698599	-0.039499	0.353803
C107	C	0.649475	-0.047231	0.285489
C108	C	0.621020	-0.094641	0.267469
H109	H	0.706110	-0.155958	0.423305
H110	H	0.755629	-0.073452	0.454664
H111	H	0.719663	-0.004403	0.367142
H112	H	0.634175	-0.017858	0.248257
H113	H	0.584655	-0.100364	0.216898
C114	C	0.641049	-0.156403	0.456613
C115	C	0.687772	-0.150054	0.526961
C116	C	0.715276	-0.103010	0.548685
C117	C	0.696057	-0.062313	0.500061
C118	C	0.649332	-0.068660	0.429709
C119	C	0.621828	-0.115705	0.407985
H120	H	0.702001	-0.180181	0.562958
H121	H	0.749865	-0.098311	0.600764
H122	H	0.716417	-0.027488	0.516143
H123	H	0.635103	-0.038534	0.393711
H124	H	0.587239	-0.120403	0.355906
C125	C	1.030765	-0.298733	0.786726
C126	C	0.974923	-0.324025	0.737865
C127	C	0.992872	-0.371571	0.710072
C128	C	1.066663	-0.393823	0.731140
C129	C	1.122510	-0.368530	0.780004
C130	C	1.104561	-0.320985	0.807797
H131	H	0.920294	-0.307553	0.722267
H132	H	0.951530	-0.390294	0.673899
H133	H	1.079950	-0.429019	0.710566
H134	H	1.177140	-0.385003	0.795602
H135	H	1.145903	-0.302262	0.843970
H136	H	0.634944	-0.274203	0.278857
C137	C	0.499872	-0.299945	0.388728
C138	C	0.451097	-0.338463	0.359863
C139	C	0.423084	-0.374772	0.413429
C140	C	0.443846	-0.372563	0.495859
C141	C	0.492624	-0.334043	0.524728
C142	C	0.520637	-0.297734	0.471163
H143	H	0.435725	-0.340100	0.298840
H144	H	0.386976	-0.403287	0.392058
H145	H	0.423109	-0.399441	0.535512
H146	H	0.507996	-0.332406	0.585752
H147	H	0.556746	-0.269219	0.492534
C148	C	1.101028	-0.132469	0.785350
C149	C	1.070135	-0.093087	0.739908
C150	C	1.122572	-0.056409	0.711025
C151	C	1.205903	-0.059113	0.727584
C152	C	1.236800	-0.098497	0.773028
C153	C	1.184363	-0.135174	0.801911
H154	H	1.008445	-0.091084	0.727648
H155	H	1.099700	-0.027255	0.677385
H156	H	1.244720	-0.031962	0.706203
H157	H	1.298490	-0.100500	0.785288
H158	H	1.207235	-0.164329	0.835551
C159	C	0.934727	-0.240294	0.786065
C160	C	0.919561	-0.238307	0.702414
C161	C	0.841404	-0.227424	0.673999
C162	C	0.778413	-0.218530	0.729235
C163	C	0.793577	-0.220517	0.812890
C164	C	0.871734	-0.231399	0.841305
H165	H	0.966192	-0.244891	0.661521
H166	H	0.830179	-0.225953	0.612071
H167	H	0.720557	-0.210474	0.708200
H168	H	0.746946	-0.213933	0.853784
H169	H	0.882959	-0.232871	0.903233
H170	H	0.954696	-0.243050	0.920689
H171	H	0.994431	-0.157163	0.921470
C172	C	0.971034	-0.156050	0.786764
C173	C	0.955749	-0.152031	0.703335
C174	C	0.878184	-0.138935	0.675862
C175	C	0.815903	-0.129857	0.731817
C176	C	0.831186	-0.133876	0.815252
C177	C	0.908751	-0.146972	0.842725
H178	H	1.001854	-0.158751	0.661909
H179	H	0.866871	-0.135960	0.614098
H180	H	0.758485	-0.120163	0.711480
H181	H	0.785081	-0.127155	0.856678
H182	H	0.920064	-0.149946	0.904489
H183	H	1.156016	-0.472611	0.271034
C184	C	1.106884	-0.134042	0.927277
C185	C	1.170775	-0.148631	0.978039
C186	C	1.227326	-0.113805	1.005437
C187	C	1.219987	-0.064389	0.982073
C188	C	1.156093	-0.049798	0.931308
C189	C	1.099542	-0.084624	0.903910
H190	H	1.176210	-0.185214	0.995337
H191	H	1.274625	-0.124606	1.043017
H192	H	1.261850	-0.038608	1.002354
H193	H	1.150658	-0.013215	0.914010
H194	H	1.052243	-0.073823	0.866330
C195	C	0.500843	-0.277406	0.257728
C196	C	0.452742	-0.245061	0.212149
C197	C	0.425702	-0.258829	0.134718
C198	C	0.446763	-0.304943	0.102867
C199	C	0.494866	-0.337291	0.148446
C200	C	0.521906	-0.323523	0.225877
H201	H	0.437149	-0.210922	0.235727
H202	H	0.390093	-0.234883	0.100977
H203	H	0.426746	-0.315135	0.045548
H204	H	0.510459	-0.371430	0.124868
H205	H	0.557516	-0.347469	0.259618
H206	H	0.633889	-0.290522	0.375726
H207	H	0.506339	-0.170595	0.454703
H208	H	1.203467	-0.603310	0.223741
C209	C	0.640870	-0.192468	0.221254
C210	C	0.585009	-0.200990	0.158610
C211	C	0.612645	-0.211735	0.080131
C212	C	0.696141	-0.213958	0.064294
C213	C	0.752007	-0.205436	0.126939
C214	C	0.724372	-0.194691	0.205419
H215	H	0.523196	-0.199345	0.170332
H216	H	0.571289	-0.218044	0.033757
H217	H	0.716599	-0.221912	0.006199
H218	H	0.813821	-0.207081	0.115218
H219	H	0.765728	-0.188382	0.251793
C220	C	0.499835	-0.134081	0.317829
C221	C	0.453966	-0.108045	0.260478
C222	C	0.426178	-0.060492	0.278335
C223	C	0.444259	-0.038975	0.353543
C224	C	0.490130	-0.065011	0.410900
C225	C	0.517919	-0.112564	0.393043
H226	H	0.440579	-0.123972	0.204800
H227	H	0.392220	-0.041218	0.235876
H228	H	0.423688	-0.003773	0.366762
H229	H	0.503517	-0.049083	0.466578
H230	H	0.551876	-0.131838	0.435502
H231	H	0.984049	-0.472671	0.442722
H232	H	1.155954	-0.387501	0.271013
C233	C	1.217057	-0.695115	0.210236
C234	C	1.211052	-0.688681	0.126043
C235	C	1.263196	-0.714459	0.073987
C236	C	1.321345	-0.746671	0.106124
C237	C	1.327352	-0.753107	0.190322
C238	C	1.275208	-0.727329	0.242378
H239	H	1.168005	-0.664835	0.102249
H240	H	1.258749	-0.709695	0.011658
H241	H	1.359945	-0.765754	0.067590
H242	H	1.370400	-0.776954	0.214116
H243	H	1.279656	-0.732093	0.304706
H244	H	1.156254	-0.959896	0.271103
H245	H	0.936856	-0.829244	0.490090
C246	C	1.169845	-1.051717	0.257608
C247	C	1.169866	-1.103324	0.257624
C248	C	1.222012	-1.129121	0.205595
C249	C	1.274137	-1.103309	0.153550
C250	C	1.274119	-1.051698	0.153532
C251	C	1.221973	-1.025902	0.205561
H252	H	1.131277	-1.122434	0.296153
H253	H	1.222025	-1.167326	0.205609
H254	H	1.312739	-1.122405	0.115035
H255	H	1.312707	-1.032588	0.115003
H256	H	1.221960	-0.987696	0.205547
H257	H	0.984332	-1.045059	0.442799
H258	H	1.192156	-0.205424	0.920564
C259	C	0.970751	-0.953253	0.456316
C260	C	0.886570	-0.959758	0.450183
C261	C	0.834421	-0.933979	0.502232
C262	C	0.866452	-0.901695	0.560414
C263	C	0.950637	-0.895188	0.566549
C264	C	1.002786	-0.920967	0.514500
H265	H	0.862855	-0.983658	0.407111
H266	H	0.772101	-0.938796	0.497690
H267	H	0.827848	-0.882611	0.598943
H268	H	0.974352	-0.871287	0.609621
H269	H	1.065106	-0.916150	0.519042
H270	H	0.936815	-0.744137	0.490076
H271	H	0.936782	-0.688488	0.490080
C272	C	0.923205	-0.596679	0.503587
C273	C	0.955241	-0.564389	0.561758
C274	C	0.903097	-0.538604	0.613804
C275	C	0.818915	-0.545109	0.607678
C276	C	0.786874	-0.577400	0.549504
C277	C	0.839019	-0.603185	0.497459
H278	H	1.017561	-0.559573	0.566295
H279	H	0.926816	-0.514701	0.656868
H280	H	0.780315	-0.526021	0.646205
H281	H	0.724555	-0.582216	0.544967
H282	H	0.815300	-0.627088	0.454394
C283	C	0.970458	-0.380849	0.456217
C284	C	0.886274	-0.387343	0.450095
C285	C	0.834141	-0.361545	0.502135
C286	C	0.866191	-0.329254	0.560297
C287	C	0.950379	-0.322759	0.566421
C288	C	1.002513	-0.348556	0.514381
H289	H	0.862545	-0.411248	0.407039
H290	H	0.771819	-0.366354	0.497601
H291	H	0.827598	-0.310157	0.598820
H292	H	0.974108	-0.298854	0.609477
H293	H	1.064834	-0.343748	0.518915
H294	H	1.203584	-0.829176	0.223789
C295	C	1.030262	-0.298323	0.929174
C296	C	1.096487	-0.305642	0.981208
C297	C	1.114025	-0.352952	1.010281
C298	C	1.065339	-0.392944	0.987319
C299	C	0.999111	-0.385626	0.935282
C300	C	0.981572	-0.338316	0.906210
H301	H	1.132531	-0.276037	0.998208
H302	H	1.163053	-0.358369	1.048802
H303	H	1.078322	-0.427966	1.008840
H304	H	0.963066	-0.415232	0.918282
H305	H	0.932545	-0.332900	0.867688
H306	H	1.203544	-0.744057	0.223768
C307	C	1.170651	-0.276475	0.926809
C308	C	1.124339	-0.317726	0.905027
C309	C	1.147117	-0.364669	0.932005
C310	C	1.216208	-0.370360	0.980765
C311	C	1.262525	-0.329108	1.002549
C312	C	1.239746	-0.282165	0.975572
H313	H	1.073190	-0.313514	0.868930
H314	H	1.112830	-0.395207	0.915879
H315	H	1.233070	-0.405110	1.000735
H316	H	1.313673	-0.333320	1.038646
H317	H	1.274033	-0.251627	0.991698
C318	C	1.207612	-0.196329	0.786699
C319	C	1.185919	-0.157250	0.735575
C320	C	1.245327	-0.124272	0.708100
C321	C	1.326428	-0.130372	0.731748
C322	C	1.348125	-0.169452	0.782875
C323	C	1.288717	-0.202431	0.810350
H324	H	1.125880	-0.152733	0.718067
H325	H	1.229265	-0.095342	0.670252
H326	H	1.370406	-0.105959	0.711409
H327	H	1.408164	-0.173970	0.800383
H328	H	1.304778	-0.231361	0.848198
C329	C	1.171354	-0.275752	0.785215
C330	C	1.119607	-0.302054	0.733383
C331	C	1.142755	-0.348502	0.704424
C332	C	1.217649	-0.368647	0.727296
C333	C	1.269400	-0.342344	0.779131
C334	C	1.246253	-0.295897	0.808090
H335	H	1.064162	-0.287142	0.716449
H336	H	1.104445	-0.367972	0.666052
H337	H	1.234784	-0.403030	0.705858
H338	H	1.324845	-0.357257	0.796065
H339	H	1.284563	-0.276426	0.846462
