data_functionalizedCrystal
_audit_creation_method	'MofGen! by Chris Wilmer'
_symmetry_space_group_name_H-M	'P1'
_symmetry_Int_Tables_number	1
_symmetry_cell_setting	triclinic
loop_
_symmetry_equiv_pos_as_xyz
  x,y,z
_cell_length_a	12.827893
_cell_length_b	12.827892
_cell_length_c	12.827885
_cell_angle_alpha	90.032681
_cell_angle_beta	89.980728
_cell_angle_gamma	89.976915
loop_
_atom_site_label
_atom_site_type_symbol
_atom_site_fract_x
_atom_site_fract_y
_atom_site_fract_z
Zn1	Zn	1.597614	0.415983	-0.590828
Zn2	Zn	2.097614	0.915983	-0.090828
Zn3	Zn	1.597484	0.590761	-0.416079
Zn4	Zn	2.097484	1.090761	0.083921
Zn5	Zn	1.422855	0.416034	-0.416101
Zn6	Zn	1.922855	0.916034	0.083899
Zn7	Zn	1.422817	0.590683	-0.590779
Zn8	Zn	1.922817	1.090683	-0.090779
O9	O	1.510192	0.503365	-0.503447
O10	O	2.010192	1.003365	-0.003447
O11	O	1.743832	0.439179	-0.567658
O12	O	2.243832	0.939179	-0.067658
O13	O	1.574281	0.567637	-0.269846
O14	O	2.074281	1.067637	0.230154
O15	O	1.446107	0.269791	-0.439309
O16	O	1.946107	0.769791	0.060691
O17	O	1.743737	0.567587	-0.439271
O18	O	2.243737	1.067587	0.060729
O19	O	1.574502	0.269754	-0.567679
O20	O	2.074502	0.769754	-0.067679
O21	O	1.445982	0.439266	-0.269862
O22	O	1.945982	0.939266	0.230138
O23	O	1.276614	0.439190	-0.439262
O24	O	1.776614	0.939190	0.060738
O25	O	1.446042	0.567455	-0.737022
O26	O	1.946042	1.067455	-0.237022
O27	O	1.276586	0.567504	-0.567597
O28	O	1.776586	1.067504	-0.067597
O29	O	1.574465	0.439104	-0.737057
O30	O	2.074465	0.939104	-0.237057
O31	O	1.574244	0.736986	-0.439224
O32	O	2.074244	1.236986	0.060776
O33	O	1.445916	0.736929	-0.567575
O34	O	1.945916	1.236929	-0.067575
C35	C	1.238682	0.503345	-0.503427
C36	C	1.738682	1.003345	-0.003427
C37	C	1.122529	0.503362	-0.503443
C38	C	1.622529	1.003362	-0.003443
C39	C	1.510090	0.774875	-0.503415
C40	C	2.010090	1.274875	-0.003415
C41	C	1.510142	0.891028	-0.503436
C42	C	2.010142	1.391028	-0.003436
C43	C	1.070758	0.566955	-0.566849
C44	C	1.570758	1.066955	-0.066849
C45	C	0.950708	0.566973	-0.566868
C46	C	1.450708	1.066973	-0.066868
C47	C	1.446675	1.062864	-0.566919
C48	C	1.946675	1.562864	-0.066919
C49	C	1.446620	0.942813	-0.566899
C50	C	1.946620	1.442813	-0.066899
C51	C	1.782762	0.503386	-0.503467
C52	C	2.282762	1.003386	-0.003467
C53	C	1.898916	0.503395	-0.503476
C54	C	2.398916	1.003395	-0.003476
C55	C	1.510263	0.503265	-0.776017
C56	C	2.010263	1.003265	-0.276017
C57	C	1.510294	0.503222	-0.892170
C58	C	2.010294	1.003222	-0.392170
C59	C	1.510289	1.230795	-0.503489
C60	C	2.010289	1.730795	-0.003489
C61	C	1.510244	1.114642	-0.503475
C62	C	2.010244	1.614642	-0.003475
C63	C	1.573848	0.439698	-0.943973
C64	C	2.073848	0.939698	-0.443973
C65	C	1.573881	0.439652	-1.064023
C66	C	2.073881	0.939652	-0.564023
C67	C	1.510182	0.503390	-0.231937
C68	C	2.010182	1.003390	0.268063
C69	C	1.510354	0.503138	-0.115784
C70	C	2.010354	1.003138	0.384216
H71	H	1.115312	0.621381	-0.621124
H72	H	1.615312	1.121381	-0.121124
C73	C	1.436813	0.576648	-0.952319
C74	C	1.936813	1.076648	-0.452319
N75	N	1.381464	0.631955	-0.997622
N76	N	1.881464	1.131955	-0.497622
C77	C	1.373200	1.123040	-0.640319
C78	C	1.873200	1.623040	-0.140319
N79	N	1.317854	1.168364	-0.695604
N80	N	1.817854	1.668364	-0.195604
H81	H	0.906186	0.621420	-0.621149
H82	H	1.406186	1.121420	-0.121149
H83	H	0.943431	0.448952	-0.449185
H84	H	1.443431	0.948952	0.050815
C85	C	1.373093	0.882661	-0.640282
C86	C	1.873093	1.382661	-0.140282
N87	N	1.317712	0.837351	-0.695558
N88	N	1.817712	1.337351	-0.195558
C89	C	1.647322	0.366264	-0.883824
C90	C	2.147322	0.866264	-0.383824
N91	N	1.702666	0.310953	-0.838521
N92	N	2.202666	0.810953	-0.338521
H93	H	1.564566	0.935550	-0.449113
H94	H	2.064566	1.435550	0.050887
C95	C	1.583715	1.054466	-0.430071
C96	C	2.083715	1.554466	0.069929
N97	N	1.639054	1.009142	-0.374780
N98	N	2.139054	1.509142	0.125220
H99	H	1.628296	0.385270	-1.108572
H100	H	2.128296	0.885270	-0.608572
C101	C	1.062344	0.429825	-0.430124
C102	C	1.562344	0.929825	0.069876
N103	N	1.017014	0.374436	-0.374896
N104	N	1.517014	0.874436	0.125104
H105	H	1.455943	0.557531	-1.071242
H106	H	1.955943	1.057531	-0.571242
