data_functionalizedCrystal
_audit_creation_method	'MofGen! by Chris Wilmer'
_symmetry_space_group_name_H-M	'P1'
_symmetry_Int_Tables_number	1
_symmetry_cell_setting	triclinic
loop_
_symmetry_equiv_pos_as_xyz
  x,y,z
_cell_length_a	19.188930
_cell_length_b	17.038272
_cell_length_c	18.266242
_cell_angle_alpha	89.994947
_cell_angle_beta	90.022820
_cell_angle_gamma	92.871832
loop_
_atom_site_label
_atom_site_type_symbol
_atom_site_fract_x
_atom_site_fract_y
_atom_site_fract_z
O1	O	0.932212	-0.097591	0.061119
O2	O	1.265546	0.235742	0.394452
O3	O	1.598879	0.569076	0.727785
O4	O	0.729717	-0.110728	0.061069
O5	O	1.063050	0.222605	0.394402
O6	O	1.396384	0.555938	0.727735
O7	O	0.829761	0.009652	0.061088
O8	O	1.163095	0.342985	0.394421
O9	O	1.496428	0.676319	0.727754
O10	O	0.832168	-0.217971	0.061100
O11	O	1.165502	0.115362	0.394433
O12	O	1.498835	0.448695	0.727766
O13	O	0.829743	0.009655	-0.060674
O14	O	1.163076	0.342989	0.272659
O15	O	1.496409	0.676322	0.605992
O16	O	0.729699	-0.110725	-0.060693
O17	O	1.063032	0.222608	0.272640
O18	O	1.396365	0.555942	0.605973
O19	O	0.932194	-0.097588	-0.060643
O20	O	1.265527	0.235746	0.272690
O21	O	1.598860	0.569079	0.606023
Zn22	Zn	0.830943	-0.104156	-0.080001
Zn23	Zn	1.164277	0.229178	0.253333
Zn24	Zn	1.497610	0.562511	0.586666
Zn25	Zn	0.830968	-0.104160	0.080426
Zn26	Zn	1.164301	0.229173	0.413759
Zn27	Zn	1.497634	0.562506	0.747093
O28	O	0.832150	-0.217968	-0.060662
O29	O	1.165483	0.115365	0.272671
O30	O	1.498816	0.448699	0.606004
C31	C	0.703670	-0.110301	0.000181
C32	C	1.037004	0.223032	0.333515
C33	C	1.370337	0.556365	0.666848
C34	C	0.626087	-0.109024	0.000162
C35	C	0.959420	0.224309	0.333495
C36	C	1.292753	0.557643	0.666829
C37	C	0.827563	0.038775	0.000206
C38	C	1.160896	0.372108	0.333539
C39	C	1.494229	0.705442	0.666873
C40	C	0.821031	0.125548	0.000205
C41	C	1.154365	0.458881	0.333538
C42	C	1.487698	0.792214	0.666871
N43	N	0.830932	-0.104152	-0.189488
N44	N	1.164265	0.229181	0.143846
N45	N	1.497598	0.562514	0.477179
C46	C	0.585551	-0.179659	0.000177
C47	C	0.918884	0.153674	0.333511
C48	C	1.252218	0.487007	0.666844
C49	C	0.512653	-0.178460	0.000185
C50	C	0.845986	0.154874	0.333519
C51	C	1.179319	0.488207	0.666852
C52	C	0.480293	-0.106620	0.000193
C53	C	0.813626	0.226713	0.333526
C54	C	1.146960	0.560046	0.666859
C55	C	0.520838	-0.035976	0.000173
C56	C	0.854171	0.297357	0.333507
C57	C	1.187505	0.630691	0.666840
C58	C	0.593735	-0.037178	0.000158
C59	C	0.927068	0.296156	0.333491
C60	C	1.260401	0.629489	0.666825
N61	N	0.368908	-0.051710	0.041660
N62	N	0.702241	0.281624	0.374993
N63	N	1.035574	0.614957	0.708327
N64	N	0.299658	-0.050573	0.041676
N65	N	0.632992	0.282761	0.375010
N66	N	0.966325	0.616094	0.708343
C67	C	0.260659	-0.102995	0.000237
C68	C	0.593992	0.230338	0.333571
C69	C	0.927326	0.563672	0.666904
N70	N	0.293524	-0.156609	-0.041209
N71	N	0.626858	0.176724	0.292124
N72	N	0.960191	0.510057	0.625457
N73	N	0.362780	-0.157748	-0.041222
N74	N	0.696113	0.175585	0.292111
N75	N	1.029447	0.508918	0.625445
C76	C	0.401249	-0.105309	0.000209
C77	C	0.734582	0.228024	0.333542
C78	C	1.067916	0.561357	0.666876
C79	C	0.141078	-0.172334	0.000260
C80	C	0.474412	0.160999	0.333593
C81	C	0.807745	0.494332	0.666927
C82	C	0.068179	-0.171132	0.000264
C83	C	0.401512	0.162202	0.333597
C84	C	0.734846	0.495535	0.666930
C85	C	0.076366	-0.028646	0.000259
C86	C	0.409699	0.304687	0.333592
C87	C	0.743032	0.638021	0.666926
C88	C	0.149264	-0.029851	0.000248
C89	C	0.482597	0.303483	0.333582
C90	C	0.815930	0.636816	0.666915
C91	C	0.181616	-0.101697	0.000252
C92	C	0.514949	0.231636	0.333586
C93	C	0.848282	0.564970	0.666919
C94	C	0.958240	-0.098015	0.000246
C95	C	1.291574	0.235319	0.333579
C96	C	1.624907	0.568652	0.666912
C97	C	1.035824	-0.099292	0.000270
C98	C	1.369158	0.234042	0.333603
C99	C	1.702491	0.567375	0.666936
C100	C	0.834348	-0.247091	0.000221
C101	C	1.167681	0.086242	0.333554
C102	C	1.501015	0.419576	0.666888
C103	C	0.840880	-0.333863	0.000227
C104	C	1.174213	-0.000530	0.333560
C105	C	1.507546	0.332803	0.666894
C106	C	0.880998	0.175849	0.000219
C107	C	1.214331	0.509182	0.333552
C108	C	1.547664	0.842516	0.666885
C109	C	0.874857	0.257381	0.000224
C110	C	1.208190	0.590714	0.333558
C111	C	1.541523	0.924047	0.666891
C112	C	0.808748	0.288609	0.000210
C113	C	1.142082	0.621942	0.333544
C114	C	1.475415	0.955275	0.666877
C115	C	0.748777	0.238301	0.000199
C116	C	1.082111	0.571634	0.333532
C117	C	1.415444	0.904967	0.666865
C118	C	0.754919	0.156771	0.000198
C119	C	1.088253	0.490104	0.333532
C120	C	1.421586	0.823437	0.666865
C121	C	0.787050	0.534299	0.000215
C122	C	1.120384	0.867632	0.333548
C123	C	1.453717	1.200965	0.666882
C124	C	0.780913	0.615835	0.000213
C125	C	1.114246	0.949168	0.333546
C126	C	1.447580	1.282502	0.666880
C127	C	0.906993	0.634909	0.000240
C128	C	1.240326	0.968243	0.333573
C129	C	1.573660	1.301576	0.666907
C130	C	0.913129	0.553377	0.000235
C131	C	1.246462	0.886710	0.333569
C132	C	1.579796	1.220044	0.666902
C133	C	0.853158	0.503076	0.000228
C134	C	1.186491	0.836410	0.333561
C135	C	1.519825	1.169743	0.666894
C136	C	0.802470	0.371947	0.000214
C137	C	1.135803	0.705280	0.333547
C138	C	1.469136	1.038613	0.666880
C139	C	0.859437	0.419740	0.000229
C140	C	1.192771	0.753073	0.333563
C141	C	1.526104	1.086407	0.666896
C142	C	0.876079	-0.151449	-0.227777
C143	C	1.209413	0.181884	0.105557
C144	C	1.542746	0.515217	0.438890
C145	C	0.876091	-0.151447	-0.304422
C146	C	1.209424	0.181886	0.028912
C147	C	1.542757	0.515219	0.362245
C148	C	0.830942	-0.104157	-0.342774
C149	C	1.164275	0.229176	-0.009441
C150	C	1.497609	0.562510	0.323892
C151	C	0.785791	-0.056850	-0.304476
C152	C	1.119125	0.276483	0.028857
C153	C	1.452458	0.609817	0.362191
C154	C	0.785786	-0.056848	-0.227833
C155	C	1.119120	0.276486	0.105501
C156	C	1.452453	0.609819	0.438834
N157	N	0.769675	-0.102231	-0.463142
N158	N	1.103008	0.231102	-0.129809
N159	N	1.436341	0.564435	0.203524
N160	N	0.769682	-0.102238	-0.535950
N161	N	1.103015	0.231095	-0.202617
N162	N	1.436348	0.564429	0.130716
C163	C	0.830956	-0.104160	-0.573697
C164	C	1.164290	0.229173	-0.240364
C165	C	1.497623	0.562507	0.092970
N166	N	0.892225	-0.106090	-0.535885
N167	N	1.225558	0.227243	-0.202551
N168	N	1.558892	0.560577	0.130782
N169	N	0.892217	-0.106088	-0.463070
N170	N	1.225550	0.227246	-0.129737
N171	N	1.558884	0.560579	0.203597
C172	C	0.830943	-0.104154	-0.425881
C173	C	1.164276	0.229180	-0.092548
C174	C	1.497610	0.562513	0.240785
C175	C	0.876120	-0.151457	-0.695093
C176	C	1.209453	0.181876	-0.361760
C177	C	1.542787	0.515210	-0.028426
C178	C	0.876132	-0.151449	-0.771739
C179	C	1.209466	0.181884	-0.438406
C180	C	1.542799	0.515217	-0.105073
C181	C	0.785827	-0.056857	-0.771793
C182	C	1.119160	0.276477	-0.438459
C183	C	1.452494	0.609810	-0.105126
C184	C	0.785821	-0.056860	-0.695148
C185	C	1.119154	0.276473	-0.361814
C186	C	1.452487	0.609807	-0.028481
C187	C	0.830966	-0.104164	-0.656803
C188	C	1.164300	0.229169	-0.323469
C189	C	1.497633	0.562502	0.009864
N190	N	0.830984	-0.104157	0.189913
N191	N	1.164318	0.229176	0.523246
N192	N	1.497651	0.562509	0.856580
H193	H	0.611887	-0.238162	0.000182
H194	H	0.945220	0.095171	0.333515
H195	H	1.278554	0.428504	0.666849
F196	F	0.737743	-0.006518	-0.345295
F197	F	1.071076	0.326815	-0.011962
F198	F	1.404410	0.660148	0.321372
F199	F	0.924178	-0.201788	-0.654281
F200	F	1.257512	0.131545	-0.320947
F201	F	1.590845	0.464879	0.012386
F202	F	0.924191	-0.201788	-0.812489
F203	F	1.257524	0.131545	-0.479156
F204	F	1.590857	0.464878	-0.145823
F205	F	0.737729	-0.006509	-0.187081
F206	F	1.071062	0.326825	0.146252
F207	F	1.404396	0.660158	0.479585
H208	H	0.050019	0.029847	0.000310
H209	H	0.383353	0.363180	0.333644
H210	H	0.716686	0.696514	0.666977
H211	H	0.749054	-0.018349	-0.663972
H212	H	1.082387	0.314985	-0.330639
H213	H	1.415721	0.648318	0.002694
H214	H	0.912843	-0.189965	-0.196561
H215	H	1.246176	0.143368	0.136773
H216	H	1.579510	0.476701	0.470106
H217	H	0.749067	-0.018351	-0.803019
H218	H	1.082400	0.314982	-0.469685
H219	H	1.415734	0.648316	-0.136352
H220	H	0.479642	-0.235981	0.000196
H221	H	0.812975	0.097352	0.333529
H222	H	1.146309	0.430686	0.666862
F223	F	0.025038	-0.246316	0.000276
F224	F	0.358371	0.087018	0.333609
F225	F	0.691704	0.420351	0.666943
H226	H	0.912856	-0.189964	-0.335603
H227	H	1.246189	0.143369	-0.002269
H228	H	1.579522	0.476702	0.331064
H229	H	0.934830	0.150430	0.000226
H230	H	1.268163	0.483764	0.333559
H231	H	1.601497	0.817097	0.666892
H232	H	0.923688	0.298333	0.000234
H233	H	1.257021	0.631667	0.333567
H234	H	1.590355	0.965000	0.666901
H235	H	0.182269	0.027668	0.000240
H236	H	0.515602	0.361002	0.333573
H237	H	0.848935	0.694335	0.666906
H238	H	0.913263	0.394310	0.000257
H239	H	1.246596	0.727644	0.333590
H240	H	1.579929	1.060977	0.666924
H241	H	0.494486	0.022516	0.000189
H242	H	0.827819	0.355849	0.333523
H243	H	1.161153	0.689183	0.666856
H244	H	0.748644	0.397382	0.000201
H245	H	1.081977	0.730715	0.333534
H246	H	1.415310	1.064048	0.666867
H247	H	0.626739	0.020344	0.000146
H248	H	0.960072	0.353677	0.333479
H249	H	1.293406	0.687010	0.666813
F250	F	0.710548	0.649068	0.000195
F251	F	1.043882	0.982401	0.333528
F252	F	1.377215	1.315734	0.666861
F253	F	0.175512	-0.248798	0.000259
F254	F	0.508846	0.084535	0.333592
F255	F	0.842179	0.417868	0.666926
H256	H	0.966961	0.527958	0.000247
H257	H	1.300295	0.861291	0.333580
H258	H	1.633628	1.194624	0.666913
H259	H	0.738217	0.493353	0.000208
H260	H	1.071551	0.826686	0.333542
H261	H	1.404884	1.160020	0.666875
F262	F	0.970814	0.688448	0.000250
F263	F	1.304147	1.021781	0.333583
F264	F	1.637480	1.355115	0.666916
H265	H	0.694950	0.263733	0.000192
H266	H	1.028284	0.597066	0.333525
H267	H	1.361617	0.930399	0.666859
F268	F	0.691094	0.103236	0.000186
F269	F	1.024428	0.436569	0.333519
F270	F	1.357761	0.769903	0.666852
