data_functionalizedCrystal
_audit_creation_method	'MofGen! by Chris Wilmer'
_symmetry_space_group_name_H-M	'P1'
_symmetry_Int_Tables_number	1
_symmetry_cell_setting	triclinic
loop_
_symmetry_equiv_pos_as_xyz
  x,y,z
_cell_length_a	17.640112
_cell_length_b	17.637651
_cell_length_c	17.640968
_cell_angle_alpha	70.334811
_cell_angle_beta	92.139080
_cell_angle_gamma	114.329102
loop_
_atom_site_label
_atom_site_type_symbol
_atom_site_fract_x
_atom_site_fract_y
_atom_site_fract_z
Zn1	Zn	1.242024	-0.024656	-0.191252
Zn2	Zn	1.174933	-0.201700	-0.036779
Zn3	Zn	1.076328	-0.080477	-0.081230
Zn4	Zn	1.076310	-0.190404	-0.191115
O5	O	1.142399	-0.124309	-0.125094
O6	O	1.343742	-0.029508	-0.152215
O7	O	1.133782	-0.213708	0.067959
O8	O	1.126393	0.047027	-0.114485
O9	O	1.294451	-0.159581	-0.038724
O10	O	1.248129	0.088038	-0.195317
O11	O	1.061337	-0.124646	0.035301
O12	O	0.965707	-0.113693	-0.114352
O13	O	1.126363	-0.140329	-0.301768
O14	O	0.965694	-0.194456	-0.195084
O15	O	1.248112	-0.018555	-0.301868
O16	O	1.133765	-0.320300	-0.038592
O17	O	1.061308	-0.312001	-0.151982
C18	C	0.937018	-0.158906	-0.159527
C19	C	0.849156	-0.173723	-0.174274
C20	C	0.560301	-0.011732	-0.013076
C21	C	0.477739	-0.025669	-0.026941
C22	C	0.477701	-0.109964	-0.110809
C23	C	0.560265	-0.096030	-0.096955
C24	C	0.601559	-0.046914	-0.048087
C25	C	0.601523	-0.131212	-0.131966
C26	C	0.684079	-0.117283	-0.118109
C27	C	0.725377	-0.068172	-0.069241
C28	C	0.684115	-0.032985	-0.034230
C29	C	0.560226	-0.180333	-0.180828
C30	C	0.601484	-0.215515	-0.215839
C31	C	0.684044	-0.201581	-0.201987
C32	C	0.725342	-0.152470	-0.153120
C33	C	0.725307	-0.236767	-0.236998
C34	C	0.807862	-0.222838	-0.223142
C35	C	0.807898	-0.138541	-0.139263
C36	C	1.090280	-0.347283	-0.090462
C37	C	1.068063	-0.442653	-0.075661
C38	C	1.311759	-0.649227	-0.237701
C39	C	1.290854	-0.738850	-0.223783
C40	C	1.164132	-0.781675	-0.139504
C41	C	1.185029	-0.692055	-0.153411
C42	C	1.258843	-0.625837	-0.202511
C43	C	1.132113	-0.668665	-0.118221
C44	C	1.153006	-0.579052	-0.132131
C45	C	1.226815	-0.512829	-0.181231
C46	C	1.279736	-0.536224	-0.216421
C47	C	1.058296	-0.734884	-0.069126
C48	C	1.005380	-0.711494	-0.033936
C49	C	1.026276	-0.621879	-0.047841
C50	C	1.100085	-0.555657	-0.096941
C51	C	0.973355	-0.598484	-0.012651
C52	C	0.994249	-0.508871	-0.026561
C53	C	1.120979	-0.466044	-0.110851
C54	C	1.348581	-0.089578	-0.090526
C55	C	1.436443	-0.074777	-0.075796
C56	C	1.194719	-0.071955	-0.331306
C57	C	1.217015	-0.049645	-0.419181
C58	C	1.194746	0.099543	-0.159875
C59	C	1.217054	0.194936	-0.174696
C60	C	0.973431	-0.293279	-0.707925
C61	C	0.994401	-0.272302	-0.790496
C62	C	1.121167	-0.145509	-0.790590
C63	C	1.100206	-0.166473	-0.708018
C64	C	1.026337	-0.240360	-0.666692
C65	C	1.153113	-0.113554	-0.666785
C66	C	1.132155	-0.134520	-0.584219
C67	C	1.058291	-0.208405	-0.542887
C68	C	1.005380	-0.261326	-0.584126
C69	C	1.226984	-0.039671	-0.708111
C70	C	1.279890	0.013248	-0.666878
C71	C	1.258930	-0.007714	-0.584313
C72	C	1.185066	-0.081599	-0.542980
C73	C	1.311841	0.045208	-0.543073
C74	C	1.290884	0.024242	-0.460508
C75	C	1.164109	-0.102564	-0.460414
C76	C	1.090341	-0.176390	0.080314
C77	C	1.068255	-0.198433	0.168177
H78	H	0.493004	-0.191672	-0.192109
Cl79	Cl	1.071337	-0.864927	-0.077787
Cl80	Cl	1.357389	-0.768250	-0.268022
H81	H	0.913266	-0.353428	-0.674281
H82	H	0.567851	-0.255508	-0.255625
Cl83	Cl	1.372752	0.106129	-0.718838
Cl84	Cl	0.425872	0.018558	0.017085
H85	H	0.951158	-0.489829	0.002094
H86	H	0.792599	-0.056834	-0.057958
Cl87	Cl	0.736035	0.028768	0.027198
H88	H	0.444067	-0.149956	-0.150595
H89	H	0.951312	-0.315401	-0.824065
Cl90	Cl	1.071238	-0.195446	-0.408457
H91	H	1.371989	0.105361	-0.576732
H92	H	1.041282	-0.807851	-0.057811
Cl93	Cl	0.673378	-0.298530	-0.298412
Cl94	Cl	1.404563	-0.565976	-0.299416
Cl95	Cl	1.214028	-0.052628	-0.842550
H96	H	1.041231	-0.225476	-0.475655
H97	H	1.243825	-0.439861	-0.192555
H98	H	0.841456	-0.251486	-0.251652
Cl99	Cl	1.213782	-0.382792	-0.172566
Cl100	Cl	1.372540	-0.452972	-0.278136
H101	H	0.945280	-0.765419	0.006039
Cl102	Cl	1.357397	0.090767	-0.408667
H103	H	0.913252	-0.652411	0.027320
Cl104	Cl	1.253332	-0.013317	-0.811909
H105	H	0.945215	-0.321475	-0.550482
H106	H	0.841527	-0.098530	-0.099484
H107	H	0.593930	0.028278	0.026703
