data_functionalizedCrystal
_audit_creation_method	'MofGen! by Chris Wilmer'
_symmetry_space_group_name_H-M	'P1'
_symmetry_Int_Tables_number	1
_symmetry_cell_setting	triclinic
loop_
_symmetry_equiv_pos_as_xyz
  x,y,z
_cell_length_a	13.032831
_cell_length_b	29.839131
_cell_length_c	29.839126
_cell_angle_alpha	89.978002
_cell_angle_beta	82.804042
_cell_angle_gamma	82.845366
loop_
_atom_site_label
_atom_site_type_symbol
_atom_site_fract_x
_atom_site_fract_y
_atom_site_fract_z
Zn1	Zn	1.597520	-0.266263	-0.341065
Zn2	Zn	1.597320	-0.341370	-0.265924
Zn3	Zn	1.422748	-0.256708	-0.256423
Zn4	Zn	1.422668	-0.331805	-0.331508
O5	O	1.510064	-0.299036	-0.298730
O6	O	1.743728	-0.284229	-0.339074
O7	O	1.574112	-0.330144	-0.201794
O8	O	1.446049	-0.195115	-0.267675
O9	O	1.743582	-0.339409	-0.283868
O10	O	1.574453	-0.202135	-0.329861
O11	O	1.445855	-0.267942	-0.194814
O12	O	1.276502	-0.258667	-0.258408
O13	O	1.445913	-0.323106	-0.395646
O14	O	1.276444	-0.313841	-0.313572
O15	O	1.574376	-0.274953	-0.402667
O16	O	1.574035	-0.402962	-0.274601
O17	O	1.445719	-0.395934	-0.322784
C18	C	1.238556	-0.284179	-0.283922
C19	C	1.122403	-0.277834	-0.277597
C20	C	1.509875	-0.415749	-0.298698
C21	C	1.509890	-0.465684	-0.298704
C22	C	1.070617	-0.302348	-0.302031
C23	C	0.950568	-0.295791	-0.295495
C24	C	1.577000	-0.778990	-0.273690
C25	C	1.577129	-0.966670	-0.273714
O26	O	1.634038	-0.994041	-0.252420
N27	N	1.510281	-0.986490	-0.298776
C28	C	1.443401	-0.959387	-0.323836
O29	O	1.386553	-0.980553	-0.345157
C30	C	1.443278	-0.771709	-0.323814
C31	C	1.510122	-0.751891	-0.298747
C32	C	1.643840	-0.759172	-0.248625
C33	C	1.643803	-0.712254	-0.248617
C34	C	1.576926	-0.685155	-0.273674
C35	C	1.510085	-0.704973	-0.298739
C36	C	1.376404	-0.744607	-0.348876
C37	C	1.376381	-0.697685	-0.348869
C38	C	1.443225	-0.677867	-0.323802
C39	C	1.443171	-0.630956	-0.323788
N40	N	1.510019	-0.611136	-0.298726
C41	C	1.576896	-0.638236	-0.273669
C42	C	1.443468	-1.057922	-0.323845
C43	C	1.443498	-1.104841	-0.323850
C44	C	1.577227	-1.112121	-0.273729
C45	C	1.577192	-1.065200	-0.273721
C46	C	1.510316	-1.038102	-0.298783
C47	C	1.576813	-0.539705	-0.273654
C48	C	1.576767	-0.492783	-0.273647
C49	C	1.443042	-0.485508	-0.323770
C50	C	1.443083	-0.532426	-0.323776
C51	C	1.509978	-0.559524	-0.298716
O52	O	1.386300	-0.603559	-0.345074
O53	O	1.633752	-0.617063	-0.252359
C54	C	1.577037	-0.825908	-0.273697
C55	C	1.510196	-0.845726	-0.298762
C56	C	1.443319	-0.818626	-0.323819
C57	C	1.510226	-0.892645	-0.298767
C58	C	1.577103	-0.919744	-0.273710
C59	C	1.643951	-0.899924	-0.248648
C60	C	1.643914	-0.853007	-0.248640
C61	C	1.376471	-0.838446	-0.348881
C62	C	1.376513	-0.885364	-0.348887
C63	C	1.443390	-0.912464	-0.323830
C64	C	1.782632	-0.313952	-0.313597
C65	C	1.898785	-0.320308	-0.319932
C66	C	1.510158	-0.299029	-0.415914
C67	C	1.510198	-0.299025	-0.465850
C68	C	1.510282	-0.181870	-0.298774
C69	C	1.510375	-0.131941	-0.298793
C70	C	1.576967	-0.331353	-0.826075
C71	C	1.576969	-0.331384	-0.638402
O72	O	1.633728	-0.358940	-0.617229
N73	N	1.510193	-0.299003	-0.611295
C74	C	1.443407	-0.266614	-0.631110
O75	O	1.386602	-0.239076	-0.603748
C76	C	1.443401	-0.266585	-0.818782
C77	C	1.510188	-0.298965	-0.845886
C78	C	1.643749	-0.363730	-0.853179
C79	C	1.643752	-0.363721	-0.900094
C80	C	1.576973	-0.331333	-0.919906
C81	C	1.510191	-0.298956	-0.892802
C82	C	1.376610	-0.234199	-0.838595
C83	C	1.376612	-0.234195	-0.885516
C84	C	1.443400	-0.266575	-0.912621
C85	C	1.443416	-0.266559	-0.959529
N86	N	1.510192	-0.298939	-0.986635
C87	C	1.576970	-0.331327	-0.966824
C88	C	1.443416	-0.266631	-0.532580
C89	C	1.443419	-0.266638	-0.485662
C90	C	1.576980	-0.331408	-0.492957
C91	C	1.576982	-0.331399	-0.539876
C92	C	1.510192	-0.299012	-0.559686
C93	C	1.576972	-0.331304	-1.065350
C94	C	1.576972	-0.331290	-1.112269
C95	C	1.443408	-0.266521	-1.104970
C96	C	1.443411	-0.266533	-1.058055
C97	C	1.510197	-0.298928	-1.038246
O98	O	1.386678	-0.239020	-0.980732
O99	O	1.633750	-0.358867	-0.994192
C100	C	1.576964	-0.331362	-0.779159
C101	C	1.510183	-0.298985	-0.752055
C102	C	1.443404	-0.266597	-0.771866
C103	C	1.510185	-0.298991	-0.705137
C104	C	1.576964	-0.331379	-0.685326
C105	C	1.643740	-0.363760	-0.712432
C106	C	1.643743	-0.363750	-0.759347
C107	C	1.376628	-0.234217	-0.744760
C108	C	1.376631	-0.234229	-0.697845
C109	C	1.443410	-0.266616	-0.678033
C110	C	1.510031	-0.299015	-0.182006
C111	C	1.510193	-0.298903	-0.132081
H112	H	1.115158	-0.328188	-0.327790
H113	H	1.388588	-0.463436	-0.344170
H114	H	1.389056	-1.120972	-0.344258
H115	H	1.389045	-0.240266	-0.463598
F116	F	1.648050	-0.365878	-0.471864
F117	F	1.372284	-1.029087	-0.350521
H118	H	1.698237	-0.696122	-0.228207
F119	F	0.892360	-0.262009	-0.261828
F120	F	1.064191	-0.244054	-0.243932
H121	H	0.943320	-0.346149	-0.345694
H122	H	1.631200	-0.476649	-0.253233
H123	H	1.631287	-0.561763	-0.253250
F124	F	1.715028	-0.788007	-0.221954
H125	H	1.389025	-0.240256	-0.548704
F126	F	1.305266	-0.765689	-0.375561
H127	H	1.631623	-1.049068	-0.253310
H128	H	1.322223	-0.207821	-0.901643
H129	H	1.631682	-1.134193	-0.253326
F130	F	1.372340	-0.232067	-1.029208
H131	H	1.631363	-0.357658	-1.134336
F132	F	1.305202	-0.668847	-0.375545
H133	H	1.322013	-0.816385	-0.369286
F134	F	1.371921	-0.553517	-0.350445
F135	F	1.305547	-0.199761	-0.669003
F136	F	1.715063	-0.831921	-0.221962
H137	H	1.698402	-0.921997	-0.228244
H138	H	1.322070	-0.901495	-0.369298
H139	H	1.631362	-0.357680	-1.049227
H140	H	1.389041	-0.240151	-1.121109
H141	H	1.698134	-0.390089	-0.922159
H142	H	1.698129	-0.390106	-0.837054
F143	F	1.648065	-0.365863	-0.568718
H144	H	1.322222	-0.207832	-0.816534
F145	F	1.714826	-0.398214	-0.788188
F146	F	1.714815	-0.398227	-0.691339
F147	F	1.305531	-0.199750	-0.765837
