data_functionalizedCrystal
_audit_creation_method	'MofGen! by Chris Wilmer'
_symmetry_space_group_name_H-M	'P1'
_symmetry_Int_Tables_number	1
_symmetry_cell_setting	triclinic
loop_
_symmetry_equiv_pos_as_xyz
  x,y,z
_cell_length_a	19.288840
_cell_length_b	16.992696
_cell_length_c	17.766277
_cell_angle_alpha	90.014127
_cell_angle_beta	89.983415
_cell_angle_gamma	93.102767
loop_
_atom_site_label
_atom_site_type_symbol
_atom_site_fract_x
_atom_site_fract_y
_atom_site_fract_z
O1	O	0.927058	-0.097701	-0.062734
O2	O	1.260392	0.235632	0.270599
O3	O	1.593725	0.568965	0.603932
O4	O	0.725565	-0.110914	-0.062710
O5	O	1.058899	0.222419	0.270623
O6	O	1.392232	0.555753	0.603957
O7	O	0.825504	0.009832	-0.062701
O8	O	1.158837	0.343165	0.270632
O9	O	1.492171	0.676499	0.603965
O10	O	0.827120	-0.218447	-0.062743
O11	O	1.160453	0.114886	0.270590
O12	O	1.493787	0.448219	0.603923
O13	O	0.825485	0.009838	0.062487
O14	O	1.158818	0.343172	0.395821
O15	O	1.492152	0.676505	0.729154
O16	O	0.725546	-0.110908	0.062478
O17	O	1.058880	0.222425	0.395812
O18	O	1.392213	0.555759	0.729145
O19	O	0.927039	-0.097695	0.062454
O20	O	1.260373	0.235638	0.395788
O21	O	1.593706	0.568972	0.729121
Cu22	Cu	0.826291	-0.104301	0.073897
Cu23	Cu	1.159624	0.229032	0.407230
Cu24	Cu	1.492958	0.562366	0.740564
Cu25	Cu	0.826314	-0.104308	-0.074153
Cu26	Cu	1.159647	0.229025	0.259180
Cu27	Cu	1.492980	0.562359	0.592514
O28	O	0.827101	-0.218441	0.062445
O29	O	1.160434	0.114892	0.395779
O30	O	1.493767	0.448225	0.729112
C31	C	0.699655	-0.110489	-0.000112
C32	C	1.032988	0.222844	0.333221
C33	C	1.366321	0.556178	0.666554
C34	C	0.622476	-0.109223	-0.000102
C35	C	0.955810	0.224111	0.333231
C36	C	1.289143	0.557444	0.666564
C37	C	0.586248	-0.108618	-0.068344
C38	C	0.919581	0.224716	0.264989
C39	C	1.252914	0.558049	0.598322
C40	C	0.513731	-0.107419	-0.068353
C41	C	0.847064	0.225914	0.264980
C42	C	1.180398	0.559248	0.598313
C43	C	0.477446	-0.106810	-0.000116
C44	C	0.810780	0.226524	0.333217
C45	C	1.144113	0.559857	0.666550
C46	C	0.513683	-0.107419	0.068135
C47	C	0.847017	0.225914	0.401468
C48	C	1.180350	0.559247	0.734801
C49	C	0.586198	-0.108626	0.068142
C50	C	0.919532	0.224708	0.401475
C51	C	1.252865	0.558041	0.734808
C52	C	0.365323	-0.058978	0.052161
C53	C	0.698656	0.274355	0.385494
C54	C	1.031990	0.607689	0.718828
C55	C	0.292810	-0.057767	0.052151
C56	C	0.626143	0.275567	0.385484
C57	C	0.959477	0.608900	0.718818
C58	C	0.253786	-0.103092	-0.000135
C59	C	0.587119	0.230241	0.333198
C60	C	0.920453	0.563575	0.666531
C61	C	0.287285	-0.149618	-0.052424
C62	C	0.620618	0.183715	0.280909
C63	C	0.953952	0.517048	0.614242
C64	C	0.359800	-0.150825	-0.052417
C65	C	0.693133	0.182508	0.280916
C66	C	1.026467	0.515842	0.614249
C67	C	0.398816	-0.105502	-0.000116
C68	C	0.732149	0.227831	0.333217
C69	C	1.065483	0.561165	0.666550
C70	C	0.138926	-0.101188	-0.068392
C71	C	0.472260	0.232145	0.264942
C72	C	0.805593	0.565478	0.598275
C73	C	0.066408	-0.099994	-0.068398
C74	C	0.399741	0.233339	0.264935
C75	C	0.733075	0.566672	0.598269
C76	C	0.066363	-0.099987	0.068092
C77	C	0.399696	0.233347	0.401425
C78	C	0.733029	0.566680	0.734759
C79	C	0.138879	-0.101188	0.068096
C80	C	0.472212	0.232145	0.401430
C81	C	0.805546	0.565478	0.734763
C82	C	0.175157	-0.101785	-0.000148
C83	C	0.508490	0.231548	0.333186
C84	C	0.841824	0.564881	0.666519
C85	C	0.823416	0.039040	-0.000103
C86	C	1.156750	0.372373	0.333230
C87	C	1.490083	0.705707	0.666564
C88	C	0.817215	0.126062	-0.000091
C89	C	1.150549	0.459395	0.333242
C90	C	1.483882	0.792728	0.666576
C91	C	0.877044	0.176520	-0.000091
C92	C	1.210377	0.509853	0.333242
C93	C	1.543710	0.843186	0.666575
C94	C	0.871213	0.258285	-0.000087
C95	C	1.204547	0.591618	0.333246
C96	C	1.537880	0.924952	0.666580
C97	C	0.805554	0.289591	-0.000077
C98	C	1.138887	0.622924	0.333256
C99	C	1.472220	0.956258	0.666590
C100	C	0.745721	0.239127	-0.000079
C101	C	1.079054	0.572460	0.333254
C102	C	1.412387	0.905793	0.666588
C103	C	0.751552	0.157363	-0.000089
C104	C	1.084885	0.490696	0.333245
C105	C	1.418219	0.824030	0.666578
C106	C	0.781386	0.533101	-0.000053
C107	C	1.114719	0.866434	0.333281
C108	C	1.448053	1.199768	0.666614
C109	C	0.775559	0.614871	-0.000041
C110	C	1.108893	0.948204	0.333293
C111	C	1.442226	1.281538	0.666626
C112	C	0.901052	0.634024	-0.000050
C113	C	1.234386	0.967357	0.333283
C114	C	1.567719	1.300691	0.666617
C115	C	0.906878	0.552258	-0.000055
C116	C	1.240211	0.885591	0.333278
C117	C	1.573545	1.218924	0.666611
C118	C	0.847045	0.501800	-0.000061
C119	C	1.180378	0.835134	0.333272
C120	C	1.513712	1.168467	0.666606
N121	N	0.799592	0.373168	-0.000070
N122	N	1.132926	0.706501	0.333263
N123	N	1.466259	1.039835	0.666596
N124	N	0.853007	0.418225	-0.000073
N125	N	1.186340	0.751558	0.333260
N126	N	1.519673	1.084892	0.666593
C127	C	0.952950	-0.098120	-0.000145
C128	C	1.286284	0.235213	0.333188
C129	C	1.619617	0.568547	0.666522
C130	C	1.030129	-0.099386	-0.000160
C131	C	1.363462	0.233947	0.333173
C132	C	1.696795	0.567280	0.666506
C133	C	0.829188	0.752351	-0.000122
C134	C	1.162522	1.085684	0.333212
C135	C	1.495855	1.419017	0.666545
C136	C	0.835388	0.665329	-0.000041
C137	C	1.168721	0.998662	0.333292
C138	C	1.502054	1.331996	0.666626
N139	N	0.826280	-0.104295	0.178027
N140	N	1.159614	0.229038	0.511361
N141	N	1.492947	0.562371	0.844694
N142	N	0.826330	-0.104308	-0.178283
N143	N	1.159663	0.229026	0.155050
N144	N	1.492996	0.562359	0.488383
C145	C	0.870550	-0.050855	0.217418
C146	C	1.203883	0.282478	0.550752
C147	C	1.537216	0.615812	0.884085
C148	C	0.870554	-0.050851	0.296220
C149	C	1.203887	0.282482	0.629553
C150	C	1.537220	0.615815	0.962887
C151	C	0.826295	-0.104302	0.335628
C152	C	1.159629	0.229032	0.668961
C153	C	1.492962	0.562365	1.002295
C154	C	0.782017	-0.157746	0.296228
C155	C	1.115350	0.175587	0.629561
C156	C	1.448684	0.508921	0.962894
C157	C	0.782010	-0.157743	0.217427
C158	C	1.115343	0.175590	0.550761
C159	C	1.448676	0.508924	0.884094
C160	C	0.821160	-0.175731	0.460453
C161	C	1.154493	0.157602	0.793787
C162	C	1.487826	0.490935	1.127120
C163	C	0.821172	-0.175735	0.539252
C164	C	1.154505	0.157598	0.872586
C165	C	1.487839	0.490931	1.205919
C166	C	0.826314	-0.104311	0.578674
C167	C	1.159648	0.229022	0.912008
C168	C	1.492981	0.562356	1.245341
C169	C	0.831459	-0.032880	0.539288
C170	C	1.164792	0.300454	0.872621
C171	C	1.498126	0.633787	1.205954
C172	C	0.831452	-0.032876	0.460487
C173	C	1.164785	0.300457	0.793821
C174	C	1.498118	0.633790	1.127154
C175	C	0.826298	-0.104311	0.421074
C176	C	1.159632	0.229023	0.754407
C177	C	1.492965	0.562356	1.087740
C178	C	0.870590	-0.050862	0.703511
C179	C	1.203924	0.282471	1.036844
C180	C	1.537257	0.615804	1.370178
C181	C	0.870589	-0.050858	0.782314
C182	C	1.203923	0.282476	1.115648
C183	C	1.537256	0.615809	1.448981
C184	C	0.782056	-0.157759	0.782320
C185	C	1.115390	0.175574	1.115654
C186	C	1.448723	0.508908	1.448987
C187	C	0.782054	-0.157757	0.703519
C188	C	1.115387	0.175576	1.036852
C189	C	1.448721	0.508910	1.370185
C190	C	0.826325	-0.104309	0.664119
C191	C	1.159658	0.229024	0.997452
C192	C	1.492991	0.562357	1.330785
H193	H	0.168465	-0.101683	-0.123960
H194	H	0.501798	0.231651	0.209373
H195	H	0.835132	0.564984	0.542707
C196	C	0.966864	0.689533	-0.000051
C197	C	1.300197	1.022866	0.333283
C198	C	1.633531	1.356199	0.666616
N199	N	1.016436	0.731342	-0.000055
N200	N	1.349769	1.064676	0.333279
N201	N	1.683103	1.398009	0.666612
C202	C	0.626149	-0.109273	-0.143415
C203	C	0.959482	0.224061	0.189918
C204	C	1.292816	0.557394	0.523252
N205	N	0.656204	-0.109765	-0.199959
N206	N	0.989538	0.223568	0.133374
N207	N	1.322871	0.556902	0.466708
H208	H	0.930511	0.151037	-0.000095
H209	H	1.263844	0.484371	0.333238
H210	H	1.597178	0.817704	0.666572
H211	H	0.835646	0.025281	0.571383
H212	H	1.168980	0.358614	0.904716
H213	H	1.502313	0.691948	1.238050
H214	H	0.702833	0.116280	-0.000089
H215	H	1.036166	0.449613	0.333245
H216	H	1.369500	0.782947	0.666578
C217	C	0.919242	0.007946	0.174083
C218	C	1.252575	0.341280	0.507416
C219	C	1.585909	0.674613	0.840750
N220	N	0.955915	0.052239	0.141441
N221	N	1.289248	0.385572	0.474775
N222	N	1.622582	0.718905	0.808108
H223	H	0.906604	-0.007332	0.328298
H224	H	1.239938	0.326001	0.661631
H225	H	1.573271	0.659334	0.994965
C226	C	0.919282	0.007937	0.660168
C227	C	1.252615	0.341271	0.993502
C228	C	1.585948	0.674604	1.326835
N229	N	0.955955	0.052227	0.627525
N230	N	1.289289	0.385561	0.960858
N231	N	1.622622	0.718894	1.294192
C232	C	0.919280	0.007947	0.825644
C233	C	1.252613	0.341281	1.158977
C234	C	1.585946	0.674614	1.492311
N235	N	0.955951	0.052244	0.858281
N236	N	1.289284	0.385577	1.191614
N237	N	1.622617	0.718911	1.524947
C238	C	0.837101	0.045697	0.417165
C239	C	1.170435	0.379030	0.750498
C240	C	1.503768	0.712363	1.083832
N241	N	0.841353	0.104879	0.384535
N242	N	1.174686	0.438213	0.717868
N243	N	1.508019	0.771546	1.051201
H244	H	0.732665	0.492028	-0.000057
H245	H	1.065999	0.825361	0.333276
H246	H	1.399332	1.158695	0.666609
H247	H	0.484136	-0.106925	0.123694
H248	H	0.817469	0.226408	0.457027
H249	H	1.150803	0.559742	0.790360
H250	H	0.745980	-0.201265	0.328317
H251	H	1.079313	0.132069	0.661651
H252	H	1.412647	0.465402	0.994984
C253	C	0.979108	0.517828	-0.000065
C254	C	1.312442	0.851161	0.333268
C255	C	1.645775	1.184495	0.666601
N256	N	1.033514	0.491896	-0.000070
N257	N	1.366847	0.825229	0.333263
N258	N	1.700180	1.158562	0.666597
C259	C	0.733372	-0.216556	0.825664
C260	C	1.066705	0.116778	1.158998
C261	C	1.400039	0.450111	1.492331
N262	N	0.696701	-0.260843	0.858315
N263	N	1.030035	0.072491	1.191648
N264	N	1.363368	0.405824	1.524982
C265	C	0.703326	0.649305	-0.000035
C266	C	1.036659	0.982638	0.333298
C267	C	1.369992	1.315971	0.666631
N268	N	0.648922	0.675241	-0.000032
N269	N	0.982255	1.008574	0.333302
N270	N	1.315588	1.341907	0.666635
C271	C	0.733407	-0.216603	0.660187
C272	C	1.066740	0.116731	0.993520
C273	C	1.400073	0.450064	1.326854
N274	N	0.696780	-0.260946	0.627550
N275	N	1.030113	0.072388	0.960883
N276	N	1.363446	0.405721	1.294217
C277	C	0.815506	-0.254311	0.582570
C278	C	1.148839	0.079023	0.915903
C279	C	1.482173	0.412356	1.249237
N280	N	0.811234	-0.313496	0.615195
N281	N	1.144567	0.019838	0.948528
N282	N	1.477901	0.353171	1.281862
H283	H	0.816960	-0.233897	0.428363
H284	H	1.150293	0.099436	0.761696
H285	H	1.483627	0.432769	1.095029
C286	C	0.733340	-0.216568	0.174096
C287	C	1.066673	0.116765	0.507429
C288	C	1.400006	0.450099	0.840763
N289	N	0.696693	-0.260889	0.141458
N290	N	1.030026	0.072445	0.474791
N291	N	1.363359	0.405778	0.808124
H292	H	0.387072	-0.188710	-0.094991
H293	H	0.720405	0.144623	0.238342
H294	H	1.053738	0.477957	0.571675
C295	C	0.473872	-0.106748	-0.143428
C296	C	0.807205	0.226585	0.189906
C297	C	1.140538	0.559919	0.523239
N298	N	0.443852	-0.106240	-0.199974
N299	N	0.777185	0.227093	0.133359
N300	N	1.110519	0.560426	0.466692
C301	C	0.244364	-0.199486	-0.109940
C302	C	0.577697	0.133848	0.223393
C303	C	0.911031	0.467181	0.556726
N304	N	0.212033	-0.237045	-0.153259
N305	N	0.545366	0.096289	0.180074
N306	N	0.878699	0.429622	0.513408
H307	H	0.036912	-0.099507	-0.123971
H308	H	0.370245	0.233827	0.209362
H309	H	0.703578	0.567160	0.542696
H310	H	0.036820	-0.099495	0.123652
H311	H	0.370154	0.233838	0.456985
H312	H	0.703487	0.567171	0.790319
H313	H	0.168377	-0.101676	0.123666
H314	H	0.501710	0.231657	0.457000
H315	H	0.835044	0.564991	0.790333
C316	C	0.626051	-0.109285	0.143217
C317	C	0.959385	0.224048	0.476550
C318	C	1.292718	0.557382	0.809883
N319	N	0.656070	-0.109778	0.199764
N320	N	0.989403	0.223555	0.533098
N321	N	1.322737	0.556888	0.866431
C322	C	0.255968	-0.006594	0.109676
C323	C	0.589301	0.326739	0.443009
C324	C	0.922634	0.660072	0.776342
N325	N	0.228219	0.031946	0.153008
N326	N	0.561553	0.365280	0.486341
N327	N	0.894886	0.698613	0.819675
C328	C	0.937030	0.313786	-0.000075
C329	C	1.270363	0.647119	0.333258
C330	C	1.603697	0.980452	0.666591
N331	N	0.986606	0.355589	-0.000063
N332	N	1.319940	0.688922	0.333271
N333	N	1.653273	1.022255	0.666604
H334	H	0.692259	0.264622	-0.000076
H335	H	1.025592	0.597956	0.333258
H336	H	1.358926	0.931289	0.666591
H337	H	0.397091	-0.022067	0.094742
H338	H	0.730424	0.311267	0.428076
H339	H	1.063757	0.644600	0.761409
