data_functionalizedCrystal
_audit_creation_method	'MofGen! by Chris Wilmer'
_symmetry_space_group_name_H-M	'P1'
_symmetry_Int_Tables_number	1
_symmetry_cell_setting	triclinic
loop_
_symmetry_equiv_pos_as_xyz
  x,y,z
_cell_length_a	17.699083
_cell_length_b	17.699083
_cell_length_c	16.176319
_cell_angle_alpha	89.992304
_cell_angle_beta	89.998611
_cell_angle_gamma	83.283015
loop_
_atom_site_label
_atom_site_type_symbol
_atom_site_fract_x
_atom_site_fract_y
_atom_site_fract_z
O1	O	1.004079	0.095713	-0.068632
O2	O	1.504079	0.595713	0.431368
O3	O	0.783700	0.108166	-0.068660
O4	O	1.283700	0.608166	0.431340
O5	O	0.900116	-0.008250	-0.068638
O6	O	1.400116	0.491750	0.431362
O7	O	0.887663	0.212129	-0.068654
O8	O	1.387663	0.712129	0.431346
O9	O	0.900100	-0.008257	0.068855
O10	O	1.400100	0.491743	0.568855
O11	O	0.783684	0.108158	0.068834
O12	O	1.283684	0.608158	0.568834
O13	O	1.004063	0.095706	0.068861
O14	O	1.504063	0.595706	0.568861
Cu15	Cu	0.893872	0.101931	0.081401
Cu16	Cu	1.393872	0.601931	0.581401
Cu17	Cu	0.893891	0.101940	-0.081200
Cu18	Cu	1.393891	0.601940	0.418800
O19	O	0.887647	0.212121	0.068839
O20	O	1.387647	0.712121	0.568839
C21	C	0.755495	0.107716	0.000084
C22	C	1.255495	0.607716	0.500084
C23	C	0.671477	0.106377	0.000073
C24	C	1.171477	0.606377	0.500073
C25	C	0.622856	0.174710	0.000069
C26	C	1.122856	0.674710	0.500069
C27	C	0.543913	0.173448	0.000079
C28	C	1.043913	0.673448	0.500079
C29	C	0.513592	0.103852	0.000089
C30	C	1.013592	0.603852	0.500089
C31	C	0.562219	0.035513	0.000096
C32	C	1.062219	0.535513	0.500096
C33	C	0.641161	0.036776	0.000091
C34	C	1.141161	0.536776	0.500091
C35	C	0.243856	0.030418	0.000117
C36	C	0.743856	0.530418	0.500117
C37	C	0.164908	0.029160	0.000120
C38	C	0.664908	0.529160	0.500120
C39	C	0.146608	0.167090	0.000105
C40	C	0.646608	0.667090	0.500105
C41	C	0.225550	0.168353	0.000100
C42	C	0.725550	0.668353	0.500100
C43	C	0.274170	0.100015	0.000112
C44	C	0.774170	0.600015	0.500112
C45	C	0.359769	0.101384	0.000102
C46	C	0.859769	0.601384	0.500102
C47	C	0.427995	0.102481	0.000093
C48	C	0.927995	0.602481	0.500093
C49	C	0.899662	-0.036451	0.000109
C50	C	1.399662	0.463549	0.500109
C51	C	0.898323	-0.120469	0.000109
C52	C	1.398323	0.379531	0.500109
C53	C	0.966656	-0.169090	0.000119
C54	C	1.466656	0.330910	0.500119
C55	C	0.965394	-0.248033	0.000111
C56	C	1.465394	0.251967	0.500111
C57	C	0.895798	-0.278354	0.000100
C58	C	1.395798	0.221646	0.500100
C59	C	0.827459	-0.229727	0.000088
C60	C	1.327459	0.270273	0.500088
C61	C	0.828722	-0.150785	0.000089
C62	C	1.328722	0.349215	0.500089
C63	C	0.822364	-0.548090	0.000080
C64	C	1.322364	-0.048090	0.500080
C65	C	0.821106	-0.627038	0.000081
C66	C	1.321106	-0.127038	0.500081
C67	C	0.959036	-0.645338	0.000102
C68	C	1.459036	-0.145338	0.500102
C69	C	0.960299	-0.566396	0.000104
C70	C	1.460299	-0.066396	0.500104
C71	C	0.891961	-0.517776	0.000087
C72	C	1.391961	-0.017776	0.500087
C73	C	0.893330	-0.432177	0.000094
C74	C	1.393330	0.067823	0.500094
C75	C	0.894427	-0.363951	0.000099
C76	C	1.394427	0.136049	0.500099
C77	C	1.032268	0.096156	0.000116
C78	C	1.532268	0.596156	0.500116
C79	C	1.116286	0.097494	0.000121
C80	C	1.616286	0.597494	0.500121
C81	C	0.888102	0.240322	0.000091
C82	C	1.388102	0.740322	0.500091
C83	C	0.889440	0.324340	0.000085
C84	C	1.389440	0.824340	0.500085
N85	N	0.893864	0.101925	0.195767
N86	N	1.393864	0.601925	0.695767
N87	N	0.893905	0.101941	-0.195565
N88	N	1.393905	0.601941	0.304435
C89	C	0.945429	0.050397	0.239040
C90	C	1.445429	0.550397	0.739040
C91	C	0.945432	0.050396	0.325588
C92	C	1.445432	0.550396	0.825588
C93	C	0.893875	0.101927	0.368859
C94	C	1.393875	0.601927	0.868859
C95	C	0.842305	0.153457	0.325579
C96	C	1.342305	0.653457	0.825579
C97	C	0.842299	0.153454	0.239034
C98	C	1.342299	0.653454	0.739034
C99	C	0.842331	0.153472	0.674608
C100	C	1.342331	0.653472	1.174608
C101	C	0.842344	0.153473	0.761159
C102	C	1.342344	0.653473	1.261159
C103	C	0.945465	0.050414	0.761161
C104	C	1.445465	0.550414	1.261161
C105	C	0.945458	0.050410	0.674616
C106	C	1.445458	0.550410	1.174616
C107	C	0.893886	0.101937	0.631344
C108	C	1.393886	0.601937	1.131344
C109	C	0.893882	0.101937	0.537499
C110	C	1.393882	0.601937	1.037499
C111	C	0.893883	0.101932	0.462702
C112	C	1.393883	0.601932	0.962702
H113	H	0.250232	0.225025	0.000089
H114	H	0.750232	0.725025	0.500089
C115	C	0.490430	0.248613	0.000066
C116	C	0.990430	0.748613	0.500066
H117	H	0.439072	0.237895	0.000078
H118	H	0.939072	0.737895	0.500078
H119	H	0.499606	0.277154	-0.047888
H120	H	0.999606	0.777154	0.452112
H121	H	0.499609	0.277158	0.048012
H122	H	0.999609	0.777158	0.548012
C123	C	0.785626	0.210167	0.627015
C124	C	1.285626	0.710167	1.127015
H125	H	0.793001	0.202787	0.569274
H126	H	1.293001	0.702787	1.069274
H127	H	0.793766	0.260664	0.641197
H128	H	1.293766	0.760664	1.141197
H129	H	0.735124	0.202021	0.641202
H130	H	1.235124	0.702021	1.141202
H131	H	0.800323	0.195413	0.360816
H132	H	1.300323	0.695413	0.860816
C133	C	0.093124	0.242262	0.000103
C134	C	0.593124	0.742262	0.500103
H135	H	0.041766	0.231546	0.000117
H136	H	0.541766	0.731546	0.500117
H137	H	0.102299	0.270807	-0.047848
H138	H	0.602299	0.770807	0.452152
H139	H	0.102306	0.270802	0.048052
H140	H	0.602306	0.770802	0.548052
C141	C	1.002141	-0.006289	0.191449
C142	C	1.502141	0.493711	0.691449
H143	H	1.032846	-0.036982	0.229620
H144	H	1.532846	0.463018	0.729620
H145	H	1.033593	0.020894	0.157677
H146	H	1.533593	0.520894	0.657677
H147	H	0.974968	-0.037766	0.157700
H148	H	1.474968	0.462234	0.657700
H149	H	1.016971	-0.541714	0.000117
H150	H	1.516971	-0.041714	0.500117
C151	C	0.753558	-0.097298	0.000078
C152	C	1.253558	0.402702	0.500078
H153	H	0.764277	-0.045941	0.000072
H154	H	1.264277	0.454059	0.500072
H155	H	0.725004	-0.106478	0.048019
H156	H	1.225004	0.393522	0.548019
H157	H	0.725024	-0.106472	-0.047880
H158	H	1.225024	0.393528	0.452120
C159	C	0.656206	0.251266	0.000055
C160	C	1.156206	0.751266	0.500055
H161	H	0.710185	0.242234	0.000045
H162	H	1.210185	0.742234	0.500045
H163	H	0.639510	0.279395	0.048000
H164	H	1.139510	0.779395	0.548000
H165	H	0.639505	0.279395	-0.047900
H166	H	1.139505	0.779395	0.452100
C167	C	0.785581	0.210137	0.191433
C168	C	1.285581	0.710137	0.691433
H169	H	0.754881	0.240833	0.229597
H170	H	1.254881	0.740833	0.729597
H171	H	0.754126	0.182949	0.157680
H172	H	1.254126	0.682949	0.657680
H173	H	0.812749	0.241611	0.157663
H174	H	1.312749	0.741611	0.657663
C175	C	0.750902	-0.263074	0.000069
C176	C	1.250902	0.236926	0.500069
H177	H	0.710386	-0.222808	0.000054
H178	H	1.210386	0.277192	0.500054
H179	H	0.747532	-0.293495	0.048013
H180	H	1.247532	0.206505	0.548013
H181	H	0.747553	-0.293481	-0.047886
H182	H	1.247553	0.206519	0.452114
C183	C	1.034210	-0.698819	0.000111
C184	C	1.534210	-0.198819	0.500111
H185	H	1.075838	-0.669453	0.000127
H186	H	1.575838	-0.169453	0.500127
H187	H	1.036595	-0.729989	-0.047836
H188	H	1.536595	-0.229989	0.452164
H189	H	1.036577	-0.730000	0.048063
H190	H	1.536577	-0.230000	0.548063
H191	H	0.800357	0.195437	0.796390
H192	H	1.300357	0.695437	1.296390
H193	H	0.764429	-0.651721	0.000074
H194	H	1.264429	-0.151721	0.500074
C195	C	0.528869	-0.041041	0.000105
C196	C	1.028869	0.458959	0.500105
H197	H	0.474890	-0.032008	0.000099
H198	H	0.974890	0.467992	0.500099
H199	H	0.545567	-0.069176	0.048053
H200	H	1.045567	0.430824	0.548053
H201	H	0.545567	-0.069166	-0.047847
H202	H	1.045567	0.430834	0.452153
H203	H	1.023330	-0.144409	0.000133
H204	H	1.523330	0.355591	0.500133
C205	C	1.040561	-0.301513	0.000130
C206	C	1.540561	0.198487	0.500130
H207	H	1.082190	-0.272149	0.000149
H208	H	1.582190	0.227851	0.500149
H209	H	1.042949	-0.332684	-0.047816
H210	H	1.542949	0.167316	0.452184
H211	H	1.042924	-0.332692	0.048084
H212	H	1.542924	0.167308	0.548084
C213	C	1.002187	-0.006274	0.808763
C214	C	1.502187	0.493726	1.308763
H215	H	0.994804	0.001100	0.866504
H216	H	1.494804	0.501100	1.366504
H217	H	1.052680	0.001883	0.794572
H218	H	1.552680	0.501883	1.294572
H219	H	0.994057	-0.056780	0.794586
H220	H	1.494057	0.443220	1.294586
C221	C	0.131553	-0.047398	0.000133
C222	C	0.631553	0.452602	0.500133
H223	H	0.077575	-0.038359	0.000124
H224	H	0.577575	0.461641	0.500124
H225	H	0.148247	-0.075530	0.048083
H226	H	0.648247	0.424470	0.548083
H227	H	0.148251	-0.075527	-0.047817
H228	H	0.648251	0.424473	0.452183
C229	C	0.297328	-0.044751	0.000124
C230	C	0.797328	0.455249	0.500124
H231	H	0.267962	-0.086379	0.000122
H232	H	0.767962	0.413621	0.500122
H233	H	0.328505	-0.047130	0.048070
H234	H	0.828505	0.452870	0.548070
H235	H	0.328503	-0.047125	-0.047830
H236	H	0.828503	0.452875	0.452170
H237	H	0.680748	-0.018868	0.000095
H238	H	1.180748	0.481132	0.500095
H239	H	0.766718	-0.508512	0.000067
H240	H	1.266718	-0.008512	0.500067
H241	H	0.987419	0.008438	0.360821
H242	H	1.487419	0.508438	0.860821
H243	H	0.987444	0.008451	0.639387
H244	H	1.487444	0.508451	1.139387
