data_functionalizedCrystal
_audit_creation_method	'MofGen! by Chris Wilmer'
_symmetry_space_group_name_H-M	'P1'
_symmetry_Int_Tables_number	1
_symmetry_cell_setting	triclinic
loop_
_symmetry_equiv_pos_as_xyz
  x,y,z
_cell_length_a	10.654562
_cell_length_b	10.489716
_cell_length_c	9.130313
_cell_angle_alpha	90.000191
_cell_angle_beta	90.004766
_cell_angle_gamma	84.509620
loop_
_atom_site_label
_atom_site_type_symbol
_atom_site_fract_x
_atom_site_fract_y
_atom_site_fract_z
O1	O	1.667896	0.179241	0.121881
O2	O	1.302426	0.196293	0.121862
O3	O	1.493493	0.002163	0.121877
O4	O	1.476829	0.373370	0.121866
O5	O	1.493485	0.002158	-0.121722
O6	O	1.302418	0.196288	-0.121737
O7	O	1.667888	0.179235	-0.121717
Cu8	Cu	1.485153	0.187761	-0.143970
Cu9	Cu	1.485161	0.187767	0.144114
O10	O	1.476821	0.373365	-0.121733
C11	C	1.255624	0.195035	0.000060
C12	C	1.116180	0.191279	0.000053
C13	C	1.050644	0.189524	-0.132721
C14	C	0.919621	0.186005	-0.132696
C15	C	0.919679	0.186001	0.132888
C16	C	1.050701	0.189511	0.132862
C17	C	1.116123	0.191292	-0.265530
C18	C	1.050587	0.189539	-0.398315
C19	C	0.919564	0.186019	-0.398290
C20	C	0.854076	0.184254	-0.265481
C21	C	1.492237	-0.045371	0.000082
C22	C	1.488491	-0.187000	0.000095
C23	C	1.605659	-0.284725	0.000088
C24	C	1.543749	-0.362056	0.120188
C25	C	1.543714	-0.362025	-0.119981
C26	C	1.426629	-0.262466	0.120294
C27	C	1.426612	-0.262429	-0.119983
C28	C	1.364615	-0.339711	0.000146
C29	C	1.714690	0.180493	0.000088
C30	C	1.854134	0.184250	0.000104
C31	C	1.478077	0.420899	0.000065
C32	C	1.481823	0.562529	0.000062
N33	N	1.485155	0.187756	-0.346592
C34	C	1.408307	0.109664	-0.423270
C35	C	1.408310	0.109670	-0.576607
C36	C	1.562020	0.265864	-0.576575
C37	C	1.562010	0.265863	-0.423241
C38	C	1.331453	0.031557	-0.346621
C39	C	1.254600	-0.046543	-0.423298
C40	C	1.254602	-0.046537	-0.576635
C41	C	1.331459	0.031569	-0.653295
N42	N	1.485168	0.187762	0.346737
H43	H	0.747388	0.181385	-0.265472
H44	H	1.103917	0.190967	-0.506443
H45	H	1.222808	0.194162	-0.265565
H46	H	1.104061	0.190946	0.240979
O47	O	1.740649	-0.252071	0.000265
H48	H	1.805031	-0.341744	0.001377
H49	H	0.866209	0.184582	-0.506410
H50	H	0.866348	0.184566	0.241016
O51	O	1.609263	-0.419727	0.254682
H52	H	1.709236	-0.398149	0.254441
O53	O	1.644934	0.350080	-0.659247
H54	H	1.632044	0.336946	-0.778752
H55	H	1.377198	-0.219138	0.221942
O56	O	1.644899	0.350082	-0.340522
H57	H	1.698358	0.404380	-0.419578
O58	O	1.229507	-0.371991	0.000184
H59	H	1.181172	-0.331738	0.099968
H60	H	1.377191	-0.218892	-0.221530
O61	O	1.609240	-0.419627	-0.254491
H62	H	1.709203	-0.398014	-0.254219
O63	O	1.171705	-0.130762	-0.659334
H64	H	1.184608	-0.117633	-0.778835
O65	O	1.331446	0.031561	-0.181237
H66	H	1.265088	-0.035861	-0.140817
H67	H	1.192018	-0.110125	-0.360872
H68	H	1.331448	0.031574	-0.778152
