data_functionalizedCrystal
_audit_creation_method	'MofGen! by Chris Wilmer'
_symmetry_space_group_name_H-M	'P1'
_symmetry_Int_Tables_number	1
_symmetry_cell_setting	triclinic
loop_
_symmetry_equiv_pos_as_xyz
  x,y,z
_cell_length_a	17.077404
_cell_length_b	12.759400
_cell_length_c	17.077396
_cell_angle_alpha	89.975448
_cell_angle_beta	89.984079
_cell_angle_gamma	90.012254
loop_
_atom_site_label
_atom_site_type_symbol
_atom_site_fract_x
_atom_site_fract_y
_atom_site_fract_z
Zn1	Zn	1.200083	-0.418307	-0.443849
Zn2	Zn	1.700083	0.081693	0.056151
Zn3	Zn	1.200015	-0.594012	-0.312596
Zn4	Zn	1.700015	-0.094012	0.187404
Zn5	Zn	1.068820	-0.418341	-0.312600
Zn6	Zn	1.568820	0.081659	0.187400
Zn7	Zn	1.068802	-0.593938	-0.443822
Zn8	Zn	1.568802	-0.093938	0.056178
O9	O	1.134430	-0.506149	-0.378217
O10	O	1.634430	-0.006149	0.121783
O11	O	1.309921	-0.441631	-0.426448
O12	O	1.809921	0.058369	0.073552
O13	O	1.182591	-0.570755	-0.202749
O14	O	1.682591	-0.070755	0.297251
O15	O	1.086268	-0.271316	-0.330023
O16	O	1.586268	0.228684	0.169977
O17	O	1.309871	-0.570721	-0.330016
O18	O	1.809871	-0.070721	0.169984
O19	O	1.182706	-0.271290	-0.426451
O20	O	1.682706	0.228710	0.073549
O21	O	1.086203	-0.441690	-0.202752
O22	O	1.586203	0.058310	0.297248
O23	O	0.958971	-0.441618	-0.329997
O24	O	1.458971	0.058382	0.170003
O25	O	1.086238	-0.570594	-0.553672
O26	O	1.586238	-0.070594	-0.053672
O27	O	0.958958	-0.570628	-0.426405
O28	O	1.458958	-0.070628	0.073595
O29	O	1.182689	-0.441559	-0.553692
O30	O	1.682689	0.058441	-0.053692
O31	O	1.182574	-0.741023	-0.329990
O32	O	1.682574	-0.241023	0.170010
O33	O	1.086172	-0.740969	-0.426401
O34	O	1.586172	-0.240969	0.073599
C35	C	0.930482	-0.506120	-0.378199
C36	C	1.430482	-0.006120	0.121801
C37	C	0.843232	-0.506132	-0.378210
C38	C	1.343232	-0.006132	0.121790
C39	C	0.802269	-0.439035	-0.428498
C40	C	1.302269	0.060965	0.071502
C41	C	0.720288	-0.439041	-0.428502
C42	C	1.220288	0.060959	0.071498
C43	C	0.679273	-0.506152	-0.378221
C44	C	1.179273	-0.006152	0.121779
C45	C	0.720242	-0.573252	-0.327927
C46	C	1.220242	-0.073252	0.172073
C47	C	0.802221	-0.573240	-0.327920
C48	C	1.302221	-0.073240	0.172080
C49	C	0.549372	-0.573276	-0.327946
C50	C	1.049372	-0.073276	0.172054
C51	C	0.467388	-0.573291	-0.327954
C52	C	0.967388	-0.073291	0.172046
C53	C	0.467439	-0.439078	-0.428529
C54	C	0.967439	0.060922	0.071471
C55	C	0.549418	-0.439065	-0.428522
C56	C	1.049418	0.060935	0.071478
C57	C	0.590382	-0.506167	-0.378228
C58	C	1.090382	-0.006167	0.121772
C59	C	1.134385	-0.779117	-0.378210
C60	C	1.634385	-0.279117	0.121790
C61	C	1.134437	-0.895893	-0.378233
C62	C	1.634437	-0.395893	0.121767
C63	C	1.084230	-0.950765	-0.428395
C64	C	1.584230	-0.450765	0.071605
C65	C	1.084272	-1.060489	-0.428402
C66	C	1.584272	-0.560489	0.071598
C67	C	1.184734	-1.060460	-0.328084
C68	C	1.684734	-0.560460	0.171916
C69	C	1.184688	-0.950738	-0.328073
C70	C	1.684688	-0.450738	0.171927
C71	C	1.033979	-0.895921	-0.478554
C72	C	1.533979	-0.395921	0.021446
C73	C	0.983769	-0.950793	-0.528721
C74	C	1.483769	-0.450793	-0.028721
C75	C	0.983811	-1.060517	-0.528728
C76	C	1.483811	-0.560517	-0.028728
C77	C	1.034063	-1.115369	-0.478569
C78	C	1.534063	-0.615369	0.021431
C79	C	1.339174	-0.506180	-0.378235
C80	C	1.839174	-0.006180	0.121765
C81	C	1.426424	-0.506193	-0.378242
C82	C	1.926424	-0.006193	0.121758
C83	C	1.134469	-0.506064	-0.582961
C84	C	1.634469	-0.006064	-0.082961
C85	C	1.134485	-0.506028	-0.670211
C86	C	1.634485	-0.006028	-0.170211
C87	C	1.134497	-0.232116	-0.378241
C88	C	1.634497	0.267884	0.121759
C89	C	1.134525	-0.115340	-0.378251
C90	C	1.634525	0.384660	0.121749
C91	C	1.184746	-0.573110	-1.046026
C92	C	1.684746	-0.073110	-0.546026
C93	C	1.184726	-0.573140	-0.964046
C94	C	1.684726	-0.073140	-0.464046
C95	C	1.134536	-0.505954	-0.923060
C96	C	1.634536	-0.005954	-0.423060
C97	C	1.084356	-0.438740	-0.964059
C98	C	1.584356	0.061260	-0.464059
C99	C	1.084373	-0.438716	-1.046038
C100	C	1.584373	0.061284	-0.546038
C101	C	1.084327	-0.438794	-0.793188
C102	C	1.584327	0.061206	-0.293188
C103	C	1.084311	-0.438817	-0.711204
C104	C	1.584311	0.061183	-0.211204
C105	C	1.184680	-0.573219	-0.711197
C106	C	1.684680	-0.073219	-0.211197
C107	C	1.184697	-0.573194	-0.793176
C108	C	1.684697	-0.073194	-0.293176
C109	C	1.134518	-0.505979	-0.834169
C110	C	1.634518	-0.005979	-0.334169
C111	C	1.134437	-0.506158	-0.174269
C112	C	1.634437	-0.006158	0.325731
C113	C	1.134572	-0.505899	-0.087019
C114	C	1.634572	-0.005899	0.412981
H115	H	0.433995	-0.627939	-0.287011
H116	H	0.933995	-0.127939	0.212989
O117	O	0.593655	-0.366673	-0.482748
O118	O	1.093655	0.133327	0.017252
H119	H	0.577941	-0.384784	-0.544336
H120	H	1.077941	0.115216	-0.044336
O121	O	1.033940	-0.777576	-0.478536
O122	O	1.533940	-0.277576	0.021464
H123	H	1.018104	-0.748716	-0.419309
H124	H	1.518104	-0.248716	0.080691
H125	H	1.043466	-0.384060	-0.826563
H126	H	1.543466	0.115940	-0.326563
O127	O	0.929569	-0.891641	-0.582819
O128	O	1.429569	-0.391641	-0.082819
H129	H	0.937979	-0.806125	-0.574394
H130	H	1.437979	-0.306125	-0.074394
H131	H	1.225571	-0.906061	-0.287226
H132	H	1.725571	-0.406061	0.212774
H133	H	1.225538	-0.627948	-0.677816
H134	H	1.725538	-0.127948	-0.177816
H135	H	1.043444	-0.384105	-0.677835
H136	H	1.543444	0.115895	-0.177835
H137	H	1.043487	-0.384041	-0.930681
H138	H	1.543487	0.115959	-0.430681
O139	O	0.676109	-0.366667	-0.482742
O140	O	1.176109	0.133333	0.017258
H141	H	0.638762	-0.413759	-0.522618
H142	H	1.138762	0.086241	-0.022618
O143	O	0.846506	-0.366644	-0.482726
O144	O	1.346506	0.133356	0.017274
H145	H	0.804245	-0.319979	-0.517688
H146	H	1.304245	0.180021	-0.017688
O147	O	0.423265	-0.366692	-0.482770
O148	O	0.923265	0.133308	0.017230
H149	H	0.359369	-0.377961	-0.474321
H150	H	0.859369	0.122039	0.025679
H151	H	0.942922	-1.105191	-0.569571
H152	H	1.442922	-0.605191	-0.069571
O153	O	0.593559	-0.645652	-0.273705
O154	O	1.093559	-0.145652	0.226295
H155	H	0.551268	-0.692330	-0.238748
H156	H	1.051268	-0.192330	0.261252
O157	O	1.238937	-1.119634	-0.274002
O158	O	1.738937	-0.619634	0.225998
H159	H	1.225505	-1.098656	-0.212376
H160	H	1.725505	-0.598656	0.287624
O161	O	1.238829	-0.645653	-0.837390
O162	O	1.738829	-0.145653	-0.337390
H163	H	1.203681	-0.699073	-0.874734
H164	H	1.703681	-0.199073	-0.374734
O165	O	1.034099	-1.233715	-0.478577
O166	O	1.534099	-0.733715	0.021423
H167	H	1.018275	-1.262699	-0.419359
H168	H	1.518275	-0.762699	0.080641
O169	O	0.846410	-0.645610	-0.273682
O170	O	1.346410	-0.145610	0.226318
H171	H	0.804118	-0.692285	-0.238723
H172	H	1.304118	-0.192285	0.261277
O173	O	1.030262	-0.366218	-1.090258
O174	O	1.530262	0.133782	-0.590258
H175	H	0.995364	-0.319495	-1.047987
H176	H	1.495364	0.180505	-0.547987
H177	H	0.686841	-0.627890	-0.286983
H178	H	1.186841	-0.127890	0.213017
O179	O	1.238872	-0.645586	-1.090232
O180	O	1.738872	-0.145586	-0.590232
H181	H	1.273749	-0.692337	-1.047951
H182	H	1.773749	-0.192337	-0.547951
H183	H	1.225573	-0.627883	-0.930673
H184	H	1.725573	-0.127883	-0.430673
