data_functionalizedCrystal
_audit_creation_method	'MofGen! by Chris Wilmer'
_symmetry_space_group_name_H-M	'P1'
_symmetry_Int_Tables_number	1
_symmetry_cell_setting	triclinic
loop_
_symmetry_equiv_pos_as_xyz
  x,y,z
_cell_length_a	13.032831
_cell_length_b	18.215405
_cell_length_c	18.215399
_cell_angle_alpha	90.030551
_cell_angle_beta	82.809197
_cell_angle_gamma	97.170997
loop_
_atom_site_label
_atom_site_type_symbol
_atom_site_fract_x
_atom_site_fract_y
_atom_site_fract_z
Zn1	Zn	1.597611	0.436094	-0.558719
Zn2	Zn	2.097611	0.936094	-0.058719
Zn3	Zn	1.597481	0.559154	-0.435635
Zn4	Zn	2.097481	1.059154	0.064365
Zn5	Zn	1.422854	0.420464	-0.420066
Zn6	Zn	1.922854	0.920464	0.079934
Zn7	Zn	1.422806	0.543466	-0.543067
Zn8	Zn	1.922806	1.043466	-0.043067
O9	O	1.510188	0.489795	-0.489372
O10	O	2.010188	0.989795	0.010628
O11	O	1.743832	0.465525	-0.555458
O12	O	2.243832	0.965525	-0.055458
O13	O	1.574282	0.540781	-0.330583
O14	O	2.074282	1.040781	0.169417
O15	O	1.446111	0.319560	-0.438493
O16	O	1.946111	0.819560	0.061507
O17	O	1.743737	0.555937	-0.465029
O18	O	2.243737	1.055937	0.034971
O19	O	1.574504	0.331043	-0.540361
O20	O	2.074504	0.831043	-0.040361
O21	O	1.445985	0.438886	-0.319144
O22	O	1.945985	0.938886	0.180856
O23	O	1.276609	0.423674	-0.423316
O24	O	1.776609	0.923674	0.076684
O25	O	1.446028	0.529199	-0.648131
O26	O	1.946028	1.029199	-0.148131
O27	O	1.276574	0.514043	-0.513685
O28	O	1.776574	1.014043	-0.013685
O29	O	1.574457	0.450313	-0.659630
O30	O	2.074457	0.950313	-0.159630
O31	O	1.574235	0.660051	-0.449852
O32	O	2.074235	1.160051	0.050148
O33	O	1.445902	0.648525	-0.528782
O34	O	1.945902	1.148525	-0.028782
C35	C	1.238674	0.465460	-0.465113
C36	C	1.738674	0.965460	0.034887
C37	C	1.122519	0.455068	-0.454753
C38	C	1.622519	0.955068	0.045247
C39	C	1.510078	0.680991	-0.489327
C40	C	2.010078	1.180991	0.010673
C41	C	1.510126	0.762794	-0.489340
C42	C	2.010126	1.262794	0.010660
C43	C	1.510252	0.489750	-0.681331
C44	C	2.010252	0.989750	-0.181331
C45	C	1.510279	0.489730	-0.763132
C46	C	2.010279	0.989730	-0.263132
C47	C	1.070743	0.495219	-0.494779
C48	C	1.570743	0.995219	0.005221
C49	C	0.950691	0.484478	-0.484072
C50	C	1.450691	0.984478	0.015928
C51	C	1.782763	0.514225	-0.513726
C52	C	2.282763	1.014225	-0.013726
C53	C	1.898918	0.524635	-0.524104
C54	C	2.398918	1.024635	-0.024104
C55	C	1.510327	0.297854	-0.489436
C56	C	2.010327	0.797854	0.010564
C57	C	1.510387	0.216061	-0.489463
C58	C	2.010387	0.716061	0.010537
C59	C	1.577106	0.956979	-0.448342
C60	C	2.077106	1.456979	0.051658
C61	C	1.577153	1.033842	-0.448364
C62	C	2.077153	1.533842	0.051636
C63	C	1.443404	1.021870	-0.530466
C64	C	1.943404	1.521870	-0.030466
C65	C	1.443363	0.945009	-0.530448
C66	C	1.943363	1.445009	-0.030448
C67	C	1.510213	0.912565	-0.489382
C68	C	2.010213	1.412565	0.010618
C69	C	1.510300	1.066289	-0.489422
C70	C	2.010300	1.566289	0.010578
C71	C	1.510350	1.149627	-0.489446
C72	C	2.010350	1.649627	0.010554
C73	C	1.510164	0.829222	-0.489358
C74	C	2.010164	1.329222	0.010642
C75	C	1.577176	0.448613	-0.957317
C76	C	2.077176	0.948613	-0.457317
C77	C	1.577188	0.448593	-1.034177
C78	C	2.077188	0.948593	-0.534177
C79	C	1.443456	0.530741	-1.022192
C80	C	1.943456	1.030741	-0.522192
C81	C	1.443439	0.530756	-0.945333
C82	C	1.943439	1.030756	-0.445333
C83	C	1.510305	0.489694	-0.912898
C84	C	2.010305	0.989694	-0.412898
C85	C	1.510334	0.489658	-1.066617
C86	C	2.010334	0.989658	-0.566617
C87	C	1.510347	0.489636	-1.149952
C88	C	2.010347	0.989636	-0.649952
C89	C	1.510291	0.489715	-0.829558
C90	C	2.010291	0.989715	-0.329558
C91	C	1.510185	0.489792	-0.298165
C92	C	2.010185	0.989792	0.201835
C93	C	1.510360	0.489622	-0.216383
C94	C	2.010360	0.989622	0.283617
H95	H	1.115294	0.537542	-0.536977
H96	H	1.615294	1.037542	-0.036977
H97	H	1.388977	0.564208	-0.909164
H98	H	1.888977	1.064208	-0.409164
H99	H	0.943464	0.566960	-0.566307
H100	H	1.443464	1.066960	-0.066307
O101	O	1.063503	0.399006	-0.398857
O102	O	1.563503	0.899006	0.101143
H103	H	1.084409	0.343117	-0.413434
H104	H	1.584409	0.843117	0.086566
O105	O	1.649216	0.921984	-0.404062
O106	O	2.149216	1.421984	0.095938
H107	H	1.695747	0.965785	-0.375536
H108	H	2.195747	1.465785	0.124464
H109	H	1.631639	0.415139	-1.070340
H110	H	2.131639	0.915139	-0.570340
O111	O	1.371346	0.575032	-1.057178
O112	O	1.871346	1.075032	-0.557178
H113	H	1.289334	0.555058	-1.035102
H114	H	1.789334	1.055058	-0.535102
H115	H	1.388976	1.048295	-0.563900
H116	H	1.888976	1.548295	-0.063900
O117	O	0.891697	0.428419	-0.428161
O118	O	1.391697	0.928419	0.071839
H119	H	0.806661	0.428790	-0.428514
H120	H	1.306661	0.928790	0.071486
H121	H	1.631625	1.070001	-0.414947
H122	H	2.131625	1.570001	0.085053
H123	H	1.631619	0.415175	-0.930911
H124	H	2.131619	0.915175	-0.430911
O125	O	1.371195	0.897095	-0.574702
O126	O	1.871195	1.397095	-0.074702
H127	H	1.324701	0.932565	-0.603248
H128	H	1.824701	1.432565	-0.103248
