data_functionalizedCrystal
_audit_creation_method	'MofGen! by Chris Wilmer'
_symmetry_space_group_name_H-M	'P1'
_symmetry_Int_Tables_number	1
_symmetry_cell_setting	triclinic
loop_
_symmetry_equiv_pos_as_xyz
  x,y,z
_cell_length_a	14.971506
_cell_length_b	13.448316
_cell_length_c	11.792241
_cell_angle_alpha	89.993264
_cell_angle_beta	83.907902
_cell_angle_gamma	89.995875
loop_
_atom_site_label
_atom_site_type_symbol
_atom_site_fract_x
_atom_site_fract_y
_atom_site_fract_z
O1	O	1.187529	-0.082631	0.148019
O2	O	0.927202	-0.082647	0.165707
O3	O	1.063683	-0.082632	-0.008348
O4	O	1.051048	-0.082646	0.322074
O5	O	1.063666	0.082752	-0.008359
O6	O	0.927185	0.082737	0.165696
O7	O	1.187512	0.082752	0.148008
Cu8	Cu	1.057347	0.097846	0.156851
Cu9	Cu	1.057367	-0.097740	0.156864
O10	O	1.051031	0.082737	0.322063
C11	C	0.893866	0.000043	0.164907
C12	C	0.794560	0.000037	0.162524
N13	N	1.057339	0.235410	0.156842
C14	C	1.062881	0.000060	-0.050639
C15	C	1.060505	0.000059	-0.176638
C16	C	1.220848	0.000060	0.148808
C17	C	1.320154	0.000059	0.151191
C18	C	1.758063	0.000042	0.058031
C19	C	1.664754	0.000040	0.055801
C20	C	1.607944	0.000041	0.158065
C21	C	1.644447	0.000034	0.262566
C22	C	1.737755	0.000028	0.264794
C23	C	1.449965	0.000047	0.257913
C24	C	1.356651	0.000055	0.255684
C25	C	1.376965	0.000060	0.048919
C26	C	1.470272	0.000054	0.051148
C27	C	1.506769	0.000048	0.155649
N28	N	1.057382	-0.235304	0.156865
C29	C	1.117792	0.287457	0.079802
C30	C	1.117797	0.391560	0.079801
C31	C	1.057354	0.443614	0.156846
C32	C	0.996895	0.391560	0.233889
C33	C	0.996886	0.287459	0.233884
C34	C	0.996920	0.608540	0.233897
C35	C	0.996930	0.712649	0.233904
C36	C	1.117831	0.712642	0.079814
C37	C	1.117822	0.608540	0.079809
C38	C	1.057364	0.556493	0.156854
C39	C	1.056137	0.000042	-0.407322
C40	C	1.058564	0.000051	-0.278952
C41	C	1.051833	0.000044	0.364354
C42	C	1.054209	0.000038	0.490353
H43	H	1.804312	0.000046	-0.025245
H44	H	1.167022	0.433936	0.017069
Cl45	Cl	0.920903	0.456998	0.330743
H46	H	1.167044	0.566158	0.017078
Cl47	Cl	1.193836	0.778075	-0.017039
H48	H	1.635043	0.000043	-0.029287
Cl49	Cl	0.920881	0.222029	0.330735
Cl50	Cl	1.285234	0.000061	0.384246
Cl51	Cl	1.331084	0.000070	-0.082454
H52	H	1.516526	0.000062	-0.032125
Cl53	Cl	1.495845	0.000038	0.389288
Cl54	Cl	0.920938	0.778081	0.330763
H55	H	1.598185	0.000028	0.345830
H56	H	1.767468	0.000029	0.349883
H57	H	1.167016	0.245081	0.017067
Cl58	Cl	0.920910	0.543114	0.330754
