data_functionalizedCrystal
_audit_creation_method	'MofGen! by Chris Wilmer'
_symmetry_space_group_name_H-M	'P1'
_symmetry_Int_Tables_number	1
_symmetry_cell_setting	triclinic
loop_
_symmetry_equiv_pos_as_xyz
  x,y,z
_cell_length_a	16.109301
_cell_length_b	15.944551
_cell_length_c	14.586319
_cell_angle_alpha	89.995256
_cell_angle_beta	89.999213
_cell_angle_gamma	83.480109
loop_
_atom_site_label
_atom_site_type_symbol
_atom_site_fract_x
_atom_site_fract_y
_atom_site_fract_z
O1	O	1.103166	0.107966	-0.076184
O2	O	1.603166	0.607966	0.423816
O3	O	0.861108	0.121403	-0.076199
O4	O	1.361108	0.621403	0.423801
O5	O	0.988747	-0.007593	-0.076183
O6	O	1.488747	0.492407	0.423817
O7	O	0.975527	0.236961	-0.076200
O8	O	1.475527	0.736961	0.423800
O9	O	0.988738	-0.007595	0.076298
O10	O	1.488738	0.492405	0.576298
O11	O	0.861099	0.121401	0.076282
O12	O	1.361099	0.621401	0.576282
O13	O	1.103157	0.107964	0.076296
O14	O	1.603157	0.607964	0.576296
Cu15	Cu	0.982127	0.114682	0.090212
Cu16	Cu	1.482127	0.614682	0.590212
Cu17	Cu	0.982138	0.114685	-0.090114
Cu18	Cu	1.482138	0.614685	0.409886
O19	O	0.975518	0.236960	0.076280
O20	O	1.475518	0.736960	0.576280
C21	C	0.830129	0.120857	0.000039
C22	C	1.330129	0.620857	0.500039
C23	C	0.737833	0.119226	0.000034
C24	C	1.237833	0.619226	0.500034
C25	C	0.515584	0.191975	0.000040
C26	C	1.015584	0.691975	0.500040
C27	C	0.428863	0.190435	0.000046
C28	C	0.928863	0.690435	0.500046
C29	C	0.448688	0.037387	0.000053
C30	C	0.948688	0.537387	0.500053
C31	C	0.535407	0.038927	0.000053
C32	C	1.035407	0.538927	0.500053
C33	C	0.568853	0.116224	0.000042
C34	C	1.068853	0.616224	0.500042
C35	C	0.395412	0.113143	0.000047
C36	C	0.895412	0.613143	0.500047
C37	C	0.301386	0.111473	0.000054
C38	C	0.801386	0.611473	0.500054
C39	C	0.662885	0.117894	0.000037
C40	C	1.162885	0.617894	0.500037
C41	C	0.988194	-0.038887	0.000057
C42	C	1.488194	0.461113	0.500057
C43	C	0.986548	-0.132133	0.000058
C44	C	1.486548	0.367867	0.500058
C45	C	0.903499	-0.346962	0.000040
C46	C	1.403499	0.153038	0.500040
C47	C	0.942060	-0.407993	0.075225
C48	C	1.442060	0.092007	0.575225
C49	C	0.983572	-0.302858	0.000051
C50	C	1.483572	0.197142	0.500051
C51	C	0.942088	-0.407975	-0.075109
C52	C	1.442088	0.092025	0.424891
C53	C	0.980691	-0.467769	0.000040
C54	C	1.480691	0.032231	0.500040
C55	C	1.022155	-0.362660	0.075297
C56	C	1.522155	0.137340	0.575297
C57	C	1.022171	-0.362636	-0.075104
C58	C	1.522171	0.137364	0.424896
C59	C	1.060790	-0.423649	0.000099
C60	C	1.560790	0.076351	0.500099
C61	C	0.985229	-0.207856	0.000058
C62	C	1.485229	0.292144	0.500058
C63	C	0.979039	-0.562770	0.000039
C64	C	1.479039	-0.062770	0.500039
C65	C	1.134136	0.108510	0.000056
C66	C	1.634136	0.608510	0.500056
C67	C	1.226432	0.110141	0.000055
C68	C	1.726432	0.610141	0.500055
C69	C	0.976071	0.268254	0.000038
C70	C	1.476071	0.768254	0.500038
C71	C	0.977717	0.361500	0.000031
C72	C	1.477717	0.861500	0.500031
N73	N	0.982126	0.114680	0.217044
N74	N	1.482126	0.614680	0.717044
N75	N	0.982146	0.114680	-0.216946
N76	N	1.482146	0.614680	0.283054
C77	C	1.038663	0.057580	0.452057
C78	C	1.538663	0.557580	0.952057
C79	C	1.038666	0.057578	0.548038
C80	C	1.538666	0.557578	1.048038
C81	C	0.925602	0.171783	0.548034
C82	C	1.425602	0.671783	1.048034
C83	C	0.925597	0.171780	0.452054
C84	C	1.425597	0.671780	0.952054
C85	C	0.982132	0.114680	0.404068
C86	C	1.482132	0.614680	0.904068
C87	C	0.982140	0.114680	0.596029
C88	C	1.482140	0.614680	1.096029
C89	C	0.982142	0.114679	0.700096
C90	C	1.482142	0.614679	1.200096
C91	C	0.982129	0.114680	0.299995
C92	C	1.482129	0.614680	0.799995
H93	H	0.542812	0.254914	0.000037
H94	H	1.042812	0.754914	0.500037
H95	H	1.084696	0.011085	0.412989
H96	H	1.584696	0.511085	0.912989
O97	O	1.062433	-0.338508	-0.150954
O98	O	1.562433	0.161492	0.349046
C99	C	1.007751	-0.281392	-0.202481
C100	C	1.507751	0.218608	0.297519
H101	H	0.956471	-0.250117	-0.155883
H102	H	1.456471	0.249883	0.344117
H103	H	0.978460	-0.316846	-0.259709
H104	H	1.478460	0.183154	0.240291
C105	C	1.119843	-0.251768	-0.301639
C106	C	1.619843	0.248232	0.198361
C107	C	1.056864	-0.213350	-0.244405
C108	C	1.556864	0.286650	0.255595
H109	H	1.150137	-0.209798	-0.327503
H110	H	1.650137	0.290202	0.172497
H111	H	1.156683	-0.290250	-0.266927
H112	H	1.656683	0.209750	0.233073
H113	H	1.095424	-0.281312	-0.349321
H114	H	1.595424	0.218688	0.150679
H115	H	1.081284	-0.183816	-0.196717
H116	H	1.581284	0.316184	0.303283
H117	H	1.020029	-0.174861	-0.279110
H118	H	1.520029	0.325139	0.220890
H119	H	0.385495	0.252119	0.000045
H120	H	0.885495	0.752119	0.500045
H121	H	0.837035	-0.313632	0.000111
H122	H	1.337035	0.186368	0.500111
O123	O	0.870658	0.227136	0.594752
O124	O	1.370658	0.727136	1.094752
C125	C	0.819359	0.182138	0.650266
C126	C	1.319359	0.682138	1.150266
H127	H	0.852469	0.116419	0.664648
H128	H	1.352469	0.616419	1.164648
H129	H	0.757911	0.176414	0.613286
H130	H	1.257911	0.676414	1.113286
C131	C	0.760936	0.310211	0.723769
C132	C	1.260936	0.810211	1.223769
C133	C	0.801605	0.229496	0.741440
C134	C	1.301605	0.729496	1.241440
H135	H	0.749981	0.339425	0.780008
H136	H	1.249981	0.839425	1.280008
H137	H	0.795495	0.340528	0.686366
H138	H	1.295495	0.840528	1.186366
H139	H	0.709734	0.305430	0.692950
H140	H	1.209734	0.805430	1.192950
H141	H	0.852810	0.234278	0.772248
H142	H	1.352810	0.734278	1.272248
H143	H	0.767054	0.199181	0.778851
H144	H	1.267054	0.699181	1.278851
H145	H	0.421446	-0.025546	0.000067
H146	H	0.921446	0.474454	0.500067
O147	O	0.870648	0.227332	0.405574
O148	O	1.370648	0.727332	0.905574
C149	C	0.820741	0.277721	0.468506
C150	C	1.320741	0.777721	0.968506
H151	H	0.854828	0.278687	0.536921
H152	H	1.354828	0.778687	1.036921
H153	H	0.758982	0.250429	0.478723
H154	H	1.258982	0.750429	0.978723
C155	C	0.761739	0.367142	0.347002
C156	C	1.261739	0.867142	0.847002
C157	C	0.803609	0.368334	0.431028
C158	C	1.303609	0.868334	0.931028
H159	H	0.751167	0.423035	0.323883
H160	H	1.251167	0.923035	0.823883
H161	H	0.795360	0.333193	0.304602
H162	H	1.295360	0.833193	0.804602
H163	H	0.710278	0.344395	0.355527
H164	H	1.210278	0.844395	0.855527
H165	H	0.855073	0.391071	0.422500
H166	H	1.355073	0.891071	0.922500
H167	H	0.769996	0.402289	0.473426
H168	H	1.269996	0.902289	0.973426
O169	O	0.587040	-0.034740	0.000014
O170	O	1.087040	0.465260	0.500014
C171	C	0.538927	-0.103294	0.000038
C172	C	1.038927	0.396706	0.500038
H173	H	0.474204	-0.081962	-0.028833
H174	H	0.974204	0.418038	0.471167
H175	H	0.532751	-0.126990	0.073192
H176	H	1.032751	0.373010	0.573192
C177	C	0.661635	-0.201187	-0.024294
C178	C	1.161635	0.298813	0.475706
C179	C	0.582144	-0.174988	-0.059761
C180	C	1.082144	0.325012	0.440239
H181	H	0.688295	-0.245413	-0.061178
H182	H	1.188295	0.254587	0.438822
H183	H	0.694051	-0.155001	-0.024307
H184	H	1.194051	0.344999	0.475693
H185	H	0.656478	-0.220927	0.036667
H186	H	1.156478	0.279073	0.536667
H187	H	0.587304	-0.155238	-0.120716
H188	H	1.087304	0.344762	0.379284
H189	H	0.549730	-0.221172	-0.059760
H190	H	1.049730	0.278828	0.440240
H191	H	0.908189	-0.428091	0.138783
H192	H	1.408189	0.071909	0.638783
H193	H	1.084697	0.011082	0.587108
H194	H	1.584697	0.511082	1.087108
O195	O	1.140205	-0.463096	0.000200
O196	O	1.640205	0.036904	0.500200
C197	C	1.197189	-0.402201	0.000971
C198	C	1.697189	0.097799	0.500971
H199	H	1.165334	-0.340457	0.030194
H200	H	1.665334	0.159543	0.530194
H201	H	1.218970	-0.391279	-0.071984
H202	H	1.718970	0.108721	0.428016
C203	C	1.312165	-0.509678	0.024995
C204	C	1.812165	-0.009678	0.524995
C205	C	1.273042	-0.433845	0.060895
C206	C	1.773042	0.066155	0.560895
H207	H	1.358957	-0.529198	0.061955
H208	H	1.858957	-0.029198	0.561955
H209	H	1.273775	-0.550705	0.024472
H210	H	1.773775	-0.050705	0.524472
H211	H	1.330309	-0.500566	-0.035800
H212	H	1.830309	-0.000566	0.464200
H213	H	1.254890	-0.442960	0.121684
H214	H	1.754890	0.057040	0.621684
H215	H	1.311431	-0.392820	0.061429
H216	H	1.811431	0.107180	0.561429
O217	O	1.062464	-0.338686	0.151185
O218	O	1.562464	0.161314	0.651185
C219	C	1.063513	-0.250389	0.150282
C220	C	1.563513	0.249611	0.650282
H221	H	1.010145	-0.220174	0.105722
H222	H	1.510145	0.279826	0.605722
H223	H	1.125593	-0.234655	0.121221
H224	H	1.625593	0.265345	0.621221
C225	C	1.118437	-0.253116	0.303476
C226	C	1.618437	0.246884	0.803476
C227	C	1.052885	-0.216005	0.248752
C228	C	1.552885	0.283995	0.748752
H229	H	1.111885	-0.231906	0.364217
H230	H	1.611885	0.268094	0.864217
H231	H	1.117734	-0.312604	0.304083
H232	H	1.617734	0.187396	0.804083
H233	H	1.170164	-0.240001	0.279247
H234	H	1.670164	0.259999	0.779247
H235	H	1.001161	-0.229129	0.272975
H236	H	1.501161	0.270871	0.772975
H237	H	1.053580	-0.156518	0.248151
H238	H	1.553580	0.343482	0.748151
H239	H	0.908213	-0.428039	-0.138677
H240	H	1.408213	0.071961	0.361323
