data_functionalizedCrystal
_audit_creation_method	'MofGen! by Chris Wilmer'
_symmetry_space_group_name_H-M	'P1'
_symmetry_Int_Tables_number	1
_symmetry_cell_setting	triclinic
loop_
_symmetry_equiv_pos_as_xyz
  x,y,z
_cell_length_a	23.532407
_cell_length_b	23.532357
_cell_length_c	12.503572
_cell_angle_alpha	93.494896
_cell_angle_beta	86.506620
_cell_angle_gamma	82.838519
loop_
_atom_site_label
_atom_site_type_symbol
_atom_site_fract_x
_atom_site_fract_y
_atom_site_fract_z
O1	O	0.758548	0.065826	-0.089265
O2	O	0.592684	0.075828	-0.089284
O3	O	0.680632	-0.012106	-0.089252
O4	O	0.670601	0.153760	-0.089297
O5	O	0.674018	-0.005482	0.089388
O6	O	0.586070	0.082452	0.089356
O7	O	0.751934	0.072450	0.089375
Cu8	Cu	0.668398	0.078056	0.105677
Cu9	Cu	0.676220	0.070222	-0.105585
O10	O	0.663986	0.160384	0.089343
C11	C	0.568161	0.078885	0.000034
C12	C	0.504944	0.078119	0.000028
C13	C	0.677074	-0.030010	0.000072
C14	C	0.676319	-0.093229	0.000082
C15	C	0.238785	0.022924	0.000072
C16	C	0.298185	0.023636	0.000072
O17	O	0.334936	-0.020149	0.000121
N18	N	0.320803	0.075912	0.000050
C19	C	0.284016	0.127482	0.000040
O20	O	0.308709	0.172012	0.000023
C21	C	0.224617	0.126770	0.000048
C22	C	0.202003	0.074489	0.000059
C23	C	0.216171	-0.029352	0.000084
C24	C	0.156775	-0.030063	0.000083
C25	C	0.119993	0.021502	0.000069
C26	C	0.142607	0.073778	0.000057
C27	C	0.187832	0.178339	0.000046
C28	C	0.128429	0.177622	0.000055
C29	C	0.105815	0.125342	0.000065
C30	C	0.046430	0.124632	0.000042
N31	N	0.023812	0.072355	0.000064
C32	C	0.060594	0.020790	0.000077
C33	C	0.408759	0.128972	0.000025
C34	C	0.468158	0.129684	0.000009
C35	C	0.482322	0.025838	0.000043
C36	C	0.422923	0.025127	0.000051
C37	C	0.386142	0.076696	0.000046
C38	C	-0.064143	0.019300	0.000073
C39	C	-0.123544	0.018593	0.000067
C40	C	-0.137704	0.122439	0.000039
C41	C	-0.078307	0.123146	0.000039
C42	C	-0.041527	0.071572	0.000060
O43	O	0.009644	0.168394	-0.000002
O44	O	0.035893	-0.023733	0.000109
C45	C	0.675190	-0.488853	-0.097353
C46	C	0.674473	-0.548252	-0.097360
O47	O	0.677149	-0.582040	-0.180174
N48	N	0.670512	-0.574353	0.000015
C49	C	0.667261	-0.541050	0.097403
O50	O	0.663826	-0.568704	0.180228
C51	C	0.667974	-0.481651	0.097408
C52	C	0.671941	-0.455554	0.000027
C53	C	0.679156	-0.462756	-0.194727
C54	C	0.679874	-0.403361	-0.194720
C55	C	0.676626	-0.370062	-0.097340
C56	C	0.672659	-0.396159	0.000033
C57	C	0.664720	-0.448348	0.194795
C58	C	0.665433	-0.388945	0.194791
C59	C	0.669400	-0.362849	0.097410
C60	C	0.670129	-0.303465	0.097420
N61	N	0.674090	-0.277364	0.000045
C62	C	0.677339	-0.310663	-0.097335
C63	C	0.665763	-0.665792	0.097385
C64	C	0.665055	-0.725190	0.097381
C65	C	0.672265	-0.732389	-0.097382
C66	C	0.672978	-0.672990	-0.097377
C67	C	0.669725	-0.639691	0.000010
C68	C	0.678847	-0.185928	-0.097314
C69	C	0.679567	-0.126527	-0.097298
C70	C	0.672354	-0.119333	0.097464
C71	C	0.671637	-0.178729	0.097449
C72	C	0.674881	-0.212025	0.000052
O73	O	0.667453	-0.269641	0.180193
O74	O	0.680766	-0.282999	-0.180146
C75	C	0.776457	0.069392	0.000055
C76	C	0.839674	0.070158	0.000054
C77	C	0.667544	0.178288	0.000017
C78	C	0.668300	0.241506	0.000000
N79	N	0.662900	0.083565	0.254267
N80	N	0.681722	0.064708	-0.254176
C81	C	0.654813	0.091675	0.473379
C82	C	0.689807	0.056601	0.526719
C83	C	0.685308	0.061113	0.648641
C84	C	0.659312	0.087163	0.351447
H85	H	-0.141952	-0.023982	0.000073
C86	C	0.675833	-0.769023	-0.204506
C87	C	0.728364	-0.770585	-0.284843
C88	C	0.731933	-0.807220	-0.391960
C89	C	0.682969	-0.842293	-0.418740
C90	C	0.630433	-0.840732	-0.338402
C91	C	0.626865	-0.804097	-0.231284
H92	H	0.764614	-0.744621	-0.265020
H93	H	0.770823	-0.808376	-0.451432
H94	H	0.685610	-0.869412	-0.498035
H95	H	0.594184	-0.866696	-0.358224
H96	H	0.587975	-0.802942	-0.171813
H97	H	0.681486	-0.213030	-0.176624
H98	H	0.378814	0.170968	0.000013
H99	H	0.246113	-0.071345	0.000099
C100	C	0.684226	-0.374660	-0.301845
C101	C	0.736557	-0.392556	-0.382188
C102	C	0.740906	-0.363861	-0.489320
C103	C	0.692923	-0.317270	-0.516109
C104	C	0.640589	-0.299372	-0.435763
C105	C	0.636241	-0.328067	-0.328631
H106	H	0.772080	-0.427047	-0.362360
H107	H	0.779647	-0.377110	-0.548797
H108	H	0.696143	-0.296028	-0.595414
H109	H	0.605067	-0.264881	-0.455592
H110	H	0.597499	-0.314818	-0.269154
H111	H	-0.034203	-0.022697	0.000090
H112	H	0.662775	-0.361835	0.274097
H113	H	0.138368	-0.072635	0.000096
H114	H	0.621477	0.125089	0.519274
C115	C	0.668776	-0.082695	0.204577
C116	C	0.616237	-0.081136	0.284895
C117	C	0.612652	-0.044494	0.392007
C118	C	0.661607	-0.009413	0.418802
C119	C	0.714151	-0.010972	0.338482
C120	C	0.717735	-0.047613	0.231369
H121	H	0.579994	-0.107106	0.265061
H122	H	0.573756	-0.043341	0.451465
H123	H	0.658954	0.017711	0.498093
H124	H	0.750393	0.014999	0.358315
H125	H	0.756631	-0.048766	0.171911
H126	H	0.404515	-0.017445	0.000060
H127	H	0.512281	-0.016149	0.000054
C128	C	0.662195	-0.629167	0.204519
C129	C	0.711156	-0.594093	0.231316
C130	C	0.707586	-0.557472	0.338448
C131	C	0.655056	-0.555924	0.418784
C132	C	0.606092	-0.590998	0.391989
C133	C	0.609661	-0.627620	0.284857
H134	H	0.750045	-0.595239	0.171844
H135	H	0.743834	-0.531507	0.358283
H136	H	0.652414	-0.528814	0.498090
H137	H	0.567203	-0.589853	0.451461
H138	H	0.573414	-0.653584	0.265022
H139	H	0.486564	0.172256	-0.000015
H140	H	0.206233	0.220911	0.000032
H141	H	0.098483	0.219617	0.000056
C142	C	-0.053424	0.180651	0.000015
C143	C	-0.070867	0.226830	0.092763
C144	C	-0.045987	0.284335	0.092749
C145	C	-0.003664	0.295662	-0.000013
C146	C	0.013782	0.249482	-0.092769
C147	C	-0.011098	0.191976	-0.092754
H148	H	-0.102200	0.218447	0.161438
H149	H	-0.058902	0.318521	0.161413
H150	H	0.014754	0.338230	-0.000024
H151	H	0.045115	0.257865	-0.161443
H152	H	0.001817	0.157791	-0.161418
H153	H	0.681799	-0.489862	-0.274030
H154	H	0.682799	-0.105283	-0.176602
C155	C	-0.178172	0.179158	0.000030
C156	C	-0.217530	0.189508	-0.092728
C157	C	-0.258001	0.246227	-0.092727
C158	C	-0.259114	0.292597	0.000031
C159	C	-0.219754	0.282248	0.092795
C160	C	-0.179283	0.225529	0.092795
H161	H	-0.216708	0.155181	-0.161399
H162	H	-0.287138	0.253887	-0.161398
H163	H	-0.289073	0.334584	0.000031
H164	H	-0.220577	0.316575	0.161466
H165	H	-0.150147	0.217869	0.161465
C166	C	0.677336	-0.644286	-0.204497
C167	C	0.728278	-0.611191	-0.231280
C168	C	0.732635	-0.582490	-0.338405
C169	C	0.686050	-0.586885	-0.418746
C170	C	0.635105	-0.619981	-0.391965
C171	C	0.630748	-0.648681	-0.284841
H172	H	0.762765	-0.607937	-0.171804
H173	H	0.770348	-0.557990	-0.358229
H174	H	0.689275	-0.565639	-0.498047
H175	H	0.600617	-0.623235	-0.451441
H176	H	0.593035	-0.673182	-0.265016
C177	C	0.660702	-0.753891	0.204505
C178	C	0.608369	-0.735996	0.284842
C179	C	0.604014	-0.764693	0.391971
C180	C	0.651994	-0.811285	0.418763
C181	C	0.704331	-0.829183	0.338424
C182	C	0.708685	-0.800486	0.231295
H183	H	0.572848	-0.701504	0.265010
H184	H	0.565271	-0.751444	0.451443
H185	H	0.648771	-0.832529	0.498066
H186	H	0.739852	-0.863676	0.358256
H187	H	0.747429	-0.813735	0.171823
H188	H	0.661491	-0.469585	0.274093
H189	H	0.668412	-0.199979	0.176745
H190	H	0.723147	0.023184	0.480818
