data_functionalizedCrystal
_audit_creation_method	'MofGen! by Chris Wilmer'
_symmetry_space_group_name_H-M	'P1'
_symmetry_Int_Tables_number	1
_symmetry_cell_setting	triclinic
loop_
_symmetry_equiv_pos_as_xyz
  x,y,z
_cell_length_a	13.339070
_cell_length_b	13.339070
_cell_length_c	10.065875
_cell_angle_alpha	101.189098
_cell_angle_beta	78.841154
_cell_angle_gamma	115.629294
loop_
_atom_site_label
_atom_site_type_symbol
_atom_site_fract_x
_atom_site_fract_y
_atom_site_fract_z
O1	O	1.508347	0.538891	-0.113530
O2	O	1.193537	0.466632	-0.113524
O3	O	1.314812	0.345357	-0.113522
O4	O	1.387073	0.660165	-0.113532
O5	O	1.291723	0.368612	0.113466
O6	O	1.170448	0.489886	0.113465
O7	O	1.485258	0.562145	0.113459
Zn8	Zn	1.324187	0.529708	0.149501
Zn9	Zn	1.354608	0.499069	-0.149566
O10	O	1.363984	0.683420	0.113457
C11	C	1.140877	0.466053	-0.000029
C12	C	1.018363	0.429670	-0.000026
C13	C	0.732979	0.712565	-0.000056
C14	C	0.848088	0.746752	-0.000063
C15	C	0.890662	0.667485	-0.000053
C16	C	0.818116	0.554024	-0.000038
C17	C	0.702997	0.519833	-0.000042
C18	C	0.860680	0.474752	-0.000039
C19	C	0.788134	0.361291	-0.000024
C20	C	0.673026	0.327106	-0.000027
C21	C	0.630452	0.406373	-0.000037
C22	C	0.975800	0.508943	-0.000035
C23	C	0.945818	0.316210	-0.000021
C24	C	0.830709	0.282024	-0.000014
C25	C	1.291061	0.315869	-0.000029
C26	C	1.254678	0.193354	-0.000034
C27	C	1.537578	-0.092034	-0.000039
C28	C	1.571764	0.023076	-0.000027
C29	C	1.492495	0.065652	-0.000029
C30	C	1.379035	-0.006895	-0.000043
C31	C	1.344844	-0.122015	-0.000044
C32	C	1.299762	0.035670	-0.000034
C33	C	1.186301	-0.036876	-0.000048
C34	C	1.152116	-0.151984	-0.000050
C35	C	1.231385	-0.194560	-0.000048
C36	C	1.333953	0.150791	-0.000033
C37	C	1.141219	0.120810	-0.000038
C38	C	1.107033	0.005700	-0.000050
C39	C	1.537918	0.562724	-0.000039
C40	C	1.660434	0.599106	-0.000051
C41	C	1.387734	0.712908	-0.000039
C42	C	1.424118	0.835422	-0.000043
N43	N	1.303433	0.550620	0.353606
N44	N	1.375368	0.478151	-0.353671
C45	C	1.347378	0.506336	0.421386
C46	C	1.331417	0.522441	0.578553
H47	H	0.907148	0.839130	-0.000086
O48	O	1.614689	-0.133281	-0.000217
C49	C	1.693615	-0.108108	-0.117791
H50	H	1.695036	-0.032800	-0.156989
H51	H	1.780247	-0.087760	-0.091347
H52	H	1.669384	-0.183405	-0.200109
O53	O	0.986982	0.239049	-0.000068
C54	C	0.898267	0.131578	-0.000034
H55	H	0.824976	0.131052	-0.043014
H56	H	0.927753	0.067310	-0.065930
H57	H	0.870335	0.109468	0.108865
O58	O	1.681933	0.093614	0.000219
C59	C	1.695509	0.173154	0.117762
H60	H	1.622163	0.138371	0.199930
H61	H	1.777113	0.191762	0.157221
H62	H	1.698229	0.253646	0.091186
O63	O	1.244273	0.609916	0.423116
C64	C	1.134070	0.558247	0.388301
H65	H	1.112600	0.466125	0.348930
H66	H	1.073056	0.565115	0.482350
H67	H	1.127441	0.601720	0.305475
H68	H	1.426333	0.209847	-0.000021
O69	O	0.691430	0.789416	-0.000008
C70	C	0.574277	0.734901	-0.000050
H71	H	0.541307	0.651819	0.042931
H72	H	0.533388	0.790197	0.065841
H73	H	0.553404	0.718604	-0.108951
O74	O	1.525579	0.177427	-0.000200
C75	C	1.496135	0.195630	-0.117779
H76	H	1.424159	0.116526	-0.156984
H77	H	1.468937	0.267977	-0.091338
H78	H	1.571497	0.217106	-0.200090
H79	H	1.059728	-0.211048	-0.000051
H80	H	1.424806	0.428307	0.588008
H81	H	1.203556	-0.288291	-0.000063
O82	O	0.996870	-0.064906	-0.000236
C83	C	0.983292	-0.144409	-0.117816
H84	H	1.065830	-0.152646	-0.157008
H85	H	0.915783	-0.228997	-0.091380
H86	H	0.957285	-0.115876	-0.200135
H87	H	1.076671	0.155474	-0.000033
O88	O	1.406250	0.446823	0.351636
C89	C	1.336646	0.354226	0.268983
H90	H	1.265249	0.371840	0.247768
H91	H	1.387720	0.339432	0.168419
H92	H	1.300686	0.276531	0.323923
O93	O	1.272326	0.581751	0.648269
C94	C	1.179572	0.512458	0.730916
H95	H	1.196798	0.440836	0.752171
H96	H	1.165037	0.563721	0.831461
H97	H	1.101880	0.476788	0.675952
H98	H	1.034856	0.601324	-0.000042
H99	H	0.536721	0.378544	-0.000031
O100	O	0.760212	0.171798	-0.000251
C101	C	0.704669	0.134224	-0.117794
H102	H	0.756230	0.190790	-0.199964
H103	H	0.694113	0.044561	-0.157249
H104	H	0.618754	0.136934	-0.091218
H105	H	0.984391	0.695326	-0.000062
H106	H	0.613962	0.234717	-0.000030
