data_functionalizedCrystal
_audit_creation_method	'MofGen! by Chris Wilmer'
_symmetry_space_group_name_H-M	'P1'
_symmetry_Int_Tables_number	1
_symmetry_cell_setting	triclinic
loop_
_symmetry_equiv_pos_as_xyz
  x,y,z
_cell_length_a	6.817900
_cell_length_b	11.102289
_cell_length_c	9.514088
_cell_angle_alpha	88.634869
_cell_angle_beta	118.843545
_cell_angle_gamma	108.605707
loop_
_atom_site_label
_atom_site_type_symbol
_atom_site_fract_x
_atom_site_fract_y
_atom_site_fract_z
V1	V	-4.243923	-0.178092	-0.500743
O2	O	-4.200435	0.006240	-0.491211
O3	O	-4.219794	-0.350897	-0.497318
O4	O	-4.278445	-0.176370	-0.719134
O5	O	-4.141379	-0.169496	-0.267859
V6	V	-4.713661	-0.155924	-0.472888
O7	O	-4.535420	-0.226720	-0.561844
O8	O	-4.872362	-0.107296	-0.411786
O9	O	-4.514583	0.016881	-0.476313
O10	O	-4.874545	-0.340255	-0.482420
O11	O	-4.933602	-0.164520	-0.705772
O12	O	-4.455932	-0.157646	-0.254497
C13	C	-4.068017	-0.392991	-0.489418
C14	C	-4.130128	-0.534268	-0.488074
C15	C	-4.142830	-0.170363	-0.772365
C16	C	-4.252499	-0.170099	-0.950901
C17	C	-4.345434	-0.607149	-0.495454
C18	C	-4.403792	-0.739895	-0.494204
C19	C	-4.031512	-0.726865	-0.478188
C20	C	-3.973165	-0.594123	-0.479449
C21	C	-4.560363	-0.614672	-0.504693
C22	C	-4.618720	-0.747418	-0.503444
C23	C	-4.329702	0.058969	-0.484208
C24	C	-4.246833	0.200244	-0.485563
C25	C	-4.254888	-0.163657	-0.201257
C26	C	-4.124455	-0.163915	-0.022720
H27	H	-3.797860	-0.534790	-0.473458
H28	H	-4.530492	-0.560936	-0.391457
O29	O	-3.878928	-0.785033	-0.469514
C30	C	-3.807473	-0.843589	-0.328593
H31	H	-3.829734	-0.794796	-0.235846
H32	H	-3.611915	-0.833337	-0.274588
H33	H	-3.922985	-0.949982	-0.361388
O34	O	-4.730947	-0.592513	-0.644000
C35	C	-4.954419	-0.644262	-0.652078
H36	H	-4.951414	-0.723400	-0.573290
H37	H	-5.100554	-0.686180	-0.783303
H38	H	-4.991996	-0.565054	-0.606177
O39	O	-4.813671	-0.817235	-0.645223
C40	C	-4.993734	-0.893608	-0.614124
H41	H	-4.909098	-0.909349	-0.481898
H42	H	-5.092063	-0.990526	-0.697059
H43	H	-5.125643	-0.842710	-0.638266
O44	O	-3.893715	-0.158049	-0.933026
C45	C	-3.886110	-0.268530	-0.857363
H46	H	-4.053430	-0.310985	-0.846743
H47	H	-3.720825	-0.241152	-0.730978
H48	H	-3.877923	-0.342788	-0.933181
O49	O	-4.483462	-0.176336	-1.040696
C50	C	-4.617000	-0.287263	-1.159993
H51	H	-4.491628	-0.318583	-1.185126
H52	H	-4.753959	-0.264888	-1.276584
H53	H	-4.713394	-0.368013	-1.114737
H54	H	-4.641022	-0.771894	-0.393738
