data_functionalizedCrystal
_audit_creation_method	'MofGen! by Chris Wilmer'
_symmetry_space_group_name_H-M	'P1'
_symmetry_Int_Tables_number	1
_symmetry_cell_setting	triclinic
loop_
_symmetry_equiv_pos_as_xyz
  x,y,z
_cell_length_a	12.594516
_cell_length_b	17.640112
_cell_length_c	17.640968
_cell_angle_alpha	92.139080
_cell_angle_beta	101.227826
_cell_angle_gamma	78.759918
loop_
_atom_site_label
_atom_site_type_symbol
_atom_site_fract_x
_atom_site_fract_y
_atom_site_fract_z
Zn1	Zn	-0.030581	-1.247781	0.195081
Zn2	Zn	0.469419	-0.747781	0.695081
Zn3	Zn	-0.250168	-1.222032	0.068109
Zn4	Zn	0.249832	-0.722032	0.568109
Zn5	Zn	-0.099815	-1.095120	0.093731
Zn6	Zn	0.400185	-0.595120	0.593731
Zn7	Zn	-0.236158	-1.120772	0.220690
Zn8	Zn	0.263842	-0.620772	0.720690
O9	O	-0.154181	-1.171426	0.144403
O10	O	0.345819	-0.671426	0.644403
O11	O	-0.036598	-1.350633	0.156798
O12	O	0.463402	-0.850633	0.656798
O13	O	-0.265062	-1.183686	-0.034764
O14	O	0.234938	-0.683686	0.465236
O15	O	0.058327	-1.115411	0.107180
O16	O	0.558327	-0.615411	0.607180
O17	O	-0.197928	-1.331715	0.063512
O18	O	0.302072	-0.831715	0.563512
O19	O	0.109193	-1.227571	0.181642
O20	O	0.609193	-0.727571	0.681642
O21	O	-0.154598	-1.090444	-0.015940
O22	O	0.345402	-0.590444	0.484060
O23	O	-0.141013	-0.992255	0.132012
O24	O	0.358987	-0.492255	0.632012
O25	O	-0.174050	-1.159131	0.323565
O26	O	0.325950	-0.659131	0.823565
O27	O	-0.241184	-1.011102	0.225289
O28	O	0.258816	-0.511102	0.725289
O29	O	-0.023013	-1.252445	0.304750
O30	O	0.476987	-0.752445	0.804750
O31	O	-0.397268	-1.208559	0.088344
O32	O	0.102732	-0.708559	0.588344
O33	O	-0.386975	-1.134164	0.200445
O34	O	0.113025	-0.634164	0.700445
C35	C	-0.197091	-0.974125	0.184210
C36	C	0.302909	-0.474125	0.684210
C37	C	-0.215468	-0.889722	0.201258
C38	C	0.284532	-0.389722	0.701258
C39	C	-0.430735	-1.171375	0.144405
C40	C	0.069265	-0.671375	0.644405
C41	C	-0.549023	-1.171428	0.144418
C42	C	-0.049023	-0.671428	0.644418
C43	C	-0.089246	-1.211522	0.342483
C44	C	0.410754	-0.711522	0.842483
C45	C	-0.061575	-1.228608	0.426893
C46	C	0.438425	-0.728608	0.926893
C47	C	-0.612729	-1.130952	0.205355
C48	C	-0.112729	-0.630952	0.705355
C49	C	-0.710300	-1.098441	0.139790
C50	C	-0.210300	-0.598441	0.639790
C51	C	-0.662232	-1.204011	0.209981
C52	C	-0.162232	-0.704011	0.709981
C53	C	-0.645055	-1.138872	0.078824
C54	C	-0.145055	-0.638872	0.578824
C55	C	-0.596959	-1.244484	0.149055
C56	C	-0.096959	-0.744484	0.649055
C57	C	-0.694508	-1.211989	0.083437
C58	C	-0.194508	-0.711989	0.583437
C59	C	0.123463	-1.171502	0.144413
C60	C	0.623463	-0.671502	0.644413
C61	C	0.241779	-1.171534	0.144417
C62	C	0.741779	-0.671534	0.644417
C63	C	-0.111103	-1.369498	0.104440
C64	C	0.388897	-0.869498	0.604440
C65	C	-0.092746	-1.453905	0.087411
C66	C	0.407254	-0.953905	0.587411
C67	C	-0.014551	-0.563040	0.014899
C68	C	0.485449	-0.063040	0.514899
C69	C	-0.031838	-0.483733	0.030928
C70	C	0.468162	0.016267	0.530928
C71	C	-0.136388	-0.503379	0.127890
C72	C	0.363612	-0.003379	0.627890
C73	C	-0.119106	-0.582690	0.111871
C74	C	0.380894	-0.082690	0.611871
C75	C	-0.058188	-0.612514	0.055374
C76	C	0.441812	-0.112514	0.555374
C77	C	-0.162742	-0.632163	0.152347
C78	C	0.337258	-0.132163	0.652347
C79	C	-0.145466	-0.711466	0.136326
C80	C	0.354534	-0.211466	0.636326
C81	C	-0.084554	-0.741296	0.079830
C82	C	0.415446	-0.241296	0.579830
C83	C	-0.040912	-0.691817	0.039354
C84	C	0.459088	-0.191817	0.539354
C85	C	-0.223666	-0.602336	0.208839
C86	C	0.276334	-0.102336	0.708839
C87	C	-0.267303	-0.651810	0.249315
C88	C	0.232697	-0.151810	0.749315
C89	C	-0.250020	-0.731115	0.233299
C90	C	0.249980	-0.231115	0.733299
C91	C	-0.189108	-0.760946	0.176803
C92	C	0.310892	-0.260946	0.676803
C93	C	-0.293662	-0.780595	0.273775
C94	C	0.206338	-0.280595	0.773775
C95	C	-0.276386	-0.859898	0.257755
C96	C	0.223614	-0.359898	0.757755
C97	C	-0.171832	-0.840249	0.160783
C98	C	0.328168	-0.340249	0.660783
C99	C	-0.218777	-1.131531	-0.052915
C100	C	0.281223	-0.631531	0.447085
C101	C	-0.246116	-1.114592	-0.137354
C102	C	0.253884	-0.614592	0.362646
C103	C	-0.363754	-1.041915	0.753480
C104	C	0.136246	-0.541915	1.253480
C105	C	-0.337736	-1.057987	0.832792
C106	C	0.162264	-0.557987	1.332792
C107	C	-0.180474	-1.155145	0.813192
C108	C	0.319526	-0.655145	1.313192
C109	C	-0.206477	-1.139080	0.733876
C110	C	0.293523	-0.639080	1.233876
C111	C	-0.298118	-1.082465	0.704027
C112	C	0.201882	-0.582465	1.204027
C113	C	-0.140841	-1.179629	0.684423
C114	C	0.359159	-0.679629	1.184423
C115	C	-0.166845	-1.163567	0.605114
C116	C	0.333155	-0.663567	1.105114
C117	C	-0.258484	-1.106956	0.575258
C118	C	0.241516	-0.606956	1.075258
C119	C	-0.324122	-1.066403	0.624718
C120	C	0.175878	-0.566403	1.124718
C121	C	-0.049204	-1.236247	0.714274
C122	C	0.450796	-0.736247	1.214274
C123	C	0.016432	-1.276797	0.664821
C124	C	0.516432	-0.776797	1.164821
C125	C	-0.009567	-1.260731	0.585511
C126	C	0.490433	-0.760731	1.085511
C127	C	-0.101207	-1.204120	0.555655
C128	C	0.398793	-0.704120	1.055655
C129	C	0.056071	-1.301285	0.536051
C130	C	0.556071	-0.801285	1.036051
C131	C	0.030067	-1.285223	0.456742
C132	C	0.530067	-0.785223	0.956742
C133	C	-0.127210	-1.188059	0.476346
C134	C	0.372790	-0.688059	0.976346
H135	H	-0.577032	-1.096633	0.256840
H136	H	-0.077032	-0.596633	0.756840
H137	H	-0.237731	-0.537762	0.221881
H138	H	0.262269	-0.037762	0.721881
F139	F	0.113958	-1.337051	0.696597
F140	F	0.613958	-0.837051	1.196597
F141	F	-0.224739	-1.127796	0.444575
F142	F	0.275261	-0.627796	0.944575
F143	F	-0.461283	-0.981653	0.721709
F144	F	0.038717	-0.481653	1.221709
F145	F	-0.532762	-1.325164	0.154221
F146	F	-0.032762	-0.825164	0.654221
H147	H	0.008713	-0.716104	-0.006640
H148	H	0.508713	-0.216104	0.493360
F149	F	-0.407600	-1.014822	0.885423
F150	F	0.092400	-0.514822	1.385423
H151	H	-0.636769	-1.111287	0.023376
H152	H	-0.136769	-0.611287	0.523376
H153	H	-0.316906	-0.627515	0.295312
H154	H	0.183094	-0.127515	0.795312
H155	H	0.130679	-1.347386	0.560366
H156	H	0.630679	-0.847386	1.060366
H157	H	-0.343271	-0.756298	0.319769
H158	H	0.156729	-0.256298	0.819769
F159	F	-0.322832	-0.912554	0.300832
F160	F	0.177168	-0.412554	0.800832
F161	F	-0.066173	-0.825698	0.062776
F162	F	0.433827	-0.325698	0.562776
H163	H	0.083516	-1.318241	0.416476
H164	H	0.583516	-0.818241	0.916476
F165	F	-0.201232	-0.471627	0.188008
F166	F	0.298768	0.028373	0.688008
H167	H	-0.759408	-1.036709	0.135873
H168	H	-0.259408	-0.536709	0.635873
F169	F	-0.082948	-1.215399	0.844968
F170	F	0.417052	-0.715399	1.344968
H171	H	-0.730048	-1.246254	0.031854
H172	H	-0.230048	-0.746254	0.531854
F173	F	-0.286164	-1.089865	0.490849
F174	F	0.213836	-0.589865	0.990849
F175	F	-0.673261	-1.239973	0.282451
F176	F	-0.173261	-0.739973	0.782451
H177	H	0.003710	-0.443454	-0.002031
H178	H	0.503710	0.056546	0.497969
F179	F	-0.106987	-0.871995	0.100657
F180	F	0.393013	-0.371995	0.600657
F181	F	0.050293	-0.594787	-0.045227
F182	F	0.550293	-0.094787	0.454773
F183	F	-0.421651	-1.006140	0.592947
F184	F	0.078349	-0.506140	1.092947
H185	H	-0.028037	-1.249325	0.778852
H186	H	0.471963	-0.749325	1.278852
