data_functionalizedCrystal
_audit_creation_method	'MofGen! by Chris Wilmer'
_symmetry_space_group_name_H-M	'P1'
_symmetry_Int_Tables_number	1
_symmetry_cell_setting	triclinic
loop_
_symmetry_equiv_pos_as_xyz
  x,y,z
_cell_length_a	6.394989
_cell_length_b	16.992695
_cell_length_c	16.053802
_cell_angle_alpha	87.258926
_cell_angle_beta	92.655437
_cell_angle_gamma	88.582967
loop_
_atom_site_label
_atom_site_type_symbol
_atom_site_fract_x
_atom_site_fract_y
_atom_site_fract_z
O1	O	-2.801246	-0.125449	-0.069422
O2	O	-2.194200	-0.131931	-0.069425
O3	O	-2.495289	-0.014523	-0.069417
O4	O	-2.500158	-0.242856	-0.069430
O5	O	-2.478712	-0.020958	0.069441
O6	O	-2.177623	-0.138366	0.069433
O7	O	-2.784669	-0.131884	0.069437
Zn8	Zn	-2.478514	-0.136147	0.091482
Zn9	Zn	-2.500355	-0.127668	-0.091470
O10	O	-2.483580	-0.249291	0.069428
C11	C	-2.480739	0.011533	0.000012
C12	C	-2.462058	0.098762	0.000012
C13	C	-2.498130	-0.275348	-0.000003
C14	C	-2.516812	-0.362577	-0.000008
N15	N	-2.463623	-0.141933	0.216341
C16	C	-2.107876	-0.133867	0.000008
C17	C	-1.870987	-0.129950	0.000012
N18	N	-2.515262	-0.121876	-0.216330
C19	C	-2.642306	0.147221	0.000014
C20	C	-2.624741	0.229182	0.000006
C21	C	-2.426927	0.262682	0.000002
C22	C	-2.246666	0.214216	-0.000003
C23	C	-2.264233	0.132257	-0.000001
C24	C	-2.354118	0.506999	-0.000010
C25	C	-2.336564	0.588964	-0.000010
C26	C	-2.714642	0.603925	-0.000003
C27	C	-2.732191	0.521963	0.000004
C28	C	-2.551931	0.473505	-0.000005
N29	N	-2.408968	0.346458	-0.000004
N30	N	-2.569892	0.389731	-0.000005
C31	C	-2.591790	-0.091994	0.260039
C32	C	-2.581394	-0.096049	0.347445
C33	C	-2.442841	-0.150047	0.391153
C34	C	-2.314660	-0.199987	0.347449
C35	C	-2.325047	-0.195928	0.260044
C36	C	-2.397468	-0.167757	0.652561
C37	C	-2.387095	-0.171814	0.739972
C38	C	-2.653827	-0.067875	0.739962
C39	C	-2.664210	-0.063823	0.652556
C40	C	-2.536022	-0.113761	0.608860
N41	N	-2.432216	-0.154195	0.480496
N42	N	-2.546637	-0.109608	0.519518
H43	H	-2.803387	0.119953	0.000022
O44	O	-2.272880	-0.216349	0.610252
C45	C	-2.007142	-0.319842	0.619493
C46	C	-2.148159	-0.264867	0.667517
H47	H	-1.906238	-0.359070	0.665771
H48	H	-2.108768	-0.358145	0.578578
H49	H	-1.901917	-0.282963	0.578568
H50	H	-2.253408	-0.301684	0.708488
H51	H	-2.046409	-0.226561	0.708379
O52	O	-2.089003	0.085267	-0.000113
C53	C	-1.779906	0.050696	-0.072087
C54	C	-1.978258	0.103974	-0.072048
H55	H	-1.690335	0.065789	-0.130248
H56	H	-1.676143	0.060439	-0.014016
H57	H	-1.826487	-0.013632	-0.072047
H58	H	-1.931868	0.168320	-0.072117
H59	H	-2.081970	0.094162	-0.130113
O60	O	-2.924255	0.489342	-0.000109
C61	C	-3.172159	0.408868	-0.072070
C62	C	-2.954574	0.445747	-0.072040
H63	H	-3.196759	0.373626	-0.130229
H64	H	-3.182952	0.368133	-0.013997
H65	H	-3.297921	0.457598	-0.072031
H66	H	-2.828686	0.397069	-0.072109
H67	H	-2.943961	0.486501	-0.130108
O68	O	-2.179878	-0.252459	0.389774
C69	C	-1.916489	-0.355151	0.380552
C70	C	-2.069003	-0.295750	0.332518
H71	H	-1.826838	-0.390179	0.334281
H72	H	-1.801323	-0.322122	0.421465
H73	H	-2.008522	-0.397169	0.421481
H74	H	-1.977145	-0.253718	0.291543
H75	H	-2.184170	-0.328831	0.291658
H76	H	-2.771519	0.268635	0.000009
O77	O	-2.889692	0.651037	-0.000150
C78	C	-3.097802	0.755614	-0.072069
C79	C	-2.899502	0.702298	-0.072011
H80	H	-3.105776	0.797083	-0.130154
H81	H	-3.242283	0.717634	-0.072122
H82	H	-3.092076	0.791634	-0.013932
H83	H	-2.905024	0.666268	-0.130138
H84	H	-2.755106	0.740322	-0.071916
O85	O	-2.054636	0.246853	-0.000119
C86	C	-1.823933	0.333997	-0.072084
C87	C	-2.041502	0.297109	-0.072050
H88	H	-1.813227	0.374623	-0.130243
H89	H	-1.799282	0.369356	-0.014011
H90	H	-1.698152	0.285267	-0.072046
H91	H	-2.167417	0.345788	-0.072118
H92	H	-2.065972	0.261730	-0.130118
H93	H	-2.175470	0.616235	0.000000
H94	H	-2.704623	-0.048027	0.224458
O95	O	-2.706133	-0.047515	0.389763
C96	C	-2.971757	0.056019	0.380530
C97	C	-2.830628	0.001088	0.332502
H98	H	-3.072415	0.095340	0.334255
H99	H	-3.077193	0.019183	0.421409
H100	H	-2.870016	0.094238	0.421492
H101	H	-2.932205	-0.037142	0.291494
H102	H	-2.725179	0.037970	0.291676
H103	H	-2.207336	0.467554	-0.000017
H104	H	-2.777031	-0.019854	0.616971
O105	O	-2.778222	-0.019249	0.782320
C106	C	-2.874726	0.114841	0.809115
C107	C	-2.733768	0.059857	0.761079
H108	H	-2.838805	0.178809	0.791973
H109	H	-3.046091	0.103786	0.791901
H110	H	-2.843535	0.102627	0.879089
H111	H	-2.764775	0.072039	0.691094
H112	H	-2.562449	0.070923	0.778362
H113	H	-2.274263	-0.215789	0.775555
H114	H	-2.220677	-0.236592	0.224467
