data_functionalizedCrystal
_audit_creation_method	'MofGen! by Chris Wilmer'
_symmetry_space_group_name_H-M	'P1'
_symmetry_Int_Tables_number	1
_symmetry_cell_setting	triclinic
loop_
_symmetry_equiv_pos_as_xyz
  x,y,z
_cell_length_a	19.288864
_cell_length_b	16.109301
_cell_length_c	18.366186
_cell_angle_alpha	89.992337
_cell_angle_beta	89.977106
_cell_angle_gamma	83.298863
loop_
_atom_site_label
_atom_site_type_symbol
_atom_site_fract_x
_atom_site_fract_y
_atom_site_fract_z
O1	O	0.921600	0.103716	-0.060785
O2	O	0.719373	0.117707	-0.060736
O3	O	0.826042	-0.010339	-0.060755
O4	O	0.814931	0.231761	-0.060767
O5	O	0.826024	-0.010345	0.060345
O6	O	0.719355	0.117701	0.060363
O7	O	0.921582	0.103710	0.060314
Zn8	Zn	0.820466	0.110704	0.079566
Zn9	Zn	0.820490	0.110712	-0.079988
O10	O	0.814913	0.231755	0.060333
C11	C	0.693487	0.117254	-0.000180
C12	C	0.616380	0.115902	-0.000161
C13	C	0.825583	-0.041315	-0.000205
C14	C	0.824234	-0.133606	-0.000203
C15	C	0.571863	0.191034	-0.000176
C16	C	0.499413	0.189764	-0.000184
C17	C	0.471483	0.113359	-0.000191
C18	C	0.516009	0.038218	-0.000172
C19	C	0.588458	0.039489	-0.000157
C20	C	0.363084	0.053298	-0.042639
C21	C	0.290636	0.052029	-0.042659
C22	C	0.248028	0.109433	-0.000235
C23	C	0.277874	0.168120	0.042199
C24	C	0.350323	0.169391	0.042214
C25	C	0.392925	0.111971	-0.000207
C26	C	0.124952	0.183193	-0.000258
C27	C	0.052501	0.181920	-0.000262
C28	C	0.069099	0.030372	-0.000257
C29	C	0.141548	0.031647	-0.000246
C30	C	0.169470	0.108060	-0.000250
C31	C	0.884391	-0.356084	-0.000229
C32	C	0.883118	-0.442800	-0.000235
C33	C	0.756559	-0.422493	-0.000201
C34	C	0.757833	-0.335778	-0.000201
C35	C	0.821751	-0.302577	-0.000211
C36	C	0.819204	-0.476007	-0.000217
C37	C	0.817823	-0.570028	-0.000223
C38	C	0.823133	-0.208549	-0.000206
C39	C	0.947469	0.104163	-0.000244
C40	C	1.024576	0.105514	-0.000268
C41	C	0.815372	0.262732	-0.000219
C42	C	0.816722	0.355022	-0.000225
N43	N	0.820455	0.110698	0.188457
N44	N	0.820506	0.110712	-0.188879
C45	C	0.867703	0.054027	0.226549
C46	C	0.867707	0.054023	0.302777
C47	C	0.820470	0.110705	0.340910
C48	C	0.773213	0.167380	0.302808
C49	C	0.773205	0.167377	0.226582
C50	C	0.811353	0.186459	0.461668
C51	C	0.811365	0.186463	0.537893
C52	C	0.820490	0.110715	0.576017
C53	C	0.829616	0.034960	0.537908
C54	C	0.829609	0.034956	0.461681
C55	C	0.820473	0.110715	0.423564
C56	C	0.867746	0.054036	0.696764
C57	C	0.867745	0.054031	0.772993
C58	C	0.773254	0.167395	0.773023
C59	C	0.773251	0.167392	0.696796
C60	C	0.820500	0.110714	0.658671
H61	H	0.594592	0.253255	-0.000181
F62	F	0.382085	0.231845	0.087377
F63	F	0.917999	-0.006296	0.343324
F64	F	0.691159	-0.278828	-0.000187
F65	F	0.949789	-0.499743	-0.000256
H66	H	0.704519	-0.449537	-0.000191
H67	H	0.906175	0.007874	0.195510
F68	F	0.635838	-0.040479	-0.000140
F69	F	0.722937	0.227702	0.343392
F70	F	0.452026	0.269732	-0.000198
F71	F	0.839316	-0.045666	0.421125
H72	H	0.837046	-0.026722	0.568947
H73	H	0.266341	0.004247	-0.077214
H74	H	0.734729	0.213526	0.195567
F75	F	0.918030	-0.006290	0.656188
H76	H	0.177795	-0.029534	-0.000238
H77	H	0.397770	0.006551	-0.077190
F78	F	0.005121	0.261890	-0.000274
H79	H	0.906218	0.007878	0.804009
H80	H	0.243184	0.214863	0.076745
H81	H	0.734789	0.213542	0.804071
F82	F	0.722965	0.227713	0.656252
F83	F	0.801691	0.267087	0.421100
F84	F	0.154671	0.264517	-0.000257
F85	F	0.039379	-0.050945	-0.000258
F86	F	0.801657	0.267088	0.578445
F87	F	0.486284	-0.043098	-0.000176
H88	H	0.936438	-0.329054	-0.000239
