data_functionalizedCrystal
_audit_creation_method	'MofGen! by Chris Wilmer'
_symmetry_space_group_name_H-M	'P1'
_symmetry_Int_Tables_number	1
_symmetry_cell_setting	triclinic
loop_
_symmetry_equiv_pos_as_xyz
  x,y,z
_cell_length_a	19.188930
_cell_length_b	19.188930
_cell_length_c	17.666332
_cell_angle_alpha	90.011603
_cell_angle_beta	89.976766
_cell_angle_gamma	96.855221
loop_
_atom_site_label
_atom_site_type_symbol
_atom_site_fract_x
_atom_site_fract_y
_atom_site_fract_z
O1	O	0.926150	-0.087169	-0.063200
O2	O	1.426150	0.412831	0.436800
O3	O	0.722838	-0.098903	-0.063149
O4	O	1.222838	0.401097	0.436851
O5	O	0.830361	0.008620	-0.063161
O6	O	1.330361	0.508620	0.436839
O7	O	0.818627	-0.194692	-0.063188
O8	O	1.318627	0.305308	0.436812
O9	O	0.830342	0.008625	0.062735
O10	O	1.330342	0.508625	0.562735
O11	O	0.722820	-0.098897	0.062747
O12	O	1.222820	0.401103	0.562747
O13	O	0.926131	-0.087163	0.062697
O14	O	1.426131	0.412837	0.562697
Cu15	Cu	0.824473	-0.093030	0.074217
Cu16	Cu	1.324473	0.406970	0.574217
Cu17	Cu	0.824496	-0.093036	-0.074670
Cu18	Cu	1.324496	0.406964	0.425330
O19	O	0.818608	-0.194686	0.062709
O20	O	1.318608	0.305314	0.562709
C21	C	0.696818	-0.098520	-0.000194
C22	C	1.196818	0.401480	0.499806
C23	C	0.619313	-0.097380	-0.000174
C24	C	1.119313	0.402620	0.499826
C25	C	0.574389	-0.160470	-0.000194
C26	C	1.074389	0.339530	0.499806
C27	C	0.501566	-0.159399	-0.000203
C28	C	1.001566	0.340601	0.499797
C29	C	0.473669	-0.095233	-0.000206
C30	C	0.973669	0.404767	0.499794
C31	C	0.518603	-0.032133	-0.000181
C32	C	1.018603	0.467867	0.499819
C33	C	0.591425	-0.033207	-0.000166
C34	C	1.091425	0.466793	0.499834
N35	N	0.365695	-0.046188	-0.043078
N36	N	0.865695	0.453812	0.456922
N37	N	0.296517	-0.045172	-0.043095
N38	N	0.796517	0.454828	0.456905
C39	C	0.254260	-0.091994	-0.000252
C40	C	0.754260	0.408006	0.499748
N41	N	0.283795	-0.139881	0.042599
N42	N	0.783795	0.360119	0.542599
N43	N	0.352979	-0.140899	0.042612
N44	N	0.852979	0.359101	0.542612
C45	C	0.394707	-0.094062	-0.000222
C46	C	0.894707	0.405938	0.499778
C47	C	0.130372	-0.153928	-0.000280
C48	C	0.630372	0.346072	0.499720
C49	C	0.057547	-0.152853	-0.000283
C50	C	0.557547	0.347147	0.499717
C51	C	0.074586	-0.025586	-0.000270
C52	C	0.574586	0.474414	0.499730
C53	C	0.147409	-0.026662	-0.000258
C54	C	0.647409	0.473338	0.499742
C55	C	0.175298	-0.090835	-0.000267
C56	C	0.675298	0.409165	0.499733
C57	C	0.829972	0.034634	-0.000211
C58	C	1.329972	0.534634	0.499789
C59	C	0.828831	0.112138	-0.000204
C60	C	1.328831	0.612138	0.499796
C61	C	0.952151	-0.087546	-0.000260
C62	C	1.452151	0.412454	0.499740
C63	C	1.029656	-0.088687	-0.000285
C64	C	1.529656	0.411313	0.499715
C65	C	0.818997	-0.220700	-0.000244
C66	C	1.318997	0.279300	0.499756
C67	C	0.820138	-0.298204	-0.000255
C68	C	1.320138	0.201796	0.499745
N69	N	0.824463	-0.093025	0.178937
N70	N	1.324463	0.406975	0.678937
C71	C	0.891922	0.157062	-0.000216
C72	C	1.391922	0.657062	0.499784
C73	C	0.890850	0.229886	-0.000228
C74	C	1.390850	0.729886	0.499772
C75	C	0.826684	0.257782	-0.000212
C76	C	1.326684	0.757782	0.499788
C77	C	0.763585	0.212849	-0.000205
C78	C	1.263585	0.712849	0.499795
C79	C	0.764658	0.140026	-0.000200
C80	C	1.264658	0.640026	0.499800
N81	N	0.777630	0.365789	0.042645
N82	N	1.277630	0.865789	0.542645
N83	N	0.776615	0.434968	0.042642
N84	N	1.276615	0.934968	0.542642
C85	C	0.823446	0.477191	-0.000227
C86	C	1.323446	0.977191	0.499773
N87	N	0.871341	0.447624	-0.043084
N88	N	1.371341	0.947624	0.456916
N89	N	0.872359	0.378439	-0.043079
N90	N	1.372359	0.878439	0.456921
C91	C	0.825513	0.336745	-0.000218
C92	C	1.325513	0.836745	0.499782
C93	C	0.885379	0.601079	-0.000253
C94	C	1.385379	1.101079	0.499747
C95	C	0.884305	0.673904	-0.000270
C96	C	1.384305	1.173904	0.499730
C97	C	0.757038	0.656865	-0.000239
C98	C	1.257038	1.156865	0.499761
C99	C	0.758114	0.584042	-0.000230
C100	C	1.258114	1.084042	0.499770
C101	C	0.822287	0.556154	-0.000233
C102	C	1.322287	1.056154	0.499767
N103	N	0.824512	-0.093036	-0.179390
N104	N	1.324512	0.406964	0.320610
C105	C	0.872089	-0.045437	0.218541
C106	C	1.372089	0.454563	0.718541
C107	C	0.872093	-0.045433	0.297789
C108	C	1.372093	0.454567	0.797789
C109	C	0.824478	-0.093030	0.337429
C110	C	1.324478	0.406970	0.837429
C111	C	0.776842	-0.140621	0.297815
C112	C	1.276842	0.359379	0.797815
C113	C	0.776835	-0.140619	0.218569
C114	C	1.276835	0.359381	0.718569
N115	N	0.815401	-0.154837	0.461841
N116	N	1.315401	0.345163	0.961841
N117	N	0.815413	-0.154837	0.537121
N118	N	1.315413	0.345163	1.037121
C119	C	0.824496	-0.093040	0.576193
C120	C	1.324496	0.406960	1.076193
N121	N	0.833582	-0.031239	0.537140
N122	N	1.333582	0.468761	1.037140
N123	N	0.833574	-0.031240	0.461853
N124	N	1.333574	0.468760	0.961853
C125	C	0.824480	-0.093038	0.423358
C126	C	1.324480	0.406962	0.923358
C127	C	0.872130	-0.045444	0.701727
C128	C	1.372130	0.454556	1.201727
C129	C	0.872129	-0.045440	0.780976
C130	C	1.372129	0.454560	1.280976
C131	C	0.776881	-0.140634	0.781000
C132	C	1.276881	0.359366	1.281000
C133	C	0.776878	-0.140632	0.701753
C134	C	1.276878	0.359368	1.201753
C135	C	0.824506	-0.093038	0.662121
C136	C	1.324506	0.406962	1.162121
H137	H	0.628003	0.018171	-0.000150
H138	H	1.128003	0.518171	0.499850
O139	O	0.945642	0.717474	-0.000383
O140	O	1.445642	1.217474	0.499617
C141	C	1.054083	0.754325	-0.065647
C142	C	1.554083	1.254325	0.434353
C143	C	0.984652	0.704931	-0.065604
C144	C	1.484652	1.204931	0.434396
H145	H	1.085636	0.744212	-0.118380
H146	H	1.585636	1.244212	0.381620
H147	H	1.085708	0.744213	-0.012998
H148	H	1.585708	1.244213	0.487002
H149	H	1.042280	0.811159	-0.065617
H150	H	1.542280	1.311159	0.434383
H151	H	0.996391	0.648079	-0.065661
H152	H	1.496391	1.148079	0.434339
H153	H	0.953047	0.715104	-0.118249
H154	H	1.453047	1.215104	0.381751
O155	O	0.918414	0.000859	0.663340
O156	O	1.418414	0.500859	1.163340
C157	C	1.012911	0.095251	0.671677
C158	C	1.512911	0.595251	1.171677
C159	C	0.960522	0.042862	0.715241
C160	C	1.460522	0.542862	1.215241
H161	H	1.046979	0.129214	0.713620
H162	H	1.546979	0.629214	1.213620
H163	H	0.982909	0.130104	0.634620
H164	H	1.482909	0.630104	1.134620
H165	H	1.047662	0.065180	0.634531
H166	H	1.547662	0.565180	1.134531
H167	H	0.925757	0.072876	0.752428
H168	H	1.425757	0.572876	1.252428
H169	H	0.990567	0.008009	0.752250
H170	H	1.490567	0.508009	1.252250
O171	O	0.730530	-0.186801	0.819463
O172	O	1.230530	0.313199	1.319463
C173	C	0.609007	-0.228042	0.843726
C174	C	1.109007	0.271958	1.343726
C175	C	0.661426	-0.175709	0.800130
C176	C	1.161426	0.324291	1.300130
H177	H	0.553125	-0.219102	0.828099
H178	H	1.053125	0.280898	1.328099
H179	H	0.617129	-0.219871	0.907178
H180	H	1.117129	0.280129	1.407178
H181	H	0.617966	-0.283936	0.828134
H182	H	1.117966	0.216064	1.328134
H183	H	0.652499	-0.119794	0.815659
H184	H	1.152499	0.380206	1.315659
H185	H	0.653291	-0.183941	0.736688
H186	H	1.153291	0.316059	1.236688
H187	H	0.738099	-0.179386	0.669505
H188	H	1.238099	0.320614	1.169505
H189	H	0.711340	0.235567	-0.000194
H190	H	1.211340	0.735567	0.499806
H191	H	0.910878	-0.006680	0.330041
H192	H	1.410878	0.493320	0.830041
H193	H	0.944176	0.134360	-0.000222
H194	H	1.444176	0.634360	0.499778
O195	O	0.457888	-0.220670	-0.000093
O196	O	0.957888	0.279330	0.499907
C197	C	0.365711	-0.293300	0.065064
C198	C	0.865711	0.206700	0.565064
C199	C	0.415142	-0.223893	0.065046
C200	C	0.915142	0.276107	0.565046
H201	H	0.331128	-0.295922	0.117715
H202	H	0.831128	0.204078	0.617715
H203	H	0.398119	-0.339375	0.065110
H204	H	0.898119	0.160625	0.565110
H205	H	0.331256	-0.295964	0.012342
H206	H	0.831256	0.204036	0.512342
H207	H	0.449607	-0.221161	0.117758
H208	H	0.949607	0.278839	0.617758
H209	H	0.382692	-0.177850	0.064960
H210	H	0.882692	0.322150	0.564960
H211	H	0.597091	-0.212725	-0.000203
H212	H	1.097091	0.287275	0.499797
H213	H	0.153080	-0.206181	-0.000276
H214	H	0.653080	0.293819	0.499724
H215	H	0.495885	0.020111	-0.000194
H216	H	0.995885	0.520111	0.499806
O217	O	0.694645	0.683839	-0.000257
O218	O	1.194645	1.183839	0.499743
C219	C	0.568529	0.659254	-0.000181
C220	C	1.068529	1.159254	0.499819
C221	C	0.639141	0.628609	-0.000173
C222	C	1.139141	1.128609	0.499827
H223	H	0.523636	0.614615	-0.000097
H224	H	1.023636	1.114615	0.499903
H225	H	0.564804	0.692882	-0.052883
H226	H	1.064804	1.192882	0.447117
H227	H	0.564875	0.692958	0.052492
H228	H	1.064875	1.192958	0.552492
H229	H	0.642843	0.594873	-0.052811
H230	H	1.142843	1.094873	0.447189
H231	H	0.642836	0.595020	0.052564
H232	H	1.142836	1.095020	0.552564
O233	O	0.952204	0.273436	-0.000204
O234	O	1.452204	0.773436	0.499796
C235	C	1.078546	0.282656	-0.000265
C236	C	1.578546	0.782656	0.499735
C237	C	1.009117	0.233259	-0.000275
C238	C	1.509117	0.733259	0.499725
H239	H	1.124579	0.250193	-0.000339
H240	H	1.624579	0.750193	0.499661
H241	H	1.081259	0.317172	0.052433
H242	H	1.581259	0.817172	0.552433
H243	H	1.081197	0.317180	-0.052942
H244	H	1.581197	0.817180	0.447058
H245	H	1.006420	0.198692	0.052366
H246	H	1.506420	0.698692	0.552366
H247	H	1.006434	0.198791	-0.053009
H248	H	1.506434	0.698791	0.446991
H249	H	0.713281	0.103448	-0.000190
H250	H	1.213281	0.603448	0.499810
O251	O	0.696873	0.540327	-0.000109
O252	O	1.196873	1.040327	0.499891
C253	C	0.624199	0.448264	0.065159
C254	C	1.124199	0.948264	0.565159
C255	C	0.693590	0.497720	0.065112
C256	C	1.193590	0.997720	0.565112
H257	H	0.621515	0.413813	0.117892
H258	H	1.121515	0.913813	0.617892
H259	H	0.621520	0.413684	0.012510
H260	H	1.121520	0.913684	0.512510
H261	H	0.578163	0.480722	0.065131
H262	H	1.078163	0.980722	0.565131
H263	H	0.739665	0.465317	0.065166
H264	H	1.239665	0.965317	0.565166
H265	H	0.696208	0.532301	0.117756
H266	H	1.196208	1.032301	0.617756
O267	O	0.730616	-0.186952	0.336233
O268	O	1.230616	0.313048	0.836233
C269	C	0.689351	-0.308459	0.360502
C270	C	1.189351	0.191541	0.860502
C271	C	0.741736	-0.256069	0.316935
C272	C	1.241736	0.243931	0.816935
H273	H	0.698332	-0.364351	0.344928
H274	H	1.198332	0.135649	0.844928
H275	H	0.633444	-0.299553	0.344939
H276	H	1.133444	0.200447	0.844939
H277	H	0.697527	-0.300254	0.423941
H278	H	1.197527	0.199746	0.923941
H279	H	0.733624	-0.264243	0.253486
H280	H	1.233624	0.235757	0.753486
H281	H	0.797623	-0.264988	0.332561
H282	H	1.297623	0.235012	0.832561
H283	H	0.020970	-0.204232	-0.000295
H284	H	0.520970	0.295768	0.499705
O285	O	0.918375	0.000867	0.180161
O286	O	1.418375	0.500867	0.680161
C287	C	1.012876	0.095255	0.188504
C288	C	1.512876	0.595255	0.688504
C289	C	0.960487	0.042864	0.232065
C290	C	1.460487	0.542864	0.732065
H291	H	1.046946	0.129213	0.230449
H292	H	1.546946	0.629213	0.730449
H293	H	0.982875	0.130113	0.151452
H294	H	1.482875	0.630113	0.651452
H295	H	1.047624	0.065185	0.151353
H296	H	1.547624	0.565185	0.651353
H297	H	0.925725	0.072877	0.269257
H298	H	1.425725	0.572877	0.769257
H299	H	0.990531	0.008007	0.269069
H300	H	1.490531	0.508007	0.769069
H301	H	0.051874	0.026659	-0.000319
H302	H	0.551874	0.526659	0.499681
H303	H	0.738051	-0.179371	0.186322
H304	H	1.238051	0.320629	0.686322
H305	H	0.183988	0.024713	-0.000246
H306	H	0.683988	0.524713	0.499754
H307	H	0.937632	0.578372	-0.000259
H308	H	1.437632	1.078372	0.499741
H309	H	0.910910	-0.006684	0.813222
H310	H	1.410910	0.493316	1.313222
