data_functionalizedCrystal
_audit_creation_method	'MofGen! by Chris Wilmer'
_symmetry_space_group_name_H-M	'P1'
_symmetry_Int_Tables_number	1
_symmetry_cell_setting	triclinic
loop_
_symmetry_equiv_pos_as_xyz
  x,y,z
_cell_length_a	6.817900
_cell_length_b	19.453114
_cell_length_c	17.296766
_cell_angle_alpha	99.775157
_cell_angle_beta	102.621013
_cell_angle_gamma	101.709288
loop_
_atom_site_label
_atom_site_type_symbol
_atom_site_fract_x
_atom_site_fract_y
_atom_site_fract_z
V1	V	-4.007298	-0.226119	-0.111963
O2	O	-3.994722	-0.214543	0.004520
O3	O	-3.959389	-0.231567	-0.221177
O4	O	-3.950207	-0.321547	-0.110619
O5	O	-4.003969	-0.123940	-0.106804
V6	V	-4.491988	-0.213048	-0.097986
O7	O	-4.265995	-0.254792	-0.142624
O8	O	-4.683488	-0.184376	-0.067326
O9	O	-4.316690	-0.207601	0.011228
O10	O	-4.621960	-0.224625	-0.214469
O11	O	-4.612714	-0.315228	-0.103146
O12	O	-4.325872	-0.117621	-0.099331
C13	C	-3.804791	-0.229805	-0.247789
C14	C	-3.846849	-0.234895	-0.337075
C15	C	-3.832162	-0.172219	-0.367306
C16	C	-3.871700	-0.177004	-0.451201
C17	C	-3.925910	-0.244466	-0.504863
C18	C	-3.940602	-0.307147	-0.474627
C19	C	-3.901079	-0.302361	-0.390734
C20	C	-4.046980	-0.262171	-0.758751
C21	C	-4.086497	-0.266952	-0.842649
C22	C	-4.017595	-0.136809	-0.819216
C23	C	-3.978063	-0.132029	-0.735323
C24	C	-3.992769	-0.194710	-0.705095
C25	C	-3.966318	-0.249359	-0.590616
C26	C	-3.952375	-0.189817	-0.619343
C27	C	-3.793077	-0.344582	-0.106760
C28	C	-3.827685	-0.422640	-0.106383
C29	C	-4.025745	-0.463143	-0.110238
C30	C	-4.058264	-0.536487	-0.109884
C31	C	-3.892720	-0.569329	-0.105692
C32	C	-3.694630	-0.528816	-0.101832
C33	C	-3.662113	-0.455472	-0.102178
N34	N	-3.833168	-0.690816	-0.148108
N35	N	-3.864071	-0.760490	-0.147782
C36	C	-3.990682	-0.790311	-0.104648
N37	N	-4.085257	-0.747827	-0.061863
N38	N	-4.054358	-0.678147	-0.062193
C39	C	-3.927959	-0.648858	-0.105316
C40	C	-4.224014	-0.910341	-0.108118
C41	C	-4.256523	-0.983686	-0.107759
C42	C	-3.892888	-0.976016	-0.099715
C43	C	-3.860381	-0.902671	-0.100066
C44	C	-4.025953	-0.869839	-0.104271
C45	C	-4.134630	-0.209361	0.037835
C46	C	-4.071810	-0.204276	0.127121
C47	C	-4.146345	-0.094582	-0.103192
C48	C	-4.090975	-0.016523	-0.103565
H49	H	-4.058932	-0.313210	-0.734149
H50	H	-4.130633	-0.321890	-0.886340
H51	H	-4.358831	-0.883608	-0.111539
H52	H	-3.984757	-0.362076	-0.518326
H53	H	-4.005629	-0.085777	-0.843838
C54	C	-4.207859	-0.427028	-0.114849
H55	H	-4.330472	-0.461657	-0.117085
H56	H	-4.228063	-0.407980	-0.162228
H57	H	-4.177400	-0.389171	-0.068062
C58	C	-3.772530	-0.098012	-0.308281
H59	H	-3.751074	-0.104136	-0.253987
H60	H	-3.881163	-0.074469	-0.319842
H61	H	-3.648529	-0.069653	-0.314595
C62	C	-4.474398	-1.028239	-0.111997
H63	H	-4.568343	-0.998179	-0.114558
H64	H	-4.469331	-1.047600	-0.064949
H65	H	-4.519953	-1.066419	-0.159114
H66	H	-3.913062	-0.353399	-0.366123
H67	H	-3.758095	-1.002754	-0.096294
H68	H	-3.859742	-0.125967	-0.475810
H69	H	-3.908246	-0.134890	-0.575648
H70	H	-4.010459	-0.304286	-0.634317
H71	H	-3.933935	-0.077095	-0.691636
C72	C	-3.642519	-0.858119	-0.095839
H73	H	-3.548584	-0.888183	-0.093298
H74	H	-3.596947	-0.819938	-0.048728
H75	H	-3.647612	-0.838761	-0.142894
C76	C	-4.276138	-0.581052	-0.114128
H77	H	-4.271784	-0.629434	-0.113315
H78	H	-4.370827	-0.580016	-0.162919
H79	H	-4.320199	-0.561202	-0.068754
H80	H	-3.559845	-0.555561	-0.098416
H81	H	-3.500823	-0.422494	-0.099033
