data_functionalizedCrystal
_audit_creation_method	'MofGen! by Chris Wilmer'
_symmetry_space_group_name_H-M	'P1'
_symmetry_Int_Tables_number	1
_symmetry_cell_setting	triclinic
loop_
_symmetry_equiv_pos_as_xyz
  x,y,z
_cell_length_a	17.639617
_cell_length_b	29.839131
_cell_length_c	29.839126
_cell_angle_alpha	90.021998
_cell_angle_beta	101.249351
_cell_angle_gamma	101.225424
loop_
_atom_site_label
_atom_site_type_symbol
_atom_site_fract_x
_atom_site_fract_y
_atom_site_fract_z
Zn1	Zn	1.208578	-0.040257	0.393126
Zn2	Zn	1.708578	0.459743	0.893126
Zn3	Zn	1.208426	-0.115392	0.317979
Zn4	Zn	1.708426	0.384608	0.817979
Zn5	Zn	1.076357	-0.055427	0.302789
Zn6	Zn	1.576357	0.444573	0.802789
Zn7	Zn	1.076296	-0.130535	0.377871
Zn8	Zn	1.576296	0.369465	0.877871
O9	O	1.142414	-0.085403	0.347941
O10	O	1.642414	0.414597	0.847941
O11	O	1.319189	-0.037537	0.395899
O12	O	1.819189	0.462463	0.895899
O13	O	1.190869	-0.107449	0.253092
O14	O	1.690869	0.392551	0.753092
O15	O	1.093985	0.009463	0.314800
O16	O	1.593985	0.509463	0.814800
O17	O	1.319078	-0.092739	0.340689
O18	O	1.819078	0.407261	0.840689
O19	O	1.191127	0.020608	0.381170
O20	O	1.691127	0.520608	0.881170
O21	O	1.093838	-0.063393	0.241932
O22	O	1.593838	0.436607	0.741932
O23	O	0.965717	-0.078076	0.300007
O24	O	1.465717	0.421924	0.800007
O25	O	1.093882	-0.118548	0.442766
O26	O	1.593882	0.381452	0.942766
O27	O	0.965673	-0.133258	0.355169
O28	O	1.465673	0.366742	0.855169
O29	O	1.191068	-0.052221	0.453974
O30	O	1.691068	0.447779	0.953974
O31	O	1.190811	-0.180278	0.325896
O32	O	1.690811	0.319722	0.825896
O33	O	1.093735	-0.191403	0.369898
O34	O	1.593735	0.308597	0.869898
C35	C	0.937009	-0.108957	0.324284
C36	C	1.437009	0.391043	0.824284
C37	C	0.849136	-0.119044	0.314175
C38	C	1.349136	0.380956	0.814175
C39	C	0.560392	-0.008760	0.424854
C40	C	1.060392	0.491240	0.924854
C41	C	0.477822	-0.018250	0.415346
C42	C	0.977822	0.481750	0.915346
C43	C	0.477728	-0.075636	0.357772
C44	C	0.977728	0.424364	0.857772
C45	C	0.560300	-0.066152	0.367278
C46	C	1.060300	0.433848	0.867278
C47	C	0.601626	-0.032714	0.400819
C48	C	1.101626	0.467286	0.900819
C49	C	0.601534	-0.090106	0.343242
C50	C	1.101534	0.409894	0.843242
C51	C	0.684098	-0.080621	0.352745
C52	C	1.184098	0.419379	0.852745
C53	C	0.725430	-0.047183	0.386284
C54	C	1.225430	0.452817	0.886284
C55	C	0.684190	-0.023229	0.410322
C56	C	1.184190	0.476771	0.910322
C57	C	0.560207	-0.123542	0.309699
C58	C	1.060207	0.376458	0.809699
C59	C	0.601440	-0.147496	0.285663
C60	C	1.101440	0.352504	0.785663
C61	C	0.684006	-0.138013	0.295169
C62	C	1.184006	0.361987	0.795169
C63	C	0.725338	-0.104575	0.328707
C64	C	1.225338	0.395425	0.828707
C65	C	0.725246	-0.161968	0.271130
C66	C	1.225246	0.338032	0.771130
C67	C	0.807810	-0.152483	0.280634
C68	C	1.307810	0.347517	0.780634
C69	C	0.807902	-0.095091	0.338210
C70	C	1.307902	0.404909	0.838210
C71	C	1.142272	-0.202142	0.347902
C72	C	1.642272	0.297858	0.847902
C73	C	1.142283	-0.252075	0.347909
C74	C	1.642283	0.247925	0.847909
C75	C	1.193053	-0.555887	0.325082
C76	C	1.693053	-0.055887	0.825082
C77	C	1.193151	-0.743549	0.325110
C78	C	1.693151	-0.243549	0.825110
O79	O	1.236205	-0.762868	0.305671
O80	O	1.736205	-0.262868	0.805671
N81	N	1.142578	-0.772826	0.347994
N82	N	1.642578	-0.272826	0.847994
C83	C	1.091981	-0.755185	0.370874
C84	C	1.591981	-0.255185	0.870874
O85	O	1.048974	-0.784392	0.390343
O86	O	1.548974	-0.284392	0.890343
C87	C	1.091888	-0.567523	0.370848
C88	C	1.591888	-0.067523	0.870848
C89	C	1.142459	-0.538249	0.347959
C90	C	1.642459	-0.038249	0.847959
C91	C	1.243620	-0.526612	0.302195
C92	C	1.743620	-0.026612	0.802195
C93	C	1.243592	-0.479700	0.302186
C94	C	1.743592	0.020300	0.802186
C95	C	1.192997	-0.462062	0.325064
C96	C	1.692997	0.037938	0.825064
C97	C	1.142431	-0.491336	0.347950
C98	C	1.642431	0.008664	0.847950
C99	C	1.041296	-0.549883	0.393731
C100	C	1.541296	-0.049883	0.893731
C101	C	1.041278	-0.502964	0.393723
C102	C	1.541278	-0.002964	0.893723
C103	C	1.091849	-0.473689	0.370834
C104	C	1.591849	0.026311	0.870834
C105	C	1.091808	-0.426786	0.370819
C106	C	1.591808	0.073214	0.870819
N107	N	1.142381	-0.397509	0.347935
N108	N	1.642381	0.102491	0.847935
C109	C	1.192975	-0.415147	0.325058
C110	C	1.692975	0.084853	0.825058
C111	C	1.092033	-0.853710	0.370886
C112	C	1.592033	-0.353710	0.870886
C113	C	1.092055	-0.900625	0.370892
C114	C	1.592055	-0.400625	0.870892
C115	C	1.193226	-0.888985	0.325128
C116	C	1.693226	-0.388985	0.825128
C117	C	1.193199	-0.842070	0.325120
C118	C	1.693199	-0.342070	0.825120
C119	C	1.142605	-0.824432	0.348002
C120	C	1.642605	-0.324432	0.848002
C121	C	1.192912	-0.316628	0.325040
C122	C	1.692912	0.183372	0.825040
C123	C	1.192878	-0.269713	0.325031
C124	C	1.692878	0.230287	0.825031
C125	C	1.091710	-0.281356	0.370797
C126	C	1.591710	0.218644	0.870797
C127	C	1.091741	-0.328268	0.370803
C128	C	1.591741	0.171732	0.870803
C129	C	1.142349	-0.345902	0.347924
C130	C	1.642349	0.154098	0.847924
O131	O	1.048783	-0.407434	0.390252
O132	O	1.548783	0.092566	0.890252
O133	O	1.235989	-0.385931	0.305601
O134	O	1.735989	0.114069	0.805601
C135	C	1.193081	-0.602799	0.325091
C136	C	1.693081	-0.102799	0.825091
C137	C	1.142514	-0.632073	0.347977
C138	C	1.642514	-0.132073	0.847977
C139	C	1.091920	-0.614435	0.370855
C140	C	1.591920	-0.114435	0.870855
C141	C	1.142537	-0.678988	0.347983
C142	C	1.642537	-0.178988	0.847983
C143	C	1.193131	-0.696626	0.325106
C144	C	1.693131	-0.196626	0.825106
C145	C	1.243704	-0.667349	0.302222
C146	C	1.743704	-0.167349	0.802222
C147	C	1.243676	-0.620437	0.302213
C148	C	1.743676	-0.120437	0.802213
C149	C	1.041347	-0.643712	0.393738
C150	C	1.541347	-0.143712	0.893738
C151	C	1.041378	-0.690624	0.393745
C152	C	1.541378	-0.190624	0.893745
C153	C	1.091973	-0.708262	0.370867
C154	C	1.591973	-0.208262	0.870867
C155	C	1.348622	-0.061757	0.371690
C156	C	1.848622	0.438243	0.871690
C157	C	1.436495	-0.051680	0.381811
C158	C	1.936495	0.448320	0.881811
C159	C	1.142485	-0.085382	0.465128
C160	C	1.642485	0.414618	0.965128
C161	C	1.142515	-0.085373	0.515065
C162	C	1.642515	0.414627	1.015065
C163	C	1.142579	0.031795	0.347992
C164	C	1.642579	0.531795	0.847992
C165	C	1.142649	0.081737	0.348014
C166	C	1.642649	0.581737	0.848014
C167	C	1.142389	-0.085386	0.231216
C168	C	1.642389	0.414614	0.731216
C169	C	1.142512	-0.085251	0.181296
C170	C	1.642512	0.414749	0.681296
C171	C	1.193029	-0.108254	0.877466
C172	C	1.693029	0.391746	1.377466
C173	C	1.193030	-0.108285	0.689793
C174	C	1.693030	0.391715	1.189793
O175	O	1.235971	-0.127811	0.670469
O176	O	1.735971	0.372189	1.170469
N177	N	1.142512	-0.085351	0.660510
N178	N	1.642512	0.414649	1.160510
C179	C	1.091986	-0.062411	0.678148
C180	C	1.591986	0.437589	1.178148
O181	O	1.049011	-0.042909	0.648935
O182	O	1.549011	0.457091	1.148935
C183	C	1.091981	-0.062383	0.865820
C184	C	1.591981	0.437617	1.365820
C185	C	1.142509	-0.085314	0.895101
C186	C	1.642509	0.414686	1.395101
C187	C	1.243551	-0.131184	0.906746
C188	C	1.743551	0.368816	1.406746
C189	C	1.243554	-0.131174	0.953662
C190	C	1.743554	0.368826	1.453662
C191	C	1.193033	-0.108234	0.971297
C192	C	1.693033	0.391766	1.471297
C193	C	1.142511	-0.085304	0.942017
C194	C	1.642511	0.414696	1.442017
C195	C	1.041452	-0.039445	0.883457
C196	C	1.541452	0.460555	1.383457
C197	C	1.041454	-0.039441	0.930378
C198	C	1.541454	0.460559	1.430378
C199	C	1.091981	-0.062372	0.959659
C200	C	1.591981	0.437628	1.459659
C201	C	1.091993	-0.062354	1.006568
C202	C	1.591993	0.437646	1.506568
N203	N	1.142511	-0.085288	1.035850
N204	N	1.642511	0.414712	1.535850
C205	C	1.193031	-0.108228	1.018215
C206	C	1.693031	0.391772	1.518215
C207	C	1.091993	-0.062426	0.579618
C208	C	1.591993	0.437574	1.079618
C209	C	1.091995	-0.062433	0.532701
C210	C	1.591995	0.437567	1.032701
C211	C	1.193039	-0.108308	0.544348
C212	C	1.693039	0.391692	1.044348
C213	C	1.193040	-0.108299	0.591267
C214	C	1.693040	0.391701	1.091267
C215	C	1.142511	-0.085360	0.608901
C216	C	1.642511	0.414640	1.108901
C217	C	1.193033	-0.108204	1.116741
C218	C	1.693033	0.391796	1.616741
C219	C	1.193033	-0.108191	1.163660
C220	C	1.693033	0.391809	1.663660
C221	C	1.091987	-0.062318	1.152008
C222	C	1.591987	0.437682	1.652008
C223	C	1.091989	-0.062329	1.105093
C224	C	1.591989	0.437671	1.605093
C225	C	1.142515	-0.085276	1.087461
C226	C	1.642515	0.414724	1.587461
O227	O	1.049068	-0.042843	1.025922
O228	O	1.549068	0.457157	1.525922
O229	O	1.235987	-0.127735	1.047434
O230	O	1.735987	0.372265	1.547434
C231	C	1.193027	-0.108264	0.830550
C232	C	1.693027	0.391736	1.330550
C233	C	1.142504	-0.085334	0.801269
C234	C	1.642504	0.414666	1.301269
C235	C	1.091984	-0.062394	0.818905
C236	C	1.591984	0.437606	1.318905
C237	C	1.142506	-0.085341	0.754352
C238	C	1.642506	0.414659	1.254352
C239	C	1.193026	-0.108280	0.736716
C240	C	1.693026	0.391720	1.236716
C241	C	1.243545	-0.131214	0.765999
C242	C	1.743545	0.368786	1.265999
C243	C	1.243547	-0.131204	0.812915
C244	C	1.743547	0.368796	1.312915
C245	C	1.041465	-0.039461	0.789622
C246	C	1.541465	0.460539	1.289622
C247	C	1.041468	-0.039472	0.742707
C248	C	1.541468	0.460528	1.242707
C249	C	1.091988	-0.062412	0.725072
C250	C	1.591988	0.437588	1.225072
H251	H	0.594042	0.018467	0.452169
H252	H	1.094042	0.518467	0.952169
O253	O	0.848175	-0.062638	0.370794
O254	O	1.348175	0.437362	0.870794
C255	C	0.929890	-0.059396	0.374016
C256	C	1.429890	0.440604	0.874016
H257	H	0.941123	-0.092754	0.360530
H258	H	1.441123	0.407246	0.860530
H259	H	0.953320	-0.030022	0.352837
H260	H	1.453320	0.469978	0.852837
C261	C	0.958531	-0.009501	0.440925
C262	C	1.458531	0.490499	0.940925
C263	C	0.972328	-0.050474	0.424365
C264	C	1.472328	0.449526	0.924365
H265	H	0.984710	-0.003996	0.471982
H266	H	1.484710	0.496004	0.971982
H267	H	0.903478	-0.011684	0.438753
H268	H	1.403478	0.488316	0.938753
H269	H	0.978056	0.014972	0.423272
H270	H	1.478056	0.514972	0.923272
H271	H	0.952794	-0.074947	0.442014
H272	H	1.452794	0.425053	0.942014
H273	H	1.027378	-0.048295	0.426541
H274	H	1.527378	0.451705	0.926541
H275	H	0.567782	-0.174720	0.258353
H276	H	1.067782	0.325280	0.758353
H277	H	0.792659	-0.039460	0.394019
H278	H	1.292659	0.460540	0.894019
H279	H	1.234176	-0.126986	0.529982
H280	H	1.734176	0.373014	1.029982
O281	O	1.042886	-0.040100	0.596672
O282	O	1.542886	0.459900	1.096672
C283	C	0.998292	-0.019871	0.560760
C284	C	1.498292	0.480129	1.060760
H285	H	1.030684	-0.014611	0.531055
H286	H	1.530684	0.485389	1.031055
H287	H	0.938225	-0.043210	0.548834
H288	H	1.438225	0.456790	1.048834
C289	C	0.947178	0.020190	0.614252
C290	C	1.447178	0.520190	1.114252
C291	C	0.986966	0.026653	0.577769
C292	C	1.486966	0.526653	1.077769
H293	H	0.940188	0.048887	0.624744
H294	H	1.440188	0.548887	1.124744
H295	H	0.977219	0.006560	0.638447
H296	H	1.477219	0.506560	1.138447
H297	H	0.897127	0.000738	0.604309
H298	H	1.397127	0.500738	1.104309
H299	H	1.037020	0.046099	0.587714
H300	H	1.537020	0.546099	1.087714
H301	H	0.956933	0.040287	0.553576
H302	H	1.456933	0.540287	1.053576
H303	H	0.691586	-0.189190	0.243818
H304	H	1.191586	0.310810	0.743818
H305	H	1.284855	-0.596604	0.283575
H306	H	1.784855	-0.096604	0.783575
O307	O	0.992480	-0.017123	0.947568
O308	O	1.492480	0.482877	1.447568
C309	C	1.037525	0.017076	0.979901
C310	C	1.537525	0.517076	1.479901
H311	H	1.097418	0.008104	0.993838
H312	H	1.597418	0.508104	1.493838
H313	H	1.046253	0.051365	0.962831
H314	H	1.546253	0.551365	1.462831
C315	C	0.920472	0.031250	1.002333
C316	C	1.420472	0.531250	1.502333
C317	C	0.994031	0.020229	1.019454
C318	C	1.494031	0.520229	1.519454
H319	H	0.893643	0.033197	1.026730
H320	H	1.393643	0.533197	1.526730
H321	H	0.890123	0.008211	0.980549
H322	H	1.390123	0.508211	1.480549
H323	H	0.927756	0.059824	0.988108
H324	H	1.427756	0.559824	1.488108
H325	H	0.986746	-0.008347	1.033673
H326	H	1.486746	0.491653	1.533673
H327	H	1.024378	0.043263	1.041242
H328	H	1.524378	0.543263	1.541242
O329	O	0.724257	0.009218	0.442960
O330	O	1.224257	0.509218	0.942960
C331	C	0.704130	-0.002989	0.485401
C332	C	1.204130	0.497011	0.985401
H333	H	0.644167	-0.027144	0.479400
H334	H	1.144167	0.472856	0.979400
H335	H	0.750591	-0.020776	0.505833
H336	H	1.250591	0.479224	1.005833
C337	C	0.774034	0.070003	0.519640
C338	C	1.274034	0.570003	1.019640
C339	C	0.700382	0.040338	0.512269
C340	C	1.200382	0.540338	1.012269
H341	H	0.771725	0.096729	0.536214
H342	H	1.271725	0.596729	1.036214
H343	H	0.787596	0.078227	0.491047
H344	H	1.287596	0.578227	0.991047
H345	H	0.812743	0.055175	0.536664
H346	H	1.312743	0.555175	1.036664
H347	H	0.661677	0.055164	0.495240
H348	H	1.161677	0.555164	0.995240
H349	H	0.686813	0.032118	0.540859
H350	H	1.186813	0.532118	1.040859
H351	H	1.284773	-0.455867	0.283549
H352	H	1.784773	0.044133	0.783549
O353	O	1.242397	-0.906190	0.302977
O354	O	1.742397	-0.406190	0.802977
C355	C	1.231576	-0.953874	0.307900
C356	C	1.731576	-0.453874	0.807900
H357	H	1.205587	-0.963248	0.339551
H358	H	1.705587	-0.463248	0.839551
H359	H	1.189570	-0.972067	0.276374
H360	H	1.689570	-0.472067	0.776374
C361	C	1.343527	-0.957211	0.274235
C362	C	1.843527	-0.457211	0.774235
C363	C	1.311613	-0.968724	0.313112
C364	C	1.811613	-0.468724	0.813112
H365	H	1.392896	-0.966372	0.277448
H366	H	1.892896	-0.466372	0.777448
H367	H	1.350816	-0.925086	0.270916
H368	H	1.850816	-0.425086	0.770916
H369	H	1.308515	-0.972373	0.247968
H370	H	1.808515	-0.472373	0.747968
H371	H	1.346620	-0.953558	0.339378
H372	H	1.846620	-0.453558	0.839378
H373	H	1.304331	-1.000847	0.316435
H374	H	1.804331	-0.500847	0.816435
H375	H	1.234124	-0.330980	0.306411
H376	H	1.734124	0.169020	0.806411
H377	H	1.050856	-0.043650	1.081252
H378	H	1.550856	0.456350	1.581252
H379	H	1.284691	-0.149877	0.836752
H380	H	1.784691	0.350123	1.336752
O381	O	1.042801	-0.836659	0.393117
O382	O	1.542801	-0.336659	0.893117
C383	C	0.998187	-0.872564	0.413320
C384	C	1.498187	-0.372564	0.913320
H385	H	0.995494	-0.906326	0.394607
H386	H	1.495494	-0.406326	0.894607
H387	H	1.027107	-0.874205	0.450786
H388	H	1.527107	-0.374205	0.950786
C389	C	0.917333	-0.822493	0.433043
C390	C	1.417333	-0.322493	0.933043
C391	C	0.914020	-0.863960	0.410056
C392	C	1.414020	-0.363960	0.910056
H393	H	0.865415	-0.817185	0.431031
H394	H	1.365415	-0.317185	0.931031
H395	H	0.947392	-0.798303	0.419433
H396	H	1.447392	-0.298303	0.919433
H397	H	0.941436	-0.823866	0.464262
H398	H	1.441436	-0.323866	0.964262
H399	H	0.889926	-0.862584	0.378836
H400	H	1.389926	-0.362584	0.878836
H401	H	0.883955	-0.888150	0.423661
H402	H	1.383955	-0.388150	0.923661
H403	H	0.444253	0.001261	0.434919
H404	H	0.944253	0.501261	0.934919
H405	H	1.000306	-0.020773	0.859623
H406	H	1.500306	0.479227	1.359623
H407	H	1.000324	-0.020794	0.718870
H408	H	1.500324	0.479206	1.218870
H409	H	1.050856	-0.043639	1.166376
H410	H	1.550856	0.456361	1.666376
H411	H	1.284696	-0.149849	0.977498
H412	H	1.784696	0.350151	1.477498
O413	O	0.437545	-0.108169	0.325253
O414	O	0.937545	0.391831	0.825253
C415	C	0.389769	-0.142700	0.345280
C416	C	0.889769	0.357300	0.845280
H417	H	0.414677	-0.142662	0.383525
H418	H	0.914677	0.357338	0.883525
H419	H	0.327207	-0.135998	0.339651
H420	H	0.827207	0.364002	0.839651
C421	C	0.357851	-0.189572	0.276125
C422	C	0.857851	0.310428	0.776125
C423	C	0.388448	-0.189528	0.323098
C424	C	0.888448	0.310472	0.823098
H425	H	0.357032	-0.218458	0.262441
H426	H	0.857032	0.281542	0.762441
H427	H	0.390036	-0.166308	0.262632
H428	H	0.890036	0.333692	0.762632
H429	H	0.305719	-0.183985	0.271440
H430	H	0.805719	0.316015	0.771440
H431	H	0.440582	-0.195110	0.327782
H432	H	0.940582	0.304890	0.827782
H433	H	0.356271	-0.212795	0.336592
H434	H	0.856271	0.287205	0.836592
H435	H	1.000323	-0.020781	0.803975
H436	H	1.500323	0.479219	1.303975
H437	H	1.234180	-0.126886	1.102391
H438	H	1.734180	0.373114	1.602391
H439	H	0.841384	-0.171988	0.261061
H440	H	1.341384	0.328012	0.761061
H441	H	1.050868	-0.924458	0.389525
H442	H	1.550868	-0.424458	0.889525
H443	H	1.284898	-0.681718	0.283593
H444	H	1.784898	-0.181718	0.783593
O445	O	1.292796	-0.543669	0.279929
O446	O	1.792796	-0.043669	0.779929
C447	C	1.337430	-0.507760	0.259741
C448	C	1.837430	-0.007760	0.759741
H449	H	1.305026	-0.478054	0.254445
H450	H	1.805026	0.021946	0.754445
H451	H	1.397459	-0.495842	0.283131
H452	H	1.897459	0.004158	0.783131
C453	C	1.388668	-0.561250	0.219752
C454	C	1.888668	-0.061250	0.719752
C455	C	1.348865	-0.524766	0.213243
C456	C	1.848865	-0.024766	0.713243
H457	H	1.395725	-0.571740	0.191071
H458	H	1.895725	-0.071740	0.691071
H459	H	1.358599	-0.585443	0.233354
H460	H	1.858599	-0.085443	0.733354
H461	H	1.438688	-0.551313	0.239246
H462	H	1.938688	-0.051313	0.739246
H463	H	1.298843	-0.534704	0.193755
H464	H	1.798843	-0.034704	0.693755
H465	H	1.378926	-0.500575	0.199637
H466	H	1.878926	-0.000575	0.699637
H467	H	1.284692	-0.149866	0.892393
H468	H	1.784692	0.350134	1.392393
O469	O	1.242400	-0.813695	0.302882
O470	O	1.742400	-0.313695	0.802882
C471	C	1.287039	-0.839331	0.282681
C472	C	1.787039	-0.339331	0.782681
H473	H	1.289773	-0.872451	0.301403
H474	H	1.789773	-0.372451	0.801403
H475	H	1.258116	-0.847671	0.245218
H476	H	1.758116	-0.347671	0.745218
C477	C	1.367823	-0.770650	0.262936
C478	C	1.867823	-0.270650	0.762936
C479	C	1.371186	-0.811327	0.285933
C480	C	1.871186	-0.311327	0.785933
H481	H	1.419728	-0.753376	0.264940
H482	H	1.919728	-0.253376	0.764940
H483	H	1.337747	-0.753378	0.276544
H484	H	1.837747	-0.253378	0.776544
H485	H	1.343716	-0.777606	0.231719
H486	H	1.843716	-0.277606	0.731719
H487	H	1.395283	-0.804371	0.317151
H488	H	1.895283	-0.304371	0.817151
H489	H	1.401268	-0.828597	0.272330
H490	H	1.901268	-0.328597	0.772330
H491	H	0.492977	-0.131253	0.301953
H492	H	0.992977	0.368747	0.801953
O493	O	1.292506	-0.153560	0.748830
O494	O	1.792506	0.346440	1.248830
C495	C	1.247445	-0.187737	0.716479
C496	C	1.747445	0.312263	1.216479
H497	H	1.185180	-0.197650	0.723440
H498	H	1.685180	0.302350	1.223440
H499	H	1.244732	-0.174160	0.680612
H500	H	1.744732	0.325840	1.180612
C501	C	1.362476	-0.217845	0.711638
C502	C	1.862476	0.282155	1.211638
C503	C	1.286002	-0.230022	0.720190
C504	C	1.786002	0.269978	1.220190
H505	H	1.386261	-0.243928	0.713926
H506	H	1.886261	0.256072	1.213926
H507	H	1.392835	-0.194818	0.733432
H508	H	1.892835	0.305182	1.233432
H509	H	1.360205	-0.206530	0.681750
H510	H	1.860205	0.293470	1.181750
H511	H	1.288275	-0.241331	0.750080
H512	H	1.788275	0.258669	1.250080
H513	H	1.255644	-0.253052	0.698401
H514	H	1.755644	0.246948	1.198401
H515	H	1.000147	-0.629356	0.412369
H516	H	1.500147	-0.129356	0.912369
O517	O	0.992148	-0.578246	0.416007
O518	O	1.492148	-0.078246	0.916007
C519	C	0.947485	-0.552609	0.436188
C520	C	1.447485	-0.052609	0.936188
H521	H	0.979855	-0.515433	0.441475
H522	H	1.479855	-0.015433	0.941475
H523	H	0.887450	-0.554547	0.412797
H524	H	1.387450	-0.054547	0.912797
C525	C	0.896309	-0.617864	0.476193
C526	C	1.396309	-0.117864	0.976193
C527	C	0.936070	-0.572204	0.482691
C528	C	1.436070	-0.072204	0.982691
H529	H	0.889264	-0.629952	0.504878
H530	H	1.389264	-0.129952	1.004878
H531	H	0.926397	-0.635136	0.462596
H532	H	1.426397	-0.135136	0.962596
H533	H	0.846284	-0.619473	0.456700
H534	H	1.346284	-0.119473	0.956700
H535	H	0.986097	-0.570596	0.502179
H536	H	1.486097	-0.070596	1.002179
H537	H	0.905990	-0.554932	0.496292
H538	H	1.405990	-0.054932	0.996292
O539	O	0.992243	-0.485798	0.416012
O540	O	1.492243	0.014202	0.916012
C541	C	1.037215	-0.453450	0.450217
C542	C	1.537215	0.046550	0.950217
H543	H	1.099487	-0.460406	0.460192
H544	H	1.599487	0.039594	0.960192
H545	H	1.039926	-0.417586	0.436637
H546	H	1.539926	0.082414	0.936637
C547	C	0.922072	-0.448621	0.480199
C548	C	1.422072	0.051379	0.980199
C549	C	0.998555	-0.457168	0.492454
C550	C	1.498555	0.042832	0.992454
H551	H	0.898224	-0.450912	0.506252
H552	H	1.398224	0.049088	1.006252
H553	H	0.891773	-0.470413	0.457154
H554	H	1.391773	0.029587	0.957154
H555	H	0.924342	-0.418735	0.468882
H556	H	1.424342	0.081265	0.968882
H557	H	0.996283	-0.487055	0.503765
H558	H	1.496283	0.012945	1.003765
H559	H	1.028853	-0.435381	0.515502
H560	H	1.528853	0.064619	1.015502
H561	H	1.234181	-0.126864	1.187500
H562	H	1.734181	0.373136	1.687500
H563	H	1.234058	-0.245878	0.306391
H564	H	1.734058	0.254122	0.806391
O565	O	1.042682	-0.264182	0.393081
O566	O	1.542682	0.235818	0.893081
C567	C	1.087669	-0.231835	0.427283
C568	C	1.587669	0.268165	0.927283
H569	H	1.149937	-0.238800	0.437256
H570	H	1.649937	0.261200	0.937256
H571	H	1.090393	-0.195971	0.413699
H572	H	1.590393	0.304029	0.913699
C573	C	0.972541	-0.226984	0.457270
C574	C	1.472541	0.273016	0.957270
C575	C	1.049017	-0.235541	0.469522
C576	C	1.549017	0.264459	0.969522
H577	H	0.948698	-0.229268	0.483325
H578	H	1.448698	0.270732	0.983325
H579	H	0.942231	-0.248776	0.434227
H580	H	1.442231	0.251224	0.934227
H581	H	0.974821	-0.197098	0.445950
H582	H	1.474821	0.302902	0.945950
H583	H	1.046736	-0.265428	0.480836
H584	H	1.546736	0.234572	0.980836
H585	H	1.079326	-0.213754	0.492568
H586	H	1.579326	0.286246	0.992568
O587	O	0.992334	-0.719029	0.416055
O588	O	1.492334	-0.219029	0.916055
C589	C	1.009565	-0.705540	0.462818
C590	C	1.509565	-0.205540	0.962818
H591	H	1.072715	-0.685360	0.472381
H592	H	1.572715	-0.185360	0.972381
H593	H	0.967159	-0.683187	0.469653
H594	H	1.467159	-0.183187	0.969653
C595	C	0.922805	-0.773044	0.480004
C596	C	1.422805	-0.273044	0.980004
C597	C	1.000369	-0.748262	0.491750
C598	C	1.500369	-0.248262	0.991750
H599	H	0.917129	-0.799396	0.497851
H600	H	1.417129	-0.299396	0.997851
H601	H	0.911193	-0.782131	0.448499
H602	H	1.411193	-0.282131	0.948499
H603	H	0.887475	-0.754411	0.485700
H604	H	1.387475	-0.254411	0.985700
H605	H	1.035697	-0.766892	0.486049
H606	H	1.535697	-0.266892	0.986049
H607	H	1.011987	-0.739179	0.523256
H608	H	1.511987	-0.239179	1.023256
H609	H	1.050565	-0.352105	0.389443
H610	H	1.550565	0.147895	0.889443
H611	H	1.234184	-0.126971	0.615105
H612	H	1.734184	0.373029	1.115105
H613	H	1.050860	-0.043754	0.508865
H614	H	1.550860	0.456246	1.008865
