data_functionalizedCrystal
_audit_creation_method	'MofGen! by Chris Wilmer'
_symmetry_space_group_name_H-M	'P1'
_symmetry_Int_Tables_number	1
_symmetry_cell_setting	triclinic
loop_
_symmetry_equiv_pos_as_xyz
  x,y,z
_cell_length_a	19.288840
_cell_length_b	13.185407
_cell_length_c	18.366186
_cell_angle_alpha	89.992747
_cell_angle_beta	89.983729
_cell_angle_gamma	67.549750
loop_
_atom_site_label
_atom_site_type_symbol
_atom_site_fract_x
_atom_site_fract_y
_atom_site_fract_z
O1	O	0.896205	0.136038	-0.060666
O2	O	0.690539	0.154435	-0.060640
O3	O	0.828609	-0.013690	-0.060655
O4	O	0.758136	0.304163	-0.060651
O5	O	0.828592	-0.013698	0.060444
O6	O	0.690523	0.154427	0.060459
O7	O	0.896188	0.136030	0.060433
Zn8	Zn	0.793353	0.145227	0.079673
Zn9	Zn	0.793375	0.145238	-0.079880
O10	O	0.758119	0.304155	0.060448
C11	C	0.664763	0.153844	-0.000087
C12	C	0.587985	0.152080	-0.000078
C13	C	0.551947	0.151238	-0.066091
C14	C	0.479808	0.149569	-0.066100
C15	C	0.443717	0.148720	-0.000092
C16	C	0.479762	0.149569	0.065930
C17	C	0.551895	0.151249	0.065937
C18	C	0.346699	0.082121	0.050469
C19	C	0.274568	0.080434	0.050459
C20	C	0.221230	0.143544	-0.000111
C21	C	0.240037	0.208327	-0.050683
C22	C	0.312170	0.210007	-0.050676
C23	C	0.365499	0.146900	-0.000092
C24	C	0.106972	0.140893	-0.066138
C25	C	0.034830	0.139231	-0.066144
C26	C	0.034788	0.139220	0.065887
C27	C	0.106925	0.140894	0.065892
C28	C	0.143014	0.141725	-0.000123
C29	C	0.835745	-0.054359	-0.000107
C30	C	0.857025	-0.175527	-0.000113
C31	C	0.653936	-0.463755	-0.000094
C32	C	0.633940	-0.349912	-0.000096
C33	C	0.689709	-0.306310	-0.000100
C34	C	0.765478	-0.376563	-0.000102
C35	C	0.785476	-0.490418	-0.000105
C36	C	0.821250	-0.332972	-0.000112
C37	C	0.897018	-0.403225	-0.000114
C38	C	0.917013	-0.517069	-0.000117
C39	C	0.861243	-0.560671	-0.000113
C40	C	0.801252	-0.219117	-0.000108
C41	C	0.932792	-0.245780	-0.000120
C42	C	0.952788	-0.359623	-0.000118
C43	C	0.921965	0.136621	-0.000121
C44	C	0.998743	0.138384	-0.000136
C45	C	0.750983	0.344824	-0.000101
C46	C	0.729703	0.465992	-0.000101
N47	N	0.793343	0.145219	0.188564
N48	N	0.793392	0.145237	-0.188772
C49	C	0.854489	0.070809	0.226658
C50	C	0.854494	0.070805	0.302886
C51	C	0.793357	0.145228	0.341017
C52	C	0.732201	0.219643	0.302914
C53	C	0.732194	0.219639	0.226688
C54	C	0.765665	0.244686	0.461779
C55	C	0.765676	0.244692	0.538004
C56	C	0.793374	0.145242	0.576125
C57	C	0.821076	0.045781	0.538011
C58	C	0.821069	0.045777	0.461784
C59	C	0.793357	0.145241	0.423672
C60	C	0.854529	0.070821	0.696873
C61	C	0.854530	0.070814	0.773103
C62	C	0.732239	0.219662	0.773129
C63	C	0.732236	0.219659	0.696901
C64	C	0.793385	0.145240	0.658778
H65	H	0.581237	0.151937	0.119695
H66	H	0.572249	-0.292719	-0.000096
H67	H	0.136354	0.141581	-0.119891
H68	H	0.682458	0.280255	0.804175
H69	H	0.739560	-0.161928	-0.000106
Br70	Br	1.008484	-0.186616	-0.000132
Br71	Br	0.649224	0.320640	0.354660
H72	H	0.450370	0.148881	0.119674
H73	H	0.843623	-0.035207	0.430755
Br74	Br	0.662571	-0.151805	-0.000103
H75	H	0.196608	0.259721	-0.091859
Br76	Br	0.649251	0.320651	0.645197
Br77	Br	0.155838	0.142034	0.155486
H78	H	0.978708	-0.574267	-0.000126
H79	H	0.005488	0.138551	-0.119902
H80	H	0.390123	0.030726	0.091652
Br81	Br	0.858677	-0.089197	0.589735
H82	H	0.904321	0.010215	0.804119
H83	H	0.608537	-0.499268	-0.000096
Br84	Br	0.888378	-0.715179	-0.000102
Br85	Br	1.055614	-0.454978	-0.000117
Br86	Br	0.249045	-0.007457	0.119106
Br87	Br	0.937472	-0.030189	0.174919
Br88	Br	0.937484	-0.030190	0.354594
Br89	Br	0.937514	-0.030180	0.645133
H90	H	0.743124	0.325678	0.569031
Br91	Br	0.728141	0.379669	0.410052
H92	H	0.682401	0.280233	0.195671
H93	H	0.581326	0.151915	-0.119845
H94	H	0.327478	0.262757	-0.091852
Br95	Br	0.430888	0.148428	-0.155695
H96	H	0.005401	0.138536	0.119632
