data_functionalizedCrystal
_audit_creation_method	'MofGen! by Chris Wilmer'
_symmetry_space_group_name_H-M	'P1'
_symmetry_Int_Tables_number	1
_symmetry_cell_setting	triclinic
loop_
_symmetry_equiv_pos_as_xyz
  x,y,z
_cell_length_a	15.944551
_cell_length_b	14.971486
_cell_length_c	14.048226
_cell_angle_alpha	90.006640
_cell_angle_beta	90.001970
_cell_angle_gamma	83.556433
loop_
_atom_site_label
_atom_site_type_symbol
_atom_site_fract_x
_atom_site_fract_y
_atom_site_fract_z
O1	O	-1.114636	-0.115362	-0.079062
O2	O	-0.870100	-0.129584	-0.079086
O3	O	-0.998922	0.007734	-0.079066
O4	O	-0.985814	-0.252680	-0.079081
O5	O	-0.998907	0.007742	0.079255
O6	O	-0.870085	-0.129576	0.079236
O7	O	-1.114621	-0.115354	0.079260
Zn8	Zn	-0.992350	-0.122464	0.104385
Zn9	Zn	-0.992371	-0.122474	-0.104211
O10	O	-0.985798	-0.252672	0.079240
C11	C	-0.998328	0.041062	0.000094
C12	C	-0.996572	0.140357	0.000093
C13	C	-0.838798	-0.128990	0.000072
C14	C	-0.745550	-0.127220	0.000063
C15	C	-1.145923	-0.115948	0.000100
C16	C	-1.239171	-0.117718	0.000102
C17	C	-0.530608	-0.037872	0.000087
C18	C	-0.469635	-0.079366	-0.077976
C19	C	-0.574821	-0.124017	0.000075
C20	C	-0.469642	-0.079379	0.078116
C21	C	-0.409905	-0.120918	0.000090
C22	C	-0.515076	-0.165535	-0.078053
C23	C	-0.515090	-0.165535	0.078110
C24	C	-0.454134	-0.207092	0.000027
C25	C	-0.669825	-0.125801	0.000065
C26	C	-0.314903	-0.119141	0.000093
C27	C	-0.986392	-0.286000	0.000078
C28	C	-0.988149	-0.385295	0.000073
N29	N	-0.992342	-0.122456	0.246745
C30	C	-1.072251	0.197664	0.000101
C31	C	-1.070595	0.290962	0.000091
C32	C	-0.993259	0.326951	0.000080
C33	C	-0.917574	0.269637	0.000069
C34	C	-0.919230	0.176341	0.000072
C35	C	-0.914127	0.464095	0.000066
C36	C	-0.912470	0.557398	0.000065
C37	C	-1.065491	0.578717	0.000085
C38	C	-1.067148	0.485421	0.000088
C39	C	-0.991462	0.428113	0.000078
N40	N	-0.992385	-0.122475	-0.246571
C41	C	-1.049403	-0.061676	0.296572
C42	C	-1.049408	-0.061676	0.396230
C43	C	-0.992357	-0.122460	0.446059
C44	C	-0.935290	-0.183242	0.396225
C45	C	-0.935281	-0.183238	0.296569
C46	C	-0.935315	-0.183249	0.603939
C47	C	-0.935325	-0.183255	0.703602
C48	C	-1.049442	-0.061687	0.703600
C49	C	-1.049433	-0.061682	0.603944
C50	C	-0.992367	-0.122466	0.554117
H51	H	-0.563873	0.033621	-0.000006
Br52	Br	-0.436095	-0.018621	0.188111
Br53	Br	-0.436073	-0.018649	-0.187973
H54	H	-1.135227	0.168370	0.000116
H55	H	-0.888867	-0.232750	0.744168
Br56	Br	-1.168208	0.656490	0.000095
Br57	Br	-0.812616	0.318477	0.000039
Br58	Br	-1.173308	0.368733	0.000102
H59	H	-1.095864	-0.012183	0.256007
H60	H	-0.535105	-0.201947	-0.144121
Br61	Br	-1.172105	0.436579	0.000100
H62	H	-0.849496	0.586696	0.000071
Br63	Br	-0.811409	0.386320	0.000050
Br64	Br	-0.816518	0.098565	0.000054
Br65	Br	-1.126846	0.020815	0.463855
Br66	Br	-1.126866	0.020802	0.536315
H67	H	-0.421044	-0.278659	-0.000020
H68	H	-1.095906	-0.012195	0.744174
H69	H	-0.888843	-0.232743	0.563374
Br70	Br	-0.857855	-0.265731	0.463847
H71	H	-0.535249	-0.201938	0.144106
Br72	Br	-0.857833	-0.265722	0.228947
