data_functionalizedCrystal
_audit_creation_method	'MofGen! by Chris Wilmer'
_symmetry_space_group_name_H-M	'P1'
_symmetry_Int_Tables_number	1
_symmetry_cell_setting	triclinic
loop_
_symmetry_equiv_pos_as_xyz
  x,y,z
_cell_length_a	19.805407
_cell_length_b	12.759394
_cell_length_c	19.805399
_cell_angle_alpha	89.974626
_cell_angle_beta	89.983114
_cell_angle_gamma	90.014837
loop_
_atom_site_label
_atom_site_type_symbol
_atom_site_fract_x
_atom_site_fract_y
_atom_site_fract_z
Zn1	Zn	1.034772	-0.418276	-0.382737
Zn2	Zn	1.034715	-0.593974	-0.269556
Zn3	Zn	0.921592	-0.418310	-0.269561
Zn4	Zn	0.921573	-0.593914	-0.382702
O5	O	0.978163	-0.506118	-0.326139
O6	O	1.129481	-0.441594	-0.367735
O7	O	1.019693	-0.570711	-0.174840
O8	O	0.936637	-0.271284	-0.284591
O9	O	1.129439	-0.570679	-0.284581
O10	O	1.019790	-0.271260	-0.367740
O11	O	0.936582	-0.441651	-0.174844
O12	O	0.826873	-0.441593	-0.284558
O13	O	0.936605	-0.570576	-0.477423
O14	O	0.826859	-0.570608	-0.367682
O15	O	1.019772	-0.441536	-0.477449
O16	O	1.019675	-0.740987	-0.284548
O17	O	0.936550	-0.740943	-0.367676
C18	C	0.802307	-0.506098	-0.326117
C19	C	0.727075	-0.506115	-0.326124
C20	C	0.691741	-0.573395	-0.369336
C21	C	0.621053	-0.573396	-0.369346
C22	C	0.585700	-0.506123	-0.326139
C23	C	0.621038	-0.438836	-0.282924
C24	C	0.691725	-0.438830	-0.282919
C25	C	0.335965	-0.438859	-0.282947
C26	C	0.265273	-0.438873	-0.282954
C27	C	0.265293	-0.573426	-0.369374
C28	C	0.335980	-0.573420	-0.369368
C29	C	0.371312	-0.506129	-0.326157
C30	C	0.447961	-0.506127	-0.326148
C31	C	0.509052	-0.506130	-0.326144
C32	C	0.978123	-0.779086	-0.326123
C33	C	0.978167	-0.895863	-0.326138
C34	C	1.064790	-0.895855	-0.239641
C35	C	1.108119	-0.950712	-0.196401
C36	C	1.108159	-1.060434	-0.196419
C37	C	1.064866	-1.115301	-0.239684
C38	C	1.021537	-1.060444	-0.282925
C39	C	1.021501	-0.950720	-0.282900
C40	C	0.934919	-1.060451	-0.369424
C41	C	0.934874	-0.950730	-0.369403
C42	C	0.891626	-1.115318	-0.412689
C43	C	0.848292	-1.060461	-0.455927
C44	C	0.848254	-0.950733	-0.455906
C45	C	0.891545	-0.895872	-0.412644
C46	C	1.154706	-0.506139	-0.326161
C47	C	1.229938	-0.506148	-0.326171
C48	C	0.978193	-0.506046	-0.502682
C49	C	0.978205	-0.506014	-0.577914
C50	C	0.978222	-0.232085	-0.326170
C51	C	0.978248	-0.115308	-0.326183
C52	C	0.934942	-0.438807	-0.613260
C53	C	0.934951	-0.438786	-0.683948
C54	C	0.978228	-0.505969	-0.719289
C55	C	1.021494	-0.573184	-0.683939
C56	C	1.021480	-0.573209	-0.613251
C57	C	1.021547	-0.573086	-0.969012
C58	C	1.021559	-0.573054	-1.039704
C59	C	0.935018	-0.438663	-1.039709
C60	C	0.935005	-0.438688	-0.969022
C61	C	0.978268	-0.505907	-0.933677
C62	C	0.978256	-0.505929	-0.857028
C63	C	0.978243	-0.505942	-0.795937
C64	C	0.978173	-0.506115	-0.150283
C65	C	0.978291	-0.505850	-0.075051
H66	H	0.592248	-0.384057	-0.247747
F67	F	0.888971	-0.367125	-1.077331
H68	H	1.143369	-0.906030	-0.161176
H69	H	1.143444	-1.105098	-0.161213
F70	F	1.064686	-1.232076	-0.239477
F71	F	1.067548	-0.644692	-0.721553
H72	H	1.056801	-0.627766	-1.068477
H73	H	0.720493	-0.384038	-0.247734
F74	F	0.227684	-0.645042	-0.415365
F75	F	0.227648	-0.367267	-0.236966
H76	H	1.064753	-0.806514	-0.239613
H77	H	0.812973	-0.906074	-0.491120
H78	H	0.899767	-0.383977	-0.940250
H79	H	0.364724	-0.384075	-0.247756
F80	F	0.888879	-0.367293	-0.721563
H81	H	0.891514	-0.806531	-0.412618
H82	H	0.891664	-1.204659	-0.412704
H83	H	0.813050	-1.105142	-0.491153
H84	H	1.056767	-0.627831	-0.940243
F85	F	0.888883	-0.367295	-0.575653
H86	H	1.056715	-0.627929	-0.584474
H87	H	0.592287	-0.628183	-0.404534
F88	F	0.373602	-0.645025	-0.415353
F89	F	0.729361	-0.645002	-0.415321
