data_functionalizedCrystal
_audit_creation_method	'MofGen! by Chris Wilmer'
_symmetry_space_group_name_H-M	'P1'
_symmetry_Int_Tables_number	1
_symmetry_cell_setting	triclinic
loop_
_symmetry_equiv_pos_as_xyz
  x,y,z
_cell_length_a	6.394989
_cell_length_b	16.109301
_cell_length_c	14.586319
_cell_angle_alpha	90.000787
_cell_angle_beta	89.999285
_cell_angle_gamma	95.020404
loop_
_atom_site_label
_atom_site_type_symbol
_atom_site_fract_x
_atom_site_fract_y
_atom_site_fract_z
O1	O	0.268480	-1.105973	-0.076176
O2	O	0.301892	-0.864265	-0.076190
O3	O	-0.018881	-0.988550	-0.076184
O4	O	0.589253	-0.981688	-0.076182
O5	O	-0.018885	-0.988541	0.076297
O6	O	0.301887	-0.864256	0.076291
O7	O	0.268475	-1.105964	0.076305
Cu8	Cu	0.285181	-0.985109	0.090221
Cu9	Cu	0.285186	-0.985120	-0.090106
O10	O	0.589248	-0.981679	0.076299
C11	C	0.300536	-0.833271	0.000049
C12	C	0.296479	-0.740933	0.000043
C13	C	0.667071	-0.983040	0.000054
C14	C	0.903303	-0.987186	0.000052
C15	C	0.269831	-1.136958	0.000064
C16	C	0.273889	-1.229296	0.000064
N17	N	0.285176	-0.985108	0.217052
N18	N	0.285175	-0.985127	-0.216937
C19	C	0.477384	-0.520575	0.000054
C20	C	0.473555	-0.433814	0.000060
C21	C	0.092969	-0.449660	0.000055
C22	C	0.096800	-0.536419	0.000056
C23	C	0.289014	-0.571874	0.000051
C24	C	0.281354	-0.398354	0.000056
C25	C	0.277201	-0.304284	0.000062
C26	C	0.293168	-0.665950	0.000046
C27	C	0.143185	-1.040160	0.452061
C28	C	0.143180	-1.040163	0.548043
C29	C	0.427172	-0.930069	0.548047
C30	C	0.427166	-0.930063	0.452067
C31	C	0.285175	-0.985113	0.404077
C32	C	0.285176	-0.985122	0.596038
C33	C	0.285172	-0.985124	0.700105
C34	C	0.285176	-0.985110	0.300003
H35	H	0.633896	-0.549440	0.000057
O36	O	0.004919	-1.093542	0.405505
C37	C	-0.201824	-1.077853	0.429012
H38	H	-0.202826	-1.011274	0.455388
H39	H	-0.306710	-1.086318	0.365912
H40	H	-0.263114	-1.123277	0.484741
O41	O	0.656402	-0.383898	-0.000064
C42	C	0.665599	-0.333253	-0.079046
H43	H	0.499810	-0.327131	-0.105372
H44	H	0.743450	-0.268892	-0.061285
H45	H	0.760974	-0.362782	-0.134347
H46	H	-0.063525	-0.420781	0.000065
O47	O	-0.086251	-0.586222	-0.000111
C48	C	-0.202970	-0.569832	-0.079073
H49	H	-0.092681	-0.541346	-0.134269
H50	H	-0.286756	-0.630484	-0.105580
H51	H	-0.323853	-0.524414	-0.061221
H52	H	0.027557	-1.084986	0.587109
H53	H	0.542782	-0.885249	0.587130
O54	O	0.565307	-0.876559	0.405591
C55	C	0.690610	-0.827962	0.468527
H56	H	0.693010	-0.862074	0.536943
H57	H	0.857406	-0.817023	0.440788
H58	H	0.622743	-0.765493	0.478742
