data_functionalizedCrystal
_audit_creation_method	'MofGen! by Chris Wilmer'
_symmetry_space_group_name_H-M	'P1'
_symmetry_Int_Tables_number	1
_symmetry_cell_setting	triclinic
loop_
_symmetry_equiv_pos_as_xyz
  x,y,z
_cell_length_a	11.026607
_cell_length_b	11.792241
_cell_length_c	9.482900
_cell_angle_alpha	99.398500
_cell_angle_beta	78.636152
_cell_angle_gamma	96.389716
loop_
_atom_site_label
_atom_site_type_symbol
_atom_site_fract_x
_atom_site_fract_y
_atom_site_fract_z
O1	O	1.632118	0.461983	-0.120906
O2	O	2.132118	0.961983	0.379094
O3	O	1.278456	0.407791	-0.120907
O4	O	1.778456	0.907791	0.379093
O5	O	1.463868	0.271422	-0.120897
O6	O	1.963868	0.771422	0.379103
O7	O	1.446706	0.598353	-0.120917
O8	O	1.946706	1.098353	0.379083
O9	O	1.426207	0.299264	0.120894
O10	O	1.926207	0.799264	0.620894
O11	O	1.240795	0.435633	0.120883
O12	O	1.740795	0.935633	0.620883
O13	O	1.594458	0.489825	0.120884
O14	O	2.094458	0.989825	0.620884
Cu15	Cu	1.414188	0.465271	0.142961
Cu16	Cu	1.914188	0.965271	0.642961
Cu17	Cu	1.458726	0.432345	-0.142984
Cu18	Cu	1.958726	0.932345	0.357016
O19	O	1.409046	0.626195	0.120873
O20	O	1.909046	1.126195	0.620873
C21	C	1.214349	0.411715	-0.000012
C22	C	1.714349	0.911715	0.499988
C23	C	1.079439	0.381912	-0.000012
C24	C	1.579439	0.881912	0.499988
C25	C	1.006176	0.464202	-0.000018
C26	C	1.506176	0.964202	0.499982
C27	C	0.866739	0.433401	-0.000018
C28	C	1.366739	0.933401	0.499982
C29	C	1.443960	0.242838	-0.000002
C30	C	1.943960	0.742838	0.499998
C31	C	1.440733	0.116183	-0.000003
C32	C	1.940733	0.616183	0.499997
C33	C	1.434802	-0.115710	-0.000028
C34	C	1.934802	0.384290	0.499972
C35	C	1.438097	0.013331	-0.000014
C36	C	1.938097	0.513331	0.499986
C37	C	1.658565	0.485901	-0.000014
C38	C	2.158565	0.985901	0.499986
C39	C	1.793477	0.515703	-0.000024
C40	C	2.293477	1.015703	0.499976
C41	C	1.428955	0.654778	-0.000025
C42	C	1.928955	1.154778	0.499975
C43	C	1.432183	0.781432	-0.000033
C44	C	1.932183	1.281432	0.499967
N45	N	1.382871	0.488431	0.344079
N46	N	1.882871	0.988431	0.844079
N47	N	1.490052	0.409178	-0.344102
N48	N	1.990052	0.909178	0.155898
C49	C	1.449480	0.439169	0.416282
C50	C	1.949480	0.939169	0.916282
C51	C	1.423433	0.458448	0.583698
C52	C	1.923433	0.958448	1.083698
H53	H	1.525786	0.382714	0.354159
H54	H	2.025786	0.882714	0.854159
O55	O	0.818416	0.322128	-0.000271
O56	O	1.318416	0.822128	0.499729
C57	C	0.765374	0.285589	-0.125477
C58	C	1.265374	0.785589	0.374523
H59	H	0.809461	0.340996	-0.213005
H60	H	1.309461	0.840996	0.286995
H61	H	0.782564	0.191453	-0.167507
H62	H	1.282564	0.691453	0.332493
H63	H	0.661210	0.294770	-0.097164
H64	H	1.161210	0.794770	0.402836
H65	H	1.566362	0.352721	0.593777
H66	H	2.066362	0.852721	1.093777
H67	H	1.347114	0.514896	0.645818
H68	H	1.847114	1.014896	1.145818
H69	H	1.306557	0.544875	0.406205
H70	H	1.806557	1.044875	0.906205
H71	H	1.046680	0.557456	-0.000015
H72	H	1.546680	1.057456	0.499985
H73	H	1.038939	0.288655	-0.000043
H74	H	1.538939	0.788655	0.499957
O75	O	0.841872	0.626917	-0.000306
O76	O	1.341872	1.126917	0.499694
C77	C	0.933909	0.634614	-0.125522
C78	C	1.433909	1.134614	0.374478
H79	H	0.917090	0.559036	-0.213027
H80	H	1.417090	1.059036	0.286973
H81	H	0.929800	0.719058	-0.167583
H82	H	1.429800	1.219058	0.332417
H83	H	1.029258	0.631971	-0.097211
H84	H	1.529258	1.131971	0.402789
