data_functionalizedCrystal
_audit_creation_method	'MofGen! by Chris Wilmer'
_symmetry_space_group_name_H-M	'P1'
_symmetry_Int_Tables_number	1
_symmetry_cell_setting	triclinic
loop_
_symmetry_equiv_pos_as_xyz
  x,y,z
_cell_length_a	10.489741
_cell_length_b	10.654550
_cell_length_c	9.130313
_cell_angle_alpha	89.998741
_cell_angle_beta	89.998961
_cell_angle_gamma	95.487948
loop_
_atom_site_label
_atom_site_type_symbol
_atom_site_fract_x
_atom_site_fract_y
_atom_site_fract_z
O1	O	-1.693967	0.177189	0.121694
O2	O	-1.193967	0.677189	0.621694
O3	O	-1.322763	0.193821	0.121715
O4	O	-0.822763	0.693821	0.621715
O5	O	-1.516900	0.002770	0.121710
O6	O	-1.016900	0.502770	0.621710
O7	O	-1.499830	0.368240	0.121699
O8	O	-0.999830	0.868240	0.621699
O9	O	-1.516885	0.002770	-0.121889
O10	O	-1.016885	0.502770	0.378111
O11	O	-1.322749	0.193821	-0.121884
O12	O	-0.822749	0.693821	0.378116
O13	O	-1.693952	0.177189	-0.121905
O14	O	-1.193952	0.677189	0.378095
Cu15	Cu	-1.508349	0.185505	-0.144137
Cu16	Cu	-1.008349	0.685505	0.355863
Cu17	Cu	-1.508366	0.185505	0.143947
Cu18	Cu	-1.008366	0.685505	0.643947
O19	O	-1.499816	0.368241	-0.121900
O20	O	-0.999816	0.868241	0.378100
C21	C	-1.275225	0.192565	-0.000082
C22	C	-0.775225	0.692565	0.499918
C23	C	-1.133597	0.188807	-0.000073
C24	C	-0.633597	0.688807	0.499927
C25	C	-1.741491	0.178445	-0.000106
C26	C	-1.241491	0.678445	0.499894
C27	C	-1.883118	0.182204	-0.000105
C28	C	-1.383118	0.682204	0.499895
C29	C	-1.515639	-0.044029	-0.000085
C30	C	-1.015639	0.455971	0.499915
C31	C	-1.511889	-0.183474	-0.000071
C32	C	-1.011889	0.316526	0.499929
C33	C	-1.065516	0.067246	-0.000083
C34	C	-0.565516	0.567246	0.499917
C35	C	-0.973369	0.124670	0.120019
C36	C	-0.473369	0.624670	0.620019
C37	C	-0.973388	0.124699	-0.120150
C38	C	-0.473388	0.624699	0.379850
C39	C	-1.043315	0.246281	0.120129
C40	C	-0.543315	0.746281	0.620129
C41	C	-1.043344	0.246293	-0.120149
C42	C	-0.543344	0.746293	0.379851
C43	C	-0.951224	0.303805	-0.000017
C44	C	-0.451224	0.803805	0.499983
C45	C	-1.501076	0.415039	-0.000102
C46	C	-1.001076	0.915039	0.499898
C47	C	-1.504826	0.554484	-0.000107
C48	C	-1.004826	1.054484	0.499893
N49	N	-1.508346	0.185505	-0.346760
N50	N	-1.008346	0.685505	0.153240
C51	C	-1.390522	0.633916	-0.000097
C52	C	-0.890522	1.133916	0.499903
C53	C	-1.394053	0.764939	-0.000073
C54	C	-0.894053	1.264939	0.499927
C55	C	-1.626203	0.737084	-0.000076
C56	C	-1.126203	1.237084	0.499924
C57	C	-1.622670	0.606064	-0.000089
C58	C	-1.122670	1.106064	0.499911
C59	C	-1.586381	0.262423	-0.423413
C60	C	-1.086381	0.762423	0.076587
C61	C	-1.586401	0.262416	-0.576750
C62	C	-1.086401	0.762416	-0.076750
C63	C	-1.430342	0.108569	-0.576766
C64	C	-0.930342	0.608569	-0.076766
C65	C	-1.430329	0.108570	-0.423432
C66	C	-0.930329	0.608570	0.076568
N67	N	-1.508379	0.185496	0.346569
N68	N	-1.008379	0.685496	0.846569
H69	H	-1.115254	-0.032684	0.000070
H70	H	-0.615254	0.467316	0.500070
F71	F	-1.347308	0.026701	-0.658379
F72	F	-0.847308	0.526701	-0.158379
H73	H	-1.300974	0.829608	-0.000063
H74	H	-0.800974	1.329608	0.499937
H75	H	-1.074359	0.297686	-0.221696
H76	H	-0.574359	0.797686	0.278304
F77	F	-0.932924	0.057445	-0.252869
F78	F	-0.432924	0.557445	0.247131
H79	H	-0.901752	0.403841	0.000045
H80	H	-0.401752	0.903841	0.500045
H81	H	-1.294566	0.591924	-0.000116
H82	H	-0.794566	1.091924	0.499884
F83	F	-1.751614	0.791991	-0.000062
F84	F	-1.251614	1.291991	0.499938
H85	H	-1.366782	0.045927	-0.361019
H86	H	-0.866782	0.545927	0.138981
H87	H	-1.715757	0.541387	-0.000092
H88	H	-1.215757	1.041387	0.499908
F89	F	-1.669421	0.344296	-0.341818
F90	F	-1.169421	0.844296	0.158182
H91	H	-1.649947	0.325049	-0.639155
H92	H	-1.149947	0.825049	-0.139155
H93	H	-1.074125	0.297676	0.221780
H94	H	-0.574125	0.797676	0.721780
F95	F	-0.932873	0.057445	0.252746
F96	F	-0.432873	0.557445	0.752746
