data_functionalizedCrystal
_audit_creation_method	'MofGen! by Chris Wilmer'
_symmetry_space_group_name_H-M	'P1'
_symmetry_Int_Tables_number	1
_symmetry_cell_setting	triclinic
loop_
_symmetry_equiv_pos_as_xyz
  x,y,z
_cell_length_a	16.959455
_cell_length_b	17.077402
_cell_length_c	17.077396
_cell_angle_alpha	90.029784
_cell_angle_beta	89.979128
_cell_angle_gamma	89.978169
loop_
_atom_site_label
_atom_site_type_symbol
_atom_site_fract_x
_atom_site_fract_y
_atom_site_fract_z
Zn1	Zn	1.208401	0.312530	-0.443864
Zn2	Zn	1.208307	0.443805	-0.312595
Zn3	Zn	1.076220	0.312555	-0.312609
Zn4	Zn	1.076187	0.443756	-0.443816
O5	O	1.142279	0.378161	-0.378221
O6	O	1.318999	0.329954	-0.426466
O7	O	1.190760	0.426425	-0.202750
O8	O	1.093806	0.202705	-0.330046
O9	O	1.318930	0.426402	-0.330023
O10	O	1.190919	0.202686	-0.426479
O11	O	1.093716	0.329996	-0.202760
O12	O	0.965604	0.329948	-0.329999
O13	O	1.093751	0.426317	-0.553669
O14	O	0.965581	0.426341	-0.426396
O15	O	1.190888	0.329906	-0.553705
O16	O	1.190729	0.553645	-0.329976
O17	O	1.093661	0.553609	-0.426383
C18	C	0.936912	0.378143	-0.378195
C19	C	0.849056	0.378153	-0.378202
C20	C	0.807771	0.327895	-0.328093
C21	C	0.807787	0.428418	-0.428322
C22	C	0.725242	0.428427	-0.428334
C23	C	0.683956	0.378168	-0.378225
C24	C	0.725217	0.327900	-0.328104
C25	C	0.683975	0.478688	-0.478459
C26	C	0.601424	0.478699	-0.478473
C27	C	0.560137	0.428443	-0.428360
C28	C	0.601403	0.378174	-0.378237
C29	C	0.560118	0.327915	-0.328128
C30	C	0.601382	0.277649	-0.278000
C31	C	0.683931	0.277645	-0.277991
C32	C	0.477589	0.428448	-0.428369
C33	C	0.477564	0.327921	-0.328139
C34	C	1.142202	0.582109	-0.378190
C35	C	1.142242	0.669359	-0.378203
C36	C	1.142327	0.378104	-0.582965
C37	C	1.142347	0.378079	-0.670215
C38	C	1.348447	0.378181	-0.378248
C39	C	1.436304	0.378189	-0.378260
C40	C	1.142377	0.173417	-0.378270
C41	C	1.142419	0.086167	-0.378290
C42	C	1.192837	0.710342	-0.328057
C43	C	1.192876	0.792322	-0.328077
C44	C	1.142315	0.833318	-0.378239
C45	C	1.091718	0.792330	-0.428390
C46	C	1.091684	0.710351	-0.428373
C47	C	1.091791	0.963200	-0.428420
C48	C	1.091824	1.045184	-0.428436
C49	C	1.192983	1.045171	-0.328124
C50	C	1.192949	0.963192	-0.328107
C51	C	1.142351	0.922209	-0.378257
C52	C	1.192928	0.327874	-0.711225
C53	C	1.192937	0.327848	-0.793206
C54	C	1.142369	0.378031	-0.834175
C55	C	1.091783	0.428239	-0.793159
C56	C	1.091770	0.428260	-0.711180
C57	C	1.091815	0.428191	-0.964029
C58	C	1.091828	0.428171	-1.046014
C59	C	1.192982	0.327779	-1.046055
C60	C	1.192969	0.327800	-0.964076
C61	C	1.142384	0.378009	-0.923066
C62	C	1.142277	0.378162	-0.174273
C63	C	1.142409	0.377966	-0.087024
H64	H	0.841407	0.469333	-0.469122
H65	H	1.050607	0.469096	-0.826523
H66	H	1.050650	0.469033	-1.079369
H67	H	0.443956	0.286995	-0.287333
F68	F	1.246760	0.919563	-0.274718
F69	F	1.246647	0.666718	-0.274662
H70	H	1.050485	0.676983	-0.469208
H71	H	1.234109	0.287011	-0.677874
H72	H	1.050591	0.929834	-0.469260
H73	H	1.050610	0.469064	-0.930641
F74	F	0.557434	0.224157	-0.224677
F75	F	1.246820	0.274343	-1.089702
H76	H	0.717595	0.519604	-0.519258
H77	H	1.234127	0.286967	-0.826593
H78	H	1.050554	0.825715	-0.469236
H79	H	1.234185	1.078544	-0.287292
F80	F	1.246794	0.274394	-0.920475
F81	F	1.037933	0.481694	-0.667535
H82	H	0.841372	0.286972	-0.287278
F83	F	0.727852	0.224150	-0.224649
F84	F	1.246728	0.835936	-0.274708
H85	H	0.567833	0.519629	-0.519290
F86	F	0.433676	0.481936	-0.481719
H87	H	1.050668	1.078561	-0.469297
