data_functionalizedCrystal
_audit_creation_method	'MofGen! by Chris Wilmer'
_symmetry_space_group_name_H-M	'P1'
_symmetry_Int_Tables_number	1
_symmetry_cell_setting	triclinic
loop_
_symmetry_equiv_pos_as_xyz
  x,y,z
_cell_length_a	14.908979
_cell_length_b	13.897447
_cell_length_c	13.897441
_cell_angle_alpha	90.028354
_cell_angle_beta	86.724737
_cell_angle_gamma	93.321111
loop_
_atom_site_label
_atom_site_type_symbol
_atom_site_fract_x
_atom_site_fract_y
_atom_site_fract_z
Zn1	Zn	1.379188	-0.298824	0.460421
Zn2	Zn	1.379090	-0.460149	0.299132
Zn3	Zn	1.228328	-0.308179	0.308433
Zn4	Zn	1.228300	-0.469396	0.469674
O5	O	1.303727	-0.384137	0.384415
O6	O	1.505417	-0.312438	0.431260
O7	O	1.359061	-0.440035	0.165386
O8	O	1.248392	-0.171953	0.328615
O9	O	1.505345	-0.430963	0.312762
O10	O	1.359229	-0.165080	0.440279
O11	O	1.248297	-0.328384	0.172220
O12	O	1.102082	-0.337351	0.337588
O13	O	1.248345	-0.446724	0.603427
O14	O	1.102062	-0.455796	0.456051
O15	O	1.359202	-0.321405	0.596628
O16	O	1.359035	-0.596360	0.321734
O17	O	1.248250	-0.603154	0.447031
C18	C	1.069339	-0.398593	0.398833
C19	C	0.969067	-0.404800	0.405024
C20	C	0.827751	-0.475311	0.475316
C21	C	0.921966	-0.469479	0.469508
C22	C	0.921947	-0.345951	0.346343
C23	C	0.827732	-0.351783	0.352152
C24	C	0.780638	-0.416464	0.416642
C25	C	0.686422	-0.422291	0.422454
C26	C	0.686404	-0.298768	0.299285
C27	C	0.780619	-0.292936	0.293477
C28	C	1.303653	-0.634756	0.384397
C29	C	1.303704	-0.741967	0.384417
C30	C	1.303748	-0.829034	0.384436
C31	C	1.303811	-0.938262	0.384457
C32	C	1.539029	-0.369625	0.369941
C33	C	1.639301	-0.363442	0.363773
C34	C	1.303782	-0.384053	0.636005
C35	C	1.303805	-0.384017	0.743217
C36	C	1.303825	-0.132538	0.384453
C37	C	1.303867	-0.025321	0.384468
C38	C	1.303723	-0.384148	0.133801
C39	C	1.303875	-0.383902	0.026578
C40	C	1.303824	-0.383988	0.830286
C41	C	1.303850	-0.383943	0.939517
H42	H	0.648079	-0.474954	0.474969
C43	C	0.832433	-0.221781	0.222551
N44	N	0.871459	-0.168180	0.169134
C45	C	0.634572	-0.234033	0.234737
N46	N	0.595531	-0.185276	0.186122
C47	C	0.973787	-0.534214	0.534056
N48	N	1.012819	-0.582976	0.582677
H49	H	0.789406	-0.527969	0.527835
C50	C	0.973767	-0.274798	0.275420
N51	N	1.012799	-0.221198	0.222006
