data_functionalizedCrystal
_audit_creation_method	'MofGen! by Chris Wilmer'
_symmetry_space_group_name_H-M	'P1'
_symmetry_Int_Tables_number	1
_symmetry_cell_setting	triclinic
loop_
_symmetry_equiv_pos_as_xyz
  x,y,z
_cell_length_a	16.120530
_cell_length_b	13.897448
_cell_length_c	13.897441
_cell_angle_alpha	90.030599
_cell_angle_beta	92.919063
_cell_angle_gamma	87.113275
loop_
_atom_site_label
_atom_site_type_symbol
_atom_site_fract_x
_atom_site_fract_y
_atom_site_fract_z
Zn1	Zn	1.274607	-0.458859	0.620100
Zn2	Zn	1.524607	-0.208859	0.870100
Zn3	Zn	1.774607	0.041141	1.120100
Zn4	Zn	2.024607	0.291141	1.370100
Zn5	Zn	1.274515	-0.620175	0.458796
Zn6	Zn	1.524515	-0.370175	0.708796
Zn7	Zn	1.774515	-0.120175	0.958796
Zn8	Zn	2.024515	0.129825	1.208796
Zn9	Zn	1.135184	-0.450711	0.450646
Zn10	Zn	1.385184	-0.200711	0.700646
Zn11	Zn	1.635184	0.049289	0.950646
Zn12	Zn	1.885184	0.299289	1.200646
Zn13	Zn	1.135168	-0.611923	0.611880
Zn14	Zn	1.385168	-0.361923	0.861880
Zn15	Zn	1.635168	-0.111923	1.111880
Zn16	Zn	1.885168	0.138077	1.361880
O17	O	1.204869	-0.535417	0.535356
O18	O	1.454869	-0.285417	0.785356
O19	O	1.704869	-0.035417	1.035356
O20	O	1.954869	0.214583	1.285356
O21	O	1.391262	-0.487122	0.605554
O22	O	1.641262	-0.237122	0.855554
O23	O	1.891262	0.012878	1.105554
O24	O	2.141262	0.262878	1.355554
O25	O	1.256001	-0.597739	0.322732
O26	O	1.506001	-0.347739	0.572732
O27	O	1.756001	-0.097739	0.822732
O28	O	2.006001	0.152261	1.072732
O29	O	1.153724	-0.316813	0.473153
O30	O	1.403724	-0.066813	0.723153
O31	O	1.653724	0.183187	0.973153
O32	O	1.903724	0.433187	1.223153
O33	O	1.391194	-0.605640	0.487045
O34	O	1.641194	-0.355640	0.737045
O35	O	1.891194	-0.105640	0.987045
O36	O	2.141194	0.144360	1.237045
O37	O	1.256157	-0.322799	0.597651
O38	O	1.506157	-0.072799	0.847651
O39	O	1.756157	0.177201	1.097651
O40	O	2.006157	0.427201	1.347651
O41	O	1.153635	-0.473235	0.316743
O42	O	1.403635	-0.223235	0.566743
O43	O	1.653635	0.026765	0.816743
O44	O	1.903635	0.276765	1.066743
O45	O	1.018515	-0.465232	0.465182
O46	O	1.268515	-0.215232	0.715182
O47	O	1.518515	0.034768	0.965182
O48	O	1.768515	0.284768	1.215182
O49	O	1.153697	-0.591574	0.747954
O50	O	1.403697	-0.341574	0.997954
O51	O	1.653697	-0.091574	1.247954
O52	O	1.903697	0.158426	1.497954
O53	O	1.018503	-0.583674	0.583641
O54	O	1.268503	-0.333674	0.833641
O55	O	1.518503	-0.083674	1.083641
O56	O	1.768503	0.166326	1.333641
O57	O	1.256142	-0.479119	0.753994
O58	O	1.506142	-0.229119	1.003994
O59	O	1.756142	0.020881	1.253994
O60	O	2.006142	0.270881	1.503994
O61	O	1.255986	-0.754060	0.479074
O62	O	1.505986	-0.504060	0.729074
O63	O	1.755986	-0.254060	0.979074
O64	O	2.005986	-0.004060	1.229074
O65	O	1.153608	-0.747996	0.591544
O66	O	1.403608	-0.497996	0.841544
O67	O	1.653608	-0.247996	1.091544
O68	O	1.903608	0.002004	1.341544
C69	C	1.204808	-0.786028	0.535324
C70	C	1.454808	-0.536028	0.785324
C71	C	1.704808	-0.286028	1.035324
C72	C	1.954808	-0.036028	1.285324
C73	C	1.204858	-0.893245	0.535347
C74	C	1.454858	-0.643245	0.785347
C75	C	1.704858	-0.393245	1.035347
C76	C	1.954858	-0.143245	1.285347
C77	C	0.988259	-0.522674	0.522636
C78	C	1.238259	-0.272674	0.772636
C79	C	1.488259	-0.022674	1.022636
C80	C	1.738259	0.227326	1.272636
C81	C	0.895592	-0.517246	0.517217
C82	C	1.145592	-0.267246	0.767217
C83	C	1.395592	-0.017246	1.017217
C84	C	1.645592	0.232754	1.267217
C85	C	1.204945	-1.089545	0.535413
C86	C	1.454945	-0.839545	0.785413
C87	C	1.704945	-0.589545	1.035413
C88	C	1.954945	-0.339545	1.285413
C89	C	1.204894	-0.980309	0.535379
C90	C	1.454894	-0.730309	0.785379
C91	C	1.704894	-0.480309	1.035379
C92	C	1.954894	-0.230309	1.285379
C93	C	0.725929	-0.507313	0.507332
C94	C	0.975929	-0.257313	0.757332
C95	C	1.225929	-0.007313	1.007332
C96	C	1.475929	0.242687	1.257332
C97	C	0.684648	-0.563592	0.563450
C98	C	0.934648	-0.313592	0.813450
C99	C	1.184648	-0.063592	1.063450
C100	C	1.434648	0.186408	1.313450
C101	C	0.590242	-0.558065	0.557950
C102	C	0.840242	-0.308065	0.807950
C103	C	1.090242	-0.058065	1.057950
C104	C	1.340242	0.191935	1.307950
C105	C	0.820344	-0.512838	0.512831
C106	C	1.070344	-0.262838	0.762831
C107	C	1.320344	-0.012838	1.012831
C108	C	1.570344	0.237162	1.262831
C109	C	1.422324	-0.548210	0.548126
C110	C	1.672324	-0.298210	0.798126
C111	C	1.922324	-0.048210	1.048126
C112	C	2.172324	0.201790	1.298126
C113	C	1.514991	-0.553662	0.553568
C114	C	1.764991	-0.303662	0.803568
C115	C	2.014991	-0.053662	1.053568
C116	C	2.264991	0.196338	1.303568
C117	C	1.204928	-0.535335	0.786952
C118	C	1.454928	-0.285335	1.036952
C119	C	1.704928	-0.035335	1.286952
C120	C	1.954928	0.214665	1.536952
C121	C	1.204953	-0.535300	0.894168
C122	C	1.454953	-0.285300	1.144168
C123	C	1.704953	-0.035300	1.394168
C124	C	1.954953	0.214700	1.644168
C125	C	1.204952	-0.283829	0.535410
C126	C	1.454952	-0.033829	0.785410
C127	C	1.704952	0.216171	1.035410
C128	C	1.954952	0.466171	1.285410
C129	C	1.204988	-0.176617	0.535433
C130	C	1.454988	0.073383	0.785433
C131	C	1.704988	0.323383	1.035433
C132	C	1.954988	0.573383	1.285433
C133	C	1.204858	-0.535432	0.284741
C134	C	1.454858	-0.285432	0.534741
C135	C	1.704858	-0.035432	0.784741
C136	C	1.954858	0.214568	1.034741
C137	C	1.204994	-0.535204	0.177535
C138	C	1.454994	-0.285204	0.427535
C139	C	1.704994	-0.035204	0.677535
C140	C	1.954994	0.214796	0.927535
C141	C	1.204976	-0.535236	1.090464
C142	C	1.454976	-0.285236	1.340464
C143	C	1.704976	-0.035236	1.590464
C144	C	1.954976	0.214764	1.840464
C145	C	1.204960	-0.535275	0.981231
C146	C	1.454960	-0.285275	1.231231
C147	C	1.704960	-0.035275	1.481231
C148	C	1.954960	0.214725	1.731231
H149	H	0.720207	-0.615924	0.615626
H150	H	0.970207	-0.365924	0.865626
H151	H	1.220207	-0.115924	1.115626
H152	H	1.470207	0.134076	1.365626
Cl153	Cl	0.671032	-0.426521	0.426781
Cl154	Cl	0.921032	-0.176521	0.676781
Cl155	Cl	1.171032	0.073479	0.926781
Cl156	Cl	1.421032	0.323479	1.176781
