data_functionalizedCrystal
_audit_creation_method	'MofGen! by Chris Wilmer'
_symmetry_space_group_name_H-M	'P1'
_symmetry_Int_Tables_number	1
_symmetry_cell_setting	triclinic
loop_
_symmetry_equiv_pos_as_xyz
  x,y,z
_cell_length_a	13.339070
_cell_length_b	10.489741
_cell_length_c	11.804365
_cell_angle_alpha	101.953620
_cell_angle_beta	74.875130
_cell_angle_gamma	100.084234
loop_
_atom_site_label
_atom_site_type_symbol
_atom_site_fract_x
_atom_site_fract_y
_atom_site_fract_z
O1	O	1.367264	0.622515	-0.099068
O2	O	1.072122	0.538369	-0.099061
O3	O	1.226407	0.397145	-0.099058
O4	O	1.212978	0.763739	-0.099072
O5	O	1.185789	0.434272	0.098997
O6	O	1.031504	0.575496	0.098994
O7	O	1.326646	0.659642	0.098987
Cu8	Cu	1.175366	0.620959	0.117074
Cu9	Cu	1.223401	0.577052	-0.117149
O10	O	1.172361	0.800866	0.098983
C11	C	1.014020	0.542719	-0.000033
C12	C	0.901409	0.500350	-0.000030
C13	C	0.539023	0.829782	-0.000062
C14	C	0.644827	0.869592	-0.000068
C15	C	0.708977	0.777285	-0.000058
C16	C	0.667314	0.645161	-0.000043
C17	C	0.561501	0.605345	-0.000046
C18	C	0.731456	0.552848	-0.000042
C19	C	0.689793	0.420724	-0.000027
C20	C	0.583990	0.380914	-0.000029
C21	C	0.519840	0.473222	-0.000039
C22	C	0.837269	0.592664	-0.000039
C23	C	0.859747	0.368227	-0.000024
C24	C	0.753943	0.328417	-0.000017
C25	C	1.205084	0.367829	-0.000031
C26	C	1.202049	0.225160	-0.000033
C27	C	1.103883	0.123412	-0.000040
C28	C	1.130230	0.065470	0.097611
C29	C	1.170299	0.028899	-0.097656
C30	C	1.228420	0.169113	0.097698
C31	C	1.268494	0.132530	-0.097657
C32	C	1.294907	0.074645	0.000017
C33	C	1.384748	0.655292	-0.000044
C34	C	1.497361	0.697659	-0.000055
C35	C	1.193684	0.830182	-0.000046
C36	C	1.196721	0.972849	-0.000052
N37	N	1.141588	0.651843	0.281814
N38	N	1.257187	0.546161	-0.281889
C39	C	1.338301	0.471974	0.655767
C40	C	1.363852	0.448605	0.531106
C41	C	1.308288	0.499412	0.468777
C42	C	1.227169	0.573593	0.531121
C43	C	1.201620	0.596973	0.655794
C44	C	1.171607	0.624411	0.468804
C45	C	1.090488	0.698592	0.531148
C46	C	1.064942	0.721968	0.655809
C47	C	1.120506	0.671160	0.718139
C48	C	1.197156	0.601031	0.344131
C49	C	1.060475	0.726030	0.344158
C50	C	1.034923	0.749399	0.468819
H51	H	0.720008	0.220837	-0.000015
O52	O	1.284621	0.520988	0.276902
H53	H	1.293054	0.513259	0.179742
O54	O	1.335828	0.474190	0.334320
H55	H	1.401560	0.414058	0.301439
O56	O	0.928921	0.268653	-0.000002
H57	H	1.009491	0.318538	0.000014
O58	O	1.052785	0.026054	0.206969
H59	H	1.094161	-0.012181	0.260633
H60	H	0.678743	0.977166	-0.000090
H61	H	1.145682	-0.031766	-0.180220
O62	O	1.451330	0.368588	0.463862
H63	H	1.485667	0.337172	0.528144
O64	O	1.398228	0.417182	0.722988
H65	H	1.366830	0.445900	0.820149
H66	H	1.375682	0.052888	0.000070
O67	O	0.996952	0.152624	0.000084
H68	H	0.939797	0.126105	0.081272
O69	O	1.092950	0.696383	0.852600
H70	H	1.145220	0.648594	0.885460
H71	H	1.252971	0.229646	0.180346
O72	O	0.469836	0.929336	-0.000063
H73	H	0.389262	0.879452	-0.000053
H74	H	0.998898	0.782382	0.706570
H75	H	1.326928	0.162306	-0.180219
H76	H	0.968874	0.809800	0.519595
H77	H	1.015232	0.767405	0.293411
H78	H	0.795128	0.809707	-0.000066
O79	O	0.882188	0.735166	-0.000040
H80	H	0.946409	0.743553	-0.080767
O81	O	0.405717	0.430276	-0.000027
H82	H	0.368114	0.516663	-0.000034
H83	H	0.550074	0.273328	-0.000030
