data_functionalizedCrystal
_audit_creation_method	'MofGen! by Chris Wilmer'
_symmetry_space_group_name_H-M	'P1'
_symmetry_Int_Tables_number	1
_symmetry_cell_setting	triclinic
loop_
_symmetry_equiv_pos_as_xyz
  x,y,z
_cell_length_a	19.805407
_cell_length_b	18.101395
_cell_length_c	19.805399
_cell_angle_alpha	89.974882
_cell_angle_beta	89.980427
_cell_angle_gamma	90.031104
loop_
_atom_site_label
_atom_site_type_symbol
_atom_site_fract_x
_atom_site_fract_y
_atom_site_fract_z
Zn1	Zn	1.034714	-0.294847	-0.382731
Zn2	Zn	1.534714	0.205153	0.117269
Zn3	Zn	1.034619	-0.418690	-0.269548
Zn4	Zn	1.534619	0.081310	0.230452
Zn5	Zn	0.921528	-0.294867	-0.269556
Zn6	Zn	1.421528	0.205133	0.230444
Zn7	Zn	0.921482	-0.418651	-0.382695
Zn8	Zn	1.421482	0.081349	0.117305
O9	O	0.978086	-0.356764	-0.326132
O10	O	1.478086	0.143236	0.173868
O11	O	1.129418	-0.311283	-0.367729
O12	O	1.629418	0.188717	0.132271
O13	O	1.019597	-0.402290	-0.174832
O14	O	1.519597	0.097710	0.325168
O15	O	0.936601	-0.191232	-0.284587
O16	O	1.436601	0.308768	0.215413
O17	O	1.129348	-0.402270	-0.284574
O18	O	1.629348	0.097730	0.215426
O19	O	1.019758	-0.191217	-0.367737
O20	O	1.519758	0.308783	0.132263
O21	O	0.936510	-0.311318	-0.174838
O22	O	1.436510	0.188682	0.325162
O23	O	0.826806	-0.311279	-0.284552
O24	O	1.326806	0.188721	0.215448
O25	O	0.936523	-0.402203	-0.477416
O26	O	1.436523	0.097797	0.022584
O27	O	0.826772	-0.402223	-0.367674
O28	O	1.326772	0.097777	0.132326
O29	O	1.019714	-0.311245	-0.477443
O30	O	1.519714	0.188755	0.022557
O31	O	1.019553	-0.522318	-0.284538
O32	O	1.519553	-0.022318	0.215462
O33	O	0.936432	-0.522289	-0.367667
O34	O	1.436432	-0.022289	0.132333
C35	C	0.802230	-0.356750	-0.326110
C36	C	1.302230	0.143250	0.173890
C37	C	0.726998	-0.356761	-0.326117
C38	C	1.226998	0.143239	0.173883
C39	C	0.691654	-0.404187	-0.369329
C40	C	1.191654	0.095813	0.130671
C41	C	0.620965	-0.404188	-0.369339
C42	C	1.120965	0.095812	0.130661
C43	C	0.585622	-0.356767	-0.326132
C44	C	1.085622	0.143233	0.173868
C45	C	0.620971	-0.309336	-0.282919
C46	C	1.120971	0.190664	0.217081
C47	C	0.691658	-0.309332	-0.282913
C48	C	1.191658	0.190668	0.217087
C49	C	0.335898	-0.309353	-0.282941
C50	C	0.835898	0.190647	0.217059
C51	C	0.265206	-0.309363	-0.282948
C52	C	0.765206	0.190637	0.217052
C53	C	0.265205	-0.404209	-0.369367
C54	C	0.765205	0.095791	0.130633
C55	C	0.335892	-0.404205	-0.369361
C56	C	0.835892	0.095795	0.130639
C57	C	0.371235	-0.356771	-0.326150
C58	C	0.871235	0.143229	0.173850
C59	C	0.447883	-0.356770	-0.326141
C60	C	0.947883	0.143230	0.173859
C61	C	0.508975	-0.356772	-0.326137
C62	C	1.008975	0.143228	0.173863
C63	C	0.977995	-0.549174	-0.326112
C64	C	1.477995	-0.049174	0.173888
C65	C	0.978018	-0.631489	-0.326127
C66	C	1.478018	-0.131489	0.173873
C67	C	0.978167	-0.930579	-0.326163
C68	C	1.478167	-0.430579	0.173837
C69	C	0.925991	-0.899267	-0.378595
C70	C	1.425991	-0.399267	0.121405
C71	C	0.925743	-0.813649	-0.378431
C72	C	1.425743	-0.313649	0.121569
C73	C	0.978093	-0.782197	-0.326146
C74	C	1.478093	-0.282197	0.173854
C75	C	0.958782	-0.813345	-0.254811
C76	C	1.458782	-0.313345	0.245189
C77	C	0.958446	-0.898990	-0.255125
C78	C	1.458446	-0.398990	0.244875
C79	C	1.049768	-0.898924	-0.344438
C80	C	1.549768	-0.398924	0.155562
C81	C	1.049347	-0.813273	-0.346002
C82	C	1.549347	-0.313273	0.153998
C83	C	0.978053	-0.698337	-0.326131
C84	C	1.478053	-0.198337	0.173869
C85	C	0.978206	-1.014439	-0.326173
C86	C	1.478206	-0.514439	0.173827
C87	C	1.154629	-0.356779	-0.326155
C88	C	1.654629	0.143221	0.173845
C89	C	1.229861	-0.356785	-0.326164
C90	C	1.729861	0.143215	0.173836
C91	C	0.978124	-0.356717	-0.502675
C92	C	1.478124	0.143283	-0.002675
C93	C	0.978140	-0.356697	-0.577907
C94	C	1.478140	0.143303	-0.077907
C95	C	0.978195	-0.163602	-0.326167
C96	C	1.478195	0.336398	0.173833
C97	C	0.978242	-0.081288	-0.326182
C98	C	1.478242	0.418712	0.173818
C99	C	1.021458	-0.309333	-0.613266
C100	C	1.521458	0.190667	-0.113266
C101	C	1.021465	-0.309311	-0.683955
C102	C	1.521465	0.190689	-0.183955
C103	C	0.978157	-0.356659	-0.719283
C104	C	1.478157	0.143341	-0.219283
C105	C	0.934834	-0.404025	-0.683919
C106	C	1.434834	0.095975	-0.183919
C107	C	0.934824	-0.404042	-0.613231
C108	C	1.434824	0.095958	-0.113231
C109	C	0.934872	-0.403956	-0.968992
C110	C	1.434872	0.096044	-0.468992
C111	C	0.934887	-0.403937	-1.039684
C112	C	1.434887	0.096063	-0.539684
C113	C	1.021513	-0.309225	-1.039716
C114	C	1.521513	0.190775	-0.539716
C115	C	1.021503	-0.309242	-0.969028
C116	C	1.521503	0.190758	-0.469028
C117	C	0.978178	-0.356606	-0.933670
C118	C	1.478178	0.143394	-0.433670
C119	C	0.978170	-0.356628	-0.857022
C120	C	1.478170	0.143372	-0.357022
C121	C	0.978168	-0.356641	-0.795930
C122	C	1.478168	0.143359	-0.295930
C123	C	0.978087	-0.356757	-0.150276
C124	C	1.478087	0.143243	0.349724
C125	C	0.978202	-0.356568	-0.075045
C126	C	1.478202	0.143432	0.424955
H127	H	0.236420	-0.442829	-0.404554
H128	H	0.736420	0.057171	0.095446
O129	O	0.726098	-0.263288	-0.240999
O130	O	1.226098	0.236712	0.259001
C131	C	0.834998	-0.221275	-0.202662
C132	C	1.334998	0.278725	0.297338
C133	C	0.796081	-0.273448	-0.250173
C134	C	1.296081	0.226552	0.249827
H135	H	0.891586	-0.229482	-0.210053
H136	H	1.391586	0.270518	0.289947
H137	H	0.821181	-0.161561	-0.214647
H138	H	1.321181	0.338439	0.285353
H139	H	0.821032	-0.234193	-0.148072
H140	H	1.321032	0.265807	0.351928
H141	H	0.810026	-0.260597	-0.304779
H142	H	1.310026	0.239403	0.195221
H143	H	0.809901	-0.333146	-0.238131
H144	H	1.309901	0.166854	0.261869
O145	O	1.001729	-0.923688	-0.206846
O146	O	1.501729	-0.423688	0.293154
C147	C	1.029972	-0.925505	-0.088522
C148	C	1.529972	-0.425505	0.411478
C149	C	0.980899	-0.897495	-0.143125
C150	C	1.480899	-0.397495	0.356875
H151	H	1.013157	-0.904327	-0.036994
H152	H	1.513157	-0.404327	0.463006
H153	H	1.030113	-0.988485	-0.088259
H154	H	1.530113	-0.488485	0.411741
H155	H	1.083012	-0.904396	-0.099904
H156	H	1.583012	-0.404396	0.400096
H157	H	0.927836	-0.918551	-0.131781
H158	H	1.427836	-0.418551	0.368219
H159	H	0.980817	-0.834516	-0.143376
H160	H	1.480817	-0.334516	0.356624
O161	O	0.230768	-0.263369	-0.240993
O162	O	0.730768	0.236631	0.259007
C163	C	0.121868	-0.221335	-0.202718
C164	C	0.621868	0.278665	0.297282
C165	C	0.160785	-0.273461	-0.250257
C166	C	0.660785	0.226539	0.249743
H167	H	0.065281	-0.229464	-0.210202
H168	H	0.565281	0.270536	0.289798
H169	H	0.135692	-0.234266	-0.148105
H170	H	0.635692	0.265734	0.351895
H171	H	0.135828	-0.161640	-0.214685
H172	H	0.635828	0.338360	0.285315
H173	H	0.146846	-0.333173	-0.238351
H174	H	0.646846	0.166827	0.261649
H175	H	0.146957	-0.260466	-0.304856
H176	H	0.646957	0.239534	0.195144
O177	O	0.892666	-0.449940	-0.718203
O178	O	1.392666	0.050060	-0.218203
C179	C	0.777518	-0.485906	-0.739769
C180	C	1.277518	0.014094	-0.239769
C181	C	0.825194	-0.433846	-0.700915
C182	C	1.325194	0.066154	-0.200915
H183	H	0.722957	-0.472923	-0.725796
H184	H	1.222957	0.027077	-0.225796
H185	H	0.784907	-0.477759	-0.796374
H186	H	1.284907	0.022241	-0.296374
H187	H	0.789404	-0.545620	-0.725867
H188	H	1.289404	-0.045620	-0.225867
H189	H	0.813338	-0.374112	-0.714761
H190	H	1.313338	0.125888	-0.214761
H191	H	0.817796	-0.442057	-0.644320
H192	H	1.317796	0.057943	-0.144320
H193	H	0.592192	-0.442808	-0.404525
H194	H	1.092192	0.057192	0.095475
H195	H	0.995590	-0.792973	-0.214680
H196	H	1.495590	-0.292973	0.285320
O197	O	0.863066	-0.925100	-0.364436
O198	O	1.363066	-0.425100	0.135564
C199	C	0.767157	-0.994673	-0.403970
C200	C	1.267157	-0.494673	0.096030
C201	C	0.838418	-0.965474	-0.420089
C202	C	1.338418	-0.465474	0.079911
H203	H	0.747202	-1.027309	-0.448961
H204	H	1.247202	-0.527309	0.051039
H205	H	0.769411	-1.032127	-0.357734
H206	H	1.269411	-0.532127	0.142266
H207	H	0.732080	-0.946146	-0.393293
H208	H	1.232080	-0.446146	0.106707
H209	H	0.873535	-1.013954	-0.430799
H210	H	1.373535	-0.513954	0.069201
H211	H	0.836111	-0.927999	-0.466307
H212	H	1.336111	-0.427999	0.033693
H213	H	0.592189	-0.270722	-0.247742
H214	H	1.092189	0.229278	0.252258
O215	O	1.063434	-0.263300	-0.578879
O216	O	1.563434	0.236700	-0.078879
C217	C	1.072578	-0.163299	-0.499130
C218	C	1.572578	0.336701	0.000870
C219	C	1.024967	-0.215401	-0.538016
C220	C	1.524967	0.284599	-0.038016
H221	H	1.041496	-0.124549	-0.466094
H222	H	1.541496	0.375451	0.033906
H223	H	1.107938	-0.197264	-0.465990
H224	H	1.607938	0.302736	0.034010
H225	H	1.103552	-0.129476	-0.536562
H226	H	1.603552	0.370524	-0.036562
H227	H	0.993949	-0.249235	-0.500633
H228	H	1.493949	0.250765	-0.000633
H229	H	0.989652	-0.181393	-0.571166
H230	H	1.489652	0.318607	-0.071166
H231	H	0.937825	-0.792587	-0.431325
H232	H	1.437825	-0.292587	0.068675
H233	H	0.364665	-0.442822	-0.404542
H234	H	0.864665	0.057178	0.095458
H235	H	1.056788	-0.270657	-1.068513
H236	H	1.556788	0.229343	-0.568513
H237	H	1.063910	-0.792912	-0.398501
H238	H	1.563910	-0.292912	0.101499
O239	O	0.892758	-0.450024	-0.934756
O240	O	1.392758	0.049976	-0.434756
C241	C	0.806781	-0.543907	-0.942191
C242	C	1.306781	-0.043907	-0.442191
C243	C	0.854461	-0.491791	-0.981051
C244	C	1.354461	0.008209	-0.481051
H245	H	0.775795	-0.577678	-0.979603
H246	H	1.275795	-0.077678	-0.479603
H247	H	0.837778	-0.582698	-0.909104
H248	H	1.337778	-0.082698	-0.409104
H249	H	0.771436	-0.509883	-0.909089
H250	H	1.271436	-0.009883	-0.409089
H251	H	0.889815	-0.525755	-1.014189
H252	H	1.389815	-0.025755	-0.514189
H253	H	0.823422	-0.452998	-1.014095
H254	H	1.323422	0.047002	-0.514095
H255	H	1.067374	-0.920474	-0.395569
H256	H	1.567374	-0.420474	0.104431
O257	O	0.892825	-0.450164	-0.578907
O258	O	1.392825	0.049836	-0.078907
C259	C	0.859885	-0.576140	-0.557271
C260	C	1.359885	-0.076140	-0.057271
C261	C	0.907500	-0.523991	-0.596174
C262	C	1.407500	-0.023991	-0.096174
H263	H	0.871722	-0.635839	-0.571227
H264	H	1.371722	-0.135839	-0.071227
H265	H	0.867324	-0.568081	-0.500674
H266	H	1.367324	-0.068081	-0.000674
H267	H	0.805318	-0.563096	-0.571147
H268	H	1.305318	-0.063096	-0.071147
H269	H	0.962085	-0.537002	-0.582354
H270	H	1.462085	-0.037002	-0.082354
H271	H	0.900002	-0.532060	-0.652761
H272	H	1.400002	-0.032060	-0.152761
O273	O	0.940300	-0.923660	-0.441933
O274	O	1.440300	-0.423660	0.058067
C275	C	0.969208	-0.890483	-0.556187
C276	C	1.469208	-0.390483	-0.056187
C277	C	0.953027	-0.862751	-0.484483
C278	C	1.453027	-0.362751	0.015517
H279	H	0.979488	-0.841252	-0.590613
H280	H	1.479488	-0.341252	-0.090613
H281	H	1.015681	-0.927575	-0.554555
H282	H	1.515681	-0.427575	-0.054555
H283	H	0.924380	-0.923159	-0.576489
H284	H	1.424380	-0.423159	-0.076489
H285	H	0.997813	-0.830043	-0.464139
H286	H	1.497813	-0.330043	0.035861
H287	H	0.906531	-0.825697	-0.486158
H288	H	1.406531	-0.325697	0.013842
H289	H	0.899617	-0.442494	-1.068446
H290	H	1.399617	0.057506	-0.568446
H291	H	0.872670	-0.793225	-0.366326
H292	H	1.372670	-0.293225	0.133674
H293	H	0.364665	-0.270735	-0.247751
H294	H	0.864665	0.229265	0.252249
H295	H	0.906106	-0.919033	-0.239644
H296	H	1.406106	-0.419033	0.260356
O297	O	0.896967	-0.787969	-0.235975
O298	O	1.396967	-0.287969	0.264025
C299	C	0.782958	-0.819363	-0.204536
C300	C	1.282958	-0.319363	0.295464
C301	C	0.852936	-0.848199	-0.225841
C302	C	1.352936	-0.348199	0.274159
H303	H	0.747336	-0.868043	-0.196350
H304	H	1.247336	-0.368043	0.303650
H305	H	0.787776	-0.786589	-0.155631
H306	H	1.287776	-0.286589	0.344369
H307	H	0.761944	-0.782096	-0.245905
H308	H	1.261944	-0.282096	0.254095
H309	H	0.873991	-0.885495	-0.184517
H310	H	1.373991	-0.385495	0.315483
H311	H	0.848076	-0.880931	-0.274764
H312	H	1.348076	-0.380931	0.225236
O313	O	1.098224	-0.787858	-0.303753
O314	O	1.598224	-0.287858	0.196247
C315	C	1.184942	-0.819131	-0.223374
C316	C	1.684942	-0.319131	0.276626
C317	C	1.129624	-0.848012	-0.271216
C318	C	1.629624	-0.348012	0.228784
H319	H	1.210334	-0.867750	-0.197044
H320	H	1.710334	-0.367750	0.302956
H321	H	1.224153	-0.786998	-0.253643
H322	H	1.724153	-0.286998	0.246357
H323	H	1.161253	-0.781250	-0.183978
H324	H	1.661253	-0.281250	0.316022
H325	H	1.153253	-0.885922	-0.310621
H326	H	1.653253	-0.385922	0.189379
H327	H	1.090420	-0.880103	-0.240901
H328	H	1.590420	-0.380103	0.259099
H329	H	1.088641	-0.919172	-0.306250
H330	H	1.588641	-0.419172	0.193750
H331	H	1.056741	-0.270744	-0.712741
H332	H	1.556741	0.229256	-0.212741
O333	O	0.726013	-0.450331	-0.411204
O334	O	1.226013	0.049669	0.088796
C335	C	0.805810	-0.550295	-0.420151
C336	C	1.305810	-0.050295	0.079849
C337	C	0.766931	-0.498097	-0.372647
C338	C	1.266931	0.001903	0.127353
H339	H	0.838912	-0.588916	-0.388998
H340	H	1.338912	-0.088916	0.111002
H341	H	0.768433	-0.584244	-0.451027
H342	H	1.268433	-0.084244	0.048973
H343	H	0.838903	-0.516327	-0.455608
H344	H	1.338903	-0.016327	0.044392
H345	H	0.733837	-0.532008	-0.337150
H346	H	1.233837	-0.032008	0.162850
H347	H	0.804344	-0.464146	-0.341819
H348	H	1.304344	0.035854	0.158181
O349	O	1.063594	-0.263179	-0.934816
O350	O	1.563594	0.236821	-0.434816
C351	C	1.149545	-0.169259	-0.942310
C352	C	1.649545	0.330741	-0.442310
C353	C	1.101902	-0.221379	-0.981137
C354	C	1.601902	0.278621	-0.481137
H355	H	1.180539	-0.135462	-0.979743
H356	H	1.680539	0.364538	-0.479743
H357	H	1.118518	-0.130493	-0.909236
H358	H	1.618518	0.369507	-0.409236
H359	H	1.184883	-0.203282	-0.909197
H360	H	1.684883	0.296718	-0.409197
H361	H	1.066555	-0.187416	-1.014287
H362	H	1.566555	0.312584	-0.514287
H363	H	1.132972	-0.260147	-1.014168
H364	H	1.632972	0.239853	-0.514168
