data_functionalizedCrystal
_audit_creation_method	'MofGen! by Chris Wilmer'
_symmetry_space_group_name_H-M	'P1'
_symmetry_Int_Tables_number	1
_symmetry_cell_setting	triclinic
loop_
_symmetry_equiv_pos_as_xyz
  x,y,z
_cell_length_a	18.215407
_cell_length_b	18.215405
_cell_length_c	18.215399
_cell_angle_alpha	89.967040
_cell_angle_beta	89.985195
_cell_angle_gamma	90.019398
loop_
_atom_site_label
_atom_site_type_symbol
_atom_site_fract_x
_atom_site_fract_y
_atom_site_fract_z
Zn1	Zn	1.125050	-0.293082	-0.416063
Zn2	Zn	1.458383	0.040251	-0.082730
Zn3	Zn	1.791717	0.373585	0.250604
Zn4	Zn	1.124965	-0.416159	-0.292991
Zn5	Zn	1.458298	-0.082825	0.040342
Zn6	Zn	1.791632	0.250508	0.373676
Zn7	Zn	1.001989	-0.293099	-0.293015
Zn8	Zn	1.335322	0.040235	0.040319
Zn9	Zn	1.668656	0.373568	0.373652
Zn10	Zn	1.001949	-0.416100	-0.416020
Zn11	Zn	1.335282	-0.082766	-0.082687
Zn12	Zn	1.668615	0.250567	0.250646
O13	O	1.063488	-0.354610	-0.354522
O14	O	1.396821	-0.021276	-0.021189
O15	O	1.730155	0.312057	0.312145
O16	O	1.228023	-0.309426	-0.399745
O17	O	1.561356	0.023907	-0.066412
O18	O	1.894690	0.357240	0.266922
O19	O	1.108633	-0.399866	-0.190010
O20	O	1.441967	-0.066533	0.143324
O21	O	1.775300	0.266801	0.476657
O22	O	1.018366	-0.190112	-0.309365
O23	O	1.351699	0.143221	0.023968
O24	O	1.685033	0.476555	0.357302
O25	O	1.227960	-0.399850	-0.309325
O26	O	1.561294	-0.066517	0.024009
O27	O	1.894627	0.266817	0.357342
O28	O	1.108778	-0.190100	-0.399768
O29	O	1.442112	0.143233	-0.066435
O30	O	1.775445	0.476567	0.266899
O31	O	1.018283	-0.309454	-0.190027
O32	O	1.351617	0.023879	0.143306
O33	O	1.684950	0.357212	0.476640
O34	O	0.898999	-0.309397	-0.309324
O35	O	1.232333	0.023936	0.024010
O36	O	1.565666	0.357269	0.357343
O37	O	1.018297	-0.399750	-0.519010
O38	O	1.351630	-0.066416	-0.185677
O39	O	1.684964	0.266917	0.147656
O40	O	0.898970	-0.399766	-0.399695
O41	O	1.232303	-0.066432	-0.066362
O42	O	1.565636	0.266901	0.266971
O43	O	1.108739	-0.309369	-0.519042
O44	O	1.442072	0.023964	-0.185708
O45	O	1.775406	0.357298	0.147625
O46	O	1.108594	-0.519135	-0.309283
O47	O	1.441927	-0.185802	0.024050
O48	O	1.775261	0.147532	0.357383
O49	O	1.018214	-0.519092	-0.399672
O50	O	1.351548	-0.185758	-0.066339
O51	O	1.684881	0.147575	0.266994
C52	C	0.872282	-0.354577	-0.354508
C53	C	1.205615	-0.021244	-0.021174
C54	C	1.538949	0.312089	0.312159
C55	C	0.790483	-0.354581	-0.354519
C56	C	1.123816	-0.021248	-0.021186
C57	C	1.457150	0.312085	0.312148
C58	C	0.525452	-0.307617	-0.401679
C59	C	0.858786	0.025717	-0.068346
C60	C	1.192119	0.359050	0.264988
C61	C	0.602311	-0.307605	-0.401677
C62	C	0.935644	0.025728	-0.068343
C63	C	1.268978	0.359062	0.264990
C64	C	0.602265	-0.401627	-0.307381
C65	C	0.935599	-0.068293	0.025952
C66	C	1.268932	0.265040	0.359285
C67	C	0.525408	-0.401642	-0.307388
C68	C	0.858741	-0.068308	0.025945
C69	C	1.192075	0.265025	0.359279
C70	C	0.487003	-0.354633	-0.354536
C71	C	0.820337	-0.021299	-0.021202
C72	C	1.153670	0.312034	0.312131
C73	C	0.640719	-0.354606	-0.354527
C74	C	0.974053	-0.021272	-0.021193
C75	C	1.307386	0.312061	0.312140
C76	C	0.724053	-0.354593	-0.354524
C77	C	1.057386	-0.021260	-0.021191
C78	C	1.390720	0.312074	0.312143
C79	C	0.403664	-0.354646	-0.354540
C80	C	0.736998	-0.021313	-0.021206
C81	C	1.070331	0.312021	0.312127
C82	C	1.063410	-0.545816	-0.354487
C83	C	1.396744	-0.212483	-0.021153
C84	C	1.730077	0.120851	0.312180
C85	C	1.063445	-0.627615	-0.354496
C86	C	1.396778	-0.294282	-0.021163
C87	C	1.730111	0.039052	0.312170
C88	C	1.110616	-0.815807	-0.307517
C89	C	1.443949	-0.482474	0.025816
C90	C	1.777282	-0.149140	0.359149
C91	C	1.110649	-0.892666	-0.307535
C92	C	1.443982	-0.559332	0.025798
C93	C	1.777315	-0.225999	0.359132
C94	C	1.016455	-0.892661	-0.401580
C95	C	1.349788	-0.559327	-0.068247
C96	C	1.683121	-0.225994	0.265087
C97	C	1.016426	-0.815803	-0.401565
C98	C	1.349759	-0.482470	-0.068232
C99	C	1.683093	-0.149137	0.265101
C100	C	1.063505	-0.777378	-0.354530
C101	C	1.396839	-0.444045	-0.021196
C102	C	1.730172	-0.110712	0.312137
C103	C	1.063567	-0.931094	-0.354562
C104	C	1.396900	-0.597761	-0.021229
C105	C	1.730234	-0.264428	0.312104
C106	C	1.063602	-1.014428	-0.354582
C107	C	1.396936	-0.681095	-0.021249
C108	C	1.730269	-0.347761	0.312085
C109	C	1.063471	-0.694039	-0.354511
C110	C	1.396805	-0.360706	-0.021178
C111	C	1.730138	-0.027373	0.312156
C112	C	1.255441	-0.354643	-0.354537
C113	C	1.588774	-0.021309	-0.021204
C114	C	1.922108	0.312024	0.312130
C115	C	1.337240	-0.354657	-0.354543
C116	C	1.670573	-0.021324	-0.021210
C117	C	2.003907	0.312010	0.312123
C118	C	1.063523	-0.354551	-0.546475
C119	C	1.396856	-0.021218	-0.213142
C120	C	1.730190	0.312116	0.120192
C121	C	1.063538	-0.354526	-0.628274
C122	C	1.396871	-0.021193	-0.294941
C123	C	1.730204	0.312141	0.038393
C124	C	1.063586	-0.162657	-0.354574
C125	C	1.396920	0.170677	-0.021240
C126	C	1.730253	0.504010	0.312093
C127	C	1.063628	-0.080858	-0.354596
C128	C	1.396961	0.252475	-0.021262
C129	C	1.730295	0.585809	0.312071
C130	C	1.016532	-0.307417	-0.816478
C131	C	1.349866	0.025917	-0.483145
C132	C	1.683199	0.359250	-0.149811
C133	C	1.016545	-0.307402	-0.893337
C134	C	1.349878	0.025931	-0.560004
C135	C	1.683212	0.359265	-0.226670
C136	C	1.110631	-0.401547	-0.893308
C137	C	1.443964	-0.068214	-0.559975
C138	C	1.777298	0.265119	-0.226641
C139	C	1.110614	-0.401565	-0.816451
C140	C	1.443947	-0.068232	-0.483117
C141	C	1.777281	0.265101	-0.149784
C142	C	1.063566	-0.354496	-0.778038
C143	C	1.396899	-0.021162	-0.444704
C144	C	1.730232	0.312171	-0.111371
C145	C	1.063596	-0.354463	-0.931754
C146	C	1.396929	-0.021130	-0.598421
C147	C	1.730262	0.312204	-0.265087
C148	C	1.063610	-0.354447	-1.015088
C149	C	1.396943	-0.021114	-0.681754
C150	C	1.730276	0.312219	-0.348421
C151	C	1.063550	-0.354512	-0.694699
C152	C	1.396884	-0.021179	-0.361365
C153	C	1.730217	0.312154	-0.028032
C154	C	1.063496	-0.354615	-0.163316
C155	C	1.396829	-0.021282	0.170017
C156	C	1.730163	0.312051	0.503351
C157	C	1.063624	-0.354433	-0.081517
C158	C	1.396957	-0.021100	0.251816
C159	C	1.730290	0.312234	0.585149
H160	H	0.633613	-0.269321	-0.440066
H161	H	0.966946	0.064013	-0.106733
H162	H	1.300279	0.397346	0.226600
H163	H	0.978222	-0.269090	-0.785204
H164	H	1.311556	0.064243	-0.451871
H165	H	1.644889	0.397577	-0.118538
Br166	Br	1.174480	-0.465423	-0.945445
Br167	Br	1.507813	-0.132090	-0.612111
Br168	Br	1.841146	0.201243	-0.278778
H169	H	1.149011	-0.923951	-0.269254
H170	H	1.482345	-0.590617	0.064080
H171	H	1.815678	-0.257284	0.397413
Br172	Br	0.952698	-0.243519	-0.945503
Br173	Br	1.286032	0.089814	-0.612170
Br174	Br	1.619365	0.423148	-0.278837
H175	H	0.978123	-0.923955	-0.439874
H176	H	1.311457	-0.590622	-0.106540
H177	H	1.644790	-0.257289	0.226793
H178	H	1.148916	-0.439905	-0.785152
H179	H	1.482249	-0.106572	-0.451818
H180	H	1.815583	0.226761	-0.118485
Br181	Br	0.654390	-0.465419	-0.243396
Br182	Br	0.987723	-0.132086	0.089937
Br183	Br	1.321057	0.201247	0.423270
H184	H	0.494186	-0.269339	-0.440070
H185	H	0.827519	0.063995	-0.106736
H186	H	1.160852	0.397328	0.226597
H187	H	0.494102	-0.439932	-0.268998
H188	H	0.827435	-0.106598	0.064336
H189	H	1.160769	0.226735	0.397669
Br190	Br	0.952492	-0.763645	-0.465379
Br191	Br	1.285826	-0.430312	-0.132046
Br192	Br	1.619159	-0.096978	0.201287
H193	H	1.148952	-0.784523	-0.269219
H194	H	1.482285	-0.451190	0.064114
H195	H	1.815618	-0.117857	0.397448
