data_functionalizedCrystal
_audit_creation_method	'MofGen! by Chris Wilmer'
_symmetry_space_group_name_H-M	'P1'
_symmetry_Int_Tables_number	1
_symmetry_cell_setting	triclinic
loop_
_symmetry_equiv_pos_as_xyz
  x,y,z
_cell_length_a	13.033409
_cell_length_b	13.031981
_cell_length_c	12.759393
_cell_angle_alpha	97.216555
_cell_angle_beta	82.830368
_cell_angle_gamma	90.920217
loop_
_atom_site_label
_atom_site_type_symbol
_atom_site_fract_x
_atom_site_fract_y
_atom_site_fract_z
Zn1	Zn	1.520224	-0.608974	0.321712
Zn2	Zn	2.020224	-0.108974	0.821712
Zn3	Zn	1.498275	-0.781001	0.126853
Zn4	Zn	1.998275	-0.281001	0.626853
Zn5	Zn	1.348241	-0.587201	0.170831
Zn6	Zn	1.848241	-0.087201	0.670831
Zn7	Zn	1.326407	-0.759114	0.327273
Zn8	Zn	1.826407	-0.259114	0.827273
O9	O	1.423287	-0.684072	0.236667
O10	O	1.923287	-0.184072	0.736667
O11	O	1.661215	-0.650065	0.275132
O12	O	2.161215	-0.150065	0.775132
O13	O	1.478324	-0.755341	-0.014335
O14	O	1.978324	-0.255341	0.485665
O15	O	1.389379	-0.446149	0.206924
O16	O	1.889379	0.053851	0.706924
O17	O	1.645089	-0.776453	0.131969
O18	O	2.145089	-0.276453	0.631969
O19	O	1.515733	-0.462145	0.317776
O20	O	2.015733	0.037855	0.817776
O21	O	1.368096	-0.612957	0.017976
O22	O	1.868096	-0.112957	0.517976
O23	O	1.201442	-0.591734	0.212316
O24	O	1.701442	-0.091734	0.712316
O25	O	1.352165	-0.739150	0.473557
O26	O	1.852165	-0.239150	0.973557
O27	O	1.185401	-0.718038	0.327253
O28	O	1.685401	-0.218038	0.827253
O29	O	1.494561	-0.628842	0.469471
O30	O	1.994561	-0.128842	0.969471
O31	O	1.457152	-0.922038	0.137361
O32	O	1.957152	-0.422038	0.637361
O33	O	1.330882	-0.905958	0.284609
O34	O	1.830882	-0.405958	0.784609
C35	C	1.156109	-0.650149	0.275160
C36	C	1.656109	-0.150149	0.775160
C37	C	1.041806	-0.635661	0.291650
C38	C	1.541806	-0.135661	0.791650
C39	C	0.864739	-0.676667	0.245123
C40	C	1.364739	-0.176667	0.745123
C41	C	0.982876	-0.691644	0.228075
C42	C	1.482876	-0.191644	0.728075
C43	C	1.389294	-0.951323	0.206835
C44	C	1.889294	-0.451323	0.706835
C45	C	1.374846	-1.065666	0.194094
C46	C	1.874846	-0.565666	0.694094
C47	C	1.430882	-1.124470	0.243330
C48	C	1.930882	-0.624470	0.743330
C49	C	1.415950	-1.242650	0.230163
C50	C	1.915950	-0.742650	0.730163
C51	C	1.691507	-0.718129	0.198024
C52	C	2.191507	-0.218129	0.698024
C53	C	1.805807	-0.732642	0.181557
C54	C	2.305807	-0.232642	0.681557
C55	C	1.423376	-0.683983	0.510701
C56	C	1.923376	-0.183983	1.010701
C57	C	1.423414	-0.683946	0.627477
C58	C	1.923414	-0.183946	1.127477
C59	C	1.457440	-0.415781	0.266635
C60	C	1.957440	0.084219	0.766635
C61	C	1.471994	-0.301452	0.279405
C62	C	1.971994	0.198548	0.779405
C63	C	1.423266	-0.684094	-0.036300
C64	C	1.923266	-0.184094	0.463700
C65	C	1.423464	-0.683868	-0.153073
C66	C	1.923464	-0.183868	0.346927
C67	C	1.497566	-0.626498	0.680214
C68	C	1.997566	-0.126498	1.180214
C69	C	1.497589	-0.626456	0.789941
C70	C	1.997589	-0.126456	1.289941
C71	C	1.349304	-0.741317	0.794183
C72	C	1.849304	-0.241317	1.294183
C73	C	1.349278	-0.741352	0.684460
C74	C	1.849278	-0.241352	1.184460
H75	H	1.004805	-0.576649	0.358701
H76	H	1.504805	-0.076649	0.858701
Cl77	Cl	1.039997	-0.782765	0.124562
Cl78	Cl	1.539997	-0.282765	0.624562
Cl79	Cl	1.256114	-0.813488	0.865825
Cl80	Cl	1.756114	-0.313488	1.365825
H81	H	0.842813	-0.791658	0.114519
H82	H	1.342813	-0.291658	0.614519
H83	H	1.288887	-0.788131	0.641522
H84	H	1.788887	-0.288131	1.141522
H85	H	1.356913	-1.279792	0.178265
H86	H	1.856913	-0.779792	0.678265
Cl87	Cl	1.522010	-1.067125	0.323476
Cl88	Cl	2.022010	-0.567125	0.823476
Cl89	Cl	1.563137	-1.244115	0.359543
Cl90	Cl	2.063137	-0.744115	0.859543
H91	H	1.315813	-1.102813	0.142200
H92	H	1.815813	-0.602813	0.642200
H93	H	0.827731	-0.617660	0.312170
H94	H	1.327731	-0.117660	0.812170
Cl95	Cl	1.590763	-0.554325	0.608583
Cl96	Cl	2.090763	-0.054325	1.108583
Cl97	Cl	1.590821	-0.554244	0.856232
Cl98	Cl	2.090821	-0.054244	1.356232
