data_functionalizedCrystal
_audit_creation_method	'MofGen! by Chris Wilmer'
_symmetry_space_group_name_H-M	'P1'
_symmetry_Int_Tables_number	1
_symmetry_cell_setting	triclinic
loop_
_symmetry_equiv_pos_as_xyz
  x,y,z
_cell_length_a	19.188930
_cell_length_b	19.188930
_cell_length_c	18.266242
_cell_angle_alpha	90.011475
_cell_angle_beta	89.977082
_cell_angle_gamma	96.855221
loop_
_atom_site_label
_atom_site_type_symbol
_atom_site_fract_x
_atom_site_fract_y
_atom_site_fract_z
O1	O	0.926149	-0.087169	-0.061124
O2	O	1.426149	0.412831	0.438876
O3	O	0.722838	-0.098903	-0.061075
O4	O	1.222838	0.401097	0.438925
O5	O	0.830361	0.008620	-0.061087
O6	O	1.330361	0.508620	0.438913
O7	O	0.818627	-0.194691	-0.061113
O8	O	1.318627	0.305309	0.438887
O9	O	0.830343	0.008625	0.060675
O10	O	1.330343	0.508625	0.560675
O11	O	0.722820	-0.098897	0.060687
O12	O	1.222820	0.401103	0.560687
O13	O	0.926131	-0.087163	0.060638
O14	O	1.426131	0.412837	0.560638
Zn15	Zn	0.824473	-0.093029	0.079994
Zn16	Zn	1.324473	0.406971	0.579994
Zn17	Zn	0.824497	-0.093037	-0.080432
Zn18	Zn	1.324497	0.406963	0.419568
O19	O	0.818608	-0.194686	0.060649
O20	O	1.318608	0.305314	0.560649
C21	C	0.696818	-0.098520	-0.000188
C22	C	1.196818	0.401480	0.499812
C23	C	0.619313	-0.097380	-0.000169
C24	C	1.119313	0.402620	0.499831
C25	C	0.574389	-0.160470	-0.000188
C26	C	1.074389	0.339530	0.499812
C27	C	0.501566	-0.159399	-0.000196
C28	C	1.001566	0.340601	0.499804
C29	C	0.473669	-0.095233	-0.000199
C30	C	0.973669	0.404767	0.499801
C31	C	0.518603	-0.032133	-0.000175
C32	C	1.018603	0.467867	0.499825
C33	C	0.591425	-0.033207	-0.000160
C34	C	1.091425	0.466793	0.499840
N35	N	0.365695	-0.046188	-0.041663
N36	N	0.865695	0.453812	0.458337
N37	N	0.296516	-0.045172	-0.041679
N38	N	0.796516	0.454828	0.458321
C39	C	0.254260	-0.091994	-0.000243
C40	C	0.754260	0.408006	0.499757
N41	N	0.283795	-0.139881	0.041200
N42	N	0.783795	0.360119	0.541200
N43	N	0.352980	-0.140899	0.041213
N44	N	0.852980	0.359101	0.541213
C45	C	0.394707	-0.094062	-0.000215
C46	C	0.894707	0.405938	0.499785
C47	C	0.130372	-0.153928	-0.000270
C48	C	0.630372	0.346072	0.499730
C49	C	0.057547	-0.152853	-0.000274
C50	C	0.557547	0.347147	0.499726
C51	C	0.074586	-0.025586	-0.000261
C52	C	0.574586	0.474414	0.499739
C53	C	0.147409	-0.026662	-0.000250
C54	C	0.647409	0.473338	0.499750
C55	C	0.175298	-0.090835	-0.000258
C56	C	0.675298	0.409165	0.499742
C57	C	0.829972	0.034634	-0.000204
C58	C	1.329972	0.534634	0.499796
C59	C	0.828831	0.112138	-0.000197
C60	C	1.328831	0.612138	0.499803
C61	C	0.952151	-0.087546	-0.000252
C62	C	1.452151	0.412454	0.499748
C63	C	1.029656	-0.088687	-0.000276
C64	C	1.529656	0.411313	0.499724
C65	C	0.818997	-0.220700	-0.000236
C66	C	1.318997	0.279300	0.499764
C67	C	0.820138	-0.298204	-0.000247
C68	C	1.320138	0.201796	0.499753
N69	N	0.824461	-0.093024	0.189481
N70	N	1.324461	0.406976	0.689481
C71	C	0.891922	0.157062	-0.000209
C72	C	1.391922	0.657062	0.499791
C73	C	0.890850	0.229886	-0.000220
C74	C	1.390850	0.729886	0.499780
C75	C	0.826684	0.257782	-0.000206
C76	C	1.326684	0.757782	0.499794
C77	C	0.763585	0.212849	-0.000198
C78	C	1.263585	0.712849	0.499802
C79	C	0.764658	0.140026	-0.000194
C80	C	1.264658	0.640026	0.499806
N81	N	0.777631	0.365789	0.041244
N82	N	1.277631	0.865789	0.541244
N83	N	0.776615	0.434968	0.041242
N84	N	1.276615	0.934968	0.541242
C85	C	0.823446	0.477191	-0.000220
C86	C	1.323446	0.977191	0.499780
N87	N	0.871341	0.447624	-0.041669
N88	N	1.371341	0.947624	0.458331
N89	N	0.872359	0.378439	-0.041664
N90	N	1.372359	0.878439	0.458336
C91	C	0.825513	0.336745	-0.000210
C92	C	1.325513	0.836745	0.499790
C93	C	0.885379	0.601079	-0.000245
C94	C	1.385379	1.101079	0.499755
C95	C	0.884305	0.673904	-0.000261
C96	C	1.384305	1.173904	0.499739
C97	C	0.757038	0.656865	-0.000231
C98	C	1.257038	1.156865	0.499769
C99	C	0.758114	0.584042	-0.000222
C100	C	1.258114	1.084042	0.499778
C101	C	0.822287	0.556154	-0.000226
C102	C	1.322287	1.056154	0.499774
N103	N	0.824513	-0.093037	-0.189919
N104	N	1.324513	0.406963	0.310081
C105	C	0.872088	-0.045436	0.227785
C106	C	1.372088	0.454564	0.727785
C107	C	0.872092	-0.045433	0.304430
C108	C	1.372092	0.454567	0.804430
C109	C	0.824477	-0.093030	0.342768
C110	C	1.324477	0.406970	0.842768
C111	C	0.776841	-0.140621	0.304455
C112	C	1.276841	0.359379	0.804455
C113	C	0.776834	-0.140618	0.227812
C114	C	1.276834	0.359382	0.727812
N115	N	0.815401	-0.154837	0.463094
N116	N	1.315401	0.345163	0.963094
N117	N	0.815413	-0.154838	0.535902
N118	N	1.315413	0.345162	1.035902
C119	C	0.824496	-0.093040	0.573691
C120	C	1.324496	0.406960	1.073691
N121	N	0.833582	-0.031239	0.535920
N122	N	1.333582	0.468761	1.035920
N123	N	0.833574	-0.031240	0.463106
N124	N	1.333574	0.468760	0.963106
C125	C	0.824480	-0.093038	0.425875
C126	C	1.324480	0.406962	0.925875
C127	C	0.872131	-0.045444	0.695101
C128	C	1.372131	0.454556	1.195101
C129	C	0.872130	-0.045440	0.771748
C130	C	1.372130	0.454560	1.271748
C131	C	0.776882	-0.140634	0.771772
C132	C	1.276882	0.359366	1.271772
C133	C	0.776879	-0.140632	0.695127
C134	C	1.276879	0.359368	1.195127
C135	C	0.824507	-0.093038	0.656796
C136	C	1.324507	0.406962	1.156796
H137	H	0.495885	0.020111	-0.000188
H138	H	0.995885	0.520111	0.499812
O139	O	0.014005	-0.214208	-0.000323
O140	O	0.514005	0.285792	0.499677
C141	C	0.054240	-0.271074	-0.000310
C142	C	0.554240	0.228926	0.499690
H143	H	0.108659	-0.253184	-0.023351
H144	H	0.608659	0.246816	0.476649
H145	H	0.027260	-0.315266	-0.035672
H146	H	0.527260	0.184734	0.464328
H147	H	0.059336	-0.290755	0.058103
H148	H	0.559336	0.209245	0.558103
H149	H	0.935683	0.710481	-0.000274
H150	H	1.435683	1.210481	0.499726
O151	O	0.730650	-0.186802	0.657801
O152	O	1.230650	0.313198	1.157801
C153	C	0.740867	-0.176608	0.581933
C154	C	1.240867	0.323392	1.081933
H155	H	0.767128	-0.121031	0.571465
H156	H	1.267128	0.378969	1.071465
H157	H	0.687970	-0.184513	0.552828
H158	H	1.187970	0.315487	1.052828
H159	H	0.775765	-0.216037	0.560159
H160	H	1.275765	0.283963	1.060159
O161	O	0.694767	0.684071	-0.000187
O162	O	1.194767	1.184071	0.499813
C163	C	0.707347	0.757980	-0.000217
C164	C	1.207347	1.257980	0.499783
H165	H	0.761881	0.775254	0.022825
H166	H	1.261881	1.275254	0.522825
H167	H	0.666293	0.780226	0.035137
H168	H	1.166293	1.280226	0.535137
H169	H	0.704038	0.778225	-0.058635
H170	H	1.204038	1.278225	0.441365
H171	H	0.738110	-0.179386	0.802986
H172	H	1.238110	0.320614	1.302986
O173	O	0.918229	0.000799	0.190409
O174	O	1.418229	0.500799	0.690409
C175	C	0.961189	-0.036308	0.145867
C176	C	1.461189	0.463692	0.645867
H177	H	0.962505	-0.091329	0.168944
H178	H	1.462505	0.408671	0.668944
H179	H	1.016676	-0.007471	0.144767
H180	H	1.516676	0.492529	0.644767
H181	H	0.939126	-0.040131	0.087874
H182	H	1.439126	0.459869	0.587874
H183	H	0.051874	0.026659	-0.000309
H184	H	0.551874	0.526659	0.499691
O185	O	0.730639	-0.186947	0.190634
O186	O	1.230639	0.313053	0.690634
C187	C	0.741763	-0.256037	0.209356
C188	C	1.241763	0.243963	0.709356
H189	H	0.797660	-0.256240	0.230399
H190	H	1.297660	0.243760	0.730399
H191	H	0.733621	-0.291098	0.158949
H192	H	1.233621	0.208902	0.658949
H193	H	0.703004	-0.276639	0.253859
H194	H	1.203004	0.223361	0.753859
O195	O	0.634969	0.028147	-0.000179
O196	O	1.134969	0.528147	0.499821
C197	C	0.594735	0.085014	-0.000161
C198	C	1.094735	0.585014	0.499839
H199	H	0.540339	0.067126	-0.023222
H200	H	1.040339	0.567126	0.476778
H201	H	0.621752	0.129205	-0.035504
H202	H	1.121752	0.629205	0.464496
H203	H	0.589581	0.104697	0.058256
H204	H	1.089581	0.604697	0.558256
O205	O	0.696762	0.540498	-0.000169
O206	O	1.196762	1.040498	0.499831
C207	C	0.639896	0.580733	-0.000176
C208	C	1.139896	1.080733	0.499824
H209	H	0.657781	0.635146	0.022867
H210	H	1.157781	1.135146	0.522867
H211	H	0.595698	0.553743	0.035187
H212	H	1.095698	1.053743	0.535187
H213	H	0.620224	0.585844	-0.058587
H214	H	1.120224	1.085844	0.441413
H215	H	0.910911	-0.006685	0.802935
H216	H	1.410911	0.493315	1.302935
O217	O	0.601363	-0.222867	-0.000156
O218	O	1.101363	0.277133	0.499844
C219	C	0.546090	-0.278323	-0.000192
C220	C	1.046090	0.221677	0.499808
H221	H	0.496663	-0.258901	0.022849
H222	H	0.996663	0.241099	0.522849
H223	H	0.561150	-0.323135	0.035159
H224	H	1.061150	0.176865	0.535159
H225	H	0.535761	-0.297777	-0.058612
H226	H	1.035761	0.202223	0.441388
O227	O	0.918423	0.000825	0.341535
O228	O	1.418423	0.500825	0.841535
C229	C	0.960442	0.042849	0.291268
C230	C	1.460442	0.542849	0.791268
H231	H	0.961141	0.014228	0.236626
H232	H	1.461141	0.514228	0.736626
H233	H	1.016231	0.053639	0.313391
H234	H	1.516231	0.553639	0.813391
H235	H	0.937932	0.094661	0.283142
H236	H	1.437932	0.594661	0.783142
O237	O	0.157504	-0.216243	-0.000396
O238	O	0.657504	0.283757	0.499604
C239	C	0.199166	-0.220672	-0.063440
C240	C	0.699166	0.279328	0.436560
H241	H	0.182075	-0.184247	-0.107521
H242	H	0.682075	0.315753	0.392479
H243	H	0.192472	-0.276965	-0.084608
H244	H	0.692472	0.223035	0.415392
H245	H	0.256637	-0.204385	-0.049173
H246	H	0.756637	0.295615	0.450827
H247	H	0.183988	0.024713	-0.000238
H248	H	0.683988	0.524713	0.499762
H249	H	0.942228	0.266470	-0.000233
H250	H	1.442228	0.766470	0.499767
H251	H	0.738071	-0.179374	0.335674
H252	H	1.238071	0.320626	0.835674
O253	O	0.918415	0.000859	0.657975
O254	O	1.418415	0.500859	1.157975
C255	C	0.960460	0.042857	0.708223
C256	C	1.460460	0.542857	1.208223
H257	H	0.931842	0.043574	0.762872
H258	H	1.431842	0.543574	1.262872
H259	H	0.971282	0.098643	0.686085
H260	H	1.471282	0.598643	1.186085
H261	H	1.012255	0.020315	0.716344
H262	H	1.512255	0.520315	1.216344
H263	H	0.464982	-0.210776	-0.000210
H264	H	0.964982	0.289224	0.499790
H265	H	0.944176	0.134360	-0.000214
H266	H	1.444176	0.634360	0.499786
O267	O	0.701298	0.240027	-0.000280
O268	O	1.201298	0.740027	0.499720
C269	C	0.696873	0.281615	-0.063351
C270	C	1.196873	0.781615	0.436649
H271	H	0.751963	0.299915	-0.084386
H272	H	1.251963	0.799915	0.415614
H273	H	0.669186	0.329221	-0.049163
H274	H	1.169186	0.829221	0.450837
H275	H	0.665893	0.249338	-0.107502
H276	H	1.165893	0.749338	0.392498
H277	H	0.713281	0.103448	-0.000184
H278	H	1.213281	0.603448	0.499816
O279	O	0.947668	0.573898	-0.000355
O280	O	1.447668	1.073898	0.499645
C281	C	0.952109	0.532281	-0.063422
C282	C	1.452109	1.032281	0.436578
H283	H	0.897025	0.513973	-0.084430
H284	H	1.397025	1.013973	0.415570
H285	H	0.979791	0.484680	-0.049242
H286	H	1.479791	0.984680	0.450758
H287	H	0.983103	0.564536	-0.107593
H288	H	1.483103	1.064536	0.392407
