data_functionalizedCrystal
_audit_creation_method	'MofGen! by Chris Wilmer'
_symmetry_space_group_name_H-M	'P1'
_symmetry_Int_Tables_number	1
_symmetry_cell_setting	triclinic
loop_
_symmetry_equiv_pos_as_xyz
  x,y,z
_cell_length_a	29.839125
_cell_length_b	21.295419
_cell_length_c	21.295417
_cell_angle_alpha	90.045308
_cell_angle_beta	89.981013
_cell_angle_gamma	89.987749
loop_
_atom_site_label
_atom_site_type_symbol
_atom_site_fract_x
_atom_site_fract_y
_atom_site_fract_z
Zn1	Zn	-0.254005	0.962279	-0.250449
Zn2	Zn	-0.178873	0.962204	-0.355696
Zn3	Zn	-0.178887	0.857025	-0.250472
Zn4	Zn	-0.253974	0.856972	-0.355711
O5	O	-0.216435	0.909620	-0.303082
O6	O	-0.244045	1.050359	-0.264394
O7	O	-0.116008	0.948243	-0.341741
O8	O	-0.188870	0.871041	-0.162379
O9	O	-0.188846	1.050303	-0.341719
O10	O	-0.244059	0.948371	-0.162362
O11	O	-0.116018	0.870968	-0.264433
O12	O	-0.188840	0.768929	-0.264448
O13	O	-0.316845	0.870950	-0.341745
O14	O	-0.244007	0.768889	-0.341767
O15	O	-0.316868	0.948319	-0.264409
O16	O	-0.188816	0.948191	-0.443787
O17	O	-0.243993	0.870877	-0.443799
C18	C	-0.216422	0.746068	-0.303112
C19	C	-0.216427	0.676100	-0.303140
C20	C	-0.333613	0.909637	-0.303076
C21	C	-0.383547	0.909644	-0.303074
C22	C	-0.245214	0.643285	-0.262943
C23	C	-0.245215	0.577542	-0.262926
C24	C	-0.216435	0.544618	-0.303118
C25	C	-0.187643	0.577441	-0.343317
C26	C	-0.187639	0.643182	-0.343329
N27	N	-0.212924	0.441343	-0.358195
N28	N	-0.212931	0.378892	-0.358182
C29	C	-0.216445	0.346543	-0.303085
N30	N	-0.219962	0.379005	-0.248000
N31	N	-0.219958	0.441462	-0.248013
C32	C	-0.216436	0.473332	-0.303110
C33	C	-0.245235	0.242442	-0.262866
C34	C	-0.245234	0.176698	-0.262848
C35	C	-0.187664	0.176599	-0.343245
C36	C	-0.187663	0.242341	-0.343258
C37	C	-0.216451	0.275259	-0.303069
C38	C	-0.693206	0.949973	-0.262700
C39	C	-0.880879	0.950004	-0.262646
O40	O	-0.905156	0.984246	-0.228378
N41	N	-0.904333	0.909728	-0.302905
C42	C	-0.880865	0.869438	-0.343178
O43	O	-0.905121	0.835177	-0.377415
C44	C	-0.693193	0.869404	-0.343228
C45	C	-0.669742	0.909687	-0.302971
C46	C	-0.669754	0.990252	-0.222445
C47	C	-0.622839	0.990246	-0.222461
C48	C	-0.599375	0.949961	-0.262732
C49	C	-0.622826	0.909682	-0.302987
C50	C	-0.669727	0.829112	-0.383497
C51	C	-0.622806	0.829106	-0.383505
C52	C	-0.599354	0.869389	-0.343247
C53	C	-0.552447	0.869391	-0.343274
N54	N	-0.528993	0.909667	-0.303015
C55	C	-0.552457	0.949952	-0.262744
C56	C	-0.979396	0.869460	-0.343150
C57	C	-1.026314	0.869469	-0.343138
C58	C	-1.026324	0.950034	-0.262605
C59	C	-0.979405	0.950027	-0.262620
C60	C	-0.955942	0.909736	-0.302890
C61	C	-0.453931	0.949937	-0.262781
C62	C	-0.407011	0.949930	-0.262803
C63	C	-0.407005	0.869362	-0.343333
C64	C	-0.453921	0.869372	-0.343314
C65	C	-0.477382	0.909661	-0.303033
O66	O	-0.528141	0.835162	-0.377519
O67	O	-0.528193	0.984198	-0.228502
C68	C	-0.740121	0.949978	-0.262683
C69	C	-0.763573	0.909699	-0.302938
C70	C	-0.740109	0.869414	-0.343209
C71	C	-0.810490	0.909708	-0.302926
C72	C	-0.833954	0.949993	-0.262656
C73	C	-0.810500	0.990269	-0.222396
C74	C	-0.763585	0.990264	-0.222412
C75	C	-0.763563	0.829138	-0.383468
C76	C	-0.810478	0.829147	-0.383449
C77	C	-0.833942	0.869432	-0.343178
C78	C	-0.099712	0.909639	-0.303042
C79	C	-0.049778	0.909754	-0.302867
C80	C	-0.216410	0.909537	-0.466634
C81	C	-0.216414	0.909560	-0.536602
C82	C	-0.216447	1.073810	-0.303052
C83	C	-0.216453	1.143778	-0.303039
C84	C	-0.187713	0.949853	-0.569441
C85	C	-0.187723	0.949882	-0.635184
C86	C	-0.216430	0.909608	-0.668084
C87	C	-0.245136	0.869312	-0.635236
C88	C	-0.245128	0.869288	-0.569495
N89	N	-0.219850	0.854539	-0.771365
N90	N	-0.219855	0.854564	-0.833817
C91	C	-0.216455	0.909678	-0.866159
N92	N	-0.213042	0.964768	-0.833690
N93	N	-0.213035	0.964743	-0.771233
C94	C	-0.216441	0.909629	-0.739370
C95	C	-0.187764	0.950006	-0.970284
C96	C	-0.187777	0.950037	-1.036028
C97	C	-0.245188	0.869461	-1.036079
C98	C	-0.245177	0.869436	-0.970337
C99	C	-0.216462	0.909708	-0.937443
C100	C	-0.216469	0.909720	-0.138892
C101	C	-0.216484	0.909763	-0.068923
H102	H	-0.268655	0.670082	-0.230218
O103	O	-0.272946	0.830112	-0.537523
C104	C	-0.247336	0.789454	-0.499575
H105	H	-0.213302	0.811684	-0.489726
H106	H	-0.242374	0.742819	-0.524970
C107	C	-0.313836	0.750704	-0.449218
C108	C	-0.272038	0.778010	-0.437117
H109	H	-0.329074	0.743642	-0.410692
H110	H	-0.331091	0.778094	-0.474785
H111	H	-0.309695	0.711844	-0.470382
H112	H	-0.276179	0.816872	-0.415961
H113	H	-0.254784	0.750626	-0.411544
H114	H	-0.164384	0.982800	-0.943501
O115	O	-0.740830	1.029325	-0.183209
C116	C	-0.752317	1.015610	-0.120475
H117	H	-0.765206	0.965322	-0.117311
H118	H	-0.779562	1.049365	-0.104013
C119	C	-0.694821	1.084726	-0.082346
C120	C	-0.710648	1.022959	-0.078458
H121	H	-0.669119	1.089262	-0.056427
H122	H	-0.687083	1.093968	-0.124611
H123	H	-0.717529	1.112849	-0.068628
H124	H	-0.687942	0.994838	-0.092183
H125	H	-0.718381	1.013712	-0.036194
O126	O	-0.159752	0.545433	-0.382428
C127	C	-0.185278	0.507368	-0.423124
H128	H	-0.220654	0.527193	-0.427091
H129	H	-0.186856	0.457563	-0.403657
C130	C	-0.119794	0.481937	-0.483645
C131	C	-0.163242	0.506289	-0.488521
H132	H	-0.106200	0.481269	-0.523984
H133	H	-0.102595	0.507580	-0.456226
H134	H	-0.121114	0.440435	-0.467419
H135	H	-0.161920	0.547793	-0.504738
H136	H	-0.180439	0.480653	-0.515945
O137	O	-0.273225	0.545754	-0.223861
C138	C	-0.298625	0.588905	-0.188382
H139	H	-0.300140	0.635746	-0.214172
H140	H	-0.282242	0.595931	-0.140534
C141	C	-0.344593	0.505745	-0.147745
C142	C	-0.346457	0.563275	-0.179424
H143	H	-0.374097	0.489934	-0.142216
H144	H	-0.327480	0.476672	-0.171646
H145	H	-0.330938	0.511607	-0.107875
H146	H	-0.360105	0.557410	-0.219295
H147	H	-0.363573	0.592346	-0.155529
O148	O	-0.273097	0.830426	-1.068098
C149	C	-0.302149	0.866253	-1.106049
H150	H	-0.286336	0.913976	-1.115855
H151	H	-0.335442	0.873128	-1.080679
C152	C	-0.329694	0.773019	-1.156487
C153	C	-0.310271	0.831632	-1.168535
H154	H	-0.334706	0.751663	-1.195031
H155	H	-0.310122	0.748881	-1.130918
H156	H	-0.357436	0.778757	-1.135344
H157	H	-0.282527	0.825893	-1.189671
H158	H	-0.329838	0.855768	-1.194110
O159	O	-0.159853	0.989201	-1.067833
C160	C	-0.134517	1.024748	-1.024700
H161	H	-0.132940	0.998947	-0.977869
H162	H	-0.150996	1.072540	-1.017638
C163	C	-0.088651	1.065563	-1.107901
C164	C	-0.086710	1.033870	-1.050384
H165	H	-0.059161	1.071192	-1.123744
H166	H	-0.105721	1.041616	-1.136961
H167	H	-0.102385	1.105386	-1.102008
H168	H	-0.072981	0.994045	-1.056278
H169	H	-0.069636	1.057811	-1.021325
H170	H	-0.387919	0.982735	-0.230020
O171	O	-0.159662	0.674965	-0.382441
C172	C	-0.134250	0.631812	-0.417899
H173	H	-0.152649	0.584953	-0.420109
H174	H	-0.100160	0.624832	-0.394773
C175	C	-0.105088	0.714954	-0.482174
C176	C	-0.127688	0.657402	-0.484892
H177	H	-0.101038	0.730739	-0.523497
H178	H	-0.122208	0.744028	-0.458283
H179	H	-0.076683	0.709129	-0.462899
H180	H	-0.156095	0.663228	-0.504158
H181	H	-0.110573	0.628329	-0.508787
O182	O	-0.273211	0.274326	-0.223768
C183	C	-0.298626	0.231261	-0.188292
H184	H	-0.280228	0.184394	-0.186060
H185	H	-0.332715	0.224256	-0.211417
C186	C	-0.327788	0.314552	-0.124057
C187	C	-0.305190	0.256991	-0.121311
H188	H	-0.331839	0.330424	-0.082741
H189	H	-0.310667	0.343566	-0.147959
H190	H	-0.356193	0.308706	-0.143331
H191	H	-0.276784	0.262838	-0.102045
H192	H	-0.322306	0.227978	-0.097404
O193	O	-0.159809	0.988928	-0.667156
C194	C	-0.130770	0.953110	-0.705221
H195	H	-0.146598	0.905402	-0.715116
H196	H	-0.097477	0.946199	-0.679903
C197	C	-0.103204	1.046363	-0.755480
C198	C	-0.122646	0.987769	-0.767638
H199	H	-0.098191	1.067743	-0.793980
H200	H	-0.122767	1.070494	-0.729833
H201	H	-0.075462	1.040595	-0.734380
H202	H	-0.150390	0.993538	-0.788729
H203	H	-0.103088	0.963639	-0.793289
H204	H	-0.268675	0.149981	-0.230111
O205	O	-0.159776	0.988887	-0.537464
C206	C	-0.130738	0.953066	-0.499484
H207	H	-0.127934	0.903496	-0.519351
H208	H	-0.144620	0.950870	-0.449652
C209	C	-0.087500	1.044748	-0.474075
C210	C	-0.084052	0.983867	-0.498479
H211	H	-0.058702	1.063748	-0.473452
H212	H	-0.107064	1.068882	-0.499660
H213	H	-0.099070	1.042910	-0.432551
H214	H	-0.072488	0.985706	-0.540005
H215	H	-0.064485	0.959734	-0.472901
O216	O	-0.273043	0.830276	-0.667262
C217	C	-0.302093	0.866101	-0.705218
H218	H	-0.286280	0.913824	-0.715023
H219	H	-0.335388	0.872976	-0.679852
C220	C	-0.329633	0.772865	-0.755657
C221	C	-0.310210	0.831478	-0.767704
H222	H	-0.334642	0.751507	-0.794201
H223	H	-0.310063	0.748728	-0.730084
H224	H	-0.357377	0.778603	-0.734518
H225	H	-0.282464	0.825739	-0.788836
H226	H	-0.329775	0.855613	-0.793282
H227	H	-0.268546	0.836623	-0.943597
O228	O	-0.159689	0.274124	-0.382370
C229	C	-0.134278	0.230970	-0.417830
H230	H	-0.152679	0.184112	-0.420040
H231	H	-0.100189	0.223986	-0.394704
C232	C	-0.105113	0.314111	-0.482102
C233	C	-0.127715	0.256561	-0.484822
H234	H	-0.101062	0.329898	-0.523425
H235	H	-0.122231	0.343186	-0.458211
H236	H	-0.076708	0.308284	-0.462828
H237	H	-0.156121	0.262391	-0.504088
H238	H	-0.110601	0.227488	-0.508718
H239	H	-0.164231	0.149792	-0.375970
O240	O	-0.476648	0.989135	-0.223635
C241	C	-0.445880	1.024670	-0.188103
H242	H	-0.412436	1.026821	-0.213902
H243	H	-0.440890	1.001649	-0.140299
C244	C	-0.505267	1.089037	-0.147326
C245	C	-0.464191	1.091684	-0.179016
H246	H	-0.516562	1.130374	-0.141718
H247	H	-0.525996	1.065095	-0.171263
H248	H	-0.501103	1.069850	-0.107493
H249	H	-0.468356	1.110863	-0.218851
H250	H	-0.443463	1.115630	-0.155086
H251	H	-0.603748	1.023048	-0.189678
O252	O	-0.692593	1.029418	-0.183410
C253	C	-0.719721	1.070074	-0.219232
H254	H	-0.726750	1.047845	-0.266937
H255	H	-0.701637	1.116712	-0.226148
C256	C	-0.755656	1.108812	-0.125984
C257	C	-0.764292	1.081508	-0.184575
H258	H	-0.783149	1.115868	-0.104605
H259	H	-0.737379	1.081424	-0.101849
H260	H	-0.740585	1.147675	-0.131756
H261	H	-0.779358	1.042643	-0.178802
H262	H	-0.782574	1.108890	-0.208708
O263	O	-0.599997	0.789900	-0.422539
C264	C	-0.572847	0.749267	-0.386724
H265	H	-0.586984	0.745411	-0.337138
H266	H	-0.537289	0.768721	-0.384571
C267	C	-0.554763	0.688543	-0.478392
C268	C	-0.572129	0.683804	-0.417492
H269	H	-0.554318	0.648163	-0.497372
H270	H	-0.573053	0.715919	-0.502523
H271	H	-0.525133	0.704758	-0.476590
H272	H	-0.601760	0.667597	-0.419296
H273	H	-0.553844	0.656423	-0.393362
O274	O	-0.692553	0.789954	-0.422517
C275	C	-0.719686	0.749310	-0.386682
H276	H	-0.726724	0.771540	-0.338971
H277	H	-0.701601	0.702662	-0.379779
C278	C	-0.755602	0.710595	-0.479912
C279	C	-0.764250	0.737901	-0.421314
H280	H	-0.783091	0.703555	-0.501275
H281	H	-0.737321	0.737976	-0.504055
H282	H	-0.740531	0.671725	-0.474151
H283	H	-0.779316	0.776774	-0.427076
H284	H	-0.782535	0.710527	-0.397172
H285	H	-0.960314	0.982829	-0.229838
O286	O	-0.956677	0.830298	-0.382330
C287	C	-0.987444	0.794744	-0.417845
H288	H	-1.020887	0.820540	-0.420007
H289	H	-0.992437	0.746952	-0.394798
C290	C	-0.928056	0.753938	-0.482194
C291	C	-0.969130	0.785624	-0.484855
H292	H	-0.916759	0.748309	-0.523529
H293	H	-0.907327	0.777889	-0.458266
H294	H	-0.932223	0.714115	-0.462986
H295	H	-0.964962	0.825449	-0.504056
H296	H	-0.989858	0.761679	-0.508788
H297	H	-1.045436	0.982836	-0.229815
O298	O	-0.833317	1.029312	-0.183207
C299	C	-0.860464	0.993493	-0.142565
H300	H	-0.846317	0.943917	-0.138693
H301	H	-0.896019	0.991313	-0.162021
C302	C	-0.878575	1.085171	-0.081872
C303	C	-0.861197	1.024282	-0.077112
H304	H	-0.879029	1.104164	-0.041498
H305	H	-0.860287	1.109303	-0.109255
H306	H	-0.908203	1.083346	-0.098088
H307	H	-0.831568	1.026109	-0.060904
H308	H	-0.879480	1.000150	-0.049725
O309	O	-0.740795	0.790069	-0.422681
C310	C	-0.752271	0.803783	-0.485410
H311	H	-0.765168	0.854074	-0.488571
H312	H	-0.779506	0.770033	-0.501857
C313	C	-0.694753	0.734651	-0.523564
C314	C	-0.710590	0.796422	-0.527447
H315	H	-0.669044	0.730108	-0.549496
H316	H	-0.687023	0.725410	-0.481302
H317	H	-0.717453	0.706533	-0.537268
H318	H	-0.687893	0.824538	-0.513735
H319	H	-0.718316	0.805668	-0.569708
H320	H	-0.473016	0.836576	-0.376101
H321	H	-1.045404	0.836673	-0.375927
H322	H	-0.387893	0.836565	-0.376123
H323	H	-0.829568	0.796345	-0.416238
