data_functionalizedCrystal
_audit_creation_method	'MofGen! by Chris Wilmer'
_symmetry_space_group_name_H-M	'P1'
_symmetry_Int_Tables_number	1
_symmetry_cell_setting	triclinic
loop_
_symmetry_equiv_pos_as_xyz
  x,y,z
_cell_length_a	16.625548
_cell_length_b	29.839132
_cell_length_c	16.625539
_cell_angle_alpha	90.034308
_cell_angle_beta	90.022345
_cell_angle_gamma	90.045122
loop_
_atom_site_label
_atom_site_type_symbol
_atom_site_fract_x
_atom_site_fract_y
_atom_site_fract_z
Zn1	Zn	-1.232553	0.178854	-0.455914
Zn2	Zn	-0.899219	0.512188	-0.122581
Zn3	Zn	-0.565886	0.845521	0.210753
Zn4	Zn	-1.232402	0.253985	-0.321067
Zn5	Zn	-0.899069	0.587318	0.012266
Zn6	Zn	-0.565736	0.920652	0.345600
Zn7	Zn	-1.097715	0.178870	-0.321090
Zn8	Zn	-0.764381	0.512203	0.012243
Zn9	Zn	-0.431048	0.845536	0.345576
Zn10	Zn	-1.097631	0.253958	-0.455853
Zn11	Zn	-0.764298	0.587291	-0.122519
Zn12	Zn	-0.430965	0.920624	0.210814
O13	O	-1.165075	0.216417	-0.388481
O14	O	-0.831742	0.549750	-0.055148
O15	O	-0.498409	0.883083	0.278186
O16	O	-1.345365	0.188825	-0.438042
O17	O	-1.012032	0.522159	-0.104709
O18	O	-0.678698	0.855492	0.228625
O19	O	-1.214508	0.244039	-0.208238
O20	O	-0.881174	0.577372	0.125096
O21	O	-0.547841	0.910706	0.458429
O22	O	-1.115699	0.116001	-0.339010
O23	O	-0.782366	0.449334	-0.005677
O24	O	-0.449032	0.782667	0.327656
O25	O	-1.345255	0.244024	-0.338971
O26	O	-1.011921	0.577357	-0.005637
O27	O	-0.678588	0.910690	0.327696
O28	O	-1.214764	0.115989	-0.438065
O29	O	-0.881431	0.449322	-0.104731
O30	O	-0.548097	0.782656	0.228602
O31	O	-1.115553	0.188852	-0.208255
O32	O	-0.782220	0.522185	0.125079
O33	O	-0.448886	0.855519	0.458412
O34	O	-0.984871	0.188825	-0.338951
O35	O	-0.651538	0.522159	-0.005618
O36	O	-0.318204	0.855492	0.327716
O37	O	-1.115557	0.243977	-0.568693
O38	O	-0.782224	0.577310	-0.235360
O39	O	-0.448890	0.910644	0.097973
O40	O	-0.984810	0.243992	-0.437960
O41	O	-0.651477	0.577326	-0.104627
O42	O	-0.318143	0.910659	0.228706
O43	O	-1.214683	0.188799	-0.568738
O44	O	-0.881350	0.522132	-0.235405
O45	O	-0.548017	0.855466	0.097928
O46	O	-1.214427	0.316849	-0.338911
O47	O	-0.881094	0.650182	-0.005578
O48	O	-0.547760	0.983515	0.327755
O49	O	-1.115411	0.316829	-0.437938
O50	O	-0.782078	0.650162	-0.104604
O51	O	-0.448745	0.983495	0.228729
C52	C	-0.955584	0.216408	-0.388452
C53	C	-0.622251	0.549741	-0.055119
C54	C	-0.288918	0.883075	0.278215
C55	C	-0.865963	0.216415	-0.388459
C56	C	-0.532630	0.549748	-0.055125
C57	C	-0.199297	0.883082	0.278208
C58	C	-0.537788	0.216414	-0.388483
C59	C	-0.204454	0.549747	-0.055150
C60	C	0.128879	0.883081	0.278184
C61	C	-0.629096	0.216413	-0.388474
C62	C	-0.295763	0.549746	-0.055140
C63	C	0.037571	0.883080	0.278193
C64	C	-0.701873	0.216415	-0.388470
C65	C	-0.368539	0.549748	-0.055137
C66	C	-0.035206	0.883081	0.278197
C67	C	-0.793187	0.216413	-0.388462
C68	C	-0.459853	0.549747	-0.055129
C69	C	-0.126520	0.883080	0.278205
C70	C	-1.164916	0.333139	-0.388433
C71	C	-0.831582	0.666473	-0.055099
C72	C	-0.498249	0.999806	0.278234
C73	C	-1.164921	0.383074	-0.388439
C74	C	-0.831588	0.716407	-0.055106
C75	C	-0.498254	1.049740	0.278227
C76	C	-0.375384	0.216423	-0.388503
C77	C	-0.042051	0.549756	-0.055169
C78	C	0.291283	0.883090	0.278164
C79	C	-0.465005	0.216418	-0.388492
C80	C	-0.131672	0.549751	-0.055159
C81	C	0.201661	0.883085	0.278175
C82	C	-1.216669	0.692715	-0.336960
C83	C	-0.883336	1.026048	-0.003627
C84	C	-0.550002	1.359382	0.329707
C85	C	-1.216746	0.880388	-0.336978
C86	C	-0.883413	1.213721	-0.003645
C87	C	-0.550079	1.547055	0.329688
O88	O	-1.260657	0.904651	-0.293195
O89	O	-0.927324	1.237984	0.040138
O90	O	-0.593991	1.571318	0.373472
N91	N	-1.165160	0.903859	-0.388494
N92	N	-0.831826	1.237192	-0.055161
N93	N	-0.498493	1.570525	0.278173
C94	C	-1.113554	0.880408	-0.440012
C95	C	-0.780221	1.213742	-0.106679
C96	C	-0.446887	1.547075	0.226654
O97	O	-1.069684	0.904678	-0.483836
O98	O	-0.736351	1.238011	-0.150503
O99	O	-0.403018	1.571345	0.182831
C100	C	-1.113482	0.692736	-0.439998
C101	C	-0.780149	1.026070	-0.106664
C102	C	-0.446815	1.359403	0.226669
C103	C	-1.165066	0.669268	-0.388473
C104	C	-0.831732	1.002601	-0.055140
C105	C	-0.498399	1.335935	0.278194
C106	C	-1.268249	0.669247	-0.285440
C107	C	-0.934916	1.002580	0.047893
C108	C	-0.601583	1.335913	0.381226
C109	C	-1.268227	0.622331	-0.285433
C110	C	-0.934893	0.955664	0.047900
C111	C	-0.601560	1.288998	0.381234
C112	C	-1.216623	0.598884	-0.336946
C113	C	-0.883290	0.932217	-0.003613
C114	C	-0.549957	1.265551	0.329721
C115	C	-1.165043	0.622352	-0.388466
C116	C	-0.831710	0.955686	-0.055132
C117	C	-0.498376	1.289019	0.278201
C118	C	-1.061881	0.669287	-0.491520
C119	C	-0.728548	1.002620	-0.158186
C120	C	-0.395214	1.335953	0.175147
C121	C	-1.061869	0.622366	-0.491513
C122	C	-0.728536	0.955699	-0.158179
C123	C	-0.395202	1.289032	0.175154
C124	C	-1.113453	0.598897	-0.439988
C125	C	-0.780120	0.932231	-0.106655
C126	C	-0.446786	1.265564	0.226679
C127	C	-1.113417	0.551990	-0.439971
C128	C	-0.780084	0.885323	-0.106638
C129	C	-0.446750	1.218657	0.226695
N130	N	-1.165003	0.528519	-0.388456
N131	N	-0.831670	0.861852	-0.055122
N132	N	-0.498337	1.195186	0.278211
C133	C	-1.216606	0.551966	-0.336943
C134	C	-0.883273	0.885300	-0.003610
C135	C	-0.549940	1.218633	0.329724
C136	C	-1.113595	0.978939	-0.440015
C137	C	-0.780261	1.312272	-0.106682
C138	C	-0.446928	1.645606	0.226651
C139	C	-1.113611	1.025857	-0.440018
C140	C	-0.780278	1.359190	-0.106685
C141	C	-0.446945	1.692524	0.226648
C142	C	-1.216805	1.025833	-0.336985
C143	C	-0.883471	1.359167	-0.003652
C144	C	-0.550138	1.692500	0.329682
C145	C	-1.216783	0.978914	-0.336979
C146	C	-0.883450	1.312248	-0.003645
C147	C	-0.550116	1.645581	0.329688
C148	C	-1.165181	0.955468	-0.388500
C149	C	-0.831848	1.288802	-0.055167
C150	C	-0.498514	1.622135	0.278167
C151	C	-1.216554	0.453440	-0.336931
C152	C	-0.883221	0.786774	-0.003598
C153	C	-0.549887	1.120107	0.329735
C154	C	-1.216524	0.406521	-0.336926
C155	C	-0.883191	0.739854	-0.003593
C156	C	-0.549858	1.073187	0.329740
C157	C	-1.113334	0.406549	-0.439962
C158	C	-0.780001	0.739882	-0.106629
C159	C	-0.446668	1.073215	0.226704
C160	C	-1.113361	0.453464	-0.439965
C161	C	-0.780028	0.786797	-0.106631
C162	C	-0.446694	1.120131	0.226702
C163	C	-1.164977	0.476909	-0.388446
C164	C	-0.831644	0.810242	-0.055113
C165	C	-0.498311	1.143575	0.278220
O166	O	-1.069535	0.527698	-0.483738
O167	O	-0.736202	0.861031	-0.150405
O168	O	-0.402868	1.194365	0.182928
O169	O	-1.260482	0.527688	-0.293139
O170	O	-0.927149	0.861022	0.040195
O171	O	-0.593816	1.194355	0.373528
C172	C	-1.216692	0.739630	-0.336967
C173	C	-0.883359	1.072964	-0.003634
C174	C	-0.550025	1.406297	0.329699
C175	C	-1.165112	0.763099	-0.388487
C176	C	-0.831778	1.096432	-0.055154
C177	C	-0.498445	1.429765	0.278179
C178	C	-1.113508	0.739652	-0.440000
C179	C	-0.780175	1.072985	-0.106667
C180	C	-0.446842	1.406318	0.226667
C181	C	-1.165128	0.810017	-0.388490
C182	C	-0.831795	1.143350	-0.055157
C183	C	-0.498462	1.476683	0.278177
C184	C	-1.216732	0.833464	-0.336977
C185	C	-0.883398	1.166797	-0.003644
C186	C	-0.550065	1.500130	0.329689
C187	C	-1.268318	0.809993	-0.285462
C188	C	-0.934985	1.143326	0.047872
C189	C	-0.601651	1.476660	0.381205
C190	C	-1.268295	0.763077	-0.285455
C191	C	-0.934962	1.096411	0.047879
C192	C	-0.601629	1.429744	0.381212
C193	C	-1.061922	0.763123	-0.491516
C194	C	-0.728589	1.096456	-0.158182
C195	C	-0.395255	1.429789	0.175151
C196	C	-1.061948	0.810038	-0.491518
C197	C	-0.728615	1.143371	-0.158185
C198	C	-0.395282	1.476705	0.175149
C199	C	-1.113552	0.833485	-0.440005
C200	C	-0.780218	1.166818	-0.106672
C201	C	-0.446885	1.500152	0.226662
C202	C	-1.165128	0.216383	-0.598790
C203	C	-0.831794	0.549717	-0.265457
C204	C	-0.498461	0.883050	0.067877
C205	C	-1.165150	0.216369	-0.688411
C206	C	-0.831817	0.549702	-0.355078
C207	C	-0.498483	0.883036	-0.021744
C208	C	-1.165227	1.099238	-0.388529
C209	C	-0.831894	1.432572	-0.055196
C210	C	-0.498561	1.765905	0.278137
C211	C	-1.165215	1.049304	-0.388506
C212	C	-0.831881	1.382637	-0.055172
C213	C	-0.498548	1.715971	0.278161
C214	C	-1.165187	0.216319	-1.016587
C215	C	-0.831854	0.549652	-0.683254
C216	C	-0.498521	0.882985	-0.349920
C217	C	-1.165175	0.216334	-0.925278
C218	C	-0.831841	0.549667	-0.591945
C219	C	-0.498508	0.883001	-0.258612
C220	C	-1.165169	0.216344	-0.852502
C221	C	-0.831836	0.549678	-0.519169
C222	C	-0.498502	0.883011	-0.185835
C223	C	-1.165156	0.216359	-0.761188
C224	C	-0.831822	0.549692	-0.427854
C225	C	-0.498489	0.883026	-0.094521
C226	C	-1.165069	0.216418	-0.178990
C227	C	-0.831736	0.549751	0.154343
C228	C	-0.498403	0.883084	0.487677
C229	C	-1.165203	0.216305	-0.089369
C230	C	-0.831870	0.549639	0.243964
C231	C	-0.498537	0.882972	0.577297
H232	H	-1.258530	0.387414	-0.294966
H233	H	-0.925197	0.720748	0.038367
H234	H	-0.591863	1.054081	0.371701
F235	F	-1.323236	0.834955	-0.230636
F236	F	-0.989902	1.168289	0.102698
F237	F	-0.656569	1.501622	0.436031
H238	H	-1.071572	0.959852	-0.481971
H239	H	-0.738239	1.293186	-0.148638
H240	H	-0.404905	1.626519	0.184695
H241	H	-1.310233	0.603226	-0.243480
H242	H	-0.976900	0.936559	0.089854
H243	H	-0.643566	1.269893	0.423187
H244	H	-1.310275	0.688332	-0.243492
H245	H	-0.976942	1.021665	0.089841
H246	H	-0.643609	1.354999	0.423175
H247	H	-1.258788	0.959809	-0.295023
H248	H	-0.925454	1.293143	0.038310
H249	H	-0.592121	1.626476	0.371643
F250	F	-1.058700	1.050829	-0.494849
F251	F	-0.725366	1.384162	-0.161515
F252	F	-0.392033	1.717495	0.171818
F253	F	-1.271723	1.050795	-0.282159
F254	F	-0.938390	1.384128	0.051174
F255	F	-0.605056	1.717462	0.384507
H256	H	-1.019872	0.688387	-0.533473
H257	H	-0.686539	1.021720	-0.200139
H258	H	-0.353205	1.355053	0.133194
H259	H	-1.019849	0.603278	-0.533470
H260	H	-0.686516	0.936611	-0.200137
H261	H	-0.353182	1.269945	0.133197
H262	H	-1.071360	0.472573	-0.481923
H263	H	-0.738026	0.805906	-0.148589
H264	H	-0.404693	1.139240	0.184744
F265	F	-1.058420	0.381586	-0.494785
F266	F	-0.725086	0.714920	-0.161452
F267	F	-0.391753	1.048253	0.171881
F268	F	-1.323201	0.738106	-0.230617
F269	F	-0.989867	1.071440	0.102717
F270	F	-0.656534	1.404773	0.436050
H271	H	-1.019935	0.829142	-0.533475
H272	H	-0.686602	1.162475	-0.200142
H273	H	-0.353269	1.495809	0.133192
H274	H	-1.019901	0.744036	-0.533465
H275	H	-0.686568	1.077369	-0.200131
H276	H	-0.353235	1.410702	0.133202
H277	H	-1.258587	0.472524	-0.294982
H278	H	-0.925253	0.805857	0.038351
H279	H	-0.591920	1.139190	0.371684
