data_functionalizedCrystal
_audit_creation_method	'MofGen! by Chris Wilmer'
_symmetry_space_group_name_H-M	'P1'
_symmetry_Int_Tables_number	1
_symmetry_cell_setting	triclinic
loop_
_symmetry_equiv_pos_as_xyz
  x,y,z
_cell_length_a	17.038272
_cell_length_b	11.792241
_cell_length_c	10.868271
_cell_angle_alpha	89.998441
_cell_angle_beta	90.001130
_cell_angle_gamma	87.652486
loop_
_atom_site_label
_atom_site_type_symbol
_atom_site_fract_x
_atom_site_fract_y
_atom_site_fract_z
O1	O	-1.038457	-0.246559	0.102169
O2	O	-0.538457	0.253441	0.602169
O3	O	-0.810809	-0.242644	0.102206
O4	O	-0.310809	0.257356	0.602206
O5	O	-0.930157	-0.079915	0.102178
O6	O	-0.430157	0.420085	0.602178
O7	O	-0.919108	-0.409288	0.102197
O8	O	-0.419108	0.090712	0.602197
O9	O	-0.930146	-0.079919	-0.102467
O10	O	-0.430146	0.420081	0.397533
O11	O	-0.810798	-0.242648	-0.102439
O12	O	-0.310798	0.257352	0.397561
O13	O	-1.038446	-0.246563	-0.102475
O14	O	-0.538446	0.253437	0.397525
Zn15	Zn	-0.924620	-0.244607	-0.134949
Zn16	Zn	-0.424620	0.255393	0.365051
Zn17	Zn	-0.924634	-0.244600	0.134679
Zn18	Zn	-0.424634	0.255400	0.634679
O19	O	-0.919097	-0.409292	-0.102448
O20	O	-0.419097	0.090708	0.397552
C21	C	-0.781659	-0.239085	-0.000112
C22	C	-0.281659	0.260915	0.499888
C23	C	-0.694819	-0.228461	-0.000099
C24	C	-0.194819	0.271539	0.499901
C25	C	-0.929458	-0.037565	-0.000144
C26	C	-0.429458	0.462435	0.499856
C27	C	-0.927380	0.088630	-0.000142
C28	C	-0.427380	0.588630	0.499858
C29	C	-1.067595	-0.250122	-0.000155
C30	C	-0.567595	0.249878	0.499845
C31	C	-1.154435	-0.260746	-0.000160
C32	C	-0.654435	0.239254	0.499840
C33	C	-0.645136	-0.326001	-0.000094
C34	C	-0.145136	0.173999	0.499906
C35	C	-0.563542	-0.316012	-0.000112
C36	C	-0.063542	0.183988	0.499888
C37	C	-0.531632	-0.208482	-0.000125
C38	C	-0.031632	0.291518	0.499875
C39	C	-0.581321	-0.110935	-0.000133
C40	C	-0.081321	0.389065	0.499867
C41	C	-0.662914	-0.120925	-0.000125
C42	C	-0.162914	0.379075	0.499875
C43	C	-0.285718	-0.173189	-0.000160
C44	C	0.214282	0.326811	0.499840
C45	C	-0.204118	-0.163206	-0.000165
C46	C	0.295882	0.336794	0.499835
C47	C	-0.186344	-0.368284	-0.000145
C48	C	0.313656	0.131716	0.499855
C49	C	-0.267940	-0.378265	-0.000129
C50	C	0.232060	0.121735	0.499871
C51	C	-0.317622	-0.280718	-0.000144
C52	C	0.182378	0.219282	0.499856
C53	C	-0.448229	-0.198269	-0.000139
C54	C	0.051771	0.301731	0.499861
C55	C	-0.401023	-0.290932	-0.000139
C56	C	0.098977	0.209068	0.499861
C57	C	-0.919797	-0.451642	-0.000123
C58	C	-0.419797	0.048358	0.499877
C59	C	-0.921874	-0.577837	-0.000117
C60	C	-0.421874	-0.077837	0.499883
C61	C	-0.923561	0.319677	-0.000121
C62	C	-0.423561	0.819677	0.499879
C63	C	-0.925683	0.191106	-0.000133
C64	C	-0.425683	0.691106	0.499867
N65	N	-0.924616	-0.244611	-0.318963
N66	N	-0.424616	0.255389	0.181037
C67	C	-0.924622	-0.244612	-0.430301
C68	C	-0.424622	0.255388	0.069699
C69	C	-0.924632	-0.244602	-0.569978
C70	C	-0.424632	0.255398	-0.069978
N71	N	-0.924645	-0.244588	0.318693
N72	N	-0.424645	0.255412	0.818693
H73	H	-0.523092	-0.395440	-0.000106
H74	H	-0.023092	0.104560	0.499894
C75	C	-0.680234	-0.444282	-0.000075
C76	C	-0.180234	0.055718	0.499925
H77	H	-0.735944	-0.436266	-0.000059
H78	H	-0.235944	0.063734	0.499941
H79	H	-0.663214	-0.484780	-0.071437
H80	H	-0.163214	0.015220	0.428563
H81	H	-0.663204	-0.484768	0.071300
H82	H	-0.163204	0.015232	0.571300
C83	C	-0.303039	-0.496545	-0.000109
C84	C	0.196961	0.003455	0.499891
H85	H	-0.358749	-0.488524	-0.000090
H86	H	0.141251	0.011476	0.499910
H87	H	-0.286022	-0.537051	-0.071467
H88	H	0.213978	-0.037051	0.428533
H89	H	-0.286010	-0.537025	0.071270
H90	H	0.213990	-0.037025	0.571270
C91	C	-0.717569	-0.013635	-0.000128
C92	C	-0.217569	0.486365	0.499872
H93	H	-0.770733	-0.034984	-0.000134
H94	H	-0.270733	0.465016	0.499866
H95	H	-0.707849	0.030140	0.071229
H96	H	-0.207849	0.530140	0.571229
H97	H	-0.707851	0.030124	-0.071508
H98	H	-0.207851	0.530124	0.428492
C99	C	-0.131693	-0.475575	-0.000145
C100	C	0.368307	0.024425	0.499855
H101	H	-0.078529	-0.454230	-0.000163
H102	H	0.421471	0.045770	0.499837
H103	H	-0.141409	-0.519345	0.071220
H104	H	0.358591	-0.019345	0.571220
H105	H	-0.141419	-0.519339	-0.071517
H106	H	0.358581	-0.019339	0.428483
H107	H	-0.427008	-0.378482	-0.000135
H108	H	0.072992	0.121518	0.499865
H109	H	-0.422239	-0.110718	-0.000185
H110	H	0.077761	0.389282	0.499815
C111	C	-0.169019	-0.044918	-0.000182
C112	C	0.330981	0.455082	0.499818
H113	H	-0.210293	0.011747	-0.000200
H114	H	0.289707	0.511747	0.499800
H115	H	-0.137557	-0.036756	0.071181
H116	H	0.362443	0.463244	0.571181
H117	H	-0.137560	-0.036769	-0.071556
H118	H	0.362440	0.463231	0.428444
H119	H	-0.326160	-0.093758	-0.000173
H120	H	0.173840	0.406242	0.499827
H121	H	-0.555334	-0.023382	-0.000162
H122	H	-0.055334	0.476618	0.499838
