data_functionalizedCrystal
_audit_creation_method	'MofGen! by Chris Wilmer'
_symmetry_space_group_name_H-M	'P1'
_symmetry_Int_Tables_number	1
_symmetry_cell_setting	triclinic
loop_
_symmetry_equiv_pos_as_xyz
  x,y,z
_cell_length_a	14.044220
_cell_length_b	14.044220
_cell_length_c	17.766277
_cell_angle_alpha	89.993125
_cell_angle_beta	89.995720
_cell_angle_gamma	93.188878
loop_
_atom_site_label
_atom_site_type_symbol
_atom_site_fract_x
_atom_site_fract_y
_atom_site_fract_z
O1	O	1.277175	0.230170	-0.062517
O2	O	1.000503	0.221864	-0.062536
O3	O	1.134686	0.087681	-0.062519
O4	O	1.142992	0.364352	-0.062534
O5	O	1.134660	0.087671	0.062669
O6	O	1.000477	0.221854	0.062652
O7	O	1.277148	0.230160	0.062671
Cu8	Cu	1.138810	0.226006	0.074093
Cu9	Cu	1.138841	0.226018	-0.073957
O10	O	1.142965	0.364343	0.062655
C11	C	0.964868	0.218223	0.000056
C12	C	0.858725	0.207379	0.000049
C13	C	0.664388	0.187553	0.000065
C14	C	0.613258	0.264467	0.000064
C15	C	0.505122	0.253435	0.000073
C16	C	0.772534	0.198583	0.000056
C17	C	1.131037	0.052054	0.000075
C18	C	1.120193	-0.054088	0.000075
C19	C	1.100366	-0.248426	0.000063
C20	C	1.177281	-0.299556	0.000066
C21	C	1.166249	-0.407692	0.000059
C22	C	1.111397	-0.140280	0.000070
C23	C	1.312783	0.233800	0.000078
C24	C	1.418926	0.244645	0.000080
C25	C	1.146614	0.399969	0.000059
C26	C	1.157459	0.506112	0.000054
N27	N	1.138795	0.225998	0.178223
N28	N	1.138863	0.226019	-0.178088
C29	C	1.198235	0.166616	0.217617
C30	C	1.198240	0.166612	0.296419
C31	C	1.138816	0.226007	0.335823
C32	C	1.079364	0.285394	0.296420
C33	C	1.079354	0.285389	0.217619
C34	C	1.133659	0.311898	0.460656
C35	C	1.133676	0.311905	0.539455
C36	C	1.138842	0.226021	0.578870
C37	C	1.144012	0.140129	0.539476
C38	C	1.144001	0.140124	0.460676
C39	C	1.138820	0.226019	0.421269
C40	C	1.198291	0.166629	0.703710
C41	C	1.198289	0.166623	0.782513
C42	C	1.079419	0.285414	0.782512
C43	C	1.079415	0.285412	0.703711
C44	C	1.138856	0.226020	0.664314
H45	H	1.026239	-0.285863	0.000056
H46	H	1.246689	0.118262	0.814589
H47	H	0.650697	0.338600	0.000056
H48	H	0.626951	0.113425	0.000073
H49	H	1.031030	0.333772	0.814595
H50	H	1.246633	0.118253	0.185543
C51	C	1.263661	0.101293	0.660371
H52	H	1.299053	0.065914	0.695122
H53	H	1.306304	0.139016	0.629621
H54	H	1.225948	0.058624	0.629641
H55	H	1.246645	0.118253	0.328500
H56	H	1.148208	0.070188	0.428604
H57	H	1.251414	-0.262117	0.000020
H58	H	1.031017	0.333771	0.671634
H59	H	1.148218	0.070194	0.571565
C60	C	1.127996	0.406381	0.582782
H61	H	1.124902	0.457528	0.548024
H62	H	1.183000	0.416329	0.613510
H63	H	1.072568	0.403579	0.613531
H64	H	1.129435	0.381839	0.428572
H65	H	1.030978	0.333753	0.328507
C66	C	1.013974	0.350720	0.174284
H67	H	0.978586	0.386099	0.209035
H68	H	0.971330	0.312995	0.143550
H69	H	1.051682	0.393389	0.143538
