data_functionalizedCrystal
_audit_creation_method	'MofGen! by Chris Wilmer'
_symmetry_space_group_name_H-M	'P1'
_symmetry_Int_Tables_number	1
_symmetry_cell_setting	triclinic
loop_
_symmetry_equiv_pos_as_xyz
  x,y,z
_cell_length_a	11.792254
_cell_length_b	10.268362
_cell_length_c	12.837942
_cell_angle_alpha	89.999312
_cell_angle_beta	90.486231
_cell_angle_gamma	90.004577
loop_
_atom_site_label
_atom_site_type_symbol
_atom_site_fract_x
_atom_site_fract_y
_atom_site_fract_z
O1	O	1.521325	0.108299	-0.142226
O2	O	1.854659	0.441632	0.191107
O3	O	2.187992	0.774965	0.524440
O4	O	1.192471	0.108301	-0.156864
O5	O	1.525804	0.441635	0.176469
O6	O	1.859137	0.774968	0.509802
O7	O	1.349606	0.108292	0.001399
O8	O	1.682939	0.441625	0.334732
O9	O	2.016273	0.774959	0.668065
O10	O	1.364190	0.108308	-0.300489
O11	O	1.697523	0.441641	0.032844
O12	O	2.030857	0.774975	0.366177
O13	O	1.349590	-0.108309	0.001393
O14	O	1.682923	0.225025	0.334727
O15	O	2.016256	0.558358	0.668060
O16	O	1.192454	-0.108299	-0.156870
O17	O	1.525788	0.225034	0.176463
O18	O	1.859121	0.558367	0.509797
O19	O	1.521309	-0.108302	-0.142232
O20	O	1.854642	0.225031	0.191102
O21	O	2.187976	0.558365	0.524435
Cu22	Cu	1.356880	-0.128078	-0.149551
Cu23	Cu	1.690214	0.205255	0.183782
Cu24	Cu	2.023547	0.538589	0.517115
Cu25	Cu	1.356899	0.128077	-0.149545
Cu26	Cu	1.690233	0.461411	0.183788
Cu27	Cu	2.023566	0.794744	0.517122
O28	O	1.364174	-0.108293	-0.300495
O29	O	1.697507	0.225041	0.032839
O30	O	2.030840	0.558374	0.366172
C31	C	1.150078	0.000001	-0.155945
C32	C	1.483412	0.333335	0.177388
C33	C	1.816745	0.666668	0.510722
C34	C	1.023785	0.000002	-0.153185
C35	C	1.357119	0.333336	0.180148
C36	C	1.690452	0.666669	0.513482
C37	C	0.921221	0.000008	-0.150943
C38	C	1.254555	0.333341	0.182391
C39	C	1.587888	0.666674	0.515724
C40	C	0.792550	0.000008	-0.148138
C41	C	1.125884	0.333342	0.185195
C42	C	1.459217	0.666675	0.518528
N43	N	1.356875	-0.308244	-0.149555
N44	N	1.690208	0.025089	0.183778
N45	N	2.023542	0.358423	0.517112
C46	C	1.356883	-0.426086	-0.149556
C47	C	1.690217	-0.092753	0.183778
C48	C	2.023550	0.240580	0.517111
C49	C	1.356897	-0.573924	-0.149546
C50	C	1.690230	-0.240591	0.183787
C51	C	2.023563	0.092742	0.517120
C52	C	1.563701	0.000001	-0.143151
C53	C	1.897035	0.333334	0.190182
C54	C	2.230368	0.666667	0.523516
C55	C	1.689994	0.000008	-0.145911
C56	C	2.023328	0.333342	0.187422
C57	C	2.356661	0.666675	0.520756
C58	C	1.344671	-0.000008	0.040045
C59	C	1.678004	0.333326	0.373378
C60	C	2.011338	0.666659	0.706711
C61	C	1.329977	-0.000005	0.155205
C62	C	1.663311	0.333328	0.488538
C63	C	1.996644	0.666661	0.821871
N64	N	1.356913	0.308243	-0.149533
N65	N	1.690246	0.641576	0.183801
N66	N	2.023579	0.974910	0.517134
C67	C	1.369109	0.000010	-0.339141
C68	C	1.702442	0.333343	-0.005807
C69	C	2.035775	0.666676	0.327526
C70	C	1.383802	0.000016	-0.454301
C71	C	1.717136	0.333349	-0.120968
C72	C	2.050469	0.666683	0.212366
C73	C	1.506623	0.000020	0.395163
C74	C	1.839956	0.333354	0.728496
C75	C	2.173290	0.666687	1.061830
C76	C	1.492822	0.000023	0.503367
C77	C	1.826156	0.333356	0.836700
C78	C	2.159489	0.666689	1.170034
C79	C	1.288576	0.000011	0.479819
C80	C	1.621909	0.333344	0.813152
C81	C	1.955243	0.666678	1.146485
C82	C	1.302377	0.000009	0.371615
C83	C	1.635710	0.333342	0.704948
C84	C	1.969044	0.666675	1.038282
C85	C	1.411404	0.000011	0.329291
C86	C	1.744737	0.333345	0.662625
C87	C	2.078070	0.666678	0.995958
C88	C	1.425204	-0.000000	0.221085
C89	C	1.758537	0.333333	0.554418
C90	C	2.091870	0.666666	0.887752
C91	C	1.220958	-0.000003	0.197539
C92	C	1.554292	0.333331	0.530872
C93	C	1.887625	0.666664	0.864206
C94	C	1.207158	-0.000000	0.305743
C95	C	1.540491	0.333333	0.639076
C96	C	1.873824	0.666666	0.972410
H97	H	1.595397	0.000010	0.360703
H98	H	1.928730	0.333343	0.694036
H99	H	2.262064	0.666677	1.027369
H100	H	1.143424	-0.000020	0.143894
H101	H	1.476757	0.333313	0.477227
H102	H	1.810091	0.666646	0.810560
H103	H	1.513979	-0.000003	0.186627
H104	H	1.847312	0.333331	0.519961
H105	H	2.180645	0.666664	0.853294
H106	H	1.199811	0.000023	0.514298
H107	H	1.533145	0.333356	0.847632
H108	H	1.866478	0.666689	1.180965
H109	H	1.118391	0.000002	0.340218
H110	H	1.451724	0.333336	0.673552
H111	H	1.785057	0.666669	1.006885
N112	N	1.595521	0.000035	0.574417
N113	N	1.928855	0.333368	0.907750
N114	N	2.262188	0.666702	1.241083
H115	H	1.666679	0.000036	0.531182
H116	H	2.000012	0.333370	0.864515
H117	H	2.333346	0.666703	1.197848
H118	H	1.594242	-0.080261	0.619826
H119	H	1.927575	0.253072	0.953159
H120	H	2.260909	0.586406	1.286492
