data_functionalizedCrystal
_audit_creation_method	'MofGen! by Chris Wilmer'
_symmetry_space_group_name_H-M	'P1'
_symmetry_Int_Tables_number	1
_symmetry_cell_setting	triclinic
loop_
_symmetry_equiv_pos_as_xyz
  x,y,z
_cell_length_a	21.295418
_cell_length_b	21.295417
_cell_length_c	21.395355
_cell_angle_alpha	90.017926
_cell_angle_beta	89.956257
_cell_angle_gamma	89.956327
loop_
_atom_site_label
_atom_site_type_symbol
_atom_site_fract_x
_atom_site_fract_y
_atom_site_fract_z
Zn1	Zn	0.962367	0.250416	-0.354585
Zn2	Zn	0.962275	0.355668	-0.249808
Zn3	Zn	0.857091	0.250446	-0.249787
Zn4	Zn	0.857065	0.355681	-0.354514
O5	O	0.909699	0.303053	-0.302173
O6	O	1.050445	0.264361	-0.340725
O7	O	0.948294	0.341717	-0.162128
O8	O	0.871105	0.162352	-0.263709
O9	O	1.050376	0.341688	-0.263746
O10	O	0.948452	0.162331	-0.340704
O11	O	0.871015	0.264410	-0.162112
O12	O	0.768998	0.264423	-0.263640
O13	O	0.871061	0.341710	-0.442201
O14	O	0.768979	0.341739	-0.340582
O15	O	0.948427	0.264373	-0.442253
O16	O	0.948269	0.443759	-0.263677
O17	O	0.870972	0.443768	-0.340604
C18	C	0.746148	0.303086	-0.302101
C19	C	0.676180	0.303115	-0.302085
C20	C	0.909624	0.466604	-0.302149
C21	C	0.909650	0.536572	-0.302159
C22	C	0.950093	1.036004	-0.262242
C23	C	0.950070	0.970262	-0.262225
C24	C	0.909783	0.937412	-0.302238
C25	C	0.869505	0.970309	-0.342258
C26	C	0.869525	1.036051	-0.342270
N27	N	0.904895	0.834170	-0.357058
N28	N	0.904879	0.771719	-0.357046
C29	C	0.909719	0.739337	-0.302205
N30	N	0.914587	0.771766	-0.247376
N31	N	0.914606	0.834223	-0.247389
C32	C	0.909756	0.866126	-0.302229
C33	C	0.949966	0.635162	-0.262165
C34	C	0.949938	0.569418	-0.262147
C35	C	0.869376	0.569467	-0.342186
C36	C	0.869401	0.635209	-0.342198
C37	C	0.909699	0.668053	-0.302189
C38	C	0.643320	0.343427	-0.342089
C39	C	0.577577	0.343411	-0.342117
C40	C	0.544697	0.303091	-0.302130
C41	C	0.577565	0.262771	-0.262123
C42	C	0.643306	0.262783	-0.262101
N43	N	0.441421	0.298163	-0.247330
N44	N	0.378969	0.298156	-0.247353
C45	C	0.346622	0.303051	-0.302197
N46	N	0.379086	0.307966	-0.357018
N47	N	0.441543	0.307977	-0.356994
C48	C	0.473412	0.303073	-0.302151
C49	C	0.242477	0.343348	-0.342235
C50	C	0.176733	0.343328	-0.342264
C51	C	0.176722	0.262691	-0.262264
C52	C	0.242465	0.262707	-0.262241
C53	C	0.275338	0.303039	-0.302225
C54	C	1.073890	0.303020	-0.302246
C55	C	1.143858	0.303006	-0.302277
C56	C	0.909752	0.303040	-0.465597
C57	C	0.909774	0.303034	-0.535238
C58	C	0.909790	1.138862	-0.302220
C59	C	0.909823	1.068894	-0.302260
C60	C	0.950056	0.262763	-0.567979
C61	C	0.950055	0.262736	-0.633415
C62	C	0.909779	0.302992	-0.666106
C63	C	0.869489	0.343266	-0.633357
C64	C	0.869486	0.343287	-0.567923
C65	C	0.904782	0.359673	-0.769771
C66	C	0.904789	0.359653	-0.835204
C67	C	0.909783	0.302925	-0.867927
C68	C	0.914783	0.246216	-0.835210
C69	C	0.914780	0.246238	-0.769775
C70	C	0.909777	0.302973	-0.737059
C71	C	0.950066	0.262621	-0.971621
C72	C	0.950061	0.262593	-1.037058
C73	C	0.869497	0.343128	-1.036999
C74	C	0.869499	0.343150	-0.971563
C75	C	0.909787	0.302898	-0.938879
C76	C	0.909684	0.303020	-0.139386
C77	C	0.909783	0.302848	-0.069745
H78	H	0.982905	1.062742	-0.229661
H79	H	0.670061	0.229955	-0.229525
H80	H	0.149952	0.229858	-0.229709
C81	C	0.825181	0.387544	-0.669319
N82	N	0.791805	0.420893	-0.696406
C83	C	0.679476	0.387791	-0.386076
N84	N	0.706711	0.421206	-0.419207
C85	C	0.278612	0.218367	-0.218227
N86	N	0.305838	0.184966	-0.185074
H87	H	0.900722	0.405829	-0.861838
H88	H	0.918849	0.200063	-0.743139
C89	C	0.994378	0.934076	-0.218207
N90	N	1.027753	0.906822	-0.185055
C91	C	0.825172	0.387592	-0.531906
N92	N	0.791794	0.420964	-0.504778
C93	C	0.541424	0.387761	-0.386125
N94	N	0.514195	0.421166	-0.419270
C95	C	0.825190	0.934173	-0.386273
N96	N	0.791810	0.906955	-0.419425
H97	H	0.836733	1.062829	-0.374859
H98	H	0.982778	0.661904	-0.229586
C99	C	0.825105	0.671390	-0.386226
N100	N	0.791738	0.698640	-0.419390
C101	C	0.825188	0.387455	-0.935546
N102	N	0.791808	0.420826	-0.908419
C103	C	0.994231	0.533239	-0.218112
N104	N	1.027591	0.505989	-0.184942
H105	H	0.836572	0.542721	-0.374762
C106	C	0.278640	0.387706	-0.386225
N107	N	0.305876	0.421115	-0.419360
C108	C	0.994376	0.218288	-1.073073
N109	N	1.027756	0.184917	-1.100201
H110	H	0.550790	0.229941	-0.229567
H111	H	0.982861	0.229986	-0.541371
C112	C	0.994378	0.218337	-0.935666
N113	N	1.027752	0.184981	-0.908586
H114	H	0.149980	0.376153	-0.374844
H115	H	0.982857	0.229939	-0.660078
H116	H	0.918850	0.200023	-0.861852
H117	H	0.836697	0.375898	-1.063616
C118	C	0.899301	0.422083	-0.733782
N119	N	0.895177	0.469089	-0.706676
