data_functionalizedCrystal
_audit_creation_method	'MofGen! by Chris Wilmer'
_symmetry_space_group_name_H-M	'P1'
_symmetry_Int_Tables_number	1
_symmetry_cell_setting	triclinic
loop_
_symmetry_equiv_pos_as_xyz
  x,y,z
_cell_length_a	17.000371
_cell_length_b	17.019294
_cell_length_c	14.586319
_cell_angle_alpha	86.117240
_cell_angle_beta	89.996083
_cell_angle_gamma	79.505866
loop_
_atom_site_label
_atom_site_type_symbol
_atom_site_fract_x
_atom_site_fract_y
_atom_site_fract_z
O1	O	1.056069	0.028426	-0.078488
O2	O	0.824304	0.057058	-0.080749
O3	O	0.946652	-0.072539	-0.070513
O4	O	0.933721	0.158023	-0.088724
O5	O	0.946644	-0.072540	0.081968
O6	O	0.824296	0.057057	0.071732
O7	O	1.056061	0.028425	0.073993
Cu8	Cu	0.940177	0.042741	0.086785
Cu9	Cu	0.940187	0.042742	-0.093541
O10	O	0.933713	0.158022	0.063757
C11	C	0.794644	0.058596	-0.004630
C12	C	0.706281	0.063169	-0.004991
C13	C	0.674335	-0.007205	0.000569
C14	C	0.591307	-0.002903	0.000223
C15	C	0.540226	0.071773	-0.005677
C16	C	0.572177	0.142151	-0.011241
C17	C	0.655203	0.137849	-0.010901
C18	C	0.289061	0.088391	-0.006996
C19	C	0.206030	0.092688	-0.007333
C20	C	0.225166	-0.052367	0.004129
C21	C	0.308193	-0.056663	0.004474
C22	C	0.340136	0.013716	-0.001095
C23	C	0.455358	0.076171	-0.006029
C24	C	0.425003	0.009316	-0.000750
C25	C	0.946158	-0.101895	0.008044
C26	C	0.944687	-0.189363	0.014947
C27	C	0.944002	-0.230451	-0.064927
C28	C	0.942615	-0.312636	-0.058438
C29	C	0.941918	-0.353732	0.027926
C30	C	0.942600	-0.312638	0.107805
C31	C	0.943982	-0.230454	0.101316
C32	C	0.937742	-0.601875	0.051679
C33	C	0.936363	-0.684066	0.058163
C34	C	0.936376	-0.684057	-0.108081
C35	C	0.937762	-0.601872	-0.114563
C36	C	0.938440	-0.560785	-0.034684
C37	C	0.940503	-0.437739	0.034560
C38	C	0.939850	-0.476778	-0.041320
C39	C	1.085720	0.026888	-0.002128
C40	C	1.174084	0.022315	-0.001773
C41	C	0.934207	0.187378	-0.014802
C42	C	0.935678	0.274846	-0.021711
N43	N	0.940176	0.042739	0.213617
N44	N	0.940195	0.042737	-0.220373
C45	C	0.994370	-0.014630	0.453155
C46	C	0.994372	-0.014632	0.549136
C47	C	0.885996	0.100109	0.540083
C48	C	0.885990	0.100107	0.444104
C49	C	0.940182	0.042738	0.400642
C50	C	0.940189	0.042738	0.592603
C51	C	0.940192	0.042736	0.696670
C52	C	0.940179	0.042739	0.296568
H53	H	0.349778	-0.117472	0.009282
O54	O	0.517080	0.222693	-0.017600
H55	H	0.528422	0.256645	-0.082434
O56	O	1.052797	-0.076526	0.406283
H57	H	1.043690	-0.066893	0.330719
O58	O	0.935624	-0.728403	0.151313
H59	H	0.880777	-0.755072	0.157390
O60	O	0.939764	-0.482079	0.127703
H61	H	0.885799	-0.455528	0.165472
O62	O	0.938493	-0.557567	0.137830
H63	H	0.937791	-0.599957	0.198972
O64	O	0.827542	0.161981	0.387449
H65	H	0.837614	0.222787	0.401047
H66	H	0.715920	-0.068015	0.005377
H67	H	0.565302	-0.060209	0.004749
O68	O	0.940597	-0.432459	-0.134469
H69	H	0.995456	-0.405811	-0.140547
H70	H	0.466597	-0.051484	0.004049
H71	H	1.038496	-0.061347	0.591890
H72	H	0.942028	-0.346105	0.178124
H73	H	0.841875	0.146819	0.575479
H74	H	0.164441	0.153502	-0.012133
O75	O	0.190715	-0.128274	0.010126
H76	H	0.124400	-0.112741	0.008892
H77	H	0.315059	0.145699	-0.011536
O78	O	0.944729	-0.186133	0.187464
H79	H	0.944022	-0.228517	0.248609
O80	O	0.689661	0.213754	-0.016885
H81	H	0.669136	0.249363	-0.081841
O82	O	0.400256	0.156710	-0.012379
H83	H	0.411596	0.190668	-0.077211
O84	O	0.944747	-0.186124	-0.158076
H85	H	0.944028	-0.228504	-0.212527
O86	O	0.941837	-0.356947	-0.144587
H87	H	0.942549	-0.314562	-0.205730
H88	H	0.938331	-0.568417	-0.184890
H89	H	0.935822	-0.717520	-0.173115
