data_functionalizedCrystal
_audit_creation_method	'MofGen! by Chris Wilmer'
_symmetry_space_group_name_H-M	'P1'
_symmetry_Int_Tables_number	1
_symmetry_cell_setting	triclinic
loop_
_symmetry_equiv_pos_as_xyz
  x,y,z
_cell_length_a	16.120490
_cell_length_b	16.120484
_cell_length_c	12.759387
_cell_angle_alpha	87.136336
_cell_angle_beta	92.915495
_cell_angle_gamma	90.164100
loop_
_atom_site_label
_atom_site_type_symbol
_atom_site_fract_x
_atom_site_fract_y
_atom_site_fract_z
Zn1	Zn	1.254476	-0.395624	0.699331
Zn2	Zn	1.247319	-0.534696	0.532064
Zn3	Zn	1.115415	-0.388597	0.514341
Zn4	Zn	1.108328	-0.527569	0.698374
O5	O	1.181385	-0.461621	0.611028
O6	O	1.369892	-0.419995	0.684960
O7	O	1.229793	-0.515357	0.382692
O8	O	1.139823	-0.273167	0.531864
O9	O	1.364634	-0.522171	0.562070
O10	O	1.241991	-0.278329	0.667776
O11	O	1.132883	-0.408019	0.369672
O12	O	0.998109	-0.401109	0.530936
O13	O	1.127744	-0.510024	0.845521
O14	O	0.992903	-0.503211	0.666144
O15	O	1.235118	-0.413085	0.846225
O16	O	1.222920	-0.650113	0.561141
O17	O	1.120804	-0.644877	0.683329
C18	C	0.965334	-0.450624	0.596514
C19	C	0.872905	-0.445940	0.590331
C20	C	0.659935	-0.485914	0.643101
C21	C	0.703682	-0.437395	0.579041
C22	C	0.797846	-0.442151	0.585325
C23	C	0.565762	-0.481159	0.636819
C24	C	1.170339	-0.677667	0.624079
C25	C	1.165690	-0.770096	0.629702
C26	C	1.157207	-0.939326	0.639992
C27	C	1.205712	-0.983084	0.582091
C28	C	1.200991	-1.077249	0.587816
C29	C	1.161926	-0.845152	0.634268
C30	C	1.398279	-0.472662	0.625599
C31	C	1.490707	-0.477367	0.631808
C32	C	1.181439	-0.461543	0.885060
C33	C	1.181462	-0.461510	1.001836
C34	C	1.192496	-0.244733	0.597950
C35	C	1.197231	-0.152308	0.592377
C36	C	1.181381	-0.461642	0.338061
C37	C	1.181531	-0.461449	0.221282
C38	C	1.282435	-0.573227	1.234820
C39	C	1.332874	-0.629128	1.186728
C40	C	1.332845	-0.629159	1.077006
C41	C	1.282370	-0.573283	1.015373
C42	C	1.231930	-0.517381	1.063465
C43	C	1.231967	-0.517356	1.173190
C44	C	1.131023	-0.405609	1.049928
C45	C	1.131056	-0.405573	1.159649
C46	C	1.080548	-0.349733	0.988295
C47	C	1.030112	-0.293826	1.036387
C48	C	1.030144	-0.293798	1.146116
C49	C	1.080616	-0.349672	1.207741
H50	H	0.693201	-0.531022	0.702658
H51	H	1.250782	-0.949825	0.528220
O52	O	1.387314	-0.689396	1.253197
H53	H	1.431551	-0.654322	1.303773
O54	O	1.080746	-0.349616	1.326089
H55	H	1.060765	-0.411463	1.357736
H56	H	0.989015	-0.248340	0.986197
H57	H	1.112138	-0.972582	0.693857
H58	H	1.282472	-0.573200	1.324162
O59	O	1.387251	-0.689444	1.025124
H60	H	1.422360	-0.728288	1.086409
H61	H	0.670414	-0.392284	0.519479
H62	H	1.282343	-0.573319	0.926033
O63	O	1.080517	-0.349755	0.869952
H64	H	1.124077	-0.398006	0.846862
O65	O	0.975744	-0.233500	1.197987
H66	H	0.940650	-0.194652	1.136693
