data_functionalizedCrystal
_audit_creation_method	'MofGen! by Chris Wilmer'
_symmetry_space_group_name_H-M	'P1'
_symmetry_Int_Tables_number	1
_symmetry_cell_setting	triclinic
loop_
_symmetry_equiv_pos_as_xyz
  x,y,z
_cell_length_a	16.625548
_cell_length_b	29.839131
_cell_length_c	16.625539
_cell_angle_alpha	90.032094
_cell_angle_beta	90.020568
_cell_angle_gamma	90.042488
loop_
_atom_site_label
_atom_site_type_symbol
_atom_site_fract_x
_atom_site_fract_y
_atom_site_fract_z
Zn1	Zn	1.232574	-0.178840	0.455888
Zn2	Zn	1.482574	0.071160	0.705888
Zn3	Zn	1.732574	0.321160	0.955888
Zn4	Zn	1.982574	0.571160	1.205888
Zn5	Zn	1.232433	-0.253971	0.321046
Zn6	Zn	1.482433	-0.003971	0.571046
Zn7	Zn	1.732433	0.246029	0.821046
Zn8	Zn	1.982433	0.496029	1.071046
Zn9	Zn	1.097736	-0.178857	0.321069
Zn10	Zn	1.347736	0.071143	0.571069
Zn11	Zn	1.597736	0.321143	0.821069
Zn12	Zn	1.847736	0.571143	1.071069
Zn13	Zn	1.097662	-0.253945	0.455836
Zn14	Zn	1.347662	-0.003945	0.705836
Zn15	Zn	1.597662	0.246055	0.955836
Zn16	Zn	1.847662	0.496055	1.205836
O17	O	1.165101	-0.216403	0.388460
O18	O	1.415101	0.033597	0.638460
O19	O	1.665101	0.283597	0.888460
O20	O	1.915101	0.533597	1.138460
O21	O	1.345388	-0.188810	0.438013
O22	O	1.595388	0.061190	0.688013
O23	O	1.845388	0.311190	0.938013
O24	O	2.095388	0.561190	1.188013
O25	O	1.214537	-0.244025	0.208217
O26	O	1.464537	0.005975	0.458217
O27	O	1.714537	0.255975	0.708217
O28	O	1.964537	0.505975	0.958217
O29	O	1.115713	-0.115987	0.338984
O30	O	1.365713	0.134013	0.588984
O31	O	1.615713	0.384013	0.838984
O32	O	1.865713	0.634013	1.088984
O33	O	1.345284	-0.244008	0.338946
O34	O	1.595284	0.005992	0.588946
O35	O	1.845284	0.255992	0.838946
O36	O	2.095284	0.505992	1.088946
O37	O	1.214778	-0.115975	0.438035
O38	O	1.464778	0.134025	0.688035
O39	O	1.714778	0.384025	0.938035
O40	O	1.964778	0.634025	1.188035
O41	O	1.115576	-0.188839	0.208233
O42	O	1.365576	0.061161	0.458233
O43	O	1.615576	0.311161	0.708233
O44	O	1.865576	0.561161	0.958233
O45	O	0.984894	-0.188814	0.338933
O46	O	1.234894	0.061186	0.588933
O47	O	1.484894	0.311186	0.838933
O48	O	1.734894	0.561186	1.088933
O49	O	1.115586	-0.243964	0.568676
O50	O	1.365586	0.006036	0.818676
O51	O	1.615586	0.256036	1.068676
O52	O	1.865586	0.506036	1.318676
O53	O	0.984839	-0.243981	0.437947
O54	O	1.234839	0.006019	0.687947
O55	O	1.484839	0.256019	0.937947
O56	O	1.734839	0.506019	1.187947
O57	O	1.214706	-0.188785	0.568714
O58	O	1.464706	0.061215	0.818714
O59	O	1.714706	0.311215	1.068714
O60	O	1.964706	0.561215	1.318714
O61	O	1.214465	-0.316834	0.338896
O62	O	1.464465	-0.066834	0.588896
O63	O	1.714465	0.183166	0.838896
O64	O	1.964465	0.433166	1.088896
O65	O	1.115449	-0.316815	0.437925
O66	O	1.365449	-0.066815	0.687925
O67	O	1.615449	0.183185	0.937925
O68	O	1.865449	0.433185	1.187925
C69	C	0.955610	-0.216397	0.388437
C70	C	1.205610	0.033603	0.638437
C71	C	1.455610	0.283603	0.888437
C72	C	1.705610	0.533603	1.138437
C73	C	0.865989	-0.216405	0.388447
C74	C	1.115989	0.033595	0.638447
C75	C	1.365989	0.283595	0.888447
C76	C	1.615989	0.533595	1.138447
C77	C	0.537814	-0.216408	0.388481
C78	C	0.787814	0.033592	0.638481
C79	C	1.037814	0.283592	0.888481
C80	C	1.287814	0.533592	1.138481
C81	C	0.629122	-0.216406	0.388469
C82	C	0.879122	0.033594	0.638469
C83	C	1.129122	0.283594	0.888469
C84	C	1.379122	0.533594	1.138469
C85	C	0.701899	-0.216406	0.388463
C86	C	0.951899	0.033594	0.638463
C87	C	1.201899	0.283594	0.888463
C88	C	1.451899	0.533594	1.138463
C89	C	0.793213	-0.216404	0.388452
C90	C	1.043213	0.033596	0.638452
C91	C	1.293213	0.283596	0.888452
C92	C	1.543213	0.533596	1.138452
C93	C	1.164956	-0.333126	0.388420
C94	C	1.414956	-0.083126	0.638420
C95	C	1.664956	0.166874	0.888420
C96	C	1.914956	0.416874	1.138420
C97	C	1.164967	-0.383060	0.388430
C98	C	1.414967	-0.133060	0.638430
C99	C	1.664967	0.116940	0.888430
C100	C	1.914967	0.366940	1.138430
C101	C	1.216752	-0.692701	0.336971
C102	C	1.466752	-0.442701	0.586971
C103	C	1.716752	-0.192701	0.836971
C104	C	1.966752	0.057299	1.086971
C105	C	1.216852	-0.880374	0.337002
C106	C	1.466852	-0.630374	0.587002
C107	C	1.716852	-0.380374	0.837002
C108	C	1.966852	-0.130374	1.087002
O109	O	1.260766	-0.904636	0.293219
O110	O	1.510766	-0.654636	0.543219
O111	O	1.760766	-0.404636	0.793219
O112	O	2.010766	-0.154636	1.043219
N113	N	1.165268	-0.903845	0.388521
N114	N	1.415268	-0.653845	0.638521
N115	N	1.665268	-0.403845	0.888521
N116	N	1.915268	-0.153845	1.138521
C117	C	1.113660	-0.880395	0.440039
C118	C	1.363660	-0.630395	0.690039
C119	C	1.613660	-0.380395	0.940039
C120	C	1.863660	-0.130395	1.190039
O121	O	1.069793	-0.904665	0.483866
O122	O	1.319793	-0.654665	0.733866
O123	O	1.569793	-0.404665	0.983866
O124	O	1.819793	-0.154665	1.233866
C125	C	1.113565	-0.692723	0.440011
C126	C	1.363565	-0.442723	0.690011
C127	C	1.613565	-0.192723	0.940011
C128	C	1.863565	0.057277	1.190011
C129	C	1.165146	-0.669254	0.388483
C130	C	1.415146	-0.419254	0.638483
C131	C	1.665146	-0.169254	0.888483
C132	C	1.915146	0.080746	1.138483
C133	C	1.268330	-0.669232	0.285447
C134	C	1.518330	-0.419232	0.535447
C135	C	1.768330	-0.169232	0.785447
C136	C	2.018330	0.080768	1.035447
C137	C	1.268302	-0.622316	0.285437
C138	C	1.518302	-0.372316	0.535437
C139	C	1.768302	-0.122316	0.785437
C140	C	2.018302	0.127684	1.035437
C141	C	1.216695	-0.598870	0.336950
C142	C	1.466695	-0.348870	0.586950
C143	C	1.716695	-0.098870	0.836950
C144	C	1.966695	0.151130	1.086950
C145	C	1.165118	-0.622339	0.388473
C146	C	1.415118	-0.372339	0.638473
C147	C	1.665118	-0.122339	0.888473
C148	C	1.915118	0.127661	1.138473
C149	C	1.061962	-0.669274	0.491533
C150	C	1.311962	-0.419274	0.741533
C151	C	1.561962	-0.169274	0.991533
C152	C	1.811962	0.080726	1.241533
C153	C	1.061944	-0.622353	0.491523
C154	C	1.311944	-0.372353	0.741523
C155	C	1.561944	-0.122353	0.991523
C156	C	1.811944	0.127647	1.241523
C157	C	1.113525	-0.598884	0.439995
C158	C	1.363525	-0.348884	0.689995
C159	C	1.613525	-0.098884	0.939995
C160	C	1.863525	0.151116	1.189995
C161	C	1.113483	-0.551977	0.439975
C162	C	1.363483	-0.301977	0.689975
C163	C	1.613483	-0.051977	0.939975
C164	C	1.863483	0.198023	1.189975
N165	N	1.165067	-0.528505	0.388456
N166	N	1.415067	-0.278505	0.638456
N167	N	1.665067	-0.028505	0.888456
N168	N	1.915067	0.221495	1.138456
C169	C	1.216673	-0.551952	0.336944
C170	C	1.466673	-0.301952	0.586944
C171	C	1.716673	-0.051952	0.836944
C172	C	1.966673	0.198048	1.086944
C173	C	1.113712	-0.978926	0.440049
C174	C	1.363712	-0.728926	0.690049
C175	C	1.613712	-0.478926	0.940049
C176	C	1.863712	-0.228926	1.190049
C177	C	1.113735	-1.025844	0.440055
C178	C	1.363735	-0.775844	0.690055
C179	C	1.613735	-0.525844	0.940055
C180	C	1.863735	-0.275844	1.190055
C181	C	1.216928	-1.025819	0.337019
C182	C	1.466928	-0.775819	0.587019
C183	C	1.716928	-0.525819	0.837019
C184	C	1.966928	-0.275819	1.087019
C185	C	1.216901	-0.978900	0.337009
C186	C	1.466901	-0.728900	0.587009
C187	C	1.716901	-0.478900	0.837009
C188	C	1.966901	-0.228900	1.087009
C189	C	1.165296	-0.955455	0.388530
C190	C	1.415296	-0.705455	0.638530
C191	C	1.665296	-0.455455	0.888530
C192	C	1.915296	-0.205455	1.138530
C193	C	1.216609	-0.453426	0.336925
C194	C	1.466609	-0.203426	0.586925
C195	C	1.716609	0.046574	0.836925
C196	C	1.966609	0.296574	1.086925
C197	C	1.216573	-0.406506	0.336917
C198	C	1.466573	-0.156506	0.586917
C199	C	1.716573	0.093494	0.836917
C200	C	1.966573	0.343494	1.086917
C201	C	1.113383	-0.406535	0.439956
C202	C	1.363383	-0.156535	0.689956
C203	C	1.613383	0.093465	0.939956
C204	C	1.863383	0.343465	1.189956
C205	C	1.113416	-0.453451	0.439962
C206	C	1.363416	-0.203451	0.689962
C207	C	1.613416	0.046549	0.939962
C208	C	1.863416	0.296549	1.189962
C209	C	1.165035	-0.476895	0.388443
C210	C	1.415035	-0.226895	0.638443
C211	C	1.665035	0.023105	0.888443
C212	C	1.915035	0.273105	1.138443
O213	O	1.069599	-0.527685	0.483742
O214	O	1.319599	-0.277685	0.733742
O215	O	1.569599	-0.027685	0.983742
O216	O	1.819599	0.222315	1.233742
O217	O	1.260546	-0.527674	0.293136
O218	O	1.510546	-0.277674	0.543136
O219	O	1.760546	-0.027674	0.793136
O220	O	2.010546	0.222326	1.043136
C221	C	1.216781	-0.739616	0.336981
C222	C	1.466781	-0.489616	0.586981
C223	C	1.716781	-0.239616	0.836981
C224	C	1.966781	0.010384	1.086981
C225	C	1.165203	-0.763085	0.388504
C226	C	1.415203	-0.513085	0.638504
C227	C	1.665203	-0.263085	0.888504
C228	C	1.915203	-0.013085	1.138504
C229	C	1.113597	-0.739639	0.440017
C230	C	1.363597	-0.489639	0.690017
C231	C	1.613597	-0.239639	0.940017
C232	C	1.863597	0.010361	1.190017
C233	C	1.165226	-0.810003	0.388510
C234	C	1.415226	-0.560003	0.638510
C235	C	1.665226	-0.310003	0.888510
C236	C	1.915226	-0.060003	1.138510
C237	C	1.216832	-0.833449	0.336997
C238	C	1.466832	-0.583449	0.586997
C239	C	1.716832	-0.333449	0.836997
C240	C	1.966832	-0.083449	1.086997
C241	C	1.268416	-0.809978	0.285479
C242	C	1.518416	-0.559978	0.535479
C243	C	1.768416	-0.309978	0.785479
C244	C	2.018416	-0.059978	1.035479
C245	C	1.268387	-0.763062	0.285468
C246	C	1.518387	-0.513062	0.535468
C247	C	1.768387	-0.263062	0.785468
C248	C	2.018387	-0.013062	1.035468
C249	C	1.062014	-0.763110	0.491536
C250	C	1.312014	-0.513110	0.741536
C251	C	1.562014	-0.263110	0.991536
C252	C	1.812014	-0.013110	1.241536
C253	C	1.062046	-0.810026	0.491541
C254	C	1.312046	-0.560026	0.741541
C255	C	1.562046	-0.310026	0.991541
C256	C	1.812046	-0.060026	1.241541
C257	C	1.113652	-0.833472	0.440028
C258	C	1.363652	-0.583472	0.690028
C259	C	1.613652	-0.333472	0.940028
C260	C	1.863652	-0.083472	1.190028
C261	C	1.375410	-0.216410	0.388483
C262	C	1.625410	0.033590	0.638483
C263	C	1.875410	0.283590	0.888483
C264	C	2.125410	0.533590	1.138483
C265	C	1.465031	-0.216413	0.388493
C266	C	1.715031	0.033587	0.638493
C267	C	1.965031	0.283587	0.888493
C268	C	2.215031	0.533587	1.138493
C269	C	1.165154	-0.216370	0.598769
C270	C	1.415154	0.033630	0.848769
C271	C	1.665154	0.283630	1.098769
C272	C	1.915154	0.533630	1.348769
C273	C	1.165176	-0.216355	0.688390
C274	C	1.415176	0.033645	0.938390
C275	C	1.665176	0.283645	1.188390
C276	C	1.915176	0.533645	1.438390
C277	C	1.165269	-0.099225	0.388518
C278	C	1.415269	0.150775	0.638518
C279	C	1.665269	0.400775	0.888518
C280	C	1.915269	0.650775	1.138518
C281	C	1.165341	-0.049290	0.388542
C282	C	1.415341	0.200710	0.638542
C283	C	1.665341	0.450710	0.888542
C284	C	1.915341	0.700710	1.138542
C285	C	1.165095	-0.216404	0.178969
C286	C	1.415095	0.033596	0.428969
C287	C	1.665095	0.283596	0.678969
C288	C	1.915095	0.533596	0.928969
C289	C	1.165229	-0.216292	0.089348
C290	C	1.415229	0.033708	0.339348
C291	C	1.665229	0.283708	0.589348
C292	C	1.915229	0.533708	0.839348
C293	C	1.165213	-0.216305	1.016566
C294	C	1.415213	0.033695	1.266566
C295	C	1.665213	0.283695	1.516566
C296	C	1.915213	0.533695	1.766566
C297	C	1.165201	-0.216320	0.925257
C298	C	1.415201	0.033680	1.175257
C299	C	1.665201	0.283680	1.425257
C300	C	1.915201	0.533680	1.675257
C301	C	1.165195	-0.216330	0.852481
C302	C	1.415195	0.033670	1.102481
C303	C	1.665195	0.283670	1.352481
C304	C	1.915195	0.533670	1.602481
C305	C	1.165182	-0.216345	0.761167
C306	C	1.415182	0.033655	1.011167
C307	C	1.665182	0.283655	1.261167
C308	C	1.915182	0.533655	1.511167
H309	H	1.258577	-0.387399	0.294954
H310	H	1.508577	-0.137399	0.544954
H311	H	1.758577	0.112601	0.794954
H312	H	2.008577	0.362601	1.044954
H313	H	1.071417	-0.472560	0.481922
H314	H	1.321417	-0.222560	0.731922
H315	H	1.571417	0.027440	0.981922
H316	H	1.821417	0.277440	1.231922
C317	C	1.273382	-0.479208	0.280251
C318	C	1.523382	-0.229208	0.530251
C319	C	1.773382	0.020792	0.780251
C320	C	2.023382	0.270792	1.030251
H321	H	1.304086	-0.458506	0.249562
H322	H	1.554086	-0.208506	0.499562
H323	H	1.804086	0.041494	0.749562
H324	H	2.054086	0.291494	0.999562
H325	H	1.308513	-0.497480	0.311120
H326	H	1.558513	-0.247480	0.561120
H327	H	1.808513	0.002520	0.811120
H328	H	2.058513	0.252520	1.061120
H329	H	1.242562	-0.497540	0.245089
H330	H	1.492562	-0.247540	0.495089
H331	H	1.742562	0.002460	0.745089
H332	H	1.992562	0.252460	0.995089
H333	H	1.258903	-0.959794	0.295051
H334	H	1.508903	-0.709794	0.545051
H335	H	1.758903	-0.459794	0.795051
H336	H	2.008903	-0.209794	1.045051
H337	H	1.019955	-0.688375	0.533489
H338	H	1.269955	-0.438375	0.783489
H339	H	1.519955	-0.188375	1.033489
H340	H	1.769955	0.061625	1.283489
C341	C	1.273691	-1.051616	0.280354
C342	C	1.523691	-0.801616	0.530354
C343	C	1.773691	-0.551616	0.780354
C344	C	2.023691	-0.301616	1.030354
H345	H	1.266315	-1.082919	0.287744
H346	H	1.516315	-0.832919	0.537744
H347	H	1.766315	-0.582919	0.787744
H348	H	2.016315	-0.332919	1.037744
H349	H	1.261923	-1.043954	0.226165
H350	H	1.511923	-0.793954	0.476165
H351	H	1.761923	-0.543954	0.726165
H352	H	2.011923	-0.293954	0.976165
H353	H	1.327860	-1.043895	0.292209
H354	H	1.577860	-0.793895	0.542209
H355	H	1.827860	-0.543895	0.792209
H356	H	2.077860	-0.293895	1.042209
H357	H	1.019991	-0.744024	0.533485
H358	H	1.269991	-0.494024	0.783485
H359	H	1.519991	-0.244024	1.033485
H360	H	1.769991	0.005976	1.283485
H361	H	1.310389	-0.743957	0.243509
H362	H	1.560389	-0.493957	0.493509
H363	H	1.810389	-0.243957	0.743509
H364	H	2.060389	0.006043	0.993509
C365	C	1.325097	-0.695016	0.228774
C366	C	1.575097	-0.445016	0.478774
C367	C	1.825097	-0.195016	0.728774
C368	C	2.075097	0.054984	0.978774
H369	H	1.355802	-0.674312	0.198088
H370	H	1.605802	-0.424312	0.448088
H371	H	1.855802	-0.174312	0.698088
H372	H	2.105802	0.075688	0.948088
H373	H	1.360227	-0.713290	0.259639
H374	H	1.610227	-0.463290	0.509639
H375	H	1.860227	-0.213290	0.759639
H376	H	2.110227	0.036710	1.009639
H377	H	1.294276	-0.713345	0.193609
H378	H	1.544276	-0.463345	0.443609
H379	H	1.794276	-0.213345	0.693609
H380	H	2.044276	0.036655	0.943609
H381	H	1.071725	-1.044948	0.482007
H382	H	1.321725	-0.794948	0.732007
H383	H	1.571725	-0.544948	0.982007
H384	H	1.821725	-0.294948	1.232007
C385	C	1.056935	-0.953141	0.496717
C386	C	1.306935	-0.703141	0.746717
C387	C	1.556935	-0.453141	0.996717
C388	C	1.806935	-0.203141	1.246717
H389	H	1.026215	-0.973844	0.527390
H390	H	1.276215	-0.723844	0.777390
H391	H	1.526215	-0.473844	1.027390
H392	H	1.776215	-0.223844	1.277390
H393	H	1.087738	-0.934807	0.531882
H394	H	1.337738	-0.684807	0.781882
H395	H	1.587738	-0.434807	1.031882
H396	H	1.837738	-0.184807	1.281882
H397	H	1.021807	-0.934872	0.465831
H398	H	1.271807	-0.684872	0.715831
H399	H	1.521807	-0.434872	0.965831
H400	H	1.771807	-0.184872	1.215831
C401	C	1.005177	-0.596566	0.548198
C402	C	1.255177	-0.346566	0.798198
C403	C	1.505177	-0.096566	1.048198
C404	C	1.755177	0.153434	1.298198
H405	H	0.974462	-0.617265	0.578880
H406	H	1.224462	-0.367265	0.828880
H407	H	1.474462	-0.117265	1.078880
H408	H	1.724462	0.132735	1.328880
H409	H	1.035992	-0.578232	0.583354
H410	H	1.285992	-0.328232	0.833354
H411	H	1.535992	-0.078232	1.083354
H412	H	1.785992	0.171768	1.333354
H413	H	0.970045	-0.578296	0.517319
H414	H	1.220045	-0.328296	0.767319
H415	H	1.470045	-0.078296	1.017319
H416	H	1.720045	0.171704	1.267319
C417	C	1.325051	-0.596506	0.228766
C418	C	1.575051	-0.346506	0.478766
C419	C	1.825051	-0.096506	0.728766
C420	C	2.075051	0.153494	0.978766
H421	H	1.355792	-0.617195	0.198099
H422	H	1.605792	-0.367195	0.448099
H423	H	1.855792	-0.117195	0.698099
H424	H	2.105792	0.132805	0.948099
H425	H	1.294229	-0.578232	0.193596
H426	H	1.544229	-0.328232	0.443596
H427	H	1.794229	-0.078232	0.693596
H428	H	2.044229	0.171768	0.943596
H429	H	1.360161	-0.578175	0.259646
H430	H	1.610161	-0.328175	0.509646
H431	H	1.860161	-0.078175	0.759646
H432	H	2.110161	0.171825	1.009646
H433	H	1.071364	-0.387438	0.481895
H434	H	1.321364	-0.137438	0.731895
H435	H	1.571364	0.112562	0.981895
H436	H	1.821364	0.362562	1.231895
C437	C	1.325180	-0.835775	0.228815
C438	C	1.575180	-0.585775	0.478815
C439	C	1.825180	-0.335775	0.728815
C440	C	2.075180	-0.085775	0.978815
H441	H	1.317807	-0.867078	0.236210
H442	H	1.567807	-0.617078	0.486210
H443	H	1.817807	-0.367078	0.736210
H444	H	2.067807	-0.117078	0.986210
H445	H	1.313410	-0.828116	0.174626
H446	H	1.563410	-0.578116	0.424626
H447	H	1.813410	-0.328116	0.674626
H448	H	2.063410	-0.078116	0.924626
H449	H	1.379348	-0.828052	0.240669
H450	H	1.629348	-0.578052	0.490669
H451	H	1.879348	-0.328052	0.740669
H452	H	2.129348	-0.078052	0.990669
C453	C	1.005304	-0.835836	0.548228
C454	C	1.255304	-0.585836	0.798228
C455	C	1.505304	-0.335836	1.048228
C456	C	1.755304	-0.085836	1.298228
H457	H	0.974574	-0.815149	0.578908
H458	H	1.224574	-0.565149	0.828908
H459	H	1.474574	-0.315149	1.078908
H460	H	1.724574	-0.065149	1.328908
H461	H	0.970196	-0.854174	0.517366
H462	H	1.220196	-0.604174	0.767366
H463	H	1.470196	-0.354174	1.017366
H464	H	1.720196	-0.104174	1.267366
H465	H	1.036149	-0.854104	0.583396
H466	H	1.286149	-0.604104	0.833396
H467	H	1.536149	-0.354104	1.083396
H468	H	1.786149	-0.104104	1.333396
