data_functionalizedCrystal
_audit_creation_method	'MofGen! by Chris Wilmer'
_symmetry_space_group_name_H-M	'P1'
_symmetry_Int_Tables_number	1
_symmetry_cell_setting	triclinic
loop_
_symmetry_equiv_pos_as_xyz
  x,y,z
_cell_length_a	6.817900
_cell_length_b	11.102289
_cell_length_c	14.125465
_cell_angle_alpha	94.634960
_cell_angle_beta	100.398878
_cell_angle_gamma	108.605707
loop_
_atom_site_label
_atom_site_type_symbol
_atom_site_fract_x
_atom_site_fract_y
_atom_site_fract_z
V1	V	-4.017267	-0.174747	-0.299976
O2	O	-3.978094	0.009521	-0.294266
O3	O	-3.994689	-0.347575	-0.297924
O4	O	-3.952937	-0.171566	-0.430806
O5	O	-4.020135	-0.167706	-0.160464
V6	V	-4.499614	-0.152765	-0.283289
O7	O	-4.281107	-0.222967	-0.336580
O8	O	-4.685971	-0.104545	-0.246686
O9	O	-4.298985	0.020063	-0.285341
O10	O	-4.656184	-0.337033	-0.289000
O11	O	-4.614143	-0.159806	-0.422801
O12	O	-4.340737	-0.155946	-0.152459
C13	C	-3.846487	-0.389722	-0.293192
C14	C	-3.909207	-0.531008	-0.292387
C15	C	-4.121172	-0.603840	-0.296808
C16	C	-4.180096	-0.736594	-0.296059
C17	C	-3.815066	-0.723671	-0.286464
C18	C	-3.756148	-0.590921	-0.287220
C19	C	-4.331919	-0.611301	-0.302343
C20	C	-4.390842	-0.744056	-0.301594
C21	C	-3.793227	-0.165204	-0.462695
C22	C	-3.822084	-0.163747	-0.569649
C23	C	-3.874978	-0.161075	-0.765472
C24	C	-4.061271	-0.166435	-0.817793
C25	C	-4.090704	-0.164948	-0.926756
C26	C	-3.845537	-0.162561	-0.656500
C27	C	-4.110531	0.062203	-0.290071
C28	C	-4.027048	0.203488	-0.290883
C29	C	-4.163791	-0.162312	-0.120566
C30	C	-4.114171	-0.163763	-0.013611
H31	H	-3.690459	-0.772469	-0.282259
O32	O	-3.711163	-0.154110	-0.809743
C33	C	-3.663014	-0.042399	-0.854518
H34	H	-3.807824	-0.010826	-0.869347
H35	H	-3.617059	-0.063634	-0.926117
H36	H	-3.525225	0.037594	-0.804299
H37	H	-3.583555	-0.531627	-0.283631
H38	H	-4.500253	-0.801663	-0.372872
H39	H	-4.421798	-0.591826	-0.372314
O40	O	-4.476767	-0.774365	-0.223247
C41	C	-4.535910	-0.908079	-0.222622
H42	H	-4.560917	-0.958957	-0.299486
H43	H	-4.689460	-0.943355	-0.195731
H44	H	-4.405184	-0.930049	-0.172144
O45	O	-4.357217	-0.547880	-0.221462
C46	C	-4.295219	-0.415209	-0.227036
H47	H	-4.181128	-0.390854	-0.278149
H48	H	-4.213169	-0.358478	-0.151483
H49	H	-4.441224	-0.389012	-0.255980
O50	O	-4.224997	-0.173312	-0.773469
C51	C	-4.158704	-0.173276	-0.672964
H52	H	-4.017541	-0.208412	-0.659917
H53	H	-4.294530	-0.239813	-0.645135
H54	H	-4.110438	-0.071579	-0.632568
