data_functionalizedCrystal
_audit_creation_method	'MofGen! by Chris Wilmer'
_symmetry_space_group_name_H-M	'P1'
_symmetry_Int_Tables_number	1
_symmetry_cell_setting	triclinic
loop_
_symmetry_equiv_pos_as_xyz
  x,y,z
_cell_length_a	12.594517
_cell_length_b	18.050590
_cell_length_c	12.594509
_cell_angle_alpha	90.032829
_cell_angle_beta	90.021327
_cell_angle_gamma	90.018352
loop_
_atom_site_label
_atom_site_type_symbol
_atom_site_fract_x
_atom_site_fract_y
_atom_site_fract_z
Zn1	Zn	1.627248	-0.295641	0.601826
Zn2	Zn	1.627132	-0.419845	0.423833
Zn3	Zn	1.449252	-0.295673	0.423855
Zn4	Zn	1.449227	-0.419793	0.601763
O5	O	1.538215	-0.357738	0.512819
O6	O	1.776179	-0.312125	0.578232
O7	O	1.603497	-0.403408	0.274890
O8	O	1.472924	-0.191744	0.447498
O9	O	1.776093	-0.403377	0.447462
O10	O	1.603697	-0.191721	0.578253
O11	O	1.472810	-0.312179	0.274906
O12	O	1.300303	-0.312129	0.447438
O13	O	1.472880	-0.403289	0.750717
O14	O	1.300284	-0.403320	0.578146
O15	O	1.603672	-0.312075	0.750764
O16	O	1.603472	-0.523763	0.447401
O17	O	1.472767	-0.523725	0.578125
C18	C	1.261674	-0.357723	0.512788
C19	C	1.143368	-0.357735	0.512800
C20	C	1.074095	-0.308068	0.441843
C21	C	1.003279	-0.375810	0.415655
C22	C	1.003385	-0.290026	0.539006
C23	C	1.074111	-0.425512	0.486561
C24	C	1.074223	-0.339682	0.609957
C25	C	1.003440	-0.407471	0.583806
C26	C	1.538133	-0.550690	0.512777
C27	C	1.538195	-0.633236	0.512794
C28	C	1.609421	-0.832680	0.441806
C29	C	1.635423	-0.882008	0.538949
C30	C	1.538256	-0.784366	0.512837
C31	C	1.512362	-0.882120	0.415737
C32	C	1.538316	-0.930351	0.512869
C33	C	1.564308	-0.832606	0.610031
C34	C	1.441201	-0.832715	0.486754
C35	C	1.467167	-0.882020	0.583964
C36	C	1.538224	-0.700268	0.512817
C37	C	1.538348	-1.014448	0.512900
C38	C	1.815836	-0.357753	0.512851
C39	C	1.934141	-0.357760	0.512865
C40	C	1.538286	-0.357673	0.790440
C41	C	1.538316	-0.357645	0.908746
C42	C	1.538326	-0.164032	0.512885
C43	C	1.538373	-0.081487	0.512913
C44	C	1.538205	-0.357749	0.236278
C45	C	1.538381	-0.357568	0.117973
C46	C	1.467201	-0.407228	0.977974
C47	C	1.564321	-0.425374	1.048762
C48	C	1.441273	-0.339455	1.048757
C49	C	1.635487	-0.375826	0.977976
C50	C	1.512373	-0.289876	0.977964
C51	C	1.609560	-0.307996	1.048721
H52	H	1.105118	-0.266108	0.381763
C53	C	0.961175	-0.396458	0.304703
H54	H	0.985359	-0.361113	0.254344
H55	H	0.986430	-0.444225	0.285620
H56	H	0.885753	-0.396757	0.305693
C57	C	1.594067	-0.803356	0.721010
H58	H	1.593902	-0.750727	0.720311
H59	H	1.543856	-0.820644	0.771520
H60	H	1.662824	-0.820644	0.739656
H61	H	1.717526	-0.903662	0.561031
C62	C	0.961416	-0.212661	0.568925
H63	H	0.919955	-0.216079	0.631734
H64	H	1.019572	-0.180166	0.580781
H65	H	0.918812	-0.194015	0.512714
C66	C	1.385904	-0.911111	0.665218
H67	H	1.404495	-0.894063	0.734143
H68	H	1.317146	-0.893486	0.647267
H69	H	1.385960	-0.963738	0.664386
H70	H	1.359122	-0.811045	0.464643
C71	C	0.961784	-0.464283	0.664909
H72	H	0.920304	-0.439584	0.717024
H73	H	0.919281	-0.500079	0.629485
H74	H	1.020077	-0.488228	0.698267
C75	C	1.115897	-0.502902	0.456522
H76	H	1.191326	-0.502414	0.456645
H77	H	1.091140	-0.538217	0.506632
H78	H	1.091017	-0.515812	0.387737
H79	H	1.490436	-0.903869	0.333608
C80	C	1.482646	-0.212523	0.935912
H81	H	1.413614	-0.199698	0.960103
H82	H	1.532482	-0.177149	0.961188
H83	H	1.483476	-0.213006	0.860489
C84	C	1.690743	-0.803404	0.360746
H85	H	1.759691	-0.820281	0.379468
H86	H	1.673005	-0.821083	0.291932
H87	H	1.689715	-0.750779	0.360850
H88	H	1.407108	-0.449224	0.946912
H89	H	1.669797	-0.266032	1.079588
C90	C	1.594009	-0.502747	1.090784
H91	H	1.543390	-0.537948	1.066568
H92	H	1.662481	-0.515985	1.065510
H93	H	1.594446	-0.502044	1.166207
H94	H	1.359177	-0.324101	1.079849
C95	C	1.746436	-0.396622	0.936160
H96	H	1.745730	-0.396537	0.860730
H97	H	1.796979	-0.361576	0.960963
H98	H	1.765040	-0.444585	0.960974
C99	C	1.116361	-0.319006	0.720878
H100	H	1.092190	-0.270848	0.739371
H101	H	1.091119	-0.353804	0.771488
H102	H	1.191783	-0.319592	0.720198
