data_functionalizedCrystal
_audit_creation_method	'MofGen! by Chris Wilmer'
_symmetry_space_group_name_H-M	'P1'
_symmetry_Int_Tables_number	1
_symmetry_cell_setting	triclinic
loop_
_symmetry_equiv_pos_as_xyz
  x,y,z
_cell_length_a	18.050589
_cell_length_b	11.169417
_cell_length_c	11.169409
_cell_angle_alpha	89.980487
_cell_angle_beta	89.967150
_cell_angle_gamma	90.029470
loop_
_atom_site_label
_atom_site_type_symbol
_atom_site_fract_x
_atom_site_fract_y
_atom_site_fract_z
Zn1	Zn	-0.295575	1.834813	-0.678528
Zn2	Zn	-0.419790	1.834640	-0.477844
Zn3	Zn	-0.295621	1.634099	-0.477864
Zn4	Zn	-0.419730	1.634044	-0.678490
O5	O	-0.357679	1.734399	-0.578181
O6	O	-0.312058	2.002740	-0.651915
O7	O	-0.403363	1.807988	-0.309896
O8	O	-0.191690	1.660820	-0.504507
O9	O	-0.403318	2.002613	-0.504473
O10	O	-0.191656	1.808284	-0.651935
O11	O	-0.312136	1.660652	-0.309911
O12	O	-0.312078	1.466142	-0.504470
O13	O	-0.403216	1.660726	-0.846445
O14	O	-0.403261	1.466102	-0.651868
O15	O	-0.312000	1.808230	-0.846473
O16	O	-0.523706	1.807935	-0.504435
O17	O	-0.523662	1.660558	-0.651849
C18	C	-0.357669	1.422574	-0.578168
C19	C	-0.357682	1.289174	-0.578190
C20	C	-0.550631	1.734254	-0.578161
C21	C	-0.633177	1.734302	-0.578193
C22	C	-0.832630	1.654237	-0.658329
C23	C	-0.882082	1.624974	-0.548814
C24	C	-0.784307	1.734420	-0.578209
C25	C	-0.881937	1.763742	-0.687736
C26	C	-0.930292	1.734532	-0.578233
C27	C	-0.832671	1.705099	-0.468636
C28	C	-0.832522	1.843918	-0.607632
C29	C	-0.881951	1.814697	-0.498042
C30	C	-0.700209	1.734353	-0.578196
C31	C	-1.014389	1.734599	-0.578234
C32	C	-0.163973	1.734577	-0.578228
C33	C	-0.081427	1.734653	-0.578247
C34	C	-0.357596	1.734491	-0.891224
C35	C	-0.357561	1.734531	-1.024624
C36	C	-0.357689	2.047441	-0.578196
C37	C	-0.357694	2.180841	-0.578202
C38	C	-0.357707	1.734376	-0.266357
C39	C	-0.357533	1.734570	-0.132957
H40	H	-0.903867	1.532427	-0.523949
O41	O	-0.806405	1.954243	-0.637277
C42	C	-0.728305	1.952883	-0.635795
H43	H	-0.708241	1.877014	-0.575730
H44	H	-0.706900	2.041923	-0.599850
H45	H	-0.706620	1.938613	-0.730603
O46	O	-0.907667	1.793144	-0.798314
C47	C	-0.882553	1.708291	-0.882473
H48	H	-0.830595	1.662552	-0.846863
H49	H	-0.869176	1.755289	-0.970491
H50	H	-0.927577	1.638420	-0.898119
H51	H	-0.811120	1.680236	-0.375994
O52	O	-0.806822	1.573068	-0.738910
C53	C	-0.832095	1.457803	-0.707460
H54	H	-0.845992	1.455601	-0.607909
H55	H	-0.786958	1.389291	-0.727411
H56	H	-0.883770	1.435309	-0.761627
O57	O	-0.907757	1.895631	-0.417225
C58	C	-0.985861	1.895468	-0.418790
H59	H	-1.006173	1.859743	-0.508561
H60	H	-1.007070	1.990658	-0.405467
H61	H	-1.007496	1.835872	-0.343610
