data_functionalizedCrystal
_audit_creation_method	'MofGen! by Chris Wilmer'
_symmetry_space_group_name_H-M	'P1'
_symmetry_Int_Tables_number	1
_symmetry_cell_setting	triclinic
loop_
_symmetry_equiv_pos_as_xyz
  x,y,z
_cell_length_a	14.519709
_cell_length_b	19.188930
_cell_length_c	12.996460
_cell_angle_alpha	89.988736
_cell_angle_beta	90.000034
_cell_angle_gamma	83.412464
loop_
_atom_site_label
_atom_site_type_symbol
_atom_site_fract_x
_atom_site_fract_y
_atom_site_fract_z
O1	O	1.223300	0.091525	-0.085445
O2	O	0.954756	0.102303	-0.085478
O3	O	1.096778	-0.004714	-0.085440
O4	O	1.081279	0.198542	-0.085482
O5	O	1.096763	-0.004720	0.085693
O6	O	0.954742	0.102297	0.085656
O7	O	1.223285	0.091519	0.085689
Cu8	Cu	1.089012	0.096907	0.101298
Cu9	Cu	1.089030	0.096914	-0.101087
O10	O	1.081264	0.198536	0.085651
C11	C	0.920392	0.101797	0.000085
C12	C	0.818020	0.100292	0.000073
C13	C	0.443159	0.094751	0.000121
C14	C	0.547457	0.096290	0.000108
C15	C	0.630586	0.097521	0.000097
C16	C	0.734891	0.099060	0.000085
C17	C	1.096269	-0.030730	0.000129
C18	C	1.094762	-0.108240	0.000138
C19	C	1.178095	-0.152867	0.000153
C20	C	1.176680	-0.225696	0.000137
C21	C	1.091926	-0.253895	0.000125
C22	C	1.008582	-0.209257	0.000105
C23	C	1.009999	-0.136430	0.000111
N24	N	1.027137	-0.362132	0.058358
N25	N	1.025796	-0.431316	0.058354
C26	C	1.087649	-0.473318	0.000104
N27	N	1.150908	-0.443526	-0.058129
N28	N	1.152252	-0.374336	-0.058120
C29	C	1.090379	-0.332863	0.000118
C30	C	1.169454	-0.596916	0.000100
C31	C	1.168035	-0.669745	0.000077
C32	C	0.999934	-0.653305	0.000055
C33	C	1.001355	-0.580477	0.000068
C34	C	1.086118	-0.552287	0.000095
C35	C	1.257649	0.092024	0.000124
C36	C	1.360021	0.093529	0.000128
C37	C	1.081773	0.224551	0.000079
C38	C	1.083280	0.302061	0.000064
N39	N	1.089007	0.096902	0.243645
N40	N	1.089042	0.096914	-0.243434
C41	C	1.089028	0.096915	0.663460
C42	C	1.089020	0.096914	0.546655
C43	C	1.089018	0.096909	0.453556
C44	C	1.089008	0.096906	0.336744
H45	H	1.247116	-0.129920	0.000172
N46	N	1.256039	-0.568126	0.000130
N47	N	1.330441	-0.607984	0.000137
H48	H	1.391595	-0.587654	0.000161
N49	N	1.261815	-0.271283	0.000151
N50	N	1.337487	-0.246104	0.000173
H51	H	1.397615	-0.278297	0.000184
N52	N	0.922009	-0.238060	0.000121
N53	N	0.865889	-0.224434	0.072255
H54	H	0.804744	-0.244775	0.072266
N55	N	0.924872	-0.090841	0.000124
N56	N	0.906904	-0.048386	0.072269
H57	H	0.846781	-0.016187	0.072282
N58	N	1.253171	-0.715324	0.000078
N59	N	1.328840	-0.690141	0.000098
H60	H	1.388970	-0.722331	0.000098
H61	H	0.930926	-0.676263	0.000041
N62	N	0.916222	-0.534897	0.000056
N63	N	0.840553	-0.560080	0.000042
H64	H	0.780423	-0.527889	0.000031
