data_functionalizedCrystal
_audit_creation_method	'MofGen! by Chris Wilmer'
_symmetry_space_group_name_H-M	'P1'
_symmetry_Int_Tables_number	1
_symmetry_cell_setting	triclinic
loop_
_symmetry_equiv_pos_as_xyz
  x,y,z
_cell_length_a	23.532361
_cell_length_b	16.992695
_cell_length_c	15.455313
_cell_angle_alpha	87.152573
_cell_angle_beta	87.340335
_cell_angle_gamma	93.251054
loop_
_atom_site_label
_atom_site_type_symbol
_atom_site_fract_x
_atom_site_fract_y
_atom_site_fract_z
O1	O	0.762326	-0.091530	-0.072044
O2	O	0.597145	-0.105334	-0.072065
O3	O	0.679073	0.015705	-0.072048
O4	O	0.680398	-0.212569	-0.072061
O5	O	0.674387	0.008812	0.072213
O6	O	0.592458	-0.112227	0.072196
O7	O	0.757640	-0.098423	0.072217
Cu8	Cu	0.674621	-0.105955	0.085379
Cu9	Cu	0.680163	-0.097803	-0.085227
O10	O	0.675712	-0.219462	0.072200
C11	C	0.573568	-0.108435	0.000063
C12	C	0.510298	-0.107395	0.000055
C13	C	0.675026	0.041457	0.000082
C14	C	0.669943	0.128461	0.000082
C15	C	0.239383	-0.099091	-0.078576
C16	C	0.298832	-0.100075	-0.078578
O17	O	0.331754	-0.097361	-0.145454
N18	N	0.326008	-0.104330	0.000059
C19	C	0.293732	-0.107593	0.078703
O20	O	0.322306	-0.111301	0.145590
C21	C	0.234285	-0.106603	0.078704
C22	C	0.207112	-0.102356	0.000062
C23	C	0.212210	-0.094844	-0.157212
C24	C	0.152765	-0.093862	-0.157209
C25	C	0.120494	-0.097127	-0.078571
C26	C	0.147667	-0.101374	0.000065
C27	C	0.202010	-0.109860	0.157348
C28	C	0.142559	-0.108870	0.157342
C29	C	0.115386	-0.104623	0.078700
C30	C	0.055951	-0.103657	0.078706
N31	N	0.028775	-0.099402	0.000068
C32	C	0.061047	-0.096137	-0.078570
C33	C	0.418575	-0.109669	0.078694
C34	C	0.478021	-0.110664	0.078694
C35	C	0.483117	-0.103145	-0.078588
C36	C	0.423670	-0.102156	-0.078586
C37	C	0.391400	-0.105415	0.000057
C38	C	-0.063792	-0.094075	-0.078559
C39	C	-0.123242	-0.093097	-0.078549
C40	C	-0.128332	-0.100612	0.078732
C41	C	-0.068887	-0.101595	0.078723
C42	C	-0.036618	-0.098323	0.000071
O43	O	0.022992	-0.106365	0.145547
O44	O	0.032466	-0.092419	-0.145445
C45	C	0.781217	-0.095322	0.000087
C46	C	0.844487	-0.096362	0.000089
N47	N	0.670727	-0.111688	0.205373
C48	C	0.679758	-0.245214	0.000068
C49	C	0.684842	-0.332218	0.000063
C50	C	0.718990	0.179094	0.000089
C51	C	0.714210	0.260843	0.000080
C52	C	0.660383	0.291956	0.000070
C53	C	0.611333	0.241316	0.000060
C54	C	0.616113	0.159570	0.000063
C55	C	0.640572	0.535396	0.000056
C56	C	0.635795	0.617149	0.000056
C57	C	0.738673	0.636670	0.000073
C58	C	0.743448	0.554920	0.000081
C59	C	0.694398	0.504288	0.000067
N60	N	0.655497	0.375516	0.000064
N61	N	0.699285	0.420730	0.000067
N62	N	0.684062	-0.092063	-0.205221
C63	C	0.705547	-0.060285	0.250775
C64	C	0.702608	-0.064628	0.341582
C65	C	0.664851	-0.120378	0.386986
C66	C	0.630028	-0.171783	0.341579
C67	C	0.632965	-0.167436	0.250773
C68	C	0.652175	-0.139121	0.658565
C69	C	0.649242	-0.143466	0.749377
C70	C	0.721821	-0.036309	0.749374
C71	C	0.724757	-0.031970	0.658567
C72	C	0.689931	-0.083372	0.613167
N73	N	0.661847	-0.124820	0.479806
N74	N	0.692933	-0.078926	0.520349
H75	H	-0.037525	-0.091413	-0.142605
H76	H	-0.145363	-0.089641	-0.142592
H77	H	0.576174	0.118344	0.000057
H78	H	0.500140	-0.114135	0.142732
H79	H	0.787279	0.529594	0.000089
H80	H	0.567506	0.266656	0.000047
C81	C	0.608148	-0.203898	0.798635
C82	C	0.552340	-0.190509	0.776586
C83	C	0.514471	-0.246151	0.821956
H84	H	0.617105	-0.255494	0.783785
H85	H	0.611352	-0.199117	0.859224
H86	H	0.549137	-0.195297	0.716010
H87	H	0.543364	-0.138923	0.791439
H88	H	0.517675	-0.241370	0.882546
H89	H	0.523434	-0.297743	0.807103
H90	H	0.476600	-0.237069	0.807009
C91	C	0.777379	0.145164	0.000142
C92	C	0.771070	0.062734	0.000166
C93	C	0.824847	0.031453	0.000224
H94	H	0.799412	0.164886	-0.050149
H95	H	0.796104	0.160128	0.050471
H96	H	0.752354	0.047777	-0.050157
H97	H	0.749048	0.042991	0.050454
H98	H	0.843571	0.046417	0.050553
H99	H	0.846875	0.051181	-0.050068
H100	H	0.820573	-0.024478	0.000249
C101	C	0.231527	-0.114622	0.242706
C102	C	0.262155	-0.182857	0.247329
C103	C	0.289347	-0.187272	0.325957
H104	H	0.256916	-0.069505	0.246057
H105	H	0.203802	-0.116463	0.289559
H106	H	0.289877	-0.181010	0.200488
H107	H	0.236780	-0.227987	0.243992
H108	H	0.261622	-0.189112	0.372811
H109	H	0.314733	-0.142151	0.329302
H110	H	0.310127	-0.233572	0.329108
H111	H	0.116287	-0.111531	0.221385
C112	C	0.123339	-0.089358	-0.242660
C113	C	0.136011	-0.154758	-0.290124
C114	C	0.108925	-0.150626	-0.368855
H115	H	0.083305	-0.089270	-0.231534
H116	H	0.136415	-0.042281	-0.275005
H117	H	0.122932	-0.201823	-0.257786
H118	H	0.176040	-0.154859	-0.301273
H119	H	0.122001	-0.103549	-0.401200
H120	H	0.068892	-0.150536	-0.357721
H121	H	0.117523	-0.194994	-0.401073
H122	H	0.778607	0.677903	0.000083
H123	H	0.599283	-0.217174	0.378552
H124	H	0.604610	-0.209293	0.213808
H125	H	0.754149	0.302066	0.000088
C126	C	-0.039361	-0.106374	0.164080
C127	C	-0.008730	-0.174607	0.168684
C128	C	0.018465	-0.179033	0.247308
H129	H	-0.013974	-0.061256	0.167439
H130	H	-0.067084	-0.108225	0.210937
H131	H	0.018990	-0.172749	0.121840
H132	H	-0.034104	-0.219737	0.165340
H133	H	-0.009258	-0.180884	0.294165
H134	H	0.043850	-0.133912	0.250660
H135	H	0.039247	-0.225332	0.250446
H136	H	0.755502	0.013426	0.621601
C137	C	0.759592	0.019635	0.798559
C138	C	0.747575	0.097646	0.776467
C139	C	0.782362	0.149209	0.821750
H140	H	0.752470	0.009173	0.859155
H141	H	0.798467	0.012163	0.783652
H142	H	0.708710	0.105114	0.791380
H143	H	0.754701	0.108133	0.715879
H144	H	0.821237	0.141738	0.806843
H145	H	0.775237	0.138741	0.882344
H146	H	0.774217	0.202146	0.806761
H147	H	0.238480	-0.092183	-0.221252
H148	H	0.401550	-0.098698	-0.142624
C149	C	0.383639	-0.113267	0.164177
C150	C	0.420167	-0.117226	0.233035
C151	C	0.388006	-0.120550	0.311792
H152	H	0.362601	-0.067344	0.167582
H153	H	0.358086	-0.158773	0.167492
H154	H	0.445709	-0.071724	0.229721
H155	H	0.441204	-0.163147	0.229658
H156	H	0.362454	-0.166057	0.315107
H157	H	0.366970	-0.074626	0.315189
H158	H	0.412785	-0.123244	0.358522
C159	C	0.587364	0.480329	0.000181
C160	C	0.584698	0.429269	0.074387
C161	C	0.535693	0.378518	0.074526
H162	H	0.554578	0.510464	0.000222
H163	H	0.588722	0.450389	-0.050101
H164	H	0.583335	0.459206	0.124657
H165	H	0.617472	0.399116	0.074362
H166	H	0.537051	0.348578	0.024244
H167	H	0.502911	0.408660	0.074565
H168	H	0.533880	0.343864	0.124870
H169	H	0.591960	0.642477	0.000062
C170	C	0.614468	-0.194975	0.609176
C171	C	0.648664	-0.240228	0.557016
C172	C	0.613950	-0.291688	0.511497
H173	H	0.591558	-0.228872	0.649130
H174	H	0.590638	-0.165283	0.573711
H175	H	0.672484	-0.269918	0.592478
H176	H	0.671574	-0.206352	0.517046
H177	H	0.590120	-0.261996	0.476032
H178	H	0.591041	-0.325580	0.551457
H179	H	0.637146	-0.322394	0.476095
C180	C	-0.163301	-0.104034	0.164171
C181	C	-0.147029	-0.039105	0.211624
C182	C	-0.179226	-0.042230	0.290339
H183	H	-0.202607	-0.102802	0.153024
H184	H	-0.156865	-0.151430	0.196535
H185	H	-0.153470	0.008278	0.179267
H186	H	-0.107728	-0.040324	0.222794
H187	H	-0.172789	-0.089626	0.322702
H188	H	-0.218530	-0.040999	0.279183
H189	H	-0.168186	0.001819	0.322549
C190	C	0.746467	0.000386	0.201552
C191	C	0.732991	0.076272	0.223669
C192	C	0.770667	0.132193	0.178347
H193	H	0.784388	-0.008450	0.216395
H194	H	0.743235	-0.004312	0.140956
H195	H	0.736228	0.080968	0.284252
H196	H	0.695076	0.085134	0.208825
H197	H	0.767436	0.127495	0.117751
H198	H	0.808587	0.123350	0.193193
H199	H	0.761526	0.183688	0.193341
C200	C	0.740321	-0.008732	0.390915
C201	C	0.706133	0.036560	0.443044
C202	C	0.740856	0.088070	0.488490
H203	H	0.764164	-0.038364	0.426400
H204	H	0.763217	0.025131	0.350892
H205	H	0.683246	0.002701	0.483063
H206	H	0.682291	0.066208	0.407581
H207	H	0.763753	0.121933	0.448467
H208	H	0.764698	0.058431	0.523970
H209	H	0.717665	0.118812	0.523858
H210	H	0.509404	-0.100486	-0.142619
