data_functionalizedCrystal
_audit_creation_method	'MofGen! by Chris Wilmer'
_symmetry_space_group_name_H-M	'P1'
_symmetry_Int_Tables_number	1
_symmetry_cell_setting	triclinic
loop_
_symmetry_equiv_pos_as_xyz
  x,y,z
_cell_length_a	19.077399
_cell_length_b	16.120444
_cell_length_c	19.076919
_cell_angle_alpha	84.952692
_cell_angle_beta	85.520477
_cell_angle_gamma	95.104436
loop_
_atom_site_label
_atom_site_type_symbol
_atom_site_fract_x
_atom_site_fract_y
_atom_site_fract_z
Zn1	Zn	1.048305	-0.299594	0.368745
Zn2	Zn	1.548305	0.200406	0.868745
Zn3	Zn	1.046973	-0.433752	0.256844
Zn4	Zn	1.546973	0.066248	0.756844
Zn5	Zn	0.935159	-0.299617	0.255601
Zn6	Zn	1.435159	0.200383	0.755601
Zn7	Zn	0.923881	-0.445422	0.379933
Zn8	Zn	1.423881	0.054578	0.879933
O9	O	0.988580	-0.369596	0.315281
O10	O	1.488580	0.130404	0.815281
O11	O	1.146995	-0.312497	0.349740
O12	O	1.646995	0.187503	0.849740
O13	O	1.036303	-0.411084	0.157815
O14	O	1.536303	0.088916	0.657815
O15	O	0.955446	-0.182449	0.265408
O16	O	1.455446	0.317551	0.765408
O17	O	1.146016	-0.411062	0.267526
O18	O	1.646016	0.088938	0.767526
O19	O	1.038574	-0.182432	0.348534
O20	O	1.538574	0.317568	0.848534
O21	O	0.954154	-0.312536	0.156901
O22	O	1.454154	0.187464	0.656901
O23	O	0.834796	-0.323852	0.276255
O24	O	1.334796	0.176148	0.776255
O25	O	0.936223	-0.430952	0.477313
O26	O	1.436223	0.069048	0.977313
O27	O	0.826510	-0.430974	0.367601
O28	O	1.326510	0.069026	0.867601
O29	O	1.027638	-0.323813	0.469094
O30	O	1.527638	0.176187	0.969094
O31	O	1.025367	-0.552465	0.278374
O32	O	1.525367	-0.052465	0.778374
O33	O	0.934931	-0.561039	0.368807
O34	O	1.434931	-0.061039	0.868807
C35	C	0.805018	-0.378682	0.323008
C36	C	1.305018	0.121318	0.823008
C37	C	0.726488	-0.382590	0.326331
C38	C	1.226488	0.117410	0.826331
C39	C	0.978799	-0.587131	0.324954
C40	C	1.478799	-0.087131	0.824954
C41	C	0.974678	-0.680192	0.329113
C42	C	1.474678	-0.180192	0.829113
C43	C	0.693889	-0.328577	0.280404
C44	C	1.193889	0.171423	0.780404
C45	C	0.620101	-0.332256	0.283527
C46	C	1.120101	0.167744	0.783527
C47	C	0.578914	-0.389946	0.332580
C48	C	1.078914	0.110054	0.832580
C49	C	0.611519	-0.443965	0.378510
C50	C	1.111519	0.056035	0.878510
C51	C	0.685305	-0.440289	0.375383
C52	C	1.185305	0.059711	0.875383
C53	C	0.357776	-0.406932	0.347021
C54	C	0.857776	0.093068	0.847021
C55	C	0.283985	-0.410602	0.350145
C56	C	0.783985	0.089398	0.850145
C57	C	0.292573	-0.298893	0.255161
C58	C	0.792573	0.201107	0.755161
C59	C	0.366360	-0.295219	0.252042
C60	C	0.866360	0.204781	0.752042
C61	C	0.398958	-0.349242	0.297968
C62	C	0.898958	0.150758	0.797968
N63	N	0.503492	-0.393706	0.335775
N64	N	1.003492	0.106294	0.835775
N65	N	0.474380	-0.345485	0.294770
N66	N	0.974380	0.154515	0.794770
C67	C	1.010122	-0.887767	0.293850
C68	C	1.510122	-0.387767	0.793850
C69	C	0.967168	-0.850568	0.336713
C70	C	1.467168	-0.350568	0.836713
C71	C	0.971348	-0.755762	0.332483
C72	C	1.471348	-0.255762	0.832483
C73	C	1.005943	-0.982581	0.298079
C74	C	1.505943	-0.482581	0.798079
C75	C	1.172858	-0.360475	0.307524
C76	C	1.672858	0.139525	0.807524
C77	C	1.251386	-0.356588	0.304218
C78	C	1.751386	0.143412	0.804218
C79	C	0.980821	-0.378682	0.499555
C80	C	1.480821	0.121318	0.999555
C81	C	0.977515	-0.382553	0.578081
C82	C	1.477515	0.117447	1.078081
C83	C	0.998417	-0.151211	0.305584
C84	C	1.498417	0.348789	0.805584
C85	C	1.002609	-0.058149	0.301452
C86	C	1.502609	0.441851	0.801452
C87	C	0.996351	-0.360484	0.131719
C88	C	1.496351	0.139516	0.631719
C89	C	0.999805	-0.356369	0.053177
C90	C	1.499805	0.143631	0.553177
C91	C	1.023554	-0.328593	0.610695
C92	C	1.523554	0.171407	1.110695
C93	C	1.020439	-0.332229	0.684479
C94	C	1.520439	0.167771	1.184479
C95	C	0.971288	-0.389828	0.725648
C96	C	1.471288	0.110172	1.225648
C97	C	0.925244	-0.443791	0.693030
C98	C	1.425244	0.056209	1.193030
C99	C	0.928356	-0.440151	0.619247
C100	C	1.428356	0.059849	1.119247
C101	C	0.956873	-0.406692	0.946775
C102	C	1.456873	0.093308	1.446775
C103	C	0.953766	-0.410329	1.020563
C104	C	1.453766	0.089671	1.520563
C105	C	1.048960	-0.298765	1.012008
C106	C	1.548960	0.201235	1.512008
C107	C	1.052071	-0.295134	0.938224
C108	C	1.552071	0.204866	1.438224
C109	C	1.006025	-0.349094	0.905611
C110	C	1.506025	0.150906	1.405611
N111	N	0.968104	-0.393547	0.801068
N112	N	1.468104	0.106453	1.301068
N113	N	1.009206	-0.345370	0.830193
N114	N	1.509206	0.154630	1.330193
H115	H	0.727418	-0.281593	0.240464
H116	H	1.227418	0.218407	0.740464
C117	C	0.844878	-0.885425	0.377253
C118	C	1.344878	-0.385425	0.877253
C119	C	0.913280	-0.903689	0.390539
C120	C	1.413280	-0.403689	0.890539
H121	H	0.811612	-0.918220	0.410483
H122	H	1.311612	-0.418220	0.910483
H123	H	0.835967	-0.897912	0.330840
H124	H	1.335967	-0.397912	0.830840
H125	H	0.840663	-0.827758	0.381439
H126	H	1.340663	-0.327758	0.881439
H127	H	0.917496	-0.961356	0.386348
H128	H	1.417496	-0.461356	0.886348
H129	H	0.922193	-0.891209	0.436963
H130	H	1.422193	-0.391209	0.936963
C131	C	1.057751	-0.749650	0.246195
C132	C	1.557751	-0.249650	0.746195
C133	C	1.063995	-0.834645	0.240018
C134	C	1.563995	-0.334645	0.740018
H135	H	1.091006	-0.716850	0.212957
H136	H	1.591006	-0.216850	0.712957
H137	H	1.066680	-0.737170	0.292605
H138	H	1.566680	-0.237170	0.792605
H139	H	1.011336	-0.737287	0.237199
H140	H	1.511336	-0.237287	0.737199
H141	H	1.110410	-0.847011	0.249019
H142	H	1.610410	-0.347011	0.749019
H143	H	1.055072	-0.847131	0.193597
H144	H	1.555072	-0.347131	0.693597
C145	C	0.636001	-0.221459	0.189336
C146	C	1.136001	0.278541	0.689336
C147	C	0.584268	-0.272877	0.233046
C148	C	1.084268	0.227123	0.733046
H149	H	0.613878	-0.184796	0.158174
H150	H	1.113878	0.315204	0.658174
H151	H	0.664279	-0.255116	0.162661
H152	H	1.164279	0.244884	0.662661
H153	H	0.664924	-0.189581	0.217532
H154	H	1.164924	0.310419	0.717532
H155	H	0.555349	-0.304759	0.204850
H156	H	1.055349	0.195241	0.704850
H157	H	0.555978	-0.239215	0.259724
H158	H	1.055978	0.260785	0.759724
C159	C	0.436239	-0.419287	0.439049
C160	C	0.936239	0.080713	0.939049
C161	C	0.393600	-0.466304	0.397512
C162	C	0.893600	0.033696	0.897512
H163	H	0.458358	-0.455943	0.470220
H164	H	0.958358	0.044057	0.970220
H165	H	0.407954	-0.385629	0.465715
H166	H	0.907954	0.114371	0.965715
H167	H	0.471329	-0.384414	0.409379
H168	H	0.971329	0.115586	0.909379
H169	H	0.358506	-0.501173	0.427181
H170	H	0.858506	-0.001173	0.927181
H171	H	0.421887	-0.499977	0.370844
H172	H	0.921887	0.000023	0.870844
C173	C	1.117330	-0.218678	0.609657
C174	C	1.617330	0.281322	1.109657
C175	C	1.077581	-0.265275	0.565445
C176	C	1.577581	0.234725	1.065445
H177	H	1.150680	-0.179582	0.581722
H178	H	1.650680	0.320418	1.081722
H179	H	1.141497	-0.255239	0.638917
H180	H	1.641497	0.244761	1.138917
H181	H	1.086767	-0.189599	0.638310
H182	H	1.586767	0.310401	1.138310
H183	H	1.108144	-0.294359	0.536797
H184	H	1.608144	0.205641	1.036797
H185	H	1.053413	-0.228709	0.536174
H186	H	1.553413	0.271291	1.036174
C187	C	0.906724	-0.465436	1.137467
C188	C	1.406724	0.034564	1.637467
C189	C	0.899727	-0.473638	1.065819
C190	C	1.399727	0.026362	1.565819
H191	H	0.873366	-0.504520	1.165405
H192	H	1.373366	-0.004520	1.665405
H193	H	0.898418	-0.410290	1.147489
H194	H	1.398418	0.089710	1.647489
H195	H	0.953132	-0.475949	1.148100
H196	H	1.453132	0.024051	1.648100
H197	H	0.853321	-0.463118	1.055185
H198	H	1.353321	0.036882	1.555185
H199	H	0.908028	-0.528796	1.055793
H200	H	1.408028	-0.028796	1.555793
C201	C	0.864814	-0.418920	0.868317
C202	C	1.364814	0.081080	1.368317
C203	C	0.906265	-0.466000	0.910925
C204	C	1.406265	0.034000	1.410925
H205	H	0.833568	-0.455536	0.846185
H206	H	1.333568	0.044464	1.346185
H207	H	0.894533	-0.384100	0.833247
H208	H	1.394533	0.115900	1.333247
H209	H	0.838222	-0.385204	0.896628
H210	H	1.338222	0.114796	1.396628
H211	H	0.932861	-0.499712	0.882613
H212	H	1.432861	0.000288	1.382613
H213	H	0.876542	-0.500835	0.946000
H214	H	1.376542	-0.000835	1.446000
H215	H	1.057930	-0.288291	0.711030
H216	H	1.557930	0.211709	1.211030
C217	C	0.276707	-0.253127	0.134728
C218	C	0.776707	0.246873	0.634728
C219	C	0.256743	-0.239519	0.204674
C220	C	0.756743	0.260481	0.704674
H221	H	0.254590	-0.216467	0.103558
H222	H	0.754590	0.283533	0.603558
H223	H	0.262524	-0.309445	0.127330
H224	H	0.762524	0.190555	0.627330
H225	H	0.326546	-0.242683	0.125858
H226	H	0.826546	0.257317	0.625858
H227	H	0.206903	-0.249970	0.213546
H228	H	0.706903	0.250030	0.713546
H229	H	0.270921	-0.183188	0.212075
H230	H	0.770921	0.316812	0.712075
C231	C	0.453844	-0.274590	0.152983
C232	C	0.953844	0.225410	0.652983
C233	C	0.411628	-0.231806	0.198117
C234	C	0.911628	0.268194	0.698117
H235	H	0.481791	-0.235437	0.119697
H236	H	0.981791	0.264563	0.619697
H237	H	0.424559	-0.311111	0.128750
H238	H	0.924559	0.188889	0.628750
H239	H	0.483820	-0.306227	0.179895
H240	H	0.983820	0.193773	0.679895
H241	H	0.381648	-0.200173	0.171206
H242	H	0.881648	0.299827	0.671206
H243	H	0.440916	-0.195270	0.222352
H244	H	0.940916	0.304730	0.722352
H245	H	0.250452	-0.457580	0.390095
H246	H	0.750452	0.042420	0.890095
C247	C	1.145847	-0.185215	0.937181
C248	C	1.645847	0.314785	1.437181
C249	C	1.106096	-0.231814	0.892973
C250	C	1.606096	0.268186	1.392973
H251	H	1.179198	-0.146123	0.909243
H252	H	1.679198	0.353877	1.409243
H253	H	1.170015	-0.221776	0.966441
H254	H	1.670015	0.278224	1.466441
H255	H	1.115287	-0.156134	0.965833
H256	H	1.615287	0.343866	1.465833
H257	H	1.136656	-0.260901	0.864324
H258	H	1.636656	0.239099	1.364324
H259	H	1.081927	-0.195249	0.863701
H260	H	1.581927	0.304751	1.363701
H261	H	1.086448	-0.254834	1.038569
H262	H	1.586448	0.245166	1.538569
C263	C	0.906854	-0.560996	0.781413
C264	C	1.406854	-0.060996	1.281413
C265	C	0.871215	-0.507107	0.738281
C266	C	1.371215	-0.007107	1.238281
H267	H	0.873498	-0.600088	0.809344
H268	H	1.373498	-0.100088	1.309344
H269	H	0.933821	-0.529380	0.811394
H270	H	1.433821	-0.029380	1.311394
H271	H	0.937404	-0.590076	0.752748
H272	H	1.437404	-0.090076	1.252748
H273	H	0.840669	-0.478022	0.766945
H274	H	1.340669	0.021978	1.266945
H275	H	0.844236	-0.538726	0.708296
H276	H	1.344236	-0.038726	1.208296
C277	C	0.581963	-0.491986	0.500869
C278	C	1.081963	0.008014	1.000869
C279	C	0.566246	-0.507373	0.432435
C280	C	1.066246	-0.007373	0.932435
H281	H	0.554016	-0.531133	0.534161
H282	H	1.054016	-0.031133	1.034161
H283	H	0.571958	-0.436869	0.509288
H284	H	1.071958	0.063131	1.009288
H285	H	0.630574	-0.497534	0.505570
H286	H	1.130574	0.002466	1.005570
H287	H	0.517636	-0.501819	0.427732
H288	H	1.017636	-0.001819	0.927732
H289	H	0.576246	-0.562503	0.424013
H290	H	1.076246	-0.062503	0.924013
H291	H	0.711846	-0.484273	0.412782
H292	H	1.211846	0.015727	0.912782
H293	H	0.890859	-0.484083	0.592693
H294	H	1.390859	0.015917	1.092693
