data_functionalizedCrystal
_audit_creation_method	'MofGen! by Chris Wilmer'
_symmetry_space_group_name_H-M	'P1'
_symmetry_Int_Tables_number	1
_symmetry_cell_setting	triclinic
loop_
_symmetry_equiv_pos_as_xyz
  x,y,z
_cell_length_a	17.638336
_cell_length_b	17.637651
_cell_length_c	17.640968
_cell_angle_alpha	109.665189
_cell_angle_beta	114.310759
_cell_angle_gamma	87.821411
loop_
_atom_site_label
_atom_site_type_symbol
_atom_site_fract_x
_atom_site_fract_y
_atom_site_fract_z
Zn1	Zn	1.241831	-0.443388	0.607889
Zn2	Zn	1.174750	-0.597813	0.430911
Zn3	Zn	1.076160	-0.443346	0.442285
Zn4	Zn	1.076143	-0.553268	0.552164
O5	O	1.142221	-0.509454	0.508312
O6	O	1.343533	-0.482532	0.602974
O7	O	1.133606	-0.595947	0.312369
O8	O	1.126217	-0.332721	0.492334
O9	O	1.294250	-0.595988	0.472949
O10	O	1.247935	-0.332752	0.614003
O11	O	1.061172	-0.482461	0.320726
O12	O	0.965557	-0.439268	0.438300
O13	O	1.126188	-0.520067	0.679607
O14	O	0.965544	-0.520027	0.519027
O15	O	1.247918	-0.439339	0.720548
O16	O	1.133589	-0.702534	0.418914
O17	O	1.061143	-0.669807	0.507998
C18	C	0.936873	-0.474809	0.473851
C19	C	0.849024	-0.460004	0.459124
C20	C	0.725228	-0.397000	0.396440
C21	C	0.807775	-0.410916	0.410284
C22	C	0.807733	-0.495200	0.494136
C23	C	0.725182	-0.481294	0.480295
C24	C	0.683936	-0.432192	0.431448
C25	C	0.683891	-0.516486	0.515303
C26	C	0.601349	-0.502578	0.501467
C27	C	0.560098	-0.453477	0.452624
C28	C	0.601394	-0.418284	0.417612
C29	C	0.725140	-0.565583	0.564155
C30	C	0.683849	-0.600775	0.599163
C31	C	0.601304	-0.586872	0.585322
C32	C	0.560053	-0.537771	0.536479
C33	C	0.560008	-0.622064	0.620335
C34	C	0.477466	-0.608156	0.606499
C35	C	0.477511	-0.523862	0.522644
C36	C	1.090111	-0.714856	0.456197
C37	C	1.067897	-0.802736	0.433943
C38	C	1.311555	-1.091469	0.677731
C39	C	1.290653	-1.174044	0.656801
C40	C	1.163951	-1.174147	0.530013
C41	C	1.184845	-1.091572	0.550930
C42	C	1.258647	-1.050239	0.624791
C43	C	1.131937	-1.050341	0.497989
C44	C	1.152827	-0.967772	0.518908
C45	C	1.226625	-0.926433	0.592767
C46	C	1.279537	-0.967670	0.645709
C47	C	1.058132	-1.091674	0.424132
C48	C	1.005224	-1.050444	0.371192
C49	C	1.026117	-0.967875	0.392106
C50	C	1.099914	-0.926536	0.465965
C51	C	0.973204	-0.926638	0.339164
C52	C	0.994094	-0.844069	0.360082
C53	C	1.120804	-0.843966	0.486884
C54	C	1.348371	-0.544233	0.542909
C55	C	1.436220	-0.559055	0.557652
C56	C	1.194534	-0.474739	0.732075
C57	C	1.216826	-0.459945	0.827430
C58	C	1.194561	-0.303249	0.560653
C59	C	1.216865	-0.215377	0.582958
C60	C	1.090172	-0.543984	0.285442
C61	C	1.068089	-0.558580	0.190170
C62	C	0.973280	-0.621458	1.034463
C63	C	0.994246	-0.607551	1.124068
C64	C	1.120993	-0.523495	1.166686
C65	C	1.100035	-0.537393	1.077083
C66	C	1.026178	-0.586376	1.010977
C67	C	1.152933	-0.502310	1.053597
C68	C	1.131979	-0.516210	0.964002
C69	C	1.058127	-0.565193	0.897891
C70	C	1.005224	-0.600276	0.921381
C71	C	1.226793	-0.453332	1.119704
C72	C	1.279691	-0.418250	1.096218
C73	C	1.258734	-0.432145	1.006622
C74	C	1.184882	-0.481128	0.940511
C75	C	1.311637	-0.397062	0.983131
C76	C	1.290683	-0.410962	0.893535
C77	C	1.163928	-0.495028	0.850915
H78	H	0.567810	-0.378301	0.377836
O79	O	1.247119	-0.439972	1.206703
C80	C	1.255202	-0.514519	1.220817
H81	H	1.218060	-0.565787	1.155364
H82	H	1.230009	-0.513251	1.271216
H83	H	1.324071	-0.524797	1.247283
O84	O	1.037807	-1.171907	0.403658
C85	C	1.031981	-1.215697	0.317888
H86	H	1.018986	-1.173538	0.278246
H87	H	0.978789	-1.267326	0.282632
H88	H	1.093456	-1.241636	0.323431
H89	H	1.333757	-0.382393	0.874415
O90	O	0.942861	-0.641497	1.146993
C91	C	0.915339	-0.579832	1.201659
H92	H	0.961562	-0.522542	1.234967
H93	H	0.911302	-0.600472	1.254711
H94	H	0.850901	-0.566619	1.159506
H95	H	0.841395	-0.382246	0.381782
O96	O	0.933504	-1.090661	0.299535
C97	C	0.881723	-1.122238	0.327650
H98	H	0.921630	-1.129170	0.394238
H99	H	0.848295	-1.183960	0.276210
H100	H	0.833375	-1.079120	0.335238
O101	O	0.847927	-0.542794	0.541666
C102	C	0.920038	-0.497300	0.616576
H103	H	0.940551	-0.444098	0.603716
H104	H	0.972589	-0.537525	0.629567
H105	H	0.905285	-0.473488	0.677017
H106	H	1.371657	-1.057816	0.737871
O107	O	0.805272	-0.579188	0.577442
C108	C	0.808487	-0.616764	0.494684
H109	H	0.743880	-0.648675	0.442452
H110	H	0.855515	-0.663046	0.500400
H111	H	0.828667	-0.568960	0.474282
H112	H	1.333734	-1.207607	0.699927
O113	O	0.479929	-0.439852	0.439131
C114	C	0.452373	-0.388987	0.388491
H115	H	0.508867	-0.352645	0.396259
H116	H	0.410818	-0.345695	0.412776
H117	H	0.415153	-0.427487	0.315493
H118	H	0.691643	-0.357017	0.356664
H119	H	0.945068	-0.640141	0.867555
O120	O	0.724027	-0.648480	0.646555
C121	C	0.805744	-0.653192	0.651282
H122	H	0.808128	-0.639358	0.593608
H123	H	0.823433	-0.716821	0.647222
H124	H	0.851748	-0.607211	0.716838
H125	H	0.913124	-0.661323	0.980636
O126	O	1.351164	-0.927511	0.717558
C127	C	1.348721	-0.931502	0.795027
H128	H	1.280824	-0.942939	0.782941
H129	H	1.379140	-0.871746	0.852310
H130	H	1.384224	-0.983046	0.812473
O131	O	0.901481	-0.966855	0.267512
C132	C	0.849707	-0.998426	0.295639
H133	H	0.889620	-1.005355	0.362226
H134	H	0.816274	-1.060148	0.244203
H135	H	0.801362	-0.955305	0.303232
O136	O	0.942625	-0.804142	0.308545
C137	C	0.872995	-0.858323	0.238882
H138	H	0.889796	-0.923078	0.226459
H139	H	0.854837	-0.843558	0.175917
H140	H	0.818049	-0.852146	0.257938
O141	O	1.351349	-0.370559	1.160477
C142	C	1.331431	-0.303880	1.217729
H143	H	1.264107	-0.292686	1.181528
H144	H	1.375693	-0.247702	1.238983
H145	H	1.338387	-0.317332	1.278971
O146	O	1.037911	-0.578726	0.810880
C147	C	1.101492	-0.616472	0.788487
H148	H	1.162522	-0.602635	0.851180
H149	H	1.110567	-0.592484	0.739949
H150	H	1.082800	-0.684817	0.756224
H151	H	1.181129	-0.483616	1.220520
H152	H	1.103772	-0.534893	0.797089
O153	O	0.600206	-0.669654	0.667871
C154	C	0.672313	-0.624149	0.742779
H155	H	0.692820	-0.570950	0.729911
H156	H	0.724869	-0.664369	0.755778
H157	H	0.657558	-0.600334	0.803218
O158	O	0.437230	-0.642385	0.640362
C159	C	0.365114	-0.692937	0.570488
H160	H	0.344636	-0.672952	0.510546
H161	H	0.312546	-0.688384	0.592988
H162	H	0.379842	-0.758350	0.551427
H163	H	1.243632	-0.859200	0.609797
O164	O	0.437481	-0.476238	0.475079
C165	C	0.433253	-0.510063	0.388558
H166	H	0.485052	-0.550830	0.389050
H167	H	0.441566	-0.459373	0.365151
H168	H	0.369724	-0.547337	0.341509
O169	O	1.192420	-0.803695	0.558676
C170	C	1.172398	-0.739774	0.618589
H171	H	1.108549	-0.722068	0.581349
H172	H	1.221966	-0.685321	0.650225
H173	H	1.170488	-0.760244	0.672638
H174	H	1.103860	-1.207811	0.469877
O175	O	1.383298	-0.349377	1.047391
C176	C	1.363388	-0.282697	1.104650
H177	H	1.296066	-0.271495	1.068453
H178	H	1.407656	-0.226522	1.125908
H179	H	1.370342	-0.296154	1.165888
