data_functionalizedCrystal
_audit_creation_method	'MofGen! by Chris Wilmer'
_symmetry_space_group_name_H-M	'P1'
_symmetry_Int_Tables_number	1
_symmetry_cell_setting	triclinic
loop_
_symmetry_equiv_pos_as_xyz
  x,y,z
_cell_length_a	21.606444
_cell_length_b	21.606444
_cell_length_c	21.606444
_cell_angle_alpha	90.004592
_cell_angle_beta	120.010416
_cell_angle_gamma	119.994471
loop_
_atom_site_label
_atom_site_type_symbol
_atom_site_fract_x
_atom_site_fract_y
_atom_site_fract_z
Zr1	Zr	-0.677542	0.596220	-0.081336
O2	O	-0.806677	0.497391	-0.180193
O3	O	-0.548408	0.626517	-0.051013
O4	O	-0.677546	0.626510	-0.180162
O5	O	-0.677534	0.497403	0.050810
O6	O	-0.677549	0.728361	-0.180158
O7	O	-0.677538	0.497398	-0.051044
O8	O	-0.446543	0.728374	0.050866
O9	O	-0.908539	0.497391	-0.180213
O10	O	-0.601523	0.715448	-0.038099
O11	O	-0.601519	0.639442	0.037910
O12	O	-0.753563	0.639433	-0.114146
O13	O	-0.753558	0.563427	-0.038136
Zr14	Zr	-0.677538	0.758669	0.081116
Zr15	Zr	-0.677545	0.758661	-0.081329
Zr16	Zr	-0.677535	0.596229	0.081110
Zr17	Zr	-0.840000	0.596220	-0.081369
Zr18	Zr	-0.515079	0.758670	0.081149
O19	O	-0.806672	0.728372	0.050793
O20	O	-0.806682	0.728360	-0.180184
O21	O	-0.806667	0.497403	0.050784
O22	O	-0.548403	0.857498	0.179973
O23	O	-0.548413	0.857486	-0.051004
O24	O	-0.548398	0.626529	0.179964
O25	O	-0.677546	0.857486	-0.051030
O26	O	-0.677533	0.728379	0.179942
O27	O	-0.677531	0.626528	0.179938
O28	O	-0.677542	0.857491	0.050824
O29	O	-0.908542	0.626509	-0.180208
O30	O	-0.446538	0.728380	0.179988
O31	O	-0.446540	0.857498	0.179994
O32	O	-0.446546	0.857492	0.050871
O33	O	-0.908534	0.497397	-0.051091
O34	O	-0.908536	0.626516	-0.051086
O35	O	-0.601517	0.715456	0.113926
O36	O	-0.601522	0.791462	0.037916
O37	O	-0.753561	0.715447	-0.038130
O38	O	-0.753556	0.639441	0.037879
C39	C	-0.474329	0.677445	-0.000069
C40	C	-0.405361	0.677446	-0.000055
C41	C	-0.429097	0.621330	-0.056186
C42	C	-0.364306	0.621333	-0.056200
C43	C	-0.275780	0.677448	-0.000078
C44	C	-0.252043	0.733570	0.056056
C45	C	-0.316834	0.733570	0.056066
C46	C	0.009249	0.733572	0.056018
C47	C	0.074039	0.733567	0.056005
C48	C	-0.038224	0.621335	-0.056248
C49	C	-0.103014	0.621335	-0.056238
C50	C	-0.079272	0.677458	-0.000107
C51	C	-0.149526	0.677456	-0.000093
C52	C	-0.205526	0.677449	-0.000087
C53	C	-0.677535	0.474257	-0.000118
C54	C	-0.677534	0.405296	-0.000121
C55	C	0.119255	0.677446	-0.000142
C56	C	0.050303	0.677453	-0.000130
C57	C	-0.677545	-0.018004	0.056012
C58	C	-0.677539	0.046795	0.056011
C59	C	-0.677540	0.079187	-0.000103
C60	C	-0.677538	0.046780	-0.056217
C61	C	-0.677538	-0.018015	-0.056213
C62	C	-0.677538	0.308091	-0.056234
C63	C	-0.677541	0.372889	-0.056235
C64	C	-0.677539	0.372901	0.055990
C65	C	-0.677539	0.308106	0.055994
C66	C	-0.677532	0.275707	-0.000117
C67	C	-0.677537	0.205446	-0.000115
C68	C	-0.677541	0.149444	-0.000109
C69	C	-0.677549	0.677434	-0.203305
C70	C	-0.677552	0.677431	-0.272267
C71	C	-0.677544	0.880633	-0.000102
C72	C	-0.677546	0.949593	-0.000099
C73	C	-0.756914	0.637751	-0.344361
C74	C	-0.756911	0.637758	-0.409156
C75	C	-0.677546	0.677440	-0.401855
C76	C	-0.598177	0.717124	-0.329753
C77	C	-0.598181	0.717121	-0.264960
C78	C	-0.598162	0.717136	-0.591056
C79	C	-0.598165	0.717134	-0.655857
C80	C	-0.756893	0.637773	-0.735252
C81	C	-0.756896	0.637770	-0.670459
C82	C	-0.677528	0.677457	-0.598363
C83	C	-0.677532	0.677451	-0.528106
C84	C	-0.677541	0.677442	-0.472111
C85	C	-0.677531	0.677455	0.203085
C86	C	-0.677528	0.677458	0.272047
C87	C	-0.474333	0.880633	-0.000061
C88	C	-0.405366	0.949594	-0.000044
C89	C	-0.474320	0.677456	0.203126
C90	C	-0.405349	0.677460	0.272102
C91	C	-0.474324	0.880644	0.203134
C92	C	-0.405355	0.949608	0.272113
C93	C	-0.880755	0.474245	-0.203354
C94	C	-0.949725	0.405281	-0.272333
C95	C	-0.880747	0.474256	-0.000159
C96	C	-0.949713	0.405295	-0.000176
C97	C	-0.880760	0.677433	-0.203346
C98	C	-0.949731	0.677430	-0.272322
C99	C	-0.372980	0.942300	-0.039722
C100	C	-0.308187	1.007089	-0.039722
C101	C	-0.275778	1.079172	-0.000038
C102	C	-0.308171	1.086465	0.039641
C103	C	-0.372967	1.021676	0.039636
C104	C	-0.372959	0.717140	0.344180
C105	C	-0.308162	0.717141	0.408997
C106	C	-0.275753	0.677465	0.401734
C107	C	-0.308149	0.637780	0.329648
C108	C	-0.372949	0.637775	0.264833
C109	C	-0.372969	1.021675	0.264830
C110	C	-0.308173	1.086480	0.329637
C111	C	-0.275761	1.079216	0.401726
C112	C	-0.308154	1.007141	0.409008
C113	C	-0.372952	0.942338	0.344201
C114	C	-0.982119	0.333214	-0.265050
C115	C	-1.046934	0.268409	-0.329857
C116	C	-1.079350	0.275673	-0.401946
C117	C	-1.046953	0.347748	-0.409228
C118	C	-0.982143	0.412551	-0.344421
C119	C	-0.982107	0.412589	0.039496
C120	C	-1.046917	0.347800	0.039477
C121	C	-1.079328	0.275717	-0.000209
C122	C	-1.046932	0.268424	-0.039885
C123	C	-0.982127	0.333213	-0.039871
C124	C	-0.982120	0.717113	-0.265035
C125	C	-1.046917	0.717124	-0.329839
C126	C	-1.079328	0.677447	-0.401930
C127	C	-1.046933	0.637763	-0.409216
C128	C	-0.982133	0.637756	-0.344412
H129	H	-0.501177	0.575626	-0.101879
F130	F	-0.513712	0.759360	-0.188230
F131	F	-0.677537	0.081282	0.115731
H132	H	-0.281752	0.605477	0.323746
F133	F	-1.081434	0.191702	-0.082117
F134	F	-0.407463	0.865590	-0.081965
F135	F	-0.841368	0.595526	-0.678235
F136	F	-0.273693	0.759383	0.485709
F137	F	-0.197230	0.561606	-0.115967
H138	H	-0.399349	1.027604	0.206137
H139	H	-0.821518	0.605459	-0.793962
F140	F	-0.206786	0.677477	0.470724
F141	F	-0.677542	0.407389	0.115712
F142	F	-0.677541	0.407361	-0.115963
H143	H	-0.533532	0.749450	-0.649904
F144	F	-1.081399	0.191708	-0.322092
F145	F	-0.677534	0.273613	-0.115953
H146	H	-0.399313	0.605465	0.206146
F147	F	-0.291568	0.793298	0.115806
H148	H	-0.533536	0.749452	-0.532361
F149	F	-1.148326	0.206696	-0.470913
H150	H	-0.955769	0.605438	-0.350356
H151	H	-0.281821	1.001137	-0.072033
F152	F	-0.677533	0.081257	-0.115937
F153	F	-0.206815	1.148120	-0.000038
H154	H	-0.955730	0.327285	-0.206357
H155	H	-0.955740	0.749423	-0.206340
F156	F	-0.206795	1.148194	0.470693
H157	H	-0.677550	-0.044375	0.101704
H158	H	-1.073354	0.353653	-0.467930
H159	H	-0.955769	0.471230	-0.350360
H160	H	-0.281806	1.145161	0.323695
F161	F	-1.081442	0.595533	-0.485947
H162	H	-0.281754	1.001238	0.467711
H163	H	-0.281774	1.145163	0.071950
F164	F	-0.407409	0.865640	0.351964
H165	H	-0.955722	0.471277	0.071818
F166	F	-1.081381	0.355577	0.081711
H167	H	-0.399339	0.749449	0.350109
F168	F	-1.148299	0.206769	-0.000216
F169	F	-0.407424	1.029450	0.081874
F170	F	-0.947654	0.325439	-0.082093
F171	F	-1.081386	0.759360	-0.322069
H172	H	-0.383641	0.575637	-0.101907
F173	F	-0.063488	0.561605	-0.115990
F174	F	-1.148297	0.677459	-0.470894
H175	H	0.146126	0.779266	0.101708
H176	H	0.028591	0.779271	0.101723
F177	F	-0.677542	0.273633	0.115716
F178	F	-0.157825	0.793295	0.115783
H179	H	-0.821543	0.605433	-0.350315
F180	F	-0.677535	-0.052498	-0.115932
F181	F	-0.841380	0.595525	-0.485884
H182	H	-0.533556	0.749438	-0.323814
