data_functionalizedCrystal
_audit_creation_method	'MofGen! by Chris Wilmer'
_symmetry_space_group_name_H-M	'P1'
_symmetry_Int_Tables_number	1
_symmetry_cell_setting	triclinic
loop_
_symmetry_equiv_pos_as_xyz
  x,y,z
_cell_length_a	9.065218
_cell_length_b	17.699083
_cell_length_c	8.140239
_cell_angle_alpha	89.995596
_cell_angle_beta	89.997198
_cell_angle_gamma	84.149450
loop_
_atom_site_label
_atom_site_type_symbol
_atom_site_fract_x
_atom_site_fract_y
_atom_site_fract_z
O1	O	1.957109	0.110973	-0.136622
O2	O	1.527555	0.120075	-0.136624
O3	O	1.754468	0.005429	-0.136608
O4	O	1.730196	0.225619	-0.136637
O5	O	1.754455	0.005428	0.136619
O6	O	1.527542	0.120074	0.136603
O7	O	1.957097	0.110971	0.136605
Zn8	Zn	1.742317	0.115522	0.179985
Zn9	Zn	1.742334	0.115524	-0.180004
O10	O	1.730183	0.225617	0.136590
C11	C	1.472588	0.119200	-0.000011
C12	C	1.308822	0.116584	-0.000011
C13	C	1.753592	-0.022775	0.000005
C14	C	1.750983	-0.106813	0.000006
C15	C	1.884176	-0.154396	0.000009
C16	C	1.881716	-0.233358	-0.000005
C17	C	1.746060	-0.264737	-0.000011
C18	C	1.612857	-0.217149	-0.000019
C19	C	1.615319	-0.138188	-0.000017
C20	C	1.602925	-0.535589	-0.000033
C21	C	1.600474	-0.614556	-0.000031
C22	C	1.869322	-0.630760	-0.000022
C23	C	1.871784	-0.551799	-0.000019
C24	C	1.738581	-0.504217	-0.000036
C25	C	1.741251	-0.418597	-0.000023
C26	C	1.743390	-0.350355	-0.000012
C27	C	2.012064	0.111847	-0.000012
C28	C	2.175829	0.114463	-0.000022
C29	C	1.731059	0.253822	-0.000028
C30	C	1.733669	0.337860	-0.000039
N31	N	1.742317	0.115521	0.425667
N32	N	1.742346	0.115520	-0.425686
H33	H	1.990175	-0.272097	0.000001
C34	C	2.031421	-0.120290	0.000351
C35	C	2.040708	-0.075454	0.140942
C36	C	2.176340	-0.044035	0.141317
H37	H	2.038120	-0.089767	-0.094817
H38	H	2.110435	-0.159920	0.000435
H39	H	1.961716	-0.035829	0.140843
H40	H	2.034035	-0.105959	0.236133
H41	H	2.255354	-0.083665	0.141401
H42	H	2.183027	-0.013516	0.046143
H43	H	2.182665	-0.013616	0.236713
C44	C	2.019219	-0.517877	-0.000098
C45	C	2.135342	-0.576449	-0.000145
C46	C	2.271181	-0.545231	-0.000247
H47	H	2.025976	-0.487424	0.095155
H48	H	2.025847	-0.487429	-0.095418
H49	H	2.128717	-0.606884	0.095165
H50	H	2.128634	-0.606907	-0.095391
H51	H	2.277809	-0.514783	-0.095567
H52	H	2.277923	-0.514778	0.095008
H53	H	2.349986	-0.584967	-0.000294
H54	H	1.977782	-0.669510	-0.000016
H55	H	1.502404	-0.242703	-0.000035
H56	H	1.490001	-0.640101	-0.000032
C57	C	1.458351	-0.483902	-0.000378
C58	C	1.451887	-0.438108	-0.140971
C59	C	1.318711	-0.390490	-0.141356
H60	H	1.453566	-0.452693	0.094788
H61	H	1.377174	-0.513878	-0.000465
H62	H	1.533042	-0.408135	-0.140870
H63	H	1.456647	-0.469297	-0.236160
H64	H	1.237534	-0.420466	-0.141443
H65	H	1.313938	-0.359286	-0.046184
H66	H	1.314301	-0.359418	-0.236754
H67	H	1.506859	-0.099446	-0.000019
