data_functionalizedCrystal
_audit_creation_method	'MofGen! by Chris Wilmer'
_symmetry_space_group_name_H-M	'P1'
_symmetry_Int_Tables_number	1
_symmetry_cell_setting	triclinic
loop_
_symmetry_equiv_pos_as_xyz
  x,y,z
_cell_length_a	25.639242
_cell_length_b	18.215405
_cell_length_c	18.215399
_cell_angle_alpha	90.032960
_cell_angle_beta	89.974553
_cell_angle_gamma	89.979588
loop_
_atom_site_label
_atom_site_type_symbol
_atom_site_fract_x
_atom_site_fract_y
_atom_site_fract_z
Zn1	Zn	0.799292	0.293062	-0.416272
Zn2	Zn	1.299292	0.793062	0.083728
Zn3	Zn	0.799232	0.416139	-0.293200
Zn4	Zn	1.299232	0.916139	0.206800
Zn5	Zn	0.711863	0.293081	-0.293201
Zn6	Zn	1.211863	0.793081	0.206799
Zn7	Zn	0.711835	0.416082	-0.416206
Zn8	Zn	1.211835	0.916082	0.083794
O9	O	0.755555	0.354591	-0.354720
O10	O	1.255555	0.854591	0.145280
O11	O	0.872449	0.309404	-0.399973
O12	O	1.372449	0.809404	0.100027
O13	O	0.787629	0.399846	-0.190216
O14	O	1.287629	0.899846	0.309784
O15	O	0.723498	0.190094	-0.309554
O16	O	1.223498	0.690094	0.190446
O17	O	0.872405	0.399828	-0.309553
O18	O	1.372405	0.899828	0.190447
O19	O	0.787732	0.190080	-0.399974
O20	O	1.287732	0.690080	0.100026
O21	O	0.723440	0.309436	-0.190216
O22	O	1.223440	0.809436	0.309784
O23	O	0.638694	0.309381	-0.309491
O24	O	1.138694	0.809381	0.190509
O25	O	0.723449	0.399731	-0.519199
O26	O	1.223449	0.899731	-0.019199
O27	O	0.638673	0.399750	-0.399862
O28	O	1.138673	0.899750	0.100138
O29	O	0.787704	0.309349	-0.519247
O30	O	1.287704	0.809349	-0.019247
O31	O	0.787601	0.519115	-0.309489
O32	O	1.287601	1.019115	0.190511
O33	O	0.723391	0.519074	-0.399862
O34	O	1.223391	1.019074	0.100138
C35	C	0.755500	0.545797	-0.354684
C36	C	1.255500	1.045797	0.145316
C37	C	0.755525	0.627596	-0.354694
C38	C	1.255525	1.127596	0.145306
C39	C	0.619713	0.354562	-0.354670
C40	C	1.119713	0.854562	0.145330
C41	C	0.561599	0.354567	-0.354666
C42	C	1.061599	0.854567	0.145334
C43	C	0.755580	0.354532	-0.546673
C44	C	1.255580	0.854532	-0.046673
C45	C	0.755591	0.354507	-0.628472
C46	C	1.255591	0.854507	-0.128472
C47	C	0.201234	0.401724	-0.401732
C48	C	0.701234	0.901724	0.098268
C49	C	0.146629	0.401729	-0.401743
C50	C	0.646629	0.901729	0.098257
O51	O	0.118391	0.441787	-0.441718
O52	O	0.618391	0.941787	0.058282
N53	N	0.119316	0.354611	-0.354768
N54	N	0.619316	0.854611	0.145232
C55	C	0.146611	0.307481	-0.307783
C56	C	0.646611	0.807481	0.192217
O57	O	0.118365	0.267403	-0.267828
O58	O	0.618365	0.767403	0.232172
C59	C	0.201214	0.307473	-0.307775
C60	C	0.701214	0.807473	0.192225
C61	C	0.228524	0.354599	-0.354749
C62	C	0.728524	0.854599	0.145251
C63	C	0.228544	0.448846	-0.448702
C64	C	0.728544	0.948846	0.051298
C65	C	0.283144	0.448842	-0.448689
C66	C	0.783144	0.948842	0.051311
C67	C	0.310435	0.401717	-0.401706
C68	C	0.810435	0.901717	0.098294
C69	C	0.283125	0.354595	-0.354736
C70	C	0.783125	0.854595	0.145264
C71	C	0.228507	0.260339	-0.260795
C72	C	0.728507	0.760339	0.239205
C73	C	0.283114	0.260335	-0.260792
C74	C	0.783114	0.760335	0.239208
C75	C	0.310424	0.307461	-0.307765
C76	C	0.810424	0.807461	0.192235
C77	C	0.365016	0.307466	-0.307740
C78	C	0.865016	0.807466	0.192260
N79	N	0.392328	0.354584	-0.354716
N80	N	0.892328	0.854584	0.145284
C81	C	0.365038	0.401709	-0.401699
C82	C	0.865038	0.901709	0.098301
C83	C	0.031940	0.307499	-0.307803
C84	C	0.531940	0.807499	0.192197
C85	C	-0.022662	0.307510	-0.307806
C86	C	0.477338	0.807510	0.192194
C87	C	-0.022640	0.401758	-0.401767
C88	C	0.477360	0.901758	0.098233
C89	C	0.031964	0.401750	-0.401760
C90	C	0.531964	0.901750	0.098240
C91	C	0.059253	0.354617	-0.354778
C92	C	0.559253	0.854617	0.145222
C93	C	0.479703	0.401698	-0.401668
C94	C	0.979703	0.901698	0.098332
C95	C	0.534309	0.401692	-0.401649
C96	C	1.034309	0.901692	0.098351
C97	C	0.534281	0.307443	-0.307690
C98	C	1.034281	0.807443	0.192310
C99	C	0.479681	0.307451	-0.307706
C100	C	0.979681	0.807451	0.192294
C101	C	0.452393	0.354581	-0.354701
C102	C	0.952393	0.854581	0.145299
O103	O	0.393289	0.267426	-0.267788
O104	O	0.893289	0.767426	0.232212
O105	O	0.393291	0.441773	-0.441654
O106	O	0.893291	0.941773	0.058346
C107	C	0.891928	0.354620	-0.354770
C108	C	1.391928	0.854620	0.145230
C109	C	0.950043	0.354633	-0.354792
C110	C	1.450043	0.854633	0.145208
C111	C	0.755625	0.162638	-0.354771
C112	C	1.255625	0.662638	0.145229
C113	C	0.755655	0.080839	-0.354793
C114	C	1.255655	0.580839	0.145207
C115	C	0.789037	0.815787	-0.307724
C116	C	1.289037	1.315787	0.192276
C117	C	0.789061	0.892646	-0.307741
C118	C	1.289061	1.392646	0.192259
C119	C	0.722141	0.892642	-0.401769
C120	C	1.222141	1.392642	0.098231
C121	C	0.722120	0.815785	-0.401754
C122	C	1.222120	1.315785	0.098246
C123	C	0.755568	0.777359	-0.354727
C124	C	1.255568	1.277359	0.145273
C125	C	0.755612	0.931075	-0.354760
C126	C	1.255612	1.431075	0.145240
C127	C	0.755637	1.014409	-0.354779
C128	C	1.255637	1.514409	0.145221
C129	C	0.755544	0.694020	-0.354708
C130	C	1.255544	1.194020	0.145292
C131	C	0.722196	0.307399	-0.816667
C132	C	1.222196	0.807399	-0.316667
C133	C	0.722205	0.307384	-0.893526
C134	C	1.222205	0.807384	-0.393526
C135	C	0.789048	0.401527	-0.893514
C136	C	1.289048	0.901527	-0.393514
C137	C	0.789036	0.401545	-0.816657
C138	C	1.289036	0.901545	-0.316657
C139	C	0.755611	0.354477	-0.778235
C140	C	1.255611	0.854477	-0.278235
C141	C	0.755632	0.354444	-0.931951
C142	C	1.255632	0.854444	-0.431951
C143	C	0.755642	0.354428	-1.015285
C144	C	1.255642	0.854428	-0.515285
C145	C	0.755600	0.354493	-0.694896
C146	C	1.255600	0.854493	-0.194896
C147	C	0.755561	0.354596	-0.163513
C148	C	1.255561	0.854596	0.336487
C149	C	0.755652	0.354414	-0.081715
C150	C	1.255652	0.854414	0.418285
H151	H	0.556542	0.440071	-0.439901
H152	H	1.056542	0.940071	0.060099
H153	H	-0.044894	0.269143	-0.269548
H154	H	0.455106	0.769143	0.230452
H155	H	0.694978	0.269073	-0.785386
H156	H	1.194978	0.769073	-0.285386
H157	H	0.305330	0.221949	-0.222537
H158	H	0.805330	0.721949	0.277463
H159	H	0.694908	0.923938	-0.440055
H160	H	1.194908	1.423938	0.059945
H161	H	0.694995	0.269049	-0.924813
H162	H	1.194995	0.769049	-0.424813
H163	H	0.816316	0.923930	-0.269467
H164	H	1.316316	1.423930	0.230533
H165	H	0.816248	0.439885	-0.785365
H166	H	1.316248	0.939885	-0.285365
H167	H	0.054196	0.440123	-0.440011
H168	H	0.554196	0.940123	0.059989
H169	H	0.694865	0.784495	-0.440034
H170	H	1.194865	1.284495	0.059966
H171	H	0.054156	0.269119	-0.269539
H172	H	0.554156	0.769119	0.230461
H173	H	0.457492	0.440074	-0.439937
H174	H	0.957492	0.940074	0.060063
H175	H	0.816262	0.439848	-0.924807
H176	H	1.316262	0.939848	-0.424807
H177	H	0.206330	0.487221	-0.486965
H178	H	0.706330	0.987221	0.013035
H179	H	0.206281	0.221966	-0.222542
H180	H	0.706281	0.721966	0.277458
H181	H	0.556511	0.269077	-0.269436
H182	H	1.056511	0.769077	0.230564
H183	H	0.305376	0.487216	-0.486941
H184	H	0.805376	0.987216	0.013059
H185	H	-0.044870	0.440127	-0.440026
H186	H	0.455130	0.940127	0.059974
H187	H	0.816273	0.784503	-0.269433
H188	H	1.316273	1.284503	0.230567
H189	H	0.457444	0.269078	-0.269455
H190	H	0.957444	0.769078	0.230545
