data_functionalizedCrystal
_audit_creation_method	'MofGen! by Chris Wilmer'
_symmetry_space_group_name_H-M	'P1'
_symmetry_Int_Tables_number	1
_symmetry_cell_setting	triclinic
loop_
_symmetry_equiv_pos_as_xyz
  x,y,z
_cell_length_a	14.044191
_cell_length_b	10.723024
_cell_length_c	9.798715
_cell_angle_alpha	90.003391
_cell_angle_beta	90.000527
_cell_angle_gamma	91.170177
loop_
_atom_site_label
_atom_site_type_symbol
_atom_site_fract_x
_atom_site_fract_y
_atom_site_fract_z
O1	O	-0.133040	1.670502	0.113471
O2	O	0.200293	2.003835	0.446804
O3	O	0.533627	2.337169	0.780138
O4	O	-0.145775	1.308624	0.113475
O5	O	0.187559	1.641957	0.446808
O6	O	0.520892	1.975291	0.780141
O7	O	-0.001387	1.484127	0.113475
O8	O	0.331946	1.817460	0.446809
O9	O	0.665279	2.150793	0.780142
O10	O	-0.277427	1.494999	0.113470
O11	O	0.055906	1.828333	0.446803
O12	O	0.389239	2.161666	0.780137
O13	O	-0.001387	1.484112	-0.113507
O14	O	0.331947	1.817446	0.219826
O15	O	0.665280	2.150779	0.553160
O16	O	-0.145774	1.308610	-0.113508
O17	O	0.187559	1.641943	0.219826
O18	O	0.520892	1.975276	0.553159
O19	O	-0.133040	1.670488	-0.113511
O20	O	0.200294	2.003821	0.219822
O21	O	0.533627	2.337154	0.553155
Zn22	Zn	-0.139407	1.489546	-0.149548
Zn23	Zn	0.193926	1.822880	0.183786
Zn24	Zn	0.527260	2.156213	0.517119
Zn25	Zn	-0.139407	1.489565	0.149511
Zn26	Zn	0.193926	1.822899	0.482844
Zn27	Zn	0.527259	2.156232	0.816178
O28	O	-0.277427	1.494985	-0.113512
O29	O	0.055906	1.828318	0.219821
O30	O	0.389240	2.161652	0.553155
C31	C	-0.144848	1.262025	-0.000016
C32	C	0.188486	1.595358	0.333317
C33	C	0.521819	1.928691	0.666651
C34	C	-0.142075	1.123193	-0.000014
C35	C	0.191258	1.456526	0.333319
C36	C	0.524592	1.789859	0.666653
C37	C	-0.222867	1.056296	-0.000015
C38	C	0.110467	1.389629	0.333319
C39	C	0.443800	1.722962	0.666652
C40	C	-0.220003	0.912806	-0.000013
C41	C	0.113331	1.246139	0.333320
C42	C	0.446664	1.579472	0.666654
C43	C	-0.312773	1.499749	-0.000022
C44	C	0.020561	1.833082	0.333312
C45	C	0.353894	2.166415	0.666645
C46	C	-0.418091	1.513937	-0.000023
C47	C	-0.084758	1.847270	0.333310
C48	C	0.248576	2.180603	0.666643
C49	C	-0.667892	1.439251	-0.000011
C50	C	-0.334558	1.772584	0.333323
C51	C	-0.001225	2.105918	0.666656
C52	C	-0.610917	1.539855	-0.000014
C53	C	-0.277584	1.873188	0.333319
C54	C	0.055750	2.206522	0.666653
C55	C	-0.503619	1.525431	-0.000019
C56	C	-0.170285	1.858764	0.333314
C57	C	0.163048	2.192097	0.666647
C58	C	-0.775200	1.453674	-0.000006
C59	C	-0.441867	1.787007	0.333328
C60	C	-0.108533	2.120340	0.666661
C61	C	0.033958	1.479363	-0.000012
C62	C	0.367292	1.812696	0.333321
C63	C	0.700625	2.146030	0.666655
C64	C	0.139277	1.465175	-0.000001
C65	C	0.472610	1.798508	0.333332
C66	C	0.805943	2.131842	0.666665
C67	C	-0.133967	1.717087	-0.000018
C68	C	0.199367	2.050420	0.333316
C69	C	0.532700	2.383754	0.666649
C70	C	-0.136739	1.855919	-0.000011
C71	C	0.196594	2.189252	0.333323
C72	C	0.529927	2.522586	0.666656
N73	N	-0.139406	1.489543	-0.353647
N74	N	0.193927	1.822876	-0.020314
N75	N	0.527261	2.156209	0.313019
C76	C	-0.078515	1.563205	-0.421424
C77	C	0.254819	1.896538	-0.088091
C78	C	0.588152	2.229871	0.245243
C79	C	-0.078511	1.563224	-0.578587
C80	C	0.254822	1.896558	-0.245253
C81	C	0.588155	2.229891	0.088080
N82	N	-0.139401	1.489578	0.353611
N83	N	0.193933	1.822911	0.686944
N84	N	0.527266	2.156245	1.020277
H85	H	-0.294155	1.105252	-0.000024
H86	H	0.039178	1.438586	0.333309
H87	H	0.372511	1.771919	0.666643
H88	H	-0.642723	1.636818	0.000084
H89	H	-0.309389	1.970151	0.333417
H90	H	0.023944	2.303485	0.666750
H91	H	-0.026381	1.626251	-0.363101
H92	H	0.306952	1.959584	-0.029768
H93	H	0.640285	2.292918	0.303566
H94	H	-0.636088	1.342296	-0.000013
H95	H	-0.302754	1.675629	0.333320
H96	H	0.030579	2.008962	0.666653
H97	H	-0.026383	1.626294	-0.636872
H98	H	0.306950	1.959628	-0.303538
H99	H	0.640284	2.292961	0.029795
H100	H	-0.191539	1.426515	-0.588113
H101	H	0.141795	1.759848	-0.254780
H102	H	0.475128	2.093181	0.078553
H103	H	-0.289167	0.855295	-0.000008
H104	H	0.044167	1.188628	0.333325
H105	H	0.377500	1.521962	0.666659
H106	H	-0.191532	1.426487	-0.411972
H107	H	0.141802	1.759821	-0.078639
H108	H	0.475135	2.093154	0.254694
H109	H	-0.067572	0.913422	-0.000001
H110	H	0.265762	1.246755	0.333332
H111	H	0.599095	1.580088	0.666665
H112	H	-0.070786	1.074236	0.000022
H113	H	0.262547	1.407569	0.333356
H114	H	0.595880	1.740903	0.666689
