data_functionalizedCrystal
_audit_creation_method	'MofGen! by Chris Wilmer'
_symmetry_space_group_name_H-M	'P1'
_symmetry_Int_Tables_number	1
_symmetry_cell_setting	triclinic
loop_
_symmetry_equiv_pos_as_xyz
  x,y,z
_cell_length_a	10.654550
_cell_length_b	17.699083
_cell_length_c	9.130313
_cell_angle_alpha	89.994594
_cell_angle_beta	89.999724
_cell_angle_gamma	83.883973
loop_
_atom_site_label
_atom_site_type_symbol
_atom_site_fract_x
_atom_site_fract_y
_atom_site_fract_z
O1	O	1.665979	0.106303	-0.121693
O2	O	1.300323	0.116430	-0.121721
O3	O	1.493481	0.001243	-0.121693
O4	O	1.472820	0.221490	-0.121721
O5	O	1.493468	0.001240	0.121906
O6	O	1.300310	0.116427	0.121878
O7	O	1.665966	0.106299	0.121906
Cu8	Cu	1.483136	0.111363	0.144134
Cu9	Cu	1.483152	0.111367	-0.143949
O10	O	1.472807	0.221487	0.121878
C11	C	1.253531	0.115685	0.000076
C12	C	1.114127	0.113460	0.000066
C13	C	1.033454	0.181281	0.000061
C14	C	0.902470	0.179186	0.000087
C15	C	0.932844	0.041444	0.000115
C16	C	1.063826	0.043539	0.000100
C17	C	1.492735	-0.026960	0.000106
C18	C	1.490514	-0.110993	0.000107
C19	C	1.603894	-0.158893	0.000117
C20	C	1.601799	-0.237849	0.000104
C21	C	1.486323	-0.268904	0.000091
C22	C	1.372935	-0.220998	0.000076
C23	C	1.375030	-0.142043	0.000079
C24	C	1.364481	-0.539415	0.000064
C25	C	1.362394	-0.618376	0.000065
C26	C	1.591249	-0.635221	0.000089
C27	C	1.593345	-0.556266	0.000092
C28	C	1.479957	-0.508367	0.000069
C29	C	1.482229	-0.422753	0.000080
C30	C	1.484050	-0.354516	0.000090
C31	C	1.712757	0.107045	0.000106
C32	C	1.852161	0.109269	0.000107
C33	C	1.473554	0.249690	0.000075
C34	C	1.475775	0.333722	0.000065
N35	N	1.483135	0.111360	0.346757
N36	N	1.483164	0.111364	-0.346572
C37	C	1.568694	0.060376	0.423421
C38	C	1.568706	0.060376	0.576758
C39	C	1.397596	0.162350	0.576753
C40	C	1.397579	0.162345	0.423419
H41	H	1.074405	0.238215	0.000044
C42	C	1.662826	0.004296	0.661090
C43	C	1.756950	-0.051772	0.576761
C44	C	1.851072	-0.107856	0.661094
C45	C	1.851070	-0.107871	0.829755
C46	C	1.756943	-0.051800	0.914093
C47	C	1.662820	0.004283	0.829761
H48	H	1.756954	-0.051763	0.451899
H49	H	1.920751	-0.149363	0.598660
H50	H	1.920745	-0.149387	0.892183
H51	H	1.756938	-0.051809	1.038955
H52	H	1.593141	0.045791	0.892195
C53	C	1.303496	0.218439	0.661082
C54	C	1.303580	0.218494	0.829744
C55	C	1.209480	0.274586	0.914068
C56	C	1.115297	0.330624	0.829730
C57	C	1.115209	0.330571	0.661059
C58	C	1.209309	0.274478	0.576735
H59	H	1.373303	0.177010	0.892184
H60	H	1.209545	0.274625	1.038929
H61	H	1.045639	0.372147	0.892152
H62	H	1.045486	0.372055	0.598619
H63	H	1.209244	0.274439	0.451874
C64	C	1.239757	-0.486732	0.000070
C65	C	1.112740	-0.520894	0.000080
C66	C	0.988010	-0.468208	0.000098
C67	C	0.990296	-0.381359	0.000105
C68	C	1.117318	-0.347192	0.000095
C69	C	1.242048	-0.399879	0.000078
H70	H	1.111043	-0.585189	0.000075
H71	H	0.893980	-0.493501	0.000105
H72	H	0.897964	-0.342357	0.000118
H73	H	1.119015	-0.282897	0.000100
H74	H	1.336078	-0.374586	0.000070
H75	H	1.638357	0.018859	0.361006
H76	H	0.836791	0.234412	0.000087
H77	H	0.891873	-0.015484	0.000152
H78	H	1.129514	-0.011692	0.000108
H79	H	1.697927	-0.133614	0.000137
H80	H	1.694125	-0.276847	0.000116
H81	H	1.687377	-0.530986	0.000109
H82	H	1.683575	-0.674231	0.000100
H83	H	1.268354	-0.643657	0.000058
H84	H	1.278912	-0.246289	0.000056
H85	H	1.327900	0.203862	0.360995
H86	H	1.282705	-0.103043	0.000070
