data_functionalizedCrystal
_audit_creation_method	'MofGen! by Chris Wilmer'
_symmetry_space_group_name_H-M	'P1'
_symmetry_Int_Tables_number	1
_symmetry_cell_setting	triclinic
loop_
_symmetry_equiv_pos_as_xyz
  x,y,z
_cell_length_a	25.639239
_cell_length_b	25.639242
_cell_length_c	25.639233
_cell_angle_alpha	90.022166
_cell_angle_beta	90.018747
_cell_angle_gamma	90.034213
loop_
_atom_site_label
_atom_site_type_symbol
_atom_site_fract_x
_atom_site_fract_y
_atom_site_fract_z
Zn1	Zn	-0.208277	0.799225	0.295742
Zn2	Zn	-0.295696	0.799149	0.208307
Zn3	Zn	-0.208269	0.711801	0.208306
Zn4	Zn	-0.295676	0.711746	0.295696
O5	O	-0.251979	0.755480	0.252013
O6	O	-0.219884	0.872380	0.284163
O7	O	-0.284103	0.787553	0.135141
O8	O	-0.135105	0.723453	0.219924
O9	O	-0.284111	0.872324	0.219924
O10	O	-0.135111	0.787683	0.284163
O11	O	-0.219871	0.723379	0.135141
O12	O	-0.219853	0.638629	0.219880
O13	O	-0.284078	0.723360	0.368868
O14	O	-0.284070	0.638589	0.284085
O15	O	-0.219866	0.787630	0.368901
O16	O	-0.368858	0.787499	0.219880
O17	O	-0.368844	0.723286	0.284085
C18	C	-0.251959	0.619638	0.251977
C19	C	-0.251963	0.561524	0.251975
C20	C	-0.285473	0.201149	0.285413
C21	C	-0.285477	0.146544	0.285421
O22	O	-0.313943	0.118297	0.313821
N23	N	-0.251994	0.119241	0.252047
C24	C	-0.218502	0.146545	0.218666
O25	O	-0.190022	0.118308	0.190280
C26	C	-0.218496	0.201149	0.218661
C27	C	-0.251985	0.228449	0.252034
C28	C	-0.318959	0.228449	0.318783
C29	C	-0.318956	0.283049	0.318774
C30	C	-0.285468	0.310350	0.285395
C31	C	-0.251983	0.283049	0.252024
C32	C	-0.185002	0.228452	0.185283
C33	C	-0.185000	0.283059	0.185281
C34	C	-0.218488	0.310359	0.218654
C35	C	-0.218492	0.364950	0.218636
N36	N	-0.251974	0.392253	0.252010
C37	C	-0.285463	0.364953	0.285389
C38	C	-0.218515	0.031875	0.218680
C39	C	-0.218523	-0.022728	0.218683
C40	C	-0.285497	-0.022725	0.285438
C41	C	-0.285492	0.031878	0.285433
C42	C	-0.251998	0.059178	0.252054
C43	C	-0.285455	0.479618	0.285368
C44	C	-0.285451	0.534223	0.285354
C45	C	-0.218475	0.534216	0.218601
C46	C	-0.218481	0.479615	0.218612
C47	C	-0.251972	0.452318	0.252000
O48	O	-0.190038	0.393232	0.190252
O49	O	-0.313933	0.393197	0.313776
C50	C	-0.387822	0.755392	0.251989
C51	C	-0.445936	0.755403	0.251996
C52	C	-0.806294	0.789004	0.218638
C53	C	-0.860898	0.789024	0.218645
O54	O	-0.889131	0.817502	0.190257
N55	N	-0.888218	0.755572	0.252048
C56	C	-0.860932	0.722102	0.285449
O57	O	-0.889184	0.693651	0.313861
C58	C	-0.806328	0.722085	0.285444
C59	C	-0.779011	0.755535	0.252036
C60	C	-0.778976	0.822452	0.185233
C61	C	-0.724376	0.822431	0.185226
C62	C	-0.697093	0.788962	0.218623
C63	C	-0.724410	0.755514	0.252028
C64	C	-0.779042	0.688617	0.318847
C65	C	-0.724435	0.688603	0.318840
C66	C	-0.697118	0.722053	0.285432
C67	C	-0.642527	0.722024	0.285418
N68	N	-0.615206	0.755475	0.252016
C69	C	-0.642490	0.788944	0.218618
C70	C	-0.975602	0.722141	0.285457
C71	C	-1.030204	0.722155	0.285459
C72	C	-1.030167	0.789078	0.218656
C73	C	-0.975564	0.789061	0.218652
C74	C	-0.948282	0.755593	0.252055
C75	C	-0.527824	0.788897	0.218605
C76	C	-0.473219	0.788872	0.218599
C77	C	-0.473261	0.721951	0.285403
C78	C	-0.527862	0.721974	0.285408
C79	C	-0.555142	0.755452	0.252007
O80	O	-0.614260	0.693562	0.313793
O81	O	-0.614231	0.817396	0.190216
C82	C	-0.115606	0.755583	0.252048
C83	C	-0.057492	0.755627	0.252064
C84	C	-0.251970	0.755497	0.388386
C85	C	-0.251966	0.755504	0.446500
C86	C	-0.252000	0.891853	0.252049
C87	C	-0.252009	0.949967	0.252064
C88	C	-0.251951	0.755494	0.116170
C89	C	-0.251807	0.755588	0.058057
C90	C	-0.218432	0.789012	0.806886
C91	C	-0.218417	0.789019	0.861491
O92	O	-0.189967	0.817466	0.889747
N93	N	-0.251844	0.755562	0.888783
C94	C	-0.285283	0.722093	0.861468
O95	O	-0.313713	0.693636	0.889695
C96	C	-0.285294	0.722084	0.806864
C97	C	-0.251870	0.755547	0.779575
C98	C	-0.185009	0.822472	0.779597
C99	C	-0.185025	0.822466	0.724997
C100	C	-0.218462	0.789000	0.697685
C101	C	-0.251885	0.755541	0.724974
C102	C	-0.318731	0.688613	0.779550
C103	C	-0.318739	0.688607	0.724943
C104	C	-0.285314	0.722069	0.697654
C105	C	-0.285338	0.722070	0.643063
N106	N	-0.251912	0.755526	0.615771
C107	C	-0.218474	0.788992	0.643082
C108	C	-0.285256	0.722113	0.976138
C109	C	-0.285247	0.722124	1.030741
C110	C	-0.218381	0.789049	1.030760
C111	C	-0.218392	0.789041	0.976157
C112	C	-0.251829	0.755570	0.948846
C113	C	-0.218509	0.788977	0.528417
C114	C	-0.218529	0.788970	0.473811
C115	C	-0.285393	0.722043	0.473797
C116	C	-0.285375	0.722052	0.528397
C117	C	-0.251929	0.755521	0.555706
O118	O	-0.313773	0.693635	0.614771
O119	O	-0.190044	0.817439	0.614847
H120	H	-0.312760	0.054103	0.312609
H121	H	-0.953325	0.816300	0.191448
H122	H	-0.191310	0.816221	0.451595
N123	N	-0.321327	0.686020	0.946678
H124	H	-0.300082	0.661801	0.924020
H125	H	-0.342494	0.664862	0.972285
H126	H	-0.191241	0.054099	0.191496
N127	N	-0.321618	-0.052176	0.321442
H128	H	-0.316536	-0.090908	0.316380
H129	H	-0.313534	-0.042610	0.358797
H130	H	-0.191272	0.816229	0.550645
N131	N	-0.808401	0.858550	0.149208
H132	H	-0.798858	0.895899	0.157365
H133	H	-0.798904	0.850403	0.111858
N134	N	-0.182411	-0.052170	0.182680
H135	H	-0.161199	-0.026585	0.161535
H136	H	-0.158245	-0.074801	0.204007
H137	H	-0.345949	0.661364	0.801759
N138	N	-0.354808	0.652504	0.695493
H139	H	-0.379050	0.673728	0.672842
H140	H	-0.333527	0.628293	0.672864
H141	H	-0.953392	0.694883	0.312656
H142	H	-0.312619	0.694798	0.451550
N143	N	-0.321574	0.563669	0.321348
H144	H	-0.342788	0.538085	0.342495
H145	H	-0.300329	0.586350	0.345580
N146	N	-0.321578	0.450180	0.321376
H147	H	-0.342789	0.475767	0.342511
H148	H	-0.345745	0.427502	0.300053
H149	H	-0.801275	0.661376	0.346049
H150	H	-0.157734	0.206233	0.158106
H151	H	-0.157721	0.305283	0.158103
H152	H	-0.312597	0.694809	0.550617
H153	H	-1.052391	0.816333	0.191464
N154	N	-0.148972	0.858556	0.695567
H155	H	-0.127789	0.879753	0.721161
H156	H	-0.124776	0.837290	0.672910
N157	N	-0.182369	0.450166	0.182612
H158	H	-0.161156	0.475749	0.161464
H159	H	-0.158203	0.427538	0.203943
N160	N	-0.182358	0.563667	0.182599
H161	H	-0.187439	0.602399	0.187662
H162	H	-0.145030	0.554148	0.190809
H163	H	-0.346225	0.305272	0.345950
N164	N	-0.148936	0.858564	0.809049
H165	H	-0.127766	0.879754	0.783468
H166	H	-0.170212	0.882752	0.831708
H167	H	-0.450979	0.816111	0.191392
H168	H	-1.052442	0.694912	0.312659
H169	H	-0.191174	0.816288	0.953941
H170	H	-0.550105	0.694738	0.312613
H171	H	-0.550030	0.816159	0.191408
H172	H	-0.702137	0.849670	0.158024
H173	H	-0.346229	0.206227	0.345967
H174	H	-0.702225	0.661350	0.346042
N175	N	-0.443829	0.685850	0.321420
H176	H	-0.405094	0.690917	0.316344
H177	H	-0.453346	0.693966	0.358772
N178	N	-0.182314	0.825145	1.060222
H179	H	-0.187380	0.820069	1.098954
H180	H	-0.144974	0.817034	1.050681
N181	N	-0.321306	0.686040	1.060171
H182	H	-0.342489	0.664841	1.034579
H183	H	-0.300016	0.661860	1.082821
