data_functionalizedCrystal
_audit_creation_method	'MofGen! by Chris Wilmer'
_symmetry_space_group_name_H-M	'P1'
_symmetry_Int_Tables_number	1
_symmetry_cell_setting	triclinic
loop_
_symmetry_equiv_pos_as_xyz
  x,y,z
_cell_length_a	27.731996
_cell_length_b	10.654550
_cell_length_c	9.730223
_cell_angle_alpha	90.007970
_cell_angle_beta	89.991235
_cell_angle_gamma	96.446855
loop_
_atom_site_label
_atom_site_type_symbol
_atom_site_fract_x
_atom_site_fract_y
_atom_site_fract_z
O1	O	0.067886	-1.664955	-0.114423
O2	O	0.074354	-1.299201	-0.114403
O3	O	0.000792	-1.493472	-0.114384
O4	O	0.141448	-1.470684	-0.114442
O5	O	0.000793	-1.493454	0.114196
O6	O	0.074354	-1.299184	0.114177
O7	O	0.067886	-1.664938	0.114157
Zn8	Zn	0.071120	-1.482058	0.150459
Zn9	Zn	0.071120	-1.482081	-0.150705
O10	O	0.141448	-1.470667	0.114138
C11	C	0.073879	-1.252415	-0.000110
C12	C	0.072458	-1.113032	-0.000101
C13	C	-0.017218	-1.492995	-0.000089
C14	C	-0.070883	-1.491585	-0.000075
C15	C	0.068361	-1.711724	-0.000139
C16	C	0.069782	-1.851107	-0.000157
C17	C	-0.403655	-1.482724	-0.124740
C18	C	-0.605346	-1.477370	-0.124764
O19	O	-0.631422	-1.476631	-0.230732
N20	N	-0.630567	-1.476695	-0.000167
C21	C	-0.605362	-1.477351	0.124446
O22	O	-0.631441	-1.476642	0.230424
C23	C	-0.403671	-1.482696	0.124468
C24	C	-0.378453	-1.483383	-0.000137
C25	C	-0.378437	-1.483409	-0.249336
C26	C	-0.328017	-1.484755	-0.249329
C27	C	-0.302815	-1.485414	-0.124726
C28	C	-0.328033	-1.484729	-0.000130
C29	C	-0.378466	-1.483343	0.249080
C30	C	-0.328040	-1.484676	0.249074
C31	C	-0.302822	-1.485363	0.124468
C32	C	-0.252412	-1.486734	0.124480
N33	N	-0.227191	-1.487408	-0.000118
C34	C	-0.252393	-1.486748	-0.124721
C35	C	-0.711253	-1.474547	0.124425
C36	C	-0.761675	-1.473213	0.124420
C37	C	-0.761656	-1.473230	-0.124791
C38	C	-0.711233	-1.474573	-0.124784
C39	C	-0.686032	-1.475222	-0.000172
C40	C	-0.146508	-1.489575	-0.124696
C41	C	-0.096084	-1.490925	-0.124678
C42	C	-0.096108	-1.490902	0.124532
C43	C	-0.146527	-1.489559	0.124515
C44	C	-0.171726	-1.488890	-0.000111
O45	O	-0.226305	-1.487458	0.230392
O46	O	-0.226303	-1.487430	-0.230682
C47	C	-0.454074	-1.481378	-0.124748
C48	C	-0.479292	-1.480693	-0.000152
C49	C	-0.454090	-1.481352	0.124451
C50	C	-0.529715	-1.479359	-0.000157
C51	C	-0.554916	-1.478699	-0.124760
C52	C	-0.529695	-1.479373	-0.249358
C53	C	-0.479276	-1.480719	-0.249351
C54	C	-0.479311	-1.480678	0.249049
C55	C	-0.529731	-1.479334	0.249031
C56	C	-0.554933	-1.478674	0.124428
C57	C	0.159458	-1.471144	-0.000160
C58	C	0.213123	-1.472554	-0.000183
N59	N	0.071121	-1.482052	0.355996
C60	C	0.115770	-1.031705	-0.000139
C61	C	0.114432	-0.900741	-0.000162
C62	C	0.026467	-0.932445	-0.000115
C63	C	0.027805	-1.063406	-0.000082
C64	C	0.160423	-1.081331	-0.000157
C65	C	0.203739	-1.000002	-0.000197
C66	C	0.202401	-0.869038	-0.000220
C67	C	0.157747	-0.819403	-0.000204
N68	N	0.071116	-1.482097	-0.356241
C69	C	0.103679	-1.396018	0.427948
C70	C	0.103678	-1.396044	0.571831
C71	C	0.038556	-1.568140	0.571796
C72	C	0.038560	-1.568119	0.427916
C73	C	0.136240	-1.309951	0.356028
C74	C	0.168801	-1.223909	0.427981
C75	C	0.168800	-1.223935	0.571864
C76	C	0.136238	-1.310001	0.643794
H77	H	-0.075554	-1.491488	-0.226151
H78	H	0.195314	-1.153844	0.369409
F79	F	0.251259	-1.052829	-0.000201
H80	H	-0.007463	-1.129626	-0.000055
H81	H	-0.167019	-1.489024	-0.226178
F82	F	0.003903	-1.659729	0.648352
H83	H	-0.782184	-1.472694	-0.226247
H84	H	-0.307489	-1.485309	-0.350796
F85	F	0.003908	-1.659690	0.351337
F86	F	-0.684437	-1.475232	0.257063
F87	F	-0.021053	-0.879614	-0.000102
F88	F	0.248500	-0.782485	-0.000249
F89	F	-0.405250	-1.482706	-0.381968
F90	F	-0.556565	-1.478611	0.381664
H91	H	-0.690704	-1.475130	-0.226249
F92	F	-0.788510	-1.472505	0.257043
F93	F	0.136244	-1.310031	0.796929
H94	H	-0.398990	-1.482786	0.350547
H95	H	-0.307523	-1.485186	0.350551
H96	H	-0.167061	-1.489011	0.225979
H97	H	-0.075580	-1.491445	0.225981
H98	H	-0.458748	-1.481277	-0.350818
F99	F	-0.556526	-1.478678	-0.381970
F100	F	0.203457	-1.132374	0.648440
H101	H	-0.458798	-1.481217	0.350518
F102	F	0.136242	-1.309914	0.202896
F103	F	0.161851	-1.220712	-0.000139
F104	F	0.156326	-0.680017	-0.000210
