data_functionalizedCrystal
_audit_creation_method	'MofGen! by Chris Wilmer'
_symmetry_space_group_name_H-M	'P1'
_symmetry_Int_Tables_number	1
_symmetry_cell_setting	triclinic
loop_
_symmetry_equiv_pos_as_xyz
  x,y,z
_cell_length_a	42.784839
_cell_length_b	42.784841
_cell_length_c	42.795305
_cell_angle_alpha	90.002005
_cell_angle_beta	120.002520
_cell_angle_gamma	60.000137
loop_
_atom_site_label
_atom_site_type_symbol
_atom_site_fract_x
_atom_site_fract_y
_atom_site_fract_z
O1	O	-0.275695	-0.214412	-0.009298
O2	O	-0.211692	-0.168961	0.009250
O3	O	-0.275693	-0.168960	-0.054737
O4	O	-0.211693	-0.214413	0.054690
O5	O	-0.223709	-0.220945	-0.054737
O6	O	-0.159707	-0.220945	0.009251
O7	O	-0.223711	-0.266396	-0.009297
Cu8	Cu	-0.186962	-0.248417	-0.000023
Cu9	Cu	-0.248440	-0.186940	-0.000024
O10	O	-0.159709	-0.266397	0.054690
C11	C	-0.051020	-0.022779	0.028106
C12	C	-0.013141	-0.041761	0.028369
C13	C	-0.051018	-0.079379	0.028109
C14	C	-0.013139	-0.098275	0.028372
C15	C	0.005578	-0.079377	0.028105
C16	C	-0.069651	-0.041763	0.028372
C17	C	-0.152948	0.113708	0.017859
C18	C	-0.173786	0.152360	0.014962
C19	C	-0.155902	0.171750	0.013505
C20	C	-0.178499	0.213661	0.010357
C21	C	-0.117177	0.152485	0.014950
C22	C	-0.096338	0.113835	0.017852
C23	C	-0.114226	0.094446	0.019307
C24	C	0.131813	-0.113936	0.017855
C25	C	0.167567	-0.131751	0.014957
C26	C	0.185503	-0.169024	0.013503
C27	C	0.224264	-0.188341	0.010355
C28	C	0.167685	-0.188486	0.014951
C29	C	0.131938	-0.170675	0.017855
C30	C	0.114002	-0.133396	0.019305
C31	C	-0.152939	-0.113943	0.017873
C32	C	-0.173778	-0.131757	0.014973
C33	C	-0.155892	-0.169033	0.013520
C34	C	-0.178486	-0.188349	0.010375
C35	C	-0.117170	-0.188491	0.014963
C36	C	-0.096334	-0.170676	0.017861
C37	C	-0.114220	-0.133402	0.019319
C38	C	-0.091629	0.052537	0.022451
C39	C	-0.073617	0.019131	0.024958
C40	C	-0.073612	-0.098693	0.024965
C41	C	-0.091622	-0.114089	0.022461
C42	C	0.044339	-0.098690	0.024958
C43	C	0.075238	-0.114085	0.022450
C44	C	-0.440743	-0.022789	-0.361521
C45	C	-0.422025	-0.041771	-0.323915
C46	C	-0.384144	-0.079388	-0.361520
C47	C	-0.365512	-0.098284	-0.323914
C48	C	-0.384145	-0.079387	-0.304936
C49	C	-0.422024	-0.041772	-0.380413
C50	C	-0.566982	0.113697	-0.453179
C51	C	-0.602737	0.152349	-0.471115
C52	C	-0.620673	0.171739	-0.451781
C53	C	-0.659435	0.213649	-0.471224
C54	C	-0.602854	0.152474	-0.414510
C55	C	-0.567106	0.113824	-0.396579
C56	C	-0.549170	0.094435	-0.415915
C57	C	-0.339338	-0.113946	-0.168482
C58	C	-0.318627	-0.131760	-0.129840
C59	C	-0.279897	-0.169034	-0.110453
C60	C	-0.257434	-0.188350	-0.068553
C61	C	-0.261882	-0.188495	-0.129713
C62	C	-0.282597	-0.170684	-0.168356
C63	C	-0.321326	-0.133406	-0.187738
C64	C	-0.339333	-0.113951	-0.453174
C65	C	-0.318618	-0.131764	-0.471108
C66	C	-0.279888	-0.169039	-0.451772
C67	C	-0.257424	-0.188355	-0.471214
C68	C	-0.261874	-0.188498	-0.414503
C69	C	-0.282590	-0.170683	-0.396571
C70	C	-0.321322	-0.133409	-0.415912
C71	C	-0.510404	0.052526	-0.396467
C72	C	-0.479505	0.019120	-0.380966
C73	C	-0.361683	-0.098702	-0.380964
C74	C	-0.343780	-0.114097	-0.396463
C75	C	-0.361685	-0.098700	-0.263037
C76	C	-0.343783	-0.114094	-0.229639
C77	C	-0.440759	-0.356211	-0.028187
C78	C	-0.422041	-0.393827	-0.028452
C79	C	-0.384158	-0.356212	-0.028184
C80	C	-0.365526	-0.393828	-0.028449
C81	C	-0.384160	-0.412810	-0.028186
C82	C	-0.422039	-0.337315	-0.028449
C83	C	-0.567000	-0.264532	-0.017945
C84	C	-0.602756	-0.246591	-0.015049
C85	C	-0.620692	-0.265930	-0.013597
C86	C	-0.659455	-0.246482	-0.010451
C87	C	-0.602874	-0.303210	-0.015044
C88	C	-0.567125	-0.321146	-0.017944
C89	C	-0.549188	-0.301805	-0.019395
C90	C	-0.339356	-0.549295	-0.017947
C91	C	-0.318645	-0.587946	-0.015051
C92	C	-0.279915	-0.607338	-0.013594
C93	C	-0.257452	-0.649247	-0.010449
C94	C	-0.261899	-0.588073	-0.015038
C95	C	-0.282613	-0.549422	-0.017940
C96	C	-0.321343	-0.530035	-0.019392
C97	C	-0.339345	-0.264536	-0.017932
C98	C	-0.318628	-0.246599	-0.015029
C99	C	-0.279898	-0.265939	-0.013573
C100	C	-0.257433	-0.246493	-0.010423
C101	C	-0.261884	-0.303217	-0.015018
C102	C	-0.282601	-0.321153	-0.017920
C103	C	-0.321334	-0.301808	-0.019380
C104	C	-0.510422	-0.321257	-0.022536
C105	C	-0.479522	-0.336762	-0.025042
C106	C	-0.361696	-0.336764	-0.025035
C107	C	-0.343793	-0.321261	-0.022527
C108	C	-0.361701	-0.454719	-0.025041
C109	C	-0.343800	-0.488125	-0.022536
O110	O	0.327856	-0.266388	-0.009320
O111	O	0.236954	-0.220936	0.009226
O112	O	0.236949	-0.220938	-0.054760
O113	O	0.327861	-0.266386	0.054667
O114	O	0.236947	-0.168953	-0.054763
O115	O	0.236952	-0.168951	0.009223
O116	O	0.327854	-0.214403	-0.009323
Cu117	Cu	0.282403	-0.186930	-0.000050
Cu118	Cu	0.282405	-0.248408	-0.000046
O119	O	0.327859	-0.214401	0.054664
O120	O	-0.223728	0.336934	-0.009321
O121	O	-0.159726	0.227482	0.009224
O122	O	-0.223730	0.291479	-0.054762
O123	O	-0.159724	0.272937	0.054665
O124	O	-0.275712	0.291477	-0.054759
O125	O	-0.211707	0.227480	0.009228
O126	O	-0.275710	0.336932	-0.009318
Cu127	Cu	-0.248455	0.282206	-0.000045
Cu128	Cu	-0.186981	0.282208	-0.000049
O129	O	-0.211706	0.272935	0.054668
O130	O	-0.211682	-0.214424	-0.548724
O131	O	-0.275685	-0.168968	-0.503287
O132	O	-0.211682	-0.168970	-0.503282
O133	O	-0.275685	-0.214422	-0.548729
O134	O	-0.159699	-0.220953	-0.451309
O135	O	-0.223702	-0.220951	-0.451314
O136	O	-0.159699	-0.266407	-0.496751
Cu137	Cu	-0.186954	-0.248425	-0.469287
Cu138	Cu	-0.248430	-0.186950	-0.530751
O139	O	-0.223702	-0.266405	-0.496756
O140	O	-0.763029	0.336920	-0.496764
O141	O	-0.672124	0.227469	-0.451324
O142	O	-0.672122	0.291467	-0.451320
O143	O	-0.763031	0.272922	-0.496768
O144	O	-0.672123	0.291468	-0.503292
O145	O	-0.672125	0.227470	-0.503295
O146	O	-0.763030	0.336921	-0.548735
Cu147	Cu	-0.717577	0.282195	-0.530761
Cu148	Cu	-0.717577	0.282195	-0.469298
O149	O	-0.763032	0.272923	-0.548739
C150	C	0.005349	-0.412578	0.361473
C151	C	-0.013368	-0.393595	0.380366
C152	C	-0.051250	-0.355979	0.304889
C153	C	-0.069882	-0.337082	0.323868
C154	C	-0.051248	-0.355980	0.361475
C155	C	-0.013370	-0.393594	0.323867
C156	C	0.131588	-0.549064	0.396023
C157	C	0.167343	-0.587715	0.413833
C158	C	0.185279	-0.607105	0.451099
C159	C	0.224041	-0.649016	0.470408
C160	C	0.167460	-0.587841	0.470555
C161	C	0.131712	-0.549190	0.452747
C162	C	0.113776	-0.529802	0.415480
C163	C	-0.096054	-0.321421	0.453132
C164	C	-0.116765	-0.303607	0.471069
C165	C	-0.155495	-0.266334	0.451736
C166	C	-0.177958	-0.247018	0.471177
C167	C	-0.173510	-0.246873	0.414465
C168	C	-0.152795	-0.264683	0.396532
C169	C	-0.114066	-0.301962	0.415870
C170	C	-0.096061	-0.321414	0.168434
C171	C	-0.116777	-0.303601	0.129790
C172	C	-0.155507	-0.266326	0.110406
C173	C	-0.177971	-0.247010	0.068505
C174	C	-0.173520	-0.246867	0.129666
C175	C	-0.152805	-0.264683	0.168308
C176	C	-0.114072	-0.301956	0.187691
C177	C	0.075011	-0.487893	0.396172
C178	C	0.044112	-0.454487	0.380781
C179	C	-0.073711	-0.336664	0.262990
C180	C	-0.091614	-0.321269	0.229592
C181	C	-0.073708	-0.336667	0.380919
C182	C	-0.091610	-0.321273	0.396420
C183	C	-0.051052	-0.022788	-0.361549
C184	C	-0.069685	-0.041772	-0.380440
C185	C	0.005551	-0.079385	-0.304962
C186	C	-0.013169	-0.098283	-0.323940
C187	C	-0.051051	-0.079387	-0.361546
C188	C	-0.013170	-0.041770	-0.323942
C189	C	-0.095864	0.113699	-0.396107
C190	C	-0.116577	0.152350	-0.413918
C191	C	-0.155309	0.171739	-0.451184
C192	C	-0.177774	0.213649	-0.470496
C193	C	-0.173324	0.152472	-0.470639
C194	C	-0.152608	0.113822	-0.452829
C195	C	-0.113876	0.094436	-0.415561
C196	C	-0.152980	-0.113952	-0.453200
C197	C	-0.173818	-0.131768	-0.471134
C198	C	-0.155934	-0.169041	-0.451799
C199	C	-0.178527	-0.188359	-0.471239
C200	C	-0.117205	-0.188500	-0.414528
C201	C	-0.096364	-0.170688	-0.396597
C202	C	-0.114258	-0.133410	-0.415937
C203	C	0.131799	-0.113941	-0.168509
C204	C	0.167552	-0.131753	-0.129864
C205	C	0.185489	-0.169028	-0.110478
C206	C	0.224254	-0.188342	-0.068577
C207	C	0.167669	-0.188488	-0.129736
C208	C	0.131915	-0.170674	-0.168379
C209	C	0.113985	-0.133401	-0.187763
C210	C	-0.091417	0.052527	-0.396251
C211	C	-0.073514	0.019121	-0.380859
C212	C	0.044316	-0.098697	-0.263063
C213	C	0.075217	-0.114091	-0.229665
C214	C	-0.073647	-0.098702	-0.380989
C215	C	-0.091659	-0.114097	-0.396489
C216	C	0.615859	-0.356198	0.361450
C217	C	0.634493	-0.393814	0.380344
C218	C	0.559257	-0.356200	0.304866
C219	C	0.577977	-0.393815	0.323845
C220	C	0.615860	-0.412797	0.361452
C221	C	0.577977	-0.337302	0.323843
C222	C	0.660668	-0.264518	0.395999
C223	C	0.681380	-0.246577	0.413809
C224	C	0.720112	-0.265916	0.451075
C225	C	0.742576	-0.246468	0.470384
C226	C	0.738128	-0.303196	0.470532
C227	C	0.717412	-0.321132	0.452724
C228	C	0.678680	-0.301791	0.415456
C229	C	0.717791	-0.549282	0.453112
C230	C	0.738630	-0.587934	0.471048
C231	C	0.720747	-0.607325	0.451715
C232	C	0.743341	-0.649234	0.471157
C233	C	0.682019	-0.588061	0.414444
C234	C	0.661177	-0.549409	0.396511
C235	C	0.679070	-0.530023	0.415849
C236	C	0.433009	-0.264525	0.168410
C237	C	0.397255	-0.246587	0.129765
C238	C	0.379319	-0.265928	0.110381
C239	C	0.340554	-0.246481	0.068480
C240	C	0.397140	-0.303206	0.129642
C241	C	0.432894	-0.321142	0.168284
C242	C	0.450823	-0.301796	0.187667
C243	C	0.656223	-0.321244	0.396148
C244	C	0.638320	-0.336749	0.380758
C245	C	0.520492	-0.336752	0.262966
C246	C	0.489591	-0.321249	0.229568
C247	C	0.638457	-0.454706	0.380897
C248	C	0.656469	-0.488112	0.396398
C249	C	-0.440761	0.310307	-0.361535
C250	C	-0.422044	0.310569	-0.380429
C251	C	-0.384165	0.310317	-0.304954
C252	C	-0.365533	0.310579	-0.323933
C253	C	-0.384165	0.310309	-0.361539
C254	C	-0.422043	0.310578	-0.323930
C255	C	-0.566995	0.300052	-0.396079
C256	C	-0.602748	0.297151	-0.413886
C257	C	-0.620683	0.295691	-0.451151
C258	C	-0.659443	0.292538	-0.470459
C259	C	-0.602864	0.297135	-0.470608
C260	C	-0.567118	0.300040	-0.452803
C261	C	-0.549183	0.301499	-0.415536
C262	C	-0.339358	0.300049	-0.453196
C263	C	-0.318647	0.297149	-0.471133
C264	C	-0.279919	0.295697	-0.451801
C265	C	-0.257456	0.292548	-0.471243
C266	C	-0.261905	0.297149	-0.414532
C267	C	-0.282620	0.300055	-0.396598
C268	C	-0.321348	0.301503	-0.415935
C269	C	-0.339357	0.300090	-0.168501
C270	C	-0.318642	0.297194	-0.129857
C271	C	-0.279914	0.295744	-0.110475
C272	C	-0.257451	0.292602	-0.068575
C273	C	-0.261900	0.297186	-0.129735
C274	C	-0.282615	0.300080	-0.168377
C275	C	-0.321347	0.301536	-0.187758
C276	C	-0.510420	0.304646	-0.396230
C277	C	-0.479522	0.307157	-0.380841
C278	C	-0.361705	0.307177	-0.263056
C279	C	-0.343803	0.304675	-0.229658
C280	C	-0.361706	0.307159	-0.380984
C281	C	-0.343804	0.304650	-0.396485
O282	O	-0.275512	0.336921	-0.548522
O283	O	-0.211502	0.227468	-0.503082
O284	O	-0.275498	0.291463	-0.503074
O285	O	-0.211516	0.272927	-0.548530
O286	O	-0.223509	0.291464	-0.451104
O287	O	-0.159514	0.227469	-0.451113
O288	O	-0.223523	0.336923	-0.496552
Cu289	Cu	-0.186771	0.282196	-0.469087
Cu290	Cu	-0.248254	0.282195	-0.530547
O291	O	-0.159527	0.272928	-0.496560
C292	C	-0.051026	0.254106	0.361445
C293	C	-0.013148	0.253845	0.380336
C294	C	-0.051026	0.254098	0.304861
C295	C	-0.013148	0.253837	0.323837
C296	C	0.005570	0.254108	0.361442
C297	C	-0.069658	0.253835	0.323840
C298	C	-0.152947	0.264354	0.396003
C299	C	-0.173784	0.267253	0.413814
C300	C	-0.155899	0.268714	0.451079
C301	C	-0.178494	0.271864	0.470390
C302	C	-0.117174	0.267272	0.470533
C303	C	-0.096338	0.264368	0.452723
C304	C	-0.114226	0.262909	0.415457
C305	C	0.131803	0.264372	0.453089
C306	C	0.167556	0.267273	0.471022
C307	C	0.185490	0.268727	0.451687
C308	C	0.224250	0.271878	0.471125
C309	C	0.167671	0.267275	0.414417
C310	C	0.131925	0.264368	0.396487
C311	C	0.113991	0.262919	0.415827
C312	C	-0.152949	0.264322	0.168411
C313	C	-0.173790	0.267219	0.129768
C314	C	-0.155905	0.268671	0.110381
C315	C	-0.178501	0.271813	0.068481
C316	C	-0.117184	0.267230	0.129639
C317	C	-0.096347	0.264336	0.168280
C318	C	-0.114231	0.262879	0.187665
C319	C	-0.091631	0.259763	0.396147
C320	C	-0.073621	0.257254	0.380755
C321	C	-0.073622	0.257238	0.262962
C322	C	-0.091633	0.259740	0.229565
C323	C	0.044330	0.257259	0.380883
C324	C	0.075228	0.259769	0.396381
H325	H	0.002524	-0.026520	0.028795
H326	H	-0.230374	0.295971	-0.398793
H327	H	-0.267944	0.301252	-0.184056
H328	H	-0.230329	-0.218845	-0.398754
C329	C	-0.338458	-0.609137	-0.013458
C330	C	-0.385568	-0.595038	-0.046824
C331	C	-0.405381	-0.616229	-0.045230
C332	C	-0.378083	-0.651519	-0.010269
C333	C	-0.330969	-0.665619	0.023099
C334	C	-0.311157	-0.644429	0.021505
H335	H	-0.405779	-0.568913	-0.072706
H336	H	-0.440257	-0.605791	-0.069932
H337	H	-0.392749	-0.667206	-0.009089
H338	H	-0.310759	-0.691744	0.048981
H339	H	-0.276280	-0.654867	0.046207
C340	C	0.737228	-0.362136	0.474125
C341	C	0.784337	-0.395143	0.487852
C342	C	0.804154	-0.436148	0.509252
C343	C	0.776863	-0.444147	0.516925
C344	C	0.729752	-0.411139	0.503198
C345	C	0.709934	-0.370134	0.481798
H346	H	0.804542	-0.389223	0.482172
H347	H	0.839029	-0.460583	0.519414
H348	H	0.791533	-0.474502	0.532767
H349	H	0.709547	-0.417060	0.508878
H350	H	0.675059	-0.345699	0.471636
C351	C	-0.622350	-0.205589	-0.013453
C352	C	-0.671151	-0.173349	-0.044425
C353	C	-0.690745	-0.132347	-0.042828
C354	C	-0.661538	-0.123585	-0.010258
C355	C	-0.612734	-0.155825	0.020717
C356	C	-0.593141	-0.196827	0.019119
H357	H	-0.692774	-0.179835	-0.068537
H358	H	-0.726872	-0.108480	-0.065757
H359	H	-0.676042	-0.093232	-0.009075
H360	H	-0.591111	-0.149340	0.044829
H361	H	-0.557013	-0.220694	0.042049
H362	H	0.116989	-0.533281	0.365679
H363	H	-0.267943	-0.533739	-0.019116
C364	C	-0.443195	-0.414423	-0.029021
C365	C	-0.460026	-0.429084	-0.062356
C366	C	-0.481173	-0.449684	-0.062921
C367	C	-0.485489	-0.455623	-0.030151
C368	C	-0.468658	-0.440963	0.003187
C369	C	-0.447511	-0.420362	0.003752
H370	H	-0.456831	-0.424687	-0.086617
H371	H	-0.493633	-0.460536	-0.087600
H372	H	-0.501144	-0.470873	-0.030569
H373	H	-0.471853	-0.445359	0.027447
H374	H	-0.435051	-0.409510	0.028431
H375	H	-0.100130	-0.026522	0.028800
H376	H	-0.167550	-0.083601	-0.468950
H377	H	0.182278	0.268453	0.398676
H378	H	0.629131	-0.248766	0.365655
C379	C	0.661568	-0.205575	0.392406
C380	C	0.656172	-0.196813	0.354445
C381	C	0.636360	-0.155811	0.333041
C382	C	0.621943	-0.123571	0.349598
C383	C	0.627338	-0.132332	0.387560
C384	C	0.647151	-0.173334	0.408964
H385	H	0.666844	-0.220680	0.342187
H386	H	0.632366	-0.149326	0.304939
H387	H	0.607277	-0.093219	0.333753
H388	H	0.616666	-0.108465	0.399818
H389	H	0.651144	-0.179820	0.437067
H390	H	0.769662	-0.318938	0.500875
H391	H	0.117421	0.263184	0.366144
C392	C	-0.381943	-0.072946	-0.189805
C393	C	-0.383134	-0.040777	-0.207654
C394	C	-0.425738	0.000223	-0.228979
C395	C	-0.467153	0.009054	-0.232456
C396	C	-0.465964	-0.023116	-0.214607
C397	C	-0.423359	-0.064115	-0.193282
H398	H	-0.352475	-0.047313	-0.205080
H399	H	-0.426618	0.024037	-0.242192
H400	H	-0.498691	0.039405	-0.248242
H401	H	-0.496623	-0.016579	-0.217181
H402	H	-0.422479	-0.087929	-0.180069
C403	C	-0.110836	0.253260	0.303258
C404	C	-0.153868	0.286026	0.266162
C405	C	-0.195045	0.285453	0.245580
C406	C	-0.193191	0.252113	0.262095
C407	C	-0.150157	0.219344	0.299194
C408	C	-0.108980	0.219917	0.319775
H409	H	-0.155242	0.310709	0.253934
H410	H	-0.226902	0.309711	0.218117
H411	H	-0.223673	0.251688	0.246860
H412	H	-0.148783	0.194661	0.311421
H413	H	-0.077123	0.195659	0.347238
H414	H	-0.333316	0.295967	-0.501477
H415	H	0.117214	-0.083585	0.019038
H416	H	0.182278	-0.218841	-0.113950
C417	C	-0.262777	-0.192088	-0.355577
C418	C	-0.290075	-0.199759	-0.347587
C419	C	-0.270262	-0.221165	-0.306593
C420	C	-0.223152	-0.234900	-0.273589
C421	C	-0.195852	-0.227229	-0.281579
C422	C	-0.215664	-0.205824	-0.322573
H423	H	-0.324951	-0.189591	-0.372019
H424	H	-0.290472	-0.226843	-0.300679
H425	H	-0.208485	-0.250746	-0.243243
H426	H	-0.160975	-0.237397	-0.257147
H427	H	-0.195455	-0.200146	-0.328487
H428	H	0.182057	-0.115905	-0.114186
C429	C	-0.338439	-0.110353	-0.108654
C430	C	-0.385549	-0.096616	-0.122751
C431	C	-0.405361	-0.075208	-0.101566
C432	C	-0.378062	-0.067537	-0.066283
C433	C	-0.330949	-0.081274	-0.052184
C434	C	-0.311137	-0.102683	-0.073369
H435	H	-0.405760	-0.102294	-0.148872
H436	H	-0.440238	-0.065038	-0.112003
H437	H	-0.392728	-0.051689	-0.050600
H438	H	-0.310738	-0.075596	-0.026063
H439	H	-0.276260	-0.112852	-0.062932
H440	H	-0.267951	0.301238	-0.366254
C441	C	0.781231	-0.609124	0.512041
C442	C	0.780872	-0.595025	0.545045
C443	C	0.823474	-0.616215	0.586038
C444	C	0.866434	-0.651505	0.594027
C445	C	0.866795	-0.665606	0.561022
C446	C	0.824193	-0.644415	0.520029
H447	H	0.749069	-0.568900	0.539132
H448	H	0.823207	-0.605777	0.610470
H449	H	0.897971	-0.667191	0.624373
H450	H	0.898598	-0.691731	0.566935
H451	H	0.824460	-0.654854	0.495597
C452	C	-0.262787	-0.362157	-0.019511
C453	C	-0.220187	-0.383432	-0.017911
C454	C	-0.200371	-0.424437	-0.019500
C455	C	-0.223156	-0.444168	-0.022690
C456	C	-0.265758	-0.422893	-0.024290
C457	C	-0.285574	-0.381888	-0.022701
H458	H	-0.203318	-0.368826	-0.015550
H459	H	-0.168834	-0.440186	-0.018316
H460	H	-0.208487	-0.474522	-0.023866
H461	H	-0.282627	-0.437499	-0.026651
H462	H	-0.317111	-0.366139	-0.023885
H463	H	0.002298	-0.408835	0.308631
H464	H	0.182293	-0.218838	0.013772
H465	H	-0.100172	-0.026529	-0.411338
C466	C	0.008018	0.253261	0.303255
C467	C	0.056021	0.219915	0.319769
C468	C	0.077188	0.219339	0.299190
C469	C	0.050351	0.252108	0.262097
C470	C	0.002345	0.285456	0.245582
C471	C	-0.018822	0.286032	0.266161
H472	H	0.075890	0.195656	0.347229
H473	H	0.112725	0.194653	0.311416
H474	H	0.066019	0.251681	0.246864
H475	H	-0.017524	0.309715	0.218122
H476	H	-0.054359	0.310718	0.253934
H477	H	-0.064818	0.263161	0.183958
H478	H	-0.230350	-0.218846	-0.113928
H479	H	-0.617241	0.168031	-0.501460
C480	C	-0.216110	-0.205871	0.393196
C481	C	-0.215812	-0.172799	0.379501
C482	C	-0.258414	-0.131797	0.358231
C483	C	-0.301314	-0.123868	0.350656
C484	C	-0.301614	-0.156942	0.364350
C485	C	-0.259012	-0.197943	0.385620
H486	H	-0.184054	-0.178667	0.385109
H487	H	-0.258192	-0.107315	0.348093
H488	H	-0.332851	-0.093517	0.334910
H489	H	-0.333372	-0.151073	0.358743
H490	H	-0.259234	-0.222426	0.395758
H491	H	0.382534	-0.318954	0.113857
H492	H	-0.552621	-0.351497	-0.019124
C493	C	0.187161	-0.110343	0.013360
C494	C	0.157953	-0.072375	-0.019210
C495	C	0.177546	-0.050967	-0.020809
C496	C	0.226347	-0.067525	0.010162
C497	C	0.255558	-0.105495	0.042733
C498	C	0.235965	-0.126903	0.044332
H499	H	0.121824	-0.060116	-0.042138
H500	H	0.155921	-0.022859	-0.044920
H501	H	0.240851	-0.051677	0.008978
H502	H	0.291686	-0.117754	0.065662
H503	H	0.257589	-0.155011	0.068444
C504	C	0.556816	-0.414407	0.303264
C505	C	0.515066	-0.393537	0.261808
C506	C	0.493906	-0.414129	0.241228
C507	C	0.514497	-0.455591	0.262105
C508	C	0.556250	-0.476464	0.303563
C509	C	0.577409	-0.455872	0.324143
H510	H	0.499821	-0.362842	0.246352
H511	H	0.462998	-0.398677	0.210538
H512	H	0.498834	-0.470835	0.246870
H513	H	0.571494	-0.507159	0.319019
H514	H	0.608317	-0.471323	0.354833
C515	C	0.662341	-0.609387	0.393176
C516	C	0.689735	-0.644711	0.385602
C517	C	0.670059	-0.666039	0.364334
C518	C	0.622990	-0.652043	0.350640
C519	C	0.595594	-0.616717	0.358214
C520	C	0.615269	-0.595389	0.379482
H521	H	0.724580	-0.655074	0.395740
H522	H	0.690339	-0.692190	0.358727
H523	H	0.608424	-0.667831	0.334896
H524	H	0.560748	-0.606355	0.348076
H525	H	0.594989	-0.569239	0.385089
C526	C	-0.172423	0.092631	-0.474227
C527	C	-0.186836	0.074812	-0.457663
C528	C	-0.206653	0.053621	-0.479060
C529	C	-0.212055	0.050248	-0.517023
C530	C	-0.197641	0.068068	-0.533589
C531	C	-0.177825	0.089259	-0.512192
H532	H	-0.182837	0.077309	-0.429559
H533	H	-0.217323	0.040430	-0.466796
H534	H	-0.226724	0.034562	-0.532862
H535	H	-0.201640	0.065571	-0.561693
H536	H	-0.167155	0.102449	-0.524456
H537	H	-0.267928	-0.186532	-0.184035
C538	C	-0.216380	0.268845	0.392415
C539	C	-0.217637	0.237866	0.408977
C540	C	-0.260234	0.239458	0.387577
C541	C	-0.301576	0.272029	0.349614
C542	C	-0.300321	0.303010	0.333050
C543	C	-0.257723	0.301418	0.354451
H544	H	-0.187032	0.213753	0.437081
H545	H	-0.261163	0.216524	0.399839
H546	H	-0.333109	0.273208	0.333773
H547	H	-0.330925	0.327123	0.304946
H548	H	-0.256794	0.324352	0.342188
C549	C	0.377650	-0.205582	0.108580
C550	C	0.377322	-0.197581	0.073296
C551	C	0.357715	-0.156574	0.052111
C552	C	0.338437	-0.123568	0.066209
C553	C	0.338765	-0.131568	0.101495
C554	C	0.358371	-0.172575	0.122680
H555	H	0.391594	-0.222014	0.062858
H556	H	0.357473	-0.150652	0.025990
H557	H	0.323923	-0.093212	0.050527
H558	H	0.324493	-0.107134	0.111933
H559	H	0.358614	-0.178497	0.148800
H560	H	-0.064808	0.263191	0.468565
C561	C	-0.622604	-0.324481	-0.013448
C562	C	-0.671438	-0.307813	-0.044420
C563	C	-0.691168	-0.329086	-0.042823
C564	C	-0.662063	-0.367027	-0.010254
C565	C	-0.613226	-0.383696	0.020721
C566	C	-0.593496	-0.362423	0.019124
H567	H	-0.692986	-0.279726	-0.068532
H568	H	-0.727321	-0.316746	-0.065753
H569	H	-0.676668	-0.382774	-0.009072
H570	H	-0.591678	-0.411784	0.044833
H571	H	-0.557343	-0.374763	0.042054
C572	C	-0.324359	0.311159	-0.303355
C573	C	-0.303766	0.311450	-0.261901
C574	C	-0.262593	0.312030	-0.241324
C575	C	-0.242013	0.312321	-0.262201
C576	C	-0.262606	0.312030	-0.303657
C577	C	-0.303778	0.311449	-0.324234
H578	H	-0.319001	0.311235	-0.246445
H579	H	-0.247350	0.312245	-0.210636
H580	H	-0.211535	0.312750	-0.246969
H581	H	-0.247371	0.312245	-0.319114
H582	H	-0.319022	0.311234	-0.354923
H583	H	-0.102622	0.268414	0.113852
H584	H	-0.102094	-0.319455	0.501414
C585	C	0.008014	0.253294	0.422071
C586	C	-0.018832	0.286082	0.432312
C587	C	0.002329	0.285539	0.474043
C588	C	0.050335	0.252208	0.505533
C589	C	0.077184	0.219417	0.495293
C590	C	0.056024	0.219960	0.453562
H591	H	-0.054371	0.310758	0.409000
H592	H	-0.017547	0.309812	0.481623
H593	H	0.066000	0.251806	0.536425
H594	H	0.112724	0.194741	0.518605
H595	H	0.075899	0.195686	0.445982
C596	C	0.112339	-0.192080	0.019447
C597	C	0.073015	-0.172485	0.022637
C598	C	0.053415	-0.193890	0.024227
C599	C	0.073139	-0.234890	0.022628
C600	C	0.112466	-0.254487	0.019438
C601	C	0.132066	-0.233082	0.017847
H602	H	0.058412	-0.142133	0.023821
H603	H	0.024303	-0.179383	0.026588
H604	H	0.058630	-0.250735	0.023805
H605	H	0.127069	-0.284840	0.018254
H606	H	0.161178	-0.247590	0.015486
C607	C	-0.216371	-0.110354	0.013386
C608	C	-0.257715	-0.072383	-0.019175
C609	C	-0.300307	-0.050980	-0.020759
C610	C	-0.301555	-0.067548	0.010217
C611	C	-0.260209	-0.105521	0.042781
C612	C	-0.217617	-0.126924	0.044365
H613	H	-0.256792	-0.060116	-0.042108
H614	H	-0.330913	-0.022869	-0.044865
H615	H	-0.333084	-0.051704	0.009044
H616	H	-0.261132	-0.117788	0.065713
H617	H	-0.187011	-0.155034	0.068471
H618	H	0.002526	-0.129182	0.028798
H619	H	-0.205316	0.168042	0.013785
C620	C	-0.097488	-0.229495	0.013364
C621	C	-0.083164	-0.261667	0.044337
C622	C	-0.063481	-0.302668	0.042737
C623	C	-0.058124	-0.311497	0.010163
C624	C	-0.072449	-0.279324	-0.020812
C625	C	-0.092131	-0.238323	-0.019212
H626	H	-0.087129	-0.255132	0.068452
H627	H	-0.052877	-0.326485	0.065667
H628	H	-0.043554	-0.341849	0.008979
H629	H	-0.068483	-0.285859	-0.044927
H630	H	-0.102735	-0.214506	-0.042142
C631	C	-0.338443	-0.205594	-0.013440
C632	C	-0.385551	-0.172587	-0.046813
C633	C	-0.405368	-0.131581	-0.045226
C634	C	-0.378077	-0.123581	-0.010267
C635	C	-0.330967	-0.156589	0.023109
C636	C	-0.311150	-0.197595	0.021522
H637	H	-0.405756	-0.178508	-0.072694
H638	H	-0.440242	-0.107147	-0.069933
H639	H	-0.392747	-0.093226	-0.009092
H640	H	-0.310762	-0.150668	0.048990
H641	H	-0.276275	-0.222029	0.046229
C642	C	-0.547271	0.301656	-0.355087
C643	C	-0.576377	0.334236	-0.346257
C644	C	-0.556651	0.335838	-0.305264
C645	C	-0.507818	0.304859	-0.273103
C646	C	-0.478709	0.272276	-0.281932
C647	C	-0.498435	0.270675	-0.322924
H648	H	-0.612529	0.357171	-0.370065
H649	H	-0.578199	0.359958	-0.298728
H650	H	-0.493215	0.306044	-0.242758
H651	H	-0.442557	0.249341	-0.258123
H652	H	-0.476887	0.246555	-0.329460
H653	H	-0.167506	-0.083593	0.019059
H654	H	-0.102108	-0.319447	0.114111
C655	C	-0.216418	-0.110362	-0.512127
C656	C	-0.259379	-0.102691	-0.520115
C657	C	-0.301981	-0.081284	-0.561108
C658	C	-0.301622	-0.067548	-0.594113
C659	C	-0.258661	-0.075218	-0.586126
C660	C	-0.216059	-0.096625	-0.545133
H661	H	-0.259645	-0.112860	-0.495682
H662	H	-0.333784	-0.075606	-0.567020
H663	H	-0.333159	-0.051701	-0.624458
H664	H	-0.258394	-0.065049	-0.610559
H665	H	-0.184256	-0.102303	-0.539221
C666	C	-0.381948	-0.243259	-0.019534
C667	C	-0.401761	-0.202258	-0.017939
C668	C	-0.444363	-0.180984	-0.019539
C669	C	-0.467152	-0.200711	-0.022734
C670	C	-0.447340	-0.241715	-0.024329
C671	C	-0.404738	-0.262989	-0.022728
H672	H	-0.384891	-0.187653	-0.015574
H673	H	-0.459029	-0.150630	-0.018358
H674	H	-0.498689	-0.184963	-0.023918
H675	H	-0.464210	-0.256320	-0.026694
H676	H	-0.390071	-0.293343	-0.023909
H677	H	-0.102615	0.268458	0.500874
C678	C	-0.443204	0.311136	-0.422169
C679	C	-0.484950	0.311415	-0.443038
C680	C	-0.506108	0.311981	-0.484777
C681	C	-0.485520	0.312269	-0.505647
C682	C	-0.443771	0.311991	-0.484778
C683	C	-0.422614	0.311425	-0.443039
H684	H	-0.500193	0.311201	-0.427589
H685	H	-0.537013	0.312187	-0.500225
H686	H	-0.501182	0.312689	-0.536544
H687	H	-0.428529	0.312205	-0.500227
H688	H	-0.391708	0.311219	-0.427591
C689	C	-0.097527	-0.229502	-0.393258
C690	C	-0.083217	-0.261670	-0.409919
C691	C	-0.063541	-0.302671	-0.388648
C692	C	-0.058175	-0.311504	-0.350715
C693	C	-0.072486	-0.279335	-0.334052
C694	C	-0.092162	-0.238334	-0.355323
H695	H	-0.087188	-0.255131	-0.438002
H696	H	-0.052947	-0.326484	-0.400984
H697	H	-0.043609	-0.341855	-0.334969
H698	H	-0.068514	-0.285873	-0.305970
H699	H	-0.102756	-0.214521	-0.342987
C700	C	-0.338455	0.295607	-0.108671
C701	C	-0.343854	0.263036	-0.105297
C702	C	-0.363668	0.261450	-0.084110
C703	C	-0.378084	0.292434	-0.066298
C704	C	-0.372686	0.325008	-0.069671
C705	C	-0.352871	0.326594	-0.090858
H706	H	-0.333182	0.240097	-0.118483
H707	H	-0.367665	0.237337	-0.081613
H708	H	-0.392752	0.291260	-0.050615
H709	H	-0.383357	0.347946	-0.056485
H710	H	-0.348875	0.350707	-0.093355
C711	C	0.007996	-0.140035	-0.303357
C712	C	0.049748	-0.160911	-0.261902
C713	C	0.070912	-0.202662	-0.241322
C714	C	0.050324	-0.223538	-0.262197
C715	C	0.008570	-0.202662	-0.303654
C716	C	-0.012594	-0.160911	-0.324234
H717	H	0.064991	-0.145458	-0.246448
H718	H	0.101821	-0.218116	-0.210633
H719	H	0.065991	-0.254444	-0.246962
H720	H	-0.006673	-0.218115	-0.319109
H721	H	-0.043503	-0.145457	-0.354924
H722	H	0.732361	-0.533499	0.468860
C723	C	0.452736	-0.243248	0.189730
C724	C	0.492061	-0.262975	0.232235
C725	C	0.511791	-0.241701	0.253557
C726	C	0.492195	-0.200699	0.232372
C727	C	0.452868	-0.180970	0.189864
C728	C	0.433138	-0.202244	0.168543
H729	H	0.506569	-0.293328	0.247920
H730	H	0.540904	-0.256306	0.285024
H731	H	0.506801	-0.184951	0.248155
H732	H	0.438360	-0.150616	0.174180
H733	H	0.404025	-0.187639	0.137076
C734	C	-0.219299	-0.609400	-0.013440
C735	C	-0.176399	-0.644724	0.021522
C736	C	-0.133797	-0.666051	0.023122
C737	C	-0.134095	-0.652055	-0.010240
C738	C	-0.176996	-0.616729	-0.045204
C739	C	-0.219598	-0.595401	-0.046804
H740	H	-0.176177	-0.655086	0.046220
H741	H	-0.102039	-0.692202	0.049005
H742	H	-0.102559	-0.667842	-0.009055
H743	H	-0.177218	-0.606366	-0.069902
H744	H	-0.251356	-0.569251	-0.072687
C745	C	-0.622582	0.173802	-0.393243
C746	C	-0.671416	0.191658	-0.409907
C747	C	-0.691144	0.212985	-0.388638
C748	C	-0.662036	0.216457	-0.350705
C749	C	-0.613199	0.198600	-0.334039
C750	C	-0.593472	0.177273	-0.355308
H751	H	-0.692966	0.189088	-0.437989
H752	H	-0.727296	0.226204	-0.400976
H753	H	-0.676640	0.232245	-0.334961
H754	H	-0.591650	0.201170	-0.305957
H755	H	-0.557319	0.164054	-0.342971
C756	C	0.187151	0.268876	0.512013
C757	C	0.187467	0.303848	0.519996
C758	C	0.207061	0.305452	0.560987
C759	C	0.226339	0.272083	0.593995
C760	C	0.226024	0.237108	0.586013
C761	C	0.206430	0.235504	0.545022
H762	H	0.173196	0.328552	0.495561
H763	H	0.207295	0.331343	0.566896
H764	H	0.240844	0.273270	0.624340
H765	H	0.240295	0.212404	0.610449
H766	H	0.206196	0.209613	0.539113
C767	C	-0.219281	-0.324495	-0.013419
C768	C	-0.176379	-0.332072	0.021542
C769	C	-0.133778	-0.353350	0.023140
C770	C	-0.134079	-0.367051	-0.010222
C771	C	-0.176983	-0.359475	-0.045186
C772	C	-0.219584	-0.338197	-0.046784
H773	H	-0.176155	-0.321929	0.046241
H774	H	-0.102018	-0.358958	0.049023
H775	H	-0.102543	-0.382803	-0.009039
H776	H	-0.177207	-0.369618	-0.069885
H777	H	-0.251344	-0.332588	-0.072667
C778	C	-0.443185	-0.021186	-0.422156
C779	C	-0.484934	0.020279	-0.443028
C780	C	-0.506094	0.040863	-0.484769
C781	C	-0.485506	0.019982	-0.505637
C782	C	-0.443754	-0.021486	-0.484765
C783	C	-0.422594	-0.042070	-0.443024
H784	H	-0.500177	0.035738	-0.427580
H785	H	-0.537001	0.071560	-0.500220
H786	H	-0.501169	0.035219	-0.536536
H787	H	-0.428511	-0.036945	-0.500212
H788	H	-0.391687	-0.072767	-0.427573
H789	H	0.664975	-0.409052	0.411243
C790	C	-0.216382	0.268804	0.108585
C791	C	-0.217631	0.237818	0.090774
C792	C	-0.260223	0.239401	0.069592
C793	C	-0.301566	0.271970	0.066221
C794	C	-0.300319	0.302958	0.084033
C795	C	-0.257727	0.301375	0.105215
H796	H	-0.187025	0.213707	0.093269
H797	H	-0.261146	0.216462	0.056407
H798	H	-0.333095	0.273142	0.050541
H799	H	-0.330925	0.327070	0.081538
H800	H	-0.256804	0.324314	0.118400
H801	H	-0.167515	0.263137	0.184192
H802	H	-0.230364	0.296002	-0.113951
H803	H	-0.167515	0.097925	0.019045
H804	H	-0.335043	-0.409068	-0.028871
C805	C	-0.622343	0.295558	-0.392484
C806	C	-0.593136	0.262987	-0.354520
C807	C	-0.612730	0.261393	-0.333117
C808	C	-0.661531	0.292370	-0.349676
C809	C	-0.690742	0.324944	-0.387641
C810	C	-0.671148	0.326538	-0.409045
H811	H	-0.557007	0.240054	-0.342260
H812	H	-0.591106	0.237280	-0.305012
H813	H	-0.676036	0.291191	-0.333832
H814	H	-0.726870	0.347877	-0.399901
H815	H	-0.692772	0.350651	-0.437149
H816	H	0.629644	-0.533727	0.366166
H817	H	-0.102617	0.168275	0.013766
H818	H	-0.064808	0.098152	0.019030
H819	H	-0.335022	-0.129187	-0.308674
C820	C	-0.111063	-0.295332	0.303285
C821	C	-0.131660	-0.274456	0.261829
C822	C	-0.172841	-0.232708	0.241247
C823	C	-0.193425	-0.211836	0.262121
C824	C	-0.172828	-0.232712	0.303580
C825	C	-0.131647	-0.274460	0.324162
H826	H	-0.116423	-0.289906	0.246374
H827	H	-0.188088	-0.217254	0.210556
H828	H	-0.223910	-0.180932	0.246885
H829	H	-0.188065	-0.217262	0.319035
H830	H	-0.116399	-0.289914	0.354853
C831	C	-0.622591	0.295529	-0.511597
C832	C	-0.622941	0.260555	-0.519519
C833	C	-0.642668	0.258949	-0.560509
C834	C	-0.662044	0.292315	-0.593578
C835	C	-0.661695	0.327291	-0.585658
C836	C	-0.641969	0.328898	-0.544667
H837	H	-0.608597	0.235853	-0.495038
H838	H	-0.642926	0.233057	-0.566372
H839	H	-0.676647	0.291126	-0.623921
H840	H	-0.676039	0.351993	-0.610138
H841	H	-0.641710	0.354789	-0.538804
C842	C	-0.053459	-0.362417	0.189754
C843	C	-0.030671	-0.382012	0.232260
C844	C	0.011929	-0.423015	0.253581
C845	C	0.031741	-0.444422	0.232397
C846	C	0.008953	-0.424826	0.189889
C847	C	-0.033647	-0.383824	0.168568
H848	H	-0.045337	-0.366165	0.247943
H849	H	0.028798	-0.437520	0.285048
H850	H	0.063277	-0.474774	0.248180
H851	H	0.023619	-0.440673	0.174205
H852	H	-0.050516	-0.369318	0.137101
H853	H	-0.064802	-0.186524	0.019041
H854	H	-0.064831	-0.186535	-0.366252
H855	H	0.447400	-0.351494	0.183964
C856	C	0.007792	-0.414184	0.422108
C857	C	0.049539	-0.455650	0.442978
C858	C	0.070697	-0.476237	0.484717
C859	C	0.050108	-0.455358	0.505586
C860	C	0.008359	-0.413889	0.484715
C861	C	-0.012799	-0.393302	0.442976
H862	H	0.064783	-0.471108	0.427530
H863	H	0.101603	-0.506934	0.500166
H864	H	0.065771	-0.470597	0.536484
H865	H	-0.006885	-0.398432	0.500164
H866	H	-0.043705	-0.362605	0.427527
C867	C	0.186938	-0.608906	0.392430
C868	C	0.206213	-0.594808	0.378698
C869	C	0.225807	-0.615999	0.357295
C870	C	0.226126	-0.651288	0.349624
C871	C	0.206850	-0.665388	0.363356
C872	C	0.187256	-0.644197	0.384760
H873	H	0.205977	-0.568684	0.384376
H874	H	0.240076	-0.605562	0.347129
H875	H	0.240631	-0.666975	0.333780
H876	H	0.207086	-0.691513	0.357678
H877	H	0.172987	-0.654635	0.394925
C878	C	0.007981	-0.021174	-0.303350
C879	C	-0.012620	0.020296	-0.324212
C880	C	0.008523	0.040894	-0.303616
C881	C	0.050269	0.020021	-0.262158
C882	C	0.070873	-0.021452	-0.241293
C883	C	0.049729	-0.042050	-0.261889
H884	H	-0.043525	0.035750	-0.354904
H885	H	-0.006729	0.071595	-0.319062
H886	H	0.065921	0.035268	-0.246912
H887	H	0.101777	-0.036906	-0.210601
H888	H	0.064982	-0.072751	-0.246444
H889	H	-0.437694	-0.026529	-0.308681
H890	H	-0.333286	-0.115917	-0.501452
H891	H	-0.370870	-0.083600	-0.468924
H892	H	-0.552384	0.097914	-0.468928
C893	C	-0.096766	0.173543	-0.392518
C894	C	-0.091370	0.176915	-0.354558
C895	C	-0.071558	0.198108	-0.333157
C896	C	-0.057143	0.215929	-0.349717
C897	C	-0.062538	0.212558	-0.387679
C898	C	-0.082350	0.191365	-0.409080
H899	H	-0.102041	0.163722	-0.342298
H900	H	-0.067564	0.200604	-0.305055
H901	H	-0.042477	0.231617	-0.333875
H902	H	-0.051867	0.225750	-0.399939
H903	H	-0.086344	0.188869	-0.437182
H904	H	-0.552602	0.098141	-0.366234
H905	H	-0.064519	-0.351773	0.468881
H906	H	-0.437704	-0.306410	-0.028871
H907	H	-0.552401	-0.248779	-0.019127
H908	H	-0.370892	-0.533512	-0.019131
H909	H	0.117205	0.263192	0.468839
H910	H	-0.167516	0.263165	0.365660
C911	C	-0.215926	0.173798	-0.511630
C912	C	-0.215630	0.159800	-0.544695
C913	C	-0.258234	0.181126	-0.585687
C914	C	-0.301133	0.216449	-0.593614
C915	C	-0.301430	0.230449	-0.560549
C916	C	-0.258827	0.209124	-0.519556
H917	H	-0.183872	0.133650	-0.538827
H918	H	-0.258013	0.170762	-0.610164
H919	H	-0.332671	0.232236	-0.623959
H920	H	-0.333188	0.256599	-0.566416
H921	H	-0.259047	0.219487	-0.495079
H922	H	-0.064327	0.097917	-0.365762
H923	H	0.182068	-0.603630	0.500898
H924	H	0.117209	-0.533507	0.468592
H925	H	-0.167464	-0.248835	0.366187
H926	H	-0.167474	-0.248836	0.183988
H927	H	-0.205057	-0.216515	0.113880
H928	H	0.117209	-0.083596	-0.184292
H929	H	0.117409	-0.186522	-0.184057
H930	H	-0.437709	0.311003	-0.308693
H931	H	0.562331	-0.306406	0.308597
H932	H	-0.370895	0.301278	-0.184280
H933	H	-0.552614	0.301217	-0.468647
H934	H	-0.370893	0.301230	-0.468944
