data_functionalizedCrystal
_audit_creation_method	'MofGen! by Chris Wilmer'
_symmetry_space_group_name_H-M	'P1'
_symmetry_Int_Tables_number	1
_symmetry_cell_setting	triclinic
loop_
_symmetry_equiv_pos_as_xyz
  x,y,z
_cell_length_a	29.839135
_cell_length_b	12.827892
_cell_length_c	12.827885
_cell_angle_alpha	89.970214
_cell_angle_beta	90.024489
_cell_angle_gamma	89.982078
loop_
_atom_site_label
_atom_site_type_symbol
_atom_site_fract_x
_atom_site_fract_y
_atom_site_fract_z
Zn1	Zn	0.686841	0.415912	0.590994
Zn2	Zn	0.686795	0.590689	0.416254
Zn3	Zn	0.611712	0.415970	0.416252
Zn4	Zn	0.611705	0.590619	0.590939
O5	O	0.649263	0.503298	0.503610
O6	O	0.749702	0.439101	0.567839
O7	O	0.676819	0.567566	0.270018
O8	O	0.621700	0.269727	0.439454
O9	O	0.749668	0.567509	0.439458
O10	O	0.676897	0.269684	0.567836
O11	O	0.621655	0.439201	0.270016
O12	O	0.548844	0.439133	0.439400
O13	O	0.621689	0.567390	0.737182
O14	O	0.548839	0.567447	0.567742
O15	O	0.676890	0.439033	0.737223
O16	O	0.676813	0.736916	0.439405
O17	O	0.621645	0.736865	0.567744
C18	C	0.532541	0.503290	0.503565
C19	C	0.482606	0.503311	0.503571
C20	C	0.172977	0.436537	0.570556
C21	C	-0.014696	0.436544	0.570586
O22	O	-0.038948	0.379746	0.627489
N23	N	-0.038179	0.503299	0.503648
C24	C	-0.014741	0.570052	0.436693
O25	O	-0.039021	0.626823	0.379752
C26	C	0.172932	0.570038	0.436659
C27	C	0.196412	0.503287	0.503609
C28	C	0.196458	0.369790	0.637499
C29	C	0.243374	0.369793	0.637495
C30	C	0.266808	0.436543	0.570548
C31	C	0.243328	0.503290	0.503605
C32	C	0.196369	0.636785	0.369700
C33	C	0.243290	0.636774	0.369696
C34	C	0.266770	0.570022	0.436645
C35	C	0.313678	0.570043	0.436653
N36	N	0.337161	0.503288	0.503591
C37	C	0.313726	0.436538	0.570538
C38	C	-0.113271	0.570055	0.436718
C39	C	-0.160189	0.570060	0.436727
C40	C	-0.160141	0.436551	0.570618
C41	C	-0.113222	0.436552	0.570613
C42	C	-0.089788	0.503301	0.503655
C43	C	0.412252	0.436550	0.570525
C44	C	0.459172	0.436561	0.570518
C45	C	0.459119	0.570066	0.436624
C46	C	0.412204	0.570059	0.436634
C47	C	0.388771	0.503292	0.503588
O48	O	0.337959	0.626802	0.379771
O49	O	0.338014	0.379758	0.627455
C50	C	0.126062	0.436534	0.570560
C51	C	0.102581	0.503281	0.503617
C52	C	0.126016	0.570031	0.436670
C53	C	0.055663	0.503286	0.503627
C54	C	0.032229	0.436536	0.570574
C55	C	0.055712	0.369781	0.637511
C56	C	0.102627	0.369784	0.637507
C57	C	0.102533	0.636786	0.369732
C58	C	0.055617	0.636778	0.369742
C59	C	0.032183	0.570028	0.436690
C60	C	0.649235	0.774808	0.503591
C61	C	0.649264	0.890961	0.503618
C62	C	0.649294	0.503197	0.776180
C63	C	0.649307	0.503155	0.892333
C64	C	0.766442	0.503306	0.503655
C65	C	0.816376	0.503310	0.503675
C66	C	0.649304	0.230728	0.503651
C67	C	0.649321	0.114574	0.503669
C68	C	0.676596	0.942736	0.440182
C69	C	0.676626	1.062787	0.440209
C70	C	0.649259	0.503322	0.232100
C71	C	0.649333	0.503071	0.115947
C72	C	0.676625	0.439627	0.944138
C73	C	0.676640	0.439581	1.064189
H74	H	0.262367	0.691129	0.315167
H75	H	0.700029	0.385197	1.108740
C76	C	0.002972	0.355432	0.778099
C77	C	0.029945	0.296407	0.711099
H78	H	-0.012939	0.310132	0.823518
H79	H	0.021277	0.400992	0.817999
H80	H	-0.017722	0.395190	0.738215
H81	H	0.050641	0.256655	0.750983
H82	H	0.011638	0.250829	0.671196
C83	C	0.752658	0.908801	0.389470
C84	C	0.708155	0.882608	0.366832
H85	H	0.772141	0.871677	0.344187
H86	H	0.756815	0.981580	0.379862
H87	H	0.759200	0.890892	0.459712
H88	H	0.701611	0.900525	0.296592
H89	H	0.703996	0.809813	0.376431
C90	C	0.257852	0.319071	0.814531
C91	C	0.269177	0.296401	0.711078
H92	H	0.273778	0.273750	0.859956
H93	H	0.265543	0.389287	0.829708
H94	H	0.226553	0.309530	0.824093
H95	H	0.300476	0.305949	0.701514
H96	H	0.261489	0.226168	0.695896
C97	C	0.359413	0.710611	0.421875
C98	C	0.386390	0.643438	0.363051
H99	H	0.343481	0.755910	0.376440
H100	H	0.338742	0.670853	0.461733
H101	H	0.377722	0.750639	0.467334
H102	H	0.368081	0.603404	0.317597
H103	H	0.407063	0.683200	0.323175
H104	H	0.700025	1.107312	0.385896
H105	H	-0.179229	0.382201	0.625130
C106	C	0.682828	0.299227	0.821276
C107	C	0.708188	0.366251	0.884038
H108	H	0.702315	0.253933	0.784170
H109	H	0.663288	0.259195	0.863855
H110	H	0.665687	0.339100	0.773225
H111	H	0.725326	0.326378	0.932094
H112	H	0.727735	0.406287	0.841455
H113	H	0.625919	1.070056	0.557978
H114	H	0.625945	0.557465	1.071403
H115	H	-0.179303	0.624428	0.382222
C116	C	0.143736	0.355441	0.778115
C117	C	0.170703	0.296416	0.711101
H118	H	0.127837	0.310142	0.823557
H119	H	0.162045	0.401016	0.817990
H120	H	0.123033	0.395183	0.738243
H121	H	0.191409	0.256680	0.750973
H122	H	0.152393	0.250822	0.671223
C123	C	-0.060443	0.295990	0.585371
C124	C	-0.087414	0.363173	0.644199
H125	H	-0.044510	0.250691	0.630804
H126	H	-0.078752	0.255971	0.539921
H127	H	-0.039769	0.335748	0.545504
H128	H	-0.108090	0.323414	0.684061
H129	H	-0.069102	0.403196	0.689667
C130	C	0.454499	0.304587	0.702864
C131	C	0.484981	0.363178	0.644110
H132	H	0.470433	0.259280	0.748289
H133	H	0.436203	0.350165	0.742759
H134	H	0.436195	0.264565	0.657389
H135	H	0.503283	0.403206	0.689585
H136	H	0.503285	0.317595	0.604212
C137	C	0.359527	0.422188	0.711134
C138	C	0.386498	0.363167	0.644126
H139	H	0.343626	0.376887	0.756570
H140	H	0.377833	0.467763	0.751015
H141	H	0.338826	0.461930	0.671258
H142	H	0.407202	0.323431	0.684002
H143	H	0.368191	0.317573	0.604241
C144	C	0.643110	0.643570	1.015178
C145	C	0.617747	0.576543	0.952424
H146	H	0.623625	0.688883	1.052267
H147	H	0.660245	0.603706	1.063233
H148	H	0.662656	0.683591	0.972587
H149	H	0.598203	0.536517	0.995017
H150	H	0.600604	0.616411	0.904363
H151	H	-0.094196	0.624413	0.382190
C152	C	0.592429	0.880261	0.635622
C153	C	0.617706	0.951089	0.576970
H154	H	0.572948	0.917382	0.680912
H155	H	0.575228	0.837764	0.590082
H156	H	0.611970	0.837614	0.675665
H157	H	0.598164	0.993732	0.536921
H158	H	0.634908	0.993604	0.622516
C159	C	0.002837	0.777349	0.354963
C160	C	0.029812	0.710164	0.296147
H161	H	-0.013090	0.822652	0.309523
H162	H	-0.017837	0.737600	0.394819
H163	H	0.021147	0.817373	0.400423
H164	H	0.011501	0.670134	0.250691
H165	H	0.050488	0.749917	0.256272
H166	H	0.177259	0.691141	0.315181
H167	H	0.478208	0.624415	0.382119
H168	H	0.121741	0.315427	0.692024
H169	H	0.121609	0.691141	0.315213
