data_functionalizedCrystal
_audit_creation_method	'MofGen! by Chris Wilmer'
_symmetry_space_group_name_H-M	'P1'
_symmetry_Int_Tables_number	1
_symmetry_cell_setting	triclinic
loop_
_symmetry_equiv_pos_as_xyz
  x,y,z
_cell_length_a	19.805407
_cell_length_b	19.077114
_cell_length_c	19.805398
_cell_angle_alpha	87.729807
_cell_angle_beta	89.988649
_cell_angle_gamma	87.674325
loop_
_atom_site_label
_atom_site_type_symbol
_atom_site_fract_x
_atom_site_fract_y
_atom_site_fract_z
Zn1	Zn	1.023852	0.280261	-0.393514
Zn2	Zn	1.523852	0.780261	0.106486
Zn3	Zn	1.019226	0.397962	-0.284872
Zn4	Zn	1.519226	0.897962	0.215128
Zn5	Zn	0.910678	0.280277	-0.280342
Zn6	Zn	1.410678	0.780277	0.219658
Zn7	Zn	0.906079	0.397917	-0.398020
Zn8	Zn	1.406079	0.897917	0.101980
O9	O	0.964959	0.339104	-0.339187
O10	O	1.464959	0.839104	0.160813
O11	O	1.117954	0.295886	-0.379111
O12	O	1.617954	0.795886	0.120889
O13	O	1.004817	0.382376	-0.189555
O14	O	1.504817	0.882376	0.310445
O15	O	0.929552	0.181784	-0.291573
O16	O	1.429552	0.681784	0.208427
O17	O	1.114556	0.382360	-0.299293
O18	O	1.614556	0.882360	0.200707
O19	O	1.012700	0.181772	-0.374719
O20	O	1.512700	0.681772	0.125281
O21	O	0.925067	0.295913	-0.186227
O22	O	1.425067	0.795913	0.313773
O23	O	0.815352	0.295870	-0.295943
O24	O	1.315352	0.795870	0.204057
O25	O	0.921712	0.382284	-0.492138
O26	O	1.421712	0.882284	0.007862
O27	O	0.811973	0.382299	-0.382401
O28	O	1.311973	0.882299	0.117599
O29	O	1.008240	0.295842	-0.488827
O30	O	1.508240	0.795842	0.011173
O31	O	1.000356	0.496446	-0.303663
O32	O	1.500356	0.996446	0.196337
O33	O	0.917227	0.496413	-0.386793
O34	O	1.417227	0.996413	0.113207
C35	C	0.789104	0.339082	-0.339170
C36	C	1.289104	0.839082	0.160830
C37	C	0.713871	0.339089	-0.339179
C38	C	1.213871	0.839089	0.160821
C39	C	0.680294	0.294142	-0.380809
C40	C	1.180294	0.794142	0.119191
C41	C	0.609606	0.294145	-0.380812
C42	C	1.109606	0.794145	0.119188
C43	C	0.572495	0.339101	-0.339188
C44	C	1.072495	0.839101	0.160812
C45	C	0.606077	0.384050	-0.297552
C46	C	1.106077	0.884050	0.202448
C47	C	0.676765	0.384043	-0.297547
C48	C	1.176765	0.884043	0.202453
C49	C	0.321003	0.384082	-0.297574
C50	C	0.821003	0.884082	0.202426
C51	C	0.250311	0.384088	-0.297585
C52	C	0.750311	0.884088	0.202415
C53	C	0.253844	0.294185	-0.380840
C54	C	0.753844	0.794185	0.119160
C55	C	0.324531	0.294177	-0.380834
C56	C	0.824531	0.794177	0.119166
C57	C	0.358107	0.339124	-0.339197
C58	C	0.858107	0.839124	0.160803
C59	C	0.434756	0.339118	-0.339193
C60	C	0.934756	0.839118	0.160807
C61	C	0.495848	0.339110	-0.339194
C62	C	0.995848	0.839110	0.160806
C63	C	0.957809	0.521968	-0.346223
C64	C	1.457809	1.021968	0.153777
C65	C	0.954813	0.600197	-0.349256
C66	C	1.454813	1.100197	0.150744
C67	C	0.996719	0.636944	-0.307435
C68	C	1.496719	1.136944	0.192565
C69	C	0.993905	0.710449	-0.310292
C70	C	1.493905	1.210449	0.189708
C71	C	0.949180	0.747207	-0.354966
C72	C	1.449180	1.247207	0.145034
C73	C	0.907271	0.710455	-0.396791
C74	C	1.407271	1.210455	0.103209
C75	C	0.910090	0.636951	-0.393937
C76	C	1.410090	1.136951	0.106063
C77	C	0.936109	0.967041	-0.368140
C78	C	1.436109	1.467041	0.131860
C79	C	0.933292	1.040550	-0.370989
C80	C	1.433292	1.540550	0.129011
C81	C	1.019927	1.040539	-0.284491
C82	C	1.519927	1.540539	0.215509
C83	C	1.022738	0.967033	-0.281638
C84	C	1.522738	1.467033	0.218362
C85	C	0.980832	0.930288	-0.323466
C86	C	1.480832	1.430288	0.176534
N87	N	0.946300	0.822341	-0.357885
N88	N	1.446300	1.322341	0.142115
N89	N	0.983716	0.855155	-0.320550
N90	N	1.483716	1.355155	0.179450
C91	C	1.141501	0.339126	-0.339205
C92	C	1.641501	0.839126	0.160795
C93	C	1.216732	0.339136	-0.339212
C94	C	1.716732	0.839136	0.160788
C95	C	0.964979	0.339056	-0.515728
C96	C	1.464979	0.839056	-0.015728
C97	C	0.964987	0.339036	-0.590959
C98	C	1.464987	0.839036	-0.090959
C99	C	0.972149	1.155526	-0.332147
C100	C	1.472149	1.655526	0.167853
C101	C	0.975199	1.077296	-0.329169
C102	C	1.475199	1.577296	0.170831
C103	C	1.006624	0.383945	-1.054476
C104	C	1.506624	0.883945	-0.554476
C105	C	1.006605	0.383964	-0.983789
C106	C	1.506605	0.883964	-0.483789
C107	C	0.965074	0.338957	-0.946718
C108	C	1.465074	0.838957	-0.446718
C109	C	0.923556	0.293932	-0.980339
C110	C	1.423556	0.793932	-0.480339
C111	C	0.923572	0.293917	-1.051025
C112	C	1.423572	0.793917	-0.551025
C113	C	0.923488	0.293992	-0.695268
C114	C	1.423488	0.793992	-0.195268
C115	C	0.923477	0.294009	-0.624576
C116	C	1.423477	0.794009	-0.124576
C117	C	1.006520	0.384039	-0.628031
C118	C	1.506520	0.884039	-0.128031
C119	C	1.006537	0.384024	-0.698718
C120	C	1.506537	0.884024	-0.198718
C121	C	0.965016	0.339003	-0.732332
C122	C	1.465016	0.839003	-0.232332
C123	C	0.965037	0.338984	-0.808980
C124	C	1.465037	0.838984	-0.308980
C125	C	0.965057	0.338972	-0.870071
C126	C	1.465057	0.838972	-0.370071
C127	C	0.964980	0.339100	-0.163331
C128	C	1.464980	0.839100	0.336669
C129	C	0.965110	0.338922	-0.088092
C130	C	1.465110	0.838922	0.411908
H131	H	0.226498	0.257585	-0.414741
H132	H	0.726498	0.757585	0.085259
C133	C	0.209491	0.433539	-0.251786
C134	C	0.709491	0.933539	0.248214
N135	N	0.178745	0.470782	-0.217292
N136	N	0.678745	0.970782	0.282708
C137	C	0.877825	0.244456	-0.732234
C138	C	1.377825	0.744456	-0.232234
N139	N	0.843432	0.207140	-0.760080
N140	N	1.343432	0.707140	-0.260080
H141	H	0.889738	0.257289	-0.950150
H142	H	1.389738	0.757289	-0.450150
H143	H	0.889768	0.257254	-1.078394
H144	H	1.389768	0.757254	-0.578394
H145	H	0.348332	0.420681	-0.263671
H146	H	0.848332	0.920681	0.236329
H147	H	1.040327	0.420701	-0.600654
H148	H	1.540327	0.920701	-0.100654
C149	C	0.565254	0.433501	-0.251764
C150	C	1.065254	0.933501	0.248236
N151	N	0.534506	0.470750	-0.217277
N152	N	1.034506	0.970750	0.282723
C153	C	0.713699	0.433490	-0.251751
C154	C	1.213699	0.933490	0.248249
N155	N	0.741517	0.470734	-0.217256
N156	N	1.241517	0.970734	0.282744
C157	C	1.045919	0.596517	-0.258288
C158	C	1.545919	1.096517	0.241712
N159	N	1.082980	0.566070	-0.221271
N160	N	1.582980	1.066070	0.278729
C161	C	0.721109	0.244686	-0.426600
C162	C	1.221109	0.744686	0.073400
N163	N	0.751849	0.207432	-0.461089
N164	N	1.251849	0.707432	0.038911
H165	H	1.054045	1.070464	-0.250438
H166	H	1.554045	1.570464	0.249562
C167	C	0.572674	0.244702	-0.426611
C168	C	1.072674	0.744702	0.073389
N169	N	0.544858	0.207459	-0.461109
N170	N	1.044858	0.707459	0.038891
H171	H	1.028029	0.740365	-0.276237
H172	H	1.528029	1.240365	0.223763
C173	C	1.071922	0.926606	-0.232476
C174	C	1.571922	1.426606	0.267524
N175	N	1.108960	0.896155	-0.195438
N176	N	1.608960	1.396155	0.304562
H177	H	0.896880	1.070476	-0.407380
H178	H	1.396880	1.570476	0.092620
C179	C	0.365349	0.244720	-0.426622
C180	C	0.865349	0.744720	0.073378
N181	N	0.396092	0.207465	-0.461107
N182	N	0.896092	0.707465	0.038893
H183	H	0.889656	0.257356	-0.594395
H184	H	1.389656	0.757356	-0.094395
H185	H	0.901986	0.937128	-0.402197
H186	H	1.401986	1.437128	0.097803
H187	H	0.870858	0.740389	-0.433168
H188	H	1.370858	1.240389	0.066832
H189	H	1.040446	0.420592	-1.084654
H190	H	1.540446	0.920592	-0.584654
C191	C	0.863989	0.596530	-0.439944
C192	C	1.363989	1.096530	0.060056
N193	N	0.829267	0.566087	-0.474599
N194	N	1.329267	1.066087	0.025401
C195	C	1.052307	0.433458	-0.946813
C196	C	1.552307	0.933458	-0.446813
N197	N	1.086745	0.470728	-0.918963
N198	N	1.586745	0.970728	-0.418963
C199	C	1.052222	0.433538	-0.739492
C200	C	1.552222	0.933538	-0.239492
N201	N	1.086630	0.470835	-0.770202
N202	N	1.586630	0.970835	-0.270202
