data_functionalizedCrystal
_audit_creation_method	'MofGen! by Chris Wilmer'
_symmetry_space_group_name_H-M	'P1'
_symmetry_Int_Tables_number	1
_symmetry_cell_setting	triclinic
loop_
_symmetry_equiv_pos_as_xyz
  x,y,z
_cell_length_a	13.339070
_cell_length_b	13.185407
_cell_length_c	16.176319
_cell_angle_alpha	89.992669
_cell_angle_beta	89.992973
_cell_angle_gamma	83.801389
loop_
_atom_site_label
_atom_site_type_symbol
_atom_site_fract_x
_atom_site_fract_y
_atom_site_fract_z
O1	O	1.204772	0.505102	-0.068766
O2	O	0.928294	0.438805	-0.068763
O3	O	1.113902	0.327538	-0.068762
O4	O	1.019164	0.616370	-0.068767
O5	O	1.113885	0.327522	0.068731
O6	O	0.928277	0.438789	0.068731
O7	O	1.204755	0.505086	0.068727
Cu8	Cu	1.066514	0.471936	0.081283
Cu9	Cu	1.066534	0.471955	-0.081319
O10	O	1.019147	0.616354	0.068727
C11	C	0.893645	0.427598	-0.000016
C12	C	0.790432	0.394217	-0.000014
C13	C	0.354974	0.653772	-0.000031
C14	C	0.451948	0.685138	-0.000035
C15	C	0.536573	0.612411	-0.000030
C16	C	0.524216	0.508311	-0.000021
C17	C	0.427234	0.476941	-0.000024
C18	C	0.608832	0.435580	-0.000022
C19	C	0.596476	0.331481	-0.000013
C20	C	0.499502	0.300116	-0.000015
C21	C	0.414877	0.372844	-0.000021
C22	C	0.705815	0.466950	-0.000019
C23	C	0.778074	0.290120	-0.000011
C24	C	0.681101	0.258753	-0.000007
C25	C	1.123497	0.289807	-0.000017
C26	C	1.152104	0.177402	-0.000020
C27	C	0.879090	-0.194460	-0.000024
C28	C	0.852210	-0.088850	-0.000029
C29	C	0.927181	-0.022282	-0.000027
C30	C	1.029037	-0.061333	-0.000019
C31	C	1.055921	-0.166953	-0.000021
C32	C	1.104011	0.005225	-0.000023
C33	C	1.205868	-0.033826	-0.000016
C34	C	1.232746	-0.139436	-0.000017
C35	C	1.157775	-0.206004	-0.000020
C36	C	1.077128	0.110844	-0.000022
C37	C	1.253958	0.138351	-0.000019
C38	C	1.280839	0.032742	-0.000014
C39	C	1.239403	0.516293	-0.000022
C40	C	1.342617	0.549674	-0.000029
C41	C	1.009551	0.654084	-0.000021
C42	C	0.980945	0.766489	-0.000023
N43	N	1.066507	0.471925	0.195648
N44	N	1.066551	0.471961	-0.195684
C45	C	1.148706	0.422689	0.238913
C46	C	1.148711	0.422690	0.325460
C47	C	1.066519	0.471932	0.368741
C48	C	0.984313	0.521169	0.325470
C49	C	0.984306	0.521162	0.238925
C50	C	0.984340	0.521197	0.674499
C51	C	0.984355	0.521203	0.761050
C52	C	1.148745	0.422725	0.761034
C53	C	1.148737	0.422718	0.674488
C54	C	1.066530	0.471950	0.631225
C55	C	1.066524	0.471947	0.537381
C56	C	1.066527	0.471941	0.462583
H57	H	0.671026	0.173993	-0.000007
H58	H	0.846979	0.230898	-0.000010
O59	O	0.310282	0.339007	-0.000013
H60	H	0.253518	0.407070	-0.000017
H61	H	0.489447	0.215352	-0.000017
H62	H	0.905289	0.063709	-0.000030
H63	H	0.715865	0.551708	-0.000023
O64	O	0.895679	0.574308	0.627847
H65	H	0.909471	0.566027	0.560395
H66	H	1.315684	-0.171227	-0.000019
O67	O	0.967275	0.152956	-0.000015
H68	H	0.930041	0.126090	-0.056050
H69	H	0.286067	0.712975	-0.000043
O70	O	0.895653	0.574258	0.192247
H71	H	0.886169	0.656417	0.208831
O72	O	1.334835	0.210132	-0.000018
H73	H	1.326820	0.258893	0.056026
H74	H	0.615531	0.637956	-0.000035
H75	H	0.769278	-0.057063	-0.000037
O76	O	0.798235	-0.266252	-0.000021
H77	H	0.834043	-0.346251	-0.000014
O78	O	1.186774	-0.319915	-0.000009
H79	H	1.117528	-0.359638	-0.000010
H80	H	1.363772	0.000931	-0.000008
H81	H	1.215638	0.382596	0.203679
O82	O	1.237379	0.369609	0.372127
H83	H	1.294539	0.335386	0.327491
H84	H	1.215667	0.382625	0.639251
O85	O	0.465268	0.797411	-0.000027
H86	H	0.429329	0.833799	-0.056062
H87	H	1.215681	0.382634	0.796267
H88	H	0.917421	0.561303	0.796288
O89	O	0.895663	0.574288	0.372146
H90	H	0.909481	0.566034	0.439595
