data_functionalizedCrystal
_audit_creation_method	'MofGen! by Chris Wilmer'
_symmetry_space_group_name_H-M	'P1'
_symmetry_Int_Tables_number	1
_symmetry_cell_setting	triclinic
loop_
_symmetry_equiv_pos_as_xyz
  x,y,z
_cell_length_a	19.288864
_cell_length_b	14.586319
_cell_length_c	16.109298
_cell_angle_alpha	90.001604
_cell_angle_beta	96.701782
_cell_angle_gamma	90.017348
loop_
_atom_site_label
_atom_site_type_symbol
_atom_site_fract_x
_atom_site_fract_y
_atom_site_fract_z
O1	O	0.921594	0.076524	-0.103714
O2	O	1.421594	0.576524	0.396286
O3	O	0.719367	0.076460	-0.117705
O4	O	1.219367	0.576460	0.382295
O5	O	0.826037	0.076500	0.010341
O6	O	1.326037	0.576500	0.510341
O7	O	0.814924	0.076483	-0.231760
O8	O	1.314924	0.576483	0.268240
O9	O	0.826029	-0.075981	0.010343
O10	O	1.326029	0.424019	0.510343
O11	O	0.719359	-0.076021	-0.117703
O12	O	1.219359	0.423979	0.382297
O13	O	0.921587	-0.075957	-0.103712
O14	O	1.421587	0.424043	0.396288
Cu15	Cu	0.820472	-0.089912	-0.110707
Cu16	Cu	1.320472	0.410088	0.389293
Cu17	Cu	0.820481	0.090414	-0.110710
Cu18	Cu	1.320481	0.590414	0.389290
O19	O	0.814916	-0.075998	-0.231758
O20	O	1.314916	0.424002	0.268242
C21	C	0.693485	0.000211	-0.117254
C22	C	1.193485	0.500211	0.382746
C23	C	0.616379	0.000187	-0.115902
C24	C	1.116379	0.500187	0.384098
N25	N	0.820471	-0.216744	-0.110705
N26	N	1.320471	0.283256	0.389295
C27	C	0.571861	0.000196	-0.191034
C28	C	1.071861	0.500196	0.308966
C29	C	0.499411	0.000207	-0.189764
C30	C	0.999411	0.500207	0.310236
C31	C	0.471482	0.000226	-0.113359
C32	C	0.971482	0.500226	0.386641
C33	C	0.516009	0.000212	-0.038218
C34	C	1.016009	0.500212	0.461782
C35	C	0.588458	0.000192	-0.039489
C36	C	1.088458	0.500192	0.460511
C37	C	0.363079	0.053682	-0.053296
C38	C	0.863079	0.553682	0.446704
C39	C	0.290632	0.053707	-0.052028
C40	C	0.790632	0.553707	0.447972
C41	C	0.248027	0.000282	-0.109433
C42	C	0.748027	0.500282	0.390567
C43	C	0.277876	-0.053156	-0.168121
C44	C	0.777876	0.446844	0.331879
C45	C	0.350325	-0.053176	-0.169393
C46	C	0.850325	0.446824	0.330607
C47	C	0.392924	0.000246	-0.111971
C48	C	0.892924	0.500246	0.388029
C49	C	0.124950	0.000301	-0.183193
C50	C	0.624950	0.500301	0.316807
C51	C	0.052499	0.000305	-0.181920
C52	C	0.552499	0.500305	0.318080
C53	C	0.069099	0.000319	-0.030372
C54	C	0.569099	0.500319	0.469628
C55	C	0.141548	0.000306	-0.031647
C56	C	0.641548	0.500306	0.468353
C57	C	0.169469	0.000301	-0.108060
C58	C	0.669469	0.500301	0.391940
C59	C	0.867720	-0.451732	-0.054025
C60	C	1.367720	0.048268	0.445975
C61	C	0.867722	-0.547714	-0.054023
C62	C	1.367722	-0.047714	0.445977
C63	C	0.773233	-0.547759	-0.167387
C64	C	1.273233	-0.047759	0.332613
C65	C	0.773229	-0.451779	-0.167385
C66	C	1.273229	0.048221	0.332615
C67	C	0.820476	-0.403768	-0.110705
C68	C	1.320476	0.096232	0.389295
C69	C	0.820483	-0.595729	-0.110705
C70	C	1.320483	-0.095729	0.389295
C71	C	0.820485	-0.699796	-0.110704
C72	C	1.320485	-0.199796	0.389296
C73	C	0.820473	-0.299695	-0.110705
C74	C	1.320473	0.200305	0.389295
C75	C	0.947468	0.000293	-0.104163
C76	C	1.447468	0.500293	0.395837
C77	C	1.024575	0.000323	-0.105514
C78	C	1.524575	0.500323	0.394486
C79	C	0.825583	0.000263	0.041315
C80	C	1.325583	0.500263	0.541315
C81	C	0.824235	0.000273	0.133606
C82	C	1.324235	0.500273	0.633606
N83	N	0.820488	0.217246	-0.110705
N84	N	1.320488	0.717246	0.389295
C85	C	0.815370	0.000241	-0.262732
C86	C	1.315370	0.500241	0.237268
C87	C	0.816718	0.000237	-0.355023
C88	C	1.316718	0.500237	0.144977
C89	C	0.819838	0.083370	0.432659
C90	C	1.319838	0.583370	0.932659
C91	C	0.821115	0.083377	0.345943
C92	C	1.321115	0.583377	0.845943
C93	C	0.821117	-0.082866	0.345931
C94	C	1.321117	0.417134	0.845931
C95	C	0.819845	-0.082872	0.432646
C96	C	1.319845	0.417128	0.932646
C97	C	0.819203	0.000249	0.476007
C98	C	1.319203	0.500249	0.976007
C99	C	0.821751	0.000262	0.302576
C100	C	1.321751	0.500262	0.802576
C101	C	0.823135	0.000268	0.208556
C102	C	1.323135	0.500268	0.708556
C103	C	0.817820	0.000242	0.570034
C104	C	1.317820	0.500242	1.070034
H105	H	0.594589	0.000194	-0.253255
H106	H	1.094589	0.500194	0.246745
C107	C	0.190520	0.000306	0.051005
C108	C	0.690520	0.500306	0.551005
N109	N	0.227405	0.000305	0.113262
N110	N	0.727405	0.500305	0.613262
C111	C	0.485286	0.000234	0.045829
C112	C	0.985286	0.500234	0.545829
N113	N	0.462145	0.000248	0.109135
N114	N	0.962145	0.500248	0.609135
H115	H	0.463158	0.000212	-0.250947
H116	H	0.963158	0.500212	0.249053
H117	H	0.734767	-0.586859	-0.213536
H118	H	1.234767	-0.086859	0.286464
H119	H	0.821639	-0.150540	0.310615
H120	H	1.321639	0.349460	0.810615
C121	C	0.919689	-0.600469	0.008335
C122	C	1.419689	-0.100469	0.508335
N123	N	0.958831	-0.640204	0.055309
N124	N	1.458831	-0.140204	0.555309
H125	H	0.906191	-0.412644	-0.007872
H126	H	1.406191	0.087356	0.492128
C127	C	0.383158	-0.111966	-0.233941
C128	C	0.883158	0.388034	0.266059
N129	N	0.407888	-0.156253	-0.282556
N130	N	0.907888	0.343747	0.217444
H131	H	0.819330	-0.150563	0.467941
H132	H	1.319330	0.349437	0.967941
H133	H	0.266334	0.097223	-0.004244
H134	H	0.766334	0.597223	0.495756
C135	C	0.721285	-0.399016	-0.229777
C136	C	1.221285	0.100984	0.270223
N137	N	0.682173	-0.359275	-0.276782
N138	N	1.182173	0.140725	0.223218
C139	C	0.819146	0.174805	0.480355
C140	C	1.319146	0.674805	0.980355
N141	N	0.818631	0.243677	0.516279
N142	N	1.318631	0.743677	1.016279
H143	H	0.243188	-0.096661	-0.214866
H144	H	0.743188	0.403339	0.285134
H145	H	0.821634	0.151063	0.310653
H146	H	1.321634	0.651063	0.810653
C147	C	0.155665	0.000284	-0.267248
C148	C	0.655665	0.500284	0.232752
N149	N	0.178798	0.000269	-0.330559
N150	N	0.678798	0.500269	0.169441
C151	C	0.003528	0.000302	-0.264576
C152	C	0.503528	0.500302	0.235424
N153	N	-0.033357	0.000297	-0.326833
N154	N	0.466643	0.500297	0.173167
H155	H	0.624705	0.000185	0.021694
H156	H	1.124705	0.500185	0.521694
C157	C	0.038381	0.000340	0.053675
C158	C	0.538381	0.500340	0.553675
N159	N	0.015241	0.000353	0.116982
N160	N	0.515241	0.500353	0.616982
C161	C	0.409938	0.112462	0.009855
C162	C	0.909938	0.612462	0.509855
N163	N	0.445231	0.156735	0.057418
N164	N	0.945231	0.656735	0.557418
