data_functionalizedCrystal
_audit_creation_method	'MofGen! by Chris Wilmer'
_symmetry_space_group_name_H-M	'P1'
_symmetry_Int_Tables_number	1
_symmetry_cell_setting	triclinic
loop_
_symmetry_equiv_pos_as_xyz
  x,y,z
_cell_length_a	14.560438
_cell_length_b	18.760487
_cell_length_c	18.760492
_cell_angle_alpha	89.968331
_cell_angle_beta	120.005233
_cell_angle_gamma	60.021725
loop_
_atom_site_label
_atom_site_type_symbol
_atom_site_fract_x
_atom_site_fract_y
_atom_site_fract_z
Zr1	Zr	1.005312	0.686695	0.093170
O2	O	1.196920	0.572887	0.207065
O3	O	0.813704	0.721582	0.058248
O4	O	1.005312	0.721593	0.206964
O5	O	1.005313	0.572869	-0.058954
O6	O	1.005311	0.838896	0.206892
O7	O	1.005313	0.572876	0.058349
O8	O	0.662561	0.838877	-0.059134
O9	O	1.348064	0.572887	0.207073
O10	O	0.892515	0.824004	0.043308
O11	O	0.892516	0.736457	-0.044179
O12	O	1.118109	0.736469	0.130915
O13	O	1.118109	0.648922	0.043427
Zr14	Zr	1.005313	0.873767	-0.094029
Zr15	Zr	1.005312	0.873779	0.093055
Zr16	Zr	1.005313	0.686683	-0.093914
Zr17	Zr	1.246369	0.686696	0.093182
Zr18	Zr	0.764256	0.873766	-0.094041
O19	O	1.196921	0.838880	-0.059108
O20	O	1.196919	0.838897	0.206902
O21	O	1.196921	0.572870	-0.058944
O22	O	0.813705	0.987575	-0.207925
O23	O	0.813704	0.987592	0.058084
O24	O	0.813705	0.721565	-0.207761
O25	O	1.005312	0.987594	0.058094
O26	O	1.005313	0.838869	-0.207824
O27	O	1.005314	0.721566	-0.207752
O28	O	1.005312	0.987586	-0.059209
O29	O	1.348064	0.721595	0.206981
O30	O	0.662561	0.838867	-0.207841
O31	O	0.662561	0.987575	-0.207933
O32	O	0.662560	0.987584	-0.059226
O33	O	1.348064	0.572878	0.058366
O34	O	1.348064	0.721585	0.058275
O35	O	0.892516	0.823993	-0.131775
O36	O	0.892516	0.911540	-0.044287
O37	O	1.118109	0.824005	0.043320
O38	O	1.118110	0.736458	-0.044168
C39	C	0.703787	0.780229	-0.000445
C40	C	0.601452	0.780229	-0.000450
C41	C	0.636666	0.715608	0.064226
C42	C	0.540526	0.715612	0.064249
C43	C	0.373959	0.844860	-0.065090
C44	C	0.470099	0.844860	-0.065108
C45	C	0.509206	0.667348	0.171319
C46	C	0.544421	0.602715	0.235990
C47	C	0.649140	0.516283	0.263722
C48	C	0.718646	0.494468	0.226773
C49	C	0.683424	0.559097	0.162096
C50	C	0.578710	0.645539	0.134379
C51	C	0.501426	0.893115	-0.172177
C52	C	0.466206	0.957741	-0.236859
C53	C	0.361481	1.044177	-0.264600
C54	C	0.291963	1.065991	-0.227665
C55	C	0.327183	1.001364	-0.162984
C56	C	0.431915	0.914930	-0.135242
C57	C	1.005313	0.546217	-0.000286
C58	C	1.005313	0.466794	-0.000237
C59	C	1.123075	0.085285	0.045148
C60	C	0.887551	0.176678	-0.046315
C61	C	0.887549	0.251300	-0.046240
C62	C	1.005312	0.242917	-0.000469
C63	C	1.123076	0.159913	0.045227
C64	C	0.769786	0.334309	-0.091927
C65	C	0.769780	0.408937	-0.091853
C66	C	0.887544	0.400556	-0.046087
C67	C	1.005313	0.317545	-0.000391
C68	C	1.123076	0.309162	0.045380
C69	C	1.240847	0.226152	0.091072
C70	C	1.240841	0.151531	0.090993
C71	C	0.887550	0.475177	-0.046008
C72	C	1.123078	0.383790	0.045459
C73	C	1.306838	0.780233	-0.000415
C74	C	1.409173	0.780233	-0.000410
C75	C	1.005311	0.780246	0.233584
C76	C	1.005311	0.780251	0.313006
C77	C	1.005312	1.014245	-0.000574
C78	C	1.005312	1.093668	-0.000623
C79	C	0.887548	0.825928	0.603090
C80	C	1.123072	0.734539	0.694548
C81	C	1.123074	0.734544	0.619928
C82	C	1.005312	0.780240	0.536884
C83	C	0.887547	0.825931	0.528461
C84	C	1.240837	0.688846	0.628344
C85	C	1.240844	0.688847	0.553721
C86	C	1.123080	0.734549	0.470675
C87	C	1.005310	0.780243	0.462255
C88	C	0.887548	0.825939	0.379211
C89	C	0.769777	0.871639	0.370789
C90	C	0.769783	0.871633	0.445415
C91	C	1.123074	0.734555	0.396049
C92	C	0.887546	0.825943	0.304583
C93	C	1.005313	0.780221	0.765556
C94	C	1.005311	0.780232	0.686133
C95	C	0.703787	1.014244	-0.000589
C96	C	0.601451	1.093665	-0.000643
C97	C	0.703788	0.780214	-0.234459
C98	C	0.601454	0.780209	-0.313886
C99	C	0.703788	1.014229	-0.234603
C100	C	0.601453	1.093645	-0.314079
C101	C	1.306837	0.546233	0.233743
C102	C	1.409172	0.466817	0.313219
C103	C	1.306838	0.546218	-0.000271
C104	C	1.409173	0.466797	-0.000217
C105	C	1.306837	0.780248	0.233599
C106	C	1.409171	0.780253	0.313026
C107	C	0.553394	1.085270	0.045064
C108	C	0.457252	1.159888	0.045030
C109	C	0.409164	1.242900	-0.000715
C110	C	0.457231	1.251295	-0.046423
C111	C	0.553377	1.176677	-0.046384
C112	C	0.553396	0.825899	-0.396917
C113	C	0.457256	0.825890	-0.471555
C114	C	0.409167	0.780196	-0.463159
C115	C	0.457234	0.734500	-0.380118
C116	C	0.553379	0.734504	-0.305483
C117	C	0.553395	1.176647	-0.305734
C118	C	0.457254	1.251274	-0.380403
C119	C	0.409166	1.242898	-0.463416
C120	C	0.457233	1.159888	-0.471759
C121	C	0.553379	1.085262	-0.397091
C122	C	1.457241	0.383815	0.304874
C123	C	1.553412	0.309188	0.379543
C124	C	1.601505	0.317564	0.462556
C125	C	1.553432	0.400574	0.470899
C126	C	1.457269	0.475200	0.396231
C127	C	1.457241	0.475192	-0.045916
C128	C	1.553409	0.400574	-0.045862
C129	C	1.601501	0.317562	-0.000114
C130	C	1.553429	0.309168	0.045590
C131	C	1.457270	0.383785	0.045541
C132	C	1.457229	0.825957	0.304602
C133	C	1.553371	0.825979	0.379225
C134	C	1.601459	0.780292	0.462271
C135	C	1.553392	0.734588	0.470694
C136	C	1.457246	0.734571	0.396071
H137	H	0.740008	0.541335	0.132008
F138	F	0.644440	0.497276	-0.140485
F139	F	0.306834	1.322308	-0.000749
F140	F	0.406041	1.150987	-0.560115
H141	H	0.743616	0.662977	0.116870
H142	H	1.336723	0.083940	0.128192
H143	H	0.418127	1.153036	0.082251
F144	F	0.406035	1.339650	-0.095107
F145	F	1.604627	0.409475	0.559255
F146	F	0.762220	0.563515	-0.094627
F147	F	1.406067	0.874586	0.216225
F148	F	0.604510	0.996928	-0.405986
H149	H	1.418132	0.542781	0.403036
H150	H	0.592494	1.183526	-0.083609
H151	H	1.218961	0.017696	0.082347
H152	H	1.592497	0.863196	0.372350
H153	H	1.336740	0.651637	0.560588
H154	H	0.791648	0.863157	0.236968
F155	F	0.644464	0.343223	-0.140632
F156	F	0.234161	0.913638	-0.133902
F157	F	1.406072	0.374881	0.216532
H158	H	1.418092	0.542779	-0.083175
F159	F	0.406040	0.685873	-0.371196
H160	H	0.270572	1.019132	-0.132912
H161	H	1.679800	0.256811	-0.000081
F162	F	0.323991	1.112955	-0.333448
H163	H	1.679748	0.780313	0.523026
H164	H	1.592533	0.407426	-0.083083
H165	H	0.673900	0.908839	0.438567
H166	H	1.592560	0.697391	0.538320
H167	H	0.673894	0.908840	0.303165
F168	F	1.604622	0.220812	0.094273
F169	F	1.406115	0.374836	0.094178
F170	F	0.604554	0.874540	-0.405873
H171	H	0.418131	0.863105	-0.539162
F172	F	1.248404	0.685925	0.405013
F173	F	0.762227	0.185594	-0.095019
F174	F	1.406118	0.685917	0.405051
F175	F	0.306838	0.780200	-0.542601
F176	F	0.540206	0.934524	-0.276159
H177	H	0.791662	0.863138	0.596236
H178	H	0.803900	0.424083	0.249350
H179	H	0.677808	0.463658	0.316380
H180	H	0.487823	0.620484	0.266072
F181	F	0.604510	0.685876	-0.217116
H182	H	1.592537	0.241604	0.372733
H183	H	1.336729	0.219337	0.128343
H184	H	0.592546	1.017683	0.082325
H185	H	0.418128	1.318858	-0.373594
F186	F	0.604563	1.185581	-0.217392
H187	H	0.423946	0.737728	0.148752
H188	H	1.218949	0.697332	0.762165
H189	H	0.206684	1.136372	-0.250258
H190	H	0.586710	0.822734	-0.149588
F191	F	1.248420	0.374859	0.094170
F192	F	1.366159	0.640203	0.716725
H193	H	0.330878	1.303671	-0.524208
H194	H	1.679807	0.256791	0.523349
