data_functionalizedCrystal
_audit_creation_method	'MofGen! by Chris Wilmer'
_symmetry_space_group_name_H-M	'P1'
_symmetry_Int_Tables_number	1
_symmetry_cell_setting	triclinic
loop_
_symmetry_equiv_pos_as_xyz
  x,y,z
_cell_length_a	10.654550
_cell_length_b	15.944551
_cell_length_c	9.130313
_cell_angle_alpha	89.997799
_cell_angle_beta	89.996220
_cell_angle_gamma	83.991820
loop_
_atom_site_label
_atom_site_type_symbol
_atom_site_fract_x
_atom_site_fract_y
_atom_site_fract_z
O1	O	1.666308	0.117973	-0.121923
O2	O	1.300684	0.129213	-0.121900
O3	O	1.493480	0.001376	-0.121899
O4	O	1.473511	0.245810	-0.121924
O5	O	1.493478	0.001379	0.121700
O6	O	1.300681	0.129216	0.121699
O7	O	1.666305	0.117976	0.121676
Cu8	Cu	1.483493	0.123596	0.143930
Cu9	Cu	1.483496	0.123592	-0.144154
O10	O	1.473509	0.245813	0.121675
C11	C	1.253895	0.128389	-0.000098
C12	C	1.114484	0.125920	-0.000088
C13	C	1.034024	0.201188	-0.000117
C14	C	0.903034	0.198863	-0.000142
C15	C	0.932975	0.045995	-0.000116
C16	C	1.063963	0.048321	-0.000080
C17	C	1.016737	0.289446	-0.000139
C18	C	0.885746	0.287121	-0.000164
C19	C	1.492650	-0.029921	-0.000099
C20	C	1.490165	-0.123182	-0.000098
C21	C	1.364720	-0.338765	-0.000111
C22	C	1.422971	-0.399443	0.119995
C23	C	1.485668	-0.293934	-0.000109
C24	C	1.423002	-0.399430	-0.120175
C25	C	1.481317	-0.458872	-0.000126
C26	C	1.543953	-0.353384	0.120095
C27	C	1.543967	-0.353364	-0.120182
C28	C	1.602306	-0.414024	-0.000048
C29	C	1.488172	-0.198917	-0.000098
C30	C	1.478822	-0.553887	-0.000127
C31	C	1.713094	0.118800	-0.000130
C32	C	1.852505	0.121269	-0.000149
C33	C	1.474339	0.277110	-0.000128
C34	C	1.476824	0.370371	-0.000139
N35	N	1.483500	0.123599	0.346552
N36	N	1.483499	0.123583	-0.346777
C37	C	1.568892	0.067012	0.423205
C38	C	1.568889	0.067002	0.576542
C39	C	1.398098	0.180173	0.576560
C40	C	1.398096	0.180178	0.423226
C41	C	1.667501	0.001676	0.423195
C42	C	1.667498	0.001666	0.576532
H43	H	1.129470	-0.012970	-0.000035
O44	O	1.722195	-0.452859	0.000278
C45	C	1.921353	-0.473384	0.127152
C46	C	1.785607	-0.429364	0.126974
H47	H	1.972669	-0.454391	0.229559
H48	H	1.918668	-0.544672	0.126276
H49	H	1.973247	-0.453630	0.025678
H50	H	1.733634	-0.449049	0.228431
H51	H	1.788383	-0.358084	0.127774
O52	O	0.883956	-0.029402	0.000141
C53	C	0.869504	-0.160789	0.126303
C54	C	0.925072	-0.075422	0.126216
H55	H	0.902745	-0.198028	0.228208
H56	H	0.762057	-0.149575	0.126371
H57	H	0.902643	-0.197990	0.024321
H58	H	0.892029	-0.038177	0.228181
H59	H	1.032513	-0.086696	0.126072
H60	H	1.045620	0.323965	0.101809
H61	H	1.646893	-0.062886	0.381583
H62	H	1.328563	0.226238	0.639004
H63	H	1.595065	-0.333096	0.221746
O64	O	1.604762	-0.329014	-0.241476
C65	C	1.609783	-0.324648	-0.505204
C66	C	1.540807	-0.352257	-0.367947
H67	H	1.558119	-0.343445	-0.607491
H68	H	1.611847	-0.253312	-0.503554
H69	H	1.710517	-0.356803	-0.506174
H70	H	1.440045	-0.320162	-0.366889
H71	H	1.538846	-0.423601	-0.369652
O72	O	1.776065	0.026059	0.366677
C73	C	1.979997	0.071994	0.417549
C74	C	1.857127	0.044373	0.481752
H75	H	2.045558	0.086826	0.510555
H76	H	2.028375	0.018998	0.347319
H77	H	1.956975	0.130669	0.347223
H78	H	1.880040	-0.014283	0.552143
H79	H	1.808783	0.097419	0.551898
H80	H	1.052030	0.317547	-0.105314
O81	O	1.361788	-0.423635	-0.241268
C82	C	1.167331	-0.412531	-0.378024
C83	C	1.236523	-0.385041	-0.240853
H84	H	1.066034	-0.381354	-0.377719
H85	H	1.217816	-0.392650	-0.480433
H86	H	1.166904	-0.483999	-0.377420
H87	H	1.236970	-0.313577	-0.241316
H88	H	1.186015	-0.404984	-0.138506
H89	H	1.328553	0.226248	0.360817
O90	O	1.245037	-0.299584	-0.000042
C91	C	1.113265	-0.167197	-0.001093
C92	C	1.248864	-0.211460	-0.001212
H93	H	1.116314	-0.095942	-0.002008
H94	H	1.061158	-0.186844	-0.102476
H95	H	1.061929	-0.186045	0.101408
H96	H	1.300306	-0.192635	-0.103645
H97	H	1.300876	-0.191812	0.100239
H98	H	1.637774	-0.059344	0.624087
H99	H	0.839729	0.313795	0.105001
O100	O	0.835648	0.326787	-0.121898
C101	C	0.875952	0.401497	-0.343572
C102	C	0.932856	0.356581	-0.205799
H103	H	0.954514	0.425613	-0.411428
H104	H	0.825592	0.355302	-0.411659
H105	H	0.805595	0.456883	-0.309561
H106	H	1.003264	0.301198	-0.239678
H107	H	0.983138	0.402830	-0.137745
O108	O	1.782454	0.018686	0.626261
C109	C	1.966376	-0.029913	0.768377
C110	C	1.836232	-0.049303	0.712127
H111	H	2.009882	-0.084862	0.837836
H112	H	2.030686	-0.020349	0.671327
H113	H	1.954865	0.029865	0.837696
H114	H	1.847623	-0.109089	0.642832
H115	H	1.771968	-0.058814	0.809242
O116	O	1.361827	-0.423882	0.240983
C117	C	1.187877	-0.492774	0.335140
C118	C	1.257028	-0.465168	0.198008
H119	H	1.103117	-0.526144	0.300444
H120	H	1.254960	-0.537644	0.403012
H121	H	1.154313	-0.434908	0.403498
H122	H	1.290597	-0.522984	0.129537
H123	H	1.189899	-0.420269	0.130246
