data_functionalizedCrystal
_audit_creation_method	'MofGen! by Chris Wilmer'
_symmetry_space_group_name_H-M	'P1'
_symmetry_Int_Tables_number	1
_symmetry_cell_setting	triclinic
loop_
_symmetry_equiv_pos_as_xyz
  x,y,z
_cell_length_a	14.519709
_cell_length_b	23.532407
_cell_length_c	13.596369
_cell_angle_alpha	89.989360
_cell_angle_beta	90.000291
_cell_angle_gamma	83.264412
loop_
_atom_site_label
_atom_site_type_symbol
_atom_site_fract_x
_atom_site_fract_y
_atom_site_fract_z
O1	O	1.222985	0.074654	-0.081674
O2	O	1.722985	0.574654	0.418326
O3	O	0.954404	0.083445	-0.081705
O4	O	1.454404	0.583445	0.418295
O5	O	1.096794	-0.003846	-0.081671
O6	O	1.596794	0.496154	0.418329
O7	O	1.080596	0.161945	-0.081708
O8	O	1.580596	0.661945	0.418292
O9	O	1.096780	-0.003850	0.081912
O10	O	1.596780	0.496150	0.581912
O11	O	0.954390	0.083441	0.081878
O12	O	1.454390	0.583441	0.581878
O13	O	1.222971	0.074649	0.081909
O14	O	1.722971	0.574649	0.581909
Zn15	Zn	1.088678	0.079044	0.107866
Zn16	Zn	1.588678	0.579044	0.607866
Zn17	Zn	1.088697	0.079050	-0.107662
Zn18	Zn	1.588697	0.579050	0.392338
O19	O	1.080582	0.161940	0.081874
O20	O	1.580582	0.661940	0.581874
C21	C	0.920042	0.083033	0.000083
C22	C	1.420042	0.583033	0.500083
C23	C	0.817676	0.081805	0.000071
C24	C	1.317676	0.581805	0.500071
C25	C	0.442833	0.077286	0.000117
C26	C	0.942833	0.577286	0.500117
C27	C	0.547126	0.078541	0.000104
C28	C	1.047126	0.578541	0.500104
C29	C	0.630251	0.079545	0.000093
C30	C	1.130251	0.579545	0.500093
C31	C	0.734551	0.080801	0.000082
C32	C	1.234551	0.580801	0.500082
C33	C	1.096374	-0.025066	0.000123
C34	C	1.596374	0.474934	0.500123
C35	C	1.095134	-0.088288	0.000131
C36	C	1.595134	0.411712	0.500131
C37	C	1.171619	-0.487046	0.000086
C38	C	1.671619	0.012954	0.500086
C39	C	1.170467	-0.546452	0.000078
C40	C	1.670467	-0.046452	0.500078
O41	O	1.241369	-0.582876	0.000050
O42	O	1.741369	-0.082876	0.500050
N43	N	1.085816	-0.569460	0.000069
N44	N	1.585816	-0.069460	0.500069
C45	C	1.002312	-0.533059	0.000057
C46	C	1.502312	-0.033059	0.500057
O47	O	0.930205	-0.558084	0.000048
O48	O	1.430205	-0.058084	0.500048
C49	C	1.003465	-0.473655	0.000058
C50	C	1.503465	0.026345	0.500058
C51	C	1.088121	-0.450650	0.000077
C52	C	1.588121	0.049350	0.500077
C53	C	1.256268	-0.464041	0.000104
C54	C	1.756268	0.035959	0.500104
C55	C	1.257420	-0.404640	0.000113
C56	C	1.757420	0.095360	0.500113
C57	C	1.173922	-0.368244	0.000105
C58	C	1.673922	0.131756	0.500105
C59	C	1.089273	-0.391249	0.000087
C60	C	1.589273	0.108751	0.500087
C61	C	0.919962	-0.437255	0.000039
C62	C	1.419962	0.062745	0.500039
C63	C	0.921123	-0.377847	0.000039
C64	C	1.421123	0.122153	0.500039
C65	C	1.005779	-0.354843	0.000058
C66	C	1.505779	0.145157	0.500058
C67	C	1.006927	-0.295451	0.000087
C68	C	1.506927	0.204549	0.500087
N69	N	1.091578	-0.272443	0.000097
N70	N	1.591578	0.227557	0.500097
C71	C	1.175075	-0.308839	0.000105
C72	C	1.675075	0.191161	0.500105
C73	C	0.999897	-0.657813	0.000055
C74	C	1.499897	-0.157813	0.500055
C75	C	0.998743	-0.717216	0.000061
C76	C	1.498743	-0.217216	0.500061
C77	C	1.166898	-0.730604	0.000080
C78	C	1.666898	-0.230604	0.500080
C79	C	1.168051	-0.671200	0.000080
C80	C	1.668051	-0.171200	0.500080
C81	C	1.084548	-0.634804	0.000064
C82	C	1.584548	-0.134804	0.500064
C83	C	1.177487	-0.184092	0.000126
C84	C	1.677487	0.315908	0.500126
C85	C	1.178632	-0.124685	0.000139
C86	C	1.678632	0.375315	0.500139
C87	C	1.010477	-0.111301	0.000115
C88	C	1.510477	0.388699	0.500115
C89	C	1.009332	-0.170703	0.000107
C90	C	1.509332	0.329297	0.500107
C91	C	1.092845	-0.207098	0.000109
C92	C	1.592845	0.292902	0.500109
O93	O	0.936062	-0.258992	0.000111
O94	O	1.436062	0.241008	0.500111
O95	O	1.247171	-0.283806	0.000102
O96	O	1.747171	0.216194	0.500102
C97	C	1.257333	0.075061	0.000119
C98	C	1.757333	0.575061	0.500119
C99	C	1.359700	0.076289	0.000124
C100	C	1.859700	0.576289	0.500124
C101	C	1.081001	0.183160	0.000078
C102	C	1.581001	0.683160	0.500078
C103	C	1.082241	0.246383	0.000064
C104	C	1.582241	0.746383	0.500064
N105	N	1.088673	0.079040	0.254958
N106	N	1.588673	0.579040	0.754958
N107	N	1.088710	0.079050	-0.254754
N108	N	1.588710	0.579050	0.245246
C109	C	1.088696	0.079051	0.656248
C110	C	1.588696	0.579051	1.156248
C111	C	1.088686	0.079050	0.544597
C112	C	1.588686	0.579050	1.044597
C113	C	1.088685	0.079046	0.455607
C114	C	1.588685	0.579046	0.955607
C115	C	1.088674	0.079044	0.343948
C116	C	1.588674	0.579044	0.843948
H117	H	1.247572	-0.105958	0.000158
H118	H	1.747572	0.394042	0.500158
H119	H	0.940399	-0.189434	0.000119
H120	H	1.440399	0.310566	0.500119
C121	C	1.258748	-0.770649	0.000079
C122	C	1.758748	-0.270649	0.500079
C123	C	1.328273	-0.767998	-0.084860
C124	C	1.828273	-0.267998	0.415140
C125	C	1.420116	-0.808044	-0.084861
C126	C	1.920116	-0.308044	0.415139
C127	C	1.442435	-0.850740	0.000077
C128	C	1.942435	-0.350740	0.500077
C129	C	1.372909	-0.853392	0.085023
C130	C	1.872909	-0.353392	0.585023
C131	C	1.281065	-0.813346	0.085023
C132	C	1.781065	-0.313346	0.585023
H133	H	1.311752	-0.736390	-0.147742
H134	H	1.811752	-0.236390	0.352258
H135	H	1.471584	-0.806080	-0.147744
H136	H	1.971584	-0.306080	0.352256
H137	H	1.510423	-0.880384	0.000077
H138	H	2.010423	-0.380384	0.500077
H139	H	1.389429	-0.885000	0.147905
H140	H	1.889429	-0.385000	0.647905
H141	H	1.229598	-0.815310	0.147906
H142	H	1.729598	-0.315310	0.647906
H143	H	1.245491	-0.213718	0.000124
H144	H	1.745491	0.286282	0.500124
C145	C	0.905619	-0.742516	0.000052
C146	C	1.405619	-0.242516	0.500052
C147	C	0.836410	-0.728829	0.084988
C148	C	1.336410	-0.228829	0.584988
C149	C	0.743283	-0.754126	0.084973
C150	C	1.243283	-0.254126	0.584973
C151	C	0.719364	-0.793109	0.000022
C152	C	1.219364	-0.293109	0.500022
C153	C	0.788575	-0.806797	-0.084921
C154	C	1.288575	-0.306797	0.415079
C155	C	0.881702	-0.781501	-0.084906
C156	C	1.381702	-0.281501	0.415094
H157	H	0.854115	-0.699970	0.147880
H158	H	1.354115	-0.199970	0.647880
H159	H	0.692049	-0.743993	0.147854
H160	H	1.192049	-0.243993	0.647854
H161	H	0.650426	-0.811835	0.000010
H162	H	1.150426	-0.311835	0.500010
H163	H	0.770870	-0.835657	-0.147813
H164	H	1.270870	-0.335657	0.352187
H165	H	0.932936	-0.791634	-0.147786
H166	H	1.432936	-0.291634	0.352214
H167	H	0.942496	-0.081657	0.000112
H168	H	1.442496	0.418343	0.500112
H169	H	1.326355	-0.385915	0.000125
H170	H	1.826355	0.114085	0.500125
H171	H	0.931894	-0.628182	0.000049
H172	H	1.431894	-0.128182	0.500049
H173	H	0.851027	-0.455975	0.000018
H174	H	1.351027	0.044025	0.500018
H175	H	0.853122	-0.348216	0.000024
H176	H	1.353122	0.151784	0.500024
H177	H	1.236985	-0.652474	0.000095
H178	H	1.736985	-0.152474	0.500095
C179	C	1.348126	-0.504071	0.000119
C180	C	1.848126	-0.004071	0.500119
C181	C	1.417627	-0.501423	0.085079
C182	C	1.917627	-0.001423	0.585079
C183	C	1.509492	-0.541448	0.085103
C184	C	2.009492	-0.041448	0.585103
C185	C	1.531857	-0.584120	0.000167
C186	C	2.031857	-0.084120	0.500167
C187	C	1.462354	-0.586769	-0.084800
C188	C	1.962354	-0.086769	0.415200
C189	C	1.370488	-0.546744	-0.084824
C190	C	1.870488	-0.046744	0.415176
H191	H	1.401073	-0.469833	0.147960
H192	H	1.901073	0.030167	0.647960
H193	H	1.560943	-0.539486	0.148002
H194	H	2.060943	-0.039486	0.648002
H195	H	1.599861	-0.613748	0.000184
H196	H	2.099861	-0.113748	0.500184
H197	H	1.478907	-0.618359	-0.147681
H198	H	1.978907	-0.118359	0.352319
H199	H	1.319038	-0.548706	-0.147723
H200	H	1.819038	-0.048706	0.352277
