data_functionalizedCrystal
_audit_creation_method	'MofGen! by Chris Wilmer'
_symmetry_space_group_name_H-M	'P1'
_symmetry_Int_Tables_number	1
_symmetry_cell_setting	triclinic
loop_
_symmetry_equiv_pos_as_xyz
  x,y,z
_cell_length_a	12.827892
_cell_length_b	29.839134
_cell_length_c	12.827885
_cell_angle_alpha	90.035240
_cell_angle_beta	89.970024
_cell_angle_gamma	89.992241
loop_
_atom_site_label
_atom_site_type_symbol
_atom_site_fract_x
_atom_site_fract_y
_atom_site_fract_z
Zn1	Zn	-0.416195	-0.686842	-0.591287
Zn2	Zn	0.083805	-0.186842	-0.091287
Zn3	Zn	-0.590972	-0.686796	-0.416547
Zn4	Zn	-0.090972	-0.186796	0.083453
Zn5	Zn	-0.416223	-0.611712	-0.416513
Zn6	Zn	0.083777	-0.111712	0.083487
Zn7	Zn	-0.590871	-0.611706	-0.591199
Zn8	Zn	-0.090871	-0.111706	-0.091199
O9	O	-0.503565	-0.649264	-0.503886
O10	O	-0.003565	-0.149264	-0.003886
O11	O	-0.439410	-0.749703	-0.568159
O12	O	0.060590	-0.249703	-0.068159
O13	O	-0.567845	-0.676819	-0.270306
O14	O	-0.067845	-0.176819	0.229694
O15	O	-0.269983	-0.621700	-0.439720
O16	O	0.230017	-0.121700	0.060280
O17	O	-0.567818	-0.749669	-0.439778
O18	O	-0.067818	-0.249669	0.060222
O19	O	-0.269963	-0.676897	-0.568126
O20	O	0.230037	-0.176897	-0.068126
O21	O	-0.439457	-0.621656	-0.270281
O22	O	0.060543	-0.121656	0.229719
O23	O	-0.439360	-0.548845	-0.439634
O24	O	0.060640	-0.048845	0.060366
O25	O	-0.567646	-0.621690	-0.737447
O26	O	-0.067646	-0.121690	-0.237447
O27	O	-0.567673	-0.548840	-0.567975
O28	O	-0.067673	-0.048840	-0.067975
O29	O	-0.439312	-0.676891	-0.737512
O30	O	0.060688	-0.176891	-0.237512
O31	O	-0.737195	-0.676813	-0.439692
O32	O	-0.237195	-0.176813	0.060308
O33	O	-0.737121	-0.621645	-0.568008
O34	O	-0.237121	-0.121645	-0.068008
C35	C	-0.503509	-0.532542	-0.503792
C36	C	-0.003509	-0.032542	-0.003792
C37	C	-0.503510	-0.482607	-0.503776
C38	C	-0.003510	0.017393	-0.003776
C39	C	-0.436646	-0.126010	-0.437159
C40	C	0.063354	0.373990	0.062841
C41	C	-0.436619	-0.313683	-0.437109
C42	C	0.063381	0.186317	0.062891
O43	O	-0.379685	-0.337939	-0.380394
O44	O	0.120315	0.162061	0.119606
N45	N	-0.503525	-0.337162	-0.503818
N46	N	-0.003525	0.162838	-0.003818
C47	C	-0.570438	-0.313720	-0.570550
C48	C	-0.070438	0.186280	-0.070550
O49	O	-0.627337	-0.337997	-0.627298
O50	O	-0.127337	0.162003	-0.127298
C51	C	-0.570458	-0.126048	-0.570605
C52	C	-0.070458	0.373952	-0.070605
C53	C	-0.503555	-0.102571	-0.503883
C54	C	-0.003555	0.397429	-0.003883
C55	C	-0.369747	-0.102533	-0.370443
C56	C	0.130253	0.397467	0.129557
C57	C	-0.369759	-0.055618	-0.370453
C58	C	0.130241	0.444382	0.129547
C59	C	-0.436668	-0.032179	-0.437177
C60	C	0.063332	0.467821	0.062823
C61	C	-0.503567	-0.055656	-0.503893
C62	C	-0.003567	0.444344	-0.003893
C63	C	-0.637365	-0.102607	-0.637342
C64	C	-0.137365	0.397393	-0.137342
C65	C	-0.637362	-0.055686	-0.637351
C66	C	-0.137362	0.444314	-0.137351
C67	C	-0.570459	-0.032209	-0.570629
C68	C	-0.070459	0.467791	-0.070629
C69	C	-0.570488	0.014699	-0.570626
C70	C	-0.070488	0.514699	-0.070626
N71	N	-0.503582	0.038178	-0.503917
N72	N	-0.003582	0.538178	-0.003917
C73	C	-0.436672	0.014739	-0.437192
C74	C	0.063328	0.514739	0.062808
C75	C	-0.570424	-0.412251	-0.570515
C76	C	-0.070424	0.087749	-0.070515
C77	C	-0.570420	-0.459168	-0.570501
C78	C	-0.070420	0.040832	-0.070501
C79	C	-0.436600	-0.459128	-0.437060
C80	C	0.063400	0.040872	0.062940
C81	C	-0.436609	-0.412209	-0.437070
C82	C	0.063391	0.087791	0.062930
C83	C	-0.503518	-0.388771	-0.503806
C84	C	-0.003518	0.111229	-0.003806
C85	C	-0.436701	0.113265	-0.437216
C86	C	0.063299	0.613265	0.062784
C87	C	-0.436722	0.160184	-0.437228
C88	C	0.063278	0.660184	0.062772
C89	C	-0.570538	0.160140	-0.570672
C90	C	-0.070538	0.660140	-0.070672
C91	C	-0.570522	0.113224	-0.570656
C92	C	-0.070522	0.613224	-0.070656
C93	C	-0.503595	0.089788	-0.503925
C94	C	-0.003595	0.589788	-0.003925
O95	O	-0.627384	0.038983	-0.627320
O96	O	-0.127384	0.538983	-0.127320
O97	O	-0.379765	0.039024	-0.380470
O98	O	0.120235	0.539024	0.119530
C99	C	-0.436634	-0.172925	-0.437150
C100	C	0.063366	0.327075	0.062850
C101	C	-0.503533	-0.196402	-0.503865
C102	C	-0.003533	0.303598	-0.003865
C103	C	-0.570442	-0.172963	-0.570590
C104	C	-0.070442	0.327037	-0.070590
C105	C	-0.503529	-0.243320	-0.503850
C106	C	-0.003529	0.256680	-0.003850
C107	C	-0.436619	-0.266759	-0.437126
C108	C	0.063381	0.233241	0.062874
C109	C	-0.369713	-0.243279	-0.370416
C110	C	0.130287	0.256721	0.129584
C111	C	-0.369725	-0.196364	-0.370425
C112	C	0.130275	0.303636	0.129575
C113	C	-0.637348	-0.196442	-0.637299
C114	C	-0.137348	0.303558	-0.137299
C115	C	-0.637333	-0.243358	-0.637284
C116	C	-0.137333	0.256642	-0.137284
C117	C	-0.570423	-0.266797	-0.570559
C118	C	-0.070423	0.233203	-0.070559
C119	C	-0.775075	-0.649236	-0.503867
C120	C	-0.275075	-0.149236	-0.003867
C121	C	-0.891228	-0.649265	-0.503894
C122	C	-0.391228	-0.149265	-0.003894
C123	C	-0.942920	-0.676566	-0.567490
C124	C	-0.442920	-0.176566	-0.067490
C125	C	-1.062970	-0.676597	-0.567519
C126	C	-0.562970	-0.176597	-0.067519
C127	C	-0.230995	-0.649305	-0.503929
C128	C	0.269005	-0.149305	-0.003929
C129	C	-0.114842	-0.649322	-0.503947
C130	C	0.385158	-0.149322	-0.003947
C131	C	-0.503465	-0.649295	-0.776457
C132	C	-0.003465	-0.149295	-0.276457
C133	C	-0.503422	-0.649308	-0.892610
C134	C	-0.003422	-0.149308	-0.392610
C135	C	-0.503619	0.233558	-0.503964
C136	C	-0.003619	0.733558	-0.003964
C137	C	-0.503632	0.183623	-0.503952
C138	C	-0.003632	0.683623	-0.003952
C139	C	-0.439880	-0.622020	-0.944382
C140	C	0.060120	-0.122020	-0.444382
C141	C	-0.439834	-0.622033	-1.064433
C142	C	0.060166	-0.122033	-0.564433
C143	C	-0.503590	-0.649259	-0.232376
C144	C	-0.003590	-0.149259	0.267624
C145	C	-0.503338	-0.649333	-0.116224
C146	C	-0.003338	-0.149333	0.383776
H147	H	-0.625008	0.094109	-0.624979
H148	H	-0.125008	0.594109	-0.124979
Br149	Br	-0.661239	-0.491024	-0.661037
Br150	Br	-0.161239	0.008976	-0.161037
Br151	Br	-0.965590	-0.610339	-0.413184
Br152	Br	-0.465590	-0.110339	0.086816
Br153	Br	-0.278925	-0.134334	-0.279880
Br154	Br	0.221075	0.365666	0.220120
Br155	Br	-0.349244	-0.583069	-0.870136
Br156	Br	0.150756	-0.083069	-0.370136
Br157	Br	-0.728168	-0.134456	-0.727898
Br158	Br	-0.228168	0.365544	-0.227898
H159	H	-0.624913	-0.393172	-0.624861
H160	H	-0.124913	0.106828	-0.124861
H161	H	-0.557738	-0.672698	-1.071708
H162	H	-0.057738	-0.172698	-0.571708
H163	H	-0.557791	-0.672680	-0.937163
H164	H	-0.057791	-0.172680	-0.437163
H165	H	-0.382240	0.179297	-0.382892
H166	H	0.117760	0.679297	0.117108
Br167	Br	-0.349147	-0.583096	-1.138633
Br168	Br	0.150853	-0.083096	-0.638633
H169	H	-0.382199	0.094188	-0.382882
H170	H	0.117801	0.594188	0.117118
H171	H	-0.898300	-0.699916	-0.621921
H172	H	-0.398300	-0.199916	-0.121921
H173	H	-0.315279	-0.036507	-0.316121
H174	H	0.184721	0.463493	0.183879
Br175	Br	-0.345810	-0.380353	-0.346516
Br176	Br	0.154190	0.119647	0.153484
H177	H	-0.382120	-0.478220	-0.382729
H178	H	0.117880	0.021780	0.117271
Br179	Br	-0.728167	-0.023880	-0.727931
Br180	Br	-0.228167	0.476120	-0.227931
H181	H	-0.315244	-0.177253	-0.316094
H182	H	0.184756	0.322747	0.183906
Br183	Br	-0.278913	-0.275098	-0.279857
Br184	Br	0.221087	0.224902	0.220143
Br185	Br	-0.728146	-0.275213	-0.727837
Br186	Br	-0.228146	0.224787	-0.227837
Br187	Br	-0.661356	0.191959	-0.661206
Br188	Br	-0.161356	0.691959	-0.161206
H189	H	-1.107424	-0.699972	-0.621963
H190	H	-0.607424	-0.199972	-0.121963
H191	H	-0.691835	-0.177363	-0.691637
H192	H	-0.191835	0.322637	-0.191637
H193	H	-1.070396	-0.625949	-0.449492
H194	H	-0.570396	-0.125949	0.050508
