data_functionalizedCrystal
_audit_creation_method	'MofGen! by Chris Wilmer'
_symmetry_space_group_name_H-M	'P1'
_symmetry_Int_Tables_number	1
_symmetry_cell_setting	triclinic
loop_
_symmetry_equiv_pos_as_xyz
  x,y,z
_cell_length_a	14.908571
_cell_length_b	16.959453
_cell_length_c	14.908308
_cell_angle_alpha	86.734637
_cell_angle_beta	89.824947
_cell_angle_gamma	86.716085
loop_
_atom_site_label
_atom_site_type_symbol
_atom_site_fract_x
_atom_site_fract_y
_atom_site_fract_z
Zn1	Zn	1.345300	-0.412495	0.587567
Zn2	Zn	1.353882	-0.537519	0.437203
Zn3	Zn	1.203615	-0.397313	0.428566
Zn4	Zn	1.194909	-0.536580	0.578855
O5	O	1.274426	-0.470976	0.508048
O6	O	1.472264	-0.435826	0.574882
O7	O	1.341183	-0.512959	0.310233
O8	O	1.222462	-0.288720	0.449689
O9	O	1.478569	-0.527681	0.464410
O10	O	1.326557	-0.299874	0.566507
O11	O	1.230783	-0.409951	0.303887
O12	O	1.076634	-0.409040	0.441241
O13	O	1.207624	-0.526080	0.705835
O14	O	1.070238	-0.511359	0.551658
O15	O	1.318115	-0.434916	0.712236
O16	O	1.332742	-0.648001	0.455962
O17	O	1.215945	-0.647311	0.560033
C18	C	1.040811	-0.458451	0.494567
C19	C	0.940868	-0.453112	0.488821
C20	C	0.746461	-0.549774	0.592847
C21	C	0.652556	-0.544761	0.587451
C22	C	0.659149	-0.438068	0.472640
C23	C	0.753055	-0.443082	0.478035
C24	C	0.796707	-0.498938	0.538140
C25	C	0.890615	-0.503954	0.543530
C26	C	0.897206	-0.397258	0.428724
C27	C	0.803301	-0.392245	0.423328
C28	C	1.274353	-0.676337	0.508010
C29	C	1.274403	-0.764197	0.508029
C30	C	1.328696	-1.141433	0.568987
C31	C	1.220400	-1.129936	0.447256
C32	C	1.220368	-1.047387	0.447233
C33	C	1.274500	-1.011858	0.508090
C34	C	1.328664	-1.058877	0.568969
C35	C	1.166198	-1.000362	0.386362
C36	C	1.166163	-0.917808	0.386337
C37	C	1.220300	-0.882277	0.447190
C38	C	1.274467	-0.929302	0.508071
C39	C	1.328599	-0.893773	0.568927
C40	C	1.382771	-0.940796	0.629804
C41	C	1.382801	-1.023347	0.629821
C42	C	1.220271	-0.799727	0.447173
C43	C	1.328567	-0.811216	0.568908
C44	C	1.508954	-0.483552	0.521582
C45	C	1.608896	-0.488911	0.527349
C46	C	1.260941	-0.482087	0.742573
C47	C	1.255195	-0.486821	0.842513
C48	C	1.274523	-0.264816	0.508106
C49	C	1.274564	-0.176963	0.508131
C50	C	1.287911	-0.459855	0.274438
C51	C	1.293831	-0.454907	0.174508
C52	C	1.359449	-0.400770	1.036979
C53	C	1.354052	-0.405216	1.130882
C54	C	1.239001	-0.500154	1.124224
C55	C	1.244398	-0.495708	1.030321
C56	C	1.304625	-0.446015	0.986702
C57	C	1.310025	-0.441574	0.892797
C58	C	1.194970	-0.536508	0.886141
C59	C	1.189574	-0.540954	0.980044
H60	H	0.926156	-0.549436	0.592469
C61	C	1.113347	-1.110282	0.326931
C62	C	1.160896	-1.168987	0.380368
H63	H	1.076606	-1.134394	0.285640
H64	H	1.154515	-1.078548	0.294823
H65	H	1.076660	-1.078097	0.364092
H66	H	1.197587	-1.201168	0.343208
H67	H	1.119723	-1.200733	0.412479
H68	H	1.398693	-0.368370	1.171814
H69	H	1.372651	-0.782294	0.618462
H70	H	1.150331	-0.573353	0.845195
H71	H	0.623590	-0.392589	0.423711
H72	H	0.767745	-0.346767	0.374395
H73	H	1.408492	-0.360312	1.001464
C74	C	1.179628	-0.549097	1.265219
C75	C	1.172791	-0.554760	1.172181
H76	H	1.138751	-0.582809	1.294823
H77	H	1.165617	-0.496014	1.279844
H78	H	1.239152	-0.564640	1.284088
H79	H	1.113268	-0.539211	1.153311
H80	H	1.186795	-0.607854	1.157549
C81	C	1.009731	-0.386025	0.313860
C82	C	0.952439	-0.341373	0.368584
H83	H	1.043832	-0.351525	0.276736
H84	H	0.975060	-0.416822	0.277299
H85	H	1.049168	-0.420002	0.350435
H86	H	0.912997	-0.307400	0.332009
H87	H	0.987113	-0.310563	0.405148
H88	H	1.140537	-0.581411	1.015571
C89	C	1.113215	-0.796658	0.326862
C90	C	1.160727	-0.748040	0.380268
H91	H	1.076457	-0.764747	0.285553
H92	H	1.076558	-0.828873	0.364035
H93	H	1.154412	-0.829317	0.294766
H94	H	1.119529	-0.715384	0.412368
H95	H	1.197387	-0.715811	0.343089
H96	H	1.359066	-0.401113	0.857284
H97	H	1.426842	-0.911858	0.679358
H98	H	1.426904	-1.061640	0.679385
H99	H	1.122124	-1.029296	0.336818
C100	C	0.730516	-0.654734	0.705789
C101	C	0.794451	-0.611169	0.658910
H102	H	0.760144	-0.692633	0.746578
H103	H	0.696133	-0.681102	0.664448
H104	H	0.691920	-0.620012	0.738146
H105	H	0.833043	-0.645890	0.626548
H106	H	0.828849	-0.584800	0.700257
H107	H	1.372805	-1.179723	0.618550
H108	H	0.611648	-0.586156	0.632001
H109	H	1.122054	-0.879527	0.336767
