data_functionalizedCrystal
_audit_creation_method	'MofGen! by Chris Wilmer'
_symmetry_space_group_name_H-M	'P1'
_symmetry_Int_Tables_number	1
_symmetry_cell_setting	triclinic
loop_
_symmetry_equiv_pos_as_xyz
  x,y,z
_cell_length_a	27.732048
_cell_length_b	16.109298
_cell_length_c	15.186229
_cell_angle_alpha	90.001652
_cell_angle_beta	90.002148
_cell_angle_gamma	83.051421
loop_
_atom_site_label
_atom_site_type_symbol
_atom_site_fract_x
_atom_site_fract_y
_atom_site_fract_z
O1	O	0.641340	0.098925	-0.073106
O2	O	0.500609	0.113967	-0.073131
O3	O	0.574841	-0.014633	-0.073124
O4	O	0.567108	0.227525	-0.073113
O5	O	0.574836	-0.014634	0.073334
O6	O	0.500604	0.113965	0.073327
O7	O	0.641335	0.098924	0.073352
Zn8	Zn	0.570969	0.106444	0.096592
Zn9	Zn	0.570975	0.106447	-0.096371
O10	O	0.567103	0.227524	0.073345
C11	C	0.482598	0.113651	0.000095
C12	C	0.428940	0.112700	0.000084
C13	C	0.574526	-0.045605	0.000101
C14	C	0.573587	-0.137888	0.000091
C15	C	0.570528	-0.436918	-0.079725
C16	C	0.571416	-0.350210	-0.079731
C17	C	0.571418	-0.350197	0.079945
C18	C	0.570533	-0.436905	0.079950
C19	C	0.570085	-0.480263	0.000112
C20	C	0.571859	-0.306846	0.000101
C21	C	0.572822	-0.212832	0.000095
C22	C	0.569123	-0.574283	0.000118
C23	C	0.090417	0.182708	0.000126
C24	C	-0.111257	0.179181	0.000134
O25	O	-0.142245	0.243199	0.000175
N26	N	-0.130700	0.102926	0.000128
C27	C	-0.099720	0.027548	0.000127
O28	O	-0.120884	-0.037392	0.000132
C29	C	0.101953	0.031077	0.000126
C30	C	0.121393	0.107336	0.000122
C31	C	0.109857	0.258962	0.000123
C32	C	0.160273	0.259843	0.000116
C33	C	0.191248	0.184471	0.000112
C34	C	0.171808	0.108217	0.000115
C35	C	0.132932	-0.044300	0.000131
C36	C	0.183353	-0.043411	0.000133
C37	C	0.202793	0.032848	0.000129
C38	C	0.253200	0.033726	0.000105
N39	N	0.272642	0.109981	0.000110
C40	C	0.241666	0.185353	0.000114
C41	C	-0.205602	0.025701	0.000126
C42	C	-0.256020	0.024819	0.000125
C43	C	-0.267554	0.176452	0.000133
C44	C	-0.217135	0.177333	0.000128
C45	C	-0.186159	0.101956	0.000131
C46	C	0.347543	0.187198	0.000099
C47	C	0.397964	0.188072	0.000088
C48	C	0.409493	0.036440	0.000085
C49	C	0.359077	0.035565	0.000091
C50	C	0.328103	0.110951	0.000101
O51	O	0.284216	-0.030257	0.000074
O52	O	0.262840	0.250284	0.000128
C53	C	0.040001	0.181827	0.000133
C54	C	0.020562	0.105574	0.000135
C55	C	0.051537	0.030202	0.000132
C56	C	-0.029857	0.104692	0.000134
C57	C	-0.060832	0.180064	0.000138
C58	C	-0.041390	0.256318	0.000143
C59	C	0.009026	0.257199	0.000136
C60	C	0.032095	-0.046052	0.000127
C61	C	-0.018321	-0.046927	0.000132
C62	C	-0.049297	0.028445	0.000136
C63	C	0.659346	0.099240	0.000125
C64	C	0.713004	0.100191	0.000129
C65	C	0.567418	0.258496	0.000118
C66	C	0.568357	0.350779	0.000122
N67	N	0.570968	0.106442	0.228285
N68	N	0.570980	0.106442	-0.228064
C69	C	0.603849	0.049517	0.454011
C70	C	0.603850	0.049515	0.546201
C71	C	0.538095	0.163370	0.546204
C72	C	0.538092	0.163367	0.454016
C73	C	0.570971	0.106442	0.407922
C74	C	0.570976	0.106442	0.592299
C75	C	0.570978	0.106441	0.692255
C76	C	0.570970	0.106442	0.307959
H77	H	0.570163	-0.472218	-0.144734
N78	N	0.502637	0.224765	0.595926
H79	H	0.521103	0.261359	0.634172
H80	H	0.481815	0.260769	0.552685
H81	H	0.571781	-0.314884	0.144945
H82	H	0.511317	0.209723	0.416487
N83	N	0.570060	-0.483664	0.166064
H84	H	0.570475	-0.443041	0.216640
H85	H	0.539747	-0.512515	0.169543
N86	N	0.571889	-0.303445	-0.165833
H87	H	0.601679	-0.325660	-0.200743
H88	H	0.541767	-0.311417	-0.200664
N89	N	0.418930	0.270326	0.000075
H90	H	0.391654	0.317938	0.000080
H91	H	0.439602	0.274000	0.054364
H92	H	-0.034144	-0.109031	0.000128
H93	H	0.024848	0.319298	0.000135
H94	H	0.630622	0.003161	0.583724
H95	H	0.343249	-0.026532	0.000081
H96	H	-0.066619	0.317689	0.000143
N97	N	0.639298	-0.011900	0.404297
H98	H	0.634307	-0.003269	0.338902
H99	H	0.673589	-0.002719	0.420402
H100	H	0.322329	0.248584	0.000110
H101	H	0.176095	0.321941	0.000113
H102	H	0.084641	0.320342	0.000129
H103	H	-0.292783	0.237823	0.000136
N104	N	-0.196170	0.259583	0.000121
H105	H	-0.223447	0.307192	0.000120
H106	H	-0.175502	0.263258	0.054415
N107	N	-0.276984	-0.057432	0.000113
H108	H	-0.249706	-0.105041	0.000113
H109	H	-0.297650	-0.061104	0.054407
H110	H	0.057311	-0.107431	0.000126
H111	H	0.117114	-0.106399	0.000135
H112	H	-0.180385	-0.035684	0.000129
H113	H	0.208571	-0.104794	0.000136
H114	H	0.434723	-0.024926	0.000079
