data_functionalizedCrystal
_audit_creation_method	'MofGen! by Chris Wilmer'
_symmetry_space_group_name_H-M	'P1'
_symmetry_Int_Tables_number	1
_symmetry_cell_setting	triclinic
loop_
_symmetry_equiv_pos_as_xyz
  x,y,z
_cell_length_a	34.490303
_cell_length_b	34.489386
_cell_length_c	34.485816
_cell_angle_alpha	60.004462
_cell_angle_beta	60.008900
_cell_angle_gamma	59.994399
loop_
_atom_site_label
_atom_site_type_symbol
_atom_site_fract_x
_atom_site_fract_y
_atom_site_fract_z
O1	O	0.053846	-0.566517	0.473678
O2	O	0.020329	-0.441078	0.381663
O3	O	0.099768	-0.520436	0.381578
O4	O	-0.025592	-0.487159	0.473762
O5	O	0.126127	-0.494082	0.407849
O6	O	0.046689	-0.414724	0.407933
O7	O	0.080206	-0.540163	0.499949
Zn8	Zn	0.067632	-0.473259	0.458112
Zn9	Zn	0.032903	-0.507982	0.423499
O10	O	0.000767	-0.460805	0.500033
N11	N	0.091336	-0.449565	0.481736
N12	N	0.009203	-0.531680	0.399875
C13	C	0.142510	-0.268211	0.532817
C14	C	0.142641	-0.398441	0.662987
C15	C	0.142524	-0.398421	0.532817
C16	C	0.272762	-0.398394	0.532723
C17	C	0.156853	-0.311177	0.547124
C18	C	0.156928	-0.384109	0.620020
C19	C	0.229794	-0.384081	0.547073
C20	C	0.156863	-0.384097	0.547124
C21	C	0.124253	-0.213522	0.514606
C22	C	0.124277	-0.416652	0.514606
C23	C	0.175110	-0.365866	0.565335
C24	C	0.352285	-0.384669	0.490824
C25	C	0.401998	-0.401229	0.474223
C26	C	0.402027	-0.481671	0.504898
C27	C	0.352316	-0.465109	0.521500
C28	C	0.136220	-0.188652	0.465734
C29	C	0.119621	-0.138936	0.449181
C30	C	0.079092	-0.138961	0.530374
C31	C	0.095691	-0.188678	0.546927
C32	C	0.075398	-0.404656	0.526651
C33	C	0.058814	-0.421229	0.510091
C34	C	0.139984	-0.461794	0.469452
C35	C	0.156570	-0.445221	0.486007
C36	C	0.075593	-0.404694	0.742565
C37	C	0.059066	-0.421281	0.792280
C38	C	0.140274	-0.461856	0.792215
C39	C	0.156800	-0.445269	0.742499
C40	C	0.124458	-0.416687	0.717675
C41	C	0.327446	-0.416608	0.514460
C42	C	-0.023585	-0.564792	0.161919
C43	C	-0.023910	-0.769260	0.366530
C44	C	-0.023880	-0.564780	0.366623
C45	C	-0.228325	-0.564561	0.366222
C46	C	-0.129610	-0.597564	0.333467
C47	C	-0.056729	-0.597644	0.333613
C48	C	-0.074925	-0.615849	0.315324
C49	C	-0.088689	-0.695351	0.357144
C50	C	-0.072155	-0.745068	0.373736
C51	C	0.008283	-0.745150	0.343188
C52	C	-0.008252	-0.695435	0.326596
C53	C	-0.154529	-0.609541	0.382326
C54	C	-0.204241	-0.592916	0.398818
C55	C	-0.204114	-0.552341	0.317588
C56	C	-0.154401	-0.568966	0.301096
C57	C	-0.068707	-0.548770	0.321590
C58	C	-0.052166	-0.532225	0.338221
C59	C	-0.011669	-0.613425	0.378886
C60	C	-0.028210	-0.629972	0.362261
C61	C	-0.068581	-0.548777	0.235758
C62	C	-0.051939	-0.532234	0.186043
C63	C	-0.011379	-0.613438	0.186090
C64	C	-0.028020	-0.629981	0.235806
C65	C	-0.056622	-0.597649	0.260639
C66	C	-0.056739	-0.670537	0.333576
C67	C	-0.005614	-0.545951	0.107238
C68	C	-0.006360	-0.823943	0.385033
C69	C	-0.005995	-0.545937	0.384582
C70	C	-0.283006	-0.545971	0.383725
N71	N	0.426163	-0.449489	0.481488
O72	O	0.588601	-0.457377	0.364497
O73	O	0.588789	-0.549696	0.489801
O74	O	0.588709	-0.549485	0.410335
O75	O	0.588681	-0.457588	0.443963
O76	O	0.509731	-0.523223	0.436741
O77	O	0.509811	-0.523434	0.516207
O78	O	0.509624	-0.431115	0.390903
Zn79	Zn	0.497178	-0.473105	0.457747
Zn80	Zn	0.601234	-0.507706	0.422956
O81	O	0.509704	-0.431326	0.470368
N82	N	0.672250	-0.531322	0.399211
N83	N	0.091303	-0.114798	0.481730
O84	O	-0.025603	0.047729	0.473733
O85	O	0.099703	0.047764	0.381394
O86	O	0.020199	0.047731	0.381655
O87	O	0.053901	0.047761	0.473472
O88	O	0.046564	-0.031252	0.407974
O89	O	0.126068	-0.031219	0.407713
O90	O	0.000762	-0.031254	0.500052
Zn91	Zn	0.067601	-0.043777	0.458061
Zn92	Zn	0.032864	0.060287	0.423385
O93	O	0.080266	-0.031222	0.499791
N94	N	0.009156	0.131307	0.399717
N95	N	0.091635	-0.449614	0.816396
O96	O	0.083664	-0.566502	0.978913
O97	O	-0.008637	-0.441152	0.978954
O98	O	-0.008421	-0.520640	0.978930
O99	O	0.083448	-0.487013	0.978936
O100	O	0.017877	-0.494296	0.899950
O101	O	0.017661	-0.414807	0.899974
O102	O	0.109961	-0.540157	0.899933
Zn103	Zn	0.067986	-0.473299	0.887414
Zn104	Zn	0.033338	-0.508010	0.991473
O105	O	0.109746	-0.460669	0.899956
N106	N	0.009689	-0.531700	1.062491
C107	C	0.030367	-0.412095	0.382120
C108	C	0.128741	-0.510370	0.382016
C109	C	0.070168	-0.569147	0.499490
C110	C	-0.028207	-0.470871	0.499595
C111	C	0.549323	-0.549278	0.518791
C112	C	0.549225	-0.549017	0.420381
C113	C	0.549087	-0.431532	0.361914
C114	C	0.549188	-0.431794	0.460322
C115	C	0.128638	0.008374	0.381806
C116	C	0.030215	0.008236	0.382161
C117	C	-0.028206	0.008233	0.499608
C118	C	0.070250	0.008272	0.499285
C119	C	-0.008199	-0.412187	0.939469
C120	C	-0.007927	-0.510619	0.939425
C121	C	0.109523	-0.569121	0.939417
C122	C	0.109257	-0.470684	0.939444
H123	H	0.049253	-0.381417	0.722357
H124	H	0.077330	-0.605181	0.528391
H125	H	-0.064213	-0.463781	0.528541
H126	H	0.166612	-0.485121	0.812425
O127	O	0.171657	-0.518832	0.347436
C128	C	0.165401	-0.513500	0.307431
H129	H	0.130613	-0.518726	0.318878
H130	H	0.196190	-0.541089	0.290483
H131	H	0.164342	-0.476376	0.280584
O132	O	-0.071173	0.008313	0.534149
C133	C	-0.106992	0.049206	0.517921
H134	H	-0.090823	0.077798	0.488338
H135	H	-0.135323	0.062941	0.548536
H136	H	-0.123794	0.039948	0.503768
O137	O	0.021877	-0.369088	0.347652
C138	C	0.054465	-0.347992	0.334839
H139	H	0.068371	-0.363717	0.365272
H140	H	0.035990	-0.308046	0.327087
H141	H	0.085384	-0.355154	0.301799
O142	O	0.143705	-0.462052	0.939355
C143	C	0.154583	-0.423583	0.898462
H144	H	0.144140	-0.419841	0.869875
H145	H	0.194314	-0.430268	0.884722
H146	H	0.134093	-0.389534	0.907722
H147	H	-0.037176	-0.376187	0.939482
H148	H	0.549371	-0.578259	0.554780
O149	O	0.055380	-0.769393	0.336386
C150	C	0.072633	-0.798151	0.309335
H151	H	0.041950	-0.805562	0.313170
H152	H	0.100093	-0.833129	0.322575
H153	H	0.089808	-0.779017	0.270388
H154	H	-0.098172	-0.765271	0.392919
O155	O	-0.042286	-0.519256	0.939361
C156	C	-0.024986	-0.565938	0.939346
H157	H	0.015463	-0.578440	0.924411
H158	H	-0.039428	-0.566607	0.916386
H159	H	-0.037004	-0.590514	0.977226
H160	H	0.549237	-0.577886	0.413185
O161	O	0.078811	0.008361	0.533688
C162	C	0.046252	0.049256	0.546486
H163	H	0.032302	0.077845	0.516076
H164	H	0.064771	0.062995	0.554161
H165	H	0.015358	0.039997	0.579568
H166	H	0.549027	-0.402547	0.325928
O167	O	0.144081	-0.612065	0.939338
C168	C	0.155108	-0.620575	0.898420
H169	H	0.123712	-0.598417	0.884790
H170	H	0.162870	-0.659846	0.907606
H171	H	0.187659	-0.610345	0.869776
O172	O	0.011585	-0.409642	0.816401
C173	C	-0.009076	-0.426653	0.804279
H174	H	0.014470	-0.431515	0.768174
H175	H	-0.045654	-0.400010	0.802604
H176	H	-0.012752	-0.462186	0.832254
O177	O	0.204286	-0.456946	0.718396
C178	C	0.229285	-0.485736	0.750969
H179	H	0.205598	-0.479403	0.786416
H180	H	0.262455	-0.476407	0.736584
H181	H	0.240018	-0.524678	0.756245
H182	H	0.049100	-0.381393	0.549936
O183	O	0.549156	-0.397397	0.468988
C184	C	0.549229	-0.414704	0.515650
H185	H	0.534316	-0.445210	0.538125
H186	H	0.526295	-0.384972	0.531647
H187	H	0.587131	-0.427923	0.514911
O188	O	0.171521	0.008585	0.347195
C189	C	0.207507	-0.032228	0.363224
H190	H	0.194586	-0.046022	0.403701
H191	H	0.240531	-0.022836	0.349300
H192	H	0.216502	-0.060827	0.349632
O193	O	0.011318	-0.409555	0.521854
C194	C	-0.013630	-0.380782	0.550643
H195	H	0.010104	-0.387124	0.568692
H196	H	-0.046784	-0.390121	0.578790
H197	H	-0.024384	-0.341836	0.527729
O198	O	0.171420	-0.489528	0.441661
C199	C	0.218118	-0.496573	0.434595
H200	H	0.218032	-0.466601	0.440148
H201	H	0.241693	-0.496822	0.396882
H202	H	0.232390	-0.531992	0.461039
H203	H	0.196371	-0.454985	0.476195
O204	O	0.021622	0.008133	0.347788
C205	C	0.010451	-0.032782	0.364171
H206	H	0.025796	-0.061358	0.393655
H207	H	0.026288	-0.046525	0.333599
H208	H	-0.029763	-0.023548	0.378508
O209	O	0.328262	-0.496198	0.544433
C210	C	0.360877	-0.542558	0.547092
H211	H	0.396297	-0.540655	0.517712
H212	H	0.346509	-0.562968	0.542605
H213	H	0.366199	-0.561537	0.583109
H214	H	0.422223	-0.375220	0.454977
O215	O	0.426259	-0.528766	0.511675
C216	C	0.475464	-0.536534	0.491964
H217	H	0.482227	-0.502315	0.463468
H218	H	0.494350	-0.565579	0.475438
H219	H	0.489601	-0.547991	0.521047
H220	H	0.332037	-0.345175	0.485091
H221	H	0.159477	-0.208876	0.439413
H222	H	0.129365	-0.118686	0.409385
H223	H	0.055841	-0.118733	0.556693
H224	H	0.085944	-0.208923	0.586721
H225	H	-0.061683	-0.492436	0.165791
H226	H	-0.091873	-0.522445	0.255974
H227	H	0.011902	-0.639768	0.165877
H228	H	-0.018278	-0.669778	0.256062
H229	H	-0.091926	-0.522444	0.298262
H230	H	-0.061921	-0.492427	0.328433
H231	H	0.011557	-0.639751	0.402207
H232	H	0.017768	-0.675232	0.307405
O233	O	-0.016595	-0.677457	0.374003
C234	C	-0.033672	-0.698098	0.423791
H235	H	-0.038561	-0.674548	0.441225
H236	H	-0.007061	-0.734688	0.435442
H237	H	-0.069200	-0.701750	0.434965
O238	O	-0.135799	-0.671241	0.363930
C239	C	-0.160452	-0.703808	0.388294
H240	H	-0.134937	-0.739266	0.382597
H241	H	-0.190384	-0.689426	0.374139
H242	H	-0.175970	-0.709066	0.427846
H243	H	-0.134345	-0.632833	0.408685
H244	H	-0.224299	-0.529059	0.291228
O245	O	-0.228431	-0.604633	0.446287
C246	C	-0.216319	-0.654425	0.466947
H247	H	-0.202614	-0.670457	0.438634
H248	H	-0.249044	-0.663904	0.496206
H249	H	-0.187505	-0.669176	0.482708
O250	O	-0.130265	-0.557308	0.253616
C251	C	-0.162807	-0.528491	0.228581
H252	H	-0.198266	-0.534791	0.252238
H253	H	-0.148402	-0.537824	0.195403
H254	H	-0.168065	-0.489558	0.217860
