data_functionalizedCrystal
_audit_creation_method	'MofGen! by Chris Wilmer'
_symmetry_space_group_name_H-M	'P1'
_symmetry_Int_Tables_number	1
_symmetry_cell_setting	triclinic
loop_
_symmetry_equiv_pos_as_xyz
  x,y,z
_cell_length_a	6.817900
_cell_length_b	15.301126
_cell_length_c	16.305550
_cell_angle_alpha	95.166946
_cell_angle_beta	103.455250
_cell_angle_gamma	104.177575
loop_
_atom_site_label
_atom_site_type_symbol
_atom_site_fract_x
_atom_site_fract_y
_atom_site_fract_z
V1	V	-4.029811	-0.125521	-0.263289
O2	O	-4.013692	0.005249	-0.258014
O3	O	-3.984745	-0.248133	-0.261742
O4	O	-3.981172	-0.123933	-0.378003
O5	O	-4.017289	-0.119811	-0.140948
V6	V	-4.513038	-0.109838	-0.248625
O7	O	-4.291719	-0.159920	-0.295456
O8	O	-4.701327	-0.075438	-0.216459
O9	O	-4.334898	0.012774	-0.250172
O10	O	-4.646554	-0.240608	-0.253901
O11	O	-4.642956	-0.115548	-0.370967
O12	O	-4.338470	-0.111426	-0.133912
C13	C	-3.830564	-0.278012	-0.257654
C14	C	-3.875002	-0.378252	-0.257154
C15	C	-4.078108	-0.429950	-0.261137
C16	C	-4.119853	-0.524136	-0.260672
C17	C	-3.958486	-0.566622	-0.256218
C18	C	-3.755365	-0.514917	-0.252238
C19	C	-3.713626	-0.420734	-0.252709
C20	C	-3.842374	-0.711225	-0.251254
C21	C	-3.884115	-0.805415	-0.250781
C22	C	-4.248601	-0.814627	-0.259217
C23	C	-4.206862	-0.720444	-0.259688
C24	C	-4.003742	-0.668746	-0.255706
C25	C	-3.826006	-0.119582	-0.405955
C26	C	-3.867544	-0.119096	-0.499736
C27	C	-4.018577	-0.117211	-0.840478
C28	C	-3.782370	-0.111616	-0.799538
C29	C	-3.739201	-0.112495	-0.702045
C30	C	-3.943646	-0.118146	-0.671432
C31	C	-4.113209	-0.207200	-0.722241
C32	C	-4.155058	-0.206697	-0.819790
C33	C	-4.070982	-0.034464	-0.794464
C34	C	-4.023032	-0.033759	-0.696620
C35	C	-3.901311	-0.118677	-0.575895
C36	C	-4.060921	-0.116686	-0.936016
C37	C	-4.152420	0.042649	-0.254258
C38	C	-4.087220	0.142887	-0.254764
C39	C	-4.156979	-0.115779	-0.105955
C40	C	-4.094679	-0.116261	-0.012173
H41	H	-3.623983	-0.549518	-0.248617
H42	H	-3.676979	-0.669137	-0.248018
H43	H	-3.548241	-0.378643	-0.249470
C44	C	-3.566111	-0.025920	-0.654539
C45	C	-3.466275	0.044499	-0.705258
C46	C	-3.293302	0.131115	-0.657754
C47	C	-3.220166	0.147313	-0.559533
C48	C	-3.320003	0.076893	-0.508809
C49	C	-3.492975	-0.009724	-0.556312
H50	H	-3.520414	0.032510	-0.777973
H51	H	-3.219397	0.183245	-0.695304
H52	H	-3.092121	0.211432	-0.524368
H53	H	-3.265864	0.088882	-0.436094
H54	H	-3.566881	-0.061853	-0.518762
C55	C	-4.040740	-0.291854	-0.699712
C56	C	-4.012247	-0.358058	-0.770086
C57	C	-3.939766	-0.442709	-0.747557
C58	C	-3.895778	-0.461157	-0.654655
C59	C	-3.924270	-0.394951	-0.584274
C60	C	-3.996751	-0.310300	-0.606803
H61	H	-4.044811	-0.344404	-0.838863
H62	H	-3.918675	-0.491719	-0.799658
H63	H	-3.842123	-0.523820	-0.637978
H64	H	-3.891707	-0.408605	-0.515497
H65	H	-4.017843	-0.261290	-0.554702
C66	C	-3.636495	-0.024711	-0.816062
C67	C	-3.730059	0.042240	-0.866934
C68	C	-3.584184	0.129148	-0.883465
C69	C	-3.344744	0.149105	-0.849122
C70	C	-3.251167	0.082152	-0.798247
C71	C	-3.397043	-0.004756	-0.781717
H72	H	-3.907318	0.027469	-0.892359
H73	H	-3.653457	0.178711	-0.921126
H74	H	-3.236758	0.213440	-0.861359
H75	H	-3.073908	0.096923	-0.772822
H76	H	-3.327770	-0.054319	-0.744056
C77	C	-3.723727	-0.191936	-0.842258
C78	C	-3.889299	-0.262487	-0.914085
C79	C	-3.830666	-0.342811	-0.956804
C80	C	-3.606461	-0.352583	-0.927696
C81	C	-3.440874	-0.282030	-0.855866
C82	C	-3.499507	-0.201706	-0.813147
H83	H	-4.055282	-0.255255	-0.935636
H84	H	-3.953246	-0.395039	-1.009978
H85	H	-3.563058	-0.412044	-0.959319
H86	H	-3.274891	-0.289262	-0.834315
H87	H	-3.376927	-0.149478	-0.759973
H88	H	-4.266574	-0.214556	-0.703344
C89	C	-3.651770	-0.193735	-0.680191
C90	C	-3.621070	-0.258016	-0.751503
C91	C	-3.533637	-0.339260	-0.729651
C92	C	-3.476904	-0.356223	-0.636486
C93	C	-3.507602	-0.291940	-0.565168
C94	C	-3.595035	-0.210696	-0.587020
H95	H	-3.663069	-0.245460	-0.820474
H96	H	-3.510913	-0.386846	-0.782445
H97	H	-3.412181	-0.416364	-0.620310
H98	H	-3.465603	-0.304495	-0.496197
H99	H	-3.617759	-0.163110	-0.534225
C100	C	-3.856975	0.055229	-0.650001
C101	C	-3.759460	0.125194	-0.701644
C102	C	-3.593392	0.214178	-0.655020
C103	C	-3.524840	0.233199	-0.556752
C104	C	-3.622356	0.163233	-0.505104
C105	C	-3.788424	0.074248	-0.551728
H106	H	-3.810206	0.111115	-0.774392
H107	H	-3.521205	0.265972	-0.693254
H108	H	-3.401907	0.299071	-0.522238
H109	H	-3.571610	0.177311	-0.432355
H110	H	-3.860611	0.022455	-0.513494
H111	H	-4.209513	-0.395363	-0.264755
H112	H	-4.285239	-0.566224	-0.263916
H113	H	-4.338262	-0.685854	-0.263309
H114	H	-4.413984	-0.856722	-0.262446
H115	H	-4.120692	-0.269339	-0.850300
H116	H	-3.752726	-0.840008	-0.247180
H117	H	-4.329116	-0.214507	-0.847798
H118	H	-4.170289	-0.032651	-0.675270
H119	H	-3.977664	0.033012	-0.807693
H120	H	-4.243141	-0.037771	-0.821287
