data_functionalizedCrystal
_audit_creation_method	'MofGen! by Chris Wilmer'
_symmetry_space_group_name_H-M	'P1'
_symmetry_Int_Tables_number	1
_symmetry_cell_setting	triclinic
loop_
_symmetry_equiv_pos_as_xyz
  x,y,z
_cell_length_a	10.654556
_cell_length_b	11.792254
_cell_length_c	9.730223
_cell_angle_alpha	89.998472
_cell_angle_beta	89.999363
_cell_angle_gamma	84.343003
loop_
_atom_site_label
_atom_site_type_symbol
_atom_site_fract_x
_atom_site_fract_y
_atom_site_fract_z
O1	O	1.667387	0.159447	-0.114305
O2	O	1.301867	0.174628	-0.114304
O3	O	1.493489	0.001889	-0.114295
O4	O	1.475765	0.332187	-0.114314
O5	O	1.493486	0.001893	0.114285
O6	O	1.301865	0.174633	0.114276
O7	O	1.667384	0.159451	0.114275
Zn8	Zn	1.484624	0.167043	0.150568
Zn9	Zn	1.484627	0.167037	-0.150596
O10	O	1.475763	0.332191	0.114266
C11	C	1.255071	0.173514	-0.000014
C12	C	1.115637	0.170175	-0.000014
C13	C	0.919121	0.165473	-0.124624
C14	C	1.050135	0.168604	-0.124618
C15	C	1.050121	0.168603	0.124592
C16	C	0.919111	0.165463	0.124585
C17	C	0.919130	0.165479	-0.268504
C18	C	1.050144	0.168610	-0.268498
C19	C	1.492371	-0.040402	-0.000005
C20	C	1.489029	-0.166423	-0.000006
C21	C	1.486314	-0.268766	-0.000011
C22	C	1.482919	-0.397161	-0.000024
C23	C	1.714180	0.160565	-0.000018
C24	C	1.853614	0.163905	-0.000027
C25	C	1.476880	0.374482	-0.000027
C26	C	1.480222	0.500503	-0.000035
N27	N	1.484631	0.167046	0.356104
N28	N	1.484630	0.167025	-0.356133
C29	C	1.569503	0.090583	0.428034
C30	C	1.569500	0.090569	0.571917
C31	C	1.399749	0.243491	0.571927
C32	C	1.399747	0.243499	0.428047
C33	C	1.667512	0.002298	0.428030
C34	C	1.667508	0.002284	0.571913
H35	H	0.894529	0.085340	-0.323747
H36	H	1.758618	0.029944	0.383402
O37	O	0.855314	0.164067	0.245527
C38	C	0.693877	0.258677	0.390198
C39	C	0.766011	0.260393	0.253166
H40	H	0.621678	0.336560	0.396432
H41	H	0.643406	0.177962	0.396421
H42	H	0.763222	0.260273	0.479241
H43	H	0.696751	0.258840	0.164046
H44	H	0.816502	0.341102	0.247063
O45	O	1.317419	0.317928	0.358239
C46	C	1.245092	0.514668	0.314305
C47	C	1.338424	0.430500	0.393418
H48	H	1.262024	0.605700	0.342740
H49	H	1.259661	0.501646	0.199094
H50	H	1.144423	0.498956	0.342585
H51	H	1.439130	0.446160	0.365254
H52	H	1.323745	0.443541	0.508610
O53	O	1.631451	-0.096171	0.624930
C54	C	1.563536	-0.281104	0.577168
C55	C	1.604355	-0.169670	0.516940
H56	H	1.541592	-0.340548	0.489887
H57	H	1.642958	-0.324129	0.643042
H58	H	1.475745	-0.261091	0.643179
H59	H	1.692118	-0.189585	0.450867
H60	H	1.524858	-0.126676	0.451143
H61	H	1.763966	0.021733	0.610962
O62	O	1.317126	0.317641	0.641755
C63	C	1.099211	0.382340	0.685718
C64	C	1.192643	0.298282	0.606580
H65	H	0.998547	0.366733	0.657286
H66	H	1.113677	0.369197	0.800925
H67	H	1.116252	0.473384	0.657456
H68	H	1.175659	0.207205	0.634727
H69	H	1.178155	0.311524	0.491392
O70	O	1.642046	-0.101679	0.381275
C71	C	1.502705	-0.207500	0.248070
C72	C	1.531423	-0.089681	0.300895
H73	H	1.413252	-0.197843	0.183096
H74	H	1.584938	-0.246240	0.182888
H75	H	1.488623	-0.265658	0.339216
H76	H	1.545480	-0.031436	0.209832
H77	H	1.449176	-0.051033	0.366119
O78	O	1.112308	0.072239	-0.321675
C79	C	1.313530	-0.028078	-0.378961
C80	C	1.243287	0.081107	-0.318682
H81	H	1.419437	-0.020935	-0.376588
H82	H	1.291162	-0.104754	-0.315366
H83	H	1.281973	-0.039347	-0.489656
H84	H	1.274804	0.092485	-0.207999
H85	H	1.265657	0.157726	-0.382378
H86	H	1.103465	0.169872	0.226047
H87	H	0.867200	0.246312	-0.313152
H88	H	1.074754	0.248756	-0.323731
