data_functionalizedCrystal
_audit_creation_method	'MofGen! by Chris Wilmer'
_symmetry_space_group_name_H-M	'P1'
_symmetry_Int_Tables_number	1
_symmetry_cell_setting	triclinic
loop_
_symmetry_equiv_pos_as_xyz
  x,y,z
_cell_length_a	29.839134
_cell_length_b	16.994747
_cell_length_c	29.839125
_cell_angle_alpha	89.991363
_cell_angle_beta	90.021980
_cell_angle_gamma	90.005924
loop_
_atom_site_label
_atom_site_type_symbol
_atom_site_fract_x
_atom_site_fract_y
_atom_site_fract_z
Zn1	Zn	0.686814	-0.314247	0.254207
Zn2	Zn	1.186814	0.185753	0.754207
Zn3	Zn	0.686786	-0.446127	0.179112
Zn4	Zn	1.186786	0.053873	0.679112
Zn5	Zn	0.611697	-0.314229	0.179077
Zn6	Zn	1.111697	0.185771	0.679077
Zn7	Zn	0.611685	-0.446101	0.254200
Zn8	Zn	1.111685	0.053899	0.754200
O9	O	0.649246	-0.380176	0.216649
O10	O	1.149246	0.119824	0.716649
O11	O	0.749678	-0.331759	0.244263
O12	O	1.249678	0.168241	0.744263
O13	O	0.676819	-0.428635	0.116240
O14	O	1.176819	0.071365	0.616240
O15	O	0.621679	-0.203850	0.189031
O16	O	1.121679	0.296150	0.689031
O17	O	0.749657	-0.428651	0.189091
O18	O	1.249657	0.071349	0.689091
O19	O	0.676867	-0.203863	0.244230
O20	O	1.176867	0.296137	0.744230
O21	O	0.621651	-0.331730	0.116214
O22	O	1.121651	0.168270	0.616214
O23	O	0.548828	-0.331704	0.189025
O24	O	1.048828	0.168296	0.689025
O25	O	0.621657	-0.428606	0.317068
O26	O	1.121657	0.071394	0.817068
O27	O	0.548819	-0.428589	0.244217
O28	O	1.048819	0.071411	0.744217
O29	O	0.676855	-0.331734	0.317074
O30	O	1.176855	0.168266	0.817074
O31	O	0.676807	-0.556505	0.189084
O32	O	1.176807	-0.056505	0.689084
O33	O	0.621630	-0.556486	0.244251
O34	O	1.121630	-0.056486	0.744251
C35	C	0.532523	-0.380143	0.216617
C36	C	1.032523	0.119857	0.716617
C37	C	0.482589	-0.380147	0.216613
C38	C	0.982589	0.119853	0.716613
C39	C	0.649220	-0.585116	0.216669
C40	C	1.149220	-0.085116	0.716669
C41	C	0.649223	-0.674438	0.216668
C42	C	1.149223	-0.174438	0.716668
Zn43	Zn	0.611710	-0.945316	0.179064
Zn44	Zn	1.111710	-0.445316	0.679064
Zn45	Zn	0.686834	-0.945312	0.254188
Zn46	Zn	1.186834	-0.445312	0.754188
Zn47	Zn	0.611700	-0.813493	0.254193
Zn48	Zn	1.111700	-0.313493	0.754193
Zn49	Zn	0.686795	-0.813382	0.179097
Zn50	Zn	1.186795	-0.313382	0.679097
O51	O	0.649260	-0.879376	0.216635
O52	O	1.149260	-0.379376	0.716635
O53	O	0.621696	-1.055697	0.189014
O54	O	1.121696	-0.555697	0.689014
O55	O	0.676880	-0.927870	0.317055
O56	O	1.176880	-0.427870	0.817055
O57	O	0.548834	-0.831028	0.244215
O58	O	1.048834	-0.331028	0.744215
O59	O	0.676890	-1.055693	0.244206
O60	O	1.176890	-0.555693	0.744206
O61	O	0.548842	-0.927877	0.189019
O62	O	1.048842	-0.427877	0.689019
O63	O	0.621679	-0.831024	0.317059
O64	O	1.121679	-0.331024	0.817059
O65	O	0.621641	-0.703097	0.244247
O66	O	1.121641	-0.203097	0.744247
O67	O	0.676822	-0.830839	0.116226
O68	O	1.176822	-0.330839	0.616226
O69	O	0.676812	-0.703016	0.189075
O70	O	1.176812	-0.203016	0.689075
O71	O	0.621658	-0.927770	0.116202
O72	O	1.121658	-0.427770	0.616202
O73	O	0.749696	-0.927763	0.244238
O74	O	1.249696	-0.427763	0.744238
O75	O	0.749667	-0.830835	0.189070
O76	O	1.249667	-0.330835	0.689070
C77	C	0.172950	-0.430699	0.245353
C78	C	0.672950	0.069301	0.745353
C79	C	-0.014723	-0.430721	0.245373
C80	C	0.485277	0.069279	0.745373
O81	O	-0.038984	-0.473665	0.269789
O82	O	0.461016	0.026335	0.769789
N83	N	-0.038196	-0.380205	0.216683
N84	N	0.461804	0.119795	0.716683
C85	C	-0.014749	-0.329676	0.187988
C86	C	0.485251	0.170324	0.687988
O87	O	-0.039020	-0.286704	0.163589
O88	O	0.460980	0.213296	0.663589
C89	C	0.172924	-0.329650	0.187971
C90	C	0.672924	0.170350	0.687971
C91	C	0.196395	-0.380176	0.216659
C92	C	0.696395	0.119824	0.716659
C93	C	0.196421	-0.481219	0.274039
C94	C	0.696421	0.018781	0.774039
C95	C	0.243337	-0.481216	0.274032
C96	C	0.743337	0.018784	0.774032
C97	C	0.266781	-0.430693	0.245339
C98	C	0.766781	0.069307	0.745339
C99	C	0.243310	-0.380172	0.216652
C100	C	0.743310	0.119828	0.716652
C101	C	0.196371	-0.279118	0.159279
C102	C	0.696371	0.220882	0.659279
C103	C	0.243292	-0.279115	0.159278
C104	C	0.743292	0.220885	0.659278
C105	C	0.266762	-0.329640	0.187966
C106	C	0.766762	0.170360	0.687966
C107	C	0.313670	-0.329646	0.187952
C108	C	0.813670	0.170354	0.687952
N109	N	0.337143	-0.380162	0.216642
N110	N	0.837143	0.119838	0.716642
C111	C	0.313699	-0.430686	0.245335
C112	C	0.813699	0.069314	0.745335
C113	C	-0.113279	-0.329694	0.187999
C114	C	0.386721	0.170306	0.687999
C115	C	-0.160197	-0.329701	0.188002
C116	C	0.339803	0.170299	0.688002
C117	C	-0.160168	-0.430746	0.245388
C118	C	0.339832	0.069254	0.745388
C119	C	-0.113250	-0.430742	0.245381
C120	C	0.386750	0.069258	0.745381
C121	C	-0.089806	-0.380210	0.216688
C122	C	0.410194	0.119790	0.716688
C123	C	0.412225	-0.430676	0.245318
C124	C	0.912225	0.069324	0.745318
C125	C	0.459144	-0.430671	0.245307
C126	C	0.959144	0.069329	0.745307
C127	C	0.459111	-0.329624	0.187924
C128	C	0.959111	0.170376	0.687924
C129	C	0.412196	-0.329632	0.187933
C130	C	0.912196	0.170368	0.687933
C131	C	0.388754	-0.380160	0.216633
C132	C	0.888754	0.119840	0.716633
O133	O	0.337960	-0.286719	0.163552
O134	O	0.837960	0.213281	0.663552
O135	O	0.337979	-0.473639	0.269737
O136	O	0.837979	0.026361	0.769737
C137	C	0.126035	-0.430702	0.245360
C138	C	0.626035	0.069298	0.745360
C139	C	0.102564	-0.380182	0.216673
C140	C	0.602564	0.119818	0.716673
C141	C	0.126008	-0.329658	0.187980
C142	C	0.626008	0.170342	0.687980
C143	C	0.055646	-0.380189	0.216677
C144	C	0.555646	0.119811	0.716677
C145	C	0.032201	-0.430712	0.245371
C146	C	0.532201	0.069288	0.745371
C147	C	0.055675	-0.481228	0.274060
C148	C	0.555675	0.018772	0.774060
C149	C	0.102590	-0.481225	0.274053
C150	C	0.602590	0.018775	0.774053
C151	C	0.102535	-0.279142	0.159290
C152	C	0.602535	0.220858	0.659290
C153	C	0.055619	-0.279150	0.159299
C154	C	0.555619	0.220850	0.659299
C155	C	0.032175	-0.329673	0.187992
C156	C	0.532175	0.170327	0.687992
C157	C	0.766424	-0.380210	0.216682
C158	C	1.266424	0.119790	0.716682
C159	C	0.816358	-0.380225	0.216696
C160	C	1.316358	0.119775	0.716696
C161	C	0.649258	-0.380169	0.333827
C162	C	1.149258	0.119831	0.833827
C163	C	0.649263	-0.380166	0.383762
C164	C	1.149263	0.119834	0.883762
C165	C	0.649274	-0.174436	0.216626
C166	C	1.149274	0.325564	0.716626
C167	C	0.649288	-0.085114	0.216617
C168	C	1.149288	0.414886	0.716617
C169	C	0.649259	-0.380126	0.099927
C170	C	1.149259	0.119874	0.599927
C171	C	0.649341	-0.379907	0.049992
C172	C	1.149341	0.120093	0.549992
C173	C	0.678035	-0.329592	0.693411
C174	C	1.178035	0.170408	1.193411
C175	C	0.678057	-0.329525	0.881084
C176	C	1.178057	0.170475	1.381084
O177	O	0.702486	-0.286600	0.905354
O178	O	1.202486	0.213400	1.405354
N179	N	0.649323	-0.379955	0.904547
N180	N	1.149323	0.120045	1.404547
C181	C	0.620579	-0.430401	0.881089
C182	C	1.120579	0.069599	1.381089
O183	O	0.596136	-0.473287	0.905352
O184	O	1.096136	0.026713	1.405352
C185	C	0.620554	-0.430464	0.693417
C186	C	1.120554	0.069536	1.193417
C187	C	0.649294	-0.380037	0.669956
C188	C	1.149294	0.119963	1.169956
C189	C	0.706771	-0.279168	0.669951
C190	C	1.206771	0.220832	1.169951
C191	C	0.706767	-0.279189	0.623035
C192	C	1.206767	0.220811	1.123035
C193	C	0.678026	-0.329633	0.599580
C194	C	1.178026	0.170367	1.099580
C195	C	0.649290	-0.380057	0.623041
C196	C	1.149290	0.119943	1.123041
C197	C	0.591809	-0.480906	0.669959
C198	C	1.091809	0.019094	1.169959
C199	C	0.591804	-0.480916	0.623038
C200	C	1.091804	0.019084	1.123038
C201	C	0.620544	-0.430488	0.599578
C202	C	1.120544	0.069512	1.099578
C203	C	0.620545	-0.430521	0.552670
C204	C	1.120545	0.069479	1.052670
N205	N	0.649279	-0.380092	0.529207
N206	N	1.149279	0.119908	1.029207
C207	C	0.678020	-0.329648	0.552662
C208	C	1.178020	0.170352	1.052662
C209	C	0.620594	-0.430366	0.979620
C210	C	1.120594	0.069634	1.479620
C211	C	0.620601	-0.430351	1.026537
C212	C	1.120601	0.069649	1.526537
C213	C	0.678078	-0.329474	1.026530
C214	C	1.178078	0.170526	1.526530
C215	C	0.678074	-0.329493	0.979611
C216	C	1.178074	0.170507	1.479611
C217	C	0.649328	-0.379936	0.956157
C218	C	1.149328	0.120064	1.456157
C219	C	0.678009	-0.329695	0.454136
C220	C	1.178009	0.170305	0.954136
C221	C	0.678004	-0.329722	0.407217
C222	C	1.178004	0.170278	0.907217
C223	C	0.620525	-0.430596	0.407229
C224	C	1.120525	0.069404	0.907229
C225	C	0.620531	-0.430572	0.454144
C226	C	1.120531	0.069428	0.954144
C227	C	0.649275	-0.380115	0.477597
C228	C	1.149275	0.119885	0.977597
O229	O	0.596125	-0.473418	0.528372
O230	O	1.096125	0.026582	1.028372
O231	O	0.702452	-0.286755	0.528391
O232	O	1.202452	0.213245	1.028391
C233	C	0.678039	-0.329572	0.740327
C234	C	1.178039	0.170428	1.240327
C235	C	0.649302	-0.379996	0.763787
C236	C	1.149302	0.120004	1.263787
C237	C	0.620561	-0.430440	0.740332
C238	C	1.120561	0.069560	1.240332
C239	C	0.649309	-0.379981	0.810705
C240	C	1.149309	0.120019	1.310705
C241	C	0.678049	-0.329537	0.834160
C242	C	1.178049	0.170463	1.334160
C243	C	0.706784	-0.279107	0.810697
C244	C	1.206784	0.220893	1.310697
C245	C	0.706779	-0.279128	0.763782
C246	C	1.206779	0.220872	1.263782
C247	C	0.591827	-0.480870	0.763795
C248	C	1.091827	0.019130	1.263795
C249	C	0.591834	-0.480846	0.810711
C250	C	1.091834	0.019154	1.310711
C251	C	0.620575	-0.430402	0.834166
C252	C	1.120575	0.069598	1.334166
C253	C	0.765982	-0.879289	0.216658
C254	C	1.265982	-0.379289	0.716658
C255	C	0.815917	-0.879274	0.216681
C256	C	1.315917	-0.379274	0.716681
C257	C	0.649237	-0.879293	0.099457
C258	C	1.149237	-0.379293	0.599457
C259	C	0.649227	-0.879257	0.049523
C260	C	1.149227	-0.379257	0.549523
C261	C	0.532081	-0.879465	0.216614
C262	C	1.032081	-0.379465	0.716614
C263	C	0.482147	-0.879504	0.216605
C264	C	0.982147	-0.379504	0.716605
C265	C	0.649251	-0.879503	0.333358
C266	C	1.149251	-0.379503	0.833358
C267	C	0.649135	-0.879690	0.383292
C268	C	1.149135	-0.379690	0.883292
C269	C	0.839369	-0.929780	0.245392
C270	C	1.339369	-0.429780	0.745392
C271	C	0.886287	-0.929782	0.245413
C272	C	1.386287	-0.429782	0.745413
C273	C	0.909753	-0.879274	0.216726
C274	C	1.409753	-0.379274	0.716726
C275	C	0.886298	-0.828766	0.188012
C276	C	1.386298	-0.328766	0.688012
C277	C	0.839380	-0.828769	0.187989
C278	C	1.339380	-0.328769	0.687989
C279	C	0.620497	-0.929708	0.026058
C280	C	1.120497	-0.429708	0.526058
C281	C	0.620479	-0.929675	-0.020861
C282	C	1.120479	-0.429675	0.479139
C283	C	0.649193	-0.879194	-0.044314
C284	C	1.149193	-0.379194	0.455686
C285	C	0.677923	-0.828738	-0.020846
C286	C	1.177923	-0.328738	0.479154
C287	C	0.677939	-0.828768	0.026072
C288	C	1.177939	-0.328768	0.526072
C289	C	0.458691	-0.829091	0.245338
C290	C	0.958691	-0.329091	0.745338
C291	C	0.411772	-0.829111	0.245330
C292	C	0.911772	-0.329111	0.745330
C293	C	0.388311	-0.879549	0.216589
C294	C	0.888311	-0.379549	0.716589
C295	C	0.411770	-0.929964	0.187852
C296	C	0.911770	-0.429964	0.687852
C297	C	0.458688	-0.929939	0.187859
C298	C	0.958688	-0.429939	0.687859
C299	C	0.620547	-0.828988	0.406724
C300	C	1.120547	-0.328988	0.906724
C301	C	0.620430	-0.829163	0.453643
C302	C	1.120430	-0.329163	0.953643
C303	C	0.648904	-0.880035	0.477128
C304	C	1.148904	-0.380035	0.977128
C305	C	0.677494	-0.930741	0.453693
C306	C	1.177494	-0.430741	0.953693
C307	C	0.677608	-0.930570	0.406775
C308	C	1.177608	-0.430570	0.906775
H309	H	0.478252	-0.471817	0.268669
H310	H	0.978252	0.028183	0.768669
N311	N	0.649163	-0.879169	-0.094918
N312	N	1.149163	-0.379169	0.405082
H313	H	0.657423	-0.933268	-0.106225
H314	H	1.157423	-0.433268	0.393775
H315	H	0.671704	-0.839500	-0.106188
H316	H	1.171704	-0.339500	0.393812
N317	N	0.589610	-0.484751	1.051839
N318	N	1.089610	0.015249	1.551839
H319	H	0.571402	-0.516706	1.029856
H320	H	1.071402	-0.016706	1.529856
H321	H	0.568825	-0.452633	1.071294
H322	H	1.068825	0.047367	1.571294
N323	N	0.911615	-0.774288	0.157078
N324	N	1.411615	-0.274288	0.657078
H325	H	0.903451	-0.717946	0.164088
H326	H	1.403451	-0.217946	0.664088
H327	H	0.903449	-0.786528	0.124976
H328	H	1.403449	-0.286528	0.624976
N329	N	0.911576	-0.984261	0.276387
N330	N	1.411576	-0.484261	0.776387
H331	H	0.903407	-0.972070	0.308488
H332	H	1.403407	-0.472070	0.808488
H333	H	0.944852	-0.976581	0.272013
H334	H	1.444852	-0.476581	0.772013
N335	N	0.589496	-0.984109	-0.046165
N336	N	1.089496	-0.484109	0.453835
H337	H	0.593838	-0.976435	-0.079447
H338	H	1.093838	-0.476435	0.420553
H339	H	0.557411	-0.971871	-0.037962
H340	H	1.057411	-0.471871	0.462038
H341	H	0.597186	-0.471448	0.960528
H342	H	1.097186	0.028552	1.460528
N343	N	0.560803	-0.535326	0.597738
N344	N	1.060803	-0.035326	1.097738
H345	H	0.539988	-0.503270	0.578260
H346	H	1.039988	-0.003270	1.078260
H347	H	0.542629	-0.567257	0.619749
H348	H	1.042629	-0.067257	1.119749
N349	N	0.589523	-0.484997	0.381928
N350	N	1.089523	0.015003	0.881928
H351	H	0.596489	-0.541358	0.390103
H352	H	1.096489	-0.041358	0.890103
H353	H	0.593896	-0.477284	0.348654
H354	H	1.093896	0.022716	0.848654
H355	H	0.350107	-0.879558	0.216587
H356	H	0.850107	-0.379558	0.716587
H357	H	0.820289	-0.787636	0.164610
H358	H	1.320289	-0.287636	0.664610
N359	N	-0.185510	-0.275219	0.157053
N360	N	0.314490	0.224781	0.657053
H361	H	-0.163534	-0.243213	0.138878
H362	H	0.336466	0.256787	0.638878
H363	H	-0.204967	-0.238764	0.175369
H364	H	0.295033	0.261236	0.675369
N365	N	0.386873	-0.275166	0.156979
N366	N	0.886873	0.224834	0.656979
H367	H	0.367413	-0.238659	0.175260
H368	H	0.867413	0.261341	0.675260
H369	H	0.367425	-0.307247	0.136151
H370	H	0.867425	0.192753	0.636151
H371	H	0.478208	-0.288492	0.164561
H372	H	0.978208	0.211508	0.664561
N373	N	-0.087997	-0.275181	0.157054
N374	N	0.412003	0.224819	0.657054
H375	H	-0.109990	-0.243184	0.138883
H376	H	0.390010	0.256816	0.638883
H377	H	-0.068538	-0.307220	0.136234
H378	H	0.431462	0.192780	0.636234
H379	H	0.947957	-0.879279	0.216750
H380	H	1.447957	-0.379279	0.716750
H381	H	0.701301	-0.787639	-0.039948
H382	H	1.201301	-0.287639	0.460052
N383	N	0.709073	-0.275108	0.954309
N384	N	1.209073	0.224892	1.454309
H385	H	0.690823	-0.238550	0.934829
H386	H	1.190823	0.261450	1.434829
H387	H	0.729876	-0.307239	0.934882
H388	H	1.229876	0.192761	1.434882
H389	H	0.477788	-0.788016	0.268743
H390	H	0.977788	-0.288016	0.768743
H391	H	0.597115	-0.970817	0.045147
H392	H	1.097115	-0.470817	0.545147
N393	N	0.709078	-0.275066	1.051831
N394	N	1.209078	0.224934	1.551831
H395	H	0.704719	-0.282713	1.085113
H396	H	1.204719	0.217287	1.585113
H397	H	0.702090	-0.218732	1.043620
H398	H	1.202090	0.281268	1.543620
N399	N	0.708925	-0.774347	0.051378
N400	N	1.208925	-0.274347	0.551378
H401	H	0.727110	-0.742367	0.029398
H402	H	1.227110	-0.242367	0.529398
H403	H	0.729730	-0.806447	0.070842
H404	H	1.229730	-0.306447	0.570842
N405	N	0.589593	-0.774469	0.478914
N406	N	1.089593	-0.274469	0.978914
H407	H	0.571578	-0.742213	0.456914
H408	H	1.071578	-0.242213	0.956914
H409	H	0.607977	-0.738259	0.498473
H410	H	1.107977	-0.238259	0.998473
H411	H	0.568406	-0.521969	0.689053
H412	H	1.068406	-0.021969	1.189053
H413	H	0.121696	-0.522368	0.297415
H414	H	0.621696	-0.022368	0.797415
H415	H	0.597134	-0.471641	0.473247
H416	H	1.097134	0.028359	0.973247
H417	H	0.700891	-0.971855	0.387700
H418	H	1.200891	-0.471855	0.887700
N419	N	0.589833	-0.774112	0.381403
N420	N	1.089833	-0.274112	0.881403
H421	H	0.557669	-0.786016	0.389468
H422	H	1.057669	-0.286016	0.889468
H423	H	0.594276	-0.781712	0.348132
H424	H	1.094276	-0.281712	0.848132
N425	N	0.648777	-0.880216	0.527732
N426	N	1.148777	-0.380216	1.027732
H427	H	0.626345	-0.840374	0.539009
H428	H	1.126345	-0.340374	1.039009
H429	H	0.679639	-0.866149	0.539102
H430	H	1.179639	-0.366149	1.039102
H431	H	0.392678	-0.788057	0.268732
H432	H	0.892678	-0.288057	0.768732
N433	N	0.386462	-0.984358	0.156854
N434	N	0.886462	-0.484358	0.656854
H435	H	0.353181	-0.976720	0.161214
H436	H	0.853181	-0.476720	0.661214
H437	H	0.394669	-1.040694	0.163839
H438	H	0.894669	-0.540694	0.663839
H439	H	0.477782	-0.970995	0.164462
H440	H	0.977782	-0.470995	0.664462
N441	N	0.708200	-0.985606	0.479031
N442	N	1.208200	-0.485606	0.979031
H443	H	0.729094	-0.953862	0.498590
H444	H	1.229094	-0.453862	0.998590
H445	H	0.726302	-1.017696	0.457045
H446	H	1.226302	-0.517696	0.957045
N447	N	0.386943	-0.485176	0.276269
N448	N	0.886943	0.014824	0.776269
H449	H	0.395127	-0.473015	0.308377
H450	H	0.895127	0.026985	0.808377
H451	H	0.395116	-0.541491	0.269204
H452	H	0.895116	-0.041491	0.769204
N453	N	0.268644	-0.535711	0.304979
N454	N	0.768644	-0.035711	0.804979
H455	H	0.260490	-0.523540	0.337086
H456	H	0.760490	-0.023540	0.837086
H457	H	0.301917	-0.528028	0.300590
H458	H	0.801917	-0.028028	0.800590
N459	N	0.171139	-0.535721	0.304987
N460	N	0.671139	-0.035721	0.804987
H461	H	0.193134	-0.567721	0.323156
H462	H	0.693134	-0.067721	0.823156
H463	H	0.151667	-0.572181	0.286671
H464	H	0.651667	-0.072181	0.786671
N465	N	0.814069	-0.984269	0.276333
N466	N	1.314069	-0.484269	0.776333
H467	H	0.794605	-1.020785	0.258043
H468	H	1.294605	-0.520785	0.758043
H469	H	0.794627	-0.952217	0.297162
H470	H	1.294627	-0.452217	0.797162
H471	H	0.730182	-0.238064	0.744684
H472	H	1.230182	0.261936	1.244684
H473	H	0.036513	-0.238007	0.135933
H474	H	0.536513	0.261993	0.635933
H475	H	-0.179265	-0.471884	0.268751
H476	H	0.320735	0.028116	0.768751
N477	N	-0.087936	-0.485236	0.276323
N478	N	0.412064	0.014764	0.776323
H479	H	-0.109912	-0.517243	0.294498
H480	H	0.390088	-0.017243	0.794498
H481	H	-0.068460	-0.453184	0.297139
H482	H	0.431540	0.046816	0.797139
H483	H	0.730187	-0.238036	0.829802
H484	H	1.230187	0.261964	1.329802
H485	H	0.177269	-0.237977	0.135916
H486	H	0.677269	0.262023	0.635916
H487	H	0.701409	-0.288657	0.388117
H488	H	1.201409	0.211343	0.888117
N489	N	0.030384	-0.535727	0.305007
N490	N	0.530384	-0.035727	0.805007
H491	H	-0.002899	-0.528057	0.300654
H492	H	0.497101	-0.028057	0.800654
H493	H	0.038599	-0.523535	0.337101
H494	H	0.538599	-0.023535	0.837101
N495	N	0.560837	-0.535244	0.836012
N496	N	1.060837	-0.035244	1.336012
H497	H	0.542630	-0.567199	0.814030
H498	H	1.042630	-0.067199	1.314030
H499	H	0.540052	-0.503119	0.855463
H500	H	1.040052	-0.003119	1.355463
H501	H	0.121619	-0.237999	0.135924
H502	H	0.621619	0.262001	0.635924
N503	N	0.268577	-0.224607	0.128332
N504	N	0.768577	0.275393	0.628332
H505	H	0.246586	-0.192603	0.110162
H506	H	0.746586	0.307397	0.610162
H507	H	0.288033	-0.256651	0.107512
H508	H	0.788033	0.243349	0.607512
H509	H	0.701414	-0.288605	0.473226
H510	H	1.201414	0.211395	0.973226
H511	H	0.730169	-0.238124	0.603938
H512	H	1.230169	0.261876	1.103938
H513	H	0.568423	-0.521949	0.744703
H514	H	1.068423	-0.021949	1.244703
N515	N	0.737768	-0.224748	0.695244
N516	N	1.237768	0.275252	1.195244
H517	H	0.755967	-0.192809	0.673256
H518	H	1.255967	0.307191	1.173256
H519	H	0.758560	-0.256847	0.714722
H520	H	1.258560	0.243153	1.214722
