data_functionalizedCrystal
_audit_creation_method	'MofGen! by Chris Wilmer'
_symmetry_space_group_name_H-M	'P1'
_symmetry_Int_Tables_number	1
_symmetry_cell_setting	triclinic
loop_
_symmetry_equiv_pos_as_xyz
  x,y,z
_cell_length_a	14.044191
_cell_length_b	16.109301
_cell_length_c	14.586319
_cell_angle_alpha	90.001610
_cell_angle_beta	90.003775
_cell_angle_gamma	88.326629
loop_
_atom_site_label
_atom_site_type_symbol
_atom_site_fract_x
_atom_site_fract_y
_atom_site_fract_z
O1	O	1.257649	0.200459	0.076201
O2	O	1.757649	0.700459	0.576201
O3	O	0.981682	0.193220	0.076213
O4	O	1.481682	0.693220	0.576213
O5	O	1.127246	0.076373	0.076197
O6	O	1.627246	0.576373	0.576197
O7	O	1.112084	0.317306	0.076217
O8	O	1.612084	0.817306	0.576217
O9	O	1.127229	0.076379	-0.076283
O10	O	1.627229	0.576379	0.423717
O11	O	0.981664	0.193226	-0.076268
O12	O	1.481664	0.693226	0.423732
O13	O	1.257631	0.200465	-0.076279
O14	O	1.757631	0.700465	0.423721
Cu15	Cu	1.119646	0.196846	-0.090196
Cu16	Cu	1.619646	0.696846	0.409804
Cu17	Cu	1.119667	0.196839	0.090130
Cu18	Cu	1.619667	0.696839	0.590130
O19	O	1.112067	0.317313	-0.076264
O20	O	1.612067	0.817313	0.423736
C21	C	1.126623	0.045355	-0.000043
C22	C	1.626623	0.545355	0.499957
C23	C	1.124782	-0.047077	-0.000045
C24	C	1.624782	0.452923	0.499955
C25	C	0.946359	0.190056	-0.000026
C26	C	1.446359	0.690056	0.499974
C27	C	0.841136	0.180610	-0.000022
C28	C	1.341136	0.680610	0.499978
C29	C	1.206876	-0.263240	-0.000034
C30	C	1.706876	0.236760	0.499966
C31	C	1.205138	-0.350089	-0.000026
C32	C	1.705138	0.149911	0.499974
C33	C	1.032431	-0.343068	-0.000022
C34	C	1.532431	0.156932	0.499978
C35	C	1.034169	-0.256220	-0.000023
C36	C	1.534169	0.243780	0.499977
C37	C	1.121395	-0.216308	-0.000034
C38	C	1.621395	0.283692	0.499966
C39	C	1.117918	-0.390006	-0.000025
C40	C	1.617918	0.109994	0.499975
C41	C	1.116034	-0.484173	-0.000017
C42	C	1.616034	0.015827	0.499983
C43	C	1.123280	-0.122136	-0.000040
C44	C	1.623280	0.377864	0.499960
C45	C	0.590834	0.230335	-0.000027
C46	C	1.090834	0.730335	0.499973
C47	C	0.648484	0.163354	-0.000031
C48	C	1.148484	0.663354	0.499969
C49	C	0.755686	0.172958	-0.000026
C50	C	1.255686	0.672958	0.499974
C51	C	0.483623	0.220733	-0.000032
C52	C	0.983623	0.720733	0.499968
C53	C	1.292954	0.203629	-0.000038
C54	C	1.792954	0.703629	0.499962
C55	C	1.398177	0.213075	-0.000036
C56	C	1.898177	0.713075	0.499964
C57	C	1.112690	0.348330	-0.000021
C58	C	1.612690	0.848330	0.499979
C59	C	1.114531	0.440762	-0.000014
C60	C	1.614531	0.940762	0.499986
N61	N	1.119638	0.196852	-0.217028
N62	N	1.619638	0.696852	0.282972
C63	C	1.177124	0.251558	-0.452033
C64	C	1.677124	0.751558	0.047967
C65	C	1.177134	0.251553	-0.548014
C66	C	1.677134	0.751553	-0.048014
C67	C	1.062195	0.142115	-0.548027
C68	C	1.562195	0.642115	-0.048027
C69	C	1.062190	0.142117	-0.452048
C70	C	1.562190	0.642117	0.047952
C71	C	1.119653	0.196843	-0.404053
C72	C	1.619653	0.696843	0.095947
C73	C	1.119667	0.196836	-0.596014
C74	C	1.619667	0.696836	-0.096014
C75	C	1.119678	0.196831	-0.700081
C76	C	1.619678	0.696831	-0.200081
C77	C	1.119645	0.196848	-0.299979
C78	C	1.619645	0.696848	0.200021
N79	N	1.119682	0.196828	0.216962
N80	N	1.619682	0.696828	0.716962
H81	H	1.274746	-0.388298	-0.000024
H82	H	1.774746	0.111702	0.499976
N83	N	0.943345	-0.383853	-0.000010
N84	N	1.443345	0.116147	0.499990
N85	N	0.941803	-0.461395	-0.000009
N86	N	1.441803	0.038605	0.499991
H87	H	0.878884	-0.490199	-0.000002
H88	H	1.378884	0.009801	0.499998
H89	H	0.617329	0.098797	0.000028
H90	H	1.117329	0.598797	0.500028
H91	H	0.964556	-0.218007	-0.000021
H92	H	1.464556	0.281993	0.499979
H93	H	0.621988	0.294886	-0.000019
H94	H	1.121988	0.794886	0.499981
H95	H	1.223933	0.296107	-0.587075
H96	H	1.723933	0.796107	-0.087075
H97	H	1.223914	0.296120	-0.412958
H98	H	1.723914	0.796120	0.087042
H99	H	1.015409	0.097560	-0.587116
H100	H	1.515409	0.597560	-0.087116
H101	H	1.015390	0.097556	-0.412981
H102	H	1.515390	0.597556	0.087019
H103	H	1.277900	-0.230746	-0.000040
H104	H	1.777900	0.269254	0.499960
