data_functionalizedCrystal
_audit_creation_method	'MofGen! by Chris Wilmer'
_symmetry_space_group_name_H-M	'P1'
_symmetry_Int_Tables_number	1
_symmetry_cell_setting	triclinic
loop_
_symmetry_equiv_pos_as_xyz
  x,y,z
_cell_length_a	15.995350
_cell_length_b	14.971486
_cell_length_c	14.048226
_cell_angle_alpha	90.006640
_cell_angle_beta	90.002813
_cell_angle_gamma	83.553252
loop_
_atom_site_label
_atom_site_type_symbol
_atom_site_fract_x
_atom_site_fract_y
_atom_site_fract_z
O1	O	-1.111103	-0.115295	-0.079080
O2	O	-0.867342	-0.129533	-0.079100
O3	O	-0.995756	0.007793	-0.079083
O4	O	-0.982689	-0.252622	-0.079098
O5	O	-0.995741	0.007802	0.079238
O6	O	-0.867327	-0.129525	0.079221
O7	O	-1.111088	-0.115287	0.079241
Zn8	Zn	-0.989205	-0.122405	0.104368
Zn9	Zn	-0.989225	-0.122415	-0.104227
O10	O	-0.982674	-0.252614	0.079224
C11	C	-0.836139	-0.128940	0.000058
C12	C	-0.743187	-0.127175	0.000051
C13	C	-0.995164	0.041122	0.000077
C14	C	-0.993413	0.140417	0.000076
C15	C	-1.142291	-0.115880	0.000081
C16	C	-1.235243	-0.117645	0.000082
C17	C	-0.405433	-0.120838	0.000071
C18	C	-0.452769	-0.023037	0.000430
C19	C	-0.549461	-0.024802	0.000066
C20	C	-0.572997	-0.123982	0.000062
C21	C	-0.531967	-0.172225	-0.090347
C22	C	-0.435329	-0.169768	-0.090416
C23	C	-0.434974	-0.171780	0.089625
C24	C	-0.531919	-0.171757	0.090814
C25	C	-0.667696	-0.125763	0.000053
C26	C	-0.310733	-0.119060	0.000073
C27	C	-0.983266	-0.285942	0.000061
C28	C	-0.985017	-0.385237	0.000056
N29	N	-0.989197	-0.122397	0.246729
C30	C	-1.068852	0.197728	0.000083
C31	C	-1.067202	0.291026	0.000073
C32	C	-0.990111	0.327010	0.000064
C33	C	-0.914666	0.269691	0.000054
C34	C	-0.916317	0.176395	0.000057
C35	C	-0.911229	0.464150	0.000050
C36	C	-0.909577	0.557452	0.000049
C37	C	-1.062114	0.578780	0.000067
C38	C	-1.063766	0.485484	0.000070
C39	C	-0.988320	0.428172	0.000062
N40	N	-0.989239	-0.122416	-0.246588
C41	C	-1.046076	-0.061614	0.296554
C42	C	-1.046082	-0.061613	0.396212
C43	C	-0.989212	-0.122401	0.446042
C44	C	-0.932326	-0.183187	0.396210
C45	C	-0.932317	-0.183182	0.296554
C46	C	-0.932350	-0.183193	0.603924
C47	C	-0.932360	-0.183199	0.703587
C48	C	-1.046115	-0.061624	0.703582
C49	C	-1.046106	-0.061620	0.603926
C50	C	-0.989221	-0.122407	0.554100
H51	H	-0.577846	0.013119	0.064875
H52	H	-0.403152	-0.241572	-0.094522
H53	H	-0.403285	-0.243888	0.090233
C54	C	-1.150185	0.354072	0.000090
C55	C	-1.170042	0.421134	-0.082122
C56	C	-1.253028	0.484183	-0.082105
C57	C	-1.316157	0.480169	0.000123
C58	C	-1.296302	0.413105	0.082340
C59	C	-1.213316	0.350056	0.082323
H60	H	-1.123308	0.424107	-0.142997
H61	H	-1.267725	0.533828	-0.142968
H62	H	-1.377588	0.526842	0.000135
H63	H	-1.343035	0.410132	0.143216
H64	H	-1.198618	0.300411	0.143187
H65	H	-1.123545	0.625449	0.000070
C66	C	-0.869750	-0.250047	0.241742
C67	C	-0.807222	-0.316943	0.296550
C68	C	-0.744649	-0.383807	0.241741
C69	C	-0.744605	-0.383773	0.132123
C70	C	-0.807135	-0.316874	0.077309
C71	C	-0.869707	-0.250011	0.132119
H72	H	-0.807253	-0.316970	0.377701
H73	H	-0.698360	-0.433330	0.282318
H74	H	-0.698285	-0.433269	0.091550
H75	H	-0.807104	-0.316847	-0.003842
H76	H	-0.915996	-0.200487	0.091541
H77	H	-1.092390	-0.012118	0.255989
H78	H	-0.886049	-0.232698	0.744153
H79	H	-0.577287	0.013369	-0.064851
H80	H	-0.434202	0.016060	0.065265
H81	H	-0.846803	0.586747	0.000057
H82	H	-0.886017	-0.232678	0.436787
C83	C	-0.828238	0.401106	0.000045
C84	C	-0.808392	0.334044	0.082258
C85	C	-0.725403	0.271001	0.082258
C86	C	-0.662260	0.275019	0.000045
C87	C	-0.682104	0.342083	-0.082175
C88	C	-0.765093	0.405126	-0.082175
H89	H	-0.855135	0.331067	0.143123
H90	H	-0.710713	0.221355	0.143123
H91	H	-0.600826	0.228350	0.000045
H92	H	-0.635361	0.345060	-0.143039
H93	H	-0.779783	0.454772	-0.143040
C94	C	-0.570243	-0.126960	-0.181243
C95	C	-0.638674	-0.046288	-0.173622
C96	C	-0.676944	-0.001013	-0.264516
C97	C	-0.646784	-0.036409	-0.363031
C98	C	-0.578349	-0.117085	-0.370656
C99	C	-0.540078	-0.162360	-0.279762
H100	H	-0.661004	-0.020082	-0.100692
H101	H	-0.727604	0.058709	-0.258871
H102	H	-0.675114	-0.002894	-0.430316
H103	H	-0.556019	-0.143291	-0.443586
H104	H	-0.489418	-0.222082	-0.285407
C105	C	-0.833332	0.113348	0.000051
C106	C	-0.770196	0.117368	-0.082168
C107	C	-0.687209	0.054321	-0.082180
C108	C	-0.667359	-0.012746	0.000028
C109	C	-0.730497	-0.016769	0.082253
C110	C	-0.813484	0.046278	0.082265
H111	H	-0.784889	0.167018	-0.143029
H112	H	-0.640470	0.057300	-0.143049
H113	H	-0.605927	-0.059417	0.000019
H114	H	-0.715804	-0.066419	0.143114
H115	H	-0.860223	0.043300	0.143134
H116	H	-0.886026	-0.232690	0.563359
C117	C	-0.407195	-0.128581	0.182208
C118	C	-0.313066	-0.123981	0.201894
C119	C	-0.285291	-0.080772	0.294472
C120	C	-0.351645	-0.042165	0.367365
C121	C	-0.445780	-0.046764	0.347681
C122	C	-0.473555	-0.089972	0.255103
H123	H	-0.263942	-0.152562	0.147933
H124	H	-0.215605	-0.077368	0.309043
H125	H	-0.331084	-0.010179	0.435897
H126	H	-0.494905	-0.018183	0.401643
H127	H	-0.543241	-0.093377	0.240532
C128	C	-0.426257	0.029537	-0.086664
C129	C	-0.361870	-0.015946	-0.158009
C130	C	-0.335356	0.036625	-0.245105
C131	C	-0.373231	0.134679	-0.260856
C132	C	-0.437622	0.180168	-0.189508
C133	C	-0.464135	0.127597	-0.102413
H134	H	-0.333829	-0.088536	-0.146352
H135	H	-0.287690	0.002951	-0.297921
H136	H	-0.353604	0.173595	-0.325329
H137	H	-0.465662	0.252758	-0.201166
H138	H	-0.511802	0.161271	-0.049597
H139	H	-1.092397	-0.012119	0.436780
C140	C	-1.153655	0.158150	0.000094
C141	C	-1.216341	0.179791	0.082309
C142	C	-1.301146	0.140215	0.082317
C143	C	-1.323265	0.078998	0.000111
C144	C	-1.260578	0.057354	-0.082110
C145	C	-1.175773	0.096930	-0.082118
H146	H	-1.199969	0.225110	0.143169
H147	H	-1.347551	0.156238	0.143183
H148	H	-1.386043	0.049702	0.000117
H149	H	-1.276950	0.012035	-0.142970
H150	H	-1.129367	0.080907	-0.142984
H151	H	-0.416991	-0.134594	-0.157995
H152	H	-0.851897	0.298997	0.000040
C153	C	-1.108663	0.005244	0.549108
C154	C	-1.107165	0.107103	0.562819
C155	C	-1.169720	0.173969	0.507999
C156	C	-1.233774	0.138975	0.439468
C157	C	-1.235274	0.037111	0.425754
C158	C	-1.172719	-0.029755	0.480574
H159	H	-1.059746	0.133012	0.613552
H160	H	-1.168609	0.249375	0.518152
H161	H	-1.280081	0.188473	0.398887
H162	H	-1.282693	0.011202	0.375020
H163	H	-1.173831	-0.105162	0.470421
H164	H	-1.092432	-0.012129	0.744156
H165	H	-0.559194	-0.136539	0.157697
H166	H	-0.546165	-0.245090	-0.093712
C167	C	-0.552758	-0.269469	0.098185
C168	C	-0.607682	-0.307762	0.021583
C169	C	-0.628515	-0.405481	0.028944
C170	C	-0.594424	-0.464906	0.112906
C171	C	-0.539497	-0.426614	0.189513
C172	C	-0.518663	-0.328896	0.182153
H173	H	-0.632921	-0.263771	-0.040576
H174	H	-0.669177	-0.433827	-0.027766
H175	H	-0.609847	-0.537243	0.118355
H176	H	-0.514257	-0.470605	0.251672
H177	H	-0.478002	-0.300550	0.238863
H178	H	-1.126540	0.456189	0.000084
