data_functionalizedCrystal
_audit_creation_method	'MofGen! by Chris Wilmer'
_symmetry_space_group_name_H-M	'P1'
_symmetry_Int_Tables_number	1
_symmetry_cell_setting	triclinic
loop_
_symmetry_equiv_pos_as_xyz
  x,y,z
_cell_length_a	23.532407
_cell_length_b	15.944551
_cell_length_c	15.021413
_cell_angle_alpha	89.996935
_cell_angle_beta	89.998075
_cell_angle_gamma	96.826292
loop_
_atom_site_label
_atom_site_type_symbol
_atom_site_fract_x
_atom_site_fract_y
_atom_site_fract_z
O1	O	0.755658	-0.101953	-0.073923
O2	O	1.005658	0.148047	0.176077
O3	O	1.255658	0.398047	0.426077
O4	O	1.505658	0.648047	0.676077
O5	O	0.589851	-0.116707	-0.073949
O6	O	0.839851	0.133293	0.176051
O7	O	1.089851	0.383293	0.426051
O8	O	1.339851	0.633293	0.676051
O9	O	0.677282	0.012983	-0.073927
O10	O	0.927282	0.262983	0.176073
O11	O	1.177282	0.512983	0.426073
O12	O	1.427282	0.762983	0.676073
O13	O	0.668227	-0.231643	-0.073945
O14	O	0.918227	0.018357	0.176055
O15	O	1.168227	0.268357	0.426055
O16	O	1.418227	0.518357	0.676055
O17	O	0.677268	0.012965	0.074137
O18	O	0.927268	0.262965	0.324137
O19	O	1.177268	0.512965	0.574137
O20	O	1.427268	0.762965	0.824137
O21	O	0.589838	-0.116725	0.074115
O22	O	0.839838	0.133275	0.324115
O23	O	1.089838	0.383275	0.574115
O24	O	1.339838	0.633275	0.824115
O25	O	0.755644	-0.101972	0.074141
O26	O	1.005644	0.148028	0.324141
O27	O	1.255644	0.398028	0.574141
O28	O	1.505644	0.648028	0.824141
Zn29	Zn	0.672738	-0.109351	0.097636
Zn30	Zn	0.922738	0.140649	0.347636
Zn31	Zn	1.172738	0.390649	0.597636
Zn32	Zn	1.422738	0.640649	0.847636
Zn33	Zn	0.672757	-0.109327	-0.097444
Zn34	Zn	0.922757	0.140673	0.152556
Zn35	Zn	1.172757	0.390673	0.402556
Zn36	Zn	1.422757	0.640673	0.652556
O37	O	0.668213	-0.231661	0.074119
O38	O	0.918213	0.018339	0.324119
O39	O	1.168213	0.268339	0.574119
O40	O	1.418213	0.518339	0.824119
C41	C	0.568627	-0.116340	0.000080
C42	C	0.818627	0.133660	0.250080
C43	C	1.068627	0.383660	0.500080
C44	C	1.318627	0.633660	0.750080
C45	C	0.505406	-0.115211	0.000070
C46	C	0.755406	0.134789	0.250070
C47	C	1.005406	0.384789	0.500070
C48	C	1.255406	0.634789	0.750070
C49	C	0.676899	0.044265	0.000105
C50	C	0.926899	0.294265	0.250105
C51	C	1.176899	0.544265	0.500105
C52	C	1.426899	0.794265	0.750105
C53	C	0.675772	0.137501	0.000105
C54	C	0.925772	0.387501	0.250105
C55	C	1.175772	0.637501	0.500105
C56	C	1.425772	0.887501	0.750105
C57	C	0.668596	-0.262943	0.000085
C58	C	0.918596	-0.012943	0.250085
C59	C	1.168596	0.237057	0.500085
C60	C	1.418596	0.487057	0.750085
C61	C	0.669723	-0.356179	0.000079
C62	C	0.919723	-0.106179	0.250079
C63	C	1.169723	0.143821	0.500079
C64	C	1.419723	0.393821	0.750079
C65	C	0.106572	-0.184874	0.000105
C66	C	0.356572	0.065126	0.250105
C67	C	0.606572	0.315126	0.500105
C68	C	0.856572	0.565126	0.750105
C69	C	0.047168	-0.183824	0.000111
C70	C	0.297168	0.066176	0.250111
C71	C	0.547168	0.316176	0.500111
C72	C	0.797168	0.566176	0.750111
O73	O	0.010674	-0.248403	0.000138
O74	O	0.260674	0.001597	0.250138
O75	O	0.510674	0.251597	0.500138
O76	O	0.760674	0.501597	0.750138
N77	N	0.024243	-0.106724	0.000115
N78	N	0.274243	0.143276	0.250115
N79	N	0.524243	0.393276	0.500115
N80	N	0.774243	0.643276	0.750115
C81	C	0.060726	-0.030668	0.000122
C82	C	0.310726	0.219332	0.250122
C83	C	0.560726	0.469332	0.500122
C84	C	0.810726	0.719332	0.750122
O85	O	0.035772	0.035009	0.000127
O86	O	0.285772	0.285009	0.250127
O87	O	0.535772	0.535009	0.500127
O88	O	0.785772	0.785009	0.750127
C89	C	0.120129	-0.031718	0.000123
C90	C	0.370129	0.218282	0.250123
C91	C	0.620129	0.468282	0.500123
C92	C	0.870129	0.718282	0.750123
C93	C	0.143051	-0.108823	0.000110
C94	C	0.393051	0.141177	0.250110
C95	C	0.643051	0.391177	0.500110
C96	C	0.893051	0.641177	0.750110
C97	C	0.129494	-0.261973	0.000093
C98	C	0.379494	-0.011973	0.250093
C99	C	0.629494	0.238027	0.500093
C100	C	0.879494	0.488027	0.750093
C101	C	0.188894	-0.263022	0.000086
C102	C	0.438894	-0.013022	0.250086
C103	C	0.688894	0.236978	0.500086
C104	C	0.938894	0.486978	0.750086
C105	C	0.225373	-0.186971	0.000091
C106	C	0.475373	0.063029	0.250091
C107	C	0.725373	0.313029	0.500091
C108	C	0.975373	0.563029	0.750091
C109	C	0.202451	-0.109872	0.000103
C110	C	0.452451	0.140128	0.250103
C111	C	0.702451	0.390128	0.500103
C112	C	0.952451	0.640128	0.750103
C113	C	0.156611	0.044337	0.000137
C114	C	0.406611	0.294337	0.250137
C115	C	0.656611	0.544337	0.500137
C116	C	0.906611	0.794337	0.750137
C117	C	0.216018	0.043281	0.000138
C118	C	0.466018	0.293281	0.250138
C119	C	0.716018	0.543281	0.500138
C120	C	0.966018	0.793281	0.750138
C121	C	0.238939	-0.033825	0.000125
C122	C	0.488939	0.216175	0.250125
C123	C	0.738939	0.466175	0.500125
C124	C	0.988939	0.716175	0.750125
C125	C	0.298329	-0.034871	0.000100
C126	C	0.548329	0.215129	0.250100
C127	C	0.798329	0.465129	0.500100
C128	C	1.048329	0.715129	0.750100
N129	N	0.321254	-0.111971	0.000096
N130	N	0.571254	0.138029	0.250096
N131	N	0.821254	0.388029	0.500096
N132	N	1.071254	0.638029	0.750096
C133	C	0.284776	-0.188022	0.000092
C134	C	0.534776	0.061978	0.250092
C135	C	0.784776	0.311978	0.500092
C136	C	1.034776	0.561978	0.750092
C137	C	-0.064025	-0.028468	0.000122
C138	C	0.185975	0.221532	0.250122
C139	C	0.435975	0.471532	0.500122
C140	C	0.685975	0.721532	0.750122
C141	C	-0.123427	-0.027417	0.000115
C142	C	0.126573	0.222583	0.250115
C143	C	0.376573	0.472583	0.500115
C144	C	0.626573	0.722583	0.750115
C145	C	-0.136981	-0.180574	0.000105
C146	C	0.113019	0.069426	0.250105
C147	C	0.363019	0.319426	0.500105
C148	C	0.613019	0.569426	0.750105
C149	C	-0.077578	-0.181624	0.000106
C150	C	0.172422	0.068376	0.250106
C151	C	0.422422	0.318376	0.500106
C152	C	0.672422	0.568376	0.750106
C153	C	-0.041100	-0.105569	0.000118
C154	C	0.208900	0.144431	0.250118
C155	C	0.458900	0.394431	0.500118
C156	C	0.708900	0.644431	0.750118
C157	C	0.409521	-0.190219	0.000076
C158	C	0.659521	0.059781	0.250076
C159	C	0.909521	0.309781	0.500076
C160	C	1.159521	0.559781	0.750076
C161	C	0.468927	-0.191261	0.000065
C162	C	0.718927	0.058739	0.250065
C163	C	0.968927	0.308739	0.500065
C164	C	1.218927	0.558739	0.750065
C165	C	0.482476	-0.038104	0.000079
C166	C	0.732476	0.211896	0.250079
C167	C	0.982476	0.461896	0.500079
C168	C	1.232476	0.711896	0.750079
C169	C	0.423075	-0.037062	0.000086
C170	C	0.673075	0.212938	0.250086
C171	C	0.923075	0.462938	0.500086
C172	C	1.173075	0.712938	0.750086
C173	C	0.386599	-0.113126	0.000087
C174	C	0.636599	0.136874	0.250087
C175	C	0.886599	0.386874	0.500087
C176	C	1.136599	0.636874	0.750087
O177	O	0.334859	0.029673	0.000076
O178	O	0.584859	0.279673	0.250076
O179	O	0.834859	0.529673	0.500076
O180	O	1.084859	0.779673	0.750076
O181	O	0.309738	-0.253687	0.000098
O182	O	0.559738	-0.003687	0.250098
O183	O	0.809738	0.246313	0.500098
O184	O	1.059738	0.496313	0.750098
C185	C	0.776868	-0.102338	0.000111
C186	C	1.026868	0.147662	0.250111
C187	C	1.276868	0.397662	0.500111
C188	C	1.526868	0.647662	0.750111
C189	C	0.840090	-0.103468	0.000115
C190	C	1.090090	0.146532	0.250115
C191	C	1.340090	0.396532	0.500115
C192	C	1.590090	0.646532	0.750115
N193	N	0.672730	-0.109367	0.230774
N194	N	0.922730	0.140633	0.480774
N195	N	1.172730	0.390633	0.730774
N196	N	1.422730	0.640633	0.980774
C197	C	0.618885	0.351879	0.000084
C198	C	0.868885	0.601879	0.250084
C199	C	1.118885	0.851879	0.500084
C200	C	1.368885	1.101879	0.750084
C201	C	0.645295	0.413109	0.073093
C202	C	0.895295	0.663109	0.323093
C203	C	1.145295	0.913109	0.573093
C204	C	1.395295	1.163109	0.823093
C205	C	0.673733	0.308210	0.000098
C206	C	0.923733	0.558210	0.250098
C207	C	1.173733	0.808210	0.500098
C208	C	1.423733	1.058210	0.750098
C209	C	0.645321	0.413111	-0.072887
C210	C	0.895321	0.663111	0.177113
C211	C	1.145321	0.913111	0.427113
C212	C	1.395321	1.163111	0.677113
C213	C	0.671760	0.473106	0.000087
C214	C	0.921760	0.723106	0.250087
C215	C	1.171760	0.973106	0.500087
C216	C	1.421760	1.223106	0.750087
C217	C	0.700158	0.368212	0.073167
C218	C	0.950158	0.618212	0.323167
C219	C	1.200158	0.868212	0.573167
C220	C	1.450158	1.118212	0.823167
C221	C	0.700177	0.368208	-0.072878
C222	C	0.950177	0.618208	0.177122
C223	C	1.200177	0.868208	0.427122
C224	C	1.450177	1.118208	0.677122
C225	C	0.726627	0.429421	0.000148
C226	C	0.976627	0.679421	0.250148
C227	C	1.226627	0.929421	0.500148
C228	C	1.476627	1.179421	0.750148
C229	C	0.674869	0.213217	0.000105
C230	C	0.924869	0.463217	0.250105
C231	C	1.174869	0.713217	0.500105
C232	C	1.424869	0.963217	0.750105
C233	C	0.670629	0.568097	0.000087
C234	C	0.920629	0.818097	0.250087
C235	C	1.170629	1.068097	0.500087
C236	C	1.420629	1.318097	0.750087
N237	N	0.672770	-0.109304	-0.230582
N238	N	0.922770	0.140696	0.019418
N239	N	1.172770	0.390696	0.269418
N240	N	1.422770	0.640696	0.519418
C241	C	0.632296	-0.169308	0.470447
C242	C	0.882296	0.080692	0.720447
C243	C	1.132296	0.330692	0.970447
C244	C	1.382296	0.580692	1.220447
C245	C	0.683757	-0.185181	0.529789
C246	C	0.933757	0.064819	0.779789
C247	C	1.183757	0.314819	1.029789
C248	C	1.433757	0.564819	1.279789
C249	C	0.672745	-0.109346	0.412381
C250	C	0.922745	0.140654	0.662381
C251	C	1.172745	0.390654	0.912381
C252	C	1.422745	0.640654	1.162381
C253	C	0.621298	-0.093492	0.529781
C254	C	0.871298	0.156508	0.779781
C255	C	1.121298	0.406508	1.029781
C256	C	1.371298	0.656508	1.279781
C257	C	0.672754	-0.109328	0.587805
C258	C	0.922754	0.140672	0.837805
C259	C	1.172754	0.390672	1.087805
C260	C	1.422754	0.640672	1.337805
C261	C	0.724232	-0.125257	0.470416
C262	C	0.974232	0.124743	0.720416
C263	C	1.224232	0.374743	0.970416
C264	C	1.474232	0.624743	1.220416
C265	C	0.661739	-0.033535	0.470403
C266	C	0.911739	0.216465	0.720403
C267	C	1.161739	0.466465	0.970403
C268	C	1.411739	0.716465	1.220403
C269	C	0.713237	-0.049376	0.529718
C270	C	0.963237	0.200624	0.779718
C271	C	1.213237	0.450624	1.029718
C272	C	1.463237	0.700624	1.279718
C273	C	0.672738	-0.109359	0.311324
C274	C	0.922738	0.140641	0.561324
C275	C	1.172738	0.390641	0.811324
C276	C	1.422738	0.640641	1.061324
C277	C	0.672766	-0.109314	0.688860
C278	C	0.922766	0.140686	0.938860
C279	C	1.172766	0.390686	1.188860
C280	C	1.422766	0.640686	1.438860
H281	H	0.487586	-0.254052	0.000054
H282	H	0.737586	-0.004052	0.250054
H283	H	0.987586	0.245948	0.500054
H284	H	1.237586	0.495948	0.750054
H285	H	0.767753	-0.138736	0.444449
H286	H	1.017753	0.111264	0.694449
H287	H	1.267753	0.361264	0.944449
H288	H	1.517753	0.611264	1.194449
H289	H	0.772194	0.462964	0.000197
H290	H	1.022194	0.712964	0.250197
H291	H	1.272194	0.962964	0.500197
H292	H	1.522194	1.212964	0.750197
Cl293	Cl	0.548595	0.299861	0.000179
Cl294	Cl	0.798595	0.549861	0.250179
Cl295	Cl	1.048595	0.799861	0.500179
Cl296	Cl	1.298595	1.049861	0.750179
H297	H	0.598124	-0.220056	0.444423
H298	H	0.848124	0.029944	0.694423
H299	H	1.098124	0.279944	0.944423
H300	H	1.348124	0.529944	1.194423
H301	H	0.723362	0.348281	-0.134597
H302	H	0.973362	0.598281	0.115403
H303	H	1.223362	0.848281	0.365403
H304	H	1.473362	1.098281	0.615403
Cl305	Cl	0.609470	0.443842	0.168378
Cl306	Cl	0.859470	0.693842	0.418378
Cl307	Cl	1.109470	0.943842	0.668378
Cl308	Cl	1.359470	1.193842	0.918378
Cl309	Cl	0.609498	0.443840	-0.168176
Cl310	Cl	0.859498	0.693840	0.081824
Cl311	Cl	1.109498	0.943840	0.331824
Cl312	Cl	1.359498	1.193840	0.581824
H313	H	0.693074	-0.249285	0.555873
H314	H	0.943074	0.000715	0.805873
H315	H	1.193074	0.250715	1.055873
H316	H	1.443074	0.500715	1.305873
H317	H	0.723332	0.348410	0.134958
H318	H	0.973332	0.598410	0.384958
H319	H	1.223332	0.848410	0.634958
H320	H	1.473332	1.098410	0.884958
Cl321	Cl	0.766110	0.028929	0.569654
Cl322	Cl	1.016110	0.278929	0.819654
Cl323	Cl	1.266110	0.528929	1.069654
Cl324	Cl	1.516110	0.778929	1.319654
Cl325	Cl	0.647328	0.065406	0.430095
Cl326	Cl	0.897328	0.315406	0.680095
Cl327	Cl	1.147328	0.565406	0.930095
Cl328	Cl	1.397328	0.815406	1.180095
Cl329	Cl	-0.152234	0.069520	0.000109
Cl330	Cl	0.097766	0.319520	0.250109
Cl331	Cl	0.347766	0.569520	0.500109
Cl332	Cl	0.597766	0.819520	0.750109
H333	H	0.577786	-0.080090	0.555861
H334	H	0.827786	0.169910	0.805861
H335	H	1.077786	0.419910	1.055861
H336	H	1.327786	0.669910	1.305861
H337	H	0.207551	-0.325809	0.000075
H338	H	0.457551	-0.075809	0.250075
H339	H	0.707551	0.174191	0.500075
H340	H	0.957551	0.424191	0.750075
Cl341	Cl	0.083645	-0.357593	0.000084
Cl342	Cl	0.333645	-0.107593	0.250084
Cl343	Cl	0.583645	0.142407	0.500084
Cl344	Cl	0.833645	0.392407	0.750084
Cl345	Cl	-0.048769	-0.278560	0.000092
Cl346	Cl	0.201231	-0.028560	0.250092
Cl347	Cl	0.451231	0.221440	0.500092
Cl348	Cl	0.701231	0.471440	0.750092
Cl349	Cl	-0.182851	-0.276181	0.000104
Cl350	Cl	0.067149	-0.026181	0.250104
Cl351	Cl	0.317149	0.223819	0.500104
Cl352	Cl	0.567149	0.473819	0.750104
Cl353	Cl	0.363674	-0.285843	0.000076
Cl354	Cl	0.613674	-0.035843	0.250076
Cl355	Cl	0.863674	0.214157	0.500076
Cl356	Cl	1.113674	0.464157	0.750076
H357	H	0.137960	0.107125	0.000148
H358	H	0.387960	0.357125	0.250148
H359	H	0.637960	0.607125	0.500148
H360	H	0.887960	0.857125	0.750148
Cl361	Cl	0.261872	0.138900	0.000155
Cl362	Cl	0.511872	0.388900	0.250155
Cl363	Cl	0.761872	0.638900	0.500155
Cl364	Cl	1.011872	0.888900	0.750155
Cl365	Cl	0.394259	0.059872	0.000106
Cl366	Cl	0.644259	0.309872	0.250106
Cl367	Cl	0.894259	0.559872	0.500106
Cl368	Cl	1.144259	0.809872	0.750106
Cl369	Cl	-0.018172	0.067155	0.000127
Cl370	Cl	0.231828	0.317155	0.250127
Cl371	Cl	0.481828	0.567155	0.500127
Cl372	Cl	0.731828	0.817155	0.750127
H373	H	0.512187	0.023814	0.000080
H374	H	0.762187	0.273814	0.250080
H375	H	1.012187	0.523814	0.500080
H376	H	1.262187	0.773814	0.750080
