data_functionalizedCrystal
_audit_creation_method	'MofGen! by Chris Wilmer'
_symmetry_space_group_name_H-M	'P1'
_symmetry_Int_Tables_number	1
_symmetry_cell_setting	triclinic
loop_
_symmetry_equiv_pos_as_xyz
  x,y,z
_cell_length_a	14.446369
_cell_length_b	14.628931
_cell_length_c	14.446369
_cell_angle_alpha	120.004875
_cell_angle_beta	90.001603
_cell_angle_gamma	59.998591
loop_
_atom_site_label
_atom_site_type_symbol
_atom_site_fract_x
_atom_site_fract_y
_atom_site_fract_z
Zr1	Zr	0.891770	1.000543	0.121452
O2	O	0.743959	1.191272	0.269271
O3	O	0.937082	0.809830	0.076137
O4	O	0.937079	1.000556	0.269263
O5	O	0.743964	1.000530	-0.076196
O6	O	1.089416	1.000548	0.269258
O7	O	0.743962	1.000546	0.076145
O8	O	1.089422	0.659374	-0.076210
O9	O	0.743959	1.341704	0.269271
O10	O	1.070095	0.888261	0.056807
O11	O	0.956409	0.888255	-0.056879
O12	O	0.956406	1.112810	0.170502
O13	O	0.842720	1.112804	0.056816
Zr14	Zr	1.134734	1.000504	-0.121524
Zr15	Zr	1.134730	1.000530	0.121443
Zr16	Zr	0.891774	1.000517	-0.121515
Zr17	Zr	0.891771	1.240465	0.121452
Zr18	Zr	1.134734	0.760583	-0.121524
O19	O	1.089422	1.191217	-0.076209
O20	O	1.089417	1.191254	0.269258
O21	O	0.743964	1.191236	-0.076196
O22	O	1.282546	0.809775	-0.269342
O23	O	1.282540	0.809811	0.076125
O24	O	0.937088	0.809794	-0.269330
O25	O	1.282540	1.000517	0.076125
O26	O	1.089425	1.000491	-0.269335
O27	O	0.937088	1.000499	-0.269329
O28	O	1.282543	1.000501	-0.076216
O29	O	0.937080	1.341694	0.269264
O30	O	1.089425	0.659353	-0.269336
O31	O	1.282546	0.659343	-0.269343
O32	O	1.282542	0.659363	-0.076217
O33	O	0.743962	1.341684	0.076145
O34	O	0.937083	1.341673	0.076138
O35	O	1.070099	0.888237	-0.170574
O36	O	1.183784	0.888243	-0.056887
O37	O	1.070095	1.112792	0.056807
O38	O	0.956410	1.112786	-0.056879
C39	C	1.013252	0.700418	-0.000036
C40	C	1.013252	0.598565	-0.000036
C41	C	1.069647	0.553159	0.056360
C42	C	1.069649	0.447889	0.056361
C43	C	0.709346	1.000540	-0.000025
C44	C	0.606203	1.000546	-0.000021
C45	C	0.387833	1.142154	0.071325
C46	C	0.495065	1.142250	0.071726
C47	C	0.602879	0.930210	0.052282
C48	C	0.495110	0.931109	0.052805
C49	C	0.496476	0.928174	-0.123760
C50	C	0.602445	0.930842	-0.123565
C51	C	1.317158	1.000507	-0.000047
C52	C	1.420301	1.000502	-0.000051
C53	C	1.013247	1.000556	0.303878
C54	C	1.013246	1.000567	0.407024
C55	C	1.013253	1.300629	-0.000035
C56	C	1.013253	1.402482	-0.000035
C57	C	0.941530	1.142207	0.518026
C58	C	0.941142	1.142265	0.625336
C59	C	0.961317	0.929801	0.518155
C60	C	0.960779	0.930735	0.411314
C61	C	1.136921	0.928647	0.410156
C62	C	1.136730	0.931286	0.518813
C63	C	1.013252	1.000509	0.696059
C64	C	1.013237	1.000549	0.592939
C65	C	1.317158	0.700402	-0.000047
C66	C	1.420301	0.598543	-0.000051
C67	C	1.013257	0.700386	-0.303950
C68	C	1.013258	0.598522	-0.407096
C69	C	1.317163	0.700370	-0.303961
C70	C	1.420307	0.598500	-0.407111
C71	C	0.709342	1.300677	0.303890
C72	C	0.606197	1.402547	0.407039
C73	C	0.709347	1.300645	-0.000024
C74	C	0.606204	1.402504	-0.000020
C75	C	1.013248	1.300661	0.303879
C76	C	1.013246	1.402525	0.407024
C77	C	1.409887	0.553141	0.056347
C78	C	1.516490	0.447864	0.056344
C79	C	1.069657	0.553099	-0.509482
C80	C	1.069659	0.447818	-0.616090
C81	C	1.522688	0.553087	-0.396702
C82	C	1.629295	0.447799	-0.503311
H83	H	0.964963	0.441530	-0.048315
H84	H	0.521764	0.827181	0.004179
O85	O	1.534265	0.604833	-0.280358
H86	H	1.581295	0.524550	-0.270432
H87	H	1.717123	0.408740	-0.494575
O88	O	0.428400	0.997357	0.173387
H89	H	0.481366	0.943981	0.207757
H90	H	1.411579	0.559438	-0.494948
H91	H	0.964973	0.559502	-0.048321
H92	H	0.493306	1.197716	0.036916
H93	H	0.964971	0.559472	-0.398365
H94	H	0.850840	1.197241	0.518929
H95	H	1.507751	0.408815	0.104625
O96	O	0.949413	0.454106	-0.489302
H97	H	0.983774	0.373777	-0.479428
O98	O	1.502552	0.454091	-0.617291
H99	H	1.455591	0.559670	-0.575940
H100	H	1.117935	0.592213	0.104637
H101	H	1.117926	0.408846	0.104649
H102	H	0.332847	1.197485	0.162031
O103	O	0.316341	1.215811	0.025115
H104	H	0.303177	1.152253	-0.049215
H105	H	0.492618	1.197786	0.162983
H106	H	0.869783	0.980421	0.411446
H107	H	1.627613	0.441480	-0.048353
H108	H	1.508136	0.559480	-0.048334
O109	O	1.133630	0.396084	-0.732427
H110	H	1.073681	0.414450	-0.779385
O111	O	0.706563	0.792205	-0.013237
H112	H	0.761696	0.772238	-0.083941
O113	O	0.820295	1.215465	0.696426
H114	H	0.761903	1.250944	0.654195
O115	O	0.605689	0.994938	0.171728
H116	H	0.609448	1.077190	0.194058
H117	H	1.190597	0.824304	0.331920
O118	O	0.430233	0.988196	-0.181646
H119	H	0.399634	1.091122	-0.132633
O120	O	0.601793	0.998753	-0.175332
H121	H	0.526063	1.100617	-0.123049
O122	O	0.707293	0.793892	-0.199934
H123	H	0.783401	0.795074	-0.203627
H124	H	0.523916	0.823825	-0.177193
H125	H	0.975942	1.197740	0.679769
H126	H	0.976142	1.198108	0.520538
O127	O	1.025515	0.793066	0.307169
H128	H	1.057059	0.726119	0.333268
H129	H	1.117934	0.592159	-0.518213
O130	O	1.027192	0.791761	0.482031
H131	H	1.097804	0.772070	0.517084
O132	O	0.841935	0.994083	0.586297
H133	H	0.788900	1.096619	0.615585
H134	H	1.180339	0.974290	0.406202
H135	H	1.175522	0.982874	0.570402
O136	O	1.213429	0.794362	0.484965
H137	H	1.179564	0.738788	0.435015
O138	O	1.293547	0.604885	0.120323
H139	H	1.228074	0.679452	0.110284
