data_functionalizedCrystal
_audit_creation_method	'MofGen! by Chris Wilmer'
_symmetry_space_group_name_H-M	'P1'
_symmetry_Int_Tables_number	1
_symmetry_cell_setting	triclinic
loop_
_symmetry_equiv_pos_as_xyz
  x,y,z
_cell_length_a	19.288864
_cell_length_b	11.792241
_cell_length_c	17.766277
_cell_angle_alpha	89.993523
_cell_angle_beta	89.976791
_cell_angle_gamma	83.664831
loop_
_atom_site_label
_atom_site_type_symbol
_atom_site_fract_x
_atom_site_fract_y
_atom_site_fract_z
O1	O	0.922157	0.141582	-0.062836
O2	O	0.720005	0.160681	-0.062785
O3	O	0.825987	-0.014113	-0.062806
O4	O	0.816176	0.316377	-0.062814
O5	O	0.825968	-0.014122	0.062382
O6	O	0.719986	0.160673	0.062404
O7	O	0.922139	0.141573	0.062352
Cu8	Cu	0.821061	0.151122	0.073809
Cu9	Cu	0.821083	0.151133	-0.074241
O10	O	0.816157	0.316368	0.062374
C11	C	0.694116	0.160063	-0.000184
C12	C	0.617002	0.158218	-0.000164
C13	C	0.825361	-0.056399	-0.000212
C14	C	0.823517	-0.182385	-0.000212
C15	C	0.572888	0.260779	-0.000178
C16	C	0.500431	0.259046	-0.000187
C17	C	0.472091	0.154746	-0.000196
C18	C	0.516215	0.052171	-0.000177
C19	C	0.588670	0.053907	-0.000161
C20	C	0.363370	0.072757	-0.044078
C21	C	0.290916	0.071025	-0.044099
C22	C	0.248615	0.149387	-0.000241
C23	C	0.278776	0.229499	0.043627
C24	C	0.351232	0.231235	0.043643
C25	C	0.393526	0.152852	-0.000212
C26	C	0.125935	0.250076	-0.000263
C27	C	0.053477	0.248339	-0.000267
C28	C	0.069262	0.041460	-0.000265
C29	C	0.141718	0.043201	-0.000254
C30	C	0.170050	0.147512	-0.000257
C31	C	0.820125	-0.413045	-0.000224
C32	C	0.822009	-0.284689	-0.000218
C33	C	0.948028	0.142192	-0.000250
C34	C	1.025142	0.144037	-0.000275
C35	C	0.816783	0.358654	-0.000222
C36	C	0.818627	0.484640	-0.000226
N37	N	0.821050	0.151114	0.177939
N38	N	0.821099	0.151132	-0.178371
C39	C	0.867994	0.073753	0.217316
C40	C	0.867998	0.073748	0.296118
C41	C	0.821065	0.151123	0.335540
C42	C	0.774112	0.228490	0.296153
C43	C	0.774105	0.228486	0.217353
C44	C	0.812354	0.254534	0.460377
C45	C	0.812366	0.254540	0.539175
C46	C	0.821084	0.151137	0.578586
C47	C	0.829804	0.047723	0.539188
C48	C	0.829797	0.047719	0.460388
C49	C	0.821067	0.151136	0.420985
C50	C	0.868035	0.073764	0.703409
C51	C	0.868034	0.073757	0.782213
C52	C	0.774151	0.228509	0.782246
C53	C	0.774148	0.228506	0.703444
C54	C	0.821094	0.151135	0.664030
H55	H	0.464507	0.342567	-0.000196
O56	O	0.918617	-0.009708	0.174804
H57	H	0.951256	-0.063512	0.215430
H58	H	0.906259	0.010759	0.671318
H59	H	0.493136	-0.032752	-0.000195
H60	H	0.244336	0.293308	0.079341
O61	O	0.839137	-0.063750	0.417821
H62	H	0.890140	-0.111297	0.432851
H63	H	0.624588	-0.029614	-0.000150
H64	H	0.906227	0.010749	0.328185
O65	O	0.723500	0.311955	0.338674
H66	H	0.732682	0.400389	0.323526
H67	H	0.149004	0.335012	-0.000255
O68	O	0.918676	-0.009675	0.824690
H69	H	0.951323	-0.063461	0.784041
O70	O	0.005891	0.358964	-0.000276
H71	H	0.016034	0.408892	-0.051304
O72	O	0.802955	0.366068	0.417871
H73	H	0.796906	0.437976	0.458502
H74	H	0.805270	0.338745	0.571247
O75	O	0.408985	-0.011775	-0.091386
H76	H	0.446051	-0.064499	-0.054389
O77	O	0.839216	-0.063805	0.581695
H78	H	0.890237	-0.111229	0.566556
O79	O	0.383776	0.317616	0.090958
H80	H	0.420271	0.272458	0.132139
O81	O	0.258386	-0.015388	-0.091401
H82	H	0.299972	-0.069606	-0.121879
H83	H	0.735876	0.291484	0.185291
O84	O	0.189301	-0.067424	-0.000247
H85	H	0.222656	-0.071587	0.050788
H86	H	0.735934	0.291505	0.814342
O87	O	0.723523	0.311959	0.660964
H88	H	0.690891	0.365771	0.701613
H89	H	0.046188	-0.043463	-0.000319
O90	O	0.603448	0.373280	-0.000160
H91	H	0.560595	0.444307	-0.000160
