data_functionalizedCrystal
_audit_creation_method	'MofGen! by Chris Wilmer'
_symmetry_space_group_name_H-M	'P1'
_symmetry_Int_Tables_number	1
_symmetry_cell_setting	triclinic
loop_
_symmetry_equiv_pos_as_xyz
  x,y,z
_cell_length_a	8.559649
_cell_length_b	10.540539
_cell_length_c	7.088929
_cell_angle_alpha	83.715612
_cell_angle_beta	95.325015
_cell_angle_gamma	77.152078
loop_
_atom_site_label
_atom_site_type_symbol
_atom_site_fract_x
_atom_site_fract_y
_atom_site_fract_z
O1	O	2.103404	-0.028386	-0.158958
O2	O	1.638947	0.037097	-0.158965
O3	O	1.881772	-0.181461	-0.158959
O4	O	1.860579	0.190172	-0.158964
O5	O	1.914223	-0.210727	0.159017
O6	O	1.671397	0.007830	0.159011
O7	O	2.135855	-0.057653	0.159018
Cu8	Cu	1.906589	-0.027584	0.188048
Cu9	Cu	1.868213	0.007028	-0.187995
O10	O	1.893030	0.160905	0.159012
C11	C	1.595699	0.027426	0.000022
C12	C	1.418487	0.042198	0.000019
C13	C	1.896408	-0.243230	0.000025
C14	C	1.891652	-0.383680	0.000015
C15	C	1.709377	-0.547965	-0.000701
C16	C	1.714270	-0.401917	0.000014
C17	C	1.995547	-0.470987	0.181596
C18	C	1.989509	-0.616912	0.181749
C19	C	1.956214	-0.584526	-0.179849
C20	C	1.957603	-0.437494	-0.182250
C21	C	2.179103	-0.047981	0.000027
C22	C	2.356313	-0.062752	0.000017
C23	C	1.878394	0.222675	0.000023
C24	C	1.883148	0.363125	0.000021
N25	N	1.933593	-0.051929	0.452537
N26	N	1.841222	0.031362	-0.452484
H27	H	1.438655	-0.163903	0.000009
C28	C	1.605556	-0.318663	-0.175801
C29	C	1.513672	-0.384919	-0.317841
C30	C	1.404937	-0.301669	-0.493651
C31	C	1.388086	-0.152163	-0.527421
C32	C	1.479972	-0.085900	-0.385377
C33	C	1.588708	-0.169150	-0.209567
H34	H	1.526144	-0.495599	-0.292846
H35	H	1.336917	-0.350722	-0.598801
H36	H	1.307593	-0.090536	-0.657566
H37	H	1.467501	0.024781	-0.410372
H38	H	1.656728	-0.120096	-0.104417
C39	C	1.711881	0.147967	0.437226
C40	C	1.689930	0.168346	0.217069
C41	C	1.560587	0.284953	0.106764
C42	C	1.453195	0.381182	0.216617
C43	C	1.475142	0.360807	0.436787
C44	C	1.604485	0.244199	0.547091
H45	H	1.769431	0.097109	0.135738
H46	H	1.544341	0.300036	-0.056220
H47	H	1.357447	0.467502	0.134964
H48	H	1.395641	0.432044	0.518118
H49	H	1.620732	0.229116	0.710076
H50	H	1.336134	0.143358	0.000007
H51	H	1.884759	-0.597401	-0.317476
H52	H	1.626018	-0.557244	-0.130916
H53	H	2.084212	-0.645054	-0.181068
H54	H	2.029343	-0.138242	0.534195
H55	H	1.652806	-0.582784	0.128782
H56	H	1.659936	-0.365080	0.130394
H57	H	2.117920	-0.678995	0.189989
H58	H	1.940273	-0.651000	0.317483
H59	H	2.126500	-0.462893	0.188350
H60	H	1.950038	-0.434617	0.316721
H61	H	1.881434	-0.377733	-0.316578
H62	H	2.085809	-0.425804	-0.193212
