data_functionalizedCrystal
_audit_creation_method	'MofGen! by Chris Wilmer'
_symmetry_space_group_name_H-M	'P1'
_symmetry_Int_Tables_number	1
_symmetry_cell_setting	triclinic
loop_
_symmetry_equiv_pos_as_xyz
  x,y,z
_cell_length_a	10.654553
_cell_length_b	10.654550
_cell_length_c	9.730223
_cell_angle_alpha	89.999807
_cell_angle_beta	89.999314
_cell_angle_gamma	84.485540
loop_
_atom_site_label
_atom_site_type_symbol
_atom_site_fract_x
_atom_site_fract_y
_atom_site_fract_z
O1	O	1.667832	0.176412	-0.114302
O2	O	1.302354	0.193214	-0.114301
O3	O	1.493496	0.002074	-0.114296
O4	O	1.476690	0.367552	-0.114306
O5	O	1.493494	0.002079	0.114284
O6	O	1.302351	0.193219	0.114279
O7	O	1.667829	0.176417	0.114278
Zn8	Zn	1.485090	0.184818	0.150571
Zn9	Zn	1.485093	0.184812	-0.150593
O10	O	1.476687	0.367557	0.114274
C11	C	1.255555	0.191982	-0.000010
C12	C	1.116112	0.188288	-0.000010
C13	C	0.919570	0.183077	0.124579
C14	C	1.050591	0.186555	0.124587
C15	C	1.050603	0.186557	-0.124623
C16	C	0.919584	0.183088	-0.124630
C17	C	0.919565	0.183071	0.268459
C18	C	1.050586	0.186548	0.268467
C19	C	1.492261	-0.044722	-0.000008
C20	C	1.488569	-0.184165	-0.000012
C21	C	1.601110	-0.263650	-0.000009
C22	C	1.597634	-0.394670	-0.000018
C23	C	1.369064	-0.366710	-0.000030
C24	C	1.372542	-0.235691	-0.000030
C25	C	1.733073	-0.279794	0.000004
C26	C	1.729596	-0.410815	-0.000006
C27	C	1.714628	0.177649	-0.000015
C28	C	1.854072	0.181342	-0.000024
C29	C	1.477922	0.414352	-0.000018
C30	C	1.481614	0.553796	-0.000022
N31	N	1.485097	0.184822	0.356107
N32	N	1.485096	0.184799	-0.356129
C33	C	1.569757	0.100214	0.428035
C34	C	1.569754	0.100199	0.571918
C35	C	1.400427	0.269411	0.571932
C36	C	1.400425	0.269419	0.428052
C37	C	1.667520	0.002525	0.428028
C38	C	1.667517	0.002509	0.571911
H39	H	1.103959	0.187980	-0.226073
H40	H	1.637004	-0.088714	0.616529
H41	H	0.866258	0.181691	-0.226094
C42	C	1.898456	-0.552685	0.089962
C43	C	1.796689	-0.467203	0.129136
H44	H	1.939871	-0.587490	0.169689
H45	H	1.868479	-0.618365	0.036810
H46	H	1.956047	-0.510162	0.036837
H47	H	1.739093	-0.509727	0.182253
H48	H	1.826665	-0.401512	0.182310
H49	H	1.274599	-0.408679	-0.000045
C50	C	1.233047	0.436665	0.442525
C51	C	1.307357	0.362415	0.348987
H52	H	1.175594	0.494082	0.393710
H53	H	1.187432	0.383955	0.498638
H54	H	1.285722	0.482330	0.498647
H55	H	1.254683	0.316742	0.292871
H56	H	1.352976	0.415132	0.292851
C57	C	1.876817	0.049194	0.512711
C58	C	1.797799	0.031553	0.624641
H59	H	1.957241	0.067129	0.545267
H60	H	1.885732	-0.025249	0.458473
H61	H	1.841073	0.117682	0.458495
H62	H	1.833538	-0.036942	0.678852
H63	H	1.788888	0.106005	0.678902
C64	C	1.712877	-0.423189	-0.245618
C65	C	1.783444	-0.472439	-0.133232
H66	H	1.746126	-0.461229	-0.327863
H67	H	1.627547	-0.440302	-0.235091
H68	H	1.717120	-0.334633	-0.250129
H69	H	1.779193	-0.560994	-0.128715
H70	H	1.868795	-0.455336	-0.143761
H71	H	1.784689	-0.250437	-0.095650
C72	C	1.913177	-0.287526	0.149240
C73	C	1.789555	-0.231809	0.133430
H74	H	1.947970	-0.257932	0.231668
H75	H	1.912711	-0.376539	0.153584
H76	H	1.962694	-0.265875	0.073199
H77	H	1.740035	-0.253467	0.209467
H78	H	1.790014	-0.142776	0.129097
H79	H	0.873280	0.269862	0.323702
H80	H	1.280900	-0.170979	-0.000052
C81	C	0.983102	0.387856	0.368335
C82	C	1.090512	0.310195	0.328750
H83	H	1.007756	0.464185	0.405553
H84	H	0.930678	0.406168	0.290536
H85	H	0.938039	0.345888	0.435781
H86	H	1.135570	0.352160	0.261296
H87	H	1.142956	0.291886	0.406559
H88	H	1.331488	0.338286	0.630525
H89	H	0.889991	0.091474	0.313101
H90	H	1.646077	-0.094008	0.388977
H91	H	1.096869	0.099752	0.323706
H92	H	1.758704	0.033114	0.383401
