data_functionalizedCrystal
_audit_creation_method	'MofGen! by Chris Wilmer'
_symmetry_space_group_name_H-M	'P1'
_symmetry_Int_Tables_number	1
_symmetry_cell_setting	triclinic
loop_
_symmetry_equiv_pos_as_xyz
  x,y,z
_cell_length_a	8.634740
_cell_length_b	17.000383
_cell_length_c	7.681481
_cell_angle_alpha	84.715300
_cell_angle_beta	96.618947
_cell_angle_gamma	88.085305
loop_
_atom_site_label
_atom_site_type_symbol
_atom_site_fract_x
_atom_site_fract_y
_atom_site_fract_z
O1	O	1.995801	0.263186	-0.146418
O2	O	1.549768	0.241649	-0.146422
O3	O	1.800478	0.138675	-0.146413
O4	O	1.745091	0.366160	-0.146427
O5	O	1.831341	0.125967	0.146446
O6	O	1.580631	0.228941	0.146437
O7	O	2.026664	0.250478	0.146441
Zn8	Zn	1.808547	0.237692	0.192937
Zn9	Zn	1.767884	0.254435	-0.192918
O10	O	1.775954	0.353452	0.146432
C11	C	1.508411	0.230416	0.000007
C12	C	1.339199	0.215870	0.000005
C13	C	1.818884	0.102895	0.000015
C14	C	1.827728	0.015216	0.000009
C15	C	1.884842	-0.480621	0.000003
C16	C	1.876521	-0.398237	0.000013
C17	C	1.732055	-0.358321	0.000003
C18	C	1.595905	-0.400794	0.000001
C19	C	1.604230	-0.483177	0.000003
C20	C	1.699903	-0.109641	0.000008
C21	C	1.691588	-0.027251	0.000001
C22	C	1.972205	-0.024701	0.000017
C23	C	1.980515	-0.107085	0.000008
C24	C	1.844366	-0.149551	0.000015
C25	C	1.723545	-0.274110	0.000009
C26	C	1.852879	-0.233760	0.000022
C27	C	2.068021	0.261711	0.000009
C28	C	2.237231	0.276258	-0.000001
C29	C	1.757547	0.389232	0.000000
C30	C	1.748702	0.476912	-0.000005
N31	N	1.836310	0.226265	0.456272
N32	N	1.740135	0.265857	-0.456253
H33	H	1.987381	-0.363664	0.000021
H34	H	1.589038	-0.144206	-0.000007
H35	H	1.605921	-0.241601	-0.000006
C36	C	2.168518	-0.204796	0.150551
C37	C	2.139309	-0.150966	0.000013
H38	H	2.266545	-0.231890	0.150536
H39	H	2.170219	-0.177144	0.252662
H40	H	2.088609	-0.241871	0.150530
H41	H	2.219212	-0.113888	0.000041
H42	H	2.137620	-0.178619	-0.102124
C43	C	1.321693	0.098242	-0.150537
C44	C	1.282313	0.131047	0.000006
H45	H	1.286574	0.045874	-0.150527
H46	H	1.273460	0.129368	-0.252644
H47	H	1.431758	0.097225	-0.150516
H48	H	1.172247	0.132069	-0.000020
H49	H	1.330542	0.099913	0.102140
C50	C	1.434947	-0.570779	-0.150552
C51	C	1.454583	-0.529863	-0.000011
H52	H	1.342564	-0.599604	-0.150546
H53	H	1.426765	-0.534157	-0.252661
H54	H	1.522189	-0.606337	-0.150525
H55	H	1.367346	-0.494301	-0.000045
H56	H	1.462753	-0.566489	0.102124
H57	H	1.934502	0.185859	0.531481
C58	C	1.223003	0.406954	-0.150558
C59	C	1.294116	0.361086	-0.000007
H60	H	1.258115	0.459323	-0.150553
H61	H	1.249721	0.384690	-0.252660
H62	H	1.112942	0.407965	-0.150543
H63	H	1.404178	0.360070	-0.000029
H64	H	1.267409	0.383356	0.102121
C65	C	2.022207	-0.605773	-0.000003
C66	C	2.043644	-0.524494	0.000007
H67	H	2.120248	-0.632854	-0.000009
H68	H	1.976691	-0.624228	0.102112
H69	H	1.955162	-0.615358	-0.102141
H70	H	2.110680	-0.514908	0.102152
H71	H	2.089182	-0.506032	-0.102120
H72	H	2.083048	0.009885	-0.000003
C73	C	1.415033	-0.038044	0.000001
C74	C	1.532780	0.016627	-0.000009
H75	H	1.317001	-0.010954	-0.000000
H76	H	1.413354	-0.065694	-0.102111
H77	H	1.434882	-0.074554	0.102143
H78	H	1.512937	0.053133	-0.102157
H79	H	1.534456	0.044290	0.102114
H80	H	1.478279	-0.368288	0.000003
C81	C	1.626400	0.397858	0.486659
C82	C	1.607593	0.320409	0.442238
H83	H	1.544577	0.431536	0.423974
H84	H	1.623385	0.399096	0.609593
H85	H	1.723986	0.415469	0.456504
H86	H	1.510012	0.302795	0.472405
H87	H	1.610593	0.319167	0.319276
C88	C	2.009148	-0.318387	-0.150526
C89	C	2.011674	-0.277632	0.000024
H90	H	2.107185	-0.345472	-0.150533
H91	H	1.929263	-0.355463	-0.150508
H92	H	1.989307	-0.281860	-0.252640
H93	H	2.031504	-0.314160	0.102138
H94	H	2.091584	-0.240552	0.000022
