data_functionalizedCrystal
_audit_creation_method	'MofGen! by Chris Wilmer'
_symmetry_space_group_name_H-M	'P1'
_symmetry_Int_Tables_number	1
_symmetry_cell_setting	triclinic
loop_
_symmetry_equiv_pos_as_xyz
  x,y,z
_cell_length_a	25.639239
_cell_length_b	13.032831
_cell_length_c	13.032268
_cell_angle_alpha	89.113023
_cell_angle_beta	82.858283
_cell_angle_gamma	82.842759
loop_
_atom_site_label
_atom_site_type_symbol
_atom_site_fract_x
_atom_site_fract_y
_atom_site_fract_z
Zn1	Zn	-0.353075	1.498234	0.780741
Zn2	Zn	0.146925	1.998234	1.280741
Zn3	Zn	-0.430970	1.519922	0.608740
Zn4	Zn	0.069030	2.019922	1.108740
Zn5	Zn	-0.331235	1.348108	0.586988
Zn6	Zn	0.168765	1.848108	1.086988
Zn7	Zn	-0.428143	1.326172	0.758866
Zn8	Zn	0.071857	1.826172	1.258866
O9	O	-0.385856	1.423109	0.683834
O10	O	0.114144	1.923109	1.183834
O11	O	-0.373731	1.645024	0.776183
O12	O	0.126269	2.145024	1.276183
O13	O	-0.409782	1.515387	0.461940
O14	O	0.090218	2.015387	0.961940
O15	O	-0.260977	1.368126	0.612741
O16	O	0.239023	1.868126	1.112741
O17	O	-0.430960	1.660959	0.649815
O18	O	0.069040	2.160959	1.149815
O19	O	-0.277023	1.478423	0.755090
O20	O	0.222977	1.978423	1.255090
O21	O	-0.336508	1.389156	0.445959
O22	O	0.163492	1.889156	0.945959
O23	O	-0.333767	1.201284	0.591530
O24	O	0.166233	1.701284	1.091530
O25	O	-0.426142	1.330740	0.905683
O26	O	0.073858	1.830740	1.405683
O27	O	-0.404965	1.185169	0.717808
O28	O	0.095035	1.685169	1.217808
O29	O	-0.370990	1.457153	0.921754
O30	O	0.129010	1.957153	1.421754
O31	O	-0.503750	1.494117	0.628604
O32	O	-0.003750	1.994117	1.128604
O33	O	-0.501673	1.351770	0.738901
O34	O	-0.001673	1.851770	1.238901
C35	C	-0.366689	1.155911	0.649935
C36	C	0.133311	1.655911	1.149935
C37	C	-0.358504	1.041600	0.635458
C38	C	0.141496	1.541600	1.135458
C39	C	-0.521683	1.422942	0.683765
C40	C	-0.021683	1.922942	1.183765
C41	C	-0.579799	1.422960	0.683782
C42	C	-0.079799	1.922960	1.183782
C43	C	-0.390128	0.982702	0.691390
C44	C	0.109872	1.482702	1.191390
C45	C	-0.381668	0.864555	0.676428
C46	C	0.118332	1.364555	1.176428
C47	C	-0.941263	1.497387	0.626536
C48	C	-0.441263	1.997387	1.126536
C49	C	-0.995870	1.497425	0.626555
C50	C	-0.495870	1.997425	1.126555
O51	O	-1.025027	1.560532	0.577808
O52	O	-0.525027	2.060532	1.077808
N53	N	-1.022111	1.423281	0.683925
N54	N	-0.522111	1.923281	1.183925
C55	C	-0.993742	1.349101	0.741288
C56	C	-0.493742	1.849101	1.241288
O57	O	-1.021077	1.286040	0.790088
O58	O	-0.521077	1.786040	1.290088
C59	C	-0.939136	1.349068	0.741275
C60	C	-0.439136	1.849068	1.241275
C61	C	-0.912897	1.423210	0.683893
C62	C	-0.412897	1.923210	1.183893
C63	C	-0.915024	1.571523	0.569160
C64	C	-0.415024	2.071523	1.069160
C65	C	-0.860419	1.571484	0.569140
C66	C	-0.360419	2.071484	1.069140
C67	C	-0.832054	1.497307	0.626496
C68	C	-0.332054	1.997307	1.126496
C69	C	-0.858293	1.423171	0.683872
C70	C	-0.358293	1.923171	1.183872
C71	C	-0.910769	1.274894	0.798643
C72	C	-0.410769	1.774894	1.298643
C73	C	-0.856159	1.274868	0.798625
C74	C	-0.356159	1.774868	1.298625
C75	C	-0.829920	1.349010	0.741243
C76	C	-0.329920	1.849010	1.241243
C77	C	-0.775323	1.348955	0.741209
C78	C	-0.275323	1.848955	1.241209
N79	N	-0.749082	1.423098	0.683839
N80	N	-0.249082	1.923098	1.183839
C81	C	-0.777448	1.497275	0.626482
C82	C	-0.277448	1.997275	1.126482
C83	C	-1.108419	1.349176	0.741314
C84	C	-0.608419	1.849176	1.241314
C85	C	-1.163024	1.349204	0.741322
C86	C	-0.663024	1.849204	1.241322
C87	C	-1.165149	1.497529	0.626590
C88	C	-0.665149	1.997529	1.126590
C89	C	-1.110542	1.497496	0.626577
C90	C	-0.610542	1.997496	1.126577
C91	C	-1.082179	1.423320	0.683944
C92	C	-0.582179	1.923320	1.183944
C93	C	-0.662774	1.497185	0.626444
C94	C	-0.162774	1.997185	1.126444
C95	C	-0.608165	1.497137	0.626425
C96	C	-0.108165	1.997137	1.126425
C97	C	-0.606046	1.348815	0.741161
C98	C	-0.106046	1.848815	1.241161
C99	C	-0.660650	1.348860	0.741176
C100	C	-0.160650	1.848860	1.241176
C101	C	-0.689013	1.423054	0.683815
C102	C	-0.189013	1.923054	1.183815
O103	O	-0.746133	1.285883	0.789934
O104	O	-0.246133	1.785883	1.289934
O105	O	-0.750108	1.560333	0.577701
O106	O	-0.250108	2.060333	1.077701
C107	C	-0.249501	1.423302	0.683929
C108	C	0.250499	1.923302	1.183929
C109	C	-0.191395	1.423384	0.683970
C110	C	0.308605	1.923384	1.183970
C111	C	-0.400687	1.389080	0.952077
C112	C	0.099313	1.889080	1.452077
C113	C	-0.407007	1.374579	1.066386
C114	C	0.092993	1.874579	1.566386
C115	C	-0.405097	1.691350	0.717865
C116	C	0.094903	2.191350	1.217865
C117	C	-0.413297	1.805658	0.732368
C118	C	0.086703	2.305658	1.232368
C119	C	-0.371048	1.457064	0.416642
C120	C	0.128952	1.957064	0.916642
C121	C	-0.364595	1.471765	0.302358
C122	C	0.135405	1.971765	0.802358
C123	C	-0.382537	1.430661	1.125301
C124	C	0.117463	1.930661	1.625301
C125	C	-0.389069	1.415675	1.243446
C126	C	0.110931	1.915675	1.743446
H127	H	-0.423463	1.019744	0.750355
H128	H	0.076537	1.519744	1.250355
Cl129	Cl	-1.200818	1.590779	0.554483
Cl130	Cl	-0.700818	2.090779	1.054483
Cl131	Cl	-0.464764	0.862831	0.823425
Cl132	Cl	0.035236	1.362831	1.323425
Cl133	Cl	-0.342710	1.521897	1.068140
Cl134	Cl	0.157290	2.021897	1.568140
Cl135	Cl	-0.307030	0.984417	0.544427
Cl136	Cl	0.192970	1.484417	1.044427
H137	H	-0.938113	1.631932	0.522454
H138	H	-0.438113	2.131932	1.022454
H139	H	-0.348327	0.827516	0.617466
H140	H	0.151673	1.327516	1.117466
H141	H	-0.414852	1.356556	1.280468
H142	H	0.085148	1.856556	1.780468
Cl143	Cl	-0.698423	1.590457	0.554329
Cl144	Cl	-0.198423	2.090457	1.054329
H145	H	-0.839059	1.631859	0.522418
H146	H	-0.339059	2.131859	1.022418
H147	H	-1.184382	1.288821	0.788038
H148	H	-0.684382	1.788821	1.288038
H149	H	-0.582942	1.288419	0.787857
H150	H	-0.082942	1.788419	1.287857
Cl151	Cl	-0.324789	1.563046	1.245210
Cl152	Cl	0.175211	2.063046	1.745210
Cl153	Cl	-0.446816	1.283312	1.123544
Cl154	Cl	0.053184	1.783312	1.623544
Cl155	Cl	-0.575182	1.590351	0.554283
Cl156	Cl	-0.075182	2.090351	1.054283
H157	H	-1.089182	1.557869	0.579852
H158	H	-0.589182	2.057869	1.079852
H159	H	-1.085327	1.288765	0.788025
H160	H	-0.585327	1.788765	1.288025
H161	H	-0.833068	1.214465	0.845344
H162	H	-0.333068	1.714465	1.345344
Cl163	Cl	-0.693634	1.255634	0.813290
Cl164	Cl	-0.193634	1.755634	1.313290
Cl165	Cl	-0.943743	1.181691	0.870799
Cl166	Cl	-0.443743	1.681691	1.370799
