data_functionalizedCrystal
_audit_creation_method	'MofGen! by Chris Wilmer'
_symmetry_space_group_name_H-M	'P1'
_symmetry_Int_Tables_number	1
_symmetry_cell_setting	triclinic
loop_
_symmetry_equiv_pos_as_xyz
  x,y,z
_cell_length_a	11.026607
_cell_length_b	10.654541
_cell_length_c	10.065875
_cell_angle_alpha	98.874761
_cell_angle_beta	79.302338
_cell_angle_gamma	96.534973
loop_
_atom_site_label
_atom_site_type_symbol
_atom_site_fract_x
_atom_site_fract_y
_atom_site_fract_z
O1	O	1.632228	0.512405	-0.113500
O2	O	1.278417	0.452409	-0.113501
O3	O	1.463458	0.301435	-0.113493
O4	O	1.447188	0.663380	-0.113509
O5	O	1.428174	0.330372	0.113494
O6	O	1.243134	0.481346	0.113486
O7	O	1.596944	0.541342	0.113487
Zn8	Zn	1.414437	0.515938	0.149525
Zn9	Zn	1.460925	0.477813	-0.149540
O10	O	1.411904	0.692316	0.113478
C11	C	1.215472	0.455810	-0.000008
C12	C	1.080480	0.422815	-0.000008
C13	C	1.007442	0.513918	-0.000013
C14	C	0.867921	0.479819	-0.000014
C15	C	1.444622	0.268846	0.000000
C16	C	1.441049	0.128627	-0.000002
C17	C	1.662314	0.148689	0.000016
C18	C	1.771262	0.092846	0.000027
C19	C	1.767898	-0.038903	0.000023
C20	C	1.655575	-0.114814	0.000003
C21	C	1.546627	-0.058971	-0.000009
C22	C	1.550002	0.072783	-0.000000
C23	C	1.325366	-0.079034	-0.000036
C24	C	1.328726	0.052716	-0.000022
C25	C	1.213042	-0.154944	-0.000056
C26	C	1.104090	-0.099100	-0.000058
C27	C	1.107458	0.032657	-0.000053
C28	C	1.219777	0.108559	-0.000034
C29	C	1.659891	0.537941	-0.000010
C30	C	1.794883	0.570935	-0.000019
C31	C	1.430740	0.724905	-0.000018
C32	C	1.434314	0.865123	-0.000025
N33	N	1.382720	0.541959	0.353629
N34	N	1.492652	0.451785	-0.353644
C35	C	1.449881	0.486857	0.421411
C36	C	1.425480	0.506895	0.578577
H37	H	1.048201	0.617160	-0.000010
C38	C	1.323394	0.590672	0.657349
H39	H	1.320392	0.593157	0.752649
H40	H	1.245682	0.555888	0.634018
H41	H	1.341149	0.674670	0.633993
C42	C	1.594769	0.368045	0.567587
H43	H	1.597794	0.365583	0.472287
H44	H	1.577062	0.284047	0.590928
H45	H	1.672470	0.402877	0.590936
H46	H	0.827171	0.376567	-0.000044
C47	C	0.849927	0.710413	-0.000032
H48	H	0.936481	0.715036	-0.000043
H49	H	0.811333	0.761221	0.079116
H50	H	0.835942	0.741021	-0.079205
H51	H	1.039726	0.319570	-0.000038
H52	H	1.665061	0.255969	0.000038
C53	C	0.987613	0.094074	-0.000065
H54	H	0.920242	0.029993	-0.000070
H55	H	0.996637	0.134973	-0.079216
H56	H	0.972010	0.155133	0.079105
C57	C	1.887734	-0.100340	0.000032
H58	H	1.869638	-0.189678	0.000016
H59	H	1.921439	-0.064546	0.079190
H60	H	1.946052	-0.084717	-0.079131
C61	C	1.651878	-0.259735	-0.000012
H62	H	1.732849	-0.282120	0.000001
H63	H	1.622563	-0.303328	-0.079171
H64	H	1.597949	-0.283160	0.079150
H65	H	1.307150	0.603963	0.411952
H66	H	1.012646	-0.160918	-0.000084
H67	H	1.862712	0.154668	0.000056
C68	C	1.209340	-0.299864	-0.000057
H69	H	1.290308	-0.322251	-0.000033
H70	H	1.180030	-0.343464	-0.079216
H71	H	1.155405	-0.323279	0.079105
H72	H	1.525442	0.424841	0.363091
C73	C	1.223489	0.253479	-0.000036
H74	H	1.305988	0.290683	-0.000035
H75	H	1.171080	0.289674	0.079109
H76	H	1.195712	0.269484	-0.079212
