data_functionalizedCrystal
_audit_creation_method	'MofGen! by Chris Wilmer'
_symmetry_space_group_name_H-M	'P1'
_symmetry_Int_Tables_number	1
_symmetry_cell_setting	triclinic
loop_
_symmetry_equiv_pos_as_xyz
  x,y,z
_cell_length_a	10.489741
_cell_length_b	10.489741
_cell_length_c	8.965430
_cell_angle_alpha	89.999293
_cell_angle_beta	89.998843
_cell_angle_gamma	95.460826
loop_
_atom_site_label
_atom_site_type_symbol
_atom_site_fract_x
_atom_site_fract_y
_atom_site_fract_z
O1	O	1.694053	-0.179958	-0.123946
O2	O	1.322858	-0.196851	-0.123969
O3	O	1.516902	-0.002807	-0.123948
O4	O	1.500009	-0.374003	-0.123967
O5	O	1.516886	-0.002820	0.124130
O6	O	1.322841	-0.196864	0.124110
O7	O	1.694037	-0.179971	0.124133
Cu8	Cu	1.508438	-0.188419	0.146773
Cu9	Cu	1.508457	-0.188404	-0.146609
O10	O	1.499993	-0.374016	0.124112
C11	C	1.275318	-0.195582	0.000067
C12	C	1.133688	-0.191765	0.000059
C13	C	1.065548	-0.068300	0.000079
C14	C	0.973430	-0.126617	-0.122237
C15	C	0.973447	-0.126659	0.122349
C16	C	1.043435	-0.250133	-0.122358
C17	C	1.043462	-0.250158	0.122338
C18	C	0.951371	-0.308564	-0.000007
C19	C	1.515618	0.044718	0.000090
C20	C	1.511801	0.186348	0.000087
C21	C	1.741577	-0.181241	0.000093
C22	C	1.883206	-0.185058	0.000092
C23	C	1.501277	-0.421541	0.000070
C24	C	1.505094	-0.563170	0.000063
N25	N	1.508433	-0.188429	0.353122
C26	C	1.388336	0.254488	0.000069
C27	C	1.446652	0.346604	0.122388
C28	C	1.446697	0.346591	-0.122198
C29	C	1.570167	0.276599	0.122508
C30	C	1.570195	0.276576	-0.122189
C31	C	1.628600	0.368665	0.000161
N32	N	1.508471	-0.188384	-0.352958
C33	C	1.418666	-0.278138	0.450418
C34	C	1.534163	-0.303949	0.549838
C35	C	1.392986	-0.162629	0.549830
C36	C	1.623988	-0.214298	0.450352
C37	C	1.482735	-0.072927	0.450336
C38	C	1.598314	-0.098690	0.549711
H39	H	0.942463	-0.074402	0.225758
H40	H	1.622398	0.245537	-0.225600
C41	C	1.316556	-0.378839	0.235372
C42	C	1.316284	-0.380636	0.391540
H43	H	1.253349	-0.442113	0.199025
H44	H	1.398401	-0.396350	0.199864
H45	H	1.298083	-0.296836	0.201319
H46	H	1.334767	-0.462635	0.425594
H47	H	1.234421	-0.363132	0.427063
H48	H	0.942422	-0.074371	-0.225643
C49	C	1.643500	0.101804	0.261053
C50	C	1.640613	0.234980	0.262275
H51	H	1.686980	0.076111	0.347345
H52	H	1.687074	0.077283	0.174316
H53	H	1.558399	0.061700	0.260695
H54	H	1.725715	0.275084	0.262622
H55	H	1.597042	0.259513	0.349034
H56	H	1.674327	-0.022803	0.593034
H57	H	1.074270	-0.302327	-0.225883
H58	H	0.901947	-0.410168	-0.000079
H59	H	1.295338	-0.140828	0.593530
H60	H	1.115238	0.033196	-0.000069
H61	H	1.555925	-0.401606	0.593543
C62	C	1.439581	0.351429	0.390001
C63	C	1.376126	0.388474	0.261980
H64	H	1.396030	0.377269	0.476173
H65	H	1.524918	0.390892	0.390129
H66	H	1.440808	0.260995	0.390532
H67	H	1.374908	0.478909	0.261443
H68	H	1.290766	0.349015	0.261853
C69	C	1.332282	0.085663	0.441394
C70	C	1.453310	0.058861	0.391269
H71	H	1.314105	0.167020	0.404917
H72	H	1.331308	0.086416	0.547326
H73	H	1.269351	0.021737	0.405911
H74	H	1.516242	0.122782	0.426762
H75	H	1.454294	0.058119	0.285315
H76	H	1.730204	0.418089	0.000235
H77	H	1.721659	-0.236216	0.406840
H78	H	1.074502	-0.302361	0.225749
C79	C	1.186954	0.222559	0.128468
C80	C	1.251305	0.187447	0.000220
H81	H	1.102363	0.181163	0.128568
H82	H	1.183586	0.312721	0.129342
H83	H	1.231263	0.197585	0.214473
H84	H	1.207001	0.212430	-0.085786
H85	H	1.254667	0.097266	-0.000667
C86	C	1.250367	0.330220	-0.261561
C87	C	1.376166	0.388415	-0.261807
H88	H	1.206824	0.356031	-0.347750
H89	H	1.207336	0.355368	-0.174720
H90	H	1.251630	0.239791	-0.262071
H91	H	1.374903	0.478845	-0.261286
H92	H	1.419207	0.363276	-0.348671
