data_functionalizedCrystal
_audit_creation_method	'MofGen! by Chris Wilmer'
_symmetry_space_group_name_H-M	'P1'
_symmetry_Int_Tables_number	1
_symmetry_cell_setting	triclinic
loop_
_symmetry_equiv_pos_as_xyz
  x,y,z
_cell_length_a	18.050591
_cell_length_b	18.050589
_cell_length_c	19.805399
_cell_angle_alpha	89.976299
_cell_angle_beta	89.979210
_cell_angle_gamma	90.024669
loop_
_atom_site_label
_atom_site_type_symbol
_atom_site_fract_x
_atom_site_fract_y
_atom_site_fract_z
Zn1	Zn	1.135300	-0.295737	-0.382815
Zn2	Zn	1.635300	0.204263	0.117185
Zn3	Zn	1.135209	-0.419932	-0.269637
Zn4	Zn	1.635209	0.080068	0.230363
Zn5	Zn	1.011117	-0.295753	-0.269632
Zn6	Zn	1.511117	0.204247	0.230368
Zn7	Zn	1.011067	-0.419882	-0.382776
Zn8	Zn	1.511067	0.080118	0.117224
O9	O	1.073173	-0.357826	-0.326215
O10	O	1.573173	0.142174	0.173785
O11	O	1.239213	-0.312226	-0.367820
O12	O	1.739213	0.187774	0.132180
O13	O	1.118730	-0.403487	-0.174920
O14	O	1.618730	0.096513	0.325080
O15	O	1.027649	-0.191826	-0.284660
O16	O	1.527649	0.308174	0.215340
O17	O	1.239145	-0.403472	-0.284669
O18	O	1.739145	0.096528	0.215331
O19	O	1.118886	-0.191814	-0.367815
O20	O	1.618886	0.308186	0.132185
O21	O	1.027561	-0.312253	-0.174916
O22	O	1.527561	0.187747	0.325084
O23	O	0.907186	-0.312204	-0.284622
O24	O	1.407186	0.187796	0.215378
O25	O	1.027565	-0.403386	-0.477498
O26	O	1.527565	0.096614	0.022502
O27	O	0.907149	-0.403401	-0.367749
O28	O	1.407149	0.096599	0.132251
O29	O	1.118838	-0.312177	-0.477526
O30	O	1.618838	0.187823	0.022474
O31	O	1.118682	-0.523850	-0.284631
O32	O	1.618682	-0.023850	0.215369
O33	O	1.027476	-0.523813	-0.367754
O34	O	1.527476	-0.023813	0.132246
C35	C	0.880221	-0.357800	-0.326181
C36	C	1.380221	0.142200	0.173819
C37	C	0.797675	-0.357806	-0.326183
C38	C	1.297675	0.142194	0.173817
C39	C	0.548848	-0.308162	-0.281085
C40	C	1.048848	0.191838	0.218915
C41	C	0.598281	-0.290074	-0.342855
C42	C	1.098281	0.209926	0.157145
C43	C	0.500555	-0.357844	-0.326238
C44	C	1.000555	0.142156	0.173762
C45	C	0.598203	-0.375878	-0.264445
C46	C	1.098203	0.124122	0.235555
C47	C	0.646540	-0.357824	-0.326208
C48	C	1.146540	0.142176	0.173792
C49	C	0.548901	-0.339722	-0.388041
C50	C	1.048901	0.160278	0.111959
C51	C	0.548819	-0.425557	-0.309589
C52	C	1.048819	0.074443	0.190411
C53	C	0.598230	-0.407495	-0.371401
C54	C	1.098230	0.092505	0.128599
C55	C	0.416457	-0.357854	-0.326255
C56	C	0.916457	0.142146	0.173745
C57	C	0.730637	-0.357814	-0.326198
C58	C	1.230637	0.142186	0.173802
C59	C	1.073084	-0.550778	-0.326204
C60	C	1.573084	-0.050778	0.173796
C61	C	1.073113	-0.633324	-0.326222
C62	C	1.573113	-0.133324	0.173778
C63	C	1.023564	-0.832781	-0.371408
C64	C	1.523564	-0.332781	0.128592
C65	C	1.005465	-0.882221	-0.309644
C66	C	1.505465	-0.382221	0.190356
C67	C	1.073186	-0.784454	-0.326230
C68	C	1.573186	-0.284454	0.173770
C69	C	1.091322	-0.882096	-0.388002
C70	C	1.591322	-0.382096	0.111998
C71	C	1.073255	-0.930439	-0.326244
C72	C	1.573255	-0.430439	0.173756
C73	C	1.055051	-0.832806	-0.264433
C74	C	1.555051	-0.332806	0.235567
C75	C	1.140940	-0.832678	-0.342833
C76	C	1.640940	-0.332678	0.157167
C77	C	1.122866	-0.882095	-0.281026
C78	C	1.622866	-0.382095	0.218974
C79	C	1.073144	-0.700356	-0.326223
C80	C	1.573144	-0.200356	0.173777
C81	C	1.073297	-1.014536	-0.326245
C82	C	1.573297	-0.514536	0.173755
C83	C	1.266879	-0.357853	-0.326249
C84	C	1.766879	0.142147	0.173751
C85	C	1.349425	-0.357864	-0.326264
C86	C	1.849425	0.142136	0.173736
C87	C	1.073206	-0.357774	-0.502758
C88	C	1.573206	0.142226	-0.002758
C89	C	1.073220	-0.357752	-0.577990
C90	C	1.573220	0.142248	-0.077990
C91	C	1.073283	-0.164120	-0.326241
C92	C	1.573283	0.335880	0.173759
C93	C	1.073330	-0.081574	-0.326252
C94	C	1.573330	0.418426	0.173748
C95	C	1.025761	-0.310242	-0.613331
C96	C	1.525761	0.189758	-0.113331
C97	C	1.025771	-0.310228	-0.684020
C98	C	1.525771	0.189772	-0.184020
C99	C	1.073244	-0.357720	-0.719366
C100	C	1.573244	0.142280	-0.219366
C101	C	1.120705	-0.405235	-0.684019
C102	C	1.620705	0.094765	-0.184019
C103	C	1.120690	-0.405253	-0.613332
C104	C	1.620690	0.094747	-0.113332
C105	C	1.120764	-0.405166	-0.969092
C106	C	1.620764	0.094834	-0.469092
C107	C	1.120776	-0.405143	-1.039785
C108	C	1.620776	0.094857	-0.539785
C109	C	1.025845	-0.310141	-1.039781
C110	C	1.525845	0.189859	-0.539781
C111	C	1.025830	-0.310158	-0.969093
C112	C	1.525830	0.189842	-0.469093
C113	C	1.073288	-0.357676	-0.933753
C114	C	1.573288	0.142324	-0.433753
C115	C	1.073275	-0.357692	-0.857105
C116	C	1.573275	0.142308	-0.357105
C117	C	1.073261	-0.357701	-0.796013
C118	C	1.573261	0.142299	-0.296013
C119	C	1.073184	-0.357823	-0.150359
C120	C	1.573184	0.142177	0.349641
C121	C	1.073314	-0.357636	-0.075127
C122	C	1.573314	0.142364	0.424873
H123	H	0.619862	-0.391139	-0.212200
H124	H	1.119862	0.108861	0.287800
N125	N	0.520391	-0.319383	-0.457276
N126	N	1.020391	0.180617	0.042724
H127	H	0.489202	-0.361276	-0.475571
H128	H	0.989202	0.138724	0.024429
H129	H	0.489300	-0.273018	-0.454012
H130	H	0.989300	0.226982	0.045988
N131	N	1.171975	-0.456371	-1.077914
N132	N	1.671975	0.043629	-0.577914
H133	H	1.225044	-0.444857	-1.065625
H134	H	1.725044	0.055143	-0.565625
H135	H	1.160339	-0.509415	-1.065592
H136	H	1.660339	-0.009415	-0.565592
N137	N	1.171914	-0.456460	-0.722133
N138	N	1.671914	0.043540	-0.222133
H139	H	1.160345	-0.509523	-0.709820
H140	H	1.660345	-0.009523	-0.209820
H141	H	1.164705	-0.449179	-0.772265
H142	H	1.664705	0.050821	-0.272265
N143	N	0.974646	-0.258899	-1.077900
N144	N	1.474646	0.241101	-0.577900
H145	H	0.944573	-0.228815	-1.044781
H146	H	1.444573	0.271185	-0.544781
H147	H	1.004900	-0.224529	-1.107242
H148	H	1.504900	0.275471	-0.607242
N149	N	1.171880	-0.456499	-0.575216
N150	N	1.671880	0.043501	-0.075216
H151	H	1.224951	-0.444970	-0.587528
H152	H	1.724951	0.055030	-0.087528
H153	H	1.164605	-0.449286	-0.525085
H154	H	1.664605	0.050714	-0.025085
H155	H	0.981539	-0.811128	-0.409559
H156	H	1.481539	-0.311128	0.090441
H157	H	0.527167	-0.266124	-0.242961
H158	H	1.027167	0.233876	0.257039
N159	N	0.627061	-0.214215	-0.361504
N160	N	1.127061	0.285785	0.138496
H161	H	0.609102	-0.176726	-0.327383
H162	H	1.109102	0.323274	0.172617
H163	H	0.683006	-0.214959	-0.361796
H164	H	1.183006	0.285041	0.138204
H165	H	1.039674	-0.811244	-0.212185
H166	H	1.539674	-0.311244	0.287815
H167	H	0.619774	-0.449501	-0.409616
H168	H	1.119774	0.050499	0.090384
N169	N	0.974560	-0.259010	-0.575217
N170	N	1.474560	0.240990	-0.075217
H171	H	0.921494	-0.270533	-0.587509
H172	H	1.421494	0.229467	-0.087509
H173	H	0.981813	-0.266247	-0.525086
H174	H	1.481813	0.233753	-0.025086
N175	N	0.520015	-0.501398	-0.290928
N176	N	1.020015	-0.001398	0.209072
H177	H	0.537915	-0.514986	-0.244228
H178	H	1.037915	-0.014986	0.255772
H179	H	0.464070	-0.500904	-0.291555
H180	H	0.964070	-0.000904	0.208445
N181	N	1.216777	-0.803830	-0.361451
N182	N	1.716777	-0.303830	0.138549
H183	H	1.230407	-0.821726	-0.408140
H184	H	1.730407	-0.321726	0.091860
H185	H	1.216249	-0.747885	-0.360831
H186	H	1.716249	-0.247885	0.139169
H187	H	1.159399	-0.443866	-0.940327
H188	H	1.659399	0.056134	-0.440327
H189	H	0.948200	-0.903999	-0.295614
H190	H	1.448200	-0.403999	0.204386
H191	H	1.164860	-0.903611	-0.242783
H192	H	1.664860	-0.403611	0.257217
N193	N	1.111606	-0.910784	-0.457187
N194	N	1.611606	-0.410784	0.042813
H195	H	1.074060	-0.892846	-0.491267
H196	H	1.574060	-0.392846	0.008733
H197	H	1.162405	-0.891984	-0.470015
H198	H	1.662405	-0.391984	0.029985
N199	N	0.974582	-0.258988	-0.722139
N200	N	1.474582	0.241012	-0.222139
H201	H	0.944509	-0.228901	-0.689022
H202	H	1.444509	0.271099	-0.189022
H203	H	1.004837	-0.224618	-0.751481
H204	H	1.504837	0.275382	-0.251481
H205	H	0.987176	-0.271482	-0.940319
H206	H	1.487176	0.228518	-0.440319
