data_functionalizedCrystal
_audit_creation_method	'MofGen! by Chris Wilmer'
_symmetry_space_group_name_H-M	'P1'
_symmetry_Int_Tables_number	1
_symmetry_cell_setting	triclinic
loop_
_symmetry_equiv_pos_as_xyz
  x,y,z
_cell_length_a	11.792254
_cell_length_b	11.792241
_cell_length_c	7.540329
_cell_angle_alpha	90.001242
_cell_angle_beta	89.999160
_cell_angle_gamma	95.803994
loop_
_atom_site_label
_atom_site_type_symbol
_atom_site_fract_x
_atom_site_fract_y
_atom_site_fract_z
O1	O	-0.155565	1.506913	-0.147291
O2	O	-0.171598	1.176573	-0.147331
O3	O	0.001588	1.349752	-0.147318
O4	O	-0.328751	1.333734	-0.147304
O5	O	0.001590	1.349742	0.147647
O6	O	-0.171596	1.176563	0.147634
O7	O	-0.155563	1.506903	0.147674
Cu8	Cu	-0.163579	1.341732	0.174587
Cu9	Cu	-0.163582	1.341744	-0.174244
O10	O	-0.328749	1.333724	0.147661
C11	C	-0.170590	1.134277	0.000146
C12	C	-0.167576	1.008263	0.000130
C13	C	-0.162033	0.777551	0.000181
C14	C	-0.165112	0.905936	0.000153
C15	C	-0.371041	1.334738	0.000181
C16	C	-0.497054	1.337758	0.000187
C17	C	-0.599390	1.340212	0.000177
C18	C	-0.727777	1.343281	0.000157
C19	C	0.043880	1.348738	0.000158
C20	C	0.169893	1.345718	0.000140
C21	C	-0.156571	1.549199	0.000192
C22	C	-0.159586	1.675213	0.000197
N23	N	-0.163577	1.341732	0.419935
N24	N	-0.163575	1.341754	-0.419592
