data_functionalizedCrystal
_audit_creation_method	'MofGen! by Chris Wilmer'
_symmetry_space_group_name_H-M	'P1'
_symmetry_Int_Tables_number	1
_symmetry_cell_setting	triclinic
loop_
_symmetry_equiv_pos_as_xyz
  x,y,z
_cell_length_a	14.853567
_cell_length_b	15.944551
_cell_length_c	13.930277
_cell_angle_alpha	89.994493
_cell_angle_beta	89.995755
_cell_angle_gamma	83.566834
loop_
_atom_site_label
_atom_site_type_symbol
_atom_site_fract_x
_atom_site_fract_y
_atom_site_fract_z
O1	O	1.196228	0.109664	-0.079767
O2	O	0.933751	0.122728	-0.079783
O3	O	1.072157	-0.006071	-0.079766
O4	O	1.057822	0.238463	-0.079784
O5	O	1.072138	-0.006073	0.079896
O6	O	0.933732	0.122725	0.079878
O7	O	1.196208	0.109662	0.079895
Zn8	Zn	1.064967	0.116193	0.105236
Zn9	Zn	1.064993	0.116197	-0.105125
O10	O	1.057803	0.238460	0.079878
C11	C	0.900154	0.122135	0.000045
C12	C	0.800072	0.120361	0.000039
C13	C	0.387646	0.036354	0.000067
C14	C	0.366169	0.189369	0.000055
C15	C	0.460201	0.191037	0.000051
C16	C	0.517960	0.115362	0.000055
C17	C	0.481687	0.038019	0.000061
C18	C	0.496480	0.268379	0.000035
C19	C	0.590517	0.270050	0.000031
C20	C	0.648278	0.194374	0.000041
C21	C	0.612000	0.117028	0.000049
C22	C	0.669759	0.041353	0.000052
C23	C	0.633483	-0.035994	0.000066
C24	C	0.539448	-0.037657	0.000071
C25	C	0.742313	0.196036	0.000036
C26	C	0.763800	0.043018	0.000046
C27	C	1.071552	-0.037367	0.000065
C28	C	1.069768	-0.130615	0.000065
C29	C	0.979713	-0.345572	0.000047
C30	C	1.021522	-0.406544	0.078772
C31	C	1.066541	-0.301344	0.000058
C32	C	1.021562	-0.406524	-0.078642
C33	C	1.063416	-0.466260	0.000046
C34	C	1.108373	-0.361088	0.078848
C35	C	1.108401	-0.361062	-0.078636
C36	C	1.150273	-0.422017	0.000109
C37	C	1.068338	-0.206340	0.000065
C38	C	1.061626	-0.561263	0.000046
C39	C	1.229806	0.110255	0.000064
C40	C	1.329887	0.112029	0.000064
C41	C	1.058407	0.269756	0.000044
C42	C	1.060191	0.363004	0.000038
N43	N	1.064957	0.116190	0.248803
N44	N	1.065010	0.116193	-0.248691
C45	C	1.003704	0.173206	0.701064
C46	C	1.126306	0.059181	0.701049
C47	C	1.126295	0.059178	0.600553
C48	C	1.064989	0.116191	0.550308
C49	C	1.003693	0.173207	0.600559
C50	C	1.187596	0.002169	0.550295
C51	C	1.187588	0.002164	0.449793
C52	C	1.126277	0.059174	0.399546
C53	C	1.064978	0.116192	0.449803
C54	C	1.003672	0.173205	0.399558
C55	C	0.942368	0.230220	0.449814
C56	C	0.942382	0.230217	0.550312
C57	C	1.126263	0.059177	0.299047
C58	C	1.003661	0.173206	0.299053
H59	H	0.509903	-0.100629	0.000105
H60	H	0.680523	-0.097609	0.000062
H61	H	0.892471	0.276637	0.591236
H62	H	0.771845	0.259011	0.000026
C63	C	0.811060	-0.086894	-0.082025
C64	C	0.827288	-0.040167	0.000045
H65	H	0.850260	-0.138245	-0.082027
H66	H	0.749872	-0.098952	-0.082008
H67	H	0.822059	-0.055175	-0.137701
H68	H	0.816283	-0.071883	0.055721
H69	H	0.888491	-0.028111	0.000037
C70	C	0.559831	0.421136	0.000029
C71	C	0.630388	0.355067	0.000028
H72	H	0.584449	0.473620	0.000036
H73	H	0.523609	0.417307	-0.055646
H74	H	0.523595	0.417292	0.055709
H75	H	0.666621	0.358907	-0.055656
H76	H	0.666626	0.358897	0.055710
H77	H	1.145102	-0.340890	-0.145191
C78	C	0.882691	-0.394711	-0.168336
C79	C	0.971983	-0.433692	-0.168493
H80	H	0.852083	-0.411478	-0.223807
H81	H	0.852436	-0.411051	-0.112445
H82	H	0.883000	-0.335167	-0.168666
H83	H	0.971674	-0.493237	-0.168156
H84	H	1.002246	-0.417358	-0.224398
C85	C	0.882473	0.285920	0.309164
C86	C	0.936272	0.235880	0.243828
H87	H	0.840875	0.324615	0.275068
H88	H	0.850050	0.250897	0.348366
H89	H	0.920011	0.316194	0.348357
H90	H	0.898735	0.205601	0.204638
H91	H	0.968697	0.270908	0.204609
H92	H	0.892456	0.276644	0.408893
C93	C	1.016548	-0.409696	0.251006
C94	C	0.971940	-0.433754	0.168613
H95	H	0.985930	-0.426489	0.306466
H96	H	1.077120	-0.436130	0.251089
H97	H	1.016832	-0.350149	0.251347
H98	H	0.971662	-0.493303	0.168269
H99	H	0.911352	-0.407323	0.168530
C100	C	0.881025	0.191221	0.814102
C101	C	0.936323	0.235874	0.756303
H102	H	0.839432	0.229910	0.848208
H103	H	0.848598	0.156210	0.774902
H104	H	0.917547	0.157268	0.858405
H105	H	0.899802	0.269822	0.711995
H106	H	0.968753	0.270899	0.795506
C107	C	0.342795	0.333759	0.000058
C108	C	0.432992	0.351557	0.000038
H109	H	0.303599	0.385113	0.000069
H110	H	0.331799	0.302058	-0.055612
H111	H	0.331814	0.302046	0.055743
H112	H	0.443975	0.383265	-0.055651
H113	H	0.443993	0.383270	0.055715
H114	H	1.176224	0.012766	0.741962
C115	C	1.293438	-0.442646	-0.081479
C116	C	1.247659	-0.466650	0.000171
H117	H	1.353564	-0.470190	-0.081431
H118	H	1.262759	-0.458210	-0.137429
H119	H	1.295050	-0.383257	-0.080939
H120	H	1.246042	-0.526039	-0.000372
H121	H	1.278347	-0.451091	0.056136
C122	C	1.242036	-0.048461	0.704347
C123	C	1.254980	-0.060497	0.605524
H124	H	1.283635	-0.087155	0.738445
H125	H	1.251828	0.007610	0.720804
H126	H	1.181869	-0.057690	0.720815
H127	H	1.315146	-0.051262	0.589055
H128	H	1.245196	-0.116581	0.589060
C129	C	1.308773	-0.110553	0.459884
C130	C	1.254963	-0.060511	0.394557
H131	H	1.350361	-0.149251	0.425781
H132	H	1.341207	-0.075533	0.499064
H133	H	1.271241	-0.140826	0.499101
H134	H	1.292494	-0.030234	0.355345
H135	H	1.222526	-0.095536	0.355361
C136	C	1.145849	-0.055081	0.186005
C137	C	1.193652	-0.003463	0.243791
H138	H	1.187460	-0.093745	0.151885
H139	H	1.108356	-0.085384	0.225216
H140	H	1.109324	-0.021119	0.141714
H141	H	1.230173	-0.037425	0.288087
H142	H	1.231162	0.026842	0.204577
C143	C	0.253042	-0.034152	0.000085
C144	C	0.347777	-0.048664	0.000078
H145	H	0.228430	-0.086639	0.000085
H146	H	0.233224	-0.002997	0.055758
H147	H	0.233224	-0.002988	-0.055597
H148	H	0.367595	-0.079823	0.055764
H149	H	0.367603	-0.079832	-0.055601
C150	C	0.885088	-0.213207	-0.000716
C151	C	0.882424	-0.300711	0.000132
H152	H	0.825027	-0.185514	-0.000667
H153	H	0.916222	-0.197003	0.054642
H154	H	0.915811	-0.197761	-0.056709
H155	H	0.851707	-0.316158	0.056129
H156	H	0.851276	-0.316921	-0.055231
C157	C	1.233099	-0.294167	0.141059
C158	C	1.157895	-0.334054	0.168800
H159	H	1.263664	-0.277472	0.196592
H160	H	1.273116	-0.332159	0.104275
H161	H	1.213515	-0.245811	0.103510
H162	H	1.177479	-0.382414	0.206344
H163	H	1.117871	-0.296059	0.205600
H164	H	0.319136	0.250981	0.000044
