data_functionalizedCrystal
_audit_creation_method	'MofGen! by Chris Wilmer'
_symmetry_space_group_name_H-M	'P1'
_symmetry_Int_Tables_number	1
_symmetry_cell_setting	triclinic
loop_
_symmetry_equiv_pos_as_xyz
  x,y,z
_cell_length_a	12.594516
_cell_length_b	12.594517
_cell_length_c	12.594509
_cell_angle_alpha	89.978673
_cell_angle_beta	90.027875
_cell_angle_gamma	89.988384
loop_
_atom_site_label
_atom_site_type_symbol
_atom_site_fract_x
_atom_site_fract_y
_atom_site_fract_z
Zn1	Zn	-0.423716	-1.627298	0.601863
Zn2	Zn	0.076284	-1.127298	1.101863
Zn3	Zn	-0.601726	-1.627202	0.423885
Zn4	Zn	-0.101726	-1.127202	0.923885
Zn5	Zn	-0.423761	-1.449302	0.423892
Zn6	Zn	0.076239	-0.949302	0.923892
Zn7	Zn	-0.601652	-1.449298	0.601815
Zn8	Zn	-0.101652	-0.949298	1.101815
O9	O	-0.512714	-1.538275	0.512864
O10	O	-0.012714	-1.038275	1.012864
O11	O	-0.447341	-1.776231	0.578271
O12	O	0.052659	-1.276231	1.078271
O13	O	-0.578169	-1.603565	0.274940
O14	O	-0.078169	-1.103565	0.774940
O15	O	-0.274809	-1.472956	0.447522
O16	O	0.225191	-0.972956	0.947522
O17	O	-0.578124	-1.776161	0.447512
O18	O	-0.078124	-1.276161	0.947512
O19	O	-0.274776	-1.603729	0.578277
O20	O	0.225224	-1.103729	1.078277
O21	O	-0.447419	-1.472863	0.274945
O22	O	0.052581	-0.972863	0.774945
O23	O	-0.447347	-1.300356	0.447476
O24	O	0.052653	-0.800356	0.947476
O25	O	-0.577998	-1.472948	0.750767
O26	O	-0.077998	-0.972948	1.250767
O27	O	-0.578042	-1.300352	0.578196
O28	O	-0.078042	-0.800352	1.078196
O29	O	-0.447269	-1.603724	0.750802
O30	O	0.052731	-1.103724	1.250802
O31	O	-0.750662	-1.603561	0.447466
O32	O	-0.250662	-1.103561	0.947466
O33	O	-0.750608	-1.472855	0.578190
O34	O	-0.250608	-0.972855	1.078190
C35	C	-0.789255	-1.538226	0.512845
C36	C	-0.289255	-1.038226	1.012845
C37	C	-0.907560	-1.538302	0.512873
C38	C	-0.407560	-1.038302	1.012873
C39	C	-0.512692	-1.261734	0.512832
C40	C	-0.012692	-0.761734	1.012832
C41	C	-0.512709	-1.143429	0.512844
C42	C	-0.012709	-0.643429	1.012844
C43	C	-0.512620	-1.538346	0.790485
C44	C	-0.012620	-1.038346	1.290485
C45	C	-0.512581	-1.538377	0.908790
C46	C	-0.012581	-1.038377	1.408790
C47	C	-0.976804	-1.609475	0.441848
C48	C	-0.476804	-1.109475	0.941848
C49	C	-1.047501	-1.635486	0.538997
C50	C	-0.547501	-1.135486	1.038997
C51	C	-1.047662	-1.512425	0.415785
C52	C	-0.547662	-1.012425	0.915785
C53	C	-0.976698	-1.564362	0.610073
C54	C	-0.476698	-1.064362	1.110073
C55	C	-0.976854	-1.441256	0.486796
C56	C	-0.476854	-0.941256	0.986796
C57	C	-1.047519	-1.467229	0.584012
C58	C	-0.547519	-0.967229	1.084012
C59	C	-0.235093	-1.538354	0.512906
C60	C	0.264907	-1.038354	1.012906
C61	C	-0.116787	-1.538387	0.512923
C62	C	0.383213	-1.038387	1.012923
C63	C	-0.512736	-1.815896	0.512896
C64	C	-0.012736	-1.315896	1.012896
C65	C	-0.512745	-1.934201	0.512909
C66	C	-0.012745	-1.434201	1.012909
C67	C	-0.441526	-1.074146	0.441881
C68	C	0.058474	-0.574146	0.941881
C69	C	-0.538615	-1.003343	0.415702
C70	C	-0.038615	-0.503343	0.915702
C71	C	-0.415668	-1.003433	0.539042
C72	C	0.084332	-0.503433	1.039042
C73	C	-0.609849	-1.074183	0.486614
C74	C	-0.109849	-0.574183	0.986614
C75	C	-0.486836	-1.074280	0.609999
C76	C	0.013164	-0.574280	1.109999
C77	C	-0.583991	-1.003508	0.583857
C78	C	-0.083991	-0.503508	1.083857
C79	C	-0.512730	-1.538265	0.236323
C80	C	-0.012730	-1.038265	0.736323
C81	C	-0.512470	-1.538441	0.118018
C82	C	-0.012470	-1.038441	0.618018
C83	C	-0.583644	-1.467270	0.978025
C84	C	-0.083644	-0.967270	1.478025
C85	C	-0.609650	-1.564392	1.048815
C86	C	-0.109650	-1.064392	1.548815
C87	C	-0.486510	-1.441330	1.048799
C88	C	0.013490	-0.941330	1.548799
C89	C	-0.538638	-1.635550	0.978023
C90	C	-0.038638	-1.135550	1.478023
C91	C	-0.415453	-1.512422	0.978000
C92	C	0.084547	-1.012422	1.478000
C93	C	-0.441422	-1.609612	1.048759
C94	C	0.058578	-1.109612	1.548759
H95	H	-0.945753	-1.669674	0.381838
H96	H	-0.445753	-1.169674	0.881838
H97	H	-1.078372	-1.407077	0.644167
H98	H	-0.578372	-0.907077	1.144167
H99	H	-0.691742	-1.586380	1.079921
H100	H	-0.191742	-1.086380	1.579921
N101	N	-0.457344	-1.332591	1.089985
N102	N	0.042656	-0.832591	1.589985
H103	H	-0.517122	-1.304198	1.135245
H104	H	-0.017122	-0.804198	1.635245
H105	H	-0.444805	-1.283099	1.028138
H106	H	0.055195	-0.783099	1.528138
H107	H	-1.078536	-1.717593	0.561082
H108	H	-0.578536	-1.217593	1.061082
H109	H	-1.078832	-1.490502	0.333659
H110	H	-0.578832	-0.990502	0.833659
N111	N	-0.935588	-1.593534	0.718888
N112	N	-0.435588	-1.093534	1.218888
H113	H	-0.961912	-1.666629	0.738761
H114	H	-0.461912	-1.166629	1.238761
H115	H	-0.961920	-1.540103	0.772547
H116	H	-0.461920	-1.040103	1.272547
H117	H	-0.381389	-1.105163	0.381796
H118	H	0.118611	-0.605163	0.881796
H119	H	-0.560736	-1.717672	0.947064
H120	H	-0.060736	-1.217672	1.447064
N121	N	-0.935708	-1.332527	0.457513
N122	N	-0.435708	-0.832527	0.957513
H123	H	-0.961477	-1.313009	0.384102
H124	H	-0.461477	-0.813009	0.884102
H125	H	-0.855525	-1.333215	0.458460
H126	H	-0.355525	-0.833215	0.958460
H127	H	-0.560522	-0.972185	0.333568
H128	H	-0.060522	-0.472185	0.833568
H129	H	-0.381279	-1.669841	1.079621
H130	H	0.118721	-1.169841	1.579621
H131	H	-0.691955	-1.105131	0.464392
H132	H	-0.191955	-0.605131	0.964392
H133	H	-0.644273	-0.972687	0.643895
H134	H	-0.144273	-0.472687	1.143895
H135	H	-0.464899	-1.105463	0.692108
H136	H	0.035101	-0.605463	1.192108
H137	H	-0.333597	-0.972301	0.561136
H138	H	0.166403	-0.472301	1.061136
N139	N	-0.663361	-1.387679	0.936873
N140	N	-0.163361	-0.887679	1.436873
H141	H	-0.736671	-1.407454	0.962633
H142	H	-0.236671	-0.907454	1.462633
H143	H	-0.662268	-1.387775	0.856691
H144	H	-0.162268	-0.887775	1.356691
N145	N	-0.306750	-1.483263	0.936749
N146	N	0.193250	-0.983263	1.436749
H147	H	-0.287163	-1.409876	0.962443
H148	H	0.212837	-0.909876	1.462443
H149	H	-0.307526	-1.484205	0.856567
H150	H	0.192474	-0.984205	1.356567
