data_functionalizedCrystal
_audit_creation_method	'MofGen! by Chris Wilmer'
_symmetry_space_group_name_H-M	'P1'
_symmetry_Int_Tables_number	1
_symmetry_cell_setting	triclinic
loop_
_symmetry_equiv_pos_as_xyz
  x,y,z
_cell_length_a	19.121102
_cell_length_b	19.121449
_cell_length_c	18.215399
_cell_angle_alpha	92.467880
_cell_angle_beta	92.458396
_cell_angle_gamma	85.039789
loop_
_atom_site_label
_atom_site_type_symbol
_atom_site_fract_x
_atom_site_fract_y
_atom_site_fract_z
Zn1	Zn	1.087630	-0.326089	0.450102
Zn2	Zn	1.092558	-0.443752	0.321999
Zn3	Zn	0.969965	-0.321083	0.322020
Zn4	Zn	0.974946	-0.438687	0.440000
O5	O	1.031275	-0.382403	0.383530
O6	O	1.186747	-0.345912	0.437328
O7	O	1.076274	-0.427505	0.219016
O8	O	0.981426	-0.223287	0.343247
O9	O	1.190369	-0.432359	0.343211
O10	O	1.067874	-0.226965	0.437348
O11	O	0.986205	-0.337381	0.219031
O12	O	0.872162	-0.332469	0.333452
O13	O	0.989916	-0.423726	0.544327
O14	O	0.875821	-0.418872	0.420131
O15	O	1.072704	-0.341000	0.551748
O16	O	1.081104	-0.541541	0.333416
O17	O	0.994695	-0.537819	0.420110
C18	C	0.848461	-0.374578	0.375698
C19	C	0.770253	-0.371248	0.372364
C20	C	0.735437	-0.414736	0.415850
C21	C	0.661952	-0.411598	0.412721
C22	C	0.623284	-0.364973	0.366101
C23	C	0.658105	-0.321480	0.322614
C24	C	0.731589	-0.324616	0.325747
C25	C	0.401315	-0.353249	0.354391
C26	C	0.327827	-0.350118	0.351259
C27	C	0.331679	-0.440235	0.441368
C28	C	0.405164	-0.443369	0.444493
C29	C	0.439978	-0.399873	0.401009
C30	C	0.548171	-0.361766	0.362900
C31	C	0.515090	-0.403078	0.404214
C32	C	1.038994	-0.565210	0.375682
C33	C	1.042361	-0.643419	0.372351
C34	C	0.998923	-0.678248	0.415883
C35	C	1.002089	-0.751733	0.412751
C36	C	1.048698	-0.790388	0.366090
C37	C	1.092137	-0.755554	0.322553
C38	C	1.088967	-0.682070	0.325682
C39	C	1.060519	-1.012359	0.354384
C40	C	1.063688	-1.085848	0.351260
C41	C	0.973639	-1.082022	0.441457
C42	C	0.970476	-1.008537	0.444585
C43	C	1.013913	-0.973709	0.401045
C44	C	1.051937	-0.865502	0.362889
C45	C	1.010669	-0.898596	0.404243
C46	C	1.214803	-0.390259	0.391394
C47	C	1.293011	-0.393607	0.394745
C48	C	1.031316	-0.382356	0.575487
C49	C	1.031333	-0.382336	0.657288
C50	C	1.023545	-0.198883	0.391427
C51	C	1.020250	-0.120677	0.394792
C52	C	1.031272	-0.382400	0.192324
C53	C	1.031383	-0.382228	0.110538
C54	C	1.074455	-0.339220	0.849350
C55	C	1.074463	-0.339200	0.926210
C56	C	0.988256	-0.425346	0.918470
C57	C	0.988245	-0.425362	0.841612
C58	C	1.031349	-0.382300	0.807054
C59	C	1.031367	-0.382264	0.960772
C60	C	1.031375	-0.382243	1.044107
C61	C	1.031340	-0.382321	0.723714
H62	H	0.303326	-0.475646	0.476771
F63	F	1.120328	-0.293388	0.812574
F64	F	0.920871	-0.967403	0.494251
F65	F	0.942360	-0.471213	0.796594
H66	H	0.766916	-0.452705	0.453809
H67	H	0.953164	-0.460407	0.946617
H68	H	0.633609	-0.447011	0.448131
H69	H	1.109563	-0.304118	0.960645
F70	F	1.106758	-0.975302	0.308054
F71	F	1.135196	-0.645003	0.279345
F72	F	0.446312	-0.492995	0.494110
H73	H	0.429652	-0.317837	0.318977
F74	F	0.616950	-0.271855	0.273003
F75	F	0.286675	-0.300496	0.301634
F76	F	0.768641	-0.278328	0.279465
H77	H	0.546576	-0.441036	0.442174
F78	F	1.113297	-1.126986	0.301594
F79	F	0.927413	-1.119094	0.487791
H80	H	0.960973	-0.646780	0.453883
F81	F	0.955863	-0.788798	0.459091
H82	H	1.130083	-0.787033	0.284557
F83	F	0.507011	-0.312146	0.313286
H84	H	1.089886	-0.896983	0.324898
F85	F	0.961065	-0.857455	0.453899
