data_functionalizedCrystal
_audit_creation_method	'MofGen! by Chris Wilmer'
_symmetry_space_group_name_H-M	'P1'
_symmetry_Int_Tables_number	1
_symmetry_cell_setting	triclinic
loop_
_symmetry_equiv_pos_as_xyz
  x,y,z
_cell_length_a	16.956995
_cell_length_b	14.853559
_cell_length_c	15.455313
_cell_angle_alpha	92.670929
_cell_angle_beta	87.515363
_cell_angle_gamma	79.842963
loop_
_atom_site_label
_atom_site_type_symbol
_atom_site_fract_x
_atom_site_fract_y
_atom_site_fract_z
O1	O	1.061571	0.033155	-0.072189
O2	O	1.561571	0.533155	0.427811
O3	O	0.829447	0.064803	-0.072177
O4	O	1.329447	0.564803	0.427823
O5	O	0.951713	-0.082723	-0.072183
O6	O	1.451713	0.417277	0.427817
O7	O	0.939305	0.180680	-0.072184
O8	O	1.439305	0.680680	0.427816
O9	O	0.944721	-0.074319	0.072080
O10	O	1.444721	0.425681	0.572080
O11	O	0.822455	0.073206	0.072086
O12	O	1.322455	0.573206	0.572086
O13	O	1.054579	0.041558	0.072073
O14	O	1.554579	0.541558	0.572073
Cu15	Cu	0.937879	0.058149	0.085252
Cu16	Cu	1.437879	0.558149	0.585252
Cu17	Cu	0.946147	0.048211	-0.085355
Cu18	Cu	1.446147	0.548211	0.414645
O19	O	0.932313	0.189083	0.072079
O20	O	1.432313	0.689083	0.572079
C21	C	0.796245	0.070625	-0.000044
C22	C	1.296245	0.570625	0.499956
C23	C	0.707729	0.075443	-0.000040
C24	C	1.207729	0.575443	0.499960
C25	C	0.208470	0.111480	-0.000072
C26	C	0.708470	0.611480	0.499928
C27	C	0.291640	0.106947	-0.000071
C28	C	0.791640	0.606947	0.499929
C29	C	0.342636	0.021850	-0.000064
C30	C	0.842636	0.521850	0.499936
C31	C	0.310458	-0.058718	-0.000067
C32	C	0.810458	0.441282	0.499933
C33	C	0.227290	-0.054184	-0.000074
C34	C	0.727290	0.445816	0.499926
C35	C	0.592383	-0.000592	-0.000049
C36	C	1.092383	0.499408	0.499951
C37	C	0.675557	-0.005120	-0.000039
C38	C	1.175557	0.494880	0.499961
C39	C	0.656733	0.160546	-0.000045
C40	C	1.156733	0.660546	0.499955
C41	C	0.573563	0.165072	-0.000047
C42	C	1.073563	0.665072	0.499953
C43	C	0.541393	0.084504	-0.000054
C44	C	1.041393	0.584504	0.499946
N45	N	0.427649	0.017214	-0.000061
N46	N	0.927649	0.517214	0.499939
N47	N	0.456381	0.089140	-0.000064
N48	N	0.956381	0.589140	0.499936
C49	C	0.947656	-0.112067	-0.000053
C50	C	1.447656	0.387933	0.499947
C51	C	0.945975	-0.212024	-0.000058
C52	C	1.445975	0.287976	0.499942
C53	C	0.942655	-0.639238	-0.078695
C54	C	1.442655	-0.139238	0.421305
C55	C	0.935032	-0.630071	0.078586
C56	C	1.435032	-0.130071	0.578586
C57	C	0.936618	-0.536158	0.078586
C58	C	1.436618	-0.036158	0.578586
C59	C	0.941221	-0.493781	-0.000055
C60	C	1.441221	0.006219	0.499945
C61	C	0.944239	-0.545316	-0.078697
C62	C	1.444239	-0.045316	0.421303
C63	C	0.933593	-0.484614	0.157227
C64	C	1.433593	0.015386	0.657227
C65	C	0.935178	-0.390695	0.157230
C66	C	1.435178	0.109305	0.657230
C67	C	0.939787	-0.348317	0.078588
C68	C	1.439787	0.151683	0.578588
C69	C	0.942805	-0.399859	-0.000057
C70	C	1.442805	0.100141	0.499943
C71	C	0.947409	-0.357481	-0.078698
C72	C	1.447409	0.142519	0.421302
C73	C	0.950433	-0.409023	-0.157344
C74	C	1.450433	0.090977	0.342656
C75	C	0.948848	-0.502939	-0.157339
C76	C	1.448848	-0.002939	0.342661
C77	C	0.941372	-0.254401	0.078583
C78	C	1.441372	0.245599	0.578583
C79	C	0.948992	-0.263559	-0.078699
C80	C	1.448992	0.236441	0.421301
C81	C	1.087781	0.035736	-0.000062
C82	C	1.587781	0.535736	0.499938
C83	C	1.176297	0.030918	-0.000072
C84	C	1.676297	0.530918	0.499928
C85	C	0.936370	0.218428	-0.000053
C86	C	1.436370	0.718428	0.499947
C87	C	0.938051	0.318384	-0.000054
C88	C	1.438051	0.818384	0.499946
N89	N	0.932069	0.065138	0.205247
N90	N	1.432069	0.565138	0.705247
N91	N	0.951963	0.041215	-0.205351
N92	N	1.451963	0.541215	0.294649
C93	C	0.984030	0.002485	0.250639
C94	C	1.484030	0.502485	0.750639
C95	C	0.979643	0.007778	0.341447
C96	C	1.479643	0.507778	0.841447
C97	C	0.923299	0.075730	0.386862
C98	C	1.423299	0.575730	0.886862
C99	C	0.871333	0.138386	0.341464
C100	C	1.371333	0.638386	0.841464
C101	C	0.875716	0.133088	0.250657
C102	C	1.375716	0.633088	0.750657
C103	C	0.904380	0.098573	0.658444
C104	C	1.404380	0.598573	1.158444
C105	C	0.900003	0.103868	0.749257
C106	C	1.400003	0.603868	1.249257
C107	C	1.008312	-0.026742	0.749234
C108	C	1.508312	0.473258	1.249234
C109	C	1.012694	-0.032030	0.658426
C110	C	1.512694	0.467970	1.158426
C111	C	0.960725	0.030623	0.613036
C112	C	1.460725	0.530623	1.113036
N113	N	0.918816	0.081144	0.479682
N114	N	1.418816	0.581144	0.979682
N115	N	0.965205	0.025205	0.520217
N116	N	1.465205	0.525205	1.020217
H117	H	0.682935	0.226140	-0.000041
H118	H	1.182935	0.726140	0.499959
H119	H	0.717077	-0.074419	-0.000038
H120	H	1.217077	0.425581	0.499962
O121	O	0.518562	0.256857	-0.000050
O122	O	1.018562	0.756857	0.499950
H123	H	0.532862	0.292278	-0.058852
H124	H	1.032862	0.792278	0.441148
H125	H	0.951309	-0.544911	-0.221368
H126	H	1.451309	-0.044911	0.278632
H127	H	0.566201	-0.066196	-0.000052
H128	H	1.066201	0.433804	0.499948
O129	O	0.819658	0.200655	0.201699
O130	O	1.319658	0.700655	0.701699
H131	H	0.832161	0.185545	0.130927
H132	H	1.332161	0.685545	0.630927
H133	H	0.351986	-0.128006	-0.000066
H134	H	0.851986	0.371994	0.499934
O135	O	0.192589	-0.141079	-0.000065
O136	O	0.692589	0.358921	0.499935
H137	H	0.158011	-0.146412	-0.058870
H138	H	0.658011	0.353588	0.441130
O139	O	0.938118	-0.198813	0.163398
O140	O	1.438118	0.301187	0.663398
H141	H	0.881686	-0.202558	0.201113
H142	H	1.381686	0.297442	0.701113
H143	H	0.931279	-0.664579	0.142612
H144	H	1.431279	-0.164579	0.642612
H145	H	0.954175	-0.374505	-0.221373
H146	H	1.454175	0.125495	0.278627
H147	H	0.952745	-0.229064	-0.142740
H148	H	1.452745	0.270936	0.357260
H149	H	0.945120	-0.681208	-0.142726
H150	H	1.445120	-0.181208	0.357274
O151	O	0.839230	0.177162	0.798247
O152	O	1.339230	0.677162	1.298247
H153	H	0.798456	0.144483	0.839645
H154	H	1.298456	0.644483	1.339645
O155	O	1.035698	-0.059799	0.390395
O156	O	1.535698	0.440201	0.890395
H157	H	1.000103	-0.098738	0.431774
H158	H	1.500103	0.401262	0.931774
O159	O	0.928648	-0.530320	0.242044
O160	O	1.428648	-0.030320	0.742044
H161	H	0.928072	-0.604289	0.228830
H162	H	1.428072	-0.104289	0.728830
O163	O	0.931934	-0.335115	0.242053
O164	O	1.431934	0.164885	0.742053
H165	H	0.875506	-0.338861	0.279775
H166	H	1.375506	0.161139	0.779775
H167	H	1.029914	-0.052845	0.213668
H168	H	1.529914	0.447155	0.713668
O169	O	1.073458	-0.105328	0.609442
O170	O	1.573458	0.394672	1.109442
H171	H	1.108848	-0.148013	0.656262
H172	H	1.608848	0.351987	1.156262
O173	O	1.064357	-0.094323	0.798188
O174	O	1.564357	0.405677	1.298188
H175	H	1.051841	-0.079232	0.868961
H176	H	1.551841	0.420768	1.368961
O177	O	0.848338	0.166154	0.609492
O178	O	1.348338	0.666154	1.109492
H179	H	0.808432	0.214300	0.656330
H180	H	1.308432	0.714300	1.156330
H181	H	0.166953	0.180775	-0.000071
H182	H	0.666953	0.680775	0.499929
O183	O	0.810566	0.211686	0.390441
O184	O	1.310566	0.711686	0.890441
H185	H	0.769781	0.179023	0.431839
H186	H	1.269781	0.679023	0.931839
O187	O	0.326343	0.193839	-0.000051
O188	O	0.826343	0.693839	0.499949
H189	H	0.276909	0.253774	-0.000039
H190	H	0.776909	0.753774	0.499961
