data_functionalizedCrystal
_audit_creation_method	'MofGen! by Chris Wilmer'
_symmetry_space_group_name_H-M	'P1'
_symmetry_Int_Tables_number	1
_symmetry_cell_setting	triclinic
loop_
_symmetry_equiv_pos_as_xyz
  x,y,z
_cell_length_a	16.120490
_cell_length_b	16.120444
_cell_length_c	12.759393
_cell_angle_alpha	92.863572
_cell_angle_beta	87.082433
_cell_angle_gamma	90.165174
loop_
_atom_site_label
_atom_site_type_symbol
_atom_site_fract_x
_atom_site_fract_y
_atom_site_fract_z
Zn1	Zn	1.254489	-0.395617	-0.699338
Zn2	Zn	1.247325	-0.534691	-0.532072
Zn3	Zn	1.115423	-0.388592	-0.514347
Zn4	Zn	1.108339	-0.527563	-0.698382
O5	O	1.181394	-0.461616	-0.611035
O6	O	1.369904	-0.419989	-0.684967
O7	O	1.229794	-0.515354	-0.382701
O8	O	1.139833	-0.273162	-0.531869
O9	O	1.364641	-0.522166	-0.562078
O10	O	1.242005	-0.278323	-0.667780
O11	O	1.132887	-0.408016	-0.369678
O12	O	0.998117	-0.401104	-0.530942
O13	O	1.127759	-0.510016	-0.845530
O14	O	0.992913	-0.503205	-0.666152
O15	O	1.235135	-0.413076	-0.846232
O16	O	1.222925	-0.650108	-0.561152
O17	O	1.120812	-0.644871	-0.683339
C18	C	0.965343	-0.450619	-0.596521
C19	C	0.872914	-0.445935	-0.590338
C20	C	1.170345	-0.677662	-0.624090
C21	C	1.165694	-0.770092	-0.629715
C22	C	1.205723	-0.983071	-0.582095
C23	C	1.157218	-0.939317	-0.639997
C24	C	1.161936	-0.845151	-0.634274
C25	C	1.201007	-1.077246	-0.587816
C26	C	0.659945	-0.485908	-0.643109
C27	C	0.703690	-0.437390	-0.579048
C28	C	0.797855	-0.442145	-0.585332
C29	C	0.565772	-0.481154	-0.636827
C30	C	1.398289	-0.472656	-0.625606
C31	C	1.490716	-0.477361	-0.631816
C32	C	1.181456	-0.461535	-0.885067
C33	C	1.181483	-0.461500	-1.001843
C34	C	1.192509	-0.244727	-0.597954
C35	C	1.197245	-0.152302	-0.592380
C36	C	1.131042	-0.405600	-1.049925
C37	C	1.131063	-0.405576	-1.159649
C38	C	1.231971	-0.517353	-1.173201
C39	C	1.231946	-0.517381	-1.063479
C40	C	1.181383	-0.461639	-0.338068
C41	C	1.181529	-0.461448	-0.221289
H42	H	1.250788	-0.949814	-0.528228
H43	H	0.693211	-0.531015	-0.702666
H44	H	1.112149	-0.972578	-0.693866
N45	N	1.283540	-0.574404	-1.236169
N46	N	1.360551	-0.572784	-1.228734
H47	H	1.396978	-0.613071	-1.273206
H48	H	1.089952	-0.360098	-0.999744
N49	N	0.661950	-0.380799	-0.504335
N50	N	0.584406	-0.376966	-0.499272
H51	H	0.554922	-0.337002	-0.446507
H52	H	1.273022	-0.562905	-1.024331
H53	H	1.089989	-0.360057	-1.198791
