data_functionalizedCrystal
_audit_creation_method	'MofGen! by Chris Wilmer'
_symmetry_space_group_name_H-M	'P1'
_symmetry_Int_Tables_number	1
_symmetry_cell_setting	triclinic
loop_
_symmetry_equiv_pos_as_xyz
  x,y,z
_cell_length_a	23.532407
_cell_length_b	15.944551
_cell_length_c	15.021413
_cell_angle_alpha	89.996935
_cell_angle_beta	89.995415
_cell_angle_gamma	96.826258
loop_
_atom_site_label
_atom_site_type_symbol
_atom_site_fract_x
_atom_site_fract_y
_atom_site_fract_z
O1	O	0.755658	-0.101954	-0.073978
O2	O	1.005658	0.148046	0.176022
O3	O	1.255658	0.398046	0.426022
O4	O	1.505658	0.648046	0.676022
O5	O	0.589851	-0.116707	-0.073992
O6	O	0.839851	0.133293	0.176008
O7	O	1.089851	0.383293	0.426008
O8	O	1.339851	0.633293	0.676008
O9	O	0.677282	0.012982	-0.073977
O10	O	0.927282	0.262982	0.176023
O11	O	1.177282	0.512982	0.426023
O12	O	1.427282	0.762982	0.676023
O13	O	0.668227	-0.231643	-0.073993
O14	O	0.918227	0.018357	0.176007
O15	O	1.168227	0.268357	0.426007
O16	O	1.418227	0.518357	0.676007
O17	O	0.677268	0.012964	0.074088
O18	O	0.927268	0.262964	0.324088
O19	O	1.177268	0.512964	0.574088
O20	O	1.427268	0.762964	0.824088
O21	O	0.589837	-0.116726	0.074072
O22	O	0.839837	0.133274	0.324072
O23	O	1.089837	0.383274	0.574072
O24	O	1.339837	0.633274	0.824072
O25	O	0.755644	-0.101972	0.074086
O26	O	1.005644	0.148028	0.324086
O27	O	1.255644	0.398028	0.574086
O28	O	1.505644	0.648028	0.824086
Zn29	Zn	0.672738	-0.109352	0.097588
Zn30	Zn	0.922738	0.140648	0.347588
Zn31	Zn	1.172738	0.390648	0.597588
Zn32	Zn	1.422738	0.640648	0.847588
Zn33	Zn	0.672757	-0.109328	-0.097493
Zn34	Zn	0.922757	0.140672	0.152507
Zn35	Zn	1.172757	0.390672	0.402507
Zn36	Zn	1.422757	0.640672	0.652507
O37	O	0.668213	-0.231662	0.074071
O38	O	0.918213	0.018338	0.324071
O39	O	1.168213	0.268338	0.574071
O40	O	1.418213	0.518338	0.824071
C41	C	0.568627	-0.116341	0.000038
C42	C	0.818627	0.133659	0.250038
C43	C	1.068627	0.383659	0.500038
C44	C	1.318627	0.633659	0.750038
C45	C	0.505406	-0.115211	0.000033
C46	C	0.755406	0.134789	0.250033
C47	C	1.005406	0.384789	0.500033
C48	C	1.255406	0.634789	0.750033
C49	C	0.238923	-0.033805	0.000063
C50	C	0.488923	0.216195	0.250063
C51	C	0.738923	0.466195	0.500063
C52	C	0.988923	0.716195	0.750063
C53	C	0.298327	-0.034855	0.000062
C54	C	0.548327	0.215145	0.250062
C55	C	0.798327	0.465145	0.500062
C56	C	1.048327	0.715145	0.750062
O57	O	0.334821	0.029724	0.000098
O58	O	0.584821	0.279724	0.250098
O59	O	0.834821	0.529724	0.500098
O60	O	1.084821	0.779724	0.750098
N61	N	0.321252	-0.111955	0.000051
N62	N	0.571252	0.138045	0.250051
N63	N	0.821252	0.388045	0.500051
N64	N	1.071252	0.638045	0.750051
C65	C	0.284769	-0.188011	0.000049
C66	C	0.534769	0.061989	0.250049
C67	C	0.784769	0.311989	0.500049
C68	C	1.034769	0.561989	0.750049
O69	O	0.309723	-0.253688	0.000040
O70	O	0.559723	-0.003688	0.250040
O71	O	0.809723	0.246312	0.500040
O72	O	1.059723	0.496312	0.750040
C73	C	0.225366	-0.186961	0.000056
C74	C	0.475366	0.063039	0.250056
C75	C	0.725366	0.313039	0.500056
C76	C	0.975366	0.563039	0.750056
C77	C	0.202444	-0.109856	0.000058
C78	C	0.452444	0.140144	0.250058
C79	C	0.702444	0.390144	0.500058
C80	C	0.952444	0.640144	0.750058
C81	C	0.216001	0.043294	0.000066
C82	C	0.466001	0.293294	0.250066
C83	C	0.716001	0.543294	0.500066
C84	C	0.966001	0.793294	0.750066
C85	C	0.156601	0.044343	0.000065
C86	C	0.406601	0.294343	0.250065
C87	C	0.656601	0.544343	0.500065
C88	C	0.906601	0.794343	0.750065
C89	C	0.120122	-0.031708	0.000060
C90	C	0.370122	0.218292	0.250060
C91	C	0.620122	0.468292	0.500060
C92	C	0.870122	0.718292	0.750060
C93	C	0.143044	-0.108807	0.000057
C94	C	0.393044	0.141193	0.250057
C95	C	0.643044	0.391193	0.500057
C96	C	0.893044	0.641193	0.750057
C97	C	0.188884	-0.263016	0.000060
C98	C	0.438884	-0.013016	0.250060
C99	C	0.688884	0.236984	0.500060
C100	C	0.938884	0.486984	0.750060
C101	C	0.129477	-0.261959	0.000068
C102	C	0.379477	-0.011959	0.250068
C103	C	0.629477	0.238041	0.500068
C104	C	0.879477	0.488041	0.750068
C105	C	0.106556	-0.184854	0.000070
C106	C	0.356556	0.065146	0.250070
C107	C	0.606556	0.315146	0.500070
C108	C	0.856556	0.565146	0.750070
C109	C	0.047166	-0.183808	0.000051
C110	C	0.297166	0.066192	0.250051
C111	C	0.547166	0.316192	0.500051
C112	C	0.797166	0.566192	0.750051
N113	N	0.024241	-0.106708	0.000062
N114	N	0.274241	0.143292	0.250062
N115	N	0.524241	0.393292	0.500062
N116	N	0.774241	0.643292	0.750062
C117	C	0.060719	-0.030657	0.000067
C118	C	0.310719	0.219343	0.250067
C119	C	0.560719	0.469343	0.500067
C120	C	0.810719	0.719343	0.750067
C121	C	0.409520	-0.190211	0.000037
C122	C	0.659520	0.059789	0.250037
C123	C	0.909520	0.309789	0.500037
C124	C	1.159520	0.559789	0.750037
C125	C	0.468922	-0.191262	0.000024
C126	C	0.718922	0.058738	0.250024
C127	C	0.968922	0.308738	0.500024
C128	C	1.218922	0.558738	0.750024
C129	C	0.482476	-0.038105	0.000039
C130	C	0.732476	0.211895	0.250039
C131	C	0.982476	0.461895	0.500039
C132	C	1.232476	0.711895	0.750039
C133	C	0.423073	-0.037055	0.000045
C134	C	0.673073	0.212945	0.250045
C135	C	0.923073	0.462945	0.500045
C136	C	1.173073	0.712945	0.750045
C137	C	0.386595	-0.113110	0.000048
C138	C	0.636595	0.136890	0.250048
C139	C	0.886595	0.386890	0.500048
C140	C	1.136595	0.636890	0.750048
C141	C	-0.064026	-0.028460	0.000063
C142	C	0.185974	0.221540	0.250063
C143	C	0.435974	0.471540	0.500063
C144	C	0.685974	0.721540	0.750063
C145	C	-0.123432	-0.027418	0.000058
C146	C	0.126568	0.222582	0.250058
C147	C	0.376568	0.472582	0.500058
C148	C	0.626568	0.722582	0.750058
C149	C	-0.136981	-0.180575	0.000048
C150	C	0.113019	0.069425	0.250048
C151	C	0.363019	0.319425	0.500048
C152	C	0.613019	0.569425	0.750048
C153	C	-0.077580	-0.181617	0.000048
C154	C	0.172420	0.068383	0.250048
C155	C	0.422420	0.318383	0.500048
C156	C	0.672420	0.568383	0.750048
C157	C	-0.041104	-0.105553	0.000059
C158	C	0.208896	0.144447	0.250059
C159	C	0.458896	0.394447	0.500059
C160	C	0.708896	0.644447	0.750059
O161	O	0.010637	-0.248352	0.000019
O162	O	0.260637	0.001648	0.250019
O163	O	0.510637	0.251648	0.500019
O164	O	0.760637	0.501648	0.750019
O165	O	0.035757	0.035008	0.000087
O166	O	0.285757	0.285008	0.250087
O167	O	0.535757	0.535008	0.500087
O168	O	0.785757	0.785008	0.750087
C169	C	0.676899	0.044264	0.000056
C170	C	0.926899	0.294264	0.250056
C171	C	1.176899	0.544264	0.500056
C172	C	1.426899	0.794264	0.750056
C173	C	0.675772	0.137501	0.000056
C174	C	0.925772	0.387501	0.250056
C175	C	1.175772	0.637501	0.500056
C176	C	1.425772	0.887501	0.750056
C177	C	0.776868	-0.102339	0.000054
C178	C	1.026868	0.147661	0.250054
C179	C	1.276868	0.397661	0.500054
C180	C	1.526868	0.647661	0.750054
C181	C	0.840090	-0.103468	0.000053
C182	C	1.090090	0.146532	0.250053
C183	C	1.340090	0.396532	0.500053
C184	C	1.590090	0.646532	0.750053
C185	C	0.668596	-0.262944	0.000037
C186	C	0.918596	-0.012944	0.250037
C187	C	1.168596	0.237056	0.500037
C188	C	1.418596	0.487056	0.750037
C189	C	0.669723	-0.356180	0.000030
C190	C	0.919723	-0.106180	0.250030
C191	C	1.169723	0.143820	0.500030
C192	C	1.419723	0.393820	0.750030
N193	N	0.672730	-0.109368	0.230725
N194	N	0.922730	0.140632	0.480725
N195	N	1.172730	0.390632	0.730725
N196	N	1.422730	0.640632	0.980725
C197	C	0.618885	0.351878	0.000039
C198	C	0.868885	0.601878	0.250039
C199	C	1.118885	0.851878	0.500039
C200	C	1.368885	1.101878	0.750039
C201	C	0.645295	0.413109	0.073046
C202	C	0.895295	0.663109	0.323046
C203	C	1.145295	0.913109	0.573046
C204	C	1.395295	1.163109	0.823046
C205	C	0.673733	0.308209	0.000049
C206	C	0.923733	0.558209	0.250049
C207	C	1.173733	0.808209	0.500049
C208	C	1.423733	1.058209	0.750049
C209	C	0.645321	0.413110	-0.072934
C210	C	0.895321	0.663110	0.177066
C211	C	1.145321	0.913110	0.427066
C212	C	1.395321	1.163110	0.677066
C213	C	0.671760	0.473105	0.000038
C214	C	0.921760	0.723105	0.250038
C215	C	1.171760	0.973105	0.500038
C216	C	1.421760	1.223105	0.750038
C217	C	0.700158	0.368212	0.073116
C218	C	0.950158	0.618212	0.323116
C219	C	1.200158	0.868212	0.573116
C220	C	1.450158	1.118212	0.823116
C221	C	0.700177	0.368207	-0.072929
C222	C	0.950177	0.618207	0.177071
C223	C	1.200177	0.868207	0.427071
C224	C	1.450177	1.118207	0.677071
C225	C	0.726627	0.429421	0.000096
C226	C	0.976627	0.679421	0.250096
C227	C	1.226627	0.929421	0.500096
C228	C	1.476627	1.179421	0.750096
C229	C	0.674869	0.213216	0.000056
C230	C	0.924869	0.463216	0.250056
C231	C	1.174869	0.713216	0.500056
C232	C	1.424869	0.963216	0.750056
C233	C	0.670629	0.568097	0.000038
C234	C	0.920629	0.818097	0.250038
C235	C	1.170629	1.068097	0.500038
C236	C	1.420629	1.318097	0.750038
N237	N	0.672770	-0.109305	-0.230631
N238	N	0.922770	0.140695	0.019369
N239	N	1.172770	0.390695	0.269369
N240	N	1.422770	0.640695	0.519369
C241	C	0.632296	-0.169309	0.470401
C242	C	0.882296	0.080691	0.720401
C243	C	1.132296	0.330691	0.970401
C244	C	1.382296	0.580691	1.220401
C245	C	0.683757	-0.185182	0.529739
C246	C	0.933757	0.064818	0.779739
C247	C	1.183757	0.314818	1.029739
C248	C	1.433757	0.564818	1.279739
C249	C	0.672745	-0.109347	0.412332
C250	C	0.922745	0.140653	0.662332
C251	C	1.172745	0.390653	0.912332
C252	C	1.422745	0.640653	1.162332
C253	C	0.621298	-0.093492	0.529736
C254	C	0.871298	0.156508	0.779736
C255	C	1.121298	0.406508	1.029736
C256	C	1.371298	0.656508	1.279736
C257	C	0.672754	-0.109329	0.587756
C258	C	0.922754	0.140671	0.837756
C259	C	1.172754	0.390671	1.087756
C260	C	1.422754	0.640671	1.337756
C261	C	0.724231	-0.125258	0.470363
C262	C	0.974231	0.124742	0.720363
C263	C	1.224231	0.374742	0.970363
C264	C	1.474231	0.624742	1.220363
C265	C	0.661739	-0.033535	0.470355
C266	C	0.911739	0.216465	0.720355
C267	C	1.161739	0.466465	0.970355
C268	C	1.411739	0.716465	1.220355
C269	C	0.713237	-0.049376	0.529666
C270	C	0.963237	0.200624	0.779666
C271	C	1.213237	0.450624	1.029666
C272	C	1.463237	0.700624	1.279666
C273	C	0.672738	-0.109360	0.311275
C274	C	0.922738	0.140640	0.561275
C275	C	1.172738	0.390640	0.811275
C276	C	1.422738	0.640640	1.061275
C277	C	0.672766	-0.109315	0.688811
C278	C	0.922766	0.140685	0.938811
C279	C	1.172766	0.390685	1.188811
C280	C	1.422766	0.640685	1.438811
H281	H	0.137944	0.107130	0.000070
H282	H	0.387944	0.357130	0.250070
H283	H	0.637944	0.607130	0.500070
H284	H	0.887944	0.857130	0.750070
H285	H	0.379822	-0.252148	0.000032
H286	H	0.629822	-0.002148	0.250032
H287	H	0.879822	0.247852	0.500032
H288	H	1.129822	0.497852	0.750032
Cl289	Cl	0.217684	-0.359955	0.000058
Cl290	Cl	0.467684	-0.109955	0.250058
Cl291	Cl	0.717684	0.140045	0.500058
Cl292	Cl	0.967684	0.390045	0.750058
H293	H	0.404415	0.025731	0.000048
H294	H	0.654415	0.275731	0.250048
H295	H	0.904415	0.525731	0.500048
H296	H	1.154415	0.775731	0.750048
H297	H	-0.142091	0.035373	0.000058
H298	H	0.107909	0.285373	0.250058
H299	H	0.357909	0.535373	0.500058
H300	H	0.607909	0.785373	0.750058
H301	H	0.622090	0.433014	0.134763
H302	H	0.872090	0.683014	0.384763
H303	H	1.122090	0.933014	0.634763
H304	H	1.372090	1.183014	0.884763
H305	H	-0.166692	-0.242493	0.000040
H306	H	0.083308	0.007507	0.250040
H307	H	0.333308	0.257507	0.500040
H308	H	0.583308	0.507507	0.750040
H309	H	0.598124	-0.220057	0.444380
H310	H	0.848124	0.029943	0.694380
H311	H	1.098124	0.279943	0.944380
H312	H	1.348124	0.529943	1.194380
H313	H	0.245696	0.105227	0.000073
H314	H	0.495696	0.355227	0.250073
H315	H	0.745696	0.605227	0.500073
H316	H	0.995696	0.855227	0.750073
H317	H	0.577786	-0.080091	0.555819
H318	H	0.827786	0.169909	0.805819
H319	H	1.077786	0.419909	1.055819
H320	H	1.327786	0.669909	1.305819
Cl321	Cl	0.735938	0.337644	0.168514
Cl322	Cl	0.985938	0.587644	0.418514
Cl323	Cl	1.235938	0.837644	0.668514
Cl324	Cl	1.485938	1.087644	0.918514
Cl325	Cl	0.083623	-0.357579	0.000074
Cl326	Cl	0.333623	-0.107579	0.250074
Cl327	Cl	0.583623	0.142421	0.500074
Cl328	Cl	0.833623	0.392421	0.750074
Cl329	Cl	0.528346	0.057502	0.000044
Cl330	Cl	0.778346	0.307502	0.250044
Cl331	Cl	1.028346	0.557502	0.500044
Cl332	Cl	1.278346	0.807502	0.750044
Cl333	Cl	0.609498	0.443839	-0.168220
Cl334	Cl	0.859498	0.693839	0.081780
Cl335	Cl	1.109498	0.943839	0.331780
Cl336	Cl	1.359498	1.193839	0.581780
Cl337	Cl	-0.048764	-0.278551	0.000034
Cl338	Cl	0.201236	-0.028551	0.250034
Cl339	Cl	0.451236	0.221449	0.500034
Cl340	Cl	0.701236	0.471449	0.750034
H341	H	0.747484	0.001343	0.555525
H342	H	0.997484	0.251343	0.805525
H343	H	1.247484	0.501343	1.055525
H344	H	1.497484	0.751343	1.305525
H345	H	0.772194	0.462963	0.000141
H346	H	1.022194	0.712963	0.250141
H347	H	1.272194	0.962963	0.500141
H348	H	1.522194	1.212963	0.750141
Cl349	Cl	0.735973	0.337437	-0.168222
Cl350	Cl	0.985973	0.587437	0.081778
Cl351	Cl	1.235973	0.837437	0.331778
Cl352	Cl	1.485973	1.087437	0.581778
Cl353	Cl	0.497730	-0.288198	0.000002
Cl354	Cl	0.747730	-0.038198	0.250002
Cl355	Cl	0.997730	0.211802	0.500002
Cl356	Cl	1.247730	0.461802	0.750002
H357	H	-0.034333	0.033478	0.000072
H358	H	0.215667	0.283478	0.250072
H359	H	0.465667	0.533478	0.500072
H360	H	0.715667	0.783478	0.750072
H361	H	0.693074	-0.249286	0.555823
H362	H	0.943074	0.000714	0.805823
H363	H	1.193074	0.250714	1.055823
H364	H	1.443074	0.500714	1.305823
H365	H	0.767753	-0.138737	0.444393
H366	H	1.017753	0.111263	0.694393
H367	H	1.267753	0.361263	0.944393
H368	H	1.517753	0.611263	1.194393
H369	H	0.573358	0.318187	0.000108
H370	H	0.823358	0.568187	0.250108
H371	H	1.073358	0.818187	0.500108
H372	H	1.323358	1.068187	0.750108
Cl373	Cl	0.647328	0.065405	0.430048
Cl374	Cl	0.897328	0.315405	0.680048
Cl375	Cl	1.147328	0.565405	0.930048
Cl376	Cl	1.397328	0.815405	1.180048
