data_functionalizedCrystal
_audit_creation_method	'MofGen! by Chris Wilmer'
_symmetry_space_group_name_H-M	'P1'
_symmetry_Int_Tables_number	1
_symmetry_cell_setting	triclinic
loop_
_symmetry_equiv_pos_as_xyz
  x,y,z
_cell_length_a	17.699083
_cell_length_b	15.944551
_cell_length_c	16.176319
_cell_angle_alpha	89.992246
_cell_angle_beta	89.998611
_cell_angle_gamma	83.390877
loop_
_atom_site_label
_atom_site_type_symbol
_atom_site_fract_x
_atom_site_fract_y
_atom_site_fract_z
O1	O	1.004260	0.106222	-0.068632
O2	O	0.783905	0.120042	-0.068660
O3	O	0.900100	-0.009156	-0.068638
O4	O	0.888065	0.235419	-0.068654
O5	O	0.900084	-0.009164	0.068855
O6	O	0.783889	0.120033	0.068833
O7	O	1.004244	0.106214	0.068861
Cu8	Cu	0.894065	0.113123	0.081401
Cu9	Cu	0.894084	0.113133	-0.081200
O10	O	0.888049	0.235411	0.068839
C11	C	0.755700	0.119542	0.000083
C12	C	0.671679	0.118057	0.000073
C13	C	0.623187	0.193893	0.000068
C14	C	0.544242	0.192492	0.000079
C15	C	0.513789	0.115254	0.000089
C16	C	0.562287	0.039412	0.000096
C17	C	0.641231	0.040814	0.000091
C18	C	0.243914	0.033758	0.000117
C19	C	0.164964	0.032362	0.000119
C20	C	0.146925	0.185436	0.000105
C21	C	0.225869	0.186837	0.000100
C22	C	0.274360	0.110996	0.000112
C23	C	0.359962	0.112516	0.000102
C24	C	0.428189	0.113733	0.000093
C25	C	0.899593	-0.040453	0.000109
C26	C	0.898095	-0.133696	0.000109
C27	C	0.822492	-0.348393	0.000088
C28	C	0.857591	-0.409488	0.067885
C29	C	0.895385	-0.304416	0.000102
C30	C	0.857624	-0.409464	-0.067672
C31	C	0.892762	-0.469323	0.000092
C32	C	0.930505	-0.364283	0.067955
C33	C	0.930527	-0.364252	-0.067663
C34	C	0.965680	-0.425329	0.000150
C35	C	0.896894	-0.209417	0.000109
C36	C	0.891259	-0.564321	0.000092
C37	C	1.032450	0.106713	0.000116
C38	C	1.116471	0.108199	0.000121
C39	C	0.888557	0.266708	0.000090
C40	C	0.890055	0.359951	0.000085
N41	N	0.894058	0.113116	0.195767
N42	N	0.894098	0.113133	-0.195565
C43	C	0.945524	0.055930	0.239040
C44	C	0.945528	0.055929	0.325588
C45	C	0.894068	0.113118	0.368859
C46	C	0.842596	0.170306	0.325579
C47	C	0.842589	0.170303	0.239034
C48	C	0.842622	0.170322	0.674608
C49	C	0.842634	0.170323	0.761159
C50	C	0.945561	0.055949	0.761161
C51	C	0.945554	0.055945	0.674616
C52	C	0.894080	0.113130	0.631343
C53	C	0.894075	0.113129	0.537499
C54	C	0.894076	0.113124	0.462702
H55	H	0.140173	-0.030538	0.000128
H56	H	0.826790	-0.429472	-0.124993
H57	H	0.826754	-0.429535	0.125194
H58	H	0.761987	-0.314958	0.000149
N59	N	1.041645	-0.467096	0.000185
N60	N	1.086035	-0.454616	-0.057465
H61	H	1.139685	-0.484116	-0.057439
H62	H	0.647975	0.256789	0.000060
H63	H	0.961303	-0.344360	0.125335
N64	N	0.690778	-0.036642	0.000103
N65	N	0.736844	-0.052935	0.058061
H66	H	0.771838	-0.107640	0.058073
H67	H	0.961339	-0.344183	-0.124975
N68	N	0.790051	0.228727	0.805362
N69	N	0.743084	0.202131	0.853666
H70	H	0.705948	0.243375	0.884885
N71	N	0.790030	0.228712	0.369790
N72	N	0.790042	0.228709	0.447062
H73	H	0.752917	0.269961	0.478286
H74	H	0.283386	-0.027997	0.000127
H75	H	0.987432	0.009364	0.203814
H76	H	0.987435	0.009364	0.360821
H77	H	0.987460	0.009379	0.639387
N78	N	0.256961	0.265742	0.000100
N79	N	0.242102	0.316827	0.058056
H80	H	0.264058	0.372557	0.058059
N81	N	0.531170	-0.039478	0.000115
N82	N	0.460684	-0.040721	0.000118
H83	H	0.438708	-0.096438	0.000130
H84	H	0.987472	0.009383	0.796403
H85	H	0.800711	0.216885	0.639382
N86	N	0.790009	0.228718	0.194840
N87	N	0.744066	0.279776	0.233483
H88	H	0.706927	0.321032	0.202273
H89	H	0.504763	0.254246	0.000074
N90	N	0.097380	0.262901	0.000095
N91	N	0.026896	0.261645	0.000101
H92	H	-0.008094	0.316353	0.000092
