data_functionalizedCrystal
_audit_creation_method	'MofGen! by Chris Wilmer'
_symmetry_space_group_name_H-M	'P1'
_symmetry_Int_Tables_number	1
_symmetry_cell_setting	triclinic
loop_
_symmetry_equiv_pos_as_xyz
  x,y,z
_cell_length_a	14.971486
_cell_length_b	10.654551
_cell_length_c	13.448316
_cell_angle_alpha	89.996249
_cell_angle_beta	89.998199
_cell_angle_gamma	84.049745
loop_
_atom_site_label
_atom_site_type_symbol
_atom_site_fract_x
_atom_site_fract_y
_atom_site_fract_z
O1	O	1.187838	0.163659	-0.082571
O2	O	0.927545	0.183258	-0.082597
O3	O	1.063676	-0.009345	-0.082584
O4	O	1.051708	0.356262	-0.082584
O5	O	1.063659	-0.009357	0.082800
O6	O	0.927528	0.183246	0.082786
O7	O	1.187821	0.163647	0.082813
Cu8	Cu	1.057673	0.173445	0.097900
Cu9	Cu	1.057693	0.173459	-0.097685
O10	O	1.051690	0.356250	0.082799
C11	C	0.894207	0.182375	0.000091
C12	C	0.794895	0.179749	0.000081
C13	C	1.062788	-0.056139	0.000105
C14	C	1.060158	-0.195554	0.000098
C15	C	0.738286	0.292897	0.000082
C16	C	0.644973	0.290422	0.000097
C17	C	0.608271	0.174796	0.000103
C18	C	0.664888	0.061639	0.000105
C19	C	0.758199	0.064116	0.000097
C20	C	0.470397	0.056485	0.000119
C21	C	0.377080	0.054007	0.000125
C22	C	0.357172	0.282791	0.000118
C23	C	0.450483	0.285268	0.000111
C24	C	0.507093	0.172110	0.000110
C25	C	1.058934	-0.261047	-0.090051
C26	C	1.056456	-0.392040	-0.090046
C27	C	1.056429	-0.392039	0.090264
C28	C	1.058901	-0.261046	0.090259
C29	C	1.060191	-0.195555	-0.180211
C30	C	1.058968	-0.261047	-0.270367
C31	C	1.056489	-0.392041	-0.270363
C32	C	1.055234	-0.457542	-0.180202
C33	C	1.221159	0.164530	0.000122
C34	C	1.320471	0.167156	0.000126
C35	C	1.052578	0.403044	0.000108
C36	C	1.055208	0.542459	0.000108
N37	N	1.057665	0.173435	0.235465
N38	N	1.057708	0.173460	-0.235249
C39	C	1.117963	0.088185	0.287511
C40	C	1.117968	0.088184	0.391614
C41	C	1.057680	0.173440	0.443669
C42	C	0.997375	0.258693	0.391616
C43	C	0.997366	0.258687	0.287514
C44	C	0.997400	0.258702	0.608596
C45	C	0.997410	0.258709	0.712704
C46	C	1.118002	0.088199	0.712696
C47	C	1.117993	0.088193	0.608594
C48	C	1.057690	0.173448	0.556548
H49	H	0.768161	0.387053	0.000076
O50	O	1.060055	-0.197272	-0.357885
C51	C	0.985455	-0.035337	-0.462572
C52	C	0.984135	-0.107435	-0.363408
H53	H	0.924071	0.037294	-0.467079
H54	H	1.049056	0.014687	-0.467108
H55	H	0.984189	-0.104691	-0.526980
H56	H	0.985368	-0.038165	-0.298944
H57	H	0.920539	-0.157479	-0.358959
H58	H	0.516488	-0.035661	0.000120
H59	H	0.480362	0.379420	0.000096
H60	H	0.948292	0.328122	0.566223
H61	H	0.598885	0.382559	0.000097
H62	H	0.634998	-0.032505	0.000124
H63	H	1.167060	0.018766	0.245135
O64	O	1.060109	-0.197617	0.177917
C65	C	1.059721	-0.211409	0.356761
C66	C	1.058390	-0.283406	0.257560
H67	H	1.058313	-0.280734	0.421178
H68	H	1.123369	-0.161499	0.361363
H69	H	0.998397	-0.138665	0.361178
H70	H	1.119671	-0.356210	0.253076
H71	H	0.994703	-0.333229	0.253000
O72	O	0.341527	-0.058384	0.000004
C73	C	0.329932	-0.254648	-0.085689
C74	C	0.370273	-0.127424	-0.085664
H75	H	0.353142	-0.310492	-0.154954
H76	H	0.353207	-0.310657	-0.016519
H77	H	0.253518	-0.236936	-0.085640
H78	H	0.446689	-0.145021	-0.085747
H79	H	0.346927	-0.071455	-0.154828
O80	O	1.176638	0.005340	0.442017
C81	C	1.296234	-0.163801	0.431023
C82	C	1.229846	-0.070030	0.373819
H83	H	1.339257	-0.224781	0.375909
H84	H	1.341308	-0.109521	0.479717
H85	H	1.257233	-0.226583	0.479803
H86	H	1.268774	-0.007225	0.324984
H87	H	1.184772	-0.124389	0.325187
O88	O	0.938748	0.341554	0.763119
C89	C	0.819143	0.510686	0.752148
C90	C	0.885521	0.416921	0.694930
H91	H	0.776104	0.571662	0.697043
H92	H	0.774083	0.456400	0.800865
H93	H	0.858152	0.573472	0.800907
H94	H	0.846584	0.354112	0.646118
H95	H	0.930580	0.471285	0.646276
O96	O	0.938684	0.341381	0.442137
C97	C	0.783618	0.414647	0.473966
C98	C	0.849986	0.320911	0.416709
H99	H	0.711891	0.398148	0.453412
H100	H	0.793906	0.400009	0.557322
H101	H	0.795933	0.515252	0.453499
H102	H	0.837711	0.220270	0.437092
H103	H	0.839682	0.335659	0.333367
H104	H	0.948265	0.328104	0.245139
H105	H	0.804290	-0.028022	0.000096
H106	H	0.311075	0.374928	0.000123
H107	H	1.053203	-0.564204	-0.180206
H108	H	1.167089	0.018778	0.566211
H109	H	1.062212	-0.088894	-0.180225
O110	O	1.055338	-0.455475	-0.358024
C111	C	1.055572	-0.441634	-0.536868
C112	C	1.056895	-0.369647	-0.437661
H113	H	1.056811	-0.372270	-0.601280
H114	H	1.116914	-0.514334	-0.541433
H115	H	0.991940	-0.491593	-0.541329
H116	H	1.120486	-0.319612	-0.433132
H117	H	0.995510	-0.297019	-0.433137
H118	H	1.167103	0.018781	0.755078
H119	H	1.055408	-0.445380	0.163669
