data_functionalizedCrystal
_audit_creation_method	'MofGen! by Chris Wilmer'
_symmetry_space_group_name_H-M	'P1'
_symmetry_Int_Tables_number	1
_symmetry_cell_setting	triclinic
loop_
_symmetry_equiv_pos_as_xyz
  x,y,z
_cell_length_a	8.559649
_cell_length_b	8.559649
_cell_length_c	10.065875
_cell_angle_alpha	97.528889
_cell_angle_beta	82.476114
_cell_angle_gamma	69.778664
loop_
_atom_site_label
_atom_site_type_symbol
_atom_site_fract_x
_atom_site_fract_y
_atom_site_fract_z
O1	O	2.100161	-0.028320	0.113490
O2	O	1.624676	0.055462	0.113492
O3	O	1.904310	-0.224172	0.113488
O4	O	1.820528	0.251314	0.113493
O5	O	1.957732	-0.277610	-0.113501
O6	O	1.678098	0.002024	-0.113498
O7	O	2.153583	-0.081757	-0.113500
Zn8	Zn	1.924322	-0.048351	-0.149538
Zn9	Zn	1.853937	0.022055	0.149530
O10	O	1.873949	0.197876	-0.113496
C11	C	1.591078	0.035092	-0.000003
C12	C	1.411379	0.053991	-0.000002
C13	C	1.937370	-0.311199	-0.000004
C14	C	1.956267	-0.490897	0.000003
C15	C	2.187181	-0.061387	-0.000002
C16	C	2.366878	-0.080284	0.000006
N17	N	1.972371	-0.096404	-0.353644
C18	C	1.840889	0.284904	-0.000001
C19	C	1.821990	0.464604	0.000001
N20	N	1.805903	0.070093	0.353636
C21	C	1.907619	-0.031628	0.421414
C22	C	1.870640	0.005333	0.578582
H23	H	1.311997	0.183414	0.000013
H24	H	2.086843	-0.210856	0.588033
F25	F	1.721029	0.154945	0.654809
H26	H	2.085689	0.409723	-0.000006
H27	H	1.466266	-0.209713	0.000005
H28	H	1.692563	0.563991	-0.000006
F29	F	2.057237	-0.181220	0.345184
F30	F	1.656300	0.219698	0.429869
