data_functionalizedCrystal
_audit_creation_method	'MofGen! by Chris Wilmer'
_symmetry_space_group_name_H-M	'P1'
_symmetry_Int_Tables_number	1
_symmetry_cell_setting	triclinic
loop_
_symmetry_equiv_pos_as_xyz
  x,y,z
_cell_length_a	15.995343
_cell_length_b	14.472310
_cell_length_c	14.044220
_cell_angle_alpha	90.001238
_cell_angle_beta	88.339031
_cell_angle_gamma	90.008706
loop_
_atom_site_label
_atom_site_type_symbol
_atom_site_fract_x
_atom_site_fract_y
_atom_site_fract_z
O1	O	1.120123	0.076750	0.122138
O2	O	0.877474	0.076773	0.137233
O3	O	0.995156	0.076753	-0.008299
O4	O	1.002441	0.076770	0.267670
O5	O	0.995124	-0.076929	-0.008291
O6	O	0.877442	-0.076909	0.137242
O7	O	1.120090	-0.076932	0.122146
Cu8	Cu	0.998763	-0.090953	0.129695
Cu9	Cu	0.998802	0.090794	0.129685
O10	O	1.002408	-0.076912	0.267678
C11	C	0.846217	-0.000066	0.136615
C12	C	0.753126	-0.000057	0.134748
C13	C	0.582687	-0.000070	0.131359
C14	C	0.551495	-0.000076	0.026307
C15	C	0.454669	-0.000431	0.024330
C16	C	0.414878	-0.000081	0.128021
C17	C	0.447896	-0.087663	0.180847
C18	C	0.544782	-0.087731	0.182093
C19	C	0.544844	0.087040	0.183622
C20	C	0.448059	0.088186	0.179744
C21	C	0.320039	-0.000091	0.126140
C22	C	0.677526	-0.000067	0.133243
N23	N	0.998742	-0.218784	0.129701
C24	C	0.998800	-0.592875	0.129681
C25	C	0.935581	-0.553699	0.207291
C26	C	0.935761	-0.446611	0.207574
C27	C	0.998771	-0.407284	0.129691
C28	C	1.087749	-0.446128	0.151290
C29	C	1.087402	-0.553249	0.151842
C30	C	0.973804	-0.553409	0.030242
C31	C	0.971850	-0.446281	0.030905
C32	C	0.998759	-0.302396	0.129695
C33	C	0.998817	-0.697763	0.129679
C34	C	1.151348	-0.000092	0.122765
C35	C	1.244438	-0.000094	0.124632
C36	C	0.991952	-0.000089	-0.043609
C37	C	0.982441	-0.000089	-0.148835
N38	N	0.998829	0.218625	0.129671
C39	C	0.965052	-0.000074	-0.341495
C40	C	1.032509	-0.000077	-0.399131
C41	C	1.022834	-0.000069	-0.506334
C42	C	0.974726	-0.000082	-0.234282
C43	C	1.005613	-0.000069	0.302988
C44	C	1.015124	-0.000062	0.408214
H45	H	0.432575	0.062339	-0.017022
H46	H	1.097526	-0.000021	-0.367962
H47	H	0.576474	0.062720	-0.014416
Br48	Br	0.594792	-0.104608	-0.040456
Br49	Br	0.856692	-0.000056	-0.393443
H50	H	1.108956	-0.419287	0.222983
H51	H	0.425084	-0.153094	0.144608
H52	H	1.136224	-0.420652	0.096266
Br53	Br	0.418786	-0.105706	-0.044238
H54	H	0.426643	0.152980	0.141273
Br55	Br	0.578666	-0.093953	0.310490
Br56	Br	0.584907	-0.197274	0.121843
Br57	Br	1.050500	-0.595632	-0.066021
H58	H	0.564633	0.087889	0.260946
H59	H	0.909929	-0.580472	0.009472
H60	H	0.421749	-0.090670	0.257160
H61	H	0.570652	0.153446	0.150474
H62	H	0.420755	0.093750	0.255402
Br63	Br	0.825910	-0.402835	0.186192
Br64	Br	0.825407	-0.596644	0.186182
H65	H	0.952125	-0.580605	0.280668
Br66	Br	0.963608	-0.403871	0.330579
H67	H	0.906359	-0.420894	0.014513
H68	H	1.136308	-0.579163	0.097543
Br69	Br	1.122235	-0.594877	0.272712
Br70	Br	1.042673	-0.401684	-0.069869
