data_functionalizedCrystal
_audit_creation_method	'MofGen! by Chris Wilmer'
_symmetry_space_group_name_H-M	'P1'
_symmetry_Int_Tables_number	1
_symmetry_cell_setting	triclinic
loop_
_symmetry_equiv_pos_as_xyz
  x,y,z
_cell_length_a	14.519709
_cell_length_b	14.519731
_cell_length_c	10.868271
_cell_angle_alpha	89.993880
_cell_angle_beta	90.001299
_cell_angle_gamma	83.684499
loop_
_atom_site_label
_atom_site_type_symbol
_atom_site_fract_x
_atom_site_fract_y
_atom_site_fract_z
O1	O	1.223876	0.120891	-0.102165
O2	O	1.723876	0.620891	0.397835
O3	O	0.955401	0.135127	-0.102203
O4	O	1.455401	0.635127	0.397797
O5	O	1.096747	-0.006228	-0.102172
O6	O	1.596747	0.493772	0.397828
O7	O	1.082531	0.262246	-0.102196
O8	O	1.582531	0.762246	0.397804
O9	O	1.096735	-0.006234	0.102473
O10	O	1.596735	0.493766	0.602473
O11	O	0.955389	0.135121	0.102442
O12	O	1.455389	0.635121	0.602442
O13	O	1.223865	0.120885	0.102480
O14	O	1.723865	0.620885	0.602480
Zn15	Zn	1.089625	0.128002	0.134953
Zn16	Zn	1.589625	0.628002	0.634953
Zn17	Zn	1.089640	0.128010	-0.134676
Zn18	Zn	1.589640	0.628010	0.365324
O19	O	1.082519	0.262240	0.102449
O20	O	1.582519	0.762240	0.602449
C21	C	0.921035	0.134461	0.000115
C22	C	1.421035	0.634461	0.500115
C23	C	0.818654	0.132473	0.000101
C24	C	1.318654	0.632473	0.500101
C25	C	1.096075	-0.040591	0.000151
C26	C	1.596075	0.459409	0.500151
C27	C	1.094079	-0.142971	0.000151
C28	C	1.594079	0.357029	0.500151
C29	C	0.443757	0.125153	0.000157
C30	C	0.943757	0.625153	0.500157
C31	C	0.548065	0.127186	0.000141
C32	C	1.048065	0.627186	0.500141
C33	C	0.631202	0.128813	0.000128
C34	C	1.131202	0.628813	0.500128
C35	C	0.735517	0.130846	0.000114
C36	C	1.235517	0.630846	0.500114
C37	C	1.092457	-0.226115	0.000148
C38	C	1.592457	0.273885	0.500148
C39	C	1.090430	-0.330424	0.000139
C40	C	1.590430	0.169576	0.500139
C41	C	1.088822	-0.413563	0.000130
C42	C	1.588822	0.086437	0.500130
C43	C	1.086795	-0.517878	0.000123
C44	C	1.586795	-0.017878	0.500123
C45	C	1.258230	0.121551	0.000160
C46	C	1.758230	0.621551	0.500160
C47	C	1.360612	0.123539	0.000166
C48	C	1.860612	0.623539	0.500166
C49	C	1.083191	0.296603	0.000123
C50	C	1.583191	0.796603	0.500123
C51	C	1.085187	0.398983	0.000115
C52	C	1.585187	0.898983	0.500115
N53	N	1.089621	0.127997	0.318967
N54	N	1.589621	0.627997	0.818967
N55	N	1.089651	0.128008	-0.318690
N56	N	1.589651	0.628008	0.181310
C57	C	1.089636	0.128008	0.569973
C58	C	1.589636	0.628008	1.069973
C59	C	1.089625	0.128004	0.430295
C60	C	1.589625	0.628004	0.930295
