data_functionalizedCrystal
_audit_creation_method	'MofGen! by Chris Wilmer'
_symmetry_space_group_name_H-M	'P1'
_symmetry_Int_Tables_number	1
_symmetry_cell_setting	triclinic
loop_
_symmetry_equiv_pos_as_xyz
  x,y,z
_cell_length_a	26.374263
_cell_length_b	26.373608
_cell_length_c	26.370205
_cell_angle_alpha	60.005297
_cell_angle_beta	60.010839
_cell_angle_gamma	59.993700
loop_
_atom_site_label
_atom_site_type_symbol
_atom_site_fract_x
_atom_site_fract_y
_atom_site_fract_z
O1	O	0.070152	-0.740800	0.619517
O2	O	0.026377	-0.576764	0.499159
O3	O	0.130245	-0.680560	0.499088
O4	O	-0.033715	-0.637003	0.619589
O5	O	0.164701	-0.646107	0.533470
O6	O	0.060833	-0.542310	0.533541
O7	O	0.104608	-0.706346	0.653899
Cu8	Cu	0.085867	-0.621182	0.596859
Cu9	Cu	0.045119	-0.661927	0.556199
O10	O	0.000741	-0.602549	0.653971
N11	N	0.114528	-0.592529	0.625461
N12	N	0.016463	-0.690587	0.527598
C13	C	0.181428	-0.355400	0.692330
C14	C	0.181530	-0.525690	0.862573
C15	C	0.181440	-0.525667	0.692313
C16	C	0.351736	-0.525673	0.692271
C17	C	0.200174	-0.411588	0.711047
C18	C	0.200232	-0.506954	0.806384
C19	C	0.295546	-0.506943	0.711016
C20	C	0.200182	-0.506940	0.711037
C21	C	0.157567	-0.283881	0.668507
C22	C	0.157587	-0.549500	0.668479
C23	C	0.224035	-0.483107	0.734871
C24	C	0.455739	-0.507754	0.637520
C25	C	0.520749	-0.529425	0.615835
C26	C	0.520768	-0.634611	0.655947
C27	C	0.455759	-0.612939	0.677633
C28	C	0.173240	-0.251367	0.604595
C29	C	0.151546	-0.186351	0.582941
C30	C	0.098512	-0.186369	0.689113
C31	C	0.120206	-0.251385	0.710768
C32	C	0.093669	-0.533798	0.684205
C33	C	0.071992	-0.555464	0.662532
C34	C	0.178144	-0.608536	0.609422
C35	C	0.199825	-0.586869	0.631088
C36	C	0.093821	-0.533842	0.966616
C37	C	0.072187	-0.555526	1.031630
C38	C	0.178370	-0.608608	1.031591
C39	C	0.200004	-0.586926	0.966576
C40	C	0.157728	-0.549541	0.934090
C41	C	0.423247	-0.549509	0.668416
C42	C	-0.097522	-0.709158	0.508557
C43	C	-0.002050	-0.709295	0.413344
C44	C	-0.002241	-0.804604	0.508735
C45	C	-0.002225	-0.709288	0.508793
C46	C	-0.026009	-0.733087	0.484858
N47	N	0.552340	-0.592538	0.625346
O48	O	0.750867	-0.598274	0.477076
O49	O	0.751048	-0.718989	0.640960
O50	O	0.750981	-0.718715	0.537020
O51	O	0.750934	-0.598547	0.581017
O52	O	0.647701	-0.684348	0.571512
O53	O	0.647768	-0.684622	0.675452
O54	O	0.647587	-0.563907	0.511569
Cu55	Cu	0.638247	-0.621127	0.596660
Cu56	Cu	0.760388	-0.661769	0.555869
O57	O	0.647654	-0.564181	0.615509
N58	N	0.846295	-0.690358	0.527176
N59	N	0.114503	-0.154778	0.625499
O60	O	-0.033701	0.043855	0.619632
O61	O	0.130190	0.043858	0.498933
O62	O	0.026233	0.043841	0.499224
O63	O	0.070257	0.043872	0.619341
O64	O	0.060690	-0.059448	0.533654
O65	O	0.164647	-0.059431	0.533363
O66	O	0.000756	-0.059434	0.654062
Cu67	Cu	0.085848	-0.068863	0.596857
Cu68	Cu	0.045099	0.053287	0.556138
O69	O	0.104714	-0.059417	0.653771
N70	N	0.016435	0.139202	0.527497
N71	N	0.114760	-0.592585	1.063190
O72	O	0.108896	-0.740779	1.261808
O73	O	-0.011787	-0.576838	1.261822
O74	O	-0.011509	-0.680779	1.261780
O75	O	0.108618	-0.636838	1.261850
O76	O	0.022916	-0.646341	1.158496
O77	O	0.022638	-0.542399	1.158538
O78	O	0.143321	-0.706341	1.158524
Cu79	Cu	0.086123	-0.621225	1.149100
Cu80	Cu	0.045411	-0.661953	1.271246
O81	O	0.143044	-0.602399	1.158566
N82	N	0.016774	-0.690600	1.357156
C83	C	0.039504	-0.538867	0.499769
C84	C	0.168130	-0.667407	0.499680
C85	C	0.091482	-0.744243	0.653289
C86	C	-0.037145	-0.615703	0.653378
C87	C	0.699429	-0.718429	0.678853
C88	C	0.699348	-0.718091	0.550135
C89	C	0.699202	-0.564465	0.473677
C90	C	0.699287	-0.564805	0.602393
C91	C	0.168023	-0.007659	0.499484
C92	C	0.039327	-0.007807	0.499887
C93	C	-0.037119	-0.007789	0.653468
C94	C	0.091620	-0.007770	0.653109
C95	C	-0.011194	-0.538964	1.210181
C96	C	-0.010843	-0.667676	1.210109
C97	C	0.142729	-0.744214	1.210165
C98	C	0.142386	-0.615494	1.210214
H99	H	0.020147	-0.542732	1.058106
H100	H	0.180125	-0.606093	1.210228
C101	C	0.270097	-0.740526	0.470804
C102	C	0.231702	-0.679937	0.448592
H103	H	0.309345	-0.748259	0.439265
H104	H	0.251483	-0.769217	0.482111
H105	H	0.275512	-0.745189	0.506093
H106	H	0.226283	-0.675275	0.413305
H107	H	0.250321	-0.651237	0.437276
C108	C	0.171773	-0.846222	1.210134
C109	C	0.193881	-0.807774	1.210160
H110	H	0.203352	-0.885462	1.210134
H111	H	0.160495	-0.827635	1.174112
H112	H	0.136483	-0.851653	1.246147
H113	H	0.229169	-0.802340	1.174144
H114	H	0.205168	-0.826366	1.246186
C115	C	0.699438	-0.822339	0.590328
C116	C	0.699371	-0.769056	0.537430
H117	H	0.699456	-0.853803	0.582482
H118	H	0.663440	-0.812694	0.624212
H119	H	0.735472	-0.836661	0.600158
H120	H	0.663334	-0.754731	0.527603
H121	H	0.735373	-0.778701	0.503535
H122	H	0.029900	-0.007810	0.462151
C123	C	-0.114363	-0.483423	1.263264
C124	C	-0.062347	-0.475404	1.210182
H125	H	-0.145943	-0.444183	1.263261
H126	H	-0.103080	-0.502002	1.299282
H127	H	-0.129348	-0.509516	1.263242
H128	H	-0.047360	-0.449315	1.210207
H129	H	-0.073631	-0.456816	1.174155
H130	H	0.699142	-0.526565	0.426612
C131	C	-0.039390	-0.740946	1.209984
C132	C	-0.061770	-0.680338	1.210019
H133	H	-0.070830	-0.748759	1.209925
H134	H	-0.028114	-0.769603	1.246017
H135	H	-0.004054	-0.745573	1.173981
H136	H	-0.097104	-0.675711	1.246024
H137	H	-0.073055	-0.651672	1.173983
H138	H	0.100832	-0.791364	0.691090
C139	C	0.752606	-0.783960	0.753522
C140	C	0.699498	-0.769593	0.742390
H141	H	0.752649	-0.815549	0.792746
H142	H	0.752578	-0.747905	0.753468
H143	H	0.788607	-0.798179	0.721906
H144	H	0.663496	-0.755370	0.774004
H145	H	0.699520	-0.805656	0.742450
H146	H	-0.084187	-0.007791	0.691362
C147	C	0.079834	-0.475021	0.395508
C148	C	0.026888	-0.475258	0.448734
H149	H	0.072046	-0.435750	0.364004
H150	H	0.089664	-0.506583	0.381220
H151	H	0.113698	-0.482559	0.405203
H152	H	-0.006974	-0.467724	0.439041
H153	H	0.017051	-0.443687	0.463024
C154	C	-0.013314	-0.483547	0.973192
C155	C	0.047347	-0.492746	0.930911
H156	H	-0.042003	-0.458181	0.951147
H157	H	-0.019543	-0.463702	0.998550
H158	H	-0.019538	-0.522520	0.998547
H159	H	0.053573	-0.453773	0.905560
H160	H	0.053579	-0.512590	0.905543
H161	H	0.212798	-0.639038	1.058038
C162	C	0.302790	-0.641566	0.973070
C163	C	0.270255	-0.604181	0.930825
H164	H	0.346159	-0.652214	0.950999
H165	H	0.292149	-0.678326	0.998422
H166	H	0.292132	-0.619507	0.998434
H167	H	0.280909	-0.626242	0.905464
H168	H	0.280901	-0.567415	0.905462
C169	C	-0.139110	-0.542582	0.682256
C170	C	-0.100715	-0.603173	0.704467
H171	H	-0.178354	-0.534846	0.713799
H172	H	-0.144531	-0.537918	0.646974
H173	H	-0.120488	-0.513890	0.670943
H174	H	-0.119336	-0.631865	0.715776
H175	H	-0.095296	-0.607842	0.739760
H176	H	0.699278	-0.527058	0.611808
C177	C	0.278226	-0.060243	0.468958
C178	C	0.231433	-0.007270	0.448202
H179	H	0.317373	-0.060001	0.437301
H180	H	0.270852	-0.096337	0.478613
H181	H	0.278191	-0.060310	0.505033
H182	H	0.231465	-0.007206	0.412131
H183	H	0.238809	0.028833	0.438539
C184	C	-0.013439	-0.483503	0.734514
C185	C	0.047241	-0.492716	0.725298
H186	H	-0.042102	-0.458137	0.759881
H187	H	-0.019673	-0.522467	0.754362
H188	H	-0.019697	-0.463648	0.695548
H189	H	0.053501	-0.512575	0.764264
H190	H	0.053477	-0.453745	0.705452
C191	C	0.164955	-0.007776	0.681680
C192	C	0.104343	-0.007774	0.704058
H193	H	0.172810	-0.007786	0.713138
H194	H	0.169566	0.028244	0.646372
H195	H	0.193595	-0.043795	0.670365
H196	H	0.075702	0.028247	0.715369
H197	H	0.099725	-0.043798	0.739378
H198	H	0.212545	-0.638970	0.578981
C199	C	0.302579	-0.641491	0.576397
C200	C	0.270085	-0.604119	0.613796
H201	H	0.345954	-0.652140	0.565723
H202	H	0.291889	-0.619427	0.539655
H203	H	0.291938	-0.678256	0.598457
H204	H	0.280723	-0.567350	0.591734
H205	H	0.280780	-0.626183	0.650545
C206	C	0.462318	-0.719089	0.715095
C207	C	0.420046	-0.658841	0.711594
H208	H	0.440269	-0.747427	0.736058
H209	H	0.487688	-0.729963	0.737239
H210	H	0.487660	-0.720737	0.674360
H211	H	0.394707	-0.657192	0.752329
H212	H	0.394666	-0.647964	0.689450
C213	C	-0.014006	-0.505676	0.625636
C214	C	0.001731	-0.538205	0.679816
H215	H	-0.057382	-0.495018	0.636309
H216	H	0.008041	-0.531030	0.600270
H217	H	-0.003358	-0.468915	0.603592
H218	H	-0.008913	-0.574969	0.701858
H219	H	-0.020324	-0.512851	0.705192
H220	H	0.547237	-0.686258	0.663446
H221	H	0.547206	-0.495421	0.590679
H222	H	0.429268	-0.456103	0.630015
H223	H	0.164306	-0.159876	0.530897
C224	C	0.223471	-0.244814	0.497468
C225	C	0.214304	-0.287085	0.558140
H226	H	0.248819	-0.266868	0.468791
H227	H	0.243318	-0.219456	0.491218
H228	H	0.184490	-0.219456	0.491244
H229	H	0.253284	-0.312440	0.564365
H230	H	0.194457	-0.312454	0.564392
H231	H	0.107441	-0.277854	0.762810
C232	C	0.048280	-0.192917	0.796239
C233	C	0.057448	-0.150646	0.735566
H234	H	0.022925	-0.170863	0.824916
H235	H	0.087254	-0.218270	0.802464
H236	H	0.028433	-0.218280	0.802485
H237	H	0.077299	-0.125286	0.729318
H238	H	0.018466	-0.125282	0.729338
