data_functionalizedCrystal
_audit_creation_method	'MofGen! by Chris Wilmer'
_symmetry_space_group_name_H-M	'P1'
_symmetry_Int_Tables_number	1
_symmetry_cell_setting	triclinic
loop_
_symmetry_equiv_pos_as_xyz
  x,y,z
_cell_length_a	17.038272
_cell_length_b	17.038272
_cell_length_c	16.098538
_cell_angle_alpha	92.920305
_cell_angle_beta	87.069734
_cell_angle_gamma	91.111556
loop_
_atom_site_label
_atom_site_type_symbol
_atom_site_fract_x
_atom_site_fract_y
_atom_site_fract_z
O1	O	1.052033	0.167266	-0.069152
O2	O	0.824222	0.164557	-0.069177
O3	O	0.936773	0.052006	-0.069158
O4	O	0.939482	0.279817	-0.069171
O5	O	0.930197	0.058553	0.069354
O6	O	0.817646	0.171104	0.069335
O7	O	1.045456	0.173813	0.069359
Zn8	Zn	0.930507	0.173498	0.091339
Zn9	Zn	0.939172	0.164872	-0.091156
O10	O	0.932905	0.286364	0.069341
C11	C	0.791641	0.165367	0.000076
C12	C	0.704358	0.158019	0.000067
C13	C	0.931022	0.025987	0.000097
C14	C	0.923674	-0.061297	0.000096
C15	C	0.658749	0.225482	0.000064
C16	C	0.576737	0.218574	0.000075
C17	C	0.540335	0.144201	0.000085
C18	C	0.585950	0.076733	0.000090
C19	C	0.667961	0.083642	0.000084
C20	C	0.292946	0.119792	0.000108
C21	C	0.210929	0.112887	0.000112
C22	C	0.201722	0.254729	0.000098
C23	C	0.283734	0.261632	0.000088
C24	C	0.329342	0.194164	0.000098
C25	C	0.456505	0.137138	0.000094
C26	C	0.413170	0.201228	0.000094
C27	C	0.991137	-0.106906	0.000104
C28	C	0.984229	-0.188918	0.000096
C29	C	0.909856	-0.225320	0.000085
C30	C	0.842388	-0.179705	0.000074
C31	C	0.849297	-0.097694	0.000077
C32	C	0.885446	-0.472708	0.000071
C33	C	0.878541	-0.554725	0.000071
C34	C	1.020383	-0.563932	0.000091
C35	C	1.027286	-0.481920	0.000098
C36	C	0.959818	-0.436312	0.000083
C37	C	0.902792	-0.309149	0.000079
C38	C	0.966882	-0.352485	0.000084
C39	C	1.078037	0.173002	0.000105
C40	C	1.165320	0.180351	0.000108
C41	C	0.938656	0.312383	0.000083
C42	C	0.946005	0.399666	0.000079
N43	N	0.924599	0.179385	0.215887
N44	N	0.945085	0.158979	-0.215705
C45	C	0.972390	0.131633	0.259480
C46	C	0.968265	0.135759	0.346668
C47	C	0.916352	0.187642	0.390262
C48	C	0.868556	0.235395	0.346663
C49	C	0.872678	0.231265	0.259476
C50	C	0.901410	0.202602	0.653510
C51	C	0.897294	0.206731	0.740702
C52	C	0.997003	0.107093	0.740702
C53	C	1.001123	0.102971	0.653513
C54	C	0.953324	0.150721	0.609922
C55	C	0.912136	0.191862	0.479383
C56	C	0.957536	0.146496	0.520803
H57	H	0.688381	0.286045	0.000056
C58	C	0.527357	0.291913	0.000028
C59	C	0.576790	0.358522	-0.000008
C60	C	0.531330	0.426098	-0.000060
H61	H	0.492879	0.294563	0.048321
H62	H	0.497471	0.289924	-0.048289
H63	H	0.606662	0.360512	0.048305
H64	H	0.611267	0.355898	-0.048297
H65	H	0.501444	0.424109	-0.048378
H66	H	0.496854	0.428741	0.048234
H67	H	0.564863	0.471300	-0.000092
C68	C	0.812271	0.291704	0.394141
C69	C	0.818906	0.285119	0.479827
C70	C	0.767077	0.336989	0.523587
H71	H	0.759931	0.279037	0.379964
H72	H	0.824966	0.344031	0.379888
H73	H	0.806207	0.232804	0.494074
H74	H	0.871235	0.297794	0.494029
H75	H	0.779772	0.389317	0.509333
H76	H	0.714740	0.324317	0.509403
H77	H	0.771577	0.332534	0.581729
H78	H	0.442811	0.261782	0.000091
C79	C	1.013756	0.090085	0.473389
C80	C	0.971070	0.036847	0.423357
C81	C	1.022827	-0.015136	0.379660
H82	H	1.041638	0.062157	0.511755
H83	H	1.049933	0.118866	0.439305
H84	H	0.934906	0.008068	0.457438
H85	H	0.943190	0.064752	0.384975
H86	H	1.059004	0.013645	0.345576
H87	H	1.050706	-0.043058	0.418032
H88	H	0.993873	-0.051259	0.345702
C89	C	1.057505	0.046559	0.606336
C90	C	1.098462	0.005606	0.663175
C91	C	1.150403	-0.046372	0.619746
H92	H	1.093750	0.075305	0.572312
H93	H	1.028705	0.010320	0.572352
H94	H	1.127261	0.041840	0.697145
H95	H	1.062238	-0.023155	0.697202
H96	H	1.121603	-0.082611	0.585762
H97	H	1.186642	-0.017620	0.585723
H98	H	1.178193	-0.074170	0.658305
H99	H	0.313367	0.322194	0.000070
H100	H	1.035918	0.068216	0.776202
H101	H	0.330070	0.064854	0.000117
C102	C	0.152251	0.327996	-0.000076
C103	C	0.172780	0.369084	-0.071352
C104	C	0.127217	0.436578	-0.071544
H105	H	0.161476	0.360639	0.048167
H106	H	0.098187	0.313262	-0.000116
H107	H	0.226830	0.383819	-0.071305
H108	H	0.163551	0.336464	-0.119606
H109	H	0.073153	0.421844	-0.071584
H110	H	0.136446	0.469214	-0.023298
H111	H	0.141134	0.464461	-0.119907
C112	C	0.171551	0.032067	0.000163
C113	C	0.229043	-0.025541	0.000191
C114	C	0.192797	-0.099996	0.000245
H115	H	0.142043	0.024031	-0.048127
H116	H	0.137478	0.028670	0.048484
H117	H	0.263102	-0.022146	-0.048125
H118	H	0.258554	-0.017531	0.048477
H119	H	0.158724	-0.103393	0.048566
H120	H	0.163290	-0.108024	-0.048045
H121	H	0.231799	-0.139091	0.000272
C122	C	0.546286	-0.003949	0.000059
C123	C	0.464704	0.004436	0.000039
C124	C	0.428143	-0.069872	-0.000003
H125	H	0.559242	-0.029739	0.048349
H126	H	0.563863	-0.034251	-0.048261
H127	H	0.447133	0.034726	0.048354
H128	H	0.451725	0.030213	-0.048248
H129	H	0.445719	-0.100175	-0.048324
H130	H	0.441104	-0.095656	0.048288
H131	H	0.372786	-0.064193	-0.000025
C132	C	0.840840	0.263076	0.787884
C133	C	0.799842	0.303992	0.731049
C134	C	0.747823	0.355890	0.774483
H135	H	0.869561	0.299347	0.821891
H136	H	0.804630	0.234248	0.821886
H137	H	0.836046	0.332817	0.697062
H138	H	0.771105	0.267741	0.697041
H139	H	0.711614	0.327062	0.808484
H140	H	0.776551	0.392156	0.808488
H141	H	0.719995	0.383652	0.735927
C142	C	0.797721	-0.594104	0.000006
C143	C	0.740115	-0.536612	-0.000032
C144	C	0.665660	-0.572859	-0.000103
H145	H	0.789668	-0.623621	0.048293
H146	H	0.794342	-0.628167	-0.048317
H147	H	0.743492	-0.502563	0.048286
H148	H	0.748142	-0.507091	-0.048316
H149	H	0.662281	-0.606922	-0.048427
H150	H	0.657615	-0.602376	0.048185
H151	H	0.626566	-0.533858	-0.000137
H152	H	0.705095	0.028706	0.000086
C153	C	0.812259	-0.423092	0.000190
C154	C	0.808707	-0.372360	0.071439
C155	C	0.741302	-0.326630	0.071571
H156	H	0.766915	-0.456420	0.000229
H157	H	0.814296	-0.393144	-0.048088
H158	H	0.806663	-0.402306	0.119705
H159	H	0.854035	-0.339016	0.071415
H160	H	0.743339	-0.296681	0.023292
H161	H	0.695964	-0.359963	0.071607
H162	H	0.738887	-0.292198	0.119908
C163	C	1.057567	-0.238298	0.000154
C164	C	1.124176	-0.188864	0.000193
C165	C	1.191752	-0.234324	0.000258
H166	H	1.060231	-0.272771	-0.048136
H167	H	1.055564	-0.268187	0.048475
H168	H	1.126179	-0.158988	-0.048123
H169	H	1.121539	-0.154392	0.048479
H170	H	1.189749	-0.264213	0.048579
H171	H	1.194407	-0.268795	-0.048033
H172	H	1.236954	-0.200790	0.000292
C173	C	1.028650	0.075155	0.212220
C174	C	1.009747	-0.001856	0.233455
C175	C	1.061548	-0.053917	0.189940
H176	H	1.080982	0.087765	0.226472
H177	H	1.024269	0.079460	0.154038
H178	H	1.014136	-0.006159	0.291624
H179	H	0.957424	-0.014491	0.219201
H180	H	1.057167	-0.049612	0.131759
H181	H	1.113877	-0.041300	0.204196
H182	H	1.048725	-0.106175	0.204337
C183	C	0.775955	-0.048307	0.000110
C184	C	0.709342	-0.097736	0.000122
C185	C	0.641763	-0.052269	0.000158
H186	H	0.777887	-0.018394	-0.048180
H187	H	0.773361	-0.013855	0.048431
H188	H	0.711935	-0.132174	-0.048194
H189	H	0.707384	-0.127649	0.048408
H190	H	0.639169	-0.017817	0.048479
H191	H	0.643703	-0.022358	-0.048133
H192	H	0.596558	-0.085799	0.000174
H193	H	1.027437	-0.322844	0.000074
H194	H	0.426857	0.076584	0.000125
H195	H	1.051699	-0.077274	0.000118
C196	C	0.820755	0.283205	0.212294
C197	C	0.774426	0.329542	0.269130
C198	C	0.726589	0.377405	0.225697
H199	H	0.787726	0.251236	0.178289
H200	H	0.852768	0.316224	0.178290
H201	H	0.742416	0.296527	0.303120
H202	H	0.807434	0.361527	0.303136
H203	H	0.758602	0.410424	0.191693
H204	H	0.693565	0.345430	0.191694
H205	H	0.695154	0.408855	0.264254
H206	H	1.075312	-0.601075	0.000101
H207	H	1.087848	-0.452287	0.000107
H208	H	0.781832	-0.209350	0.000060
H209	H	1.007180	0.096876	0.382161
H210	H	0.842238	-0.338796	0.000072
H211	H	0.862492	0.241484	0.618024
H212	H	0.869870	0.234107	0.514884
