data_functionalizedCrystal
_audit_creation_method	'MofGen! by Chris Wilmer'
_symmetry_space_group_name_H-M	'P1'
_symmetry_Int_Tables_number	1
_symmetry_cell_setting	triclinic
loop_
_symmetry_equiv_pos_as_xyz
  x,y,z
_cell_length_a	10.723024
_cell_length_b	10.723024
_cell_length_c	9.798715
_cell_angle_alpha	90.004017
_cell_angle_beta	89.998022
_cell_angle_gamma	95.532131
loop_
_atom_site_label
_atom_site_type_symbol
_atom_site_fract_x
_atom_site_fract_y
_atom_site_fract_z
O1	O	0.175024	-1.657187	-0.113498
O2	O	0.191778	-1.294035	-0.113498
O3	O	0.001825	-1.483988	-0.113493
O4	O	0.364977	-1.467234	-0.113503
O5	O	0.001824	-1.483974	0.113489
O6	O	0.191777	-1.294021	0.113484
O7	O	0.175024	-1.657173	0.113484
Zn8	Zn	0.183401	-1.475595	0.149522
Zn9	Zn	0.183401	-1.475613	-0.149537
O10	O	0.364977	-1.467220	0.113479
C11	C	0.190558	-1.247528	-0.000007
C12	C	0.186911	-1.108974	-0.000007
C13	C	0.073603	-0.917217	-0.000004
C14	C	0.077371	-1.060420	-0.000004
C15	C	-0.044675	-1.482762	-0.000004
C16	C	-0.183229	-1.479114	-0.000009
C17	C	-0.258212	-1.585401	-0.000010
C18	C	-0.401415	-1.581634	-0.000015
C19	C	0.411477	-1.468447	-0.000014
C20	C	0.550031	-1.472094	-0.000018
C21	C	0.176243	-0.703680	-0.000007
C22	C	0.179891	-0.842234	-0.000007
N23	N	0.183399	-1.475591	0.353622
N24	N	0.183393	-1.475627	-0.353636
C25	C	0.103292	-1.555347	0.421401
C26	C	0.103288	-1.555367	0.578564
H27	H	0.273677	-0.884056	-0.000002
H28	H	-0.013619	-1.124853	-0.000010
C29	C	0.350058	-1.309717	0.660451
C30	C	0.275991	-1.383441	0.567699
H31	H	0.407229	-1.252813	0.611877
H32	H	0.297890	-1.264189	0.716189
H33	H	0.395306	-1.362155	0.716177
H34	H	0.230736	-1.331004	0.511979
H35	H	0.328166	-1.428972	0.511938
C36	C	-0.120988	-0.900564	0.116683
C37	C	-0.053013	-0.860773	-0.000001
H38	H	-0.199155	-0.865714	0.116685
H39	H	-0.135064	-0.989384	0.116672
H40	H	-0.074851	-0.873561	0.195827
H41	H	-0.099146	-0.887785	-0.079146
H42	H	-0.038941	-0.771935	-0.000002
C43	C	0.411763	-1.094298	-0.000022
C44	C	0.309759	-1.022011	-0.000016
H45	H	0.487602	-1.040601	-0.000037
H46	H	0.408443	-1.145639	0.079129
H47	H	0.408430	-1.145662	-0.079179
H48	H	0.313087	-0.970653	0.079146
H49	H	0.313081	-0.970648	-0.079176
H50	H	-0.225051	-1.385328	-0.000017
H51	H	0.251975	-1.407319	0.411945
H52	H	0.034709	-1.623654	0.636851
C53	C	-0.127728	-1.720823	-0.116688
C54	C	-0.201761	-1.712014	-0.000009
H55	H	-0.092875	-1.798988	-0.116680
H56	H	-0.177951	-1.714846	-0.195827
H57	H	-0.062137	-1.654618	-0.116673
H58	H	-0.267358	-1.778214	-0.000029
H59	H	-0.151536	-1.718003	0.079151
C60	C	-0.112165	-1.626187	0.377043
C61	C	0.010733	-1.647510	0.342643
H62	H	-0.169298	-1.683083	0.328405
H63	H	-0.124335	-1.638319	0.472313
H64	H	-0.126214	-1.542701	0.353718
H65	H	0.024785	-1.730994	0.365977
H66	H	0.022909	-1.635387	0.247351
H67	H	-0.465848	-1.672624	-0.000011
H68	H	-0.385544	-1.381099	-0.000007
