data_functionalizedCrystal
_audit_creation_method	'MofGen! by Chris Wilmer'
_symmetry_space_group_name_H-M	'P1'
_symmetry_Int_Tables_number	1
_symmetry_cell_setting	triclinic
loop_
_symmetry_equiv_pos_as_xyz
  x,y,z
_cell_length_a	14.908571
_cell_length_b	15.297327
_cell_length_c	14.910698
_cell_angle_alpha	102.294376
_cell_angle_beta	90.117908
_cell_angle_gamma	96.991395
loop_
_atom_site_label
_atom_site_type_symbol
_atom_site_fract_x
_atom_site_fract_y
_atom_site_fract_z
Zn1	Zn	1.260148	-0.470004	-0.663798
Zn2	Zn	1.242578	-0.612581	-0.536619
Zn3	Zn	1.121454	-0.452757	-0.502024
Zn4	Zn	1.083949	-0.611458	-0.678063
O5	O	1.177032	-0.536700	-0.595126
O6	O	1.382248	-0.496606	-0.655436
O7	O	1.234854	-0.584632	-0.405133
O8	O	1.162901	-0.328959	-0.503036
O9	O	1.369340	-0.601356	-0.561998
O10	O	1.264799	-0.341631	-0.621891
O11	O	1.145864	-0.467209	-0.379716
O12	O	0.992048	-0.466120	-0.516868
O13	O	1.098979	-0.599442	-0.803068
O14	O	0.964493	-0.582718	-0.646202
O15	O	1.228432	-0.495517	-0.792588
O16	O	1.198487	-0.738518	-0.575830
O17	O	1.081943	-0.737693	-0.679748
C18	C	0.946007	-0.522426	-0.579330
C19	C	0.847168	-0.516343	-0.572597
C20	C	0.632772	-0.626494	-0.694494
C21	C	0.539903	-0.620781	-0.688172
C22	C	0.568560	-0.499200	-0.553634
C23	C	0.661429	-0.504913	-0.559956
C24	C	0.693531	-0.568563	-0.630388
C25	C	0.786401	-0.574280	-0.636706
C26	C	0.815057	-0.452695	-0.502173
C27	C	0.722188	-0.446982	-0.495850
C28	C	1.134261	-0.770801	-0.633112
C29	C	1.116043	-0.870956	-0.649398
C30	C	1.307588	-1.154893	-0.479059
C31	C	1.324705	-1.060791	-0.463753
C32	C	1.272541	-1.013328	-0.510163
C33	C	1.203257	-1.059975	-0.571882
C34	C	1.186134	-1.154086	-0.587185
C35	C	1.151087	-1.012521	-0.618288
C36	C	1.081803	-1.059168	-0.680007
C37	C	1.064683	-1.153270	-0.695308
C38	C	1.116847	-1.200733	-0.648898
C39	C	1.168210	-0.918411	-0.602986
C40	C	1.046756	-0.917604	-0.711111
C41	C	1.029639	-1.011705	-0.726418
C42	C	1.408960	-0.551030	-0.610985
C43	C	1.507793	-0.557137	-0.617743
C44	C	1.161482	-0.549278	-0.831651
C45	C	1.154856	-0.554638	-0.932444
C46	C	1.219994	-0.301688	-0.557013
C47	C	1.238301	-0.201540	-0.540772
C48	C	1.192585	-0.524109	-0.359514
C49	C	1.199430	-0.518506	-0.258693
C50	C	1.276105	-0.456076	-0.111280
C51	C	1.269685	-0.461337	-0.206011
C52	C	1.135590	-0.570416	-0.216637
C53	C	1.142011	-0.565155	-0.121906
C54	C	1.212272	-0.507984	-0.069231
C55	C	1.218695	-0.502729	0.025501
C56	C	1.084598	-0.611802	0.014874
C57	C	1.078177	-0.617062	-0.079857
H58	H	0.542406	-0.447374	-0.496297
H59	H	1.020972	-0.663607	-0.122757
C60	C	1.244413	-0.867104	-0.535098
H61	H	1.247136	-0.804260	-0.532620
H62	H	1.300478	-0.886865	-0.554991
H63	H	1.232625	-0.878524	-0.475785
H64	H	1.008257	-1.191246	-0.745552
C65	C	1.400887	-1.009478	-0.395842
H66	H	1.403600	-0.946634	-0.393360
H67	H	1.456964	-1.029224	-0.415713
H68	H	1.389078	-1.020908	-0.336537
H69	H	1.032622	-0.654071	0.049119
C70	C	1.339905	-0.404243	-0.252263
H71	H	1.382670	-0.369449	-0.207323
H72	H	1.310237	-0.365172	-0.280591
H73	H	1.370145	-0.442892	-0.297405
H74	H	1.350047	-1.193545	-0.441273
H75	H	0.812536	-0.626109	-0.694054
H76	H	0.658909	-0.678325	-0.751838
C77	C	1.098016	-1.304245	-0.665729
H78	H	1.139005	-1.325827	-0.629246
H79	H	1.105628	-1.329560	-0.728763
H80	H	1.037796	-1.321208	-0.649540
H81	H	0.973226	-1.049699	-0.776670
C82	C	1.295972	-0.439838	0.083443
H83	H	1.333063	-0.409669	0.044831
H84	H	1.331224	-0.474366	0.112214
H85	H	1.271299	-0.396660	0.129025
H86	H	0.696037	-0.395158	-0.438509
H87	H	0.490436	-0.667953	-0.740375
C88	C	1.058309	-0.633294	-0.274584
H89	H	1.021204	-0.663453	-0.235975
H90	H	1.082969	-0.676466	-0.320174
H91	H	1.023062	-0.598746	-0.303343
C92	C	0.881889	-0.388970	-0.431647
H93	H	0.849465	-0.350252	-0.388793
H94	H	0.923006	-0.353838	-0.462495
H95	H	0.914418	-0.423515	-0.400129
C96	C	0.989376	-0.865404	-0.762169
H97	H	1.009503	-0.802679	-0.744224
H98	H	0.927700	-0.876483	-0.747285
H99	H	0.995543	-0.884836	-0.826500
H100	H	1.333318	-0.409530	-0.068392
H101	H	1.286481	-0.936706	-0.497696
