data_functionalizedCrystal
_audit_creation_method	'MofGen! by Chris Wilmer'
_symmetry_space_group_name_H-M	'P1'
_symmetry_Int_Tables_number	1
_symmetry_cell_setting	triclinic
loop_
_symmetry_equiv_pos_as_xyz
  x,y,z
_cell_length_a	15.995350
_cell_length_b	9.798715
_cell_length_c	10.723024
_cell_angle_alpha	89.998022
_cell_angle_beta	83.980122
_cell_angle_gamma	89.999961
loop_
_atom_site_label
_atom_site_type_symbol
_atom_site_fract_x
_atom_site_fract_y
_atom_site_fract_z
O1	O	1.111909	-0.113372	0.160839
O2	O	0.868247	-0.113399	0.180701
O3	O	0.995698	-0.113380	-0.010878
O4	O	0.984458	-0.113391	0.352418
O5	O	0.995689	0.113602	-0.010878
O6	O	0.868238	0.113583	0.180701
O7	O	1.111899	0.113610	0.160839
Zn8	Zn	0.990067	0.149635	0.170770
Zn9	Zn	0.990080	-0.149424	0.170770
O10	O	0.984448	0.113591	0.352418
C11	C	0.837043	0.000088	0.179880
C12	C	0.744079	0.000077	0.177418
N13	N	0.990064	0.353735	0.170768
N14	N	0.990089	-0.353524	0.170761
C15	C	0.406280	0.000106	0.168577
C16	C	0.452931	0.000617	0.032138
C17	C	0.549635	0.000096	0.034601
C18	C	0.573866	0.000093	0.172962
C19	C	0.533171	-0.129522	0.240259
C20	C	0.436516	-0.129621	0.236831
C21	C	0.436182	0.128500	0.239650
C22	C	0.533127	0.130204	0.239618
C23	C	0.668578	0.000081	0.175448
C24	C	0.311568	0.000109	0.166096
C25	C	1.143103	0.000120	0.161660
C26	C	1.236068	0.000121	0.164122
C27	C	0.994876	0.000109	-0.057367
C28	C	0.992428	0.000104	-0.195890
C29	C	1.043578	0.421520	0.089978
C30	C	1.043591	0.578682	0.089974
C31	C	1.063743	0.000111	-0.271783
C32	C	1.061215	0.000105	-0.414954
C33	C	0.985271	0.000098	0.398907
C34	C	0.987718	0.000095	0.537430
H35	H	0.434091	0.093569	-0.022400
H36	H	0.926664	0.000099	-0.397366
N37	N	0.929390	0.569279	0.262380
H38	H	0.893686	0.636122	0.316290
H39	H	0.961897	0.509983	0.317374
N40	N	0.394553	-0.137362	0.369514
H41	H	0.438866	-0.140708	0.429968
H42	H	0.358710	-0.222300	0.379539
H43	H	1.089380	0.363204	0.020809
N44	N	1.104287	0.655883	-0.001645
H45	H	1.095695	0.757211	0.011341
H46	H	1.093954	0.630985	-0.090130
H47	H	0.944256	0.412052	0.239928
H48	H	0.561281	-0.225982	0.193518
H49	H	1.126670	0.000126	-0.230763
H50	H	0.404998	0.129375	0.340245
H51	H	1.122266	0.000117	-0.480165
N52	N	0.426553	-0.121793	-0.039797
H53	H	0.384517	-0.177579	0.015613
H54	H	0.477495	-0.179588	-0.067021
N55	N	0.586903	0.123148	-0.035484
H56	H	0.617327	0.181482	0.022945
H57	H	0.540472	0.178127	-0.068257
H58	H	0.929501	0.000088	-0.236910
H59	H	0.577191	-0.092976	-0.018655
H60	H	0.417929	-0.226509	0.187756
H61	H	0.415386	0.226745	0.195045
N62	N	0.552660	-0.135935	0.374902
H63	H	0.588141	-0.054686	0.393616
H64	H	0.584391	-0.222810	0.388732
H65	H	0.560157	0.226092	0.190492
N66	N	0.554239	0.140582	0.373272
H67	H	0.590672	0.060728	0.392596
H68	H	0.500641	0.139475	0.432134
