data_functionalizedCrystal
_audit_creation_method	'MofGen! by Chris Wilmer'
_symmetry_space_group_name_H-M	'P1'
_symmetry_Int_Tables_number	1
_symmetry_cell_setting	triclinic
loop_
_symmetry_equiv_pos_as_xyz
  x,y,z
_cell_length_a	14.044220
_cell_length_b	8.597340
_cell_length_c	13.101032
_cell_angle_alpha	94.266046
_cell_angle_beta	93.665102
_cell_angle_gamma	89.223217
loop_
_atom_site_label
_atom_site_type_symbol
_atom_site_fract_x
_atom_site_fract_y
_atom_site_fract_z
O1	O	0.147682	2.092974	0.099576
O2	O	0.156137	1.641278	0.059692
O3	O	0.013826	1.860345	0.079045
O4	O	0.289993	1.873907	0.080222
O5	O	0.024047	1.844607	0.248085
O6	O	0.166359	1.625540	0.228732
O7	O	0.157903	2.077236	0.268616
Zn8	Zn	0.163754	1.848890	0.275513
Zn9	Zn	0.150287	1.869624	0.052795
O10	O	0.300215	1.858169	0.249262
C11	C	0.159770	1.575252	0.139077
C12	C	0.155356	1.401963	0.123776
C13	C	-0.016465	1.846540	0.163042
C14	C	-0.121951	1.828835	0.161479
C15	C	-0.315088	1.796468	0.158607
C16	C	-0.370878	1.922040	0.169691
C17	C	-0.478346	1.904030	0.168093
C18	C	-0.207610	1.814475	0.160205
C19	C	0.330505	1.871974	0.165264
C20	C	0.435990	1.889679	0.166819
C21	C	0.154270	2.143262	0.189228
C22	C	0.158684	2.316552	0.204522
N23	N	0.172944	1.834750	0.427512
C24	C	0.128592	1.902997	0.693451
C25	C	0.185449	1.815526	0.634851
C26	C	0.178490	1.826225	0.519477
C27	C	0.135551	1.892300	0.808835
N28	N	0.141100	1.883768	0.900796
H29	H	0.149128	1.342508	0.042931
H30	H	0.239354	1.732605	0.671330
H31	H	0.074692	1.985915	0.656977
N32	N	-0.329552	2.073873	0.183134
N33	N	-0.342420	2.159424	0.262539
H34	H	-0.313230	2.266653	0.272038
N35	N	-0.356414	1.644642	0.145233
N36	N	-0.334953	1.545820	0.208362
H37	H	-0.364150	1.438593	0.198924
N38	N	0.166482	1.391141	0.305932
N39	N	0.170170	1.536527	0.318641
H40	H	0.175677	1.589217	0.390263
