data_functionalizedCrystal
_audit_creation_method	'MofGen! by Chris Wilmer'
_symmetry_space_group_name_H-M	'P1'
_symmetry_Int_Tables_number	1
_symmetry_cell_setting	triclinic
loop_
_symmetry_equiv_pos_as_xyz
  x,y,z
_cell_length_a	12.759401
_cell_length_b	14.908520
_cell_length_c	12.759393
_cell_angle_alpha	86.736394
_cell_angle_beta	90.020938
_cell_angle_gamma	93.322137
loop_
_atom_site_label
_atom_site_type_symbol
_atom_site_fract_x
_atom_site_fract_y
_atom_site_fract_z
Zn1	Zn	1.582080	-0.359078	0.618119
Zn2	Zn	1.571808	-0.509962	0.452566
Zn3	Zn	1.406376	-0.359126	0.442458
Zn4	Zn	1.396212	-0.509899	0.628199
O5	O	1.489119	-0.434516	0.535335
O6	O	1.727738	-0.379099	0.596170
O7	O	1.549818	-0.490000	0.304207
O8	O	1.438236	-0.232875	0.457311
O9	O	1.720192	-0.489953	0.474539
O10	O	1.567325	-0.232840	0.586369
O11	O	1.428275	-0.379181	0.296781
O12	O	1.258007	-0.379120	0.467085
O13	O	1.420913	-0.489846	0.773880
O14	O	1.250540	-0.489892	0.603548
O15	O	1.557470	-0.379038	0.766474
O16	O	1.539963	-0.636198	0.484313
O17	O	1.410953	-0.636152	0.613349
C18	C	1.216153	-0.434505	0.535314
C19	C	1.099375	-0.434522	0.535331
C20	C	1.040646	-0.492289	0.606288
C21	C	0.930922	-0.492292	0.606309
C22	C	0.938665	-0.376759	0.464407
C23	C	1.048387	-0.376752	0.464392
C24	C	1.473269	-0.668908	0.551045
C25	C	1.466584	-0.769183	0.557800
C26	C	1.588499	-0.957595	0.436237
C27	C	1.582222	-1.051812	0.442581
C28	C	1.447758	-1.051834	0.576837
C29	C	1.454036	-0.957617	0.570493
C30	C	1.524407	-0.910501	0.500189
C31	C	1.530679	-0.816283	0.493841
C32	C	1.396221	-0.816307	0.628101
C33	C	1.389944	-0.910523	0.634445
C34	C	1.763152	-0.434528	0.535358
C35	C	1.879928	-0.434533	0.535367
C36	C	1.489204	-0.434429	0.809363
C37	C	1.489240	-0.434392	0.926137
C38	C	1.505060	-0.199208	0.519588
C39	C	1.511853	-0.098934	0.512877
C40	C	1.489100	-0.434537	0.262369
C41	C	1.489285	-0.434320	0.145579
C42	C	1.560350	-0.376686	0.977144
C43	C	1.560371	-0.376647	1.086866
C44	C	1.418166	-0.492029	1.094564
C45	C	1.418142	-0.492063	0.984844
H46	H	1.096206	-0.329706	0.406610
C47	C	1.608076	-0.764452	0.416508
H48	H	1.602629	-0.701595	0.421878
H49	H	1.677635	-0.779826	0.432982
H50	H	1.591699	-0.779953	0.346945
C51	C	1.665898	-0.905765	0.358905
H52	H	1.703174	-0.947308	0.321727
H53	H	1.628178	-0.869070	0.310624
H54	H	1.714111	-0.868953	0.396665
H55	H	1.618274	-0.329655	1.128391
H56	H	1.634414	-1.090152	0.390506
C57	C	1.312537	-0.962355	0.711767
H58	H	1.317971	-1.025212	0.706382
H59	H	1.328895	-0.946859	0.781331
H60	H	1.242978	-0.946979	0.695274
H61	H	1.344030	-0.777952	0.680173
C62	C	1.370357	-1.103671	0.654159
H63	H	1.375797	-1.166527	0.648771
H64	H	1.386715	-1.088176	0.723723
H65	H	1.300795	-1.088299	0.637669
H66	H	1.082157	-0.539327	0.664053
C67	C	1.638541	-0.313240	0.912569
H68	H	1.680887	-0.278860	0.958666
H69	H	1.681974	-0.347759	0.872080
H70	H	1.600994	-0.273942	0.867135
C71	C	1.339974	-0.555469	1.159145
H72	H	1.350180	-0.547192	1.231797
H73	H	1.270273	-0.542271	1.140272
H74	H	1.351248	-0.616093	1.145219
C75	C	1.339923	-0.555549	0.928733
H76	H	1.297595	-0.589901	0.979410
H77	H	1.296476	-0.521052	0.883611
H78	H	1.377452	-0.594873	0.888572
H79	H	0.897137	-0.329727	0.406650
C80	C	0.866325	-0.555834	0.684363
H81	H	0.912410	-0.590238	0.726603
H82	H	0.825879	-0.521372	0.727904
H83	H	0.820845	-0.595106	0.646734
