data_functionalizedCrystal
_audit_creation_method	'MofGen! by Chris Wilmer'
_symmetry_space_group_name_H-M	'P1'
_symmetry_Int_Tables_number	1
_symmetry_cell_setting	triclinic
loop_
_symmetry_equiv_pos_as_xyz
  x,y,z
_cell_length_a	8.559649
_cell_length_b	14.519709
_cell_length_c	7.088929
_cell_angle_alpha	83.763835
_cell_angle_beta	95.325015
_cell_angle_gamma	76.729405
loop_
_atom_site_label
_atom_site_type_symbol
_atom_site_fract_x
_atom_site_fract_y
_atom_site_fract_z
O1	O	2.103670	-0.020642	-0.158956
O2	O	1.638600	0.026977	-0.158968
O3	O	1.883467	-0.131957	-0.158944
O4	O	1.858803	0.138292	-0.158979
O5	O	1.916191	-0.153240	0.159034
O6	O	1.671324	0.005694	0.159010
O7	O	2.136393	-0.041925	0.159023
Cu8	Cu	1.906847	-0.020059	0.188050
Cu9	Cu	1.868147	0.005111	-0.187996
O10	O	1.891526	0.117009	0.158999
C11	C	1.595443	0.019944	0.000020
C12	C	1.418093	0.030686	0.000015
C13	C	1.898680	-0.176876	0.000045
C14	C	1.895236	-0.279010	0.000046
C15	C	1.882552	-0.652993	-0.000004
C16	C	1.886074	-0.548938	0.000011
C17	C	1.888894	-0.466005	0.000023
C18	C	1.892417	-0.361944	0.000034
C19	C	2.179551	-0.034892	0.000031
C20	C	2.356899	-0.045633	0.000022
C21	C	1.876313	0.161928	0.000005
C22	C	1.879756	0.264063	-0.000008
N23	N	1.934078	-0.037763	0.452541
N24	N	1.840929	0.022807	-0.452487
H25	H	1.440186	-0.119190	0.000023
C26	C	1.306822	0.128740	-0.000302
C27	C	1.193206	0.150391	-0.163878
C28	C	1.090665	0.240702	-0.164223
H29	H	1.368782	0.175274	-0.000403
H30	H	1.252345	0.128775	0.110522
H31	H	1.247678	0.150364	-0.274673
H32	H	1.131208	0.103880	-0.163811
H33	H	1.036189	0.240737	-0.053399
H34	H	1.152640	0.287228	-0.164319
H35	H	1.013556	0.255400	-0.275197
C36	C	1.712389	0.106629	0.438749
C37	C	1.743756	0.192136	0.487250
C38	C	1.625391	0.269375	0.387063
H39	H	1.608976	0.102182	0.471397
H40	H	1.714253	0.105476	0.305224
H41	H	1.741876	0.193288	0.620744
H42	H	1.847147	0.196614	0.454596
H43	H	1.627255	0.268222	0.253538
H44	H	1.521986	0.264918	0.419719
H45	H	1.646666	0.327400	0.419943
C46	C	2.062711	-0.121588	0.561175
C47	C	2.031382	-0.207092	0.512604
C48	C	2.149851	-0.284329	0.612621
H49	H	2.060970	-0.120511	0.694711
H50	H	2.166076	-0.117064	0.528401
H51	H	1.928045	-0.211614	0.545391
H52	H	2.033138	-0.208200	0.379085
H53	H	2.253215	-0.279805	0.579847
H54	H	2.148101	-0.283243	0.746151
H55	H	2.128619	-0.342351	0.579666
