data_functionalizedCrystal
_audit_creation_method	'MofGen! by Chris Wilmer'
_symmetry_space_group_name_H-M	'P1'
_symmetry_Int_Tables_number	1
_symmetry_cell_setting	triclinic
loop_
_symmetry_equiv_pos_as_xyz
  x,y,z
_cell_length_a	19.188930
_cell_length_b	10.065875
_cell_length_c	11.026607
_cell_angle_alpha	79.302338
_cell_angle_beta	95.865399
_cell_angle_gamma	98.754308
loop_
_atom_site_label
_atom_site_type_symbol
_atom_site_fract_x
_atom_site_fract_y
_atom_site_fract_z
O1	O	0.284145	-0.113552	1.626420
O2	O	0.784145	0.386448	2.126420
O3	O	0.250876	-0.113547	1.273289
O4	O	0.750876	0.386453	1.773289
O5	O	0.167156	-0.113523	1.460041
O6	O	0.667156	0.386477	1.960041
O7	O	0.367866	-0.113576	1.439668
O8	O	0.867866	0.386424	1.939668
O9	O	0.183202	0.113461	1.424429
O10	O	0.683202	0.613461	1.924429
O11	O	0.266922	0.113437	1.237678
O12	O	0.766922	0.613437	1.737678
O13	O	0.300192	0.113432	1.590808
O14	O	0.800192	0.613432	2.090808
Zn15	Zn	0.286105	0.149473	1.408589
Zn16	Zn	0.786105	0.649473	1.908589
Zn17	Zn	0.264963	-0.149588	1.455509
Zn18	Zn	0.764963	0.350412	1.955509
O19	O	0.383912	0.113408	1.404057
O20	O	0.883912	0.613408	1.904057
C21	C	0.149084	-0.000027	1.441574
C22	C	0.649084	0.499973	1.941574
C23	C	0.071328	-0.000015	1.439591
C24	C	0.571328	0.499985	1.939591
C25	C	0.252761	-0.000054	1.210305
C26	C	0.752761	0.499946	1.710305
C27	C	0.234465	-0.000051	1.075688
C28	C	0.734465	0.499949	1.575688
N29	N	0.300534	0.353575	1.376576
N30	N	0.800534	0.853575	1.876576
C31	C	0.040370	-0.000010	1.549173
C32	C	0.540370	0.499990	2.049173
C33	C	-0.032693	-0.000032	1.547315
C34	C	0.467307	0.499968	2.047315
C35	C	-0.074793	-0.000031	1.435865
C36	C	0.425207	0.499969	1.935865
C37	C	-0.043828	-0.000044	1.326271
C38	C	0.456172	0.499956	1.826271
C39	C	0.029233	-0.000036	1.328134
C40	C	0.529233	0.499964	1.828134
N41	N	-0.188194	0.077217	1.338556
N42	N	0.311806	0.577217	1.838556
N43	N	-0.257598	0.077212	1.336793
N44	N	0.242402	0.577212	1.836793
C45	C	-0.294920	-0.000059	1.430245
C46	C	0.205080	0.499941	1.930245
N47	N	-0.260215	-0.077308	1.525543
N48	N	0.239785	0.422692	2.025543
N49	N	-0.190805	-0.077297	1.527308
N50	N	0.309195	0.422703	2.027308
C51	C	-0.154015	-0.000041	1.433832
C52	C	0.345985	0.499959	1.933832
C53	C	-0.405101	-0.000080	1.537819
C54	C	0.094899	0.499920	2.037819
C55	C	-0.478166	-0.000110	1.535958
C56	C	0.021834	0.499890	2.035958
C57	C	-0.489298	-0.000108	1.314909
C58	C	0.010702	0.499892	1.814909
C59	C	-0.416236	-0.000092	1.316775
C60	C	0.083764	0.499908	1.816775
C61	C	-0.374141	-0.000071	1.428233
C62	C	0.125859	0.499929	1.928233
C63	C	0.401983	-0.000091	1.422523
C64	C	0.901983	0.499909	1.922523
C65	C	0.479739	-0.000112	1.424508
C66	C	0.979739	0.499888	1.924508
N67	N	0.250529	-0.353689	1.487531
N68	N	0.750529	0.146311	1.987531
C69	C	0.269978	0.421362	1.444363
C70	C	0.769978	0.921362	1.944363
C71	C	0.281090	0.578527	1.419734
C72	C	0.781090	1.078527	1.919734
C73	C	0.284984	-0.000065	1.001616
C74	C	0.784984	0.499935	1.501616
C75	C	0.266075	-0.000062	0.862482
C76	C	0.766075	0.499938	1.362482
C77	C	0.298306	-0.000064	1.653793
C78	C	0.798306	0.499936	2.153793
C79	C	0.316602	-0.000076	1.788412
C80	C	0.816602	0.499924	2.288412
H81	H	0.074639	0.000002	1.639931
H82	H	0.574639	0.500002	2.139931
C83	C	0.362326	-0.000089	1.055081
C84	C	0.862326	0.499911	1.555081
H85	H	0.391570	-0.000089	0.990565
H86	H	0.891570	0.499911	1.490565
H87	H	0.365968	-0.079244	1.116243
H88	H	0.865968	0.420756	1.616243
H89	H	0.377161	0.079075	1.091399
H90	H	0.877161	0.579075	1.591399
H91	H	-0.078110	-0.000047	1.235528
H92	H	0.421890	0.499953	1.735528
H93	H	0.216137	0.588000	1.563799
H94	H	0.716137	1.088000	2.063799
C95	C	0.063289	-0.000028	1.207587
C96	C	0.563289	0.499972	1.707587
H97	H	0.027755	-0.000025	1.140942
H98	H	0.527755	0.499975	1.640942
H99	H	0.085975	-0.079174	1.216137
H100	H	0.585975	0.420826	1.716137
H101	H	0.097143	0.079145	1.191302
H102	H	0.597143	0.579145	1.691302
C103	C	0.346989	0.432344	1.273546
C104	C	0.846989	0.932344	1.773546
H105	H	0.348367	0.527643	1.270515
H106	H	0.848367	1.027643	1.770515
H107	H	0.327700	0.409016	1.196227
H108	H	0.827700	0.909016	1.696227
H109	H	0.393568	0.408979	1.290348
H110	H	0.893568	0.908979	1.790348
C111	C	0.188729	-0.000049	0.809018
C112	C	0.688729	0.499951	1.309018
H113	H	0.186166	-0.000060	0.722520
H114	H	0.686166	0.499940	1.222520
H115	H	0.171745	0.079107	0.823351
H116	H	0.671745	0.579107	1.323351
H117	H	0.160561	-0.079211	0.848190
H118	H	0.660561	0.420789	1.348190
H119	H	0.235588	0.363048	1.520626
H120	H	0.735588	0.863048	2.020626
C121	C	0.327547	0.657290	1.316699
C122	C	0.827547	1.157290	1.816699
H123	H	0.328925	0.752589	1.313668
H124	H	0.828925	1.252589	1.813668
H125	H	0.308258	0.633962	1.239380
H126	H	0.808258	1.133962	1.739380
H127	H	0.374126	0.633926	1.333501
H128	H	0.874126	1.133926	1.833501
H129	H	0.373857	-0.000082	0.827993
H130	H	0.873857	0.499918	1.327993
C131	C	0.157123	-0.000038	1.022219
C132	C	0.657123	0.499962	1.522219
H133	H	0.154559	-0.000049	0.935721
H134	H	0.654559	0.499951	1.435721
H135	H	0.140139	0.079118	1.036552
H136	H	0.640139	0.579118	1.536552
H137	H	0.128955	-0.079200	1.061390
H138	H	0.628955	0.420800	1.561390
H139	H	-0.057904	-0.000033	1.636552
H140	H	0.442096	0.499967	2.136552
C141	C	-0.382176	-0.000088	1.196237
C142	C	0.117824	0.499912	1.696237
H143	H	-0.332636	-0.000096	1.213310
H144	H	0.167364	0.499904	1.713310
H145	H	-0.390848	0.079061	1.138096
H146	H	0.109152	0.579061	1.638096
H147	H	-0.402026	-0.079257	1.162949
H148	H	0.097974	0.420743	1.662949
C149	C	-0.358792	-0.000074	1.660414
C150	C	0.141208	0.499926	2.160414
H151	H	-0.310844	-0.000051	1.645827
H152	H	0.189156	0.499949	2.145827
H153	H	-0.374064	-0.079231	1.717939
H154	H	0.125936	0.420769	2.217939
H155	H	-0.362892	0.079087	1.693099
H156	H	0.137108	0.579087	2.193099
C157	C	-0.512224	-0.000120	1.656503
C158	C	-0.012224	0.499880	2.156503
H159	H	-0.561767	-0.000148	1.639437
H160	H	-0.061767	0.499852	2.139437
H161	H	-0.492380	0.079036	1.689803
H162	H	0.007620	0.579036	2.189803
H163	H	-0.503547	-0.079282	1.714636
H164	H	-0.003547	0.420718	2.214636
C165	C	-0.535600	-0.000112	1.192317
C166	C	-0.035600	0.499888	1.692317
H167	H	-0.583546	-0.000110	1.206899
H168	H	-0.083546	0.499890	1.706899
H169	H	-0.531499	-0.079264	1.159630
H170	H	-0.031499	0.420736	1.659630
H171	H	-0.520326	0.079055	1.134792
H172	H	-0.020326	0.579055	1.634792
