data_functionalizedCrystal
_audit_creation_method	'MofGen! by Chris Wilmer'
_symmetry_space_group_name_H-M	'P1'
_symmetry_Int_Tables_number	1
_symmetry_cell_setting	triclinic
loop_
_symmetry_equiv_pos_as_xyz
  x,y,z
_cell_length_a	16.974829
_cell_length_b	10.723023
_cell_length_c	15.455313
_cell_angle_alpha	92.691554
_cell_angle_beta	83.671566
_cell_angle_gamma	83.931822
loop_
_atom_site_label
_atom_site_type_symbol
_atom_site_fract_x
_atom_site_fract_y
_atom_site_fract_z
O1	O	1.056979	0.148001	-0.146323
O2	O	1.556979	0.648001	0.353677
O3	O	0.826110	0.169476	-0.130119
O4	O	1.326110	0.669476	0.369881
O5	O	0.946870	-0.022946	-0.138591
O6	O	1.446870	0.477054	0.361409
O7	O	0.936219	0.340423	-0.137851
O8	O	1.436219	0.840423	0.362149
O9	O	0.939964	-0.011988	0.006156
O10	O	1.439964	0.488012	0.506156
O11	O	0.819204	0.180434	0.014628
O12	O	1.319204	0.680434	0.514628
O13	O	1.050073	0.158960	-0.001576
O14	O	1.550073	0.658960	0.498424
Cu15	Cu	0.934008	0.170698	0.019742
Cu16	Cu	1.434008	0.670698	0.519742
Cu17	Cu	0.942175	0.157738	-0.151437
Cu18	Cu	1.442175	0.657738	0.348563
O19	O	0.929313	0.351382	0.006896
O20	O	1.429313	0.851382	0.506896
C21	C	0.793096	0.174340	-0.055671
C22	C	1.293096	0.674340	0.444329
C23	C	0.705012	0.172494	-0.049488
C24	C	1.205012	0.672494	0.450512
C25	C	0.208787	0.162782	-0.006218
C26	C	0.708787	0.662782	0.493782
C27	C	0.291551	0.164517	-0.012029
C28	C	0.791551	0.664517	0.487971
C29	C	0.336698	0.159402	-0.093837
C30	C	0.836698	0.659402	0.406163
C31	C	0.299077	0.152564	-0.169839
C32	C	0.799077	0.652564	0.330161
C33	C	0.216313	0.150838	-0.164028
C34	C	0.716313	0.650838	0.335972
C35	C	0.584627	0.163930	-0.119679
C36	C	1.084627	0.663930	0.380321
C37	C	0.667396	0.165652	-0.125485
C38	C	1.167396	0.665652	0.374515
C39	C	0.659865	0.177608	0.032326
C40	C	1.159865	0.677608	0.532326
C41	C	0.577101	0.175875	0.038131
C42	C	1.077101	0.675875	0.538131
C43	C	0.539486	0.169043	-0.037871
C44	C	1.039486	0.669043	0.462129
N45	N	0.421297	0.161171	-0.099778
N46	N	0.921297	0.661171	0.400222
N47	N	0.454888	0.167283	-0.031929
N48	N	0.954888	0.667283	0.468071
C49	C	0.942642	-0.063951	-0.066164
C50	C	1.442642	0.436049	0.433836
C51	C	0.940324	-0.202458	-0.066004
C52	C	1.440324	0.297542	0.433996
C53	C	0.942867	-0.269880	-0.140916
C54	C	1.442867	0.230120	0.359084
C55	C	0.940471	-0.413034	-0.140752
C56	C	1.440471	0.086966	0.359248
C57	C	1.083087	0.154095	-0.076026
C58	C	1.583087	0.654095	0.423974
C59	C	1.171171	0.155941	-0.082215
C60	C	1.671171	0.655941	0.417785
C61	C	0.933541	0.392386	-0.065533
C62	C	1.433541	0.892386	0.434467
C63	C	0.935860	0.530893	-0.065698
C64	C	1.435860	1.030893	0.434302
N65	N	0.928270	0.179812	0.140140
N66	N	1.428270	0.679812	0.640140
N67	N	0.947920	0.148614	-0.271836
N68	N	1.447920	0.648614	0.228164
C69	C	0.979591	0.098094	0.181934
C70	C	1.479591	0.598094	0.681934
C71	C	0.975258	0.104998	0.273046
C72	C	1.475258	0.604998	0.773046
C73	C	0.919608	0.193627	0.322362
C74	C	1.419608	0.693627	0.822362
C75	C	0.868282	0.275349	0.280563
C76	C	1.368282	0.775349	0.780563
C77	C	0.872611	0.268438	0.189453
C78	C	1.372611	0.768438	0.689453
C79	C	0.900922	0.223424	0.595255
C80	C	1.400922	0.723424	1.095255
C81	C	0.896599	0.230332	0.686371
C82	C	1.396599	0.730332	1.186371
C83	C	1.003575	0.059979	0.678847
C84	C	1.503575	0.559979	1.178847
C85	C	1.007902	0.053081	0.587736
C86	C	1.507902	0.553081	1.087736
C87	C	0.956573	0.134798	0.545944
C88	C	1.456573	0.634798	1.045944
N89	N	0.915180	0.200689	0.415493
N90	N	1.415180	0.700689	0.915493
N91	N	0.960998	0.127729	0.452815
N92	N	1.460998	0.627729	0.952815
H93	H	0.322174	0.170085	0.049856
H94	H	0.822174	0.670085	0.549856
Br95	Br	0.515833	0.182845	0.149160
Br96	Br	1.015833	0.682845	0.649160
H97	H	0.185688	0.145270	-0.225912
H98	H	0.685688	0.645270	0.274088
H99	H	0.859129	0.289964	0.561235
H100	H	1.359129	0.789964	1.061235
H101	H	1.053217	-0.019088	0.547584
H102	H	1.553217	0.480912	1.047584
H103	H	0.942649	-0.470994	-0.204887
H104	H	1.442649	0.029006	0.295113
H105	H	0.822966	0.347508	0.320722
H106	H	1.322966	0.847508	0.820722
Br107	Br	1.044906	-0.005910	0.329769
Br108	Br	1.544906	0.494090	0.829769
Br109	Br	0.710917	0.186886	0.135466
Br110	Br	1.210917	0.686886	0.635466
Br111	Br	0.802952	0.379337	0.132733
Br112	Br	1.302952	0.879337	0.632733
Br113	Br	1.055126	-0.022185	0.115013
Br114	Br	1.555126	0.477815	0.615013
Br115	Br	0.147525	0.169709	0.104813
Br116	Br	0.647525	0.669709	0.604813
H117	H	1.045364	-0.006553	0.712882
H118	H	1.545364	0.493447	1.212882
H119	H	0.851279	0.302509	0.726520
H120	H	1.351279	0.802509	1.226520
Br121	Br	0.933727	-0.282878	0.041100
Br122	Br	1.433727	0.217122	0.541100
H123	H	0.554012	0.158363	-0.181565
H124	H	1.054012	0.658363	0.318435
Br125	Br	0.728669	0.158706	-0.236518
Br126	Br	1.228669	0.658706	0.263482
H127	H	0.335842	0.148406	-0.236449
H128	H	0.835842	0.648406	0.263551
H129	H	0.946816	-0.221619	-0.205172
H130	H	1.446816	0.278381	0.294828
H131	H	0.933690	-0.411157	-0.001561
H132	H	1.433690	0.088843	0.498439
