data_functionalizedCrystal
_audit_creation_method	'MofGen! by Chris Wilmer'
_symmetry_space_group_name_H-M	'P1'
_symmetry_Int_Tables_number	1
_symmetry_cell_setting	triclinic
loop_
_symmetry_equiv_pos_as_xyz
  x,y,z
_cell_length_a	17.019383
_cell_length_b	17.038272
_cell_length_c	15.500227
_cell_angle_alpha	86.966746
_cell_angle_beta	83.288908
_cell_angle_gamma	92.753117
loop_
_atom_site_label
_atom_site_type_symbol
_atom_site_fract_x
_atom_site_fract_y
_atom_site_fract_z
O1	O	1.060538	-0.092039	-0.150878
O2	O	1.393871	0.241294	0.182455
O3	O	1.727205	0.574627	0.515788
O4	O	0.830914	-0.105591	-0.133790
O5	O	1.164247	0.227743	0.199544
O6	O	1.497580	0.561076	0.532877
O7	O	0.944361	0.014994	-0.142226
O8	O	1.277694	0.348327	0.191108
O9	O	1.611028	0.681661	0.524441
O10	O	0.947091	-0.212624	-0.142442
O11	O	1.280424	0.120710	0.190891
O12	O	1.613758	0.454043	0.524224
O13	O	0.937475	0.007705	0.002175
O14	O	1.270808	0.341038	0.335508
O15	O	1.604141	0.674372	0.668842
O16	O	0.824028	-0.112879	0.010611
O17	O	1.157361	0.220454	0.343944
O18	O	1.490694	0.553787	0.677278
O19	O	1.053652	-0.099328	-0.006478
O20	O	1.386985	0.234005	0.326856
O21	O	1.720319	0.567339	0.660189
Cu22	Cu	0.938211	-0.106769	0.015252
Cu23	Cu	1.271544	0.226564	0.348585
Cu24	Cu	1.604878	0.559897	0.681918
Cu25	Cu	0.946355	-0.098149	-0.155519
Cu26	Cu	1.279688	0.235184	0.177814
Cu27	Cu	1.613021	0.568517	0.511148
O28	O	0.940205	-0.219913	0.001958
O29	O	1.273538	0.113421	0.335292
O30	O	1.606871	0.446754	0.668625
C31	C	0.797945	-0.108863	-0.059392
C32	C	1.131278	0.224471	0.273941
C33	C	1.464612	0.557804	0.607275
C34	C	0.709967	-0.107744	-0.052845
C35	C	1.043300	0.225589	0.280489
C36	C	1.376633	0.558922	0.613822
C37	C	0.672381	-0.103248	-0.128475
C38	C	1.005714	0.230086	0.204858
C39	C	1.339047	0.563419	0.538192
C40	C	0.589714	-0.102210	-0.122310
C41	C	0.923048	0.231123	0.211023
C42	C	1.256381	0.564457	0.544357
C43	C	0.544636	-0.105663	-0.040514
C44	C	0.877969	0.227670	0.292819
C45	C	1.211303	0.561004	0.626153
C46	C	0.582228	-0.110162	0.035122
C47	C	0.915561	0.223171	0.368455
C48	C	1.248894	0.556505	0.701789
C49	C	0.664892	-0.111206	0.028956
C50	C	0.998225	0.222128	0.362290
C51	C	1.331559	0.555461	0.695623
C52	C	0.294855	-0.102717	-0.017960
C53	C	0.628189	0.230617	0.315373
C54	C	0.961522	0.563950	0.648707
C55	C	0.212185	-0.101671	-0.011800
C56	C	0.545519	0.231663	0.321533
C57	C	0.878852	0.564996	0.654867
C58	C	0.219678	-0.093720	-0.169233
C59	C	0.553011	0.239613	0.164101
C60	C	0.886344	0.572947	0.497434
C61	C	0.302344	-0.094759	-0.175391
C62	C	0.635677	0.238574	0.157942
C63	C	0.969010	0.571908	0.491275
C64	C	0.339928	-0.099262	-0.099755
C65	C	0.673261	0.234071	0.233578
C66	C	1.006595	0.567405	0.566911
C67	C	0.460138	-0.104600	-0.034211
C68	C	0.793471	0.228734	0.299123
C69	C	1.126805	0.562067	0.632456
C70	C	0.424424	-0.100331	-0.106059
C71	C	0.757757	0.233002	0.227274
C72	C	1.091091	0.566336	0.560607
C73	C	0.938435	0.040466	-0.069841
C74	C	1.271769	0.373800	0.263493
C75	C	1.605102	0.707133	0.596826
C76	C	0.931029	0.127226	-0.069290
C77	C	1.264362	0.460559	0.264044
C78	C	1.597695	0.793892	0.597377
C79	C	1.086621	-0.096056	-0.080877
C80	C	1.419954	0.237277	0.252456
C81	C	1.753288	0.570611	0.585789
C82	C	1.174599	-0.097174	-0.087430
C83	C	1.507933	0.236159	0.245903
C84	C	1.841266	0.569493	0.579236
C85	C	0.946130	-0.245385	-0.070429
C86	C	1.279464	0.087948	0.262905
C87	C	1.612797	0.421282	0.596238
C88	C	0.953537	-0.332144	-0.070985
C89	C	1.286871	0.001189	0.262348
C90	C	1.620204	0.334523	0.595681
N91	N	0.932489	-0.112832	0.135362
N92	N	1.265822	0.220502	0.468695
N93	N	1.599156	0.553835	0.802029
C94	C	0.999029	0.177650	-0.074349
C95	C	1.332363	0.510983	0.258984
C96	C	1.665696	0.844316	0.592317
C97	C	0.992066	0.259169	-0.073839
C98	C	1.325399	0.592502	0.259494
C99	C	1.658732	0.925836	0.592827
C100	C	0.917101	0.290262	-0.068263
C101	C	1.250434	0.623595	0.265070
C102	C	1.583767	0.956929	0.598403
C103	C	0.849095	0.239832	-0.063206
C104	C	1.182429	0.573165	0.270127
C105	C	1.515762	0.906498	0.603461
C106	C	0.856060	0.158314	-0.063722
C107	C	1.189393	0.491648	0.269611
C108	C	1.522727	0.824981	0.602944
C109	C	0.892496	0.535908	-0.066444
C110	C	1.225830	0.869242	0.266889
C111	C	1.559163	1.202575	0.600222
C112	C	0.885537	0.617432	-0.065926
C113	C	1.218870	0.950765	0.267408
C114	C	1.552203	1.284099	0.600741
C115	C	1.028508	0.636764	-0.076561
C116	C	1.361841	0.970097	0.256773
C117	C	1.695175	1.303430	0.590106
C118	C	1.035466	0.555244	-0.077071
C119	C	1.368799	0.888577	0.256262
C120	C	1.702132	1.221910	0.589595
C121	C	0.967461	0.504821	-0.072018
C122	C	1.300794	0.838154	0.261315
C123	C	1.634127	1.171487	0.594648
C124	C	0.909981	0.373587	-0.067739
C125	C	1.243314	0.706921	0.265594
C126	C	1.576648	1.040254	0.598927
C127	C	0.974581	0.421497	-0.072549
C128	C	1.307915	0.754831	0.260784
C129	C	1.641248	1.088164	0.594118
N130	N	0.952083	-0.092081	-0.275630
N131	N	1.285416	0.241252	0.057703
N132	N	1.618749	0.574586	0.391037
C133	C	0.980580	-0.061754	0.177063
C134	C	1.313913	0.271579	0.510396
C135	C	1.647246	0.604912	0.843729
C136	C	0.976260	-0.066346	0.267957
C137	C	1.309593	0.266987	0.601290
C138	C	1.642926	0.600320	0.934623
C139	C	0.923853	-0.122020	0.317148
C140	C	1.257186	0.211314	0.650482
C141	C	1.590520	0.544647	0.983815
C142	C	0.875757	-0.173099	0.275442
C143	C	1.209090	0.160234	0.608775
C144	C	1.542424	0.493568	0.942108
C145	C	0.880073	-0.168503	0.184550
C146	C	1.213406	0.164830	0.517883
C147	C	1.546740	0.498164	0.851216
C148	C	0.908303	-0.138564	0.591771
C149	C	1.241636	0.194769	0.925105
C150	C	1.574970	0.528102	1.258438
C151	C	0.903992	-0.143158	0.682670
C152	C	1.237325	0.190175	1.016003
C153	C	1.570659	0.523508	1.349336
C154	C	1.004494	-0.036404	0.675178
C155	C	1.337828	0.296930	1.008512
C156	C	1.671161	0.630263	1.341845
C157	C	1.008809	-0.031816	0.584285
C158	C	1.342143	0.301518	0.917618
C159	C	1.675476	0.634851	1.250951
C160	C	0.960710	-0.082892	0.542586
C161	C	1.294044	0.250441	0.875919
C162	C	1.627377	0.583774	1.209253
C163	C	0.919438	-0.126716	0.410057
C164	C	1.252771	0.206617	0.743390
C165	C	1.586105	0.539950	1.076723
C166	C	0.965122	-0.078191	0.449680
C167	C	1.298455	0.255142	0.783013
C168	C	1.631789	0.588475	1.116346
H169	H	0.175483	-0.104505	0.054812
H170	H	0.508816	0.228829	0.388145
H171	H	0.842150	0.562162	0.721478
H172	H	1.035618	0.396179	-0.077108
H173	H	1.368952	0.729512	0.256225
H174	H	1.702285	1.062845	0.589559
H175	H	0.861314	-0.188497	0.722718
H176	H	1.194647	0.144836	1.056051
H177	H	1.527981	0.478169	1.389384
H178	H	1.023258	-0.016422	0.137016
H179	H	1.356592	0.316911	0.470350
H180	H	1.689925	0.650244	0.803683
H181	H	0.709078	-0.100434	-0.195082
H182	H	1.042411	0.232900	0.138251
H183	H	1.375745	0.566233	0.471584
H184	H	0.559116	-0.098549	-0.183897
H185	H	0.892449	0.234785	0.149437
H186	H	1.225782	0.568118	0.482770
H187	H	0.833082	-0.218427	0.315499
H188	H	1.166415	0.114906	0.648832
H189	H	1.499748	0.448239	0.982166
H190	H	1.047439	0.300221	-0.077958
H191	H	1.380772	0.633555	0.255376
H192	H	1.714106	0.966888	0.588709
H193	H	0.800686	0.117259	-0.059602
H194	H	1.134020	0.450592	0.273731
H195	H	1.467353	0.783926	0.607064
H196	H	1.083874	0.677827	-0.080676
H197	H	1.417207	1.011160	0.252657
H198	H	1.750540	1.344493	0.585991
H199	H	1.096510	0.529934	-0.081612
H200	H	1.429843	0.863268	0.251722
H201	H	1.763177	1.196601	0.585055
H202	H	0.461130	-0.097524	-0.172657
H203	H	0.794463	0.235809	0.160676
H204	H	1.127797	0.569143	0.494009
H205	H	0.837121	0.494863	-0.062329
H206	H	1.170455	0.828196	0.271004
H207	H	1.503788	1.161530	0.604337
H208	H	0.824488	0.642743	-0.061371
H209	H	1.157821	0.976077	0.271963
H210	H	1.491154	1.309410	0.605296
H211	H	1.043653	0.005181	0.709138
H212	H	1.376987	0.338515	1.042471
H213	H	1.710320	0.671848	1.375804
H214	H	0.788057	0.265154	-0.058671
H215	H	1.121391	0.598488	0.274662
H216	H	1.454724	0.931821	0.607995
H217	H	0.848944	0.398912	-0.063197
H218	H	1.182277	0.732246	0.270136
H219	H	1.515611	1.065579	0.603469
H220	H	0.325446	-0.106378	0.043628
H221	H	0.658780	0.226955	0.376962
H222	H	0.992113	0.560288	0.710295
H223	H	0.545518	-0.112978	0.101722
H224	H	0.878851	0.220355	0.435055
H225	H	1.212185	0.553688	0.768389
H226	H	0.869140	-0.180154	0.557828
H227	H	1.202474	0.153179	0.891161
H228	H	1.535807	0.486512	1.224494
H229	H	0.840912	-0.210094	0.150598
H230	H	1.174245	0.123239	0.483931
H231	H	1.507578	0.456572	0.817265
H232	H	1.007789	-0.032859	0.409626
H233	H	1.341122	0.300474	0.742959
H234	H	1.674455	0.633808	1.076292
H235	H	1.015418	-0.024755	0.301909
H236	H	1.348752	0.308579	0.635242
H237	H	1.682085	0.641912	0.968575
H238	H	0.695493	-0.114870	0.090543
H239	H	1.028826	0.218463	0.423876
H240	H	1.362160	0.551796	0.757209
H241	H	0.876768	-0.172048	0.450116
H242	H	1.210102	0.161285	0.783449
H243	H	1.543435	0.494618	1.116782
H244	H	1.051483	0.013518	0.544234
H245	H	1.384817	0.346851	0.877568
H246	H	1.718150	0.680185	1.210901
H247	H	0.189068	-0.090055	-0.230811
H248	H	0.522401	0.243278	0.102522
H249	H	0.855734	0.576611	0.435855
H250	H	0.339042	-0.091941	-0.241998
H251	H	0.672375	0.241392	0.091335
H252	H	1.005708	0.574725	0.424668
H253	H	0.423426	-0.107409	0.032388
H254	H	0.756760	0.225924	0.365721
H255	H	1.090093	0.559258	0.699055
H256	H	1.060073	0.152340	-0.078884
H257	H	1.393407	0.485674	0.254449
H258	H	1.726740	0.819007	0.587782
