data_functionalizedCrystal
_audit_creation_method	'MofGen! by Chris Wilmer'
_symmetry_space_group_name_H-M	'P1'
_symmetry_Int_Tables_number	1
_symmetry_cell_setting	triclinic
loop_
_symmetry_equiv_pos_as_xyz
  x,y,z
_cell_length_a	14.519731
_cell_length_b	14.519709
_cell_length_c	12.996460
_cell_angle_alpha	90.007090
_cell_angle_beta	90.005673
_cell_angle_gamma	83.684499
loop_
_atom_site_label
_atom_site_type_symbol
_atom_site_fract_x
_atom_site_fract_y
_atom_site_fract_z
O1	O	1.223857	0.120986	0.085571
O2	O	1.557190	0.454320	0.418905
O3	O	1.890523	0.787653	0.752238
O4	O	0.955382	0.135203	0.085573
O5	O	1.288716	0.468536	0.418906
O6	O	1.622049	0.801869	0.752240
O7	O	1.096738	-0.006143	0.085563
O8	O	1.430071	0.327190	0.418896
O9	O	1.763404	0.660523	0.752230
O10	O	1.082501	0.262332	0.085582
O11	O	1.415835	0.595666	0.418915
O12	O	1.749168	0.928999	0.752248
O13	O	1.096723	-0.006151	-0.085571
O14	O	1.430056	0.327182	0.247762
O15	O	1.763390	0.660515	0.581096
O16	O	0.955368	0.135195	-0.085561
O17	O	1.288701	0.468528	0.247773
O18	O	1.622034	0.801861	0.581106
O19	O	1.223842	0.120979	-0.085563
O20	O	1.557175	0.454312	0.247771
O21	O	1.890509	0.787645	0.581104
Cu22	Cu	1.089603	0.128086	-0.101187
Cu23	Cu	1.422937	0.461419	0.232146
Cu24	Cu	1.756270	0.794753	0.565479
Cu25	Cu	1.089621	0.128095	0.101198
Cu26	Cu	1.422954	0.461429	0.434531
Cu27	Cu	1.756288	0.794762	0.767865
O28	O	1.082487	0.262325	-0.085552
O29	O	1.415820	0.595658	0.247781
O30	O	1.749153	0.928991	0.581114
C31	C	0.921016	0.134532	0.000006
C32	C	1.254349	0.467866	0.333340
C33	C	1.587682	0.801199	0.666673
C34	C	0.818635	0.132536	0.000007
C35	C	1.151969	0.465870	0.333340
C36	C	1.485302	0.799203	0.666673
C37	C	0.735491	0.130915	0.000011
C38	C	1.068825	0.464248	0.333344
C39	C	1.402158	0.797581	0.666678
C40	C	0.631182	0.128888	0.000011
C41	C	0.964516	0.462221	0.333344
C42	C	1.297849	0.795555	0.666678
C43	C	0.548043	0.127280	0.000011
C44	C	0.881377	0.460613	0.333344
C45	C	1.214710	0.793946	0.666678
C46	C	0.443728	0.125253	0.000013
C47	C	0.777061	0.458586	0.333346
C48	C	1.110395	0.791920	0.666680
C49	C	1.096067	-0.040507	-0.000004
C50	C	1.429400	0.292826	0.333329
C51	C	1.762734	0.626160	0.666663
C52	C	1.094079	-0.142889	-0.000005
C53	C	1.427412	0.190445	0.333329
C54	C	1.760745	0.523778	0.666662
C55	C	1.086759	-0.517785	0.000022
C56	C	1.420093	-0.184452	0.333355
C57	C	1.753426	0.148882	0.666689
C58	C	1.088792	-0.413477	0.000014
C59	C	1.422125	-0.080143	0.333348
C60	C	1.755459	0.253190	0.666681
C61	C	1.090419	-0.330340	0.000008
C62	C	1.423752	0.002993	0.333341
C63	C	1.757085	0.336327	0.666674
C64	C	1.092452	-0.226025	0.000002
C65	C	1.425785	0.107308	0.333335
C66	C	1.759118	0.440641	0.666669
C67	C	1.258209	0.121649	0.000007
C68	C	1.591542	0.454982	0.333340
C69	C	1.924875	0.788315	0.666673
C70	C	1.360589	0.123645	0.000013
C71	C	1.693922	0.456978	0.333346
C72	C	2.027256	0.790311	0.666680
C73	C	1.083157	0.296688	0.000017
C74	C	1.416491	0.630022	0.333350
C75	C	1.749824	0.963355	0.666684
C76	C	1.085146	0.399070	0.000024
C77	C	1.418479	0.732403	0.333358
C78	C	1.751812	1.065736	0.666691
N79	N	1.089598	0.128079	-0.243535
N80	N	1.422931	0.461412	0.089799
N81	N	1.756265	0.794746	0.423132
C82	C	1.089620	0.128096	-0.663349
C83	C	1.422953	0.461429	-0.330016
C84	C	1.756286	0.794763	0.003318
C85	C	1.089611	0.128094	-0.546544
C86	C	1.422944	0.461428	-0.213210
C87	C	1.756277	0.794761	0.120123
C88	C	1.089609	0.128088	-0.453445
C89	C	1.422943	0.461422	-0.120112
C90	C	1.756276	0.794755	0.213221
C91	C	1.089600	0.128085	-0.336633
C92	C	1.422933	0.461418	-0.003300
C93	C	1.756266	0.794752	0.330034
N94	N	1.089634	0.128095	0.243545
N95	N	1.422967	0.461428	0.576879
N96	N	1.756300	0.794762	0.910212
