data_functionalizedCrystal
_audit_creation_method	'MofGen! by Chris Wilmer'
_symmetry_space_group_name_H-M	'P1'
_symmetry_Int_Tables_number	1
_symmetry_cell_setting	triclinic
loop_
_symmetry_equiv_pos_as_xyz
  x,y,z
_cell_length_a	34.571875
_cell_length_b	34.571051
_cell_length_c	34.567439
_cell_angle_alpha	60.004367
_cell_angle_beta	60.008842
_cell_angle_gamma	59.994195
loop_
_atom_site_label
_atom_site_type_symbol
_atom_site_fract_x
_atom_site_fract_y
_atom_site_fract_z
O1	O	0.053721	-0.565181	0.472559
O2	O	0.553721	-0.065181	0.972559
O3	O	0.020283	-0.440038	0.380761
O4	O	0.520283	0.059962	0.880761
O5	O	0.099534	-0.519209	0.380676
O6	O	0.599534	-0.019209	0.880676
O7	O	-0.025530	-0.486010	0.472643
O8	O	0.474470	0.013990	0.972643
O9	O	0.125831	-0.492917	0.406885
O10	O	0.625831	0.007083	0.906885
O11	O	0.046580	-0.413746	0.406969
O12	O	0.546580	0.086254	0.906969
O13	O	0.080018	-0.538889	0.498767
O14	O	0.580018	-0.038889	0.998767
Zn15	Zn	0.067475	-0.472143	0.457030
Zn16	Zn	0.567475	0.027857	0.957030
Zn17	Zn	0.032827	-0.506784	0.422498
Zn18	Zn	0.532827	-0.006784	0.922498
O19	O	0.000767	-0.459718	0.498852
O20	O	0.500767	0.040282	0.998852
N21	N	0.091122	-0.448505	0.480598
N22	N	0.591122	0.051495	0.980598
N23	N	0.009184	-0.530426	0.398930
N24	N	0.509184	-0.030426	0.898930
C25	C	0.124402	-0.415465	0.717633
C26	C	0.624402	0.084535	1.217633
C27	C	0.328327	-0.415388	0.513477
C28	C	0.828327	0.084612	1.013477
C29	C	0.124221	-0.415437	0.513630
C30	C	0.624221	0.084563	1.013630
C31	C	0.124201	-0.211364	0.513624
C32	C	0.624201	0.288636	1.013624
C33	C	0.157075	-0.309853	0.546423
C34	C	0.657075	0.190147	1.046423
C35	C	0.157084	-0.382601	0.546423
C36	C	0.657084	0.117399	1.046423
C37	C	0.175289	-0.364414	0.564591
C38	C	0.675289	0.135586	1.064591
C39	C	0.254624	-0.350722	0.522790
C40	C	0.754624	0.149278	1.022790
C41	C	0.304220	-0.367243	0.506229
C42	C	0.804220	0.132757	1.006229
C43	C	0.304249	-0.447494	0.536832
C44	C	0.804249	0.052506	1.036832
C45	C	0.254655	-0.430972	0.553394
C46	C	0.754655	0.069028	1.053394
C47	C	0.169014	-0.285043	0.497667
C48	C	0.669014	0.214957	0.997667
C49	C	0.152454	-0.235444	0.481153
C50	C	0.652454	0.264556	0.981153
C51	C	0.112020	-0.235469	0.562154
C52	C	0.612020	0.264531	1.062154
C53	C	0.128580	-0.285068	0.578668
C54	C	0.628580	0.214932	1.078668
C55	C	0.108321	-0.370634	0.558439
C56	C	0.608321	0.129366	1.058439
C57	C	0.091776	-0.387168	0.541918
C58	C	0.591776	0.112832	1.041918
C59	C	0.172754	-0.427637	0.501375
C60	C	0.672754	0.072363	1.001375
C61	C	0.189301	-0.411103	0.517891
C62	C	0.689301	0.088897	1.017891
C63	C	0.108399	-0.370649	0.643978
C64	C	0.608399	0.129351	1.143978
C65	C	0.091911	-0.387197	0.693575
C66	C	0.591911	0.112803	1.193575
C67	C	0.172928	-0.427676	0.693511
C68	C	0.672928	0.072324	1.193511
C69	C	0.189415	-0.411128	0.643912
C70	C	0.689415	0.088872	1.143912
C71	C	0.157149	-0.382613	0.619147
C72	C	0.657149	0.117387	1.119147
C73	C	0.229844	-0.382585	0.546371
C74	C	0.729844	0.117415	1.046371
C75	C	0.105624	-0.433333	0.772186
C76	C	0.605624	0.066667	1.272186
C77	C	0.382878	-0.432925	0.495007
C78	C	0.882878	0.067075	0.995007
C79	C	0.105380	-0.433313	0.495792
C80	C	0.605380	0.066687	0.995792
C81	C	0.105683	-0.156808	0.496094
C82	C	0.605683	0.343192	0.996094
C83	C	-0.023527	-0.563458	0.161535
C84	C	0.476473	-0.063458	0.661535
C85	C	-0.023851	-0.767445	0.365663
C86	C	0.476149	-0.267445	0.865663
C87	C	-0.023821	-0.563448	0.365756
C88	C	0.476179	-0.063448	0.865756
C89	C	-0.227785	-0.563229	0.365355
C90	C	0.272215	-0.063229	0.865355
C91	C	-0.129302	-0.596153	0.332678
C92	C	0.370698	-0.096153	0.832678
C93	C	-0.056593	-0.596234	0.332823
C94	C	0.443407	-0.096234	0.832823
C95	C	-0.074746	-0.614396	0.314578
C96	C	0.425254	-0.114396	0.814578
C97	C	-0.088477	-0.693710	0.356299
C98	C	0.411523	-0.193710	0.856299
C99	C	-0.071982	-0.743310	0.372851
C100	C	0.428018	-0.243310	0.872851
C101	C	0.008266	-0.743392	0.342376
C102	C	0.508266	-0.243392	0.842376
C103	C	-0.008230	-0.693794	0.325823
C104	C	0.491770	-0.193794	0.825823
C105	C	-0.154162	-0.608103	0.381422
C106	C	0.345838	-0.108103	0.881422
C107	C	-0.203757	-0.591517	0.397874
C108	C	0.296243	-0.091517	0.897874
C109	C	-0.203630	-0.551037	0.316836
C110	C	0.296370	-0.051037	0.816836
C111	C	-0.154034	-0.567623	0.300384
C112	C	0.345966	-0.067623	0.800384
C113	C	-0.068543	-0.547475	0.320829
C114	C	0.431457	-0.047475	0.820829
C115	C	-0.052041	-0.530969	0.337421
C116	C	0.447959	-0.030969	0.837421
C117	C	-0.011639	-0.611977	0.377990
C118	C	0.488361	-0.111977	0.877990
C119	C	-0.028141	-0.628485	0.361404
C120	C	0.471859	-0.128485	0.861404
C121	C	-0.068417	-0.547482	0.235199
C122	C	0.431583	-0.047482	0.735199
C123	C	-0.051814	-0.530977	0.185602
C124	C	0.448186	-0.030977	0.685602
C125	C	-0.011349	-0.611990	0.185649
C126	C	0.488651	-0.111990	0.685649
C127	C	-0.027951	-0.628493	0.235248
C128	C	0.472049	-0.128493	0.735248
C129	C	-0.056486	-0.596238	0.260022
C130	C	0.443514	-0.096238	0.760022
C131	C	-0.056602	-0.668955	0.332787
C132	C	0.443398	-0.168955	0.832787
C133	C	-0.005599	-0.544662	0.106983
C134	C	0.494401	-0.044662	0.606983
C135	C	-0.006342	-0.821999	0.384121
C136	C	0.493658	-0.321999	0.884121
C137	C	-0.005979	-0.544649	0.383673
C138	C	0.494021	-0.044649	0.883673
C139	C	-0.282336	-0.544682	0.382817
C140	C	0.217664	-0.044682	0.882817
N141	N	0.427518	-0.448428	0.480350
N142	N	0.927518	0.051572	0.980350
O143	O	0.589573	-0.456297	0.363634
O144	O	1.089573	0.043703	0.863634
O145	O	0.589761	-0.548399	0.488643
O146	O	1.089761	-0.048399	0.988643
O147	O	0.589681	-0.548188	0.409364
O148	O	1.089681	-0.048188	0.909364
O149	O	0.589654	-0.456508	0.442913
O150	O	1.089654	0.043492	0.942913
O151	O	0.510890	-0.521988	0.435708
O152	O	1.010890	-0.021988	0.935708
O153	O	0.510970	-0.522199	0.514987
O154	O	1.010970	-0.022199	1.014987
O155	O	0.510782	-0.430098	0.389978
O156	O	1.010782	0.069902	0.889978
Zn157	Zn	0.498366	-0.471989	0.456665
Zn158	Zn	0.998366	0.028011	0.956665
Zn159	Zn	0.602177	-0.506508	0.421956
Zn160	Zn	1.102177	-0.006508	0.921956
O161	O	0.510862	-0.430308	0.469257
O162	O	1.010862	0.069692	0.969257
N163	N	0.673025	-0.530068	0.398267
N164	N	1.173025	-0.030068	0.898267
N165	N	0.091092	-0.112167	0.480590
N166	N	0.591092	0.387833	0.980590
O167	O	-0.025539	0.049976	0.472612
O168	O	0.474461	0.549976	0.972612
O169	O	0.099472	0.050011	0.380491
O170	O	0.599472	0.550011	0.880491
O171	O	0.020155	0.049979	0.380751
O172	O	0.520155	0.549979	0.880751
O173	O	0.053778	0.050009	0.472352
O174	O	0.553778	0.550009	0.972352
O175	O	0.046458	-0.028818	0.407008
O176	O	0.546458	0.471182	0.907008
O177	O	0.125775	-0.028785	0.406748
O178	O	0.625775	0.471215	0.906748
O179	O	0.000764	-0.028821	0.498869
O180	O	0.500764	0.471179	0.998869
Zn181	Zn	0.067445	-0.041314	0.456977
Zn182	Zn	0.567445	0.458686	0.956977
Zn183	Zn	0.032791	0.062504	0.422382
Zn184	Zn	0.532791	0.562504	0.922382
O185	O	0.080081	-0.028788	0.498609
O186	O	0.580081	0.471212	0.998609
N187	N	0.009138	0.133358	0.398771
N188	N	0.509138	0.633358	0.898771
N189	N	0.091421	-0.448552	0.816827
N190	N	0.591421	0.051448	1.316827
O191	O	0.083469	-0.565164	0.978960
O192	O	0.583469	-0.065164	1.478960
O193	O	-0.008614	-0.440110	0.979002
O194	O	0.491386	0.059890	1.479002
O195	O	-0.008399	-0.519410	0.978978
O196	O	0.491601	-0.019410	1.478978
O197	O	0.083253	-0.485863	0.978984
O198	O	0.583253	0.014137	1.478984
O199	O	0.017837	-0.493128	0.900185
O200	O	0.517837	0.006872	1.400185
O201	O	0.017621	-0.413827	0.900208
O202	O	0.517621	0.086173	1.400208
O203	O	0.109704	-0.538881	0.900167
O204	O	0.609704	-0.038881	1.400167
Zn205	Zn	0.067828	-0.472181	0.887677
Zn206	Zn	0.567828	0.027819	1.387677
Zn207	Zn	0.033262	-0.506810	0.991491
Zn208	Zn	0.533262	-0.006810	1.491491
O209	O	0.109489	-0.459581	0.900191
O210	O	0.609489	0.040419	1.400191
N211	N	0.009668	-0.530444	1.062341
N212	N	0.509668	-0.030444	1.562341
C213	C	0.030297	-0.411123	0.381218
C214	C	0.530297	0.088877	0.881218
C215	C	0.128439	-0.509167	0.381113
C216	C	0.628439	-0.009167	0.881113
C217	C	0.070004	-0.567805	0.498310
C218	C	0.570004	-0.067805	0.998310
C219	C	-0.028138	-0.469761	0.498415
C220	C	0.471862	0.030239	0.998415
C221	C	0.550388	-0.547982	0.517564
C222	C	1.050388	-0.047982	1.017564
C223	C	0.550290	-0.547721	0.419387
C224	C	1.050290	-0.047721	0.919387
C225	C	0.550153	-0.430514	0.361058
C226	C	1.050153	0.069486	0.861058
C227	C	0.550253	-0.430775	0.459234
C228	C	1.050253	0.069225	0.959234
C229	C	0.128339	0.010714	0.380902
C230	C	0.628339	0.510714	0.880902
C231	C	0.030148	0.010577	0.381256
C232	C	0.530148	0.510577	0.881256
C233	C	-0.028136	0.010574	0.498426
C234	C	0.471864	0.510574	0.998426
C235	C	0.070089	0.010613	0.498104
C236	C	0.570089	0.510613	0.998104
C237	C	-0.008178	-0.411214	0.939610
C238	C	0.491822	0.088786	1.439610
C239	C	-0.007906	-0.509413	0.939566
C240	C	0.492094	-0.009413	1.439566
C241	C	0.109268	-0.567777	0.939558
C242	C	0.609268	-0.067777	1.439558
C243	C	0.109002	-0.469572	0.939586
C244	C	0.609002	0.030428	1.439586
H245	H	0.082121	-0.347425	0.623816
H246	H	0.582121	0.152575	1.123816
H247	H	-0.064037	0.010563	0.527345
H248	H	0.435963	0.510563	1.027345
C249	C	0.550297	-0.408967	0.515147
C250	C	1.050297	0.091033	1.015147
C251	C	0.550239	-0.391893	0.468921
C252	C	1.050239	0.108107	0.968921
H253	H	0.550285	-0.384961	0.521127
H254	H	1.050285	0.115039	1.021127
H255	H	0.577796	-0.435891	0.518645
H256	H	1.077796	0.064109	1.018645
H257	H	0.522843	-0.417621	0.537019
H258	H	1.022843	0.082379	1.037019
H259	H	0.577694	-0.383242	0.447049
H260	H	1.077694	0.116758	0.947049
H261	H	0.522737	-0.364960	0.465419
H262	H	1.022737	0.135040	0.965419
H263	H	0.023152	-0.375173	0.352387
H264	H	0.523152	0.124827	0.852387
H265	H	0.077150	-0.603753	0.527142
H266	H	0.577150	-0.103753	1.027142
C267	C	0.158717	-0.421786	0.899079
C268	C	0.658717	0.078214	1.399079
C269	C	0.147876	-0.459885	0.939578
C270	C	0.647876	0.040115	1.439578
H271	H	0.182719	-0.415808	0.899073
H272	H	0.682719	0.084192	1.399073
H273	H	0.131142	-0.394408	0.899094
H274	H	0.631142	0.105592	1.399094
H275	H	0.169649	-0.429308	0.871601
H276	H	0.669649	0.070692	1.371601
H277	H	0.136940	-0.452361	0.967056
H278	H	0.636940	0.047639	1.467056
H279	H	0.175456	-0.487268	0.939567
H280	H	0.675456	0.012732	1.439567
C281	C	-0.093493	-0.452557	0.190544
C282	C	0.406507	0.047443	0.690544
C283	C	-0.064939	-0.477380	0.158322
C284	C	0.435061	0.022620	0.658322
H285	H	-0.101598	-0.419469	0.173701
H286	H	0.398402	0.080531	0.673701
H287	H	-0.076703	-0.460699	0.209931
H288	H	0.423297	0.039301	0.709931
H289	H	-0.121548	-0.460665	0.209847
H290	H	0.378452	0.039335	0.709847
H291	H	-0.036882	-0.469275	0.139021
H292	H	0.463118	0.030725	0.639021
H293	H	-0.081729	-0.469234	0.138927
H294	H	0.418271	0.030766	0.638927
H295	H	0.164358	-0.516243	0.352233
H296	H	0.664358	-0.016243	0.852233
C297	C	-0.105929	-0.413994	0.520472
C298	C	0.394071	0.086006	1.020472
C299	C	-0.076627	-0.460214	0.537404
C300	C	0.423373	0.039786	1.037404
H301	H	-0.135862	-0.408100	0.544545
H302	H	0.364138	0.091900	1.044545
H303	H	-0.110075	-0.410436	0.493563
H304	H	0.389925	0.089564	0.993563
H305	H	-0.091725	-0.392100	0.511834
H306	H	0.408275	0.107900	1.011834
H307	H	-0.090830	-0.482108	0.546039
H308	H	0.409170	0.017892	1.046039
H309	H	-0.072483	-0.463776	0.564321
H310	H	0.427517	0.036224	1.064321
H311	H	0.011877	-0.638258	0.165483
H312	H	0.511877	-0.138258	0.665483
C313	C	0.039460	0.010612	0.577609
C314	C	0.539460	0.510612	1.077609
C315	C	0.079805	0.010622	0.536957
C316	C	0.579805	0.510622	1.036957
H317	H	0.045459	0.010620	0.601594
H318	H	0.545459	0.510620	1.101594
H319	H	0.031954	-0.016871	0.588559
H320	H	0.531954	0.483129	1.088559
H321	H	0.013607	0.038086	0.570245
H322	H	0.513607	0.538086	1.070245
H323	H	0.105657	-0.016854	0.544320
H324	H	0.605657	0.483146	1.044320
H325	H	0.087317	0.038107	0.526006
H326	H	0.587317	0.538107	1.026006
C327	C	0.206027	0.011134	0.358573
C328	C	0.706027	0.511134	0.858573
C329	C	0.176702	0.011028	0.341759
C330	C	0.676702	0.511028	0.841759
H331	H	0.235883	0.011331	0.334407
H332	H	0.735883	0.511331	0.834407
H333	H	0.210353	-0.016403	0.385400
H334	H	0.710353	0.483597	0.885400
H335	H	0.191736	0.038553	0.367308
H336	H	0.691736	0.538553	0.867308
H337	H	0.190991	-0.016393	0.333027
H338	H	0.690991	0.483607	0.833027
H339	H	0.172377	0.038568	0.314924
H340	H	0.672377	0.538568	0.814924
C341	C	0.550374	-0.627257	0.450052
C342	C	1.050374	-0.127257	0.950052
C343	C	0.550306	-0.586604	0.409700
C344	C	1.050306	-0.086604	0.909700
H345	H	0.550387	-0.651262	0.444069
H346	H	1.050387	-0.151262	0.944069
H347	H	0.522917	-0.619906	0.475909
H348	H	1.022917	-0.119906	0.975909
H349	H	0.577870	-0.638177	0.457537
H350	H	1.077870	-0.138177	0.957537
H351	H	0.522808	-0.575682	0.402217
H352	H	1.022808	-0.075682	0.902217
H353	H	0.577766	-0.593956	0.383835
H354	H	1.077766	-0.093956	0.883835
H355	H	-0.037087	-0.375298	0.939623
H356	H	0.462913	0.124702	1.439623
H357	H	-0.036687	-0.516580	0.939532
H358	H	0.463313	-0.016580	1.439532
H359	H	0.550436	-0.576894	0.553469
H360	H	1.050436	-0.076894	1.053469
H361	H	0.550093	-0.401597	0.325157
H362	H	1.050093	0.098403	0.825157
C363	C	0.052667	-0.029941	0.329685
C364	C	0.552667	0.470059	0.829685
C365	C	0.020440	0.010564	0.342399
C366	C	0.520440	0.510564	0.842399
H367	H	0.046678	-0.029948	0.305693
H368	H	0.546678	0.470052	0.805693
H369	H	0.049149	-0.057414	0.356629
H370	H	0.549149	0.442586	0.856629
H371	H	0.084031	-0.029924	0.318102
H372	H	0.584031	0.470076	0.818102
H373	H	-0.010924	0.010545	0.353985
H374	H	0.489076	0.510545	0.853985
H375	H	0.023955	0.038044	0.315450
H376	H	0.523955	0.538044	0.815450
C377	C	0.159267	-0.624766	0.899029
C378	C	0.659267	-0.124766	1.399029
C379	C	0.148298	-0.616260	0.939540
C380	C	0.648298	-0.116260	1.439540
H381	H	0.183360	-0.654698	0.899019
H382	H	0.683360	-0.154698	1.399019
H383	H	0.170117	-0.600659	0.871562
H384	H	0.670117	-0.100659	1.371562
H385	H	0.131762	-0.624717	0.899035
H386	H	0.631762	-0.124717	1.399035
H387	H	0.175802	-0.616305	0.939532
H388	H	0.675802	-0.116305	1.439532
H389	H	0.137449	-0.640373	0.967014
H390	H	0.637449	-0.140373	1.467014
C391	C	0.017777	-0.390848	0.708892
C392	C	0.517777	0.109152	1.208892
C393	C	0.038320	-0.374035	0.720863
C394	C	0.538320	0.125965	1.220863
H395	H	-0.015308	-0.382719	0.725737
H396	H	0.484692	0.117281	1.225737
H397	H	0.031714	-0.424309	0.717013
H398	H	0.531714	0.075691	1.217013
H399	H	0.022986	-0.376912	0.675809
H400	H	0.522986	0.123088	1.175809
H401	H	0.033114	-0.387974	0.753946
H402	H	0.533114	0.112026	1.253946
H403	H	0.024378	-0.340568	0.712745
H404	H	0.524378	0.159432	1.212745
C405	C	0.254667	-0.466015	0.688458
C406	C	0.754667	0.033985	1.188458
C407	C	0.208396	-0.459011	0.720729
C408	C	0.708396	0.040989	1.220729
H409	H	0.276564	-0.485362	0.705262
H410	H	0.776564	0.014638	1.205262
H411	H	0.259406	-0.436282	0.669115
H412	H	0.759406	0.063718	1.169115
H413	H	0.259414	-0.481156	0.669114
H414	H	0.759414	0.018844	1.169114
H415	H	0.203648	-0.443866	0.740071
H416	H	0.703648	0.056134	1.240071
H417	H	0.203656	-0.488749	0.740080
H418	H	0.703656	0.011251	1.240080
H419	H	-0.133793	-0.557888	0.260690
H420	H	0.366207	-0.057888	0.760690
H421	H	0.229113	-0.420876	0.623698
H422	H	0.729113	0.079124	1.123698
C423	C	0.239304	-0.272048	0.466455
C424	C	0.739304	0.227952	0.966455
C425	C	0.227354	-0.297534	0.515071
C426	C	0.727354	0.202466	1.015071
H427	H	0.222470	-0.239211	0.461691
H428	H	0.722470	0.260789	0.961691
H429	H	0.231158	-0.282308	0.451484
H430	H	0.731158	0.217692	0.951484
H431	H	0.272389	-0.277333	0.453222
H432	H	0.772389	0.222667	0.953222
H433	H	0.194270	-0.292252	0.528304
H434	H	0.694270	0.207748	1.028304
H435	H	0.235497	-0.287270	0.530049
H436	H	0.735497	0.212730	1.030049
C437	C	0.013389	-0.345518	0.583666
C438	C	0.513389	0.154482	1.083666
C439	C	0.038174	-0.374021	0.555130
C440	C	0.538174	0.125979	1.055130
H441	H	-0.019702	-0.337406	0.591826
H442	H	0.480298	0.162594	1.091826
H443	H	0.021496	-0.317468	0.566839
H444	H	0.521496	0.182532	1.066839
H445	H	0.021558	-0.362354	0.611692
H446	H	0.521558	0.137646	1.111692
H447	H	0.030008	-0.357184	0.527102
H448	H	0.530008	0.142816	1.027102
H449	H	0.030063	-0.402076	0.571957
H450	H	0.530063	0.097924	1.071957
H451	H	0.082085	-0.347427	0.581670
H452	H	0.582085	0.152573	1.081670
H453	H	0.229008	-0.420842	0.508101
H454	H	0.729008	0.079158	1.008101
C455	C	0.254463	-0.465978	0.462961
C456	C	0.754463	0.034022	0.962961
C457	C	0.208169	-0.458967	0.470015
C458	C	0.708169	0.041033	0.970015
H459	H	0.276327	-0.485317	0.443598
H460	H	0.776327	0.014683	0.943598
H461	H	0.259253	-0.481126	0.492675
H462	H	0.759253	0.018874	0.992675
H463	H	0.259207	-0.436243	0.447820
H464	H	0.759207	0.063757	0.947820
H465	H	0.203424	-0.488702	0.485160
H466	H	0.703424	0.011298	0.985160
H467	H	0.203378	-0.443819	0.440296
H468	H	0.703378	0.056181	0.940296
C469	C	0.013708	-0.706914	0.230310
C470	C	0.513708	-0.206914	0.730310
C471	C	-0.014838	-0.682091	0.262531
C472	C	0.485162	-0.182091	0.762531
H473	H	0.021800	-0.740002	0.247154
H474	H	0.521800	-0.240002	0.747154
H475	H	0.041765	-0.698819	0.211012
H476	H	0.541765	-0.198819	0.711012
H477	H	-0.003086	-0.698761	0.210918
H478	H	0.496914	-0.198761	0.710918
H479	H	0.001957	-0.690241	0.281921
H480	H	0.501957	-0.190241	0.781921
H481	H	-0.042900	-0.690189	0.281837
H482	H	0.457100	-0.190189	0.781837
C483	C	0.239378	-0.489099	0.549224
C484	C	0.739378	0.010901	1.049224
C485	C	0.227414	-0.465998	0.579312
C486	C	0.727414	0.034002	1.079312
H487	H	0.222558	-0.510720	0.565225
H488	H	0.722558	-0.010720	1.065225
H489	H	0.272462	-0.505861	0.540368
H490	H	0.772462	-0.005861	1.040368
H491	H	0.231220	-0.466380	0.521675
H492	H	0.731220	0.033620	1.021675
H493	H	0.235575	-0.488717	0.606860
H494	H	0.735575	0.011283	1.106860
H495	H	0.194322	-0.449235	0.588175
H496	H	0.694322	0.050765	1.088175
C497	C	0.360012	-0.507444	0.500607
C498	C	0.860012	-0.007444	1.000607
C499	C	0.331527	-0.500682	0.544545
C500	C	0.831527	-0.000682	1.044545
H501	H	0.376850	-0.540279	0.505371
H502	H	0.876850	-0.040279	1.005371
H503	H	0.381866	-0.490832	0.484198
H504	H	0.881866	0.009168	0.984198
H505	H	0.340638	-0.495812	0.482459
H506	H	0.840638	0.004188	0.982459
H507	H	0.350902	-0.512311	0.562692
H508	H	0.850902	-0.012311	1.062692
H509	H	0.309671	-0.517300	0.560961
H510	H	0.809671	-0.017300	1.060961
H511	H	0.192214	-0.305222	0.471410
H512	H	0.692214	0.194778	0.971410
C513	C	0.359945	-0.334086	0.434500
C514	C	0.859945	0.165914	0.934500
C515	C	0.331460	-0.332217	0.480304
C516	C	0.831460	0.167783	0.980304
H517	H	0.376764	-0.312463	0.418496
H518	H	0.876764	0.187537	0.918496
H519	H	0.340576	-0.325792	0.417625
H520	H	0.840576	0.174208	0.917625
H521	H	0.381819	-0.365270	0.436319
H522	H	0.881819	0.134730	0.936319
H523	H	0.309584	-0.301034	0.478485
H524	H	0.809584	0.198966	0.978485
H525	H	0.350831	-0.340508	0.497183
H526	H	0.850831	0.159492	0.997183
H527	H	0.088825	-0.215289	0.588411
H528	H	0.588825	0.284711	1.088411
C529	C	0.194084	-0.240397	0.402742
C530	C	0.694084	0.259603	0.902742
C531	C	0.165575	-0.208168	0.427556
C532	C	0.665575	0.291832	0.927556
H533	H	0.202187	-0.223558	0.369654
H534	H	0.702187	0.276442	0.869654
H535	H	0.177263	-0.259747	0.410883
H536	H	0.677263	0.240253	0.910883
H537	H	0.222142	-0.259738	0.410854
H538	H	0.722142	0.240262	0.910854
H539	H	0.137516	-0.188829	0.419446
H540	H	0.637516	0.311171	0.919446
H541	H	0.182397	-0.188810	0.419412
H542	H	0.682397	0.311190	0.919412
H543	H	-0.091654	-0.521212	0.255368
H544	H	0.408346	-0.021212	0.755368
C545	C	0.086951	-0.280115	0.657079
C546	C	0.586951	0.219885	1.157079
C547	C	0.115459	-0.312344	0.632265
C548	C	0.615459	0.187656	1.132265
H549	H	0.078853	-0.296954	0.690167
H550	H	0.578853	0.203046	1.190167
H551	H	0.058895	-0.260777	0.648970
H552	H	0.558895	0.239223	1.148970
H553	H	0.103775	-0.260761	0.648934
H554	H	0.603775	0.239239	1.148934
H555	H	0.098633	-0.331695	0.640407
H556	H	0.598633	0.168305	1.140407
H557	H	0.143519	-0.331690	0.640377
H558	H	0.643519	0.168310	1.140377
H559	H	-0.061773	-0.491265	0.327657
H560	H	0.438227	0.008735	0.827657
C561	C	0.026639	-0.693712	0.416423
C562	C	0.526639	-0.193712	0.916423
C563	C	0.019637	-0.647430	0.409403
C564	C	0.519637	-0.147430	0.909403
H565	H	0.045945	-0.715599	0.435820
H566	H	0.545945	-0.215599	0.935820
H567	H	0.041819	-0.698489	0.386701
H568	H	0.541819	-0.198489	0.886701
H569	H	-0.003099	-0.698437	0.431515
H570	H	0.496901	-0.198437	0.931515
H571	H	0.049375	-0.642704	0.394307
H572	H	0.549375	-0.142704	0.894307
H573	H	0.004458	-0.642651	0.439130
H574	H	0.504458	-0.142651	0.939130
H575	H	-0.018411	-0.668189	0.371171
H576	H	0.481589	-0.168189	0.871171
C577	C	0.072750	-0.698859	0.297368
C578	C	0.572750	-0.198859	0.797368
C579	C	0.026810	-0.666580	0.299979
C580	C	0.526810	-0.166580	0.799979
H581	H	0.094381	-0.682058	0.281414
H582	H	0.594381	-0.182058	0.781414
H583	H	0.081063	-0.718206	0.280462
H584	H	0.581063	-0.218206	0.780462
H585	H	0.073964	-0.718198	0.328459
H586	H	0.573964	-0.218198	0.828459
H587	H	0.025595	-0.647243	0.268887
H588	H	0.525595	-0.147243	0.768887
H589	H	0.018495	-0.647225	0.316884
H590	H	0.518495	-0.147225	0.816884
H591	H	0.047655	-0.763617	0.336709
H592	H	0.547655	-0.263617	0.836709
C593	C	-0.130150	-0.758494	0.368638
C594	C	0.369850	-0.258494	0.868638
C595	C	-0.107052	-0.770495	0.398745
C596	C	0.392948	-0.270495	0.898745
H597	H	-0.151813	-0.775268	0.384640
H598	H	0.348187	-0.275268	0.884640
H599	H	-0.107442	-0.766682	0.341111
H600	H	0.392558	-0.266682	0.841111
H601	H	-0.146869	-0.725394	0.359754
H602	H	0.353131	-0.225394	0.859754
H603	H	-0.090331	-0.803595	0.407627
H604	H	0.409669	-0.303595	0.907627
H605	H	-0.129764	-0.762310	0.426281
H606	H	0.370236	-0.262310	0.926281
C607	C	-0.159270	-0.646441	0.463179
C608	C	0.340730	-0.146441	0.963179
C609	C	-0.126975	-0.639462	0.416918
C610	C	0.373025	-0.139462	0.916918
H611	H	-0.142485	-0.665799	0.485093
H612	H	0.357515	-0.165799	0.985093
H613	H	-0.178615	-0.661558	0.467902
H614	H	0.321385	-0.161558	0.967902
H615	H	-0.178608	-0.616699	0.467916
H616	H	0.321392	-0.116699	0.967916
H617	H	-0.107639	-0.669204	0.412180
H618	H	0.392361	-0.169204	0.912180
H619	H	-0.107621	-0.624346	0.412193
H620	H	0.392379	-0.124346	0.912193
C621	C	-0.148342	-0.637887	0.319977
C622	C	0.351658	-0.137887	0.819977
C623	C	-0.141646	-0.666400	0.363943
C624	C	0.358354	-0.166400	0.863943
H625	H	-0.181166	-0.621022	0.324695
H626	H	0.318834	-0.121022	0.824695
H627	H	-0.136694	-0.657245	0.301811
H628	H	0.363306	-0.157245	0.801811
H629	H	-0.131711	-0.616051	0.303609
H630	H	0.368289	-0.116051	0.803609
H631	H	-0.158274	-0.688239	0.380309
H632	H	0.341726	-0.188239	0.880309
H633	H	-0.153299	-0.647041	0.382116
H634	H	0.346701	-0.147041	0.882116
H635	H	-0.223999	-0.601245	0.437568
H636	H	0.276001	-0.101245	0.937568
C637	C	-0.218807	-0.544498	0.252820
C638	C	0.281193	-0.044498	0.752820
C639	C	-0.230821	-0.519679	0.281341
C640	C	0.269179	-0.019679	0.781341
H641	H	-0.235592	-0.525136	0.230906
H642	H	0.264408	-0.025136	0.730906
H643	H	-0.226969	-0.572517	0.272160
H644	H	0.273031	-0.072517	0.772160
H645	H	-0.185712	-0.552664	0.236045
H646	H	0.314288	-0.052664	0.736045
H647	H	-0.263917	-0.511516	0.298120
H648	H	0.236083	-0.011516	0.798120
H649	H	-0.222663	-0.491651	0.261999
H650	H	0.277337	0.008349	0.761999
H651	H	-0.091707	-0.521211	0.297556
H652	H	0.408293	-0.021211	0.797556
