data_functionalizedCrystal
_audit_creation_method	'MofGen! by Chris Wilmer'
_symmetry_space_group_name_H-M	'P1'
_symmetry_Int_Tables_number	1
_symmetry_cell_setting	triclinic
loop_
_symmetry_equiv_pos_as_xyz
  x,y,z
_cell_length_a	14.044220
_cell_length_b	15.995350
_cell_length_c	12.503572
_cell_angle_alpha	93.525550
_cell_angle_beta	86.164750
_cell_angle_gamma	88.340626
loop_
_atom_site_label
_atom_site_type_symbol
_atom_site_fract_x
_atom_site_fract_y
_atom_site_fract_z
O1	O	1.263165	0.197434	-0.089196
O2	O	1.763165	0.697434	0.410804
O3	O	0.987198	0.190148	-0.089224
O4	O	1.487198	0.690148	0.410776
O5	O	1.132725	0.072467	-0.089208
O6	O	1.632725	0.572467	0.410792
O7	O	1.117638	0.315115	-0.089212
O8	O	1.617638	0.815115	0.410788
O9	O	1.121781	0.081333	0.089432
O10	O	1.621781	0.581333	0.589432
O11	O	0.976253	0.199014	0.089417
O12	O	1.476253	0.699014	0.589417
O13	O	1.252221	0.206300	0.089445
O14	O	1.752221	0.706300	0.589445
Cu15	Cu	1.113237	0.203467	0.105742
Cu16	Cu	1.613237	0.703467	0.605742
Cu17	Cu	1.126181	0.192981	-0.105521
Cu18	Cu	1.626181	0.692981	0.394479
O19	O	1.106693	0.323981	0.089429
O20	O	1.606693	0.823981	0.589429
C21	C	0.946411	0.191392	0.000093
C22	C	1.446411	0.691392	0.500093
C23	C	0.841186	0.181881	0.000082
C24	C	1.341186	0.681881	0.500082
C25	C	0.648523	0.164494	0.000104
C26	C	1.148523	0.664494	0.500104
C27	C	0.590890	0.231950	0.000107
C28	C	1.090890	0.731950	0.500107
C29	C	0.483686	0.222276	0.000119
C30	C	0.983686	0.722276	0.500119
C31	C	0.755737	0.174167	0.000092
C32	C	1.255737	0.674167	0.500092
C33	C	1.126629	0.045658	0.000110
C34	C	1.626629	0.545658	0.500110
C35	C	1.124760	-0.047432	0.000104
C36	C	1.624760	0.452568	0.500104
C37	C	1.118044	-0.385681	0.000107
C38	C	1.618044	0.114319	0.500107
C39	C	1.014426	-0.346008	-0.000304
C40	C	1.514426	0.153992	0.499696
C41	C	1.016272	-0.249158	0.000099
C42	C	1.516272	0.250842	0.500099
C43	C	1.121375	-0.217872	0.000105
C44	C	1.621375	0.282128	0.500105
C45	C	1.166245	-0.250068	0.102120
C46	C	1.666245	0.249932	0.602120
C47	C	1.163636	-0.346894	0.102206
C48	C	1.663636	0.153106	0.602206
C49	C	1.178223	-0.357175	-0.100942
C50	C	1.678223	0.142825	0.399058
C51	C	1.178281	-0.260298	-0.102290
C52	C	1.678281	0.239702	0.397710
C53	C	1.123263	-0.123033	0.000107
C54	C	1.623263	0.376967	0.500107
C55	C	1.116158	-0.480519	0.000111
C56	C	1.616158	0.019481	0.500111
C57	C	1.293007	0.205055	0.000125
C58	C	1.793007	0.705055	0.500125
C59	C	1.398233	0.214567	0.000129
C60	C	1.898233	0.714567	0.500129
C61	C	1.112789	0.350789	0.000108
C62	C	1.612789	0.850789	0.500108
C63	C	1.114659	0.443879	0.000108
C64	C	1.614659	0.943879	0.500108
N65	N	1.104141	0.210842	0.254333
N66	N	1.604141	0.710842	0.754333
N67	N	1.135285	0.185600	-0.254113
N68	N	1.635285	0.685600	0.245887
C69	C	1.090759	0.221698	0.473447
C70	C	1.590759	0.721698	0.973447
C71	C	1.148663	0.174747	0.526780
C72	C	1.648663	0.674747	1.026780
C73	C	1.141218	0.180787	0.648703
C74	C	1.641218	0.680787	1.148703
C75	C	1.098204	0.215658	0.351514
C76	C	1.598204	0.715658	0.851514
H77	H	0.977483	-0.371265	-0.073462
H78	H	1.477483	0.128735	0.426538
N79	N	1.017698	0.280958	0.534239
N80	N	1.517698	0.780958	1.034239
H81	H	0.951565	0.265414	0.514745
H82	H	1.451565	0.765414	1.014745
H83	H	1.022756	0.276906	0.613961
H84	H	1.522756	0.776906	1.113961
H85	H	0.617354	0.099482	0.000111
H86	H	1.117354	0.599482	0.500111
H87	H	0.980568	-0.227367	-0.073031
H88	H	1.480568	0.272633	0.426969
N89	N	0.632169	0.318075	0.000099
N90	N	1.132169	0.818075	0.500099
H91	H	0.704013	0.312870	0.000089
H92	H	1.204013	0.812870	0.500089
H93	H	0.614054	0.346190	-0.066128
H94	H	1.114054	0.846190	0.433872
N95	N	0.956758	-0.211424	0.097127
N96	N	1.456758	0.288576	0.597127
H97	H	0.903075	-0.175303	0.072979
H98	H	1.403075	0.324697	0.572979
H99	H	0.929288	-0.257760	0.139765
H100	H	1.429288	0.242240	0.639765
N101	N	0.953885	-0.371248	0.096050
N102	N	1.453885	0.128752	0.596050
H103	H	0.950311	-0.434306	0.093539
H104	H	1.450311	0.065694	0.593539
H105	H	0.983382	-0.350796	0.163943
H106	H	1.483382	0.149204	0.663943
H107	H	1.121688	-0.364195	0.178460
H108	H	1.621688	0.135805	0.678460
H109	H	1.239445	-0.373229	0.106839
H110	H	1.739445	0.126771	0.606839
H111	H	1.243229	-0.229986	0.105919
H112	H	1.743229	0.270014	0.605919
N113	N	1.113058	-0.210986	0.202671
N114	N	1.613058	0.289014	0.702671
H115	H	1.043875	-0.226679	0.203679
H116	H	1.543875	0.273321	0.703679
H117	H	1.142531	-0.232101	0.267829
H118	H	1.642531	0.267899	0.767829
N119	N	1.139622	-0.392816	-0.203368
N120	N	1.639622	0.107184	0.296632
H121	H	1.082727	-0.427809	-0.185300
H122	H	1.582727	0.072191	0.314700
H123	H	1.119501	-0.345463	-0.247636
H124	H	1.619501	0.154537	0.252364
H125	H	1.145529	-0.239586	-0.177759
H126	H	1.645529	0.260414	0.322241
N127	N	1.280311	-0.232782	-0.110451
N128	N	1.780311	0.267218	0.389549
H129	H	1.281164	-0.169981	-0.115001
H130	H	1.781164	0.330019	0.384999
H131	H	1.313015	-0.248955	-0.044863
H132	H	1.813015	0.251045	0.455137
N133	N	1.279500	-0.391725	-0.101852
N134	N	1.779500	0.108275	0.398148
H135	H	1.286410	-0.425679	-0.037164
H136	H	1.786410	0.074321	0.462836
H137	H	1.294970	-0.428683	-0.169571
H138	H	1.794970	0.071317	0.330429
N139	N	1.221739	0.115493	0.465983
N140	N	1.721739	0.615493	0.965983
H141	H	1.216771	0.119522	0.386241
H142	H	1.716771	0.619522	0.886241
H143	H	1.287829	0.131082	0.485573
H144	H	1.787829	0.631082	0.985573
