data_functionalizedCrystal
_audit_creation_method	'MofGen! by Chris Wilmer'
_symmetry_space_group_name_H-M	'P1'
_symmetry_Int_Tables_number	1
_symmetry_cell_setting	triclinic
loop_
_symmetry_equiv_pos_as_xyz
  x,y,z
_cell_length_a	18.215405
_cell_length_b	18.215407
_cell_length_c	18.215399
_cell_angle_alpha	90.014769
_cell_angle_beta	89.967040
_cell_angle_gamma	89.979495
loop_
_atom_site_label
_atom_site_type_symbol
_atom_site_fract_x
_atom_site_fract_y
_atom_site_fract_z
Zn1	Zn	-0.293060	-1.125050	-0.416062
Zn2	Zn	0.206940	-0.625050	0.083938
Zn3	Zn	-0.416137	-1.124965	-0.292990
Zn4	Zn	0.083863	-0.624965	0.207010
Zn5	Zn	-0.293079	-1.001989	-0.293014
Zn6	Zn	0.206921	-0.501989	0.206986
Zn7	Zn	-0.416080	-1.001949	-0.416020
Zn8	Zn	0.083920	-0.501949	0.083980
O9	O	-0.354589	-1.063488	-0.354521
O10	O	0.145411	-0.563488	0.145479
O11	O	-0.309402	-1.228023	-0.399744
O12	O	0.190598	-0.728023	0.100256
O13	O	-0.399844	-1.108633	-0.190009
O14	O	0.100156	-0.608633	0.309991
O15	O	-0.190092	-1.018366	-0.309364
O16	O	0.309908	-0.518366	0.190636
O17	O	-0.399826	-1.227960	-0.309324
O18	O	0.100174	-0.727960	0.190676
O19	O	-0.190079	-1.108778	-0.399767
O20	O	0.309921	-0.608778	0.100233
O21	O	-0.309435	-1.018283	-0.190026
O22	O	0.190565	-0.518283	0.309974
O23	O	-0.309380	-0.898999	-0.309323
O24	O	0.190620	-0.398999	0.190677
O25	O	-0.399730	-1.018297	-0.519010
O26	O	0.100270	-0.518297	-0.019010
O27	O	-0.399748	-0.898970	-0.399695
O28	O	0.100252	-0.398970	0.100305
O29	O	-0.309348	-1.108739	-0.519041
O30	O	0.190652	-0.608739	-0.019041
O31	O	-0.519114	-1.108594	-0.309283
O32	O	-0.019114	-0.608594	0.190717
O33	O	-0.519072	-1.018214	-0.399672
O34	O	-0.019072	-0.518214	0.100328
C35	C	-0.354560	-0.872282	-0.354507
C36	C	0.145440	-0.372282	0.145493
C37	C	-0.354566	-0.790483	-0.354519
C38	C	0.145434	-0.290483	0.145481
C39	C	-0.307573	-0.602321	-0.401674
C40	C	0.192427	-0.102321	0.098326
C41	C	-0.307577	-0.525462	-0.401675
C42	C	0.192423	-0.025462	0.098325
C43	C	-0.401594	-0.525408	-0.307375
C44	C	0.098406	-0.025408	0.192625
C45	C	-0.401586	-0.602265	-0.307370
C46	C	0.098414	-0.102265	0.192630
C47	C	-0.354577	-0.640720	-0.354523
C48	C	0.145423	-0.140720	0.145477
C49	C	-0.354589	-0.487003	-0.354530
C50	C	0.145411	0.012997	0.145470
C51	C	-0.354593	-0.403670	-0.354532
C52	C	0.145407	0.096330	0.145468
C53	C	-0.354571	-0.724058	-0.354521
C54	C	0.145429	-0.224058	0.145479
C55	C	-0.545795	-1.063410	-0.354486
C56	C	-0.045795	-0.563410	0.145514
C57	C	-0.627594	-1.063445	-0.354496
C58	C	-0.127594	-0.563445	0.145504
C59	C	-0.815785	-1.110616	-0.307517
C60	C	-0.315785	-0.610616	0.192483
C61	C	-0.892644	-1.110649	-0.307534
C62	C	-0.392644	-0.610649	0.192466
C63	C	-0.892641	-1.016455	-0.401579
C64	C	-0.392641	-0.516455	0.098421
C65	C	-0.815784	-1.016426	-0.401565
C66	C	-0.315784	-0.516426	0.098435
C67	C	-0.777358	-1.063505	-0.354529
C68	C	-0.277358	-0.563505	0.145471
C69	C	-0.931074	-1.063567	-0.354562
C70	C	-0.431074	-0.563567	0.145438
C71	C	-1.014407	-1.063602	-0.354581
C72	C	-0.514407	-0.563602	0.145419
C73	C	-0.694019	-1.063471	-0.354510
C74	C	-0.194019	-0.563471	0.145490
C75	C	-0.162636	-1.063586	-0.354573
C76	C	0.337364	-0.563586	0.145427
C77	C	-0.080837	-1.063628	-0.354595
C78	C	0.419163	-0.563628	0.145405
C79	C	-0.354530	-1.063523	-0.546474
C80	C	0.145470	-0.563523	-0.046474
C81	C	-0.354505	-1.063538	-0.628273
C82	C	0.145495	-0.563538	-0.128273
C83	C	-0.354611	-0.255441	-0.354534
C84	C	0.145389	0.244559	0.145466
C85	C	-0.354599	-0.337240	-0.354535
C86	C	0.145401	0.162760	0.145465
C87	C	-0.307397	-1.016532	-0.816477
C88	C	0.192603	-0.516532	-0.316477
C89	C	-0.307382	-1.016545	-0.893336
C90	C	0.192618	-0.516545	-0.393336
C91	C	-0.401526	-1.110631	-0.893307
C92	C	0.098474	-0.610631	-0.393307
C93	C	-0.401544	-1.110614	-0.816450
C94	C	0.098456	-0.610614	-0.316450
C95	C	-0.354475	-1.063566	-0.778037
C96	C	0.145525	-0.563566	-0.278037
C97	C	-0.354442	-1.063596	-0.931753
C98	C	0.145558	-0.563596	-0.431753
C99	C	-0.354427	-1.063610	-1.015087
C100	C	0.145573	-0.563610	-0.515087
C101	C	-0.354492	-1.063550	-0.694698
C102	C	0.145508	-0.563550	-0.194698
C103	C	-0.354595	-1.063496	-0.163315
C104	C	0.145405	-0.563496	0.336685
C105	C	-0.354412	-1.063624	-0.081517
C106	C	0.145588	-0.563624	0.418483
H107	H	-0.269301	-0.494201	-0.440069
H108	H	0.230699	0.005799	0.059931
H109	H	-0.439868	-0.494089	-0.268985
H110	H	0.060132	0.005911	0.231015
C111	C	-0.453296	-0.644506	-0.255499
C112	C	0.046704	-0.144506	0.244501
N113	N	-0.492241	-0.676322	-0.216429
N114	N	0.007759	-0.176322	0.283571
C115	C	-0.773511	-0.964614	-0.453300
C116	C	-0.273511	-0.464614	0.046700
N117	N	-0.741671	-0.925597	-0.492272
N118	N	-0.241671	-0.425597	0.007728
C119	C	-0.255855	-0.644618	-0.453537
C120	C	0.244145	-0.144618	0.046463
N121	N	-0.216897	-0.676474	-0.492600
N122	N	0.283103	-0.176474	0.007400
C123	C	-0.453323	-1.162371	-0.774163
C124	C	0.046677	-0.662371	-0.274163
N125	N	-0.492317	-1.201356	-0.742313
N126	N	0.007683	-0.701356	-0.242313
H127	H	-0.784501	-1.148952	-0.269218
H128	H	-0.284501	-0.648952	0.230782
C129	C	-0.934911	-1.162471	-0.255814
C130	C	-0.434911	-0.662471	0.244186
N131	N	-0.966746	-1.201505	-0.216855
N132	N	-0.466746	-0.701505	0.283145
C133	C	-0.934916	-0.964662	-0.453307
C134	C	-0.434916	-0.464662	0.046693
N135	N	-0.966758	-0.925647	-0.492267
N136	N	-0.466758	-0.425647	0.007733
H137	H	-0.269071	-0.978222	-0.785204
H138	H	0.230929	-0.478222	-0.285204
H139	H	-0.269047	-0.978245	-0.924631
H140	H	0.230953	-0.478245	-0.424631
H141	H	-0.439847	-1.148937	-0.924593
H142	H	0.060153	-0.648937	-0.424593
