data_functionalizedCrystal
_audit_creation_method	'MofGen! by Chris Wilmer'
_symmetry_space_group_name_H-M	'P1'
_symmetry_Int_Tables_number	1
_symmetry_cell_setting	triclinic
loop_
_symmetry_equiv_pos_as_xyz
  x,y,z
_cell_length_a	16.120490
_cell_length_b	18.050590
_cell_length_c	18.050582
_cell_angle_alpha	89.976663
_cell_angle_beta	87.089789
_cell_angle_gamma	87.110849
loop_
_atom_site_label
_atom_site_type_symbol
_atom_site_fract_x
_atom_site_fract_y
_atom_site_fract_z
Zn1	Zn	1.274541	-0.353423	-0.477380
Zn2	Zn	1.274464	-0.477603	-0.353185
Zn3	Zn	1.135135	-0.347122	-0.346918
Zn4	Zn	1.135100	-0.471262	-0.471049
O5	O	1.204810	-0.412353	-0.412133
O6	O	1.391197	-0.375187	-0.466177
O7	O	1.255964	-0.460311	-0.248428
O8	O	1.153674	-0.244036	-0.364251
O9	O	1.391141	-0.466422	-0.374932
O10	O	1.256095	-0.248665	-0.460101
O11	O	1.153600	-0.364448	-0.243824
O12	O	1.018464	-0.358298	-0.358112
O13	O	1.153615	-0.455613	-0.575814
O14	O	1.018439	-0.449503	-0.449311
O15	O	1.256061	-0.369038	-0.580465
O16	O	1.255931	-0.580684	-0.368793
O17	O	1.153540	-0.576025	-0.455387
C18	C	0.988201	-0.402529	-0.402345
C19	C	0.895535	-0.398345	-0.398175
C20	C	0.684594	-0.434053	-0.433763
C21	C	0.725878	-0.390712	-0.390561
C22	C	0.820284	-0.394960	-0.394799
C23	C	0.590179	-0.429805	-0.429527
C24	C	1.204746	-0.605302	-0.412100
C25	C	1.204795	-0.687850	-0.412115
C26	C	1.260591	-0.889812	-0.365099
C27	C	1.280950	-0.940073	-0.433797
C28	C	1.204842	-0.838982	-0.412147
C29	C	1.184568	-0.935807	-0.343483
C30	C	1.204890	-0.984969	-0.412171
C31	C	1.225240	-0.888157	-0.480882
C32	C	1.128823	-0.883886	-0.390520
C33	C	1.149154	-0.934123	-0.459264
C34	C	1.204817	-0.754883	-0.412131
C35	C	1.204915	-1.069067	-0.412194
C36	C	1.422265	-0.422215	-0.421960
C37	C	1.514931	-0.426417	-0.426147
C38	C	1.204843	-0.412321	-0.605840
C39	C	1.204857	-0.412308	-0.688386
C40	C	1.204897	-0.218651	-0.412183
C41	C	1.204934	-0.136107	-0.412204
C42	C	1.149189	-0.459321	-0.885310
C43	C	1.225255	-0.480920	-0.938131
C44	C	1.204898	-0.412253	-0.839519
C45	C	1.128874	-0.390636	-0.933781
C46	C	1.204931	-0.412201	-0.985505
C47	C	1.281004	-0.433888	-0.891254
C48	C	1.184571	-0.343571	-0.886898
C49	C	1.260690	-0.365146	-0.939699
C50	C	1.204878	-0.412285	-0.755420
C51	C	1.204960	-0.412170	-1.069603
C52	C	1.204826	-0.412333	-0.219181
C53	C	1.204973	-0.412144	-0.136643
H54	H	0.720148	-0.474346	-0.473929
H55	H	1.307751	-0.870276	-0.325357
Cl56	Cl	1.251874	-0.855947	-0.570580
Cl57	Cl	0.670985	-0.328501	-0.328538
Cl58	Cl	1.157963	-0.253952	-0.852169
H59	H	1.345257	-0.964642	-0.452104
Cl60	Cl	1.076397	-0.964081	-0.520779
Cl61	Cl	1.029562	-0.845932	-0.362229
H62	H	1.167401	-0.956769	-0.285404
H63	H	1.102122	-0.499183	-0.861514
H64	H	1.242467	-0.538981	-0.960605
H65	H	1.307869	-0.325322	-0.963364
Cl66	Cl	1.380315	-0.462193	-0.862384
H67	H	1.064567	-0.372375	-0.952576
