data_functionalizedCrystal
_audit_creation_method	'MofGen! by Chris Wilmer'
_symmetry_space_group_name_H-M	'P1'
_symmetry_Int_Tables_number	1
_symmetry_cell_setting	triclinic
loop_
_symmetry_equiv_pos_as_xyz
  x,y,z
_cell_length_a	29.839134
_cell_length_b	29.839131
_cell_length_c	18.101389
_cell_angle_alpha	90.028941
_cell_angle_beta	90.028730
_cell_angle_gamma	90.030088
loop_
_atom_site_label
_atom_site_type_symbol
_atom_site_fract_x
_atom_site_fract_y
_atom_site_fract_z
Zn1	Zn	0.686769	-0.178962	0.418872
Zn2	Zn	1.020102	0.154371	0.752205
Zn3	Zn	1.353436	0.487705	1.085538
Zn4	Zn	0.686700	-0.254079	0.295007
Zn5	Zn	1.020034	0.079255	0.628341
Zn6	Zn	1.353367	0.412588	0.961674
Zn7	Zn	0.611643	-0.178957	0.295023
Zn8	Zn	0.944976	0.154377	0.628356
Zn9	Zn	1.278309	0.487710	0.961690
Zn10	Zn	0.611608	-0.254059	0.418786
Zn11	Zn	0.944941	0.079274	0.752120
Zn12	Zn	1.278274	0.412608	1.085453
O13	O	0.649180	-0.216514	0.356922
O14	O	0.982513	0.116819	0.690255
O15	O	1.315847	0.450153	1.023589
O16	O	0.749627	-0.188937	0.402470
O17	O	1.082960	0.144396	0.735803
O18	O	1.416294	0.477730	1.069136
O19	O	0.676730	-0.244120	0.191376
O20	O	1.010063	0.089214	0.524710
O21	O	1.343396	0.422547	0.858043
O22	O	0.621652	-0.116090	0.311494
O23	O	0.954985	0.217243	0.644828
O24	O	1.288319	0.550576	0.978161
O25	O	0.749576	-0.244125	0.311467
O26	O	1.082910	0.089209	0.644800
O27	O	1.416243	0.422542	0.978134
O28	O	0.676847	-0.116094	0.402485
O29	O	1.010180	0.217239	0.735818
O30	O	1.343513	0.550572	1.069152
O31	O	0.621585	-0.188928	0.191388
O32	O	0.954919	0.144405	0.524721
O33	O	1.288252	0.477739	0.858055
O34	O	0.548771	-0.188909	0.311412
O35	O	0.882104	0.144425	0.644745
O36	O	1.215438	0.477758	0.978078
O37	O	0.621592	-0.244091	0.522431
O38	O	0.954925	0.089242	0.855764
O39	O	1.288258	0.422576	1.189097
O40	O	0.548745	-0.244086	0.402340
O41	O	0.882078	0.089247	0.735673
O42	O	1.215412	0.422581	1.069007
O43	O	0.676812	-0.188918	0.522493
O44	O	1.010146	0.144416	0.855826
O45	O	1.343479	0.477749	1.189160
O46	O	0.676696	-0.316943	0.311384
O47	O	1.010029	0.016390	0.644718
O48	O	1.343362	0.349723	0.978051
O49	O	0.621525	-0.316929	0.402324
O50	O	0.954859	0.016405	0.735658
O51	O	1.288192	0.349738	1.068991
C52	C	0.532457	-0.216495	0.356869
C53	C	0.865791	0.116838	0.690202
C54	C	1.199124	0.450172	1.023535
C55	C	0.482523	-0.216498	0.356863
C56	C	0.815856	0.116836	0.690197
C57	C	1.149190	0.450169	1.023530
C58	C	0.649111	-0.333237	0.356860
C59	C	0.982445	0.000097	0.690193
C60	C	1.315778	0.333430	1.023526
C61	C	0.649123	-0.383171	0.356858
C62	C	0.982456	-0.049838	0.690191
C63	C	1.315790	0.283496	1.023524
C64	C	0.172875	-0.245287	0.404210
C65	C	0.506209	0.088046	0.737544
C66	C	0.839542	0.421379	1.070877
C67	C	-0.014798	-0.245300	0.404243
C68	C	0.318536	0.088033	0.737577
C69	C	0.651869	0.421367	1.070910
O70	O	-0.039066	-0.269757	0.444468
O71	O	0.294267	0.063576	0.777801
O72	O	0.627601	0.396910	1.111134
N73	N	-0.038262	-0.216531	0.356978
N74	N	0.295071	0.116803	0.690311
N75	N	0.628404	0.450136	1.023644
C76	C	-0.014806	-0.187754	0.309704
C77	C	0.318528	0.145579	0.643038
C78	C	0.651861	0.478913	0.976371
O79	O	-0.039070	-0.163281	0.269508
O80	O	0.294263	0.170053	0.602841
O81	O	0.627597	0.503386	0.936175
C82	C	0.172867	-0.187739	0.309676
C83	C	0.506200	0.145594	0.643009
C84	C	0.839533	0.478927	0.976342
C85	C	0.196329	-0.216514	0.356939
C86	C	0.529662	0.116820	0.690272
C87	C	0.862995	0.450153	1.023605
C88	C	0.196338	-0.274059	0.451470
C89	C	0.529671	0.059274	0.784804
C90	C	0.863004	0.392607	1.118137
C91	C	0.243253	-0.274058	0.451459
C92	C	0.576586	0.059276	0.784792
C93	C	0.909920	0.392609	1.118125
C94	C	0.266706	-0.245284	0.404187
C95	C	0.600040	0.088049	0.737521
C96	C	0.933373	0.421383	1.070854
C97	C	0.243244	-0.216512	0.356927
C98	C	0.576577	0.116821	0.690261
C99	C	0.909911	0.450155	1.023594
C100	C	0.196322	-0.158961	0.262406
C101	C	0.529656	0.174373	0.595740
C102	C	0.862989	0.507706	0.929073
C103	C	0.243243	-0.158959	0.262405
C104	C	0.576577	0.174375	0.595738
C105	C	0.909910	0.507708	0.929071
C106	C	0.266705	-0.187733	0.309668
C107	C	0.600039	0.145600	0.643001
C108	C	0.933372	0.478933	0.976335
C109	C	0.313613	-0.187737	0.309644
C110	C	0.646946	0.145597	0.642977
C111	C	0.980280	0.478930	0.976311
N112	N	0.337077	-0.216506	0.356910
N113	N	0.670411	0.116827	0.690243
N114	N	1.003744	0.450160	1.023576
C115	C	0.313624	-0.245280	0.404181
C116	C	0.646958	0.088054	0.737514
C117	C	0.980291	0.421387	1.070848
C118	C	-0.113336	-0.187764	0.309722
C119	C	0.219997	0.145569	0.643055
C120	C	0.553330	0.478902	0.976388
C121	C	-0.160254	-0.187768	0.309728
C122	C	0.173079	0.145565	0.643061
C123	C	0.506413	0.478898	0.976394
C124	C	-0.160243	-0.245314	0.404268
C125	C	0.173091	0.088019	0.737601
C126	C	0.506424	0.421353	1.070935
C127	C	-0.113324	-0.245312	0.404257
C128	C	0.220009	0.088021	0.737591
C129	C	0.553343	0.421355	1.070924
C130	C	-0.089872	-0.216534	0.356987
C131	C	0.243462	0.116800	0.690320
C132	C	0.576795	0.450133	1.023654
C133	C	0.412150	-0.245274	0.404153
C134	C	0.745483	0.088059	0.737486
C135	C	1.078817	0.421392	1.070819
C136	C	0.459070	-0.245271	0.404135
C137	C	0.792403	0.088062	0.737468
C138	C	1.125736	0.421395	1.070802
C139	C	0.459054	-0.187724	0.309598
C140	C	0.792388	0.145609	0.642931
C141	C	1.125721	0.478943	0.976264
C142	C	0.412139	-0.187729	0.309613
C143	C	0.745472	0.145605	0.642946
C144	C	1.078805	0.478938	0.976279
C145	C	0.388688	-0.216505	0.356896
C146	C	0.722021	0.116828	0.690229
C147	C	1.055354	0.450162	1.023563
O148	O	0.337910	-0.163289	0.269447
O149	O	0.671243	0.170044	0.602780
O150	O	1.004577	0.503377	0.936113
O151	O	0.337897	-0.269742	0.444383
O152	O	0.671230	0.063591	0.777716
O153	O	1.004563	0.396924	1.111049
C154	C	0.125960	-0.245289	0.404222
C155	C	0.459293	0.088044	0.737555
C156	C	0.792627	0.421378	1.070889
C157	C	0.102498	-0.216517	0.356962
C158	C	0.435831	0.116816	0.690295
C159	C	0.769164	0.450149	1.023629
C160	C	0.125951	-0.187744	0.309690
C161	C	0.459284	0.145590	0.643024
C162	C	0.792618	0.478923	0.976357
C163	C	0.055580	-0.216521	0.356968
C164	C	0.388913	0.116812	0.690301
C165	C	0.722247	0.450145	1.023635
C166	C	0.032127	-0.245295	0.404240
C167	C	0.365460	0.088038	0.737573
C168	C	0.698793	0.421372	1.070906
C169	C	0.055591	-0.274064	0.451505
C170	C	0.388925	0.059269	0.784838
C171	C	0.722258	0.392602	1.118172
C172	C	0.102507	-0.274063	0.451493
C173	C	0.435840	0.059271	0.784827
C174	C	0.769173	0.392604	1.118160
C175	C	0.102486	-0.158974	0.262425
C176	C	0.435820	0.174359	0.595758
C177	C	0.769153	0.507692	0.929092
C178	C	0.055571	-0.158979	0.262440
C179	C	0.388904	0.174355	0.595773
C180	C	0.722238	0.507688	0.929106
C181	C	0.032118	-0.187752	0.309711
C182	C	0.365451	0.145581	0.643045
C183	C	0.698784	0.478914	0.976378
C184	C	0.677914	-0.692782	0.404368
C185	C	1.011247	-0.359448	0.737702
C186	C	1.344580	-0.026115	1.071035
C187	C	0.677962	-0.880455	0.404413
C188	C	1.011296	-0.547121	0.737746
C189	C	1.344629	-0.213788	1.071080
O190	O	0.702374	-0.904691	0.444762
O191	O	1.035707	-0.571358	0.778095
O192	O	1.369040	-0.238025	1.111429
N193	N	0.649256	-0.903956	0.357004
N194	N	0.982590	-0.570623	0.690338
N195	N	1.315923	-0.237290	1.023671
C196	C	0.620534	-0.880537	0.309584
C197	C	0.953867	-0.547203	0.642918
C198	C	1.287200	-0.213870	0.976251
O199	O	0.596115	-0.904832	0.269267
O200	O	0.929449	-0.571499	0.602600
O201	O	1.262782	-0.238166	0.935933
C202	C	0.620483	-0.692864	0.309544
C203	C	0.953816	-0.359531	0.642878
C204	C	1.287150	-0.026198	0.976211
C205	C	0.649194	-0.669365	0.356951
C206	C	0.982528	-0.336032	0.690284
C207	C	1.315861	-0.002699	1.023617
C208	C	0.706622	-0.669282	0.451772
C209	C	1.039955	-0.335949	0.785105
C210	C	1.373289	-0.002616	1.118438
C211	C	0.706611	-0.622367	0.451757
C212	C	1.039945	-0.289034	0.785091
C213	C	1.373278	0.044300	1.118424
C214	C	0.677892	-0.598951	0.404340
C215	C	1.011225	-0.265617	0.737673
C216	C	1.344559	0.067716	1.071006
C217	C	0.649184	-0.622450	0.356936
C218	C	0.982517	-0.289117	0.690270
C219	C	1.315850	0.044217	1.023603
C220	C	0.591759	-0.669446	0.262129
C221	C	0.925092	-0.336112	0.595462
C222	C	1.258425	-0.002779	0.928795
C223	C	0.591748	-0.622525	0.262124
C224	C	0.925081	-0.289191	0.595457
C225	C	1.258414	0.044142	0.928791
C226	C	0.620459	-0.599026	0.309531
C227	C	0.953792	-0.265692	0.642864
C228	C	1.287126	0.067641	0.976197
C229	C	0.620453	-0.552118	0.309504
C230	C	0.953787	-0.218785	0.642837
C231	C	1.287120	0.114549	0.976171
N232	N	0.649160	-0.528617	0.356913
N233	N	0.982493	-0.195283	0.690246
N234	N	1.315826	0.138050	1.023580
C235	C	0.677879	-0.552033	0.404331
C236	C	1.011212	-0.218700	0.737664
C237	C	1.344546	0.114634	1.070997
C238	C	0.620563	-0.979067	0.309608
C239	C	0.953896	-0.645734	0.642941
C240	C	1.287230	-0.312401	0.976275
C241	C	0.620576	-1.025985	0.309617
C242	C	0.953909	-0.692652	0.642950
C243	C	1.287243	-0.359318	0.976284
C244	C	0.678004	-1.025900	0.404447
C245	C	1.011338	-0.692566	0.737780
C246	C	1.344671	-0.359233	1.071113
C247	C	0.677993	-0.978981	0.404433
C248	C	1.011326	-0.645648	0.737767
C249	C	1.344660	-0.312314	1.071100
C250	C	0.649269	-0.955566	0.357017
C251	C	0.982602	-0.622232	0.690350
C252	C	1.315936	-0.288899	1.023683
C253	C	0.677854	-0.453507	0.404296
C254	C	1.011188	-0.120174	0.737630
C255	C	1.344521	0.213160	1.070963
C256	C	0.677842	-0.406587	0.404275
C257	C	1.011176	-0.073254	0.737609
C258	C	1.344509	0.260079	1.070942
C259	C	0.620413	-0.406677	0.309449
C260	C	0.953746	-0.073343	0.642782
C261	C	1.287080	0.259990	0.976115
C262	C	0.620426	-0.453592	0.309466
C263	C	0.953760	-0.120259	0.642800
C264	C	1.287093	0.213074	0.976133
C265	C	0.649149	-0.477006	0.356896
C266	C	0.982482	-0.143673	0.690230
C267	C	1.315815	0.189660	1.023563
O268	O	0.596051	-0.527852	0.269182
O269	O	0.929385	-0.194519	0.602515
O270	O	1.262718	0.138814	0.935849
O271	O	0.702287	-0.527729	0.444654
O272	O	1.035620	-0.194396	0.777987
O273	O	1.368953	0.138938	1.111320
C274	C	0.677924	-0.739697	0.404383
C275	C	1.011258	-0.406364	0.737716
C276	C	1.344591	-0.073030	1.071050
C277	C	0.649216	-0.763196	0.356980
C278	C	0.982549	-0.429863	0.690313
C279	C	1.315882	-0.096530	1.023646
C280	C	0.620496	-0.739780	0.309562
C281	C	0.953830	-0.406447	0.642895
C282	C	1.287163	-0.073113	0.976229
C283	C	0.649229	-0.810114	0.356989
C284	C	0.982562	-0.476781	0.690322
C285	C	1.315896	-0.143447	1.023655
C286	C	0.677948	-0.833530	0.404406
C287	C	1.011282	-0.500197	0.737740
C288	C	1.344615	-0.166864	1.071073
C289	C	0.706654	-0.810029	0.451815
C290	C	1.039988	-0.476695	0.785148
C291	C	1.373321	-0.143362	1.118482
C292	C	0.706644	-0.763113	0.451801
C293	C	1.039977	-0.429780	0.785134
C294	C	1.373310	-0.096447	1.118467
C295	C	0.591790	-0.763281	0.262153
C296	C	0.925124	-0.429948	0.595487
C297	C	1.258457	-0.096615	0.928820
C298	C	0.591804	-0.810197	0.262171
C299	C	0.925137	-0.476864	0.595504
C300	C	1.258470	-0.143530	0.928838
C301	C	0.620523	-0.833613	0.309589
C302	C	0.953856	-0.500280	0.642922
C303	C	1.287190	-0.166947	0.976255
C304	C	0.766358	-0.216534	0.356976
C305	C	1.099692	0.116800	0.690309
C306	C	1.433025	0.450133	1.023643
C307	C	0.816293	-0.216542	0.356999
C308	C	1.149626	0.116791	0.690332
C309	C	1.482959	0.450125	1.023666
C310	C	0.649206	-0.216503	0.550084
C311	C	0.982539	0.116831	0.883417
C312	C	1.315872	0.450164	1.216751
C313	C	0.649217	-0.216498	0.632398
C314	C	0.982550	0.116835	0.965732
C315	C	1.315884	0.450169	1.299065
C316	C	0.649261	-0.099336	0.357001
C317	C	0.982594	0.233998	0.690334
C318	C	1.315928	0.567331	1.023668
C319	C	0.649295	-0.049401	0.357035
C320	C	0.982629	0.283932	0.690368
C321	C	1.315962	0.617265	1.023701
C322	C	0.649180	-0.216493	0.164512
C323	C	0.982513	0.116840	0.497845
C324	C	1.315847	0.450174	0.831178
C325	C	0.649256	-0.216371	0.082198
C326	C	0.982589	0.116962	0.415531
C327	C	1.315923	0.450295	0.748865
C328	C	0.649243	-0.216414	0.931489
C329	C	0.982576	0.116920	1.264823
C330	C	1.315910	0.450253	1.598156
C331	C	0.614380	-0.251017	0.900125
C332	C	0.947713	0.082316	1.233458
C333	C	1.281047	0.415650	1.566791
C334	C	0.614474	-0.251177	0.814506
C335	C	0.947808	0.082156	1.147840
C336	C	1.281141	0.415489	1.481173
C337	C	0.649230	-0.216456	0.783107
C338	C	0.982563	0.116878	1.116440
C339	C	1.315896	0.450211	1.449773
C340	C	0.696562	-0.229311	0.814215
C341	C	1.029895	0.104023	1.147548
C342	C	1.363228	0.437356	1.480881
C343	C	0.696367	-0.229538	0.899859
C344	C	1.029701	0.103795	1.233193
C345	C	1.363034	0.437129	1.566526
C346	C	0.637186	-0.168878	0.899926
C347	C	0.970519	0.164455	1.233260
C348	C	1.303852	0.497788	1.566593
C349	C	0.636133	-0.169153	0.814275
C350	C	0.969466	0.164180	1.147609
C351	C	1.302799	0.497514	1.480942
C352	C	0.649225	-0.216478	0.699247
C353	C	0.982558	0.116855	1.032581
C354	C	1.315892	0.450188	1.365914
C355	C	0.649251	-0.216392	1.015349
C356	C	0.982584	0.116941	1.348682
C357	C	1.315918	0.450275	1.682016
H358	H	0.478170	-0.268705	0.442623
H359	H	0.811504	0.064629	0.775956
H360	H	1.144837	0.397962	1.109290
H361	H	-0.179346	-0.268743	0.442758
H362	H	0.153987	0.064591	0.776092
H363	H	0.487320	0.397924	1.109425
H364	H	0.597051	-0.472726	0.270858
H365	H	0.930384	-0.139393	0.604192
H366	H	1.263718	0.193940	0.937525
H367	H	0.262352	-0.297488	0.489947
H368	H	0.595685	0.035846	0.823280
H369	H	0.929019	0.369179	1.156614
H370	H	0.121577	-0.135543	0.223930
H371	H	0.454911	0.197791	0.557263
H372	H	0.788244	0.531124	0.890597
H373	H	0.701389	-1.044973	0.443055
H374	H	1.034722	-0.711640	0.776388
H375	H	1.368056	-0.378307	1.109722
H376	H	0.706960	-0.263690	0.792763
H377	H	1.040294	0.069643	1.126097
H378	H	1.373627	0.402976	1.459430
H379	H	0.729989	-0.603237	0.490362
H380	H	1.063322	-0.269903	0.823695
H381	H	1.396656	0.063430	1.157029
H382	H	0.730009	-0.688343	0.490389
H383	H	1.063342	-0.355010	0.823723
H384	H	1.396675	-0.021676	1.157056
H385	H	0.723235	-0.204899	0.793879
H386	H	1.056568	0.128434	1.127213
H387	H	1.389901	0.461767	1.460546
H388	H	0.177247	-0.297490	0.489969
H389	H	0.510580	0.035843	0.823302
H390	H	0.843914	0.369176	1.156635
H391	H	-0.179353	-0.164342	0.271234
H392	H	0.153980	0.168992	0.604567
H393	H	0.487314	0.502325	0.937900
H394	H	0.723223	-0.205429	0.920610
H395	H	1.056556	0.127905	1.253944
H396	H	1.389890	0.461238	1.587277
H397	H	0.701372	-0.959851	0.443036
H398	H	1.034705	-0.626518	0.776369
H399	H	1.368039	-0.293184	1.109703
H400	H	0.177227	-0.135530	0.223917
H401	H	0.510561	0.197803	0.557251
H402	H	0.843894	0.531136	0.890584
H403	H	0.603272	-0.157167	0.921512
H404	H	0.936605	0.176166	1.254845
H405	H	1.269938	0.509500	1.588178
H406	H	0.659673	-0.142003	0.792902
H407	H	0.993006	0.191331	1.126236
H408	H	1.326339	0.524664	1.459569
H409	H	0.568424	-0.829326	0.223560
H410	H	0.901758	-0.495993	0.556893
H411	H	1.235091	-0.162659	0.890226
H412	H	0.706589	-0.264287	0.919834
H413	H	1.039923	0.069047	1.253167
H414	H	1.373256	0.402380	1.586500
H415	H	0.597201	-1.045114	0.271006
H416	H	0.930535	-0.711781	0.604339
H417	H	1.263868	-0.378447	0.937672
H418	H	0.597172	-0.960005	0.270994
H419	H	0.930505	-0.626672	0.604327
H420	H	1.263839	-0.293339	0.937660
H421	H	0.568379	-0.688571	0.223525
H422	H	0.901712	-0.355237	0.556858
H423	H	1.235046	-0.021904	0.890191
H424	H	0.601301	-0.159459	0.793942
H425	H	0.934634	0.173875	1.127275
H426	H	1.267967	0.507208	1.460609
H427	H	0.568356	-0.603462	0.223513
H428	H	0.901689	-0.270129	0.556846
H429	H	1.235022	0.063205	0.890179
H430	H	0.662578	-0.143097	0.920213
H431	H	0.995912	0.190236	1.253547
H432	H	1.329245	0.523569	1.586880
H433	H	0.568403	-0.744220	0.223541
H434	H	0.901736	-0.410886	0.556874
H435	H	1.235070	-0.077553	0.890207
H436	H	-0.094224	-0.268742	0.442745
H437	H	0.239109	0.064591	0.776078
H438	H	0.572442	0.397925	1.109411
H439	H	0.393062	-0.268706	0.442657
H440	H	0.726395	0.064627	0.775991
H441	H	1.059728	0.397961	1.109324
H442	H	0.121606	-0.297494	0.489980
H443	H	0.454939	0.035840	0.823314
H444	H	0.788272	0.369173	1.156647
H445	H	0.597031	-0.387604	0.270839
H446	H	0.930365	-0.054271	0.604173
H447	H	1.263698	0.279063	0.937506
H448	H	0.730023	-0.743984	0.490404
H449	H	1.063356	-0.410650	0.823737
H450	H	1.396689	-0.077317	1.157070
H451	H	0.262336	-0.135521	0.223915
H452	H	0.595669	0.197813	0.557248
H453	H	0.929002	0.531146	0.890581
H454	H	-0.094246	-0.164329	0.271225
H455	H	0.239088	0.169004	0.604558
H456	H	0.572421	0.502338	0.937891
H457	H	0.730040	-0.829103	0.490422
H458	H	1.063374	-0.495769	0.823755
H459	H	1.396707	-0.162436	1.157088
H460	H	0.701224	-0.387456	0.442879
H461	H	1.034557	-0.054123	0.776213
H462	H	1.367891	0.279211	1.109546
H463	H	0.579376	-0.243133	0.793472
H464	H	0.912709	0.090201	1.126805
H465	H	1.246042	0.423534	1.460138
H466	H	0.579176	-0.243054	0.920709
H467	H	0.912509	0.090279	1.254042
H468	H	1.245843	0.423612	1.587375
H469	H	0.478158	-0.164299	0.271108
H470	H	0.811492	0.169035	0.604441
H471	H	1.144825	0.502368	0.937775
H472	H	0.393035	-0.164299	0.271126
H473	H	0.726368	0.169034	0.604459
H474	H	1.059702	0.502368	0.937792
H475	H	0.036487	-0.297494	0.489993
H476	H	0.369821	0.035839	0.823326
H477	H	0.703154	0.369172	1.156660
H478	H	0.036472	-0.135548	0.223946
H479	H	0.369805	0.197786	0.557279
H480	H	0.703139	0.531119	0.890612
H481	H	0.701240	-0.472565	0.442923
H482	H	1.034573	-0.139232	0.776256
H483	H	1.367906	0.194101	1.109590
H484	H	0.622261	-0.286037	0.921641
H485	H	0.955594	0.047297	1.254974
H486	H	1.288928	0.380630	1.588307
H487	H	0.622434	-0.286412	0.794014
H488	H	0.955768	0.046921	1.127348
H489	H	1.289101	0.380255	1.460681
