data_functionalizedCrystal
_audit_creation_method	'MofGen! by Chris Wilmer'
_symmetry_space_group_name_H-M	'P1'
_symmetry_Int_Tables_number	1
_symmetry_cell_setting	triclinic
loop_
_symmetry_equiv_pos_as_xyz
  x,y,z
_cell_length_a	25.639239
_cell_length_b	25.639243
_cell_length_c	21.395355
_cell_angle_alpha	90.027154
_cell_angle_beta	89.980666
_cell_angle_gamma	89.958634
loop_
_atom_site_label
_atom_site_type_symbol
_atom_site_fract_x
_atom_site_fract_y
_atom_site_fract_z
Zn1	Zn	-0.208174	-0.799283	-0.354301
Zn2	Zn	0.125159	-0.465949	-0.020968
Zn3	Zn	0.458493	-0.132616	0.312365
Zn4	Zn	-0.295594	-0.799189	-0.249522
Zn5	Zn	0.037740	-0.465856	0.083811
Zn6	Zn	0.371073	-0.132522	0.417144
Zn7	Zn	-0.208178	-0.711842	-0.249533
Zn8	Zn	0.125155	-0.378509	0.083800
Zn9	Zn	0.458489	-0.045175	0.417133
Zn10	Zn	-0.295584	-0.711804	-0.354258
Zn11	Zn	0.037749	-0.378471	-0.020924
Zn12	Zn	0.371082	-0.045137	0.312409
O13	O	-0.251883	-0.755529	-0.301904
O14	O	0.081451	-0.422196	0.031430
O15	O	0.414784	-0.088863	0.364763
O16	O	-0.219773	-0.872435	-0.340416
O17	O	0.113561	-0.539102	-0.007082
O18	O	0.446894	-0.205769	0.326251
O19	O	-0.284003	-0.787579	-0.161846
O20	O	0.049330	-0.454246	0.171487
O21	O	0.382663	-0.120912	0.504821
O22	O	-0.135012	-0.723496	-0.263454
O23	O	0.198321	-0.390163	0.069880
O24	O	0.531654	-0.056829	0.403213
O25	O	-0.283999	-0.872367	-0.263435
O26	O	0.049334	-0.539033	0.069898
O27	O	0.382667	-0.205700	0.403231
O28	O	-0.135009	-0.787738	-0.340426
O29	O	0.198324	-0.454405	-0.007093
O30	O	0.531657	-0.121072	0.326240
O31	O	-0.219780	-0.723405	-0.161854
O32	O	0.113554	-0.390072	0.171479
O33	O	0.446887	-0.056739	0.504813
O34	O	-0.219771	-0.638672	-0.263412
O35	O	0.113563	-0.305338	0.069922
O36	O	0.446896	0.027995	0.403255
O37	O	-0.283983	-0.723432	-0.441941
O38	O	0.049350	-0.390098	-0.108608
O39	O	0.382683	-0.056765	0.224725
O40	O	-0.283987	-0.638644	-0.340352
O41	O	0.049346	-0.305311	-0.007019
O42	O	0.382679	0.028023	0.326314
O43	O	-0.219763	-0.787702	-0.441973
O44	O	0.113570	-0.454368	-0.108640
O45	O	0.446903	-0.121035	0.224693
O46	O	-0.368758	-0.787542	-0.263393
O47	O	-0.035424	-0.454209	0.069940
O48	O	0.297909	-0.120876	0.403274
O49	O	-0.368751	-0.723341	-0.340342
O50	O	-0.035417	-0.390007	-0.007008
O51	O	0.297916	-0.056674	0.326325
C52	C	-0.251879	-0.619687	-0.301879
C53	C	0.081454	-0.286354	0.031455
C54	C	0.414788	0.046980	0.364788
C55	C	-0.251890	-0.561573	-0.301883
C56	C	0.081443	-0.228239	0.031450
C57	C	0.414777	0.105094	0.364784
C58	C	-0.218492	-0.201240	-0.342054
C59	C	0.114842	0.132093	-0.008720
C60	C	0.448175	0.465427	0.324613
C61	C	-0.218491	-0.146636	-0.342058
C62	C	0.114842	0.186698	-0.008724
C63	C	0.448175	0.520031	0.324609
O64	O	-0.190085	-0.118425	-0.376182
O65	O	0.143248	0.214909	-0.042848
O66	O	0.476581	0.548242	0.290485
N67	N	-0.251881	-0.119290	-0.301920
N68	N	0.081453	0.214043	0.031413
N69	N	0.414786	0.547376	0.364746
C70	C	-0.285269	-0.146552	-0.261772
C71	C	0.048065	0.186781	0.071561
C72	C	0.381398	0.520115	0.404895
O73	O	-0.313668	-0.118279	-0.227632
O74	O	0.019665	0.215054	0.105701
O75	O	0.352998	0.548388	0.439035
C76	C	-0.285266	-0.201155	-0.261765
C77	C	0.048067	0.132178	0.071568
C78	C	0.381401	0.465511	0.404901
C79	C	-0.251878	-0.228498	-0.301910
C80	C	0.081455	0.104835	0.031423
C81	C	0.414788	0.438169	0.364757
C82	C	-0.185106	-0.228582	-0.382195
C83	C	0.148227	0.104751	-0.048861
C84	C	0.481560	0.438084	0.284472
C85	C	-0.185108	-0.283183	-0.382191
C86	C	0.148226	0.050150	-0.048858
C87	C	0.481559	0.383484	0.284475
C88	C	-0.218494	-0.310441	-0.342047
C89	C	0.114839	0.022892	-0.008714
C90	C	0.448172	0.356226	0.324619
C91	C	-0.251880	-0.283098	-0.301907
C92	C	0.081454	0.050235	0.031427
C93	C	0.414787	0.383568	0.364760
C94	C	-0.318651	-0.228416	-0.221615
C95	C	0.014682	0.104917	0.111719
C96	C	0.348015	0.438250	0.445052
C97	C	-0.318646	-0.283023	-0.221611
C98	C	0.014688	0.050310	0.111722
C99	C	0.348021	0.383643	0.445056
C100	C	-0.285258	-0.310366	-0.261756
C101	C	0.048075	0.022968	0.071578
C102	C	0.381409	0.356301	0.404911
C103	C	-0.285268	-0.364957	-0.261760
C104	C	0.048066	-0.031624	0.071574
C105	C	0.381399	0.301710	0.404907
N106	N	-0.251878	-0.392302	-0.301897
N107	N	0.081455	-0.058969	0.031436
N108	N	0.414788	0.274364	0.364770
C109	C	-0.218492	-0.365044	-0.342041
C110	C	0.114842	-0.031711	-0.008708
C111	C	0.448175	0.301622	0.324626
C112	C	-0.285271	-0.031882	-0.261788
C113	C	0.048062	0.301452	0.071545
C114	C	0.381396	0.634785	0.404879
C115	C	-0.285276	0.022721	-0.261797
C116	C	0.048057	0.356054	0.071536
C117	C	0.381390	0.689387	0.404869
C118	C	-0.218498	0.022634	-0.342082
C119	C	0.114835	0.355967	-0.008749
C120	C	0.448169	0.689300	0.324584
C121	C	-0.218496	-0.031970	-0.342076
C122	C	0.114838	0.301364	-0.008742
C123	C	0.448171	0.634697	0.324591
C124	C	-0.251882	-0.059227	-0.301925
C125	C	0.081452	0.274107	0.031408
C126	C	0.414785	0.607440	0.364741
C127	C	-0.218497	-0.479709	-0.342032
C128	C	0.114836	-0.146376	-0.008698
C129	C	0.448169	0.186957	0.324635
C130	C	-0.218503	-0.534315	-0.342027
C131	C	0.114830	-0.200981	-0.008693
C132	C	0.448164	0.132352	0.324640
C133	C	-0.285279	-0.534223	-0.261740
C134	C	0.048054	-0.200889	0.071594
C135	C	0.381387	0.132444	0.404927
C136	C	-0.285276	-0.479622	-0.261747
C137	C	0.048058	-0.146289	0.071587
C138	C	0.381391	0.187044	0.404920
C139	C	-0.251880	-0.452367	-0.301895
C140	C	0.081453	-0.119034	0.031439
C141	C	0.414786	0.214300	0.364772
O142	O	-0.313658	-0.393203	-0.227651
O143	O	0.019676	-0.059869	0.105682
O144	O	0.353009	0.273464	0.439015
O145	O	-0.190092	-0.393324	-0.376169
O146	O	0.143241	-0.059991	-0.042836
O147	O	0.476575	0.273342	0.290497
C148	C	-0.387725	-0.755441	-0.301875
C149	C	-0.054392	-0.422108	0.031458
C150	C	0.278942	-0.088775	0.364792
C151	C	-0.445839	-0.755452	-0.301884
C152	C	-0.112506	-0.422118	0.031450
C153	C	0.220828	-0.088785	0.364783
C154	C	-0.806193	-0.789046	-0.261905
C155	C	-0.472860	-0.455713	0.071429
C156	C	-0.139526	-0.122380	0.404762
C157	C	-0.860797	-0.789067	-0.261913
C158	C	-0.527464	-0.455733	0.071420
C159	C	-0.194131	-0.122400	0.404753
O160	O	-0.889027	-0.817539	-0.227890
O161	O	-0.555693	-0.484205	0.105443
O162	O	-0.222360	-0.150872	0.438776
N163	N	-0.888122	-0.755621	-0.301945
N164	N	-0.554788	-0.422288	0.031388
N165	N	-0.221455	-0.088955	0.364721
C166	C	-0.860838	-0.722157	-0.341976
C167	C	-0.527505	-0.388824	-0.008643
C168	C	-0.194172	-0.055491	0.324691
O169	O	-0.889094	-0.693712	-0.376028
O170	O	-0.555760	-0.360378	-0.042694
O171	O	-0.222427	-0.027045	0.290639
C172	C	-0.806235	-0.722140	-0.341970
C173	C	-0.472902	-0.388807	-0.008637
C174	C	-0.139568	-0.055473	0.324696
C175	C	-0.778914	-0.755584	-0.301931
C176	C	-0.445581	-0.422250	0.031402
C177	C	-0.112247	-0.088917	0.364736
C178	C	-0.778872	-0.822488	-0.221869
C179	C	-0.445539	-0.489154	0.111464
C180	C	-0.112205	-0.155821	0.444797
C181	C	-0.724271	-0.822467	-0.221860
C182	C	-0.390938	-0.489133	0.111473
C183	C	-0.057605	-0.155800	0.444806
C184	C	-0.696992	-0.789004	-0.261887
C185	C	-0.363659	-0.455671	0.071447
C186	C	-0.030325	-0.122337	0.404780
C187	C	-0.724313	-0.755563	-0.301922
C188	C	-0.390980	-0.422229	0.031411
C189	C	-0.057647	-0.088896	0.364745
C190	C	-0.778953	-0.688679	-0.382004
C191	C	-0.445620	-0.355346	-0.048670
C192	C	-0.112286	-0.022012	0.284663
C193	C	-0.724346	-0.688665	-0.381995
C194	C	-0.391013	-0.355332	-0.048662
C195	C	-0.057679	-0.021998	0.284672
C196	C	-0.697025	-0.722109	-0.341956
C197	C	-0.363691	-0.388775	-0.008622
C198	C	-0.030358	-0.055442	0.324711
C199	C	-0.642434	-0.722079	-0.341939
C200	C	-0.309100	-0.388746	-0.008606
C201	C	0.024233	-0.055412	0.324727
N202	N	-0.615110	-0.755524	-0.301907
N203	N	-0.281776	-0.422191	0.031426
N204	N	0.051557	-0.088858	0.364759
C205	C	-0.642389	-0.788987	-0.261881
C206	C	-0.309055	-0.455654	0.071452
C207	C	0.024278	-0.122320	0.404786
C208	C	-0.975509	-0.722197	-0.341986
C209	C	-0.642176	-0.388863	-0.008652
C210	C	-0.308842	-0.055530	0.324681
C211	C	-1.030111	-0.722211	-0.341989
C212	C	-0.696778	-0.388878	-0.008655
C213	C	-0.363445	-0.055544	0.324678
C214	C	-1.030067	-0.789121	-0.261927
C215	C	-0.696733	-0.455788	0.071407
C216	C	-0.363400	-0.122454	0.404740
C217	C	-0.975463	-0.789104	-0.261921
C218	C	-0.642130	-0.455770	0.071413
C219	C	-0.308797	-0.122437	0.404746
C220	C	-0.948185	-0.755642	-0.301954
C221	C	-0.614852	-0.422309	0.031380
C222	C	-0.281518	-0.088975	0.364713
C223	C	-0.527724	-0.788940	-0.261865
C224	C	-0.194390	-0.455606	0.071469
C225	C	0.138943	-0.122273	0.404802
C226	C	-0.473118	-0.788914	-0.261857
C227	C	-0.139785	-0.455581	0.071476
C228	C	0.193548	-0.122248	0.404809
C229	C	-0.473168	-0.722006	-0.341921
C230	C	-0.139835	-0.388673	-0.008588
C231	C	0.193499	-0.055340	0.324745
C232	C	-0.527769	-0.722030	-0.341927
C233	C	-0.194435	-0.388696	-0.008593
C234	C	0.138898	-0.055363	0.324740
C235	C	-0.555045	-0.755501	-0.301896
C236	C	-0.221712	-0.422167	0.031437
C237	C	0.111622	-0.088834	0.364770
O238	O	-0.614170	-0.693623	-0.375947
O239	O	-0.280837	-0.360290	-0.042613
O240	O	0.052497	-0.026956	0.290720
O241	O	-0.614127	-0.817433	-0.227841
O242	O	-0.280794	-0.484099	0.105492
O243	O	0.052540	-0.150766	0.438826
C244	C	-0.115509	-0.755632	-0.301946
C245	C	0.217824	-0.422299	0.031387
C246	C	0.551157	-0.088965	0.364720
C247	C	-0.057395	-0.755676	-0.301964
C248	C	0.275938	-0.422342	0.031369
C249	C	0.609271	-0.089009	0.364702
C250	C	-0.251872	-0.755573	-0.465327
C251	C	0.081461	-0.422239	-0.131994
C252	C	0.414795	-0.088906	0.201340
C253	C	-0.251867	-0.755591	-0.534968
C254	C	0.081466	-0.422258	-0.201635
C255	C	0.414799	-0.088925	0.131698
C256	C	-0.251886	0.108098	-0.301929
C257	C	0.081447	0.441431	0.031404
C258	C	0.414780	0.774764	0.364738
C259	C	-0.251888	0.049984	-0.301939
C260	C	0.081446	0.383317	0.031394
C261	C	0.414779	0.716650	0.364728
C262	C	-0.218427	-0.789055	-0.567699
C263	C	0.114907	-0.455722	-0.234366
C264	C	0.448240	-0.122389	0.098968
C265	C	-0.218404	-0.789055	-0.633135
C266	C	0.114929	-0.455721	-0.299801
C267	C	0.448262	-0.122388	0.033532
C268	C	-0.251832	-0.755595	-0.665837
C269	C	0.081502	-0.422262	-0.332503
C270	C	0.414835	-0.088929	0.000830
C271	C	-0.285275	-0.722125	-0.633098
C272	C	0.048058	-0.388792	-0.299765
C273	C	0.381392	-0.055458	0.033569
C274	C	-0.285293	-0.722123	-0.567664
C275	C	0.048041	-0.388789	-0.234330
C276	C	0.381374	-0.055456	0.099003
C277	C	-0.298909	-0.751437	-0.769501
C278	C	0.034424	-0.418103	-0.436168
C279	C	0.367757	-0.084770	-0.102835
C280	C	-0.298892	-0.751442	-0.834934
C281	C	0.034441	-0.418109	-0.501601
C282	C	0.367774	-0.084776	-0.168268
C283	C	-0.251777	-0.755599	-0.867658
C284	C	0.081557	-0.422265	-0.534324
C285	C	0.414890	-0.088932	-0.200991
C286	C	-0.204676	-0.759760	-0.834940
C287	C	0.128657	-0.426427	-0.501607
C288	C	0.461990	-0.093094	-0.168273
C289	C	-0.204694	-0.759758	-0.769506
C290	C	0.128639	-0.426425	-0.436172
C291	C	0.461973	-0.093092	-0.102839
C292	C	-0.251816	-0.755594	-0.736789
C293	C	0.081517	-0.422260	-0.403456
C294	C	0.414851	-0.088927	-0.070122
C295	C	-0.218309	-0.789064	-0.971341
C296	C	0.115025	-0.455730	-0.638008
C297	C	0.448358	-0.122397	-0.304674
C298	C	-0.218285	-0.789059	-1.036778
C299	C	0.115048	-0.455726	-0.703444
C300	C	0.448381	-0.122393	-0.370111
C301	C	-0.285161	-0.722132	-1.036740
C302	C	0.048173	-0.388799	-0.703406
C303	C	0.381506	-0.055466	-0.370073
C304	C	-0.285179	-0.722134	-0.971304
C305	C	0.048154	-0.388801	-0.637971
C306	C	0.381487	-0.055467	-0.304638
C307	C	-0.251754	-0.755602	-0.938609
C308	C	0.081579	-0.422269	-0.605276
C309	C	0.414913	-0.088936	-0.271942
C310	C	-0.251855	-0.755516	-0.139116
C311	C	0.081478	-0.422183	0.194217
C312	C	0.414811	-0.088850	0.527551
C313	C	-0.251713	-0.755599	-0.069475
C314	C	0.081621	-0.422266	0.263858
C315	C	0.414954	-0.088932	0.597191
H316	H	-0.191311	0.044837	-0.374768
H317	H	0.142022	0.378170	-0.041435
H318	H	0.475355	0.711504	0.291899
H319	H	-0.337244	-0.748057	-0.861568
H320	H	-0.003911	-0.414723	-0.528235
H321	H	0.329422	-0.081390	-0.194901
H322	H	-0.312490	-0.694880	-0.659728
H323	H	0.020843	-0.361547	-0.326395
H324	H	0.354176	-0.028214	0.006938
H325	H	-0.191209	-0.816307	-0.541082
H326	H	0.142125	-0.482974	-0.207749
H327	H	0.475458	-0.149641	0.125584
H328	H	-0.345839	-0.206163	-0.188924
H329	H	-0.012505	0.127170	0.144409
H330	H	0.320828	0.460503	0.477743
H331	H	-0.191314	-0.556575	-0.374719
H332	H	0.142019	-0.223241	-0.041386
H333	H	0.475352	0.110092	0.291947
H334	H	-0.312463	-0.556426	-0.229057
H335	H	0.020870	-0.223093	0.104276
H336	H	0.354204	0.110241	0.437610
O337	O	-0.182328	-0.825138	-0.668456
O338	O	0.151005	-0.491805	-0.335122
O339	O	0.484338	-0.158471	-0.001789
H340	H	-0.205720	-0.851716	-0.698291
H341	H	0.127613	-0.518383	-0.364958
H342	H	0.460946	-0.185049	-0.031625
O343	O	-1.059493	-0.825225	-0.218764
O344	O	-0.726160	-0.491891	0.114569
O345	O	-0.392827	-0.158558	0.447903
H346	H	-1.102052	-0.819621	-0.225506
H347	H	-0.768718	-0.486288	0.107828
H348	H	-0.435385	-0.152955	0.441161
H349	H	-0.953222	-0.816337	-0.229318
H350	H	-0.619888	-0.483003	0.104015
H351	H	-0.286555	-0.149670	0.437349
O352	O	-0.153851	-0.764243	-0.870219
O353	O	0.179483	-0.430910	-0.536886
O354	O	0.512816	-0.097577	-0.203553
H355	H	-0.128183	-0.731019	-0.857631
H356	H	0.205150	-0.397686	-0.524297
H357	H	0.538483	-0.064352	-0.190964
O358	O	-1.059574	-0.686130	-0.385166
O359	O	-0.726240	-0.352797	-0.051832
O360	O	-0.392907	-0.019463	0.281501
H361	H	-1.102127	-0.691758	-0.378448
H362	H	-0.768794	-0.358424	-0.045114
H363	H	-0.435460	-0.025091	0.288219
O364	O	-0.182483	-0.450316	-0.385336
O365	O	0.150851	-0.116982	-0.052003
O366	O	0.484184	0.216351	0.281330
H367	H	-0.159274	-0.478509	-0.413249
H368	H	0.174059	-0.145176	-0.079915
H369	H	0.507392	0.188157	0.253418
O370	O	-0.443653	-0.824995	-0.218676
O371	O	-0.110320	-0.491661	0.114657
O372	O	0.223013	-0.158328	0.447990
H373	H	-0.401100	-0.819360	-0.225389
H374	H	-0.067767	-0.486026	0.107944
H375	H	0.265566	-0.152693	0.441277
O376	O	-0.149087	-0.312671	-0.425478
O377	O	0.184247	0.020662	-0.092144
O378	O	0.517580	0.353995	0.241189
H379	H	-0.125868	-0.284536	-0.453382
H380	H	0.207465	0.048797	-0.120049
H381	H	0.540799	0.382130	0.213285
H382	H	-0.345832	-0.305213	-0.188914
H383	H	-0.012499	0.028120	0.144419
H384	H	0.320834	0.361453	0.477753
O385	O	-0.321240	-0.686025	-0.936007
O386	O	0.012093	-0.352692	-0.602674
O387	O	0.345426	-0.019358	-0.269341
H388	H	-0.362276	-0.694950	-0.948563
H389	H	-0.028943	-0.361617	-0.615229
H390	H	0.304390	-0.028283	-0.281896
H391	H	-0.191089	-0.816313	-0.944719
H392	H	0.142245	-0.482979	-0.611386
H393	H	0.475578	-0.149646	-0.278052
O394	O	-0.349729	-0.746947	-0.734208
O395	O	-0.016396	-0.413613	-0.400874
O396	O	0.316937	-0.080280	-0.067541
H397	H	-0.382477	-0.744059	-0.767949
H398	H	-0.049144	-0.410726	-0.434616
H399	H	0.284190	-0.077392	-0.101283
H400	H	-0.312523	-0.694870	-0.541015
H401	H	0.020810	-0.361537	-0.207681
H402	H	0.354143	-0.028203	0.125652
H403	H	-0.312462	-0.054071	-0.229094
H404	H	0.020871	0.279262	0.104239
H405	H	0.354204	0.612596	0.437572
H406	H	-0.157916	-0.206395	-0.414885
H407	H	0.175417	0.126939	-0.081551
H408	H	0.508751	0.460272	0.251782
O409	O	-0.182479	-0.061460	-0.385365
O410	O	0.150855	0.271873	-0.052032
O411	O	0.484188	0.605207	0.281301
H412	H	-0.159263	-0.033327	-0.413275
H413	H	0.174071	0.300006	-0.079942
H414	H	0.507404	0.633340	0.253392
H415	H	-0.312470	0.044978	-0.229115
H416	H	0.020863	0.378312	0.104219
H417	H	0.354197	0.711645	0.437552
O418	O	-0.443740	-0.685913	-0.385089
O419	O	-0.110407	-0.352580	-0.051756
O420	O	0.222927	-0.019247	0.281578
H421	H	-0.454193	-0.694863	-0.434275
H422	H	-0.120860	-0.361529	-0.100942
H423	H	0.212474	-0.028196	0.232391
O424	O	-0.321286	-0.450126	-0.218451
O425	O	0.012047	-0.116793	0.114882
O426	O	0.345380	0.216541	0.448215
H427	H	-0.344500	-0.478256	-0.190535
H428	H	-0.011167	-0.144923	0.142799
H429	H	0.322166	0.188411	0.476132
H430	H	-0.549926	-0.816196	-0.229269
H431	H	-0.216593	-0.482863	0.104064
H432	H	0.116741	-0.149530	0.437397
O433	O	-0.694806	-0.858546	-0.178685
O434	O	-0.361472	-0.525212	0.154649
O435	O	-0.028139	-0.191879	0.487982
H436	H	-0.722956	-0.881820	-0.150863
H437	H	-0.389622	-0.548486	0.182470
H438	H	-0.056289	-0.215153	0.515803
H439	H	-0.801077	-0.849740	-0.189275
H440	H	-0.467743	-0.516406	0.144058
H441	H	-0.134410	-0.183073	0.477392
H442	H	-0.953302	-0.694944	-0.374583
H443	H	-0.619968	-0.361610	-0.041250
H444	H	-0.286635	-0.028277	0.292083
H445	H	-0.801189	-0.661443	-0.414605
H446	H	-0.467855	-0.328110	-0.081272
H447	H	-0.134522	0.005224	0.252062
O448	O	-0.182216	-0.825155	-1.072085
O449	O	0.151117	-0.491822	-0.738752
O450	O	0.484450	-0.158488	-0.405419
H451	H	-0.158982	-0.848430	-1.038354
H452	H	0.174351	-0.515096	-0.705021
H453	H	0.507684	-0.181763	-0.371688
O454	O	-0.694923	-0.652567	-0.425166
O455	O	-0.361590	-0.319234	-0.091833
O456	O	-0.028257	0.014100	0.241501
H457	H	-0.723099	-0.629313	-0.453000
H458	H	-0.389765	-0.295979	-0.119667
H459	H	-0.056432	0.037354	0.213667
O460	O	-0.557242	-0.685959	-0.385108
O461	O	-0.223909	-0.352625	-0.051775
O462	O	0.109425	-0.019292	0.281558
H463	H	-0.529097	-0.662688	-0.412941
H464	H	-0.195764	-0.329355	-0.079608
H465	H	0.137570	0.003978	0.253725
H466	H	-0.166343	-0.763145	-0.742870
H467	H	0.166990	-0.429812	-0.409536
H468	H	0.500323	-0.096479	-0.076203
O469	O	-0.321216	-0.686042	-1.072000
O470	O	0.012117	-0.352708	-0.738667
O471	O	0.345451	-0.019375	-0.405334
H472	H	-0.315588	-0.691666	-1.123001
H473	H	0.017745	-0.358333	-0.789667
H474	H	0.351079	-0.024999	-0.456334
