data_functionalizedCrystal
_audit_creation_method	'MofGen! by Chris Wilmer'
_symmetry_space_group_name_H-M	'P1'
_symmetry_Int_Tables_number	1
_symmetry_cell_setting	triclinic
loop_
_symmetry_equiv_pos_as_xyz
  x,y,z
_cell_length_a	6.817900
_cell_length_b	9.170630
_cell_length_c	9.170709
_cell_angle_alpha	75.410468
_cell_angle_beta	112.460645
_cell_angle_gamma	112.460426
loop_
_atom_site_label
_atom_site_type_symbol
_atom_site_fract_x
_atom_site_fract_y
_atom_site_fract_z
V1	V	-4.131486	-0.151757	-0.465474
O2	O	-4.083826	0.077506	-0.487766
O3	O	-4.114198	-0.368437	-0.432330
O4	O	-4.114200	-0.118614	-0.682153
O5	O	-4.083823	-0.174046	-0.236213
V6	V	-4.607051	-0.127975	-0.441692
O7	O	-4.410201	-0.203925	-0.517642
O8	O	-4.778533	-0.075807	-0.389525
O9	O	-4.401132	0.088705	-0.474837
O10	O	-4.772108	-0.357237	-0.419401
O11	O	-4.772110	-0.105685	-0.670953
O12	O	-4.401130	-0.161118	-0.225014
C13	C	-3.965761	-0.422222	-0.417256
C14	C	-4.033120	-0.599162	-0.391601
C15	C	-3.965762	-0.103546	-0.735928
C16	C	-4.033119	-0.077882	-0.912867
C17	C	-4.212912	0.142481	-0.489905
C18	C	-4.124793	0.319421	-0.515571
C19	C	-4.212910	-0.176192	-0.171230
C20	C	-4.124790	-0.201848	0.005710
H21	H	-4.151757	-0.327620	-0.928637
C22	C	-3.997359	-0.686502	-0.223818
C23	C	-4.116904	-0.651134	-0.150083
C24	C	-4.083994	-0.731553	0.004489
H25	H	-4.048936	-0.797804	-0.228051
H26	H	-3.842350	-0.653715	-0.164736
H27	H	-4.271880	-0.683929	-0.209150
H28	H	-4.065349	-0.539846	-0.145808
H29	H	-3.928986	-0.698767	0.063571
H30	H	-4.135572	-0.842851	0.000240
H31	H	-4.165082	-0.707556	0.054542
C32	C	-4.161194	-0.593254	-0.683385
C33	C	-4.389796	-0.641838	-0.769995
C34	C	-4.423410	-0.561445	-0.924592
H35	H	-4.109825	-0.481959	-0.679159
H36	H	-4.080316	-0.617085	-0.733743
H37	H	-4.470645	-0.617996	-0.719649
H38	H	-4.441216	-0.753120	-0.774265
H39	H	-4.342532	-0.585277	-0.974951
H40	H	-4.372030	-0.450155	-0.920351
H41	H	-4.578514	-0.594409	-0.983381
H42	H	-4.006171	0.047897	-0.978529
