data_functionalizedCrystal
_audit_creation_method	'MofGen! by Chris Wilmer'
_symmetry_space_group_name_H-M	'P1'
_symmetry_Int_Tables_number	1
_symmetry_cell_setting	triclinic
loop_
_symmetry_equiv_pos_as_xyz
  x,y,z
_cell_length_a	16.974800
_cell_length_b	10.540535
_cell_length_c	16.053802
_cell_angle_alpha	92.590127
_cell_angle_beta	91.074188
_cell_angle_gamma	83.955736
loop_
_atom_site_label
_atom_site_type_symbol
_atom_site_fract_x
_atom_site_fract_y
_atom_site_fract_z
O1	O	1.049987	0.161811	0.001540
O2	O	0.820634	0.181243	-0.013964
O3	O	0.940544	-0.013238	-0.005850
O4	O	0.930076	0.356292	-0.006574
O5	O	0.933944	-0.002577	0.132562
O6	O	0.814034	0.191904	0.124448
O7	O	1.043386	0.172472	0.139952
Zn8	Zn	0.927662	0.183881	0.154176
Zn9	Zn	0.936358	0.169835	-0.028188
O10	O	0.923476	0.366953	0.131838
C11	C	0.787966	0.185639	0.053256
C12	C	0.700457	0.182840	0.047341
C13	C	0.655752	0.187333	0.120012
C14	C	0.573530	0.184683	0.114457
C15	C	0.536014	0.177549	0.036229
C16	C	0.580725	0.173052	-0.036448
C17	C	0.662946	0.175693	-0.030892
C18	C	0.290496	0.169018	0.011520
C19	C	0.208268	0.166381	0.005968
C20	C	0.201079	0.178011	0.156874
C21	C	0.283302	0.180659	0.162423
C22	C	0.328006	0.176155	0.089747
N23	N	0.451970	0.174844	0.030548
N24	N	0.412050	0.178851	0.095428
C25	C	0.936460	-0.055202	0.063304
C26	C	0.934113	-0.196124	0.063146
C27	C	0.846564	-0.231811	0.057222
C28	C	0.844110	-0.378409	0.056726
C29	C	0.977841	-0.411975	-0.013057
C30	C	0.979706	-0.265234	-0.012983
C31	C	0.973473	-0.253263	0.144509
C32	C	0.969376	-0.399485	0.145258
C33	C	1.076055	0.168076	0.072730
C34	C	1.163563	0.170875	0.078640
C35	C	0.927561	0.408917	0.062683
C36	C	0.929907	0.549838	0.062835
N37	N	0.921733	0.193466	0.278635
N38	N	0.942294	0.160240	-0.152647
C39	C	0.972774	0.110743	0.325783
C40	C	0.968633	0.117460	0.412910
C41	C	0.913456	0.206907	0.452887
C42	C	0.862409	0.289633	0.405732
C43	C	0.866546	0.282909	0.318607
C44	C	0.895384	0.236242	0.713074
C45	C	0.891253	0.242962	0.800205
C46	C	0.997477	0.070787	0.807376
C47	C	1.001612	0.064076	0.720249
C48	C	0.950563	0.146798	0.673102
N49	N	0.909224	0.213777	0.541944
N50	N	0.954791	0.139920	0.584046
H51	H	0.177725	0.160576	-0.057738
Cl52	Cl	0.702907	0.196310	0.218361
Cl53	Cl	1.079041	-0.231179	-0.011444
Cl54	Cl	0.935393	-0.466150	-0.107208
H55	H	0.816201	-0.192325	-0.001495
H56	H	0.943302	-0.205899	0.202474
H57	H	0.817478	0.362458	0.438287
Cl58	Cl	0.517331	0.190355	0.205819
Cl59	Cl	0.790486	-0.159710	0.141034
Cl60	Cl	1.075590	-0.486502	-0.010655
H61	H	0.313842	0.186462	0.226125
Cl62	Cl	1.070980	-0.048370	0.669992
Cl63	Cl	1.072866	-0.220033	0.152417
Cl64	Cl	0.821881	0.355422	0.850456
H65	H	0.952698	-0.229278	-0.074189
H66	H	0.812450	-0.410850	-0.002481
H67	H	0.934449	-0.423244	0.201440
Cl68	Cl	1.061646	-0.033204	0.866650
Cl69	Cl	0.346685	0.163359	-0.079846
H70	H	0.824982	0.350268	0.280220
H71	H	0.550174	0.167234	-0.100143
Cl72	Cl	0.144876	0.183666	0.248233
H73	H	1.031769	-0.448839	0.154492
Cl74	Cl	1.042148	-0.001704	0.275536
H75	H	0.699344	0.172036	-0.090069
Cl76	Cl	0.786608	-0.416400	0.140397
Cl77	Cl	1.032799	0.013463	0.472183
H78	H	0.853820	0.303599	0.674693
