data_functionalizedCrystal
_audit_creation_method	'MofGen! by Chris Wilmer'
_symmetry_space_group_name_H-M	'P1'
_symmetry_Int_Tables_number	1
_symmetry_cell_setting	triclinic
loop_
_symmetry_equiv_pos_as_xyz
  x,y,z
_cell_length_a	12.837943
_cell_length_b	14.044220
_cell_length_c	11.892095
_cell_angle_alpha	94.243827
_cell_angle_beta	85.689438
_cell_angle_gamma	94.008909
loop_
_atom_site_label
_atom_site_type_symbol
_atom_site_fract_x
_atom_site_fract_y
_atom_site_fract_z
O1	O	1.404549	0.242985	-0.093990
O2	O	1.101609	0.230709	-0.093996
O3	O	1.248531	0.098452	-0.093982
O4	O	1.257627	0.375241	-0.094004
O5	O	1.236280	0.109461	0.094025
O6	O	1.089357	0.241718	0.094010
O7	O	1.392297	0.253993	0.094017
Zn8	Zn	1.238882	0.249603	0.123864
Zn9	Zn	1.255024	0.235099	-0.123843
O10	O	1.245375	0.386250	0.094002
C11	C	1.056479	0.232067	0.000007
C12	C	0.940259	0.219699	0.000005
C13	C	0.713048	0.368378	0.000009
C14	C	0.603848	0.356763	0.000008
C15	C	0.612657	0.184853	0.000009
C16	C	0.721856	0.196469	0.000011
C17	C	0.772048	0.288234	0.000008
C18	C	0.881251	0.299849	0.000001
C19	C	0.890056	0.127940	0.000011
C20	C	0.780857	0.116324	0.000010
C21	C	1.238425	0.068282	0.000022
C22	C	1.226550	-0.038016	0.000023
C23	C	1.204843	-0.232639	0.000006
C24	C	1.289060	-0.282665	0.000005
C25	C	1.276982	-0.390960	-0.000005
C26	C	1.216919	-0.124334	0.000016
C27	C	1.437428	0.252635	0.000012
C28	C	1.553649	0.265002	0.000006
C29	C	1.255482	0.416420	-0.000004
C30	C	1.267357	0.522717	-0.000012
N31	N	1.227873	0.259502	0.292917
N32	N	1.266041	0.225193	-0.292896
C33	C	1.342643	0.156258	0.529576
C34	C	1.334956	0.163185	0.647917
C35	C	1.204807	0.280277	0.647942
C36	C	1.212494	0.273350	0.529601
C37	C	1.281415	0.211340	0.470422
C38	C	1.289107	0.204418	0.352079
C39	C	1.158954	0.321505	0.352106
C40	C	1.151267	0.328432	0.470447
H41	H	0.571765	0.110147	0.000104
C42	C	1.417019	-0.179068	-0.096613
C43	C	1.398641	-0.230694	0.000023
H44	H	1.484665	-0.146977	-0.096592
H45	H	1.413103	-0.221752	-0.162168
H46	H	1.365761	-0.133451	-0.096603
H47	H	1.449895	-0.276316	0.000009
H48	H	1.402567	-0.188006	0.065595
H49	H	0.753915	0.443098	0.000005
H50	H	1.109101	0.366359	0.303930
H51	H	0.739974	0.041612	0.000025
H52	H	1.123677	-0.271140	0.000002
H53	H	1.345229	0.153929	0.303896
C54	C	0.606116	0.527852	-0.000006
C55	C	0.538995	0.444859	-0.000001
H56	H	0.566076	0.582240	-0.000018
H57	H	0.644614	0.532644	0.065554
H58	H	0.653168	0.524962	-0.065570
H59	H	0.491948	0.447745	0.065568
H60	H	0.500479	0.440066	-0.065568
H61	H	1.398769	0.105774	0.481391
C62	C	1.061362	0.069407	0.000006
C63	C	0.954913	0.039837	0.000009
H64	H	1.101399	0.015016	0.000007
H65	H	1.081709	0.102787	-0.065551
H66	H	1.073170	0.110460	0.065574
H67	H	0.943103	-0.001210	-0.065563
H68	H	0.934558	0.006442	0.065573
C69	C	1.464374	0.046751	0.636000
C70	C	1.402260	0.102639	0.712940
H71	H	1.505928	0.009375	0.676145
H72	H	1.420677	0.005719	0.589856
H73	H	1.508654	0.087262	0.589830
H74	H	1.357974	0.062128	0.759104
H75	H	1.445961	0.143675	0.759102
H76	H	1.148686	0.330757	0.696141
C77	C	1.002275	0.344050	0.603571
C78	C	1.075515	0.396591	0.535509
H79	H	0.955515	0.386133	0.643741
H80	H	0.963991	0.298159	0.557413
H81	H	1.037652	0.312237	0.655732
H82	H	1.040139	0.428399	0.483342
H83	H	1.113803	0.442499	0.581671
C84	C	0.861571	0.468607	0.000014
C85	C	0.936425	0.400716	0.000006
H86	H	0.895632	0.530879	0.000027
H87	H	0.823437	0.456669	-0.065545
H88	H	0.814888	0.464324	0.065580
H89	H	0.983103	0.404994	-0.065564
H90	H	0.974576	0.412658	0.065571
