data_functionalizedCrystal
_audit_creation_method	'MofGen! by Chris Wilmer'
_symmetry_space_group_name_H-M	'P1'
_symmetry_Int_Tables_number	1
_symmetry_cell_setting	triclinic
loop_
_symmetry_equiv_pos_as_xyz
  x,y,z
_cell_length_a	12.827893
_cell_length_b	12.594516
_cell_length_c	12.827885
_cell_angle_alpha	89.971946
_cell_angle_beta	89.980728
_cell_angle_gamma	90.016213
loop_
_atom_site_label
_atom_site_type_symbol
_atom_site_fract_x
_atom_site_fract_y
_atom_site_fract_z
Zn1	Zn	1.597665	-0.423686	-0.590861
Zn2	Zn	1.597557	-0.601702	-0.416127
Zn3	Zn	1.422906	-0.423738	-0.416135
Zn4	Zn	1.422889	-0.601623	-0.590827
O5	O	1.510254	-0.512687	-0.503487
O6	O	1.743887	-0.447311	-0.567693
O7	O	1.574351	-0.578150	-0.269892
O8	O	1.446140	-0.274786	-0.439330
O9	O	1.743807	-0.578099	-0.439317
O10	O	1.574535	-0.274747	-0.567701
O11	O	1.446036	-0.447400	-0.269898
O12	O	1.276668	-0.447324	-0.439297
O13	O	1.446112	-0.577965	-0.737067
O14	O	1.276656	-0.578016	-0.567642
O15	O	1.574519	-0.447235	-0.737093
O16	O	1.574335	-0.750637	-0.439283
O17	O	1.446007	-0.750580	-0.567635
C18	C	1.238744	-0.512668	-0.503468
C19	C	1.122591	-0.512685	-0.503484
C20	C	0.950723	-0.577320	-0.439893
C21	C	1.070774	-0.577303	-0.439875
C22	C	1.510186	-0.789228	-0.503477
C23	C	1.510252	-0.907534	-0.503508
C24	C	1.440448	-0.976794	-0.573269
C25	C	1.414986	-1.047663	-0.477914
C26	C	1.535809	-1.047464	-0.598879
C27	C	1.484740	-0.976844	-0.408102
C28	C	1.605607	-0.976639	-0.529132
C29	C	1.580182	-1.047476	-0.433711
C30	C	1.782824	-0.512708	-0.503508
C31	C	1.898978	-0.512717	-0.503517
C32	C	1.510325	-0.512585	-0.776058
C33	C	1.510356	-0.512542	-0.892211
C34	C	1.510352	-0.235067	-0.503521
C35	C	1.510393	-0.116761	-0.503535
C36	C	1.446869	-0.577158	-1.064028
C37	C	1.446836	-0.577205	-0.943977
C38	C	1.510244	-0.512712	-0.231978
C39	C	1.510416	-0.512456	-0.115825
H40	H	1.115274	-0.632618	-0.385410
H41	H	0.906148	-0.632636	-0.385431
N42	N	1.582418	-0.439157	-0.951209
H43	H	1.566221	-0.363098	-0.932276
H44	H	1.657064	-0.455767	-0.932254
H45	H	1.392486	-0.632514	-1.108559
H46	H	1.078098	-0.457377	-0.557961
H47	H	1.381312	-0.945758	-0.632178
H48	H	1.392436	-0.632602	-0.899433
N49	N	1.582462	-0.439131	-1.056850
H50	H	1.539966	-0.389862	-1.011561
H51	H	1.630801	-0.482538	-1.011628
H52	H	1.334412	-1.078883	-0.456263
N53	N	0.958013	-0.439441	-0.575662
H54	H	0.906987	-0.396331	-0.618125
H55	H	1.003286	-0.390167	-0.533159
N56	N	1.456063	-0.935936	-0.301247
H57	H	1.456156	-0.855746	-0.301903
H58	H	1.384340	-0.962477	-0.281807
H59	H	1.686164	-0.945422	-0.550829
N60	N	1.658461	-1.088331	-0.355501
H61	H	1.639077	-1.062503	-0.283535
H62	H	1.658489	-1.168515	-0.356454
N63	N	1.564371	-1.088567	-0.705694
H64	H	1.511537	-1.062856	-0.758317
H65	H	1.635848	-1.061615	-0.725490
