data_functionalizedCrystal
_audit_creation_method	'MofGen! by Chris Wilmer'
_symmetry_space_group_name_H-M	'P1'
_symmetry_Int_Tables_number	1
_symmetry_cell_setting	triclinic
loop_
_symmetry_equiv_pos_as_xyz
  x,y,z
_cell_length_a	14.044220
_cell_length_b	15.944551
_cell_length_c	12.503572
_cell_angle_alpha	93.522593
_cell_angle_beta	86.164750
_cell_angle_gamma	88.343808
loop_
_atom_site_label
_atom_site_type_symbol
_atom_site_fract_x
_atom_site_fract_y
_atom_site_fract_z
O1	O	1.263178	0.198062	-0.089210
O2	O	0.987210	0.190753	-0.089237
O3	O	1.132730	0.072697	-0.089213
O4	O	1.117659	0.316117	-0.089234
O5	O	1.121786	0.081592	0.089427
O6	O	0.976267	0.199647	0.089403
O7	O	1.252235	0.206956	0.089430
Cu8	Cu	1.113251	0.204114	0.105728
Cu9	Cu	1.126194	0.193595	-0.105535
O10	O	1.106715	0.325012	0.089406
C11	C	0.946424	0.192001	0.000079
C12	C	0.841198	0.182459	0.000069
C13	C	1.126632	0.045804	0.000107
C14	C	1.124756	-0.047583	0.000107
C15	C	0.648534	0.165017	0.000092
C16	C	0.590906	0.232688	0.000091
C17	C	0.483701	0.222983	0.000104
C18	C	0.755749	0.174721	0.000079
C19	C	1.030073	-0.269530	0.000083
C20	C	1.068645	-0.322870	0.088168
C21	C	1.121363	-0.218563	0.000099
C22	C	1.079457	-0.331621	-0.087957
C23	C	1.118079	-0.383722	0.000086
C24	C	1.159956	-0.270669	0.088256
C25	C	1.170759	-0.279418	-0.087948
C26	C	1.209396	-0.332734	0.000158
C27	C	1.123252	-0.123419	0.000107
C28	C	1.116197	-0.478865	0.000085
C29	C	1.293021	0.205708	0.000111
C30	C	1.398247	0.215249	0.000114
C31	C	1.112813	0.351905	0.000083
C32	C	1.114689	0.445291	0.000076
N33	N	1.104155	0.211512	0.254318
N34	N	1.135297	0.186191	-0.254126
C35	C	1.090774	0.222403	0.473431
C36	C	1.148675	0.175303	0.526768
C37	C	1.141230	0.181362	0.648690
C38	C	1.098218	0.216344	0.351498
H39	H	0.622081	0.297911	0.000080
H40	H	1.035617	0.267275	0.519330
C41	C	1.222285	0.115515	0.465575
C42	C	1.313901	0.137250	0.492699
C43	C	1.381690	0.082184	0.436297
H44	H	1.217606	0.119352	0.390586
H45	H	1.210810	0.059578	0.483925
H46	H	1.325373	0.193173	0.474342
H47	H	1.318612	0.133408	0.567679
H48	H	1.370215	0.026246	0.454646
H49	H	1.377002	0.086025	0.361310
H50	H	1.443859	0.096918	0.454699
C51	C	1.205192	-0.235327	0.187796
C52	C	1.151919	-0.257861	0.279691
C53	C	1.193564	-0.225327	0.371405
H54	H	1.206090	-0.175802	0.187362
H55	H	1.268681	-0.257512	0.188117
H56	H	1.088447	-0.235672	0.279370
H57	H	1.151017	-0.317380	0.280161
H58	H	1.257054	-0.247512	0.371726
H59	H	1.194461	-0.165803	0.370960
H60	H	1.157431	-0.240618	0.433766
C61	C	0.929107	-0.232516	0.000122
C62	C	0.932220	-0.144874	-0.000852
C63	C	0.839232	-0.110749	-0.000828
H64	H	0.892891	-0.247143	0.062748
H65	H	0.900138	-0.254182	-0.061846
H66	H	0.961175	-0.123216	0.061110
H67	H	0.968418	-0.130223	-0.063474
H68	H	0.810264	-0.132415	-0.062796
H69	H	0.803024	-0.125383	0.061799
H70	H	0.841333	-0.051282	-0.001499
H71	H	1.285235	-0.360211	0.000215
C72	C	0.606793	0.078121	0.000042
C73	C	0.507220	0.085649	0.000021
C74	C	0.468725	0.005619	-0.000044
H75	H	0.623670	0.051491	0.062317
H76	H	0.631338	0.045358	-0.062282
H77	H	0.482684	0.118398	0.062339
H78	H	0.490317	0.112264	-0.062250
H79	H	0.493270	-0.027144	-0.062368
H80	H	0.485609	-0.021005	0.062232
H81	H	0.401162	0.010715	-0.000068
H82	H	1.025471	-0.342162	0.162629
C83	C	1.228130	-0.253705	-0.187365
C84	C	1.185644	-0.284578	-0.279348
C85	C	1.238452	-0.260896	-0.370959
H86	H	1.291528	-0.276277	-0.188142
H87	H	1.229358	-0.194118	-0.186343
H88	H	1.184426	-0.344153	-0.280371
H89	H	1.122250	-0.262010	-0.278607
H90	H	1.239680	-0.201309	-0.369937
H91	H	1.301848	-0.283470	-0.371725
H92	H	1.209627	-0.281833	-0.433380
H93	H	1.045395	-0.358298	-0.162431
