data_functionalizedCrystal
_audit_creation_method	'MofGen! by Chris Wilmer'
_symmetry_space_group_name_H-M	'P1'
_symmetry_Int_Tables_number	1
_symmetry_cell_setting	triclinic
loop_
_symmetry_equiv_pos_as_xyz
  x,y,z
_cell_length_a	12.759401
_cell_length_b	12.759400
_cell_length_c	12.759393
_cell_angle_alpha	89.968436
_cell_angle_beta	89.980387
_cell_angle_gamma	90.014916
loop_
_atom_site_label
_atom_site_type_symbol
_atom_site_fract_x
_atom_site_fract_y
_atom_site_fract_z
Zn1	Zn	1.606256	-0.418198	-0.594013
Zn2	Zn	1.606150	-0.593917	-0.418333
Zn3	Zn	1.430557	-0.418253	-0.418349
Zn4	Zn	1.430546	-0.593836	-0.593971
O5	O	1.518377	-0.506051	-0.506166
O6	O	1.753263	-0.441518	-0.570719
O7	O	1.582818	-0.570671	-0.271314
O8	O	1.453913	-0.271225	-0.441675
O9	O	1.753185	-0.570618	-0.441648
O10	O	1.582998	-0.271184	-0.570735
O11	O	1.453811	-0.441612	-0.271325
O12	O	1.283535	-0.441534	-0.441634
O13	O	1.453894	-0.570480	-0.740998
O14	O	1.283527	-0.570534	-0.570663
O15	O	1.582987	-0.441440	-0.741028
O16	O	1.582807	-0.740927	-0.441607
O17	O	1.453791	-0.740868	-0.570648
C18	C	1.245410	-0.506032	-0.506147
C19	C	1.128633	-0.506049	-0.506163
C20	C	1.073734	-0.573164	-0.438864
C21	C	0.964010	-0.573182	-0.438882
C22	C	0.964094	-0.438962	-0.573502
C23	C	1.073816	-0.438950	-0.573488
C24	C	1.128552	-0.640263	-0.371539
C25	C	1.073653	-0.707382	-0.304234
C26	C	0.963929	-0.707400	-0.304252
C27	C	0.909104	-0.640299	-0.371576
C28	C	1.518315	-0.779018	-0.506144
C29	C	1.518384	-0.895795	-0.506170
C30	C	1.585637	-0.950653	-0.439053
C31	C	1.585702	-1.060377	-0.439085
C32	C	1.451252	-1.060375	-0.573355
C33	C	1.451193	-0.950653	-0.573327
C34	C	1.652828	-0.895795	-0.371896
C35	C	1.720086	-0.950653	-0.304773
C36	C	1.720150	-1.060377	-0.304805
C37	C	1.652957	-1.115243	-0.371961
C38	C	1.792411	-0.506071	-0.506187
C39	C	1.909187	-0.506079	-0.506195
C40	C	1.518451	-0.505945	-0.780200
C41	C	1.518482	-0.505900	-0.896976
C42	C	1.518468	-0.232018	-0.506211
C43	C	1.518507	-0.115241	-0.506230
C44	C	1.585710	-0.438702	-0.951856
C45	C	1.585735	-0.438664	-1.061580
C46	C	1.451301	-0.573031	-1.061535
C47	C	1.451272	-0.573063	-0.951813
C48	C	1.652920	-0.371539	-0.897019
C49	C	1.720155	-0.304337	-0.951899
C50	C	1.720180	-0.304299	-1.061623
C51	C	1.652970	-0.371463	-1.116468
C52	C	1.518364	-0.506081	-0.233199
C53	C	1.518537	-0.505830	-0.116423
H54	H	0.919446	-0.384330	-0.628312
H55	H	1.652910	-0.371565	-0.807677
O56	O	1.653215	-1.221829	-0.372003
C57	C	1.753907	-1.258379	-0.399111
H58	H	1.814396	-1.195113	-0.381194
H59	H	1.772649	-1.331810	-0.351763
H60	H	1.756097	-1.277768	-0.486294
O61	O	0.910482	-0.772454	-0.238830
C62	C	0.847006	-0.712566	-0.171071
H63	H	0.830595	-0.632994	-0.208268
H64	H	0.769837	-0.755356	-0.156929
H65	H	0.889254	-0.700922	-0.093226
H66	H	1.217895	-0.640254	-0.371515
H67	H	1.396431	-0.905987	-0.627981
H68	H	1.652984	-0.371415	-1.205813
O69	O	1.386126	-0.638244	-1.114970
C70	C	1.400552	-0.623790	-1.223582
H71	H	1.481647	-0.589379	-1.238579
H72	H	1.393416	-0.702474	-1.265261
H73	H	1.338261	-0.567830	-1.254733
O74	O	1.386013	-1.113831	-0.638481
C75	C	1.400504	-1.222438	-0.624130
H76	H	1.434965	-1.237459	-0.543084
H77	H	1.321826	-1.264196	-0.631195
H78	H	1.456435	-1.253483	-0.686504
O79	O	1.785398	-0.239189	-0.898466
C80	C	1.770943	-0.253609	-0.789854
H81	H	1.736506	-0.334693	-0.774845
H82	H	1.849630	-0.246498	-0.748163
H83	H	1.715004	-0.191299	-0.758727
H84	H	1.774798	-0.905975	-0.250102
O85	O	1.652765	-0.789210	-0.372056
C86	C	1.679701	-0.752438	-0.472751
H87	H	1.661769	-0.815632	-0.533273
H88	H	1.632252	-0.679062	-0.491364
H89	H	1.766860	-0.732883	-0.475039
O90	O	1.785517	-1.113505	-0.239510
C91	C	1.844824	-1.041552	-0.180255
H92	H	1.801748	-0.963378	-0.176561
H93	H	1.856090	-1.073313	-0.097495
H94	H	1.924592	-1.029784	-0.218790
H95	H	1.118515	-0.384297	-0.628286
O96	O	1.785582	-0.238985	-1.114773
C97	C	1.844873	-0.179697	-1.042839
H98	H	1.848473	-0.222757	-0.964617
H99	H	1.927663	-0.168491	-1.074551
H100	H	1.806428	-0.099903	-1.031184
H101	H	1.118299	-0.762021	-0.249429
O102	O	1.385957	-0.638459	-0.898659
C103	C	1.326640	-0.697730	-0.970584
H104	H	1.369680	-0.701328	-1.048808
H105	H	1.315428	-0.780523	-0.938865
H106	H	1.246849	-0.659272	-0.982240
H107	H	0.819759	-0.640327	-0.371592
