data_functionalizedCrystal
_audit_creation_method	'MofGen! by Chris Wilmer'
_symmetry_space_group_name_H-M	'P1'
_symmetry_Int_Tables_number	1
_symmetry_cell_setting	triclinic
loop_
_symmetry_equiv_pos_as_xyz
  x,y,z
_cell_length_a	11.169417
_cell_length_b	12.759394
_cell_length_c	11.169409
_cell_angle_alpha	89.965534
_cell_angle_beta	89.979436
_cell_angle_gamma	90.015716
loop_
_atom_site_label
_atom_site_type_symbol
_atom_site_fract_x
_atom_site_fract_y
_atom_site_fract_z
Zn1	Zn	1.834934	-0.418157	-0.678525
Zn2	Zn	1.834805	-0.593883	-0.477834
Zn3	Zn	1.634217	-0.418221	-0.477859
Zn4	Zn	1.634211	-0.593798	-0.678479
O5	O	1.734542	-0.506015	-0.578174
O6	O	2.002866	-0.441477	-0.651911
O7	O	1.808145	-0.570644	-0.309887
O8	O	1.660899	-0.271192	-0.504507
O9	O	2.002771	-0.570582	-0.504465
O10	O	1.808364	-0.271145	-0.651935
O11	O	1.660774	-0.441586	-0.309906
O12	O	1.466266	-0.441503	-0.504463
O13	O	1.660889	-0.570436	-0.846435
O14	O	1.466262	-0.570498	-0.651857
O15	O	1.808359	-0.441394	-0.846468
O16	O	1.808139	-0.740893	-0.504420
O17	O	1.660764	-0.740830	-0.651833
C18	C	1.422717	-0.505999	-0.578159
C19	C	1.289317	-0.506017	-0.578180
C20	C	1.734470	-0.778982	-0.578145
C21	C	1.734548	-0.895759	-0.578173
C22	C	1.888125	-0.895771	-0.424787
C23	C	1.964945	-0.950638	-0.348108
C24	C	1.965015	-1.060359	-0.348140
C25	C	1.888260	-1.115217	-0.424863
C26	C	1.811441	-1.060350	-0.501541
C27	C	1.811376	-0.950626	-0.501498
C28	C	1.657872	-1.060338	-0.654932
C29	C	1.657793	-0.950616	-0.654895
C30	C	1.581117	-1.115195	-0.731654
C31	C	1.504289	-1.060329	-0.808329
C32	C	1.504221	-0.950600	-0.808292
C33	C	1.580974	-0.895750	-0.731574
C34	C	2.047584	-0.506032	-0.578190
C35	C	2.180984	-0.506039	-0.578197
C36	C	1.734638	-0.505898	-0.891217
C37	C	1.734679	-0.505849	-1.024617
C38	C	1.734647	-0.231981	-0.578229
C39	C	1.734691	-0.115205	-0.578253
C40	C	1.734515	-0.506055	-0.266349
C41	C	1.734706	-0.505809	-0.132950
H42	H	2.027441	-0.905963	-0.285643
H43	H	1.888335	-1.204558	-0.424893
N44	N	1.421517	-1.119492	-0.891077
H45	H	1.433224	-1.197325	-0.879468
H46	H	1.335796	-1.100397	-0.872321
N47	N	1.888043	-0.777429	-0.424734
H48	H	1.910053	-0.750910	-0.507070
H49	H	1.805682	-0.751171	-0.402550
N50	N	1.581192	-1.233537	-0.731699
H51	H	1.641499	-1.259973	-0.671480
H52	H	1.498842	-1.259955	-0.709624
N53	N	1.421370	-0.891425	-0.891003
H54	H	1.372764	-0.942829	-0.939607
H55	H	1.365815	-0.845981	-0.842094
H56	H	2.027575	-1.105032	-0.285708
N57	N	1.580899	-0.777408	-0.731523
H58	H	1.663207	-0.750904	-0.753634
H59	H	1.520536	-0.751054	-0.791728
