data_functionalizedCrystal
_audit_creation_method	'MofGen! by Chris Wilmer'
_symmetry_space_group_name_H-M	'P1'
_symmetry_Int_Tables_number	1
_symmetry_cell_setting	triclinic
loop_
_symmetry_equiv_pos_as_xyz
  x,y,z
_cell_length_a	15.995350
_cell_length_b	10.489741
_cell_length_c	14.472310
_cell_angle_alpha	89.999301
_cell_angle_beta	89.990621
_cell_angle_gamma	84.015774
loop_
_atom_site_label
_atom_site_type_symbol
_atom_site_fract_x
_atom_site_fract_y
_atom_site_fract_z
O1	O	1.111988	0.164399	-0.076762
O2	O	0.868335	0.184702	-0.076781
O3	O	0.995706	-0.011125	-0.076766
O4	O	0.984617	0.360226	-0.076777
O5	O	0.995673	-0.011114	0.076916
O6	O	0.868302	0.184713	0.076901
O7	O	1.111955	0.164411	0.076920
Cu8	Cu	0.990125	0.174563	0.090943
Cu9	Cu	0.990164	0.174549	-0.090804
O10	O	0.984584	0.360237	0.076905
C11	C	0.837119	0.183868	0.000058
C12	C	0.744153	0.181352	0.000050
C13	C	0.406351	0.172315	0.000070
C14	C	0.452944	0.032851	0.000417
C15	C	0.549650	0.035368	0.000064
C16	C	0.573939	0.176797	0.000061
C17	C	0.533285	0.245579	-0.087698
C18	C	0.436628	0.242076	-0.087765
C19	C	0.436269	0.244970	0.087001
C20	C	0.533214	0.244937	0.088154
C21	C	0.668651	0.179338	0.000053
C22	C	0.311638	0.169778	0.000072
C23	C	0.994852	-0.058639	0.000075
C24	C	0.992346	-0.200234	0.000073
C25	C	0.911304	-0.267240	0.000060
C26	C	0.949571	-0.359892	0.075836
C27	C	0.949623	-0.359878	-0.075682
C28	C	1.030647	-0.291021	0.075912
C29	C	1.030687	-0.290998	-0.075675
C30	C	1.069013	-0.383624	0.000120
C31	C	1.143171	0.165244	0.000079
C32	C	1.236137	0.167761	0.000080
C33	C	0.985438	0.407752	0.000062
C34	C	0.987944	0.549346	0.000058
N35	N	0.990104	0.174572	0.218774
N36	N	0.990192	0.174531	-0.218635
C37	C	0.990163	0.174544	0.592865
C38	C	0.921777	0.278976	0.553691
C39	C	0.921938	0.279357	0.446603
C40	C	0.990133	0.174558	0.407274
C41	C	1.077673	0.203626	0.446117
C42	C	1.077290	0.204368	0.553238
C43	C	0.971787	0.040735	0.553397
C44	C	0.969789	0.041628	0.446269
C45	C	0.990122	0.174563	0.302386
C46	C	0.990181	0.174542	0.697753
H47	H	0.433029	-0.022644	-0.062167
Br48	Br	1.180170	-0.467560	0.000192
H49	H	0.915336	-0.390367	-0.139751
H50	H	0.548037	0.349484	-0.090963
Br51	Br	0.941218	0.443555	0.598516
H52	H	0.856894	0.262038	0.420342
H53	H	1.064963	-0.260437	-0.139736
H54	H	0.577739	-0.018699	0.062974
H55	H	0.856524	0.261942	0.579474
Br56	Br	0.401565	0.168982	0.197871
H57	H	0.933757	0.378654	0.420966
Br58	Br	1.104076	0.367016	0.594869
H59	H	0.434072	-0.022892	0.063353
Br60	Br	0.580117	0.165944	-0.196555
Br61	Br	1.164577	0.080221	0.403663
H62	H	1.129810	0.131304	0.579150
H63	H	0.560214	0.194727	0.153077
Br64	Br	0.383904	0.412730	-0.094406
Br65	Br	0.559851	0.416844	0.096986
H66	H	0.909296	0.012784	0.580461
H67	H	1.094107	0.300099	0.419278
H68	H	0.905390	0.019568	0.420883
H69	H	1.016301	-0.039726	0.419501
H70	H	0.577193	-0.019074	-0.062951
Br71	Br	0.405627	0.158460	-0.197100
H72	H	1.021649	-0.036979	0.578729
Br73	Br	0.384368	0.416353	0.087986
H74	H	0.844671	-0.216656	0.000131
H75	H	0.915266	-0.390419	0.139894
H76	H	1.064894	-0.260664	0.140046
