data_functionalizedCrystal
_audit_creation_method	'MofGen! by Chris Wilmer'
_symmetry_space_group_name_H-M	'P1'
_symmetry_Int_Tables_number	1
_symmetry_cell_setting	triclinic
loop_
_symmetry_equiv_pos_as_xyz
  x,y,z
_cell_length_a	14.971486
_cell_length_b	14.971475
_cell_length_c	13.448316
_cell_angle_alpha	90.005879
_cell_angle_beta	89.993189
_cell_angle_gamma	96.388096
loop_
_atom_site_label
_atom_site_type_symbol
_atom_site_fract_x
_atom_site_fract_y
_atom_site_fract_z
O1	O	0.116518	-1.186953	-0.082672
O2	O	0.130487	-0.926552	-0.082679
O3	O	-0.006697	-1.063732	-0.082668
O4	O	0.253703	-1.049773	-0.082683
O5	O	-0.006706	-1.063715	0.082716
O6	O	0.130479	-0.926535	0.082705
O7	O	0.116510	-1.186936	0.082712
Cu8	Cu	0.123494	-1.056734	0.097809
Cu9	Cu	0.123504	-1.056754	-0.097776
O10	O	0.253695	-1.049756	0.082701
C11	C	0.129860	-0.893218	0.000013
C12	C	0.127993	-0.793921	0.000010
C13	C	0.127109	-0.747267	0.090162
C14	C	0.125341	-0.653968	0.090162
C15	C	0.124463	-0.607324	0.000010
C16	C	0.125344	-0.653985	-0.090148
C17	C	0.127106	-0.747283	-0.090148
C18	C	0.121674	-0.459523	-0.090143
C19	C	0.119914	-0.366218	-0.090144
C20	C	0.119909	-0.366207	0.090167
C21	C	0.121671	-0.459505	0.090168
C22	C	0.122554	-0.506160	0.000009
C23	C	-0.040026	-1.063099	0.000024
C24	C	-0.139323	-1.061228	0.000023
C25	C	-0.196552	-1.141818	0.000025
C26	C	-0.289851	-1.140055	0.000015
C27	C	-0.325920	-1.057701	0.000010
C28	C	-0.268685	-0.977106	0.000004
C29	C	-0.175387	-0.978870	0.000007
C30	C	-0.463147	-0.973434	0.000000
C31	C	-0.556451	-0.971670	-0.000001
C32	C	-0.577611	-1.134620	0.000009
C33	C	-0.484314	-1.136384	0.000012
C34	C	-0.427084	-1.055788	0.000008
C35	C	0.287024	-1.050389	0.000007
C36	C	0.386321	-1.052260	0.000002
N37	N	0.123486	-1.056726	0.235374
C38	C	0.117144	-0.220269	0.000017
C39	C	0.119030	-0.319564	0.000008
N40	N	0.123504	-1.056769	-0.235340
C41	C	0.062766	-1.117488	0.287419
C42	C	0.062765	-1.117494	0.391522
C43	C	0.123490	-1.056741	0.443578
C44	C	0.184213	-0.995972	0.391526
C45	C	0.184209	-0.995963	0.287425
C46	C	0.184219	-0.995997	0.608506
C47	C	0.184225	-0.996007	0.712615
C48	C	0.062775	-1.117528	0.712603
C49	C	0.062771	-1.117519	0.608502
C50	C	0.123496	-1.056751	0.556457
H51	H	0.124606	-0.615988	0.163573
H52	H	0.122393	-0.497506	-0.163560
H53	H	0.119199	-0.328243	-0.163553
F54	F	0.124382	-0.604345	-0.186095
H55	H	0.013321	-1.166970	0.433897
H56	H	0.122391	-0.497479	0.163578
F57	F	-0.001863	-1.182156	0.232026
F58	F	0.118969	-0.316554	0.186122
H59	H	-0.585815	-0.904610	0.000011
F60	F	-0.001853	-1.182183	0.553099
H61	H	0.127828	-0.785268	-0.163558
H62	H	0.233665	-0.946510	0.566134
H63	H	0.233672	-0.946535	0.754994
H64	H	0.233653	-0.946501	0.433916
H65	H	0.233652	-0.946483	0.245050
F66	F	-0.114480	-0.893095	0.000001
F67	F	-0.158173	-1.229472	0.000041
H68	H	-0.336444	-1.205679	0.000020
H69	H	-0.454950	-1.203443	0.000023
F70	F	-0.638520	-1.220397	0.000008
F71	F	-0.402241	-0.887654	-0.000006
F72	F	0.128050	-0.796899	0.186116
H73	H	0.013331	-1.167007	0.754985
F74	F	-0.307074	-0.889458	-0.000013
