data_functionalizedCrystal
_audit_creation_method	'MofGen! by Chris Wilmer'
_symmetry_space_group_name_H-M	'P1'
_symmetry_Int_Tables_number	1
_symmetry_cell_setting	triclinic
loop_
_symmetry_equiv_pos_as_xyz
  x,y,z
_cell_length_a	14.908941
_cell_length_b	14.908520
_cell_length_c	14.908308
_cell_angle_alpha	83.639235
_cell_angle_beta	83.630660
_cell_angle_gamma	96.419019
loop_
_atom_site_label
_atom_site_type_symbol
_atom_site_fract_x
_atom_site_fract_y
_atom_site_fract_z
Zn1	Zn	-1.335359	0.308088	-0.450935
Zn2	Zn	-0.835359	0.808088	0.049065
Zn3	Zn	-1.335256	0.450739	-0.308311
Zn4	Zn	-0.835256	0.950739	0.191689
Zn5	Zn	-1.192730	0.308126	-0.308312
Zn6	Zn	-0.692730	0.808126	0.191688
Zn7	Zn	-1.174091	0.469283	-0.469473
Zn8	Zn	-0.674091	0.969283	0.030527
O9	O	-1.259359	0.384059	-0.384258
O10	O	-0.759359	0.884059	0.115742
O11	O	-1.462484	0.319234	-0.424257
O12	O	-0.962484	0.819234	0.075743
O13	O	-1.324107	0.424077	-0.181177
O14	O	-0.824107	0.924077	0.318823
O15	O	-1.219494	0.180976	-0.319473
O16	O	-0.719494	0.680976	0.180527
O17	O	-1.462408	0.424040	-0.319472
O18	O	-0.962408	0.924040	0.180528
O19	O	-1.324283	0.180948	-0.424258
O20	O	-0.824283	0.680948	0.075742
O21	O	-1.219394	0.319299	-0.181177
O22	O	-0.719394	0.819299	0.318823
O23	O	-1.063119	0.337280	-0.337448
O24	O	-0.563119	0.837280	0.162552
O25	O	-1.187726	0.455645	-0.594148
O26	O	-0.687726	0.955645	-0.094148
O27	O	-1.049425	0.455682	-0.455853
O28	O	-0.549425	0.955682	0.044147
O29	O	-1.306209	0.337216	-0.580529
O30	O	-0.806209	0.837216	-0.080529
O31	O	-1.306033	0.580344	-0.337448
O32	O	-0.806033	1.080344	0.162552
O33	O	-1.187626	0.593968	-0.455852
O34	O	-0.687626	1.093968	0.044148
C35	C	-1.023306	0.398498	-0.398663
C36	C	-0.523306	0.898498	0.101337
C37	C	-0.922319	0.404698	-0.404848
C38	C	-0.422319	0.904698	0.095152
C39	C	-0.746763	0.292893	-0.293328
C40	C	-0.246763	0.792893	0.206672
C41	C	-0.651877	0.298715	-0.299137
C42	C	-0.151877	0.798715	0.200863
C43	C	-0.637659	0.422170	-0.422269
C44	C	-0.137659	0.922170	0.077731
C45	C	-0.732545	0.416347	-0.416460
C46	C	-0.232545	0.916347	0.083540
C47	C	-0.787094	0.351706	-0.351989
C48	C	-0.287094	0.851706	0.148011
C49	C	-0.881982	0.345879	-0.346185
C50	C	-0.381982	0.845879	0.153815
C51	C	-0.867763	0.469337	-0.469312
C52	C	-0.367763	0.969337	0.030688
C53	C	-0.772877	0.475160	-0.475121
C54	C	-0.272877	0.975160	0.024879
C55	C	-1.244819	0.620123	-0.398680
C56	C	-0.744819	1.120123	0.101320
C57	C	-1.238680	0.721110	-0.404875
C58	C	-0.738680	1.221110	0.095125
C59	C	-1.244900	0.398495	-0.621225
C60	C	-0.744900	0.898495	-0.121225
C61	C	-1.238738	0.404646	-0.722206
C62	C	-0.738738	0.904646	-0.222206
C63	C	-0.496335	0.369555	-0.369790
C64	C	0.003665	0.869555	0.130210
C65	C	-0.597322	0.363351	-0.363606
C66	C	-0.097322	0.863351	0.136394
C67	C	-1.273979	0.147073	-0.369797
C68	C	-0.773979	0.647073	0.130203
C69	C	-1.280210	0.046083	-0.363635
C70	C	-0.780210	0.546083	0.136365
C71	C	-1.350556	0.896624	-0.293309
C72	C	-0.850556	1.396624	0.206691
C73	C	-1.344791	0.991509	-0.299126
C74	C	-0.844791	1.491509	0.200874
C75	C	-1.221391	1.005766	-0.422332
C76	C	-0.721391	1.505766	0.077668
C77	C	-1.227156	0.910881	-0.416515
C78	C	-0.727156	1.410881	0.083485
C79	C	-1.291739	0.856313	-0.352000
C80	C	-0.791739	1.356313	0.148000
C81	C	-1.297499	0.761426	-0.346178
C82	C	-0.797499	1.261426	0.153822
C83	C	-1.174104	0.775686	-0.469388
C84	C	-0.674104	1.275686	0.030612
C85	C	-1.168339	0.870571	-0.475206
C86	C	-0.668339	1.370571	0.024794
C87	C	-1.350535	0.292864	-0.897779
C88	C	-0.850535	0.792864	-0.397779
C89	C	-1.344748	0.298640	-0.992660
C90	C	-0.844748	0.798640	-0.492660
C91	C	-1.221375	0.421971	-1.006850
C92	C	-0.721375	0.921971	-0.506850
C93	C	-1.227162	0.416194	-0.911969
C94	C	-0.727162	0.916194	-0.411969
C95	C	-1.291745	0.351640	-0.857437
C96	C	-0.791745	0.851640	-0.357437
C97	C	-1.297535	0.345868	-0.762555
C98	C	-0.797535	0.845868	-0.262555
C99	C	-1.174158	0.469194	-0.776746
C100	C	-0.674158	0.969194	-0.276746
C101	C	-1.168372	0.474970	-0.871627
C102	C	-0.668372	0.974970	-0.371627
C103	C	-1.273818	0.369611	-0.148205
C104	C	-0.773818	0.869611	0.351795
C105	C	-1.280172	0.363193	-0.047198
C106	C	-0.780172	0.863193	0.452802
H107	H	-0.728451	0.527791	-0.527609
H108	H	-0.228451	1.027791	-0.027609
O109	O	-1.420212	0.837753	-0.223738
O110	O	-0.920212	1.337753	0.276262
H111	H	-1.407944	0.852603	-0.154482
H112	H	-0.907944	1.352603	0.345518
O113	O	-0.805596	0.223173	-0.223794
O114	O	-0.305596	0.723173	0.276206
H115	H	-0.849183	0.176833	-0.259064
H116	H	-0.349183	0.676833	0.240936
O117	O	-0.940811	0.276164	-0.276643
O118	O	-0.440811	0.776164	0.223357
H119	H	-0.984398	0.229815	-0.311903
H120	H	-0.484398	0.729815	0.188097
O121	O	-1.110719	0.532589	-0.733255
O122	O	-0.610719	1.032589	-0.233255
H123	H	-1.151150	0.573706	-0.690361
H124	H	-0.651150	1.073706	-0.190361
O125	O	-1.367193	0.276245	-0.703739
O126	O	-0.867193	0.776245	-0.203739
H127	H	-1.361350	0.282108	-0.630984
H128	H	-0.861350	0.782108	-0.130984
H129	H	-1.392687	1.024326	-0.251336
H130	H	-0.892687	1.524326	0.248664
H131	H	-0.619043	0.250823	-0.251370
H132	H	-0.119043	0.750823	0.248630
H133	H	-1.350084	0.716997	-0.293645
H134	H	-0.850084	1.216997	0.206355
H135	H	-1.403125	0.240305	-0.853378
H136	H	-0.903125	0.740305	-0.353378
O137	O	-1.151727	1.064627	-0.491903
O138	O	-0.651727	1.564627	0.008097
H139	H	-1.157597	1.137378	-0.486079
H140	H	-0.657597	1.637378	0.013921
O141	O	-0.911260	0.532775	-0.532593
O142	O	-0.411260	1.032775	-0.032593
H143	H	-0.954127	0.573814	-0.492039
H144	H	-0.454127	1.073814	0.007961
H145	H	-1.115789	0.527527	-0.916039
H146	H	-0.615789	1.027527	-0.416039
O147	O	-1.408162	0.235253	-1.036177
O148	O	-0.908162	0.735253	-0.536177
H149	H	-1.454044	0.189401	-0.982314
H150	H	-0.954044	0.689401	-0.482314
O151	O	-1.098671	0.929426	-0.544776
O152	O	-0.598671	1.429426	-0.044776
H153	H	-1.104535	1.002179	-0.538956
H154	H	-0.604535	1.502179	-0.038956
H155	H	-0.593230	0.474805	-0.474750
H156	H	-0.093230	0.974805	0.025250
O157	O	-1.110644	0.732216	-0.532687
O158	O	-0.610644	1.232216	-0.032687
H159	H	-1.120690	0.753785	-0.604176
H160	H	-0.620690	1.253785	-0.104176
H161	H	-1.168795	0.474528	-1.051266
H162	H	-0.668795	0.974528	-0.551266
