data_functionalizedCrystal
_audit_creation_method	'MofGen! by Chris Wilmer'
_symmetry_space_group_name_H-M	'P1'
_symmetry_Int_Tables_number	1
_symmetry_cell_setting	triclinic
loop_
_symmetry_equiv_pos_as_xyz
  x,y,z
_cell_length_a	21.295420
_cell_length_b	21.295417
_cell_length_c	21.295411
_cell_angle_alpha	90.020597
_cell_angle_beta	90.024693
_cell_angle_gamma	90.027953
loop_
_atom_site_label
_atom_site_type_symbol
_atom_site_fract_x
_atom_site_fract_y
_atom_site_fract_z
Zn1	Zn	0.962359	-0.250710	0.355918
Zn2	Zn	1.212359	-0.000710	0.605918
Zn3	Zn	1.462359	0.249290	0.855918
Zn4	Zn	1.712359	0.499290	1.105918
Zn5	Zn	0.962263	-0.355962	0.250646
Zn6	Zn	1.212263	-0.105962	0.500646
Zn7	Zn	1.462263	0.144038	0.750646
Zn8	Zn	1.712263	0.394038	1.000646
Zn9	Zn	0.857082	-0.250708	0.250663
Zn10	Zn	1.107082	-0.000708	0.500663
Zn11	Zn	1.357082	0.249292	0.750663
Zn12	Zn	1.607082	0.499292	1.000663
Zn13	Zn	0.857053	-0.355942	0.355877
Zn14	Zn	1.107053	-0.105942	0.605877
Zn15	Zn	1.357053	0.144058	0.855877
Zn16	Zn	1.607053	0.394058	1.105877
O17	O	0.909689	-0.303331	0.303276
O18	O	1.159689	-0.053331	0.553276
O19	O	1.409689	0.196669	0.803276
O20	O	1.659689	0.446669	1.053276
O21	O	1.050435	-0.264682	0.341964
O22	O	1.300435	-0.014682	0.591964
O23	O	1.550435	0.235318	0.841964
O24	O	1.800435	0.485318	1.091964
O25	O	0.948282	-0.342007	0.162558
O26	O	1.198282	-0.092007	0.412558
O27	O	1.448282	0.157993	0.662558
O28	O	1.698282	0.407993	0.912558
O29	O	0.871100	-0.162619	0.264650
O30	O	1.121100	0.087381	0.514650
O31	O	1.371100	0.337381	0.764650
O32	O	1.621100	0.587381	1.014650
O33	O	1.050365	-0.342010	0.264620
O34	O	1.300365	-0.092010	0.514620
O35	O	1.550365	0.157990	0.764620
O36	O	1.800365	0.407990	1.014620
O37	O	0.948446	-0.162621	0.341980
O38	O	1.198446	0.087379	0.591980
O39	O	1.448446	0.337379	0.841980
O40	O	1.698446	0.587379	1.091980
O41	O	0.871006	-0.264677	0.162571
O42	O	1.121006	-0.014677	0.412571
O43	O	1.371006	0.235323	0.662571
O44	O	1.621006	0.485323	0.912571
O45	O	0.768989	-0.264658	0.264610
O46	O	1.018989	-0.014658	0.514610
O47	O	1.268989	0.235342	0.764610
O48	O	1.518989	0.485342	1.014610
O49	O	0.871050	-0.341976	0.443972
O50	O	1.121050	-0.091976	0.693972
O51	O	1.371050	0.158024	0.943972
O52	O	1.621050	0.408024	1.193972
O53	O	0.768967	-0.341973	0.341910
O54	O	1.018967	-0.091973	0.591910
O55	O	1.268967	0.158027	0.841910
O56	O	1.518967	0.408027	1.091910
O57	O	0.948418	-0.264662	0.444002
O58	O	1.198418	-0.014662	0.694002
O59	O	1.448418	0.235338	0.944002
O60	O	1.698418	0.485338	1.194002
O61	O	0.948254	-0.444049	0.264580
O62	O	1.198254	-0.194049	0.514580
O63	O	1.448254	0.055951	0.764580
O64	O	1.698254	0.305951	1.014580
O65	O	0.870957	-0.444034	0.341893
O66	O	1.120957	-0.194034	0.591893
O67	O	1.370957	0.055966	0.841893
O68	O	1.620957	0.305966	1.091893
C69	C	0.746138	-0.303314	0.303258
C70	C	0.996138	-0.053314	0.553258
C71	C	1.246138	0.196686	0.803258
C72	C	1.496138	0.446686	1.053258
C73	C	0.676169	-0.303321	0.303265
C74	C	0.926169	-0.053321	0.553265
C75	C	1.176169	0.196679	0.803265
C76	C	1.426169	0.446679	1.053265
C77	C	0.909609	-0.466882	0.303244
C78	C	1.159609	-0.216882	0.553244
C79	C	1.409609	0.033118	0.803244
C80	C	1.659609	0.283118	1.053244
C81	C	0.909632	-0.536850	0.303251
C82	C	1.159632	-0.286850	0.553251
C83	C	1.409632	-0.036850	0.803251
C84	C	1.659632	0.213150	1.053251
C85	C	0.176717	-0.343663	0.343487
C86	C	0.426717	-0.093663	0.593487
C87	C	0.676717	0.156337	0.843487
C88	C	0.926717	0.406337	1.093487
C89	C	0.242459	-0.343663	0.343480
C90	C	0.492459	-0.093663	0.593480
C91	C	0.742459	0.156337	0.843480
C92	C	0.992459	0.406337	1.093480
C93	C	0.275330	-0.303345	0.303296
C94	C	0.525330	-0.053345	0.553296
C95	C	0.775330	0.196655	0.803296
C96	C	1.025330	0.446655	1.053296
C97	C	0.242453	-0.263035	0.263103
C98	C	0.492453	-0.013035	0.513103
C99	C	0.742453	0.236965	0.763103
C100	C	0.992453	0.486965	1.013103
C101	C	0.176711	-0.263040	0.263106
C102	C	0.426711	-0.013040	0.513106
C103	C	0.676711	0.236960	0.763106
C104	C	0.926711	0.486960	1.013106
N105	N	0.378570	-0.248227	0.298562
N106	N	0.628570	0.001773	0.548562
N107	N	0.878570	0.251773	0.798562
N108	N	1.128570	0.501773	1.048562
N109	N	0.441021	-0.248224	0.298563
N110	N	0.691021	0.001776	0.548563
N111	N	0.941021	0.251776	0.798563
N112	N	1.191021	0.501776	1.048563
C113	C	0.473405	-0.303327	0.303282
C114	C	0.723405	-0.053327	0.553282
C115	C	0.973405	0.196673	0.803282
C116	C	1.223405	0.446673	1.053282
N117	N	0.440977	-0.358435	0.308014
N118	N	0.690977	-0.108435	0.558014
N119	N	0.940977	0.141565	0.808014
N120	N	1.190977	0.391565	1.058014
N121	N	0.378520	-0.358438	0.308017
N122	N	0.628520	-0.108438	0.558017
N123	N	0.878520	0.141562	0.808017
N124	N	1.128520	0.391562	1.058017
C125	C	0.346615	-0.303335	0.303287
C126	C	0.596615	-0.053335	0.553287
C127	C	0.846615	0.196665	0.803287
C128	C	1.096615	0.446665	1.053287
C129	C	0.577560	-0.343638	0.343462
C130	C	0.827560	-0.093638	0.593462
C131	C	1.077560	0.156362	0.843462
C132	C	1.327560	0.406362	1.093462
C133	C	0.643303	-0.343639	0.343451
C134	C	0.893303	-0.093639	0.593451
C135	C	1.143303	0.156361	0.843451
C136	C	1.393303	0.406361	1.093451
C137	C	0.643295	-0.263005	0.263077
C138	C	0.893295	-0.013005	0.513077
C139	C	1.143295	0.236995	0.763077
C140	C	1.393295	0.486995	1.013077
C141	C	0.577553	-0.263010	0.263085
C142	C	0.827553	-0.013010	0.513085
C143	C	1.077553	0.236990	0.763085
C144	C	1.327553	0.486990	1.013085
C145	C	0.544689	-0.303325	0.303281
C146	C	0.794689	-0.053325	0.553281
C147	C	1.044689	0.196675	0.803281
C148	C	1.294689	0.446675	1.053281
C149	C	0.949883	-0.569661	0.343546
C150	C	1.199883	-0.319661	0.593546
C151	C	1.449883	-0.069661	0.843546
C152	C	1.699883	0.180339	1.093546
C153	C	0.949906	-0.635403	0.343562
C154	C	1.199906	-0.385403	0.593562
C155	C	1.449906	-0.135403	0.843562
C156	C	1.699906	0.114597	1.093562
C157	C	0.909683	-0.668333	0.303271
C158	C	1.159683	-0.418333	0.553271
C159	C	1.409683	-0.168333	0.803271
C160	C	1.659683	0.081667	1.053271
C161	C	0.869424	-0.635514	0.262974
C162	C	1.119424	-0.385514	0.512974
C163	C	1.369424	-0.135514	0.762974
C164	C	1.619424	0.114486	1.012974
C165	C	0.869399	-0.569773	0.262964
C166	C	1.119399	-0.319773	0.512964
C167	C	1.369399	-0.069773	0.762964
C168	C	1.619399	0.180227	1.012964
N169	N	0.904924	-0.771585	0.248180
N170	N	1.154924	-0.521585	0.498180
N171	N	1.404924	-0.271585	0.748180
N172	N	1.654924	-0.021585	0.998180
N173	N	0.904952	-0.834036	0.248191
N174	N	1.154952	-0.584036	0.498191
N175	N	1.404952	-0.334036	0.748191
N176	N	1.654952	-0.084036	0.998191
C177	C	0.909757	-0.866407	0.303300
C178	C	1.159757	-0.616407	0.553300
C179	C	1.409757	-0.366407	0.803300
C180	C	1.659757	-0.116407	1.053300
N181	N	0.914545	-0.833968	0.358398
N182	N	1.164545	-0.583968	0.608398
N183	N	1.414545	-0.333968	0.858398
N184	N	1.664545	-0.083968	1.108398
N185	N	0.914520	-0.771511	0.358386
N186	N	1.164520	-0.521511	0.608386
N187	N	1.414520	-0.271511	0.858386
N188	N	1.664520	-0.021511	1.108386
C189	C	0.909706	-0.739618	0.303278
C190	C	1.159706	-0.489618	0.553278
C191	C	1.409706	-0.239618	0.803278
C192	C	1.659706	0.010382	1.053278
C193	C	0.950034	-0.970504	0.343615
C194	C	1.200034	-0.720504	0.593615
C195	C	1.450034	-0.470504	0.843615
C196	C	1.700034	-0.220504	1.093615
C197	C	0.950052	-1.036247	0.343631
C198	C	1.200052	-0.786247	0.593631
C199	C	1.450052	-0.536247	0.843631
C200	C	1.700052	-0.286247	1.093631
C201	C	0.869574	-1.036357	0.263038
C202	C	1.119574	-0.786357	0.513038
C203	C	1.369574	-0.536357	0.763038
C204	C	1.619574	-0.286357	1.013038
C205	C	0.869553	-0.970615	0.263027
C206	C	1.119553	-0.720615	0.513027
C207	C	1.369553	-0.470615	0.763027
C208	C	1.619553	-0.220615	1.013027
C209	C	0.909786	-0.937692	0.303314
C210	C	1.159786	-0.687692	0.553314
C211	C	1.409786	-0.437692	0.803314
C212	C	1.659786	-0.187692	1.053314
C213	C	1.073879	-0.303348	0.303294
C214	C	1.323879	-0.053348	0.553294
C215	C	1.573879	0.196652	0.803294
C216	C	1.823879	0.446652	1.053294
C217	C	1.143847	-0.303356	0.303302
C218	C	1.393847	-0.053356	0.553302
C219	C	1.643847	0.196644	0.803302
C220	C	1.893847	0.446644	1.053302
C221	C	0.909741	-0.303317	0.467466
C222	C	1.159741	-0.053317	0.717466
C223	C	1.409741	0.196683	0.967466
C224	C	1.659741	0.446683	1.217466
C225	C	0.909764	-0.303312	0.537434
C226	C	1.159764	-0.053312	0.787434
C227	C	1.409764	0.196688	1.037434
C228	C	1.659764	0.446688	1.287434
C229	C	0.909787	-0.139140	0.303322
C230	C	1.159787	0.110860	0.553322
C231	C	1.409787	0.360860	0.803322
C232	C	1.659787	0.610860	1.053322
C233	C	0.909828	-0.069172	0.303341
C234	C	1.159828	0.180828	0.553341
C235	C	1.409828	0.430828	0.803341
C236	C	1.659828	0.680828	1.053341
C237	C	0.909673	-0.303298	0.139724
C238	C	1.159673	-0.053298	0.389724
C239	C	1.409673	0.196702	0.639724
C240	C	1.659673	0.446702	0.889724
C241	C	0.909773	-0.303127	0.069757
C242	C	1.159773	-0.053127	0.319757
C243	C	1.409773	0.196873	0.569757
C244	C	1.659773	0.446873	0.819757
C245	C	0.950047	-0.263053	0.570318
C246	C	1.200047	-0.013053	0.820318
C247	C	1.450047	0.236947	1.070318
C248	C	1.700047	0.486947	1.320318
C249	C	0.950046	-0.263025	0.636060
C250	C	1.200046	-0.013025	0.886060
C251	C	1.450046	0.236975	1.136060
C252	C	1.700046	0.486975	1.386060
C253	C	0.909769	-0.303268	0.668917
C254	C	1.159769	-0.053268	0.918917
C255	C	1.409769	0.196732	1.168917
C256	C	1.659769	0.446732	1.418917
C257	C	0.869477	-0.343530	0.636026
C258	C	1.119477	-0.093530	0.886026
C259	C	1.369477	0.156470	1.136026
C260	C	1.619477	0.406470	1.386026
C261	C	0.869475	-0.343552	0.570284
C262	C	1.119475	-0.093552	0.820284
C263	C	1.369475	0.156448	1.070284
C264	C	1.619475	0.406448	1.320284
N265	N	0.904913	-0.358336	0.772133
N266	N	1.154913	-0.108336	1.022133
N267	N	1.404913	0.141664	1.272133
N268	N	1.654913	0.391664	1.522133
N269	N	0.904919	-0.358314	0.834585
N270	N	1.154919	-0.108314	1.084585
N271	N	1.404919	0.141686	1.334585
N272	N	1.654919	0.391686	1.584585
C273	C	0.909773	-0.303204	0.866992
C274	C	1.159773	-0.053204	1.116992
C275	C	1.409773	0.196796	1.366992
C276	C	1.659773	0.446796	1.616992
N277	N	0.914632	-0.248117	0.834588
N278	N	1.164632	0.001883	1.084588
N279	N	1.414632	0.251883	1.334588
N280	N	1.664632	0.501883	1.584588
N281	N	0.914630	-0.248141	0.772131
N282	N	1.164630	0.001859	1.022131
N283	N	1.414630	0.251859	1.272131
N284	N	1.664630	0.501859	1.522131
C285	C	0.909766	-0.303249	0.740202
C286	C	1.159766	-0.053249	0.990202
C287	C	1.409766	0.196751	1.240202
C288	C	1.659766	0.446751	1.490202
C289	C	0.950057	-0.262913	0.971161
C290	C	1.200057	-0.012913	1.221161
C291	C	1.450057	0.237087	1.471161
C292	C	1.700057	0.487087	1.721161
C293	C	0.950052	-0.262884	1.036905
C294	C	1.200052	-0.012884	1.286905
C295	C	1.450052	0.237116	1.536905
C296	C	1.700052	0.487116	1.786905
C297	C	0.869486	-0.343394	1.036869
C298	C	1.119486	-0.093394	1.286869
C299	C	1.369486	0.156606	1.536869
C300	C	1.619486	0.406606	1.786869
C301	C	0.869488	-0.343417	0.971126
C302	C	1.119488	-0.093417	1.221126
C303	C	1.369488	0.156583	1.471126
C304	C	1.619488	0.406583	1.721126
C305	C	0.909777	-0.303177	0.938276
C306	C	1.159777	-0.053177	1.188276
C307	C	1.409777	0.196823	1.438276
C308	C	1.659777	0.446823	1.688276
H309	H	0.149963	-0.376493	0.376216
H310	H	0.399963	-0.126493	0.626216
H311	H	0.649963	0.123507	0.876216
H312	H	0.899963	0.373507	1.126216
Br313	Br	0.287078	-0.398370	0.398020
Br314	Br	0.537078	-0.148370	0.648020
Br315	Br	0.787078	0.101630	0.898020
Br316	Br	1.037078	0.351630	1.148020
H317	H	0.269220	-0.230208	0.230383
H318	H	0.519220	0.019792	0.480383
H319	H	0.769220	0.269792	0.730383
H320	H	1.019220	0.519792	0.980383
H321	H	0.670064	-0.376467	0.376173
H322	H	0.920064	-0.126467	0.626173
H323	H	1.170064	0.123533	0.876173
H324	H	1.420064	0.373533	1.126173
Br325	Br	0.814815	-0.398059	0.926495
Br326	Br	1.064815	-0.148059	1.176495
Br327	Br	1.314815	0.101941	1.426495
Br328	Br	1.564815	0.351941	1.676495
Br329	Br	0.132100	-0.208333	0.208566
Br330	Br	0.382100	0.041667	0.458566
Br331	Br	0.632100	0.291667	0.708566
Br332	Br	0.882100	0.541667	0.958566
H333	H	0.836673	-0.662330	0.230170
H334	H	1.086673	-0.412330	0.480170
H335	H	1.336673	-0.162330	0.730170
H336	H	1.586673	0.087670	0.980170
Br337	Br	0.814809	-0.398142	0.680615
Br338	Br	1.064809	-0.148142	0.930615
Br339	Br	1.314809	0.101858	1.180615
Br340	Br	1.564809	0.351858	1.430615
Br341	Br	1.004634	-0.925819	0.398291
Br342	Br	1.254634	-0.675819	0.648291
Br343	Br	1.504634	-0.425819	0.898291
Br344	Br	1.754634	-0.175819	1.148291
Br345	Br	0.814799	-0.398192	0.525653
Br346	Br	1.064799	-0.148192	0.775653
Br347	Br	1.314799	0.101808	1.025653
Br348	Br	1.564799	0.351808	1.275653
H349	H	0.670058	-0.230180	0.230355
H350	H	0.920058	0.019820	0.480355
H351	H	1.170058	0.269820	0.730355
H352	H	1.420058	0.519820	0.980355
H353	H	0.982853	-0.230285	0.543575
H354	H	1.232853	0.019715	0.793575
H355	H	1.482853	0.269715	1.043575
H356	H	1.732853	0.519715	1.293575
H357	H	0.982829	-1.062960	0.376447
H358	H	1.232829	-0.812960	0.626447
H359	H	1.482829	-0.562960	0.876447
H360	H	1.732829	-0.312960	1.126447
Br361	Br	0.532941	-0.208300	0.208549
Br362	Br	0.782941	0.041700	0.458549
Br363	Br	1.032941	0.291700	0.708549
Br364	Br	1.282941	0.541700	0.958549
H365	H	0.982860	-0.230143	0.944413
H366	H	1.232860	0.019857	1.194413
H367	H	1.482860	0.269857	1.444413
H368	H	1.732860	0.519857	1.694413
Br369	Br	1.004737	-0.208252	1.081534
Br370	Br	1.254737	0.041748	1.331534
Br371	Br	1.504737	0.291748	1.581534
Br372	Br	1.754737	0.541748	1.831534
H373	H	0.982642	-0.542857	0.376352
H374	H	1.232642	-0.292857	0.626352
H375	H	1.482642	-0.042857	0.876352
H376	H	1.732642	0.207143	1.126352
H377	H	0.982678	-0.662123	0.376382
H378	H	1.232678	-0.412123	0.626382
H379	H	1.482678	-0.162123	0.876382
H380	H	1.732678	0.087877	1.126382
Br381	Br	0.814981	-1.081040	0.208360
Br382	Br	1.064981	-0.831040	0.458360
Br383	Br	1.314981	-0.581040	0.708360
Br384	Br	1.564981	-0.331040	0.958360
H385	H	0.550800	-0.376466	0.376191
H386	H	0.800800	-0.126466	0.626191
H387	H	1.050800	0.123534	0.876191
H388	H	1.300800	0.373534	1.126191
Br389	Br	0.814921	-0.926083	0.208339
Br390	Br	1.064921	-0.676083	0.458339
Br391	Br	1.314921	-0.426083	0.708339
Br392	Br	1.564921	-0.176083	0.958339
H393	H	0.836621	-0.543058	0.230150
H394	H	1.086621	-0.293058	0.480150
H395	H	1.336621	-0.043058	0.730150
H396	H	1.586621	0.206942	0.980150
H397	H	0.982849	-0.230238	0.662839
H398	H	1.232849	0.019762	0.912839
H399	H	1.482849	0.269762	1.162839
H400	H	1.732849	0.519762	1.412839
Br401	Br	0.814814	-0.398003	1.081452
Br402	Br	1.064814	-0.148003	1.331452
Br403	Br	1.314814	0.101997	1.581452
Br404	Br	1.564814	0.351997	1.831452
