data_functionalizedCrystal
_audit_creation_method	'MofGen! by Chris Wilmer'
_symmetry_space_group_name_H-M	'P1'
_symmetry_Int_Tables_number	1
_symmetry_cell_setting	triclinic
loop_
_symmetry_equiv_pos_as_xyz
  x,y,z
_cell_length_a	14.853567
_cell_length_b	14.853567
_cell_length_c	13.330367
_cell_angle_alpha	90.000844
_cell_angle_beta	89.995418
_cell_angle_gamma	96.365070
loop_
_atom_site_label
_atom_site_type_symbol
_atom_site_fract_x
_atom_site_fract_y
_atom_site_fract_z
O1	O	1.196369	-0.117704	-0.083346
O2	O	0.933909	-0.131725	-0.083362
O3	O	1.072150	0.006515	-0.083356
O4	O	1.058128	-0.255944	-0.083351
O5	O	1.072130	0.006519	0.083491
O6	O	0.933889	-0.131722	0.083485
O7	O	1.196349	-0.117700	0.083501
Cu8	Cu	1.065117	-0.124711	0.098728
Cu9	Cu	1.065141	-0.124715	-0.098588
O10	O	1.058108	-0.255941	0.083496
C11	C	0.900311	-0.131088	0.000060
C12	C	0.800227	-0.129184	0.000053
C13	C	0.387693	-0.039019	0.000074
C14	C	0.366412	-0.203251	0.000076
C15	C	0.460446	-0.205042	0.000073
C16	C	0.518108	-0.123819	0.000069
C17	C	0.481736	-0.040806	0.000067
C18	C	0.496825	-0.288053	0.000064
C19	C	0.590864	-0.289846	0.000059
C20	C	0.648528	-0.208623	0.000062
C21	C	0.612150	-0.125607	0.000062
C22	C	0.669812	-0.044384	0.000058
C23	C	0.633437	0.038633	0.000065
C24	C	0.539399	0.040417	0.000070
C25	C	0.742565	-0.210407	0.000057
C26	C	0.763855	-0.046172	0.000052
C27	C	1.071504	0.040106	0.000064
C28	C	1.069601	0.140189	0.000055
C29	C	1.229947	-0.118337	0.000078
C30	C	1.330031	-0.120241	0.000078
C31	C	1.058754	-0.289531	0.000073
C32	C	1.060657	-0.389615	0.000075
N33	N	1.065107	-0.124708	0.237509
C34	C	0.979435	0.552723	0.000069
C35	C	1.143668	0.574004	0.000079
C36	C	1.145458	0.479971	0.000073
C37	C	1.064235	0.422309	0.000067
C38	C	0.981223	0.458680	0.000066
C39	C	1.228469	0.443591	0.000084
C40	C	1.230262	0.349552	0.000079
C41	C	1.149039	0.291889	0.000066
C42	C	1.066023	0.328266	0.000064
C43	C	0.984800	0.270604	0.000058
C44	C	0.901783	0.306979	0.000049
C45	C	0.899999	0.401017	0.000053
C46	C	1.150823	0.197851	0.000062
C47	C	0.986588	0.176561	0.000055
N48	N	1.065158	-0.124711	-0.237370
C49	C	1.003925	-0.185903	0.710130
C50	C	1.126381	-0.063519	0.710103
C51	C	1.126371	-0.063516	0.605084
C52	C	1.065138	-0.124709	0.552584
C53	C	1.003915	-0.185904	0.605102
C54	C	1.187598	-0.002328	0.552559
C55	C	1.187591	-0.002323	0.447534
C56	C	1.126353	-0.063512	0.395031
C57	C	1.065127	-0.124710	0.447556
C58	C	1.003895	-0.185902	0.395055
C59	C	0.942664	-0.247096	0.447578
C60	C	0.942677	-0.247093	0.552599
C61	C	1.126340	-0.063515	0.290010
C62	C	1.003884	-0.185903	0.290027
H63	H	0.449870	-0.354180	0.000057
H64	H	0.832411	0.430643	0.000046
O65	O	0.781795	-0.299938	0.000054
H66	H	0.824128	-0.304685	-0.067954
H67	H	0.620472	-0.357443	0.000053
O68	O	1.253637	0.063668	0.609185
H69	H	1.323926	0.052043	0.589026
H70	H	1.297860	0.319944	0.000085
H71	H	1.209795	0.620958	0.000092
O72	O	0.304220	-0.290850	0.000091
H73	H	0.260863	-0.293965	-0.067905
H74	H	1.294596	0.490546	0.000099
O75	O	1.192428	0.002473	0.766724
H76	H	1.180861	0.072777	0.746570
H77	H	1.218414	0.168238	0.000076
H78	H	1.237447	0.047504	0.404776
O79	O	0.876612	-0.313080	0.390937
H80	H	0.914605	-0.356963	0.343071
O81	O	0.889896	0.591946	0.000071
H82	H	0.902293	0.667024	0.000082
H83	H	0.920445	0.129618	0.000045
O84	O	0.814178	0.244785	0.000045
H85	H	0.829375	0.173287	0.000043
O86	O	0.937897	-0.251911	0.766776
H87	H	0.895319	-0.294460	0.712621
O88	O	0.876647	-0.313095	0.609249
H89	H	0.888215	-0.383396	0.589078
O90	O	1.192369	0.002480	0.233357
H91	H	1.234948	0.045032	0.287508
H92	H	0.954018	-0.235731	0.247288
H93	H	0.810798	0.019971	0.000052
H94	H	0.509774	0.108005	0.000100
O95	O	0.695631	0.126238	0.000068
H96	H	0.767130	0.111041	0.000067
H97	H	0.358072	0.028572	0.000083
