data_functionalizedCrystal
_audit_creation_method	'MofGen! by Chris Wilmer'
_symmetry_space_group_name_H-M	'P1'
_symmetry_Int_Tables_number	1
_symmetry_cell_setting	triclinic
loop_
_symmetry_equiv_pos_as_xyz
  x,y,z
_cell_length_a	11.792254
_cell_length_b	16.109301
_cell_length_c	14.586319
_cell_angle_alpha	90.005214
_cell_angle_beta	89.996545
_cell_angle_gamma	96.169961
loop_
_atom_site_label
_atom_site_type_symbol
_atom_site_fract_x
_atom_site_fract_y
_atom_site_fract_z
O1	O	1.505899	-0.114003	-0.076243
O2	O	2.005899	0.385997	0.423757
O3	O	1.175457	-0.125737	-0.076245
O4	O	1.675457	0.374263	0.423755
O5	O	1.349755	0.001118	-0.076234
O6	O	1.849755	0.501118	0.423766
O7	O	1.331600	-0.240858	-0.076253
O8	O	1.831600	0.259142	0.423747
O9	O	1.349743	0.001120	0.076246
O10	O	1.849743	0.501120	0.576246
O11	O	1.175445	-0.125735	0.076236
O12	O	1.675445	0.374265	0.576236
O13	O	1.505887	-0.114001	0.076238
O14	O	2.005887	0.385999	0.576238
Cu15	Cu	1.340665	-0.119868	0.090160
Cu16	Cu	1.840665	0.380132	0.590160
Cu17	Cu	1.340679	-0.119870	-0.090167
Cu18	Cu	1.840679	0.380130	0.409833
O19	O	1.331588	-0.240856	0.076228
O20	O	1.831588	0.259144	0.576228
C21	C	1.133166	-0.124996	-0.000005
C22	C	1.633166	0.375004	0.499995
C23	C	1.007173	-0.122784	-0.000005
C24	C	1.507173	0.377216	0.499995
C25	C	0.904852	-0.120987	-0.000009
C26	C	1.404852	0.379013	0.499991
C27	C	0.776485	-0.118739	-0.000010
C28	C	1.276485	0.381261	0.499990
C29	C	1.349014	0.032097	0.000006
C30	C	1.849014	0.532097	0.500006
C31	C	1.346809	0.124403	0.000008
C32	C	1.846809	0.624403	0.500008
C33	C	1.548177	-0.114741	-0.000004
C34	C	2.048177	0.385259	0.499996
C35	C	1.674171	-0.116954	-0.000010
C36	C	2.174171	0.383046	0.499990
C37	C	1.332330	-0.271835	-0.000015
C38	C	1.832330	0.228165	0.499985
C39	C	1.334534	-0.364141	-0.000023
C40	C	1.834534	0.135859	0.499977
N41	N	1.340663	-0.119866	0.216991
N42	N	1.840663	0.380134	0.716991
C43	C	1.445108	0.346210	-0.000006
C44	C	1.945108	0.846210	0.499994
C45	C	1.443027	0.432940	-0.000014
C46	C	1.943027	0.932940	0.499986
C47	C	1.236228	0.414046	-0.000012
C48	C	1.736228	0.914046	0.499988
C49	C	1.238310	0.327317	-0.000011
C50	C	1.738310	0.827317	0.499989
C51	C	1.342753	0.293402	-0.000003
C52	C	1.842753	0.793402	0.499997
C53	C	1.338591	0.466860	-0.000012
C54	C	1.838591	0.966860	0.499988
C55	C	1.336334	0.560897	-0.000020
C56	C	1.836334	1.060897	0.499980
C57	C	1.345010	0.199359	0.000003
C58	C	1.845010	0.699359	0.500003
N59	N	1.340690	-0.119866	-0.216998
N60	N	1.840690	0.380134	0.283002
C61	C	1.417868	-0.063714	0.452002
C62	C	1.917868	0.436286	0.952002
C63	C	1.417871	-0.063712	0.547984
C64	C	1.917871	0.436288	1.047984
C65	C	1.263477	-0.176020	0.547984
C66	C	1.763477	0.323980	1.047984
C67	C	1.263469	-0.176018	0.452004
C68	C	1.763469	0.323982	0.952004
C69	C	1.340671	-0.119865	0.404016
C70	C	1.840671	0.380135	0.904016
C71	C	1.340682	-0.119866	0.595977
C72	C	1.840682	0.380134	1.095977
C73	C	1.340685	-0.119864	0.700044
C74	C	1.840685	0.380136	1.200044
C75	C	1.340667	-0.119866	0.299942
C76	C	1.840667	0.380134	0.799942
H77	H	1.526375	0.475933	-0.000018
H78	H	2.026375	0.975933	0.499982
H79	H	1.530152	0.318599	-0.000002
H80	H	2.030152	0.818599	0.499998
H81	H	1.480729	-0.017990	0.412933
H82	H	1.980729	0.482010	0.912933
O83	O	1.501147	-0.003159	0.599744
O84	O	2.001147	0.496841	1.099744
H85	H	1.554834	0.035878	0.550247
H86	H	2.054834	0.535878	1.050247
H87	H	1.154955	0.284318	-0.000011
H88	H	1.654955	0.784318	0.499989
H89	H	1.200622	-0.221740	0.587065
H90	H	1.700622	0.278260	1.087065
H91	H	1.200600	-0.221744	0.412931
H92	H	1.700600	0.278256	0.912931
H93	H	1.151194	0.441671	-0.000016
H94	H	1.651194	0.941671	0.499984
