data_functionalizedCrystal
_audit_creation_method	'MofGen! by Chris Wilmer'
_symmetry_space_group_name_H-M	'P1'
_symmetry_Int_Tables_number	1
_symmetry_cell_setting	triclinic
loop_
_symmetry_equiv_pos_as_xyz
  x,y,z
_cell_length_a	19.188930
_cell_length_b	9.065218
_cell_length_c	7.540329
_cell_angle_alpha	89.996962
_cell_angle_beta	89.991297
_cell_angle_gamma	84.080333
loop_
_atom_site_label
_atom_site_type_symbol
_atom_site_fract_x
_atom_site_fract_y
_atom_site_fract_z
O1	O	0.102369	1.956847	-0.147510
O2	O	0.110766	1.527271	-0.147515
O3	O	0.005009	1.754456	-0.147478
O4	O	0.208127	1.729662	-0.147547
O5	O	0.005007	1.754442	0.147487
O6	O	0.110765	1.527257	0.147450
O7	O	0.102368	1.956833	0.147455
Cu8	Cu	0.106566	1.742044	0.174385
Cu9	Cu	0.106568	1.742060	-0.174445
O10	O	0.208126	1.729649	0.147418
C11	C	0.109959	1.472305	-0.000032
C12	C	0.107546	1.308546	-0.000033
C13	C	-0.021009	1.753646	0.000010
C14	C	-0.098533	1.751236	0.000025
C15	C	-0.142421	1.884540	0.000035
C16	C	-0.215262	1.882276	0.000006
C17	C	-0.244212	1.746699	0.000004
C18	C	-0.200314	1.613377	-0.000016
C19	C	-0.127474	1.615646	-0.000006
N20	N	-0.353023	1.643063	0.100385
N21	N	-0.422218	1.640917	0.100379
C22	C	-0.463674	1.739858	-0.000032
N23	N	-0.433322	1.841047	-0.100414
N24	N	-0.364120	1.843197	-0.100400
C25	C	-0.323194	1.744225	-0.000009
C26	C	-0.586546	1.870716	-0.000056
C27	C	-0.659388	1.868446	-0.000095
C28	C	-0.644438	1.599544	-0.000100
C29	C	-0.571598	1.601818	-0.000078
C30	C	-0.542656	1.737408	-0.000048
C31	C	0.234144	1.730458	-0.000074
C32	C	0.311667	1.732869	-0.000101
C33	C	0.103176	2.011799	-0.000032
C34	C	0.105589	2.175558	-0.000043
N35	N	0.106565	1.742044	0.419734
N36	N	0.106564	1.742072	-0.419794
H37	H	-0.251003	1.990832	0.000007
H38	H	-0.535863	1.493266	-0.000076
H39	H	-0.223890	1.502990	-0.000022
H40	H	-0.668009	1.489155	-0.000111
H41	H	-0.091740	1.507089	-0.000013
C42	C	-0.110583	2.033683	0.000045
C43	C	-0.062551	2.072222	-0.153118
C44	C	-0.030709	2.221363	-0.153114
C45	C	-0.046900	2.331964	0.000053
C46	C	-0.094934	2.293427	0.153227
C47	C	-0.126775	2.144286	0.153223
H48	H	-0.050564	1.990346	-0.266512
H49	H	0.004849	2.249890	-0.266505
H50	H	-0.023329	2.442366	0.000056
H51	H	-0.106921	2.375302	0.266621
H52	H	-0.162333	2.115759	0.266614
H53	H	-0.562980	1.981122	-0.000039
H54	H	-0.695122	1.977004	-0.000097
