data_functionalizedCrystal
_audit_creation_method	'MofGen! by Chris Wilmer'
_symmetry_space_group_name_H-M	'P1'
_symmetry_Int_Tables_number	1
_symmetry_cell_setting	triclinic
loop_
_symmetry_equiv_pos_as_xyz
  x,y,z
_cell_length_a	19.188930
_cell_length_b	16.109301
_cell_length_c	15.186229
_cell_angle_alpha	90.005167
_cell_angle_beta	90.017233
_cell_angle_gamma	83.303130
loop_
_atom_site_label
_atom_site_type_symbol
_atom_site_fract_x
_atom_site_fract_y
_atom_site_fract_z
O1	O	-0.926386	-0.103796	-0.073514
O2	O	-0.723108	-0.117769	-0.073454
O3	O	-0.830331	0.010267	-0.073477
O4	O	-0.819163	-0.231832	-0.073492
O5	O	-0.830324	0.010268	0.072980
O6	O	-0.723101	-0.117767	0.073003
O7	O	-0.926379	-0.103795	0.072943
Zn8	Zn	-0.824739	-0.110781	0.096226
Zn9	Zn	-0.824748	-0.110783	-0.096738
O10	O	-0.819156	-0.231831	0.072965
C11	C	-0.829875	0.041241	-0.000248
C12	C	-0.828519	0.133532	-0.000246
C13	C	-0.697092	-0.117316	-0.000218
C14	C	-0.619584	-0.115958	-0.000195
C15	C	-0.952395	-0.104248	-0.000296
C16	C	-1.029903	-0.105606	-0.000325
C17	C	-0.574836	-0.191085	-0.000213
C18	C	-0.502009	-0.189809	-0.000223
C19	C	-0.473934	-0.113401	-0.000232
C20	C	-0.518692	-0.038264	-0.000208
C21	C	-0.591517	-0.039542	-0.000190
N22	N	-0.365820	-0.054998	-0.050109
N23	N	-0.296638	-0.053788	-0.050129
C24	C	-0.254516	-0.109545	-0.000285
N25	N	-0.284188	-0.166569	0.049567
N26	N	-0.353375	-0.167781	0.049583
C27	C	-0.394968	-0.112007	-0.000251
C28	C	-0.130800	-0.183294	-0.000313
C29	C	-0.057973	-0.182015	-0.000317
C30	C	-0.074657	-0.030468	-0.000312
C31	C	-0.147483	-0.031749	-0.000299
C32	C	-0.175550	-0.108165	-0.000303
C33	C	-0.819612	-0.262805	-0.000266
C34	C	-0.820968	-0.355096	-0.000273
N35	N	-0.824737	-0.110779	0.227919
C36	C	-0.888990	0.356005	-0.000278
C37	C	-0.887710	0.442721	-0.000285
C38	C	-0.760493	0.422425	-0.000244
C39	C	-0.761773	0.335710	-0.000243
C40	C	-0.826024	0.302503	-0.000256
C41	C	-0.823463	0.475933	-0.000263
C42	C	-0.822075	0.569955	-0.000271
C43	C	-0.827412	0.208475	-0.000250
N44	N	-0.824755	-0.110779	-0.228430
C45	C	-0.872232	-0.054103	0.453632
C46	C	-0.872234	-0.054101	0.545821
C47	C	-0.777255	-0.167457	0.545850
C48	C	-0.777250	-0.167454	0.453662
C49	C	-0.824743	-0.110778	0.407555
C50	C	-0.824750	-0.110779	0.591933
C51	C	-0.824752	-0.110777	0.691889
C52	C	-0.824740	-0.110779	0.307593
H53	H	-0.597683	-0.253308	-0.000219
H54	H	-0.910904	-0.007950	0.583334
N55	N	-0.726031	-0.228586	0.403953
H56	H	-0.695127	-0.196901	0.365725
H57	H	-0.695996	-0.264482	0.447201
H58	H	-0.738589	-0.213602	0.583400
N59	N	-0.955622	0.500427	-0.000309
H60	H	-0.996516	0.466229	-0.000317
H61	H	-0.957859	0.536854	0.053982
N62	N	-0.693855	0.278000	-0.000206
H63	H	-0.704418	0.218028	-0.000209
H64	H	-0.665852	0.288717	-0.054488
N65	N	-0.639781	0.041496	-0.000178
H66	H	-0.670387	0.044344	-0.054463
H67	H	-0.670303	0.044297	0.054156
N68	N	-0.691195	0.458239	-0.000214
H69	H	-0.663609	0.438709	-0.054496
H70	H	-0.699994	0.521285	-0.000180
N71	N	-0.958285	0.320186	-0.000299
H72	H	-0.961651	0.284669	0.053995
H73	H	-0.997937	0.367287	-0.000348
N74	N	-0.923452	0.007023	0.403900
H75	H	-0.953536	0.042928	0.447081
H76	H	-0.896731	0.043700	0.365667
H77	H	-0.465568	-0.250988	-0.000235
H78	H	-0.153654	-0.245516	-0.000304
N79	N	-0.488410	0.044144	-0.000211
H80	H	-0.458589	0.048054	-0.054511
H81	H	-0.527848	0.091500	-0.000161
N82	N	-0.009704	-0.263049	-0.000267
H83	H	-0.038538	-0.311648	-0.000248
H84	H	0.020881	-0.265857	-0.054545
H85	H	-0.183919	0.029428	-0.000288
N86	N	-0.044387	0.051946	-0.000311
H87	H	0.008538	0.041357	-0.000323
H88	H	-0.060779	0.084812	-0.054599
