data_functionalizedCrystal
_audit_creation_method	'MofGen! by Chris Wilmer'
_symmetry_space_group_name_H-M	'P1'
_symmetry_Int_Tables_number	1
_symmetry_cell_setting	triclinic
loop_
_symmetry_equiv_pos_as_xyz
  x,y,z
_cell_length_a	17.640112
_cell_length_b	16.120484
_cell_length_c	17.639306
_cell_angle_alpha	104.591192
_cell_angle_beta	87.804122
_cell_angle_gamma	103.499326
loop_
_atom_site_label
_atom_site_type_symbol
_atom_site_fract_x
_atom_site_fract_y
_atom_site_fract_z
Zn1	Zn	1.243705	-0.109315	-0.201131
Zn2	Zn	1.743705	0.390685	0.298869
Zn3	Zn	1.213523	-0.229528	-0.080825
Zn4	Zn	1.713523	0.270472	0.419175
Zn5	Zn	1.090643	-0.120538	-0.100406
Zn6	Zn	1.590643	0.379462	0.399594
Zn7	Zn	1.110197	-0.284721	-0.236459
Zn8	Zn	1.610197	0.215279	0.263541
O9	O	1.164517	-0.186025	-0.154705
O10	O	1.664517	0.313975	0.345295
O11	O	1.347001	-0.097466	-0.162193
O12	O	1.847001	0.402534	0.337807
O13	O	1.176408	-0.196668	0.023865
O14	O	1.676408	0.303332	0.523865
O15	O	1.115395	-0.000029	-0.107178
O16	O	1.615395	0.499971	0.392822
O17	O	1.324826	-0.185786	-0.073804
O18	O	1.824826	0.314214	0.426196
O19	O	1.227849	0.008217	-0.181180
O20	O	1.727849	0.508217	0.318820
O21	O	1.086128	-0.116594	0.009478
O22	O	1.586128	0.383406	0.509478
O23	O	0.985937	-0.170113	-0.141433
O24	O	1.485937	0.329887	0.358567
O25	O	1.148722	-0.279855	-0.339059
O26	O	1.648722	0.220145	0.160941
O27	O	1.000304	-0.290737	-0.241390
O28	O	1.500304	0.209263	0.258610
O29	O	1.246810	-0.150985	-0.313104
O30	O	1.746810	0.349015	0.186896
O31	O	1.195368	-0.355870	-0.108060
O32	O	1.695368	0.144130	0.391940
O33	O	1.119455	-0.396420	-0.222403
O34	O	1.619455	0.103580	0.277597
C35	C	0.965299	-0.237633	-0.197371
C36	C	1.465299	0.262367	0.302629
C37	C	0.880075	-0.259734	-0.215643
C38	C	1.380075	0.240266	0.284357
C39	C	1.156282	-0.407003	-0.166953
C40	C	1.656282	0.092997	0.333047
C41	C	1.152835	-0.501524	-0.172203
C42	C	1.652835	-0.001524	0.327797
C43	C	0.562368	-0.018110	-0.015902
C44	C	1.062368	0.481890	0.484098
C45	C	0.482289	-0.038896	-0.033082
C46	C	0.982289	0.461104	0.466918
C47	C	0.497264	-0.164623	-0.137007
C48	C	0.997264	0.335377	0.362993
C49	C	0.577347	-0.143845	-0.119837
C50	C	1.077347	0.356155	0.380163
C51	C	0.609892	-0.070587	-0.059283
C52	C	1.109892	0.429413	0.440717
C53	C	0.624871	-0.196323	-0.163219
C54	C	1.124871	0.303677	0.336781
C55	C	0.704946	-0.175548	-0.146048
C56	C	1.204946	0.324452	0.353952
C57	C	0.737497	-0.102296	-0.085496
C58	C	1.237497	0.397704	0.414504
C59	C	0.689967	-0.049813	-0.042113
C60	C	1.189967	0.450187	0.457887
C61	C	0.592324	-0.269583	-0.223769
C62	C	1.092324	0.230417	0.276231
C63	C	0.639848	-0.322061	-0.267151
C64	C	1.139848	0.177939	0.232849
C65	C	0.719925	-0.301283	-0.249984
C66	C	1.219925	0.198717	0.250016
C67	C	0.752476	-0.228031	-0.189432
C68	C	1.252476	0.271969	0.310568
C69	C	0.767455	-0.353766	-0.293367
C70	C	1.267455	0.146234	0.206633
C71	C	0.847530	-0.332991	-0.276196
C72	C	1.347530	0.167009	0.223804
C73	C	0.832551	-0.207256	-0.172261
C74	C	1.332551	0.292744	0.327739
C75	C	1.146548	-0.674575	-0.181803
C76	C	1.646548	-0.174575	0.318197
C77	C	1.182626	-0.696602	-0.127591
C78	C	1.682626	-0.196602	0.372409
C79	C	1.179128	-0.792893	-0.132932
C80	C	1.679128	-0.292893	0.367068
C81	C	1.150045	-0.578276	-0.176462
C82	C	1.650045	-0.078276	0.323538
C83	C	1.364513	-0.134217	-0.111874
C84	C	1.864513	0.365783	0.388126
C85	C	1.449739	-0.112140	-0.093621
C86	C	1.949739	0.387860	0.406379
C87	C	1.203314	-0.220325	-0.354678
C88	C	1.703314	0.279675	0.145322
C89	C	1.219847	-0.234941	-0.439894
C90	C	1.719847	0.265059	0.060106
C91	C	1.172808	0.035818	-0.142422
C92	C	1.672808	0.535818	0.357578
C93	C	1.176341	0.130354	-0.137188
C94	C	1.676341	0.630354	0.362812
C95	C	1.039227	-0.074592	-0.757632
C96	C	1.539227	0.425408	-0.257632
C97	C	1.054779	-0.088340	-0.837703
C98	C	1.554779	0.411660	-0.337703
C99	C	1.148777	-0.171712	-0.822704
C100	C	1.648777	0.328288	-0.322704
C101	C	1.133236	-0.157968	-0.742629
C102	C	1.633236	0.342032	-0.242629
C103	C	1.078459	-0.109408	-0.710100
C104	C	1.578459	0.390592	-0.210100
C105	C	1.172468	-0.192784	-0.695098
C106	C	1.672468	0.307216	-0.195098
C107	C	1.156925	-0.179044	-0.615031
C108	C	1.656925	0.320956	-0.115031
C109	C	1.102149	-0.130489	-0.582496
C110	C	1.602149	0.369511	-0.082496
C111	C	1.062916	-0.095668	-0.630033
C112	C	1.562916	0.404332	-0.130033
C113	C	1.227240	-0.241349	-0.727630
C114	C	1.727240	0.258651	-0.227630
C115	C	1.266473	-0.276165	-0.680098
C116	C	1.766473	0.223835	-0.180098
C117	C	1.250934	-0.262420	-0.600028
C118	C	1.750934	0.237580	-0.100028
C119	C	1.196158	-0.213865	-0.567493
C120	C	1.696158	0.286135	-0.067493
C121	C	1.290167	-0.297241	-0.552491
C122	C	1.790167	0.202759	-0.052491
C123	C	1.274624	-0.283501	-0.472424
C124	C	1.774624	0.216499	0.027576
C125	C	1.180615	-0.200125	-0.487426
C126	C	1.680615	0.299875	0.012574
C127	C	1.125917	-0.151787	0.044502
C128	C	1.625917	0.348213	0.544502
C129	C	1.109542	-0.136892	0.129764
C130	C	1.609542	0.363108	0.629764
H131	H	0.859053	-0.147592	-0.122962
H132	H	1.359053	0.352408	0.377038
H133	H	1.113035	-0.728031	-0.232223
H134	H	1.613035	-0.228031	0.267777
N135	N	0.823863	-0.079891	-0.066971
N136	N	1.323863	0.420109	0.433029
H137	H	0.853951	-0.068364	-0.114586
H138	H	1.353951	0.431636	0.385414
H139	H	0.837199	-0.025540	-0.022008
H140	H	1.337199	0.474460	0.477992
N141	N	1.227020	-0.625794	-0.060797
N142	N	1.727020	-0.125794	0.439203
H143	H	1.190298	-0.590978	-0.029909
H144	H	1.690298	-0.090978	0.470091
H145	H	1.250607	-0.653978	-0.025417
H146	H	1.750607	-0.153978	0.474583
H147	H	1.136019	-0.160572	-0.460937
H148	H	1.636019	0.339428	0.039063
H149	H	1.018320	-0.056115	-0.603544
H150	H	1.518320	0.443885	-0.103544
N151	N	1.085376	-0.115662	-0.496139
N152	N	1.585376	0.384338	0.003861
H153	H	1.065356	-0.174347	-0.483094
H154	H	1.565356	0.325653	0.016906
H155	H	1.134838	-0.083060	-0.464772
H156	H	1.634838	0.416940	0.035228
N157	N	0.980153	-0.022208	-0.722536
N158	N	1.480153	0.477792	-0.222536
H159	H	0.957658	-0.002231	-0.764794
H160	H	1.457658	0.497769	-0.264794
H161	H	0.936927	-0.060322	-0.698833
H162	H	1.436927	0.439678	-0.198833
N163	N	1.325544	-0.328543	-0.715195
N164	N	1.825544	0.171457	-0.215195
H165	H	1.368815	-0.290475	-0.738893
H166	H	1.868815	0.209525	-0.238893
H167	H	1.347981	-0.348510	-0.672898
H168	H	1.847981	0.151490	-0.172898
N169	N	1.012459	-0.050789	-0.888972
N170	N	1.512459	0.449211	-0.388972
H171	H	0.975400	-0.017944	-0.856213
H172	H	1.475400	0.482056	-0.356213
H173	H	1.051588	-0.009043	-0.913330
H174	H	1.551588	0.490957	-0.413330
N175	N	1.207848	-0.224096	-0.857793
N176	N	1.707848	0.275904	-0.357793
H177	H	1.211740	-0.227521	-0.915729
H178	H	1.711740	0.272479	-0.415729
H179	H	1.260388	-0.194270	-0.831335
H180	H	1.760388	0.305730	-0.331335
N181	N	1.244002	-0.256171	-0.813988
N182	N	1.744002	0.243829	-0.313988
H183	H	1.300931	-0.230227	-0.821141
H184	H	1.800931	0.269773	-0.321141
H185	H	1.231420	-0.321488	-0.839463
H186	H	1.731420	0.178512	-0.339463
N187	N	0.604742	-0.401064	-0.332466
N188	N	1.104742	0.098936	0.167534
H189	H	0.647002	-0.431154	-0.357344
H190	H	1.147002	0.068846	0.142656
H191	H	0.563988	-0.443632	-0.310507
H192	H	1.063988	0.056368	0.189493
H193	H	1.334760	-0.336786	-0.578990
H194	H	1.834760	0.163214	-0.078990
H195	H	1.306581	-0.311838	-0.433719
H196	H	1.806581	0.188162	0.066281
H197	H	0.716469	0.009851	0.007186
H198	H	1.216469	0.509851	0.507186
H199	H	0.588870	0.041555	0.033397
H200	H	1.088870	0.541555	0.533397
H201	H	0.443597	0.003848	0.002244
H202	H	0.943597	0.503848	0.502244
H203	H	0.527121	-0.286495	-0.237747
H204	H	1.027121	0.213505	0.262253
N205	N	0.462159	-0.243637	-0.202312
N206	N	0.962159	0.256363	0.297688
H207	H	0.404220	-0.248837	-0.206607
H208	H	0.904220	0.251163	0.293393
H209	H	0.487282	-0.236251	-0.253355
H210	H	0.987282	0.263749	0.246645
N211	N	0.732341	-0.432776	-0.358672
N212	N	1.232341	0.067224	0.141328
H213	H	0.757402	-0.425444	-0.409756
H214	H	1.257402	0.074556	0.090244
H215	H	0.741700	-0.487810	-0.346983
H216	H	1.241700	0.012190	0.153017
N217	N	0.898795	-0.389591	-0.322981
N218	N	1.398795	0.110409	0.177019
H219	H	0.866028	-0.439150	-0.363948
H220	H	1.366028	0.060850	0.136052
H221	H	0.940203	-0.352504	-0.349469
H222	H	1.440203	0.147496	0.150531
