data_functionalizedCrystal
_audit_creation_method	'MofGen! by Chris Wilmer'
_symmetry_space_group_name_H-M	'P1'
_symmetry_Int_Tables_number	1
_symmetry_cell_setting	triclinic
loop_
_symmetry_equiv_pos_as_xyz
  x,y,z
_cell_length_a	21.295418
_cell_length_b	12.759400
_cell_length_c	21.295411
_cell_angle_alpha	89.978889
_cell_angle_beta	89.964378
_cell_angle_gamma	90.030499
loop_
_atom_site_label
_atom_site_type_symbol
_atom_site_fract_x
_atom_site_fract_y
_atom_site_fract_z
Zn1	Zn	0.962375	-0.417869	-0.356267
Zn2	Zn	0.962321	-0.593556	-0.251006
Zn3	Zn	0.857113	-0.417940	-0.250977
Zn4	Zn	0.857096	-0.593555	-0.356203
O5	O	0.909726	-0.505730	-0.303613
O6	O	1.050457	-0.441145	-0.342343
O7	O	0.948349	-0.570290	-0.162913
O8	O	0.871105	-0.270910	-0.264958
O9	O	1.050417	-0.570221	-0.265009
O10	O	0.948441	-0.270858	-0.342314
O11	O	0.871053	-0.441266	-0.162891
O12	O	0.769021	-0.441265	-0.264896
O13	O	0.871077	-0.570220	-0.444301
O14	O	0.769009	-0.570289	-0.342205
O15	O	0.948425	-0.441144	-0.444348
O16	O	0.948333	-0.740577	-0.264946
O17	O	0.871025	-0.740576	-0.342234
C18	C	0.909689	-0.778698	-0.303600
C19	C	0.909730	-0.895474	-0.303615
C20	C	0.746174	-0.505785	-0.303541
C21	C	0.676206	-0.505834	-0.303525
C22	C	0.950029	-0.950302	-0.263416
C23	C	0.950068	-1.060026	-0.263436
C24	C	0.869503	-1.060085	-0.343855
C25	C	0.869468	-0.950363	-0.343838
C26	C	0.996541	-0.950268	-0.216985
C27	C	0.996580	-1.059992	-0.217004
C28	C	0.643350	-0.573106	-0.343719
C29	C	0.577607	-0.573080	-0.343748
C30	C	0.544724	-0.505794	-0.303570
C31	C	0.577588	-0.438509	-0.263372
C32	C	0.643329	-0.438529	-0.263350
N33	N	0.441454	-0.497582	-0.248512
N34	N	0.379003	-0.497568	-0.248535
C35	C	0.346649	-0.505727	-0.303637
N36	N	0.379106	-0.513919	-0.358715
N37	N	0.441563	-0.513938	-0.358691
C38	C	0.473438	-0.505764	-0.303590
C39	C	0.242507	-0.572974	-0.343865
C40	C	0.176763	-0.572940	-0.343895
C41	C	0.176746	-0.438375	-0.263514
C42	C	0.242488	-0.438403	-0.263490
C43	C	0.275365	-0.505708	-0.303665
C44	C	1.073916	-0.505675	-0.303686
C45	C	1.143884	-0.505652	-0.303717
C46	C	0.909755	-0.505674	-0.467803
C47	C	0.909767	-0.505650	-0.537772
C48	C	0.909781	-0.231697	-0.303640
C49	C	0.909804	-0.114920	-0.303652
C50	C	0.950086	-0.572615	-1.037242
C51	C	0.950074	-0.572649	-0.971499
C52	C	0.909827	-0.505486	-0.938611
C53	C	0.869576	-0.438304	-0.971471
C54	C	0.869584	-0.438280	-1.037213
N55	N	0.905003	-0.413561	-0.835397
N56	N	0.904999	-0.413587	-0.772946
C57	C	0.909799	-0.505557	-0.740536
N58	N	0.914615	-0.597502	-0.772938
N59	N	0.914623	-0.597475	-0.835395
C60	C	0.909813	-0.505506	-0.867326
C61	C	0.950032	-0.572777	-0.636399
C62	C	0.950016	-0.572812	-0.570655
C63	C	0.869521	-0.438458	-0.570628
C64	C	0.869534	-0.438432	-0.636371
C65	C	0.909792	-0.505590	-0.669252
C66	C	0.909733	-0.505710	-0.140062
C67	C	0.909843	-0.505438	-0.070094
H68	H	0.836659	-0.905723	-0.376577
C69	C	0.316523	-0.587784	-0.428493
C70	C	0.278654	-0.646941	-0.388028
H71	H	0.338840	-0.633450	-0.455754
H72	H	0.290922	-0.542064	-0.452628
H73	H	0.345498	-0.547730	-0.404539
H74	H	0.249675	-0.686989	-0.411983
H75	H	0.304258	-0.692679	-0.363892
H76	H	0.836724	-1.104789	-0.376604
C77	C	1.102266	-0.995203	-0.245449
C78	C	1.062329	-0.909926	-0.234690
H79	H	1.142878	-0.970294	-0.256382
H80	H	1.104953	-1.036589	-0.208466
H81	H	1.086056	-1.036550	-0.278803
H82	H	1.078538	-0.868583	-0.201332
H83	H	1.059644	-0.868522	-0.271677
C84	C	0.636707	-0.305520	-0.183898
C85	C	0.679449	-0.364588	-0.219159
H86	H	0.659008	-0.259879	-0.156613
H87	H	0.611114	-0.265383	-0.211375
H88	H	0.611018	-0.351242	-0.159784
H89	H	0.705135	-0.318866	-0.243276
H90	H	0.705053	-0.404728	-0.191679
H91	H	1.042896	-1.093921	-0.234525
C92	C	0.183389	-0.705977	-0.423330
C93	C	0.140645	-0.646896	-0.388078
H94	H	0.161089	-0.751639	-0.450603
H95	H	0.209072	-0.660271	-0.447450
H96	H	0.208987	-0.746101	-0.395842
H97	H	0.115050	-0.606765	-0.415566
H98	H	0.114951	-0.692607	-0.363956
C99	C	0.968292	-1.015008	-0.111235
C100	C	0.978998	-1.100304	-0.151178
H101	H	0.957433	-1.039897	-0.070601
H102	H	1.005271	-0.973590	-0.108619
H103	H	0.934901	-0.973699	-0.127394
H104	H	1.012391	-1.141609	-0.135022
H105	H	0.942014	-1.141739	-0.153793
H106	H	0.982783	-0.627526	-0.543908
C107	C	0.262650	-0.387003	-0.156942
C108	C	0.278609	-0.364466	-0.219300
H109	H	0.284952	-0.341356	-0.129661
H110	H	0.218796	-0.377356	-0.151210
H111	H	0.273387	-0.457578	-0.147662
H112	H	0.267867	-0.293892	-0.228581
H113	H	0.322472	-0.374104	-0.225034
C114	C	0.075965	-0.378644	-0.227828
C115	C	0.140607	-0.364443	-0.219329
H116	H	0.053654	-0.333011	-0.200542
H117	H	0.065233	-0.363326	-0.270131
H118	H	0.065167	-0.449224	-0.218564
H119	H	0.151406	-0.293865	-0.228598
H120	H	0.151344	-0.379754	-0.177017
H121	H	0.979094	-0.916315	-0.170647
C122	C	1.029648	-0.705422	-1.030659
C123	C	0.994330	-0.646446	-1.073384
H124	H	1.056958	-0.751008	-1.052974
H125	H	1.053732	-0.659645	-1.005038
H126	H	1.002204	-0.745624	-1.004997
H127	H	1.021774	-0.606239	-1.099043
H128	H	0.970244	-0.692229	-1.099016
C129	C	0.476802	-0.378751	-0.227705
C130	C	0.541445	-0.364556	-0.219202
H131	H	0.454491	-0.333097	-0.200432
H132	H	0.466076	-0.363460	-0.270013
H133	H	0.466000	-0.449324	-0.218425
H134	H	0.552249	-0.293985	-0.228486
H135	H	0.552176	-0.379840	-0.176885
H136	H	0.670114	-0.627909	-0.376434
C137	C	0.584222	-0.706101	-0.423194
C138	C	0.541481	-0.647026	-0.387935
H139	H	0.561919	-0.751753	-0.450471
H140	H	0.609906	-0.660391	-0.447311
H141	H	0.609820	-0.746236	-0.395712
H142	H	0.515886	-0.606885	-0.415418
H143	H	0.515786	-0.692742	-0.363817
C144	C	0.958793	-0.713988	-0.897552
C145	C	0.994313	-0.646491	-0.935376
H146	H	0.986105	-0.759577	-0.875255
H147	H	0.934823	-0.673992	-0.868565
H148	H	0.931369	-0.754183	-0.923187
H149	H	1.021734	-0.606291	-0.909740
H150	H	1.018294	-0.686492	-0.964366
H151	H	0.836806	-0.383622	-0.944690
C152	C	0.790020	-0.305480	-1.030582
C153	C	0.825351	-0.364426	-1.073328
H154	H	0.762716	-0.259880	-1.052880
H155	H	0.765928	-0.351275	-1.004928
H156	H	0.817455	-0.265295	-1.004953
H157	H	0.797915	-0.404617	-1.098953
H158	H	0.849444	-0.318625	-1.098992
C159	C	1.029591	-0.705589	-0.629824
C160	C	0.994276	-0.646605	-0.672547
H161	H	1.056901	-0.751172	-0.652141
H162	H	1.053674	-0.659818	-0.604198
H163	H	1.002145	-0.745795	-0.604166
H164	H	1.021721	-0.606394	-0.698202
H165	H	0.970191	-0.692382	-0.698183
C166	C	0.833768	-0.378840	-0.469844
C167	C	0.825279	-0.364632	-0.534486
H168	H	0.806454	-0.333258	-0.447530
H169	H	0.824541	-0.449430	-0.459064
H170	H	0.876066	-0.363447	-0.459097
H171	H	0.782982	-0.380032	-0.545233
H172	H	0.834502	-0.294026	-0.545270
H173	H	0.836766	-0.383725	-0.663120
