data_functionalizedCrystal
_audit_creation_method	'MofGen! by Chris Wilmer'
_symmetry_space_group_name_H-M	'P1'
_symmetry_Int_Tables_number	1
_symmetry_cell_setting	triclinic
loop_
_symmetry_equiv_pos_as_xyz
  x,y,z
_cell_length_a	19.121102
_cell_length_b	25.639239
_cell_length_c	25.639234
_cell_angle_alpha	89.975095
_cell_angle_beta	87.540927
_cell_angle_gamma	87.592882
loop_
_atom_site_label
_atom_site_type_symbol
_atom_site_fract_x
_atom_site_fract_y
_atom_site_fract_z
Zn1	Zn	1.073656	-0.242337	-0.329673
Zn2	Zn	1.406990	0.090996	0.003660
Zn3	Zn	1.740323	0.424330	0.336994
Zn4	Zn	1.073539	-0.329761	-0.242233
Zn5	Zn	1.406872	0.003572	0.091100
Zn6	Zn	1.740205	0.336905	0.424433
Zn7	Zn	0.956204	-0.238609	-0.238525
Zn8	Zn	1.289538	0.094724	0.094808
Zn9	Zn	1.622871	0.428057	0.428142
Zn10	Zn	0.956145	-0.326005	-0.325913
Zn11	Zn	1.289479	0.007328	0.007420
Zn12	Zn	1.622812	0.340662	0.340753
O13	O	1.014886	-0.284178	-0.284086
O14	O	1.348220	0.049155	0.049247
O15	O	1.681553	0.382489	0.382580
O16	O	1.171924	-0.257066	-0.321199
O17	O	1.505257	0.076267	0.012134
O18	O	1.838591	0.409601	0.345468
O19	O	1.057950	-0.317682	-0.168576
O20	O	1.391283	0.015651	0.164758
O21	O	1.724616	0.348985	0.498091
O22	O	0.971859	-0.165941	-0.250637
O23	O	1.305192	0.167392	0.082696
O24	O	1.638525	0.500726	0.416029
O25	O	1.171838	-0.321296	-0.256958
O26	O	1.505171	0.012037	0.076376
O27	O	1.838504	0.345370	0.409709
O28	O	1.058150	-0.168680	-0.317603
O29	O	1.391483	0.164654	0.015730
O30	O	1.724817	0.497987	0.349063
O31	O	0.971745	-0.250713	-0.165851
O32	O	1.305078	0.082621	0.167482
O33	O	1.638411	0.415954	0.500816
O34	O	0.857913	-0.247070	-0.246992
O35	O	1.191246	0.086263	0.086341
O36	O	1.524580	0.419596	0.419675
O37	O	0.971758	-0.314894	-0.399578
O38	O	1.305091	0.018439	-0.066245
O39	O	1.638425	0.351772	0.267089
O40	O	0.857870	-0.311280	-0.311196
O41	O	1.191203	0.022054	0.022137
O42	O	1.524536	0.355387	0.355471
O43	O	1.058093	-0.253424	-0.402340
O44	O	1.391426	0.079910	-0.069007
O45	O	1.724759	0.413243	0.264327
O46	O	1.057892	-0.402426	-0.253312
O47	O	1.391226	-0.069093	0.080021
O48	O	1.724559	0.264241	0.413354
O49	O	0.971644	-0.399666	-0.314792
O50	O	1.304977	-0.066333	0.018542
O51	O	1.638311	0.267000	0.351875
C52	C	0.832408	-0.278363	-0.278284
C53	C	1.165741	0.054970	0.055049
C54	C	1.499074	0.388303	0.388383
C55	C	0.754343	-0.275888	-0.275814
C56	C	1.087676	0.057445	0.057519
C57	C	1.421009	0.390778	0.390853
C58	C	0.717663	-0.308206	-0.308029
C59	C	1.050996	0.025127	0.025305
C60	C	1.384330	0.358460	0.358638
C61	C	0.644313	-0.305874	-0.305711
C62	C	0.977646	0.027460	0.027623
C63	C	1.310979	0.360793	0.360956
C64	C	0.607643	-0.271226	-0.271175
C65	C	0.940976	0.062108	0.062159
C66	C	1.274310	0.395441	0.395492
C67	C	0.644327	-0.238904	-0.238959
C68	C	0.977661	0.094429	0.094374
C69	C	1.310994	0.427763	0.427708
C70	C	0.717677	-0.241234	-0.241280
C71	C	1.051010	0.092099	0.092053
C72	C	1.384343	0.425432	0.425387
C73	C	0.386176	-0.262513	-0.262499
C74	C	0.719509	0.070821	0.070834
C75	C	1.052843	0.404154	0.404168
C76	C	0.312822	-0.260186	-0.260179
C77	C	0.646155	0.073147	0.073154
C78	C	0.979488	0.406481	0.406487
C79	C	0.312812	-0.327155	-0.326932
C80	C	0.646145	0.006178	0.006401
C81	C	0.979479	0.339511	0.339735
C82	C	0.386163	-0.329485	-0.329248
C83	C	0.719496	0.003849	0.004086
C84	C	1.052829	0.337182	0.337419
C85	C	0.422841	-0.297161	-0.297034
C86	C	0.756174	0.036172	0.036299
C87	C	1.089507	0.369506	0.369633
C88	C	0.532667	-0.268842	-0.268803
C89	C	0.866000	0.064492	0.064530
C90	C	1.199334	0.397825	0.397863
C91	C	0.497815	-0.299543	-0.299408
C92	C	0.831149	0.033791	0.033925
C93	C	1.164482	0.367124	0.367258
C94	C	1.014768	-0.420017	-0.284059
C95	C	1.348101	-0.086684	0.049275
C96	C	1.681435	0.246650	0.382608
C97	C	1.014782	-0.478131	-0.284066
C98	C	1.348115	-0.144798	0.049267
C99	C	1.681448	0.188535	0.382600
C100	C	1.059913	-0.839926	-0.252135
C101	C	1.393246	-0.506593	0.081199
C102	C	1.726580	-0.173259	0.414532
C103	C	1.059940	-0.894531	-0.252143
C104	C	1.393273	-0.561198	0.081191
C105	C	1.726607	-0.227864	0.414524
O106	O	1.098190	-0.923981	-0.224963
O107	O	1.431523	-0.590648	0.108370
O108	O	1.764856	-0.257314	0.441704
N109	N	1.015010	-0.920421	-0.284125
N110	N	1.348343	-0.587088	0.049209
N111	N	1.681676	-0.253754	0.382542
C112	C	0.970054	-0.891703	-0.316105
C113	C	1.303387	-0.558370	0.017228
C114	C	1.636721	-0.225036	0.350561
O115	O	0.931840	-0.918739	-0.343310
O116	O	1.265173	-0.585405	-0.009976
O117	O	1.598507	-0.252072	0.323357
C118	C	0.970031	-0.837099	-0.316100
C119	C	1.303364	-0.503766	0.017234
C120	C	1.636698	-0.170432	0.350567
C121	C	1.014959	-0.811212	-0.284111
C122	C	1.348293	-0.477879	0.049222
C123	C	1.681626	-0.144545	0.382555
C124	C	1.104838	-0.814039	-0.220149
C125	C	1.438172	-0.480705	0.113184
C126	C	1.771505	-0.147372	0.446517
C127	C	1.104810	-0.759437	-0.220141
C128	C	1.438143	-0.426104	0.113192
C129	C	1.771477	-0.092771	0.446526
C130	C	1.059856	-0.730723	-0.252118
C131	C	1.393190	-0.397390	0.081216
C132	C	1.726523	-0.064056	0.414549
C133	C	1.014931	-0.756610	-0.284103
C134	C	1.348264	-0.423277	0.049230
C135	C	1.681598	-0.089944	0.382564
C136	C	0.925079	-0.808382	-0.348083
C137	C	1.258413	-0.475049	-0.014749
C138	C	1.591746	-0.141716	0.318584
C139	C	0.925060	-0.753775	-0.348075
C140	C	1.258394	-0.420441	-0.014741
C141	C	1.591727	-0.087108	0.318592
C142	C	0.969989	-0.727887	-0.316086
C143	C	1.303322	-0.394554	0.017247
C144	C	1.636656	-0.061221	0.350580
C145	C	0.969949	-0.673295	-0.316071
C146	C	1.303282	-0.339962	0.017262
C147	C	1.636616	-0.006628	0.350595
N148	N	1.014880	-0.647405	-0.284089
N149	N	1.348213	-0.314072	0.049244
N150	N	1.681546	0.019262	0.382578
C151	C	1.059833	-0.676119	-0.252112
C152	C	1.393166	-0.342786	0.081221
C153	C	1.726500	-0.009452	0.414554
C154	C	0.970107	-1.006375	-0.316115
C155	C	1.303440	-0.673042	0.017218
C156	C	1.636774	-0.339709	0.350552
C157	C	0.970126	-1.060978	-0.316118
C158	C	1.303459	-0.727645	0.017215
C159	C	1.636793	-0.394312	0.350549
C160	C	1.060013	-1.063803	-0.252156
C161	C	1.393347	-0.730469	0.081177
C162	C	1.726680	-0.397136	0.414511
C163	C	1.059990	-1.009199	-0.252150
C164	C	1.393323	-0.675865	0.081183
C165	C	1.726657	-0.342532	0.414516
C166	C	1.015037	-0.980485	-0.284133
C167	C	1.348371	-0.647152	0.049201
C168	C	1.681704	-0.313819	0.382534
C169	C	1.059770	-0.561452	-0.252097
C170	C	1.393103	-0.228119	0.081237
C171	C	1.726436	0.105215	0.414570
C172	C	1.059735	-0.506846	-0.252089
C173	C	1.393069	-0.173512	0.081244
C174	C	1.726402	0.159821	0.414577
C175	C	0.969851	-0.504026	-0.316053
C176	C	1.303185	-0.170693	0.017280
C177	C	1.636518	0.162641	0.350613
C178	C	0.969883	-0.558628	-0.316059
C179	C	1.303216	-0.225294	0.017275
C180	C	1.636549	0.108039	0.350608
C181	C	1.014848	-0.587339	-0.284079
C182	C	1.348181	-0.254006	0.049255
C183	C	1.681514	0.079327	0.382588
O184	O	0.931721	-0.643811	-0.343239
O185	O	1.265054	-0.310478	-0.009905
O186	O	1.598388	0.022856	0.323428
O187	O	1.098047	-0.649077	-0.224917
O188	O	1.431380	-0.315744	0.108416
O189	O	1.764714	0.017590	0.441749
C190	C	1.198077	-0.290016	-0.289911
C191	C	1.531411	0.043317	0.043422
C192	C	1.864744	0.376651	0.376755
C193	C	1.276142	-0.292504	-0.292394
C194	C	1.609476	0.040829	0.040939
C195	C	1.942809	0.374163	0.374273
C196	C	1.014932	-0.284156	-0.420461
C197	C	1.348265	0.049178	-0.087127
C198	C	1.681599	0.382511	0.246206
C199	C	1.014951	-0.284146	-0.478575
C200	C	1.348285	0.049187	-0.145242
C201	C	1.681618	0.382520	0.188091
C202	C	1.015024	-0.147809	-0.284126
C203	C	1.348357	0.185524	0.049207
C204	C	1.681691	0.518857	0.382541
C205	C	1.015083	-0.089697	-0.284143
C206	C	1.348416	0.243636	0.049190
C207	C	1.681749	0.576969	0.382524
C208	C	0.970084	-0.249214	-0.837526
C209	C	1.303417	0.084120	-0.504193
C210	C	1.636751	0.417453	-0.170859
C211	C	0.970088	-0.249204	-0.892131
C212	C	1.303421	0.084129	-0.558797
C213	C	1.636755	0.417462	-0.225464
O214	O	0.931905	-0.219560	-0.919165
O215	O	1.265238	0.113773	-0.585832
O216	O	1.598571	0.447107	-0.252499
N217	N	1.014975	-0.284065	-0.920859
N218	N	1.348308	0.049268	-0.587525
N219	N	1.681641	0.382602	-0.254192
C220	C	1.059856	-0.318941	-0.894980
C221	C	1.393189	0.014393	-0.561646
C222	C	1.726522	0.347726	-0.228313
O223	O	1.098035	-0.348592	-0.924429
O224	O	1.431368	-0.015258	-0.591096
O225	O	1.764702	0.318075	-0.257763
C226	C	1.059848	-0.318952	-0.840376
C227	C	1.393181	0.014381	-0.507043
C228	C	1.726514	0.347714	-0.173709
C229	C	1.014963	-0.284086	-0.811651
C230	C	1.348296	0.049248	-0.478317
C231	C	1.681630	0.382581	-0.144984
C232	C	0.925203	-0.214351	-0.808801
C233	C	1.258536	0.118983	-0.475467
C234	C	1.591869	0.452316	-0.142134
C235	C	0.925200	-0.214359	-0.754200
C236	C	1.258533	0.118974	-0.420867
C237	C	1.591867	0.452307	-0.087533
C238	C	0.970079	-0.249231	-0.728325
C239	C	1.303412	0.084102	-0.394991
C240	C	1.636745	0.417435	-0.061658
C241	C	1.014960	-0.284095	-0.757050
C242	C	1.348294	0.049239	-0.423717
C243	C	1.681627	0.382572	-0.090383
C244	C	1.104724	-0.353830	-0.814498
C245	C	1.438058	-0.020497	-0.481165
C246	C	1.771391	0.312837	-0.147831
C247	C	1.104712	-0.353839	-0.759891
C248	C	1.438046	-0.020505	-0.426557
C249	C	1.771379	0.312828	-0.093224
C250	C	1.059828	-0.318972	-0.731165
C251	C	1.393161	0.014361	-0.397832
C252	C	1.726494	0.347694	-0.064498
C253	C	1.059837	-0.318975	-0.676574
C254	C	1.393170	0.014358	-0.343241
C255	C	1.726503	0.347691	-0.009907
N256	N	1.014950	-0.284115	-0.647846
N257	N	1.348283	0.049218	-0.314513
N258	N	1.681616	0.382552	0.018821
C259	C	0.970071	-0.249243	-0.673721
C260	C	1.303404	0.084090	-0.340388
C261	C	1.636738	0.417424	-0.007055
C262	C	1.059868	-0.318915	-1.009651
C263	C	1.393201	0.014419	-0.676317
C264	C	1.726534	0.347752	-0.342984
C265	C	1.059880	-0.318901	-1.064254
C266	C	1.393213	0.014432	-0.730920
C267	C	1.726546	0.347766	-0.397587
C268	C	0.970111	-0.249165	-1.061401
C269	C	1.303444	0.084168	-0.728067
C270	C	1.636778	0.417501	-0.394734
C271	C	0.970103	-0.249177	-1.006797
C272	C	1.303436	0.084157	-0.673464
C273	C	1.636770	0.417490	-0.340130
C274	C	1.014981	-0.284054	-0.980923
C275	C	1.348314	0.049279	-0.647589
C276	C	1.681648	0.382613	-0.314256
C277	C	0.970069	-0.249264	-0.559056
C278	C	1.303402	0.084070	-0.225723
C279	C	1.636736	0.417403	0.107611
C280	C	0.970072	-0.249274	-0.504451
C281	C	1.303406	0.084059	-0.171117
C282	C	1.636739	0.417392	0.162216
C283	C	1.059838	-0.319012	-0.507308
C284	C	1.393172	0.014322	-0.173975
C285	C	1.726505	0.347655	0.159358
C286	C	1.059838	-0.319000	-0.561909
C287	C	1.393171	0.014334	-0.228576
C288	C	1.726504	0.347667	0.104758
C289	C	1.014948	-0.284124	-0.587781
C290	C	1.348281	0.049210	-0.254448
C291	C	1.681614	0.382543	0.078885
O292	O	1.097998	-0.348606	-0.649504
O293	O	1.431331	-0.015273	-0.316171
O294	O	1.764665	0.318061	0.017163
O295	O	0.931891	-0.219601	-0.644265
O296	O	1.265225	0.113732	-0.310932
O297	O	1.598558	0.447065	0.022402
C298	C	1.014881	-0.284164	-0.148244
C299	C	1.348215	0.049169	0.185090
C300	C	1.681548	0.382503	0.518423
C301	C	1.014998	-0.284031	-0.090134
C302	C	1.348331	0.049303	0.243200
C303	C	1.681665	0.382636	0.576533
H304	H	0.416014	-0.357700	-0.357369
H305	H	0.749348	-0.024367	-0.024036
H306	H	1.082681	0.308967	0.309297
H307	H	0.933554	-0.220785	-0.983412
H308	H	1.266888	0.112548	-0.650079
H309	H	1.600221	0.445882	-0.316746
H310	H	1.141396	-0.738363	-0.194095
H311	H	1.474730	-0.405030	0.139238
H312	H	1.808063	-0.071696	0.472572
H313	H	0.888647	-0.185970	-0.730816
H314	H	1.221981	0.147364	-0.397483
H315	H	1.555314	0.480697	-0.064150
Br316	Br	0.909151	-0.201929	-0.594160
Br317	Br	1.242484	0.131405	-0.260827
Br318	Br	1.575817	0.464738	0.072507
H319	H	0.282941	-0.353470	-0.353159
H320	H	0.616274	-0.020137	-0.019826
H321	H	0.949608	0.313196	0.313507
Br322	Br	0.908848	-0.465047	-0.359450
Br323	Br	1.242182	-0.131713	-0.026117
Br324	Br	1.575515	0.201620	0.307216
H325	H	0.933522	-0.220879	-0.481065
H326	H	1.266855	0.112454	-0.147731
H327	H	1.600189	0.445787	0.185602
H328	H	1.141449	-0.837412	-0.194110
H329	H	1.474782	-0.504079	0.139223
H330	H	1.808115	-0.170745	0.472557
Br331	Br	0.864276	-0.167025	-0.843906
Br332	Br	1.197609	0.166308	-0.510573
Br333	Br	1.530943	0.499641	-0.177240
H334	H	1.096321	-0.485770	-0.226039
H335	H	1.429655	-0.152437	0.107294
H336	H	1.762988	0.180897	0.440628
H337	H	1.096575	-0.988125	-0.226103
H338	H	1.429908	-0.654791	0.107230
H339	H	1.763242	-0.321458	0.440563
Br340	Br	0.767457	-0.197369	-0.197561
Br341	Br	1.100790	0.135964	0.135772
Br342	Br	1.434124	0.469297	0.469105
H343	H	0.933568	-0.220771	-1.082478
H344	H	1.266901	0.112563	-0.749145
H345	H	1.600234	0.445896	-0.415811
H346	H	1.096437	-0.347287	-1.087638
H347	H	1.429770	-0.013954	-0.754304
H348	H	1.763104	0.319380	-0.420971
Br349	Br	0.909089	-0.967413	-0.359520
Br350	Br	1.242423	-0.634079	-0.026187
Br351	Br	1.575756	-0.300746	0.307147
Br352	Br	0.263056	-0.213166	-0.213300
Br353	Br	0.596389	0.120167	0.120033
Br354	Br	0.929722	0.453501	0.453366
Br355	Br	1.165618	-0.401178	-0.724778
Br356	Br	1.498952	-0.067844	-0.391445
Br357	Br	1.832285	0.265489	-0.058112
H358	H	1.096619	-1.087192	-0.226120
H359	H	1.429953	-0.753858	0.107213
H360	H	1.763286	-0.420525	0.440546
H361	H	0.502802	-0.240632	-0.240683
H362	H	0.836136	0.092701	0.092650
H363	H	1.169469	0.426034	0.425984
H364	H	1.096386	-0.584823	-0.226057
H365	H	1.429719	-0.251490	0.107277
H366	H	1.763053	0.081844	0.440610
H367	H	1.096421	-0.347313	-0.988588
H368	H	1.429755	-0.013980	-0.655254
H369	H	1.763088	0.319354	-0.321921
Br370	Br	0.435944	-0.218642	-0.218783
Br371	Br	0.769278	0.114692	0.114551
Br372	Br	1.102611	0.448025	0.447884
Br373	Br	0.909139	-1.096104	-0.359524
Br374	Br	1.242472	-0.762770	-0.026191
Br375	Br	1.575806	-0.429437	0.307142
H376	H	1.141274	-0.382223	-0.837877
H377	H	1.474607	-0.048889	-0.504544
H378	H	1.807940	0.284444	-0.171210
Br379	Br	0.864109	-0.843501	-0.391504
Br380	Br	1.197442	-0.510168	-0.058171
Br381	Br	1.530775	-0.176834	0.275163
Br382	Br	0.864052	-0.714810	-0.391484
Br383	Br	1.197386	-0.381477	-0.058150
Br384	Br	1.530719	-0.048143	0.275183
Br385	Br	0.908891	-0.593761	-0.359458
Br386	Br	1.242224	-0.260428	-0.026125
Br387	Br	1.575558	0.072906	0.307208
Br388	Br	0.594562	-0.191876	-0.192093
Br389	Br	0.927896	0.141457	0.141240
Br390	Br	1.261229	0.474791	0.474574
H391	H	1.096380	-0.347402	-0.486231
H392	H	1.429713	-0.014069	-0.152898
H393	H	1.763046	0.319265	0.180436
Br394	Br	0.767422	-0.355235	-0.354897
Br395	Br	1.100755	-0.021902	-0.021564
Br396	Br	1.434089	0.311432	0.311770
Br397	Br	0.594536	-0.349735	-0.349434
Br398	Br	0.927869	-0.016401	-0.016100
Br399	Br	1.261203	0.316932	0.317233
H400	H	0.527675	-0.327751	-0.327529
H401	H	0.861008	0.005583	0.005804
H402	H	1.194342	0.338916	0.339137
Br403	Br	1.120767	-0.366308	-0.600895
Br404	Br	1.454101	-0.032975	-0.267562
Br405	Br	1.787434	0.300359	0.065771
