data_functionalizedCrystal
_audit_creation_method	'MofGen! by Chris Wilmer'
_symmetry_space_group_name_H-M	'P1'
_symmetry_Int_Tables_number	1
_symmetry_cell_setting	triclinic
loop_
_symmetry_equiv_pos_as_xyz
  x,y,z
_cell_length_a	18.215407
_cell_length_b	13.032721
_cell_length_c	18.215399
_cell_angle_alpha	97.151969
_cell_angle_beta	89.983176
_cell_angle_gamma	97.205008
loop_
_atom_site_label
_atom_site_type_symbol
_atom_site_fract_x
_atom_site_fract_y
_atom_site_fract_z
Zn1	Zn	1.087859	-0.416014	-0.453318
Zn2	Zn	1.587859	0.083986	0.046682
Zn3	Zn	1.072150	-0.590784	-0.345880
Zn4	Zn	1.572150	-0.090784	0.154120
Zn5	Zn	0.964795	-0.416056	-0.330269
Zn6	Zn	1.464795	0.083944	0.169731
Zn7	Zn	0.949140	-0.590718	-0.468899
Zn8	Zn	1.449140	-0.090718	0.031101
O9	O	1.018486	-0.503393	-0.399592
O10	O	1.518486	-0.003393	0.100408
O11	O	1.188759	-0.439208	-0.439079
O12	O	1.688759	0.060792	0.060921
O13	O	1.057887	-0.567650	-0.240829
O14	O	1.557887	-0.067650	0.259171
O15	O	0.994246	-0.269811	-0.333537
O16	O	1.494246	0.230189	0.166463
O17	O	1.177218	-0.567610	-0.360145
O18	O	1.677218	-0.067610	0.139855
O19	O	1.084661	-0.269781	-0.423941
O20	O	1.584661	0.230219	0.076059
O21	O	0.979013	-0.439278	-0.229360
O22	O	1.479013	0.060722	0.270640
O23	O	0.859735	-0.439215	-0.348646
O24	O	1.359735	0.060785	0.151354
O25	O	0.967564	-0.567499	-0.569813
O26	O	1.467564	-0.067499	-0.069813
O27	O	0.848233	-0.567539	-0.450497
O28	O	1.348233	-0.067539	0.049503
O29	O	1.069481	-0.439144	-0.558365
O30	O	1.569481	0.060856	-0.058365
O31	O	1.042707	-0.737014	-0.375254
O32	O	1.542707	-0.237014	0.124746
O33	O	0.952331	-0.736966	-0.465635
O34	O	1.452331	-0.236966	0.034365
C35	C	0.827281	-0.503375	-0.399569
C36	C	1.327281	-0.003375	0.100431
C37	C	0.745481	-0.503393	-0.399579
C38	C	1.245481	-0.003393	0.100421
C39	C	0.551308	-0.570316	-0.452563
C40	C	1.051308	-0.070316	0.047437
C41	C	0.474449	-0.570319	-0.452573
C42	C	0.974449	-0.070319	0.047427
C43	C	0.486415	-0.436489	-0.346638
C44	C	0.986415	0.063511	0.153362
C45	C	0.563273	-0.436481	-0.346632
C46	C	1.063273	0.063519	0.153368
C47	C	0.595717	-0.503401	-0.399594
C48	C	1.095717	-0.003401	0.100406
C49	C	0.442000	-0.503412	-0.399609
C50	C	0.942000	-0.003412	0.100391
C51	C	0.358666	-0.503415	-0.399619
C52	C	0.858666	-0.003415	0.100381
C53	C	0.679056	-0.503396	-0.399586
C54	C	1.179056	-0.003396	0.100414
C55	C	0.994136	-0.774908	-0.423845
C56	C	1.494136	-0.274908	0.076155
C57	C	0.983786	-0.891063	-0.434246
C58	C	1.483786	-0.391063	0.065754
C59	C	1.023927	-0.942838	-0.394197
C60	C	1.523927	-0.442838	0.105803
C61	C	1.013231	-1.062890	-0.404945
C62	C	1.513231	-0.562890	0.095055
C63	C	1.210437	-0.503412	-0.399615
C64	C	1.710437	-0.003412	0.100385
C65	C	1.292235	-0.503420	-0.399625
C66	C	1.792235	-0.003420	0.100375
C67	C	1.018528	-0.503309	-0.591537
C68	C	1.518528	-0.003309	-0.091537
C69	C	1.018546	-0.503274	-0.673333
C70	C	1.518546	-0.003274	-0.173333
C71	C	1.042952	-0.230818	-0.375260
C72	C	1.542952	0.269182	0.124740
C73	C	1.053377	-0.114662	-0.364891
C74	C	1.553377	0.385338	0.135109
C75	C	0.977521	-0.436385	-0.855552
C76	C	1.477521	0.063615	-0.355552
C77	C	0.977535	-0.436364	-0.932409
C78	C	1.477535	0.063636	-0.432409
C79	C	1.059671	-0.570038	-0.944341
C80	C	1.559671	-0.070038	-0.444341
C81	C	1.059652	-0.570063	-0.867486
C82	C	1.559652	-0.070063	-0.367486
C83	C	1.018578	-0.503231	-0.823093
C84	C	1.518578	-0.003231	-0.323093
C85	C	1.018612	-0.503185	-0.976805
C86	C	1.518612	-0.003185	-0.476805
C87	C	1.018628	-0.503162	-1.060136
C88	C	1.518628	-0.003162	-0.560136
C89	C	1.018561	-0.503255	-0.739756
C90	C	1.518561	-0.003255	-0.239756
C91	C	1.018493	-0.503401	-0.208386
C92	C	1.518493	-0.003401	0.291614
C93	C	1.018644	-0.503142	-0.126565
C94	C	1.518644	-0.003142	0.373435
H95	H	0.599432	-0.381984	-0.303498
H96	H	1.099432	0.118016	0.196502
N97	N	0.451417	-0.364331	-0.289509
N98	N	0.951417	0.135669	0.210491
H99	H	0.491214	-0.321938	-0.255953
H100	H	0.991214	0.178062	0.244047
H101	H	0.423867	-0.316023	-0.315204
H102	H	0.923867	0.183977	0.184796
N103	N	1.109396	-1.055668	-0.308929
N104	N	1.609396	-0.555668	0.191071
H105	H	1.160300	-1.074535	-0.322088
H106	H	1.660300	-0.574535	0.177912
H107	H	1.109034	-0.978288	-0.309209
H108	H	1.609034	-0.478288	0.190791
H109	H	1.093087	-0.624501	-0.841058
H110	H	1.593087	-0.124501	-0.341058
N111	N	0.927776	-0.950063	-0.490209
N112	N	1.427776	-0.450063	0.009791
H113	H	0.928075	-1.027462	-0.489955
H114	H	1.428075	-0.527462	0.010045
H115	H	0.876899	-0.931117	-0.477021
H116	H	1.376899	-0.431117	0.022979
N117	N	0.586301	-0.642481	-0.509691
N118	N	1.086301	-0.142481	-0.009691
H119	H	0.641730	-0.632327	-0.501650
H120	H	1.141730	-0.132327	-0.001650
H121	H	0.566171	-0.717097	-0.504819
H122	H	1.066171	-0.217097	-0.004819
N123	N	1.103981	-0.642101	-0.992224
N124	N	1.603981	-0.142101	-0.492224
H125	H	1.129988	-0.684453	-0.959997
H126	H	1.629988	-0.184453	-0.459997
H127	H	1.069696	-0.690452	-1.028426
H128	H	1.569696	-0.190452	-0.528426
N129	N	0.426548	-0.642498	-0.509698
N130	N	0.926548	-0.142498	-0.009698
H131	H	0.441391	-0.626366	-0.560857
H132	H	0.941391	-0.126366	-0.060857
H133	H	0.433247	-0.717113	-0.504778
H134	H	0.933247	-0.217113	-0.004778
N135	N	1.079946	-0.883838	-0.338243
N136	N	1.579946	-0.383838	0.161757
H137	H	1.079648	-0.806439	-0.338498
H138	H	1.579648	-0.306439	0.161502
H139	H	1.066839	-0.902923	-0.287368
H140	H	1.566839	-0.402923	0.212632
N141	N	0.957218	-1.121887	-0.460912
N142	N	1.457218	-0.621887	0.039088
H143	H	0.957517	-1.199285	-0.460658
H144	H	1.457517	-0.699285	0.039342
H145	H	0.906341	-1.102940	-0.447724
H146	H	1.406341	-0.602940	0.052276
N147	N	0.933224	-0.364304	-0.807669
N148	N	1.433224	0.135696	-0.307669
H149	H	0.907217	-0.321955	-0.839897
H150	H	1.407217	0.178045	-0.339897
H151	H	0.895342	-0.406847	-0.779571
H152	H	1.395342	0.093153	-0.279571
H153	H	0.944101	-0.381933	-0.958833
H154	H	1.444101	0.118067	-0.458833
