data_functionalizedCrystal
_audit_creation_method	'MofGen! by Chris Wilmer'
_symmetry_space_group_name_H-M	'P1'
_symmetry_Int_Tables_number	1
_symmetry_cell_setting	triclinic
loop_
_symmetry_equiv_pos_as_xyz
  x,y,z
_cell_length_a	10.967819
_cell_length_b	14.421503
_cell_length_c	11.026607
_cell_angle_alpha	89.992800
_cell_angle_beta	96.381100
_cell_angle_gamma	102.137020
loop_
_atom_site_label
_atom_site_type_symbol
_atom_site_fract_x
_atom_site_fract_y
_atom_site_fract_z
O1	O	1.694052	0.347818	0.170479
O2	O	2.027385	0.681151	0.503812
O3	O	2.360719	1.014484	0.837145
O4	O	1.334411	0.290349	0.186806
O5	O	1.667744	0.623682	0.520139
O6	O	2.001078	0.957015	0.853473
O7	O	1.484425	0.314317	0.001742
O8	O	1.817758	0.647650	0.335075
O9	O	2.151091	0.980983	0.668408
O10	O	1.544038	0.323849	0.355543
O11	O	1.877371	0.657183	0.688876
O12	O	2.210705	0.990516	1.022210
O13	O	1.484399	0.160089	0.001769
O14	O	1.817732	0.493423	0.335102
O15	O	2.151066	0.826756	0.668436
O16	O	1.334385	0.136121	0.186834
O17	O	1.667719	0.469455	0.520167
O18	O	2.001052	0.802788	0.853500
O19	O	1.694026	0.193590	0.170506
O20	O	2.027360	0.526923	0.503840
O21	O	2.360693	0.860257	0.837173
Cu22	Cu	1.514203	0.150773	0.178672
Cu23	Cu	1.847537	0.484107	0.512006
Cu24	Cu	2.180870	0.817440	0.845339
Cu25	Cu	1.514234	0.333165	0.178640
Cu26	Cu	1.847567	0.666499	0.511973
Cu27	Cu	2.180900	0.999832	0.845307
O28	O	1.544012	0.169622	0.355571
O29	O	1.877346	0.502955	0.688904
O30	O	2.210679	0.836289	1.022237
C31	C	1.287641	0.205763	0.185633
C32	C	1.620974	0.539097	0.518966
C33	C	1.954307	0.872430	0.852299
C34	C	1.148315	0.183500	0.182081
C35	C	1.481648	0.516833	0.515414
C36	C	1.814982	0.850166	0.848748
N37	N	1.514191	0.022490	0.178695
N38	N	1.847524	0.355824	0.512028
N39	N	2.180858	0.689157	0.845361
C40	C	0.942220	0.230476	0.176825
C41	C	1.275554	0.563809	0.510158
C42	C	1.608887	0.897143	0.843492
C43	C	1.086220	0.253481	0.180487
C44	C	1.419553	0.586814	0.513821
C45	C	1.752887	0.920147	0.847154
C46	C	1.444800	-0.238250	0.264229
C47	C	1.778134	0.095083	0.597563
C48	C	2.111467	0.428416	0.930896
C49	C	1.563069	-0.281154	0.288766
C50	C	1.896403	0.052180	0.622099
C51	C	2.229736	0.385513	0.955432
C52	C	1.514215	-0.166667	0.178666
C53	C	1.847548	0.166666	0.511999
C54	C	2.180882	0.499999	0.845332
C55	C	1.395982	-0.307852	0.154158
C56	C	1.729315	0.025481	0.487492
C57	C	2.062648	0.358814	0.820825
C58	C	1.514229	-0.349387	0.178641
C59	C	1.847562	-0.016053	0.511974
C60	C	2.180895	0.317280	0.845307
C61	C	1.632553	-0.208199	0.203257
C62	C	1.965886	0.125134	0.536590
C63	C	2.299220	0.458468	0.869924
C64	C	1.465381	-0.234906	0.068602
C65	C	1.798714	0.098428	0.401935
C66	C	2.132047	0.431761	0.735268
C67	C	1.583721	-0.277770	0.093092
C68	C	1.917054	0.055563	0.426425
C69	C	2.250387	0.388897	0.759758
C70	C	1.514206	-0.061408	0.178683
C71	C	1.847539	0.271926	0.512017
C72	C	2.180873	0.605259	0.845350
C73	C	1.514250	-0.454642	0.178622
C74	C	1.847584	-0.121309	0.511956
C75	C	2.180917	0.212025	0.845289
C76	C	1.740797	0.278177	0.171680
C77	C	2.074130	0.611511	0.505013
C78	C	2.407463	0.944844	0.838346
C79	C	1.880122	0.300447	0.175231
C80	C	2.213456	0.633780	0.508565
C81	C	2.546789	0.967114	0.841898
C82	C	1.473414	0.235447	-0.043547
C83	C	1.806748	0.568780	0.289786
C84	C	2.140081	0.902113	0.623120
C85	C	1.440630	0.230211	-0.178533
C86	C	1.773963	0.563545	0.154800
C87	C	2.107297	0.896878	0.488133
N88	N	1.514254	0.461450	0.178608
N89	N	1.847587	0.794783	0.511941
N90	N	2.180920	1.128116	0.845275
C91	C	1.531153	0.244678	-0.251587
C92	C	1.864486	0.578011	0.081747
C93	C	2.197820	0.911344	0.415080
C94	C	1.497271	0.239267	-0.391103
C95	C	1.830604	0.572600	-0.057769
C96	C	2.163938	0.905934	0.275564
C97	C	1.555023	0.248494	0.400859
C98	C	1.888356	0.581827	0.734192
C99	C	2.221690	0.915161	1.067526
C100	C	1.587807	0.253736	0.535846
C101	C	1.921141	0.587069	0.869179
C102	C	2.254474	0.920402	1.202512
H103	H	0.888778	0.153540	0.175485
H104	H	1.222112	0.486874	0.508818
H105	H	1.555445	0.820207	0.842152
F106	F	1.660558	-0.300695	-0.001504
F107	F	1.993892	0.032638	0.331830
F108	F	2.327225	0.365972	0.665163
H109	H	1.424035	-0.214320	-0.024437
H110	H	1.757368	0.119013	0.308896
H111	H	2.090702	0.452346	0.642230
F112	F	1.617075	-0.308039	0.410410
F113	F	1.950409	0.025295	0.743744
F114	F	2.283742	0.358628	1.077077
H115	H	1.633737	0.261064	-0.210843
H116	H	1.967070	0.594398	0.122490
H117	H	2.300403	0.927731	0.455824
F118	F	1.368190	-0.215067	0.358881
F119	F	1.701524	0.118266	0.692214
F120	F	2.034857	0.451600	1.025548
F121	F	1.763314	-0.151946	0.230478
F122	F	2.096648	0.181387	0.563811
F123	F	2.429981	0.514720	0.897144
H124	H	1.295988	-0.351001	0.133442
H125	H	1.629321	-0.017668	0.466775
H126	H	1.962655	0.315665	0.800108
F127	F	1.078476	0.082931	0.180329
F128	F	1.411809	0.416264	0.513662
F129	F	1.745143	0.749598	0.846996
H130	H	1.394681	0.222880	-0.431841
H131	H	1.728014	0.556213	-0.098508
H132	H	2.061347	0.889546	0.234826
H133	H	1.690398	0.270199	-0.423418
H134	H	2.023731	0.603532	-0.090085
H135	H	2.357065	0.936865	0.243249
F136	F	1.156063	0.354049	0.182256
F137	F	1.489396	0.687382	0.515589
F138	F	1.822730	1.020716	0.848923
F139	F	0.949970	0.401010	0.177000
F140	F	1.283303	0.734344	0.510333
F141	F	1.616637	1.067677	0.843667
F142	F	1.306543	0.208793	-0.231782
F143	F	1.639876	0.542127	0.101552
F144	F	1.973209	0.875460	0.434885
