data_functionalizedCrystal
_audit_creation_method	'MofGen! by Chris Wilmer'
_symmetry_space_group_name_H-M	'P1'
_symmetry_Int_Tables_number	1
_symmetry_cell_setting	triclinic
loop_
_symmetry_equiv_pos_as_xyz
  x,y,z
_cell_length_a	16.992694
_cell_length_b	10.654541
_cell_length_c	16.053802
_cell_angle_alpha	92.590712
_cell_angle_beta	87.249047
_cell_angle_gamma	87.576076
loop_
_atom_site_label
_atom_site_type_symbol
_atom_site_fract_x
_atom_site_fract_y
_atom_site_fract_z
O1	O	1.045115	0.261481	-0.069324
O2	O	0.816815	0.258557	-0.069348
O3	O	0.936214	0.077733	-0.069330
O4	O	0.925715	0.442304	-0.069342
O5	O	0.929642	0.087643	0.069527
O6	O	0.810242	0.268466	0.069510
O7	O	1.038542	0.271391	0.069534
Zn8	Zn	0.923349	0.271501	0.091569
Zn9	Zn	0.932008	0.258446	-0.091383
O10	O	0.919143	0.452214	0.069516
C11	C	0.784296	0.259751	0.000077
C12	C	0.697191	0.248531	0.000068
C13	C	0.932158	0.035823	0.000098
C14	C	0.929852	-0.103819	0.000096
C15	C	0.647539	0.356781	0.000065
C16	C	0.565694	0.346233	0.000077
C17	C	0.533504	0.227433	0.000086
C18	C	0.583162	0.119174	0.000091
C19	C	0.665005	0.129724	0.000085
C20	C	0.289668	0.183707	0.000110
C21	C	0.207819	0.173165	0.000113
C22	C	0.190356	0.400226	0.000101
C23	C	0.272201	0.410765	0.000090
C24	C	0.321852	0.302506	0.000099
N25	N	0.449846	0.216647	0.000095
N26	N	0.405508	0.313293	0.000096
C27	C	1.072627	-0.119450	0.000122
C28	C	1.142928	-0.192868	0.000137
C29	C	1.140757	-0.324074	0.000134
C30	C	1.068278	-0.381864	0.000114
C31	C	0.997977	-0.308446	0.000100
C32	C	1.000155	-0.177238	0.000105
C33	C	0.855204	-0.292816	0.000068
C34	C	0.857373	-0.161610	0.000076
C35	C	0.782725	-0.350606	0.000048
C36	C	0.712422	-0.277188	0.000039
C37	C	0.714596	-0.145974	0.000043
C38	C	0.787072	-0.088192	0.000062
C39	C	1.071061	0.270196	0.000106
C40	C	1.158166	0.281416	0.000110
C41	C	0.923199	0.494124	0.000086
C42	C	0.925505	0.633766	0.000082
N43	N	0.917445	0.280412	0.216428
N44	N	0.937918	0.249526	-0.216242
C45	C	0.968268	0.203502	0.260130
C46	C	0.964146	0.209748	0.347536
C47	C	0.909203	0.292910	0.391239
C48	C	0.858374	0.369822	0.347531
C49	C	0.862493	0.363569	0.260126
C50	C	0.891209	0.320186	0.652646
C51	C	0.887095	0.326436	0.740056
C52	C	0.992866	0.166359	0.740055
C53	C	0.996984	0.160119	0.652649
C54	C	0.946152	0.237026	0.608949
N55	N	0.904989	0.299298	0.480582
N56	N	0.950363	0.230631	0.519607
H57	H	0.673741	0.453522	0.000058
H58	H	0.181613	0.076419	0.000119
C59	C	1.020037	0.125108	0.395603
N60	N	1.062130	0.061342	0.431808
H61	H	0.556946	0.022444	0.000110
C62	C	1.075021	0.024880	0.000133
N63	N	1.076827	0.133590	0.000139
H64	H	0.780962	-0.457442	0.000040
C65	C	1.065894	-0.526195	0.000108
N66	N	1.064098	-0.634906	0.000106
H67	H	1.201939	-0.145800	0.000160
H68	H	0.653415	-0.324252	0.000018
H69	H	0.657348	-0.086204	0.000027
H70	H	0.330084	0.095555	0.000118
H71	H	0.705432	0.041574	0.000087
H72	H	0.849821	0.382810	0.617072
H73	H	0.788849	0.018643	0.000070
H74	H	1.198003	-0.383852	0.000139
H75	H	1.013012	0.135788	0.224552
H76	H	0.525270	0.434383	0.000074
C77	C	1.057422	0.068627	0.604582
N78	N	1.102944	-0.000285	0.568378
H79	H	0.149922	0.488363	0.000095
H80	H	0.298405	0.507504	0.000073
H81	H	1.034250	0.103743	0.775643
H82	H	0.842351	0.394161	0.775635
C83	C	0.797928	0.461289	0.395607
N84	N	0.752399	0.530183	0.431818
C85	C	0.806589	0.448187	0.212055
N86	N	0.764481	0.511924	0.175849
