data_functionalizedCrystal
_audit_creation_method	'MofGen! by Chris Wilmer'
_symmetry_space_group_name_H-M	'P1'
_symmetry_Int_Tables_number	1
_symmetry_cell_setting	triclinic
loop_
_symmetry_equiv_pos_as_xyz
  x,y,z
_cell_length_a	14.044220
_cell_length_b	14.044220
_cell_length_c	13.596369
_cell_angle_alpha	89.993157
_cell_angle_beta	89.999747
_cell_angle_gamma	93.188878
loop_
_atom_site_label
_atom_site_type_symbol
_atom_site_fract_x
_atom_site_fract_y
_atom_site_fract_z
O1	O	1.277169	0.230169	-0.081691
O2	O	1.610502	0.563503	0.251643
O3	O	1.943836	0.896836	0.584976
O4	O	1.000498	0.221864	-0.081715
O5	O	1.333831	0.555197	0.251618
O6	O	1.667164	0.888530	0.584951
O7	O	1.134680	0.087681	-0.081694
O8	O	1.468014	0.421014	0.251640
O9	O	1.801347	0.754347	0.584973
O10	O	1.142986	0.364352	-0.081712
O11	O	1.476319	0.697685	0.251621
O12	O	1.809653	1.031019	0.584954
O13	O	1.134665	0.087672	0.081889
O14	O	1.467999	0.421005	0.415223
O15	O	1.801332	0.754338	0.748556
O16	O	1.000482	0.221855	0.081867
O17	O	1.333816	0.555188	0.415201
O18	O	1.667149	0.888521	0.748534
O19	O	1.277154	0.230160	0.081892
O20	O	1.610487	0.563494	0.415226
O21	O	1.943820	0.896827	0.748559
Zn22	Zn	1.138816	0.226006	0.107852
Zn23	Zn	1.472149	0.559339	0.441185
Zn24	Zn	1.805482	0.892673	0.774519
Zn25	Zn	1.138836	0.226018	-0.107675
Zn26	Zn	1.472169	0.559351	0.225658
Zn27	Zn	1.805502	0.892684	0.558991
O28	O	1.142971	0.364343	0.081870
O29	O	1.476304	0.697676	0.415204
O30	O	1.809638	1.031010	0.748537
C31	C	0.964868	0.218223	0.000073
C32	C	1.298201	0.551557	0.333406
C33	C	1.631535	0.884890	0.666740
C34	C	0.858725	0.207379	0.000064
C35	C	1.192059	0.540712	0.333397
C36	C	1.525392	0.874045	0.666730
C37	C	0.664388	0.187553	0.000085
C38	C	0.997721	0.520886	0.333418
C39	C	1.331054	0.854219	0.666751
C40	C	0.613258	0.264467	0.000084
C41	C	0.946591	0.597800	0.333417
C42	C	1.279924	0.931134	0.666750
C43	C	0.505122	0.253435	0.000095
C44	C	0.838455	0.586769	0.333428
C45	C	1.171788	0.920102	0.666762
C46	C	0.772534	0.198583	0.000073
C47	C	1.105867	0.531916	0.333406
C48	C	1.439200	0.865249	0.666740
C49	C	1.131037	0.052054	0.000098
C50	C	1.464371	0.385388	0.333431
C51	C	1.797704	0.718721	0.666764
C52	C	1.120193	-0.054088	0.000098
C53	C	1.453526	0.279245	0.333431
C54	C	1.786859	0.612578	0.666765
C55	C	1.100366	-0.248426	0.000082
C56	C	1.433700	0.084907	0.333415
C57	C	1.767033	0.418241	0.666749
C58	C	1.177281	-0.299556	0.000086
C59	C	1.510614	0.033777	0.333419
C60	C	1.843947	0.367111	0.666753
C61	C	1.166249	-0.407692	0.000077
C62	C	1.499583	-0.074359	0.333410
C63	C	1.832916	0.258974	0.666744
C64	C	1.111397	-0.140280	0.000091
C65	C	1.444730	0.193053	0.333424
C66	C	1.778063	0.526387	0.666758
C67	C	1.312783	0.233800	0.000102
C68	C	1.646117	0.567134	0.333435
C69	C	1.979450	0.900467	0.666768
C70	C	1.418926	0.244645	0.000104
C71	C	1.752259	0.577978	0.333438
C72	C	2.085593	0.911312	0.666771
C73	C	1.146614	0.399969	0.000077
C74	C	1.479948	0.733303	0.333410
C75	C	1.813281	1.066636	0.666743
C76	C	1.157459	0.506112	0.000070
C77	C	1.490792	0.839446	0.333403
C78	C	1.824125	1.172779	0.666737
N79	N	1.138809	0.225998	0.254944
N80	N	1.472142	0.559331	0.588277
N81	N	1.805476	0.892665	0.921611
N82	N	1.138849	0.226019	-0.254767
N83	N	1.472183	0.559352	0.078566
N84	N	1.805516	0.892686	0.411899
C85	C	1.138835	0.226019	0.656235
C86	C	1.472168	0.559352	0.989568
C87	C	1.805501	0.892685	1.322902
C88	C	1.138825	0.226016	0.544584
C89	C	1.472158	0.559349	0.877917
C90	C	1.805492	0.892683	1.211250
C91	C	1.138822	0.226009	0.455593
C92	C	1.472156	0.559342	0.788926
C93	C	1.805489	0.892676	1.122260
C94	C	1.138811	0.226005	0.343935
C95	C	1.472145	0.559338	0.677268
C96	C	1.805478	0.892671	1.010601
H97	H	1.251414	-0.262117	0.000027
H98	H	1.584748	0.071217	0.333360
H99	H	1.918081	0.404550	0.666693
N100	N	1.007379	-0.295403	0.000090
N101	N	1.340713	0.037931	0.333423
N102	N	1.674046	0.371264	0.666756
N103	N	0.982599	-0.350203	0.069044
N104	N	1.315932	-0.016870	0.402378
N105	N	1.649265	0.316463	0.735711
H106	H	0.916928	-0.383393	0.069054
H107	H	1.250261	-0.050060	0.402388
H108	H	1.583595	0.283274	0.735721
H109	H	0.650697	0.338600	0.000074
H110	H	0.984030	0.671934	0.333407
H111	H	1.317364	1.005267	0.666740
H112	H	0.626951	0.113425	0.000095
H113	H	0.960284	0.446758	0.333428
H114	H	1.293617	0.780092	0.666762
