data_functionalizedCrystal
_audit_creation_method	'MofGen! by Chris Wilmer'
_symmetry_space_group_name_H-M	'P1'
_symmetry_Int_Tables_number	1
_symmetry_cell_setting	triclinic
loop_
_symmetry_equiv_pos_as_xyz
  x,y,z
_cell_length_a	23.532355
_cell_length_b	23.532407
_cell_length_c	12.996460
_cell_angle_alpha	89.989202
_cell_angle_beta	90.000230
_cell_angle_gamma	82.838088
loop_
_atom_site_label
_atom_site_type_symbol
_atom_site_fract_x
_atom_site_fract_y
_atom_site_fract_z
O1	O	0.755279	0.068995	-0.085437
O2	O	1.255279	0.568995	0.414563
O3	O	0.589412	0.079029	-0.085471
O4	O	1.089412	0.579029	0.414529
O5	O	0.677347	-0.008920	-0.085434
O6	O	1.177347	0.491080	0.414566
O7	O	0.667344	0.156945	-0.085474
O8	O	1.167344	0.656945	0.414526
O9	O	0.677338	-0.008925	0.085699
O10	O	1.177338	0.491075	0.585699
O11	O	0.589403	0.079025	0.085662
O12	O	1.089403	0.579025	0.585662
O13	O	0.755270	0.068990	0.085697
O14	O	1.255270	0.568990	0.585697
Cu15	Cu	0.672336	0.074007	0.101305
Cu16	Cu	1.172336	0.574007	0.601305
Cu17	Cu	0.672346	0.074013	-0.101080
Cu18	Cu	1.172346	0.574013	0.398920
O19	O	0.667335	0.156940	0.085660
O20	O	1.167335	0.656940	0.585660
C21	C	0.568191	0.078776	0.000091
C22	C	1.068191	0.578776	0.500091
C23	C	0.504972	0.078022	0.000079
C24	C	1.004972	0.578022	0.500079
C25	C	0.112953	0.073281	0.093408
C26	C	0.612953	0.573281	0.593408
C27	C	0.053554	0.072564	0.093413
C28	C	0.553554	0.572564	0.593413
O29	O	0.022831	0.072171	0.172747
O30	O	0.522831	0.572171	0.672747
N31	N	0.023850	0.072211	0.000128
N32	N	0.523850	0.572211	0.500128
C33	C	0.053550	0.072569	-0.093167
C34	C	0.553550	0.572569	0.406833
O35	O	0.022831	0.072202	-0.172512
O36	O	0.522831	0.572202	0.327488
C37	C	0.112949	0.073283	-0.093170
C38	C	0.612949	0.573283	0.406830
C39	C	0.142649	0.073641	0.000121
C40	C	0.642649	0.573641	0.500121
C41	C	0.142653	0.073640	0.186691
C42	C	0.642653	0.573640	0.686691
C43	C	0.202048	0.074358	0.186687
C44	C	0.702048	0.574358	0.686687
C45	C	0.231744	0.074718	0.093399
C46	C	0.731744	0.574718	0.593399
C47	C	0.202044	0.074360	0.000116
C48	C	0.702044	0.574360	0.500116
C49	C	0.142648	0.073637	-0.186464
C50	C	0.642648	0.573637	0.313536
C51	C	0.202051	0.074350	-0.186459
C52	C	0.702051	0.574350	0.313541
C53	C	0.231751	0.074709	-0.093168
C54	C	0.731751	0.574709	0.406832
C55	C	0.291134	0.075439	-0.093176
C56	C	0.791134	0.575439	0.406824
N57	N	0.320838	0.075792	0.000109
N58	N	0.820838	0.575792	0.500109
C59	C	0.291143	0.075432	0.093396
C60	C	0.791143	0.575432	0.593396
C61	C	-0.071191	0.071070	-0.093153
C62	C	0.428809	0.571070	0.406847
C63	C	-0.130590	0.070361	-0.093151
C64	C	0.369410	0.570361	0.406849
C65	C	-0.130582	0.070354	0.093428
C66	C	0.369418	0.570354	0.593428
C67	C	-0.071183	0.071068	0.093425
C68	C	0.428817	0.571068	0.593425
C69	C	-0.041488	0.071423	0.000131
C70	C	0.458512	0.571423	0.500131
C71	C	0.415877	0.076941	0.093380
C72	C	0.915877	0.576941	0.593380
C73	C	0.475277	0.077662	0.093367
C74	C	0.975277	0.577662	0.593367
C75	C	0.475264	0.077665	-0.093212
C76	C	0.975264	0.577665	0.406788
C77	C	0.415869	0.076947	-0.093200
C78	C	0.915869	0.576947	0.406800
C79	C	0.386177	0.076583	0.000104
C80	C	0.886177	0.576583	0.500104
O81	O	0.321895	0.075829	-0.172470
O82	O	0.821895	0.575829	0.327530
O83	O	0.321870	0.075791	0.172728
O84	O	0.821870	0.575791	0.672728
C85	C	0.677088	-0.030139	0.000135
C86	C	1.177088	0.469861	0.500135
C87	C	0.676322	-0.093356	0.000143
C88	C	1.176322	0.406644	0.500143
C89	C	0.723557	-0.492468	0.000096
C90	C	1.223557	0.007532	0.500096
C91	C	0.722845	-0.551868	0.000088
C92	C	1.222845	-0.051868	0.500088
O93	O	0.766632	-0.588620	0.000059
O94	O	1.266632	-0.088620	0.500059
N95	N	0.670568	-0.574484	0.000078
N96	N	1.170568	-0.074484	0.500078
C97	C	0.618998	-0.537697	0.000066
C98	C	1.118998	-0.037697	0.500066
O99	O	0.574467	-0.562388	0.000055
O100	O	1.074467	-0.062388	0.500055
C101	C	0.619710	-0.478298	0.000066
C102	C	1.119710	0.021702	0.500066
C103	C	0.671991	-0.455685	0.000087
C104	C	1.171991	0.044315	0.500087
C105	C	0.775834	-0.469854	0.000115
C106	C	1.275834	0.030146	0.500115
C107	C	0.776545	-0.410458	0.000125
C108	C	1.276545	0.089542	0.500125
C109	C	0.724979	-0.373676	0.000116
C110	C	1.224979	0.126324	0.500116
C111	C	0.672703	-0.396289	0.000097
C112	C	1.172703	0.103711	0.500097
C113	C	0.568141	-0.441512	0.000046
C114	C	1.068141	0.058488	0.500046
C115	C	0.568858	-0.382110	0.000046
C116	C	1.068858	0.117890	0.500046
C117	C	0.621139	-0.359497	0.000067
C118	C	1.121139	0.140503	0.500067
C119	C	0.621848	-0.300110	0.000097
C120	C	1.121848	0.199890	0.500097
N121	N	0.674126	-0.277494	0.000107
N122	N	1.174126	0.222506	0.500107
C123	C	0.725691	-0.314277	0.000116
C124	C	1.225691	0.185723	0.500116
C125	C	0.617507	-0.662439	0.000063
C126	C	1.117507	-0.162439	0.500063
C127	C	0.616794	-0.721837	0.000069
C128	C	1.116794	-0.221837	0.500069
C129	C	0.720642	-0.736004	0.000090
C130	C	1.220642	-0.236004	0.500090
C131	C	0.721354	-0.676605	0.000091
C132	C	1.221354	-0.176605	0.500091
C133	C	0.669784	-0.639823	0.000073
C134	C	1.169784	-0.139823	0.500073
C135	C	0.727181	-0.189540	0.000138
C136	C	1.227181	0.310460	0.500138
C137	C	0.727888	-0.130138	0.000152
C138	C	1.227888	0.369862	0.500152
C139	C	0.624041	-0.115977	0.000126
C140	C	1.124041	0.384023	0.500126
C141	C	0.623334	-0.175373	0.000117
C142	C	1.123334	0.324627	0.500117
C143	C	0.674909	-0.212154	0.000120
C144	C	1.174909	0.287846	0.500120
O145	O	0.578084	-0.263323	0.000122
O146	O	1.078084	0.236677	0.500122
O147	O	0.770216	-0.289577	0.000113
O148	O	1.270216	0.210423	0.500113
C149	C	0.776492	0.069244	0.000131
C150	C	1.276492	0.569244	0.500131
C151	C	0.839710	0.069998	0.000137
C152	C	1.339710	0.569998	0.500137
C153	C	0.667594	0.178158	0.000088
C154	C	1.167594	0.678158	0.500088
C155	C	0.668360	0.241375	0.000073
C156	C	1.168360	0.741375	0.500073
N157	N	0.672332	0.074003	0.243652
N158	N	1.172332	0.574003	0.743652
N159	N	0.672354	0.074012	-0.243427
N160	N	1.172354	0.574012	0.256573
C161	C	0.672346	0.074013	0.663467
C162	C	1.172346	0.574013	1.163467
C163	C	0.672340	0.074012	0.546662
C164	C	1.172340	0.574012	1.046662
C165	C	0.672339	0.074008	0.453563
C166	C	1.172339	0.574008	0.953563
C167	C	0.672333	0.074006	0.336751
C168	C	1.172333	0.574006	0.836751
H169	H	0.391708	0.076650	0.169357
H170	H	0.891708	0.576650	0.669357
N171	N	0.507303	0.078049	-0.193822
N172	N	1.007303	0.578049	0.306178
H173	H	0.501787	0.042614	-0.234590
H174	H	1.001787	0.542614	0.265410
H175	H	0.492135	0.113256	-0.234544
H176	H	0.992135	0.613256	0.265456
H177	H	0.391685	0.076664	-0.169165
H178	H	0.891685	0.576664	0.330835
N179	N	0.234077	0.074730	0.287310
N180	N	0.734077	0.574730	0.787310
H181	H	0.276214	0.075237	0.273168
H182	H	0.776214	0.575237	0.773168
H183	H	0.218874	0.109912	0.328046
H184	H	0.718874	0.609912	0.828046
N185	N	0.832932	-0.386068	0.000122
N186	N	1.332932	0.113932	0.500122
H187	H	0.835547	-0.361746	0.063559
H188	H	1.335547	0.138254	0.563559
H189	H	0.865455	-0.418418	0.000081
H190	H	1.365455	0.081582	0.500081
N191	N	0.110631	0.073249	0.287318
N192	N	0.610631	0.573249	0.787318
H193	H	0.138519	0.073196	0.346400
H194	H	0.638519	0.573196	0.846400
H195	H	0.081431	0.108461	0.291682
H196	H	0.581431	0.608461	0.791682
N197	N	-0.162621	0.069983	-0.193771
N198	N	0.337379	0.569983	0.306229
H199	H	-0.134790	0.070320	-0.252864
H200	H	0.365210	0.570320	0.247136
H201	H	-0.182443	0.034374	-0.197829
H202	H	0.317557	0.534374	0.302171
N203	N	0.110629	0.073242	-0.287089
N204	N	0.610629	0.573242	0.212911
H205	H	0.090807	0.037634	-0.291233
H206	H	0.590807	0.537634	0.208767
H207	H	0.081192	0.108277	-0.291216
H208	H	0.581192	0.608277	0.208784
H209	H	0.769178	-0.219481	0.000136
H210	H	1.269178	0.280519	0.500136
N211	N	0.561878	-0.622775	0.000070
N212	N	1.061878	-0.122775	0.500070
H213	H	0.559855	-0.597824	0.063512
H214	H	1.059855	-0.097824	0.563512
H215	H	0.559884	-0.597842	-0.063408
H216	H	1.059884	-0.097842	0.436592
N217	N	0.513239	-0.342433	0.000049
N218	N	1.013239	0.157567	0.500049
H219	H	0.511220	-0.317460	-0.063384
H220	H	1.011220	0.182540	0.436616
H221	H	0.480044	-0.365811	0.000080
H222	H	0.980044	0.134189	0.500080
N223	N	0.511752	-0.465892	0.000037
N224	N	1.011752	0.034108	0.500037
H225	H	0.479199	-0.433569	0.000029
H226	H	0.979199	0.066431	0.500029
H227	H	0.509192	-0.490221	-0.063405
H228	H	1.009192	0.009779	0.436595
H229	H	-0.047018	0.071365	-0.169129
H230	H	0.452982	0.571365	0.330871
N231	N	0.784278	-0.105748	0.000168
N232	N	1.284278	0.394252	0.500168
H233	H	0.786886	-0.081429	0.063613
H234	H	1.286886	0.418571	0.563613
H235	H	0.816802	-0.138096	0.000130
H236	H	1.316802	0.361904	0.500130
N237	N	0.234081	0.074738	-0.287083
N238	N	0.734081	0.574738	0.212917
H239	H	0.263546	0.039726	-0.291234
H240	H	0.763546	0.539726	0.208766
H241	H	0.206212	0.074424	-0.346118
H242	H	0.706212	0.574424	0.153882
N243	N	0.831456	-0.509522	0.000127
N244	N	1.331456	-0.009522	0.500127
H245	H	0.864675	-0.486174	0.000140
H246	H	1.364675	0.013826	0.500140
H247	H	0.833420	-0.534479	0.063572
H248	H	1.333420	-0.034479	0.563572
N249	N	0.777741	-0.652217	0.000113
N250	N	1.277741	-0.152217	0.500113
H251	H	0.810297	-0.684537	0.000122
H252	H	1.310297	-0.184537	0.500122
H253	H	0.780306	-0.627876	-0.063328
H254	H	1.280306	-0.127876	0.436672
H255	H	0.762629	-0.765963	0.000094
H256	H	1.262629	-0.265963	0.500094
H257	H	0.580762	-0.193785	0.000129
H258	H	1.080762	0.306215	0.500129
H259	H	0.574222	-0.740243	0.000070
H260	H	1.074222	-0.240243	0.500070
N261	N	0.568426	-0.076299	0.000144
N262	N	1.068426	0.423701	0.500144
H263	H	0.576814	-0.035240	0.000156
H264	H	1.076814	0.464760	0.500156
H265	H	0.545624	-0.083571	-0.063299
H266	H	1.045624	0.416429	0.436701
H267	H	0.499455	0.077956	0.169339
H268	H	0.999455	0.577956	0.669339
N269	N	-0.039152	0.071456	0.194044
N270	N	0.460848	0.571456	0.694044
H271	H	-0.066983	0.071121	0.253137
H272	H	0.433017	0.571121	0.753137
H273	H	-0.009688	0.036441	0.198124
H274	H	0.490312	0.536441	0.698124
H275	H	-0.154770	0.070060	0.169389
H276	H	0.345230	0.570060	0.669389
