data_functionalizedCrystal
_audit_creation_method	'MofGen! by Chris Wilmer'
_symmetry_space_group_name_H-M	'P1'
_symmetry_Int_Tables_number	1
_symmetry_cell_setting	triclinic
loop_
_symmetry_equiv_pos_as_xyz
  x,y,z
_cell_length_a	16.109318
_cell_length_b	15.186229
_cell_length_c	16.109301
_cell_angle_alpha	90.005167
_cell_angle_beta	83.465022
_cell_angle_gamma	89.999776
loop_
_atom_site_label
_atom_site_type_symbol
_atom_site_fract_x
_atom_site_fract_y
_atom_site_fract_z
O1	O	1.103122	0.073158	0.106935
O2	O	1.603122	0.573158	0.606935
O3	O	0.861062	0.073176	0.120219
O4	O	1.361062	0.573176	0.620219
O5	O	0.988741	0.073158	-0.007454
O6	O	1.488741	0.573158	0.492546
O7	O	0.975442	0.073177	0.234607
O8	O	1.475442	0.573177	0.734607
O9	O	0.988733	-0.073300	-0.007456
O10	O	1.488733	0.426700	0.492544
O11	O	0.861053	-0.073281	0.120217
O12	O	1.361053	0.426719	0.620217
O13	O	1.103113	-0.073299	0.106933
O14	O	1.603113	0.426701	0.606933
Zn15	Zn	0.982082	-0.096543	0.113575
Zn16	Zn	1.482082	0.403457	0.613575
Zn17	Zn	0.982093	0.096420	0.113577
Zn18	Zn	1.482093	0.596420	0.613577
O19	O	0.975433	-0.073281	0.234606
O20	O	1.475433	0.426719	0.734606
C21	C	0.830083	-0.000050	0.119677
C22	C	1.330083	0.499950	0.619677
C23	C	0.737788	-0.000043	0.118057
C24	C	1.237788	0.499957	0.618057
N25	N	0.982080	-0.228236	0.113573
N26	N	1.482080	0.271764	0.613573
C27	C	0.438719	0.079774	0.112823
C28	C	0.938719	0.579774	0.612823
C29	C	0.525440	0.079780	0.114340
C30	C	1.025440	0.579780	0.614340
C31	C	0.525450	-0.079896	0.114327
C32	C	1.025450	0.420104	0.614327
C33	C	0.438731	-0.079900	0.112803
C34	C	0.938731	0.420100	0.612803
C35	C	0.395367	-0.000063	0.112056
C36	C	0.895367	0.499937	0.612056
C37	C	0.568807	-0.000052	0.115096
C38	C	1.068807	0.499948	0.615096
C39	C	0.662835	-0.000047	0.116742
C40	C	1.162835	0.499953	0.616742
C41	C	0.301334	-0.000068	0.110409
C42	C	0.801334	0.499932	0.610409
C43	C	1.038636	-0.453967	0.057058
C44	C	1.538636	0.046033	0.557058
C45	C	1.038639	-0.546157	0.057056
C46	C	1.538639	-0.046157	0.557056
C47	C	0.925539	-0.546149	0.170090
C48	C	1.425539	-0.046149	0.670090
C49	C	0.925533	-0.453961	0.170087
C50	C	1.425533	0.046039	0.670087
C51	C	0.982086	-0.407873	0.113572
C52	C	1.482086	0.092127	0.613572
C53	C	0.982095	-0.592250	0.113573
C54	C	1.482095	-0.092250	0.613573
C55	C	0.982097	-0.692206	0.113571
C56	C	1.482097	-0.192206	0.613571
C57	C	0.982083	-0.307910	0.113573
C58	C	1.482083	0.192090	0.613573
C59	C	1.134092	-0.000071	0.107474
C60	C	1.634092	0.499929	0.607474
C61	C	1.226387	-0.000072	0.109095
C62	C	1.726387	0.499928	0.609095
N63	N	0.982101	0.228113	0.113573
N64	N	1.482101	0.728113	0.613573
C65	C	0.988198	-0.000071	-0.038430
C66	C	1.488198	0.499929	0.461570
C67	C	0.986583	-0.000072	-0.130725
C68	C	1.486583	0.499928	0.369275
C69	C	1.058590	-0.000064	-0.352993
C70	C	1.558590	0.499936	0.147007
C71	C	1.057066	-0.000057	-0.439713
C72	C	1.557066	0.499943	0.060287
C73	C	0.905579	-0.000049	-0.419848
C74	C	1.405579	0.499951	0.080152
C75	C	0.907104	-0.000050	-0.333130
C76	C	1.407104	0.499950	0.166870
C77	C	0.983612	-0.000062	-0.299704
C78	C	1.483612	0.499938	0.200296
C79	C	0.980563	-0.000053	-0.473144
C80	C	1.480563	0.499947	0.026856
C81	C	0.978910	-0.000045	-0.567170
C82	C	1.478910	0.499955	-0.067170
C83	C	0.985265	-0.000068	-0.205672
C84	C	1.485265	0.499932	0.294328
C85	C	0.975976	-0.000050	0.265581
C86	C	1.475976	0.499950	0.765581
C87	C	0.977592	-0.000043	0.357877
C88	C	1.477592	0.499957	0.857877
H89	H	0.560734	0.144791	0.114963
H90	H	1.060734	0.644791	0.614963
H91	H	0.843288	-0.000040	-0.447074
H92	H	1.343288	0.499960	0.052926
N93	N	1.099608	-0.404246	-0.003907
N94	N	1.599608	0.095754	0.496093
H95	H	1.136409	-0.365985	0.027867
H96	H	1.636409	0.134015	0.527867
H97	H	1.135375	-0.447486	-0.039703
H98	H	1.635375	0.052514	0.460297
H99	H	0.846043	-0.000045	-0.289740
H100	H	1.346043	0.499955	0.210260
N101	N	0.391952	0.165882	0.111997
N102	N	0.891952	0.665882	0.611997
H103	H	0.330437	0.153768	0.110916
H104	H	0.830437	0.653768	0.610916
H105	H	0.400354	0.200752	0.163773
H106	H	0.900354	0.700752	0.663773
H107	H	0.560767	-0.144897	0.114937
H108	H	1.060767	0.355103	0.614937
H109	H	1.084685	-0.583684	0.011036
H110	H	1.584685	-0.083684	0.511036
N111	N	0.391967	-0.166015	0.111969
N112	N	0.891967	0.333985	0.611969
H113	H	0.432667	-0.216589	0.112109
H114	H	0.932667	0.283411	0.612109
H115	H	0.349619	-0.169756	0.163135
H116	H	0.849619	0.330244	0.663135
N117	N	0.864546	-0.595859	0.231043
N118	N	1.364546	-0.095859	0.731043
H119	H	0.873130	-0.661255	0.222472
H120	H	1.373130	-0.161255	0.722472
H121	H	0.874130	-0.579736	0.290027
H122	H	1.374130	-0.079736	0.790027
N123	N	1.137934	-0.000070	-0.497192
N124	N	1.637934	0.499930	0.002808
H125	H	1.140685	0.054223	-0.533608
H126	H	1.640685	0.554223	-0.033608
H127	H	1.186583	-0.000112	-0.462798
H128	H	1.686583	0.499888	0.037202
H129	H	0.879480	-0.416429	0.216108
H130	H	1.379480	0.083571	0.716108
N131	N	1.141105	-0.000076	-0.316939
N132	N	1.641105	0.499924	0.183061
H133	H	1.188372	-0.000074	-0.363859
H134	H	1.688372	0.499926	0.136141
H135	H	1.145039	0.054216	-0.281385
H136	H	1.645039	0.554216	0.218615
