data_functionalizedCrystal
_audit_creation_method	'MofGen! by Chris Wilmer'
_symmetry_space_group_name_H-M	'P1'
_symmetry_Int_Tables_number	1
_symmetry_cell_setting	triclinic
loop_
_symmetry_equiv_pos_as_xyz
  x,y,z
_cell_length_a	8.559649
_cell_length_b	8.634740
_cell_length_c	7.540329
_cell_angle_alpha	89.998819
_cell_angle_beta	89.997379
_cell_angle_gamma	85.174486
loop_
_atom_site_label
_atom_site_type_symbol
_atom_site_fract_x
_atom_site_fract_y
_atom_site_fract_z
O1	O	2.112215	-0.051378	-0.147455
O2	O	2.612215	0.448622	0.352545
O3	O	1.659052	0.026833	-0.147461
O4	O	2.159052	0.526833	0.352539
O5	O	1.864182	-0.234208	-0.147455
O6	O	2.364182	0.265792	0.352545
O7	O	1.907085	0.209663	-0.147461
O8	O	2.407085	0.709663	0.352539
O9	O	1.864167	-0.234209	0.147510
O10	O	2.364167	0.265791	0.647510
O11	O	1.659037	0.026832	0.147504
O12	O	2.159037	0.526832	0.647504
O13	O	2.112200	-0.051379	0.147510
O14	O	2.612200	0.448621	0.647510
Cu15	Cu	1.885617	-0.012274	0.174440
Cu16	Cu	2.385617	0.487726	0.674440
Cu17	Cu	1.885635	-0.012272	-0.174391
Cu18	Cu	2.385635	0.487728	0.325609
O19	O	1.907070	0.209662	0.147504
O20	O	2.407070	0.709662	0.647504
C21	C	1.600427	0.032760	0.000020
C22	C	2.100427	0.532760	0.500020
C23	C	1.425763	0.050402	0.000017
C24	C	1.925763	0.550402	0.500017
C25	C	1.854456	-0.290508	0.000024
C26	C	2.354456	0.209492	0.500024
C27	C	1.825478	-0.458259	0.000015
C28	C	2.325478	0.041741	0.500015
C29	C	2.170825	-0.057305	0.000025
C30	C	2.670825	0.442695	0.500025
C31	C	2.345489	-0.074948	0.000016
C32	C	2.845489	0.425052	0.500016
C33	C	1.916796	0.265962	0.000021
C34	C	2.416796	0.765962	0.500021
C35	C	1.945774	0.433714	0.000019
C36	C	2.445774	0.933714	0.500019
N37	N	1.885616	-0.012277	0.419788
N38	N	2.385616	0.487723	0.919788
N39	N	1.885646	-0.012282	-0.419739
N40	N	2.385646	0.487718	0.080261
H41	H	1.700317	-0.494107	0.000006
H42	H	2.200317	0.005893	0.500006
H43	H	2.070943	-0.530433	-0.000045
H44	H	2.570943	-0.030433	0.499955
C45	C	1.433149	-0.238162	0.000023
C46	C	1.933149	0.261838	0.500023
H47	H	1.542980	-0.229008	0.000039
H48	H	2.042980	0.270992	0.500039
H49	H	1.405291	-0.293087	-0.102834
H50	H	1.905291	0.206913	0.397166
H51	H	1.405280	-0.293077	0.102900
H52	H	1.905280	0.206923	0.602900
C53	C	1.338096	0.213625	0.000013
C54	C	1.838096	0.713625	0.500013
H55	H	1.228265	0.204475	0.000021
H56	H	1.728265	0.704475	0.500021
H57	H	1.365970	0.268549	-0.102844
H58	H	1.865970	0.768549	0.397156
H59	H	1.365954	0.268539	0.102890
H60	H	1.865954	0.768539	0.602890
