data_functionalizedCrystal
_audit_creation_method	'MofGen! by Chris Wilmer'
_symmetry_space_group_name_H-M	'P1'
_symmetry_Int_Tables_number	1
_symmetry_cell_setting	triclinic
loop_
_symmetry_equiv_pos_as_xyz
  x,y,z
_cell_length_a	12.759401
_cell_length_b	13.897447
_cell_length_c	12.759393
_cell_angle_alpha	89.972435
_cell_angle_beta	90.019196
_cell_angle_gamma	89.978378
loop_
_atom_site_label
_atom_site_type_symbol
_atom_site_fract_x
_atom_site_fract_y
_atom_site_fract_z
Zn1	Zn	1.606214	0.383963	0.594001
Zn2	Zn	1.606087	0.545288	0.418329
Zn3	Zn	1.430514	0.384010	0.418340
Zn4	Zn	1.430485	0.545219	0.593970
O5	O	1.518325	0.464620	0.506160
O6	O	1.753218	0.405373	0.570706
O7	O	1.582756	0.523942	0.271309
O8	O	1.453887	0.249022	0.441661
O9	O	1.753125	0.523897	0.441640
O10	O	1.582973	0.248988	0.570718
O11	O	1.453763	0.405452	0.271318
O12	O	1.283489	0.405385	0.441630
O13	O	1.453836	0.523780	0.740995
O14	O	1.283468	0.523825	0.570664
O15	O	1.582944	0.405306	0.741018
O16	O	1.582727	0.680260	0.441610
O17	O	1.453713	0.680210	0.570652
C18	C	1.245357	0.464603	0.506145
C19	C	1.128581	0.464620	0.506164
C20	C	1.518231	0.715234	0.506149
C21	C	1.518288	0.822448	0.506179
C22	C	1.073768	0.403015	0.573472
C23	C	0.964044	0.403025	0.573479
C24	C	0.963955	0.526252	0.438866
C25	C	1.073677	0.526236	0.438855
C26	C	1.518336	0.909518	0.506208
C27	C	1.518406	1.018751	0.506241
C28	C	1.792358	0.464637	0.506176
C29	C	1.909135	0.464645	0.506182
C30	C	1.518401	0.464530	0.780194
C31	C	1.518434	0.464492	0.896970
C32	C	1.518439	1.213027	0.506207
C33	C	1.518468	1.105813	0.506262
C34	C	1.518309	0.464640	0.233193
C35	C	1.518480	0.464406	0.116417
C36	C	1.585628	0.526118	1.061563
C37	C	1.585602	0.526164	0.951839
C38	C	1.451279	0.402777	0.951831
C39	C	1.451300	0.402737	1.061553
H40	H	1.118468	0.352840	0.628276
C41	C	1.659492	0.594031	0.891505
N42	N	1.715156	0.645146	0.846063
C43	C	1.377432	0.334843	1.121896
N44	N	1.321797	0.283707	1.167345
H45	H	1.118307	0.576403	0.384039
H46	H	1.640329	0.576334	1.106230
C47	C	1.377402	0.334929	0.891472
N48	N	1.321762	0.283819	0.846010
C49	C	0.903755	0.335258	0.647527
N50	N	0.858346	0.284214	0.703303
H51	H	0.919239	0.576419	0.384067
