data_functionalizedCrystal
_audit_creation_method	'MofGen! by Chris Wilmer'
_symmetry_space_group_name_H-M	'P1'
_symmetry_Int_Tables_number	1
_symmetry_cell_setting	triclinic
loop_
_symmetry_equiv_pos_as_xyz
  x,y,z
_cell_length_a	12.837932
_cell_length_b	14.044190
_cell_length_c	11.892095
_cell_angle_alpha	94.240074
_cell_angle_beta	85.688545
_cell_angle_gamma	94.010740
loop_
_atom_site_label
_atom_site_type_symbol
_atom_site_fract_x
_atom_site_fract_y
_atom_site_fract_z
O1	O	1.404561	0.242992	-0.094032
O2	O	1.101619	0.230715	-0.094032
O3	O	1.248538	0.098458	-0.094010
O4	O	1.257642	0.375248	-0.094055
O5	O	1.236286	0.109467	0.093996
O6	O	1.089368	0.241723	0.093973
O7	O	1.392309	0.254000	0.093973
Zn8	Zn	1.238893	0.249609	0.123823
Zn9	Zn	1.255035	0.235105	-0.123882
O10	O	1.245391	0.386256	0.093951
C11	C	1.056489	0.232072	-0.000029
C12	C	0.940268	0.219704	-0.000029
C13	C	0.780862	0.116330	-0.000010
C14	C	0.890063	0.127945	-0.000012
C15	C	0.881264	0.299854	-0.000039
C16	C	0.772064	0.288239	-0.000037
C17	C	0.721867	0.196474	-0.000024
C18	C	0.612665	0.184860	-0.000030
C19	C	0.603868	0.356769	-0.000049
C20	C	0.713068	0.368384	-0.000051
C21	C	1.238430	0.068289	-0.000004
C22	C	1.226552	-0.038010	0.000006
C23	C	1.289077	-0.282651	-0.000038
C24	C	1.204857	-0.232629	-0.000031
C25	C	1.216931	-0.124333	-0.000010
C26	C	1.277004	-0.390957	-0.000059
C27	C	1.437439	0.252643	-0.000032
C28	C	1.553661	0.265010	-0.000040
C29	C	1.255499	0.416426	-0.000058
C30	C	1.267377	0.522723	-0.000075
N31	N	1.227884	0.259508	0.292876
N32	N	1.266052	0.225200	-0.292935
C33	C	1.342651	0.156265	0.529541
C34	C	1.334964	0.163192	0.647882
C35	C	1.204819	0.280283	0.647900
C36	C	1.212506	0.273356	0.529559
C37	C	1.281425	0.211346	0.470384
C38	C	1.289117	0.204425	0.352041
C39	C	1.158967	0.321511	0.352061
C40	C	1.151280	0.328437	0.470402
H41	H	0.938093	0.062683	-0.000000
O42	O	0.930203	0.388919	-0.000071
C43	C	1.094531	0.482997	0.000058
C44	C	1.039245	0.382075	0.000050
H45	H	1.182699	0.477499	0.000180
H46	H	1.076117	0.518539	-0.078636
H47	H	1.065689	0.527677	0.078724
H48	H	1.068056	0.337317	-0.078562
H49	H	1.057658	0.346608	0.078797
O50	O	0.762003	0.457449	-0.000112
C51	C	0.926327	0.551536	-0.000052
C52	C	0.871048	0.450613	-0.000007
H53	H	1.014497	0.546045	0.000057
H54	H	0.907896	0.587051	-0.078759
H55	H	0.897496	0.596238	0.078601
H56	H	0.899848	0.405835	-0.078607
H57	H	0.889478	0.415173	0.078751
O58	O	0.546459	0.434548	-0.000216
C59	C	0.424473	0.515528	-0.097686
C60	C	0.489412	0.427388	-0.097614
H61	H	0.378351	0.509780	-0.176435
H62	H	0.367928	0.519006	-0.019064
H63	H	0.479133	0.583094	-0.097643
H64	H	0.434833	0.359775	-0.097696
H65	H	0.545969	0.423996	-0.176229
O66	O	0.732059	0.027203	-0.000204
C67	C	0.620164	-0.091348	-0.097561
C68	C	0.675394	0.009598	-0.097495
H69	H	0.574320	-0.105606	-0.176201
H70	H	0.681048	-0.146685	-0.097631
H71	H	0.564176	-0.096460	-0.018844
H72	H	0.731378	0.014804	-0.176198
H73	H	0.614453	0.064888	-0.097366
O74	O	1.107944	-0.278413	-0.000079
C75	C	0.922241	-0.262605	0.000017
C76	C	1.031928	-0.210632	0.000039
H77	H	0.860751	-0.207827	0.000137
H78	H	0.917440	-0.313799	-0.078686
H79	H	0.907326	-0.304673	0.078674
H80	H	1.046914	-0.168511	-0.078565
H81	H	1.036675	-0.159494	0.078794
O82	O	1.385943	-0.236773	-0.000223
C83	C	1.556692	-0.216444	-0.097566
C84	C	1.447028	-0.268469	-0.097515
H85	H	1.606118	-0.242064	-0.176206
H86	H	1.549363	-0.136017	-0.097622
H87	H	1.595805	-0.232784	-0.018849
H88	H	1.407853	-0.252207	-0.176218
H89	H	1.454428	-0.348881	-0.097399
H90	H	1.345237	0.153936	0.303862
H91	H	1.095164	0.378922	0.518596
O92	O	1.409619	0.095958	0.472227
C93	C	1.537953	-0.019395	0.484693
C94	C	1.462135	0.048847	0.549740
H95	H	1.580449	-0.057488	0.547334
H96	H	1.492051	-0.074550	0.429337
H97	H	1.597543	0.023391	0.429240
H98	H	1.402529	0.006141	0.605255
H99	H	1.508107	0.104003	0.605024
O100	O	1.099599	0.375167	0.294650
C101	C	1.056033	0.533699	0.258506
C102	C	1.123342	0.473046	0.323571
H103	H	1.075189	0.612846	0.281883
H104	H	1.073370	0.518188	0.163744
H105	H	0.969646	0.514955	0.281781
H106	H	1.209750	0.491755	0.300391
H107	H	1.105916	0.488565	0.418317
O108	O	1.137718	0.340392	0.705349
C109	C	0.958776	0.382022	0.741562
C110	C	1.034653	0.313873	0.676447
H111	H	0.875435	0.360620	0.718200
H112	H	0.963710	0.377489	0.836315
H113	H	0.981030	0.458463	0.718315
H114	H	1.012450	0.237404	0.699599
H115	H	1.029707	0.318489	0.581709
H116	H	0.571797	0.110140	-0.000023
H117	H	1.384819	0.118338	0.696044
