data_functionalizedCrystal
_audit_creation_method	'MofGen! by Chris Wilmer'
_symmetry_space_group_name_H-M	'P1'
_symmetry_Int_Tables_number	1
_symmetry_cell_setting	triclinic
loop_
_symmetry_equiv_pos_as_xyz
  x,y,z
_cell_length_a	17.699077
_cell_length_b	27.732048
_cell_length_c	16.176319
_cell_angle_alpha	89.988239
_cell_angle_beta	89.993140
_cell_angle_gamma	82.961616
loop_
_atom_site_label
_atom_site_type_symbol
_atom_site_fract_x
_atom_site_fract_y
_atom_site_fract_z
O1	O	1.003543	0.061113	-0.068745
O2	O	0.783094	0.069069	-0.068750
O3	O	0.900165	-0.005281	-0.068731
O4	O	0.886472	0.135463	-0.068763
O5	O	0.900149	-0.005286	0.068762
O6	O	0.783078	0.069064	0.068743
O7	O	1.003527	0.061109	0.068749
Cu8	Cu	0.893301	0.065086	0.081300
Cu9	Cu	0.893320	0.065092	-0.081301
O10	O	0.886456	0.135459	0.068730
C11	C	0.754891	0.068782	-0.000004
C12	C	0.670880	0.067928	-0.000005
C13	C	0.631408	0.067523	0.074944
C14	C	0.552472	0.066714	0.074945
C15	C	0.513010	0.066312	-0.000004
C16	C	0.552489	0.066715	-0.074958
C17	C	0.631423	0.067522	-0.074958
C18	C	0.234154	0.063463	-0.074959
C19	C	0.155213	0.062658	-0.074953
C20	C	0.155203	0.062654	0.074944
C21	C	0.234138	0.063461	0.074944
C22	C	0.273610	0.063862	-0.000010
C23	C	0.359201	0.064739	-0.000010
C24	C	0.427420	0.065438	-0.000004
C25	C	0.899870	-0.023291	0.000018
C26	C	0.899004	-0.076949	0.000024
C27	C	0.962736	-0.415536	-0.000017
C28	C	0.959525	-0.617207	-0.000028
O29	O	1.017804	-0.648254	-0.000063
N30	N	0.890107	-0.636580	-0.000029
C31	C	0.821486	-0.605531	-0.000032
O32	O	0.762368	-0.626636	-0.000042
C33	C	0.824698	-0.403861	-0.000027
C34	C	0.894121	-0.384491	-0.000017
C35	C	1.032154	-0.396166	-0.000008
C36	C	1.032956	-0.345751	-0.000001
C37	C	0.964341	-0.314706	-0.000002
C38	C	0.894923	-0.334076	-0.000010
C39	C	0.756079	-0.372813	-0.000036
C40	C	0.756888	-0.322393	-0.000037
C41	C	0.826311	-0.303023	-0.000027
C42	C	0.827110	-0.252617	-0.000004
N43	N	0.896529	-0.233244	-0.000003
C44	C	0.965144	-0.264289	-0.000002
C45	C	0.819805	-0.711411	-0.000034
C46	C	0.819001	-0.761828	-0.000034
C47	C	0.957041	-0.773501	-0.000031
C48	C	0.957843	-0.723083	-0.000025
C49	C	0.889223	-0.692039	-0.000033
C50	C	0.966823	-0.158414	0.000014
C51	C	0.967619	-0.107994	0.000025
C52	C	0.829580	-0.096326	0.000018
C53	C	0.828784	-0.146741	0.000012
C54	C	0.897412	-0.177784	0.000007
O55	O	0.768863	-0.221541	0.000022
O56	O	1.024254	-0.243175	-0.000011
C57	C	0.961934	-0.465951	-0.000024
C58	C	0.892517	-0.485321	-0.000032
C59	C	0.823902	-0.454276	-0.000033
C60	C	0.891714	-0.535738	-0.000032
C61	C	0.960329	-0.566783	-0.000031
C62	C	1.029747	-0.547411	-0.000030
C63	C	1.030550	-0.496996	-0.000023
C64	C	0.754483	-0.473648	-0.000034
C65	C	0.753687	-0.524064	-0.000041
C66	C	0.822302	-0.555109	-0.000040
C67	C	1.031729	0.061395	0.000001
C68	C	1.115740	0.062249	-0.000003
C69	C	0.886751	0.153469	-0.000021
C70	C	0.887617	0.207127	-0.000033
N71	N	0.893293	0.065082	0.195665
N72	N	0.893333	0.065092	-0.195667
C73	C	0.945148	0.032173	0.238938
C74	C	0.945151	0.032172	0.325485
C75	C	0.893304	0.065083	0.368758
C76	C	0.841444	0.097994	0.325480
C77	C	0.841437	0.097992	0.238934
C78	C	0.841470	0.098003	0.674508
C79	C	0.841482	0.098003	0.761059
C80	C	0.945184	0.032184	0.761059
C81	C	0.945177	0.032182	0.674513
C82	C	0.893315	0.065090	0.631242
C83	C	0.893311	0.065089	0.537398
C84	C	0.893311	0.065087	0.462601
H85	H	0.520339	0.066376	0.135975
C86	C	1.074453	-0.798999	0.070641
C87	C	1.032463	-0.807633	-0.000036
H88	H	1.121010	-0.820075	0.070634
H89	H	1.084875	-0.766207	0.070636
H90	H	1.045954	-0.804869	0.118585
H91	H	1.060960	-0.801760	-0.047980
H92	H	1.022044	-0.840434	-0.000038
C93	C	0.226224	0.063386	-0.223128
C94	C	0.277534	0.063906	-0.157347
H95	H	0.253009	0.063662	-0.273992
H96	H	0.201540	0.034897	-0.219999
H97	H	0.189333	0.091251	-0.220009
H98	H	0.314423	0.036038	-0.160462
H99	H	0.302231	0.092397	-0.160477
H100	H	0.987399	0.005384	0.639283
C101	C	0.355134	0.064695	0.141500
C102	C	0.277515	0.063901	0.157328
H103	H	0.381911	0.064968	0.192363
H104	H	0.374171	0.036654	0.110714
H105	H	0.361961	0.093007	0.110700
H106	H	0.270688	0.035586	0.188124
H107	H	0.258473	0.091944	0.188128
H108	H	0.772254	-0.162512	0.000027
C109	C	0.034198	0.061408	0.141517
C110	C	0.111815	0.062205	0.157337
H111	H	0.007416	0.061129	0.192382
H112	H	0.015162	0.089451	0.110721
H113	H	0.027380	0.033098	0.110728
H114	H	0.118634	0.090518	0.188121
H115	H	0.130857	0.034159	0.188146
H116	H	0.799259	0.124804	0.796291
C117	C	0.769534	-0.013853	0.000012
C118	C	0.754161	-0.062195	0.000012
H119	H	0.722972	0.007218	-0.000001
H120	H	0.798009	-0.007999	0.047962
H121	H	0.798038	-0.007992	-0.047933
H122	H	0.725662	-0.068057	0.047961
H123	H	0.725674	-0.068051	-0.047942
H124	H	0.799243	0.124799	0.639283
C125	C	1.108922	-0.610873	-0.070721
C126	C	1.105172	-0.581541	-0.000035
H127	H	1.155486	-0.631942	-0.070728
H128	H	1.067464	-0.629619	-0.070716
H129	H	1.106372	-0.590948	-0.118659
H130	H	1.107716	-0.601466	0.047903
H131	H	1.146641	-0.562793	-0.000032
H132	H	0.663561	0.067852	-0.135989
H133	H	0.799211	0.124789	0.203702
C134	C	0.752401	0.068761	0.141506
C135	C	0.674782	0.067966	0.157330
H136	H	0.779175	0.069036	0.192371
H137	H	0.771441	0.040720	0.110723
H138	H	0.759228	0.097073	0.110705
H139	H	0.667954	0.039652	0.188127
H140	H	0.655736	0.096010	0.188127
H141	H	0.520353	0.066385	-0.135982
C142	C	0.795412	0.127227	0.458146
C143	C	0.784453	0.134172	0.373044
H144	H	0.760230	0.149566	0.487507
H145	H	0.787571	0.094978	0.472343
H146	H	0.845864	0.132437	0.472305
H147	H	0.734001	0.128959	0.358884
H148	H	0.792288	0.166428	0.358841
C149	C	0.075441	0.020215	-0.161896
C150	C	0.111833	0.062213	-0.157341
H151	H	0.048657	0.019944	-0.212754
H152	H	0.112336	-0.007642	-0.158777
H153	H	0.040639	0.019867	-0.117252
H154	H	0.146640	0.062559	-0.201982
H155	H	0.074934	0.090078	-0.160469
C156	C	1.103988	-0.124605	0.000021
C157	C	1.043934	-0.086705	0.000028
H158	H	1.151099	-0.111461	0.000016
H159	H	1.100799	-0.144032	0.047963
H160	H	1.100799	-0.144019	-0.047931
H161	H	1.047120	-0.067292	0.047984
H162	H	1.047125	-0.067269	-0.047918
H163	H	0.698607	-0.448376	-0.000037
C164	C	1.046035	-0.221866	-0.070670
C165	C	1.042259	-0.192532	0.000013
H166	H	1.092609	-0.242926	-0.070668
H167	H	1.004590	-0.240622	-0.070671
H168	H	1.043482	-0.201943	-0.118610
H169	H	1.044807	-0.212455	0.047953
H170	H	1.083717	-0.173774	0.000021
C171	C	0.990552	-0.051548	0.212364
C172	C	1.002139	-0.004016	0.191397
H173	H	1.025733	-0.073893	0.183018
H174	H	0.997965	-0.056241	0.270098
H175	H	0.940099	-0.056746	0.198183
H176	H	1.052590	0.001183	0.205584
H177	H	0.994732	0.000679	0.133650
C178	C	1.169316	-0.362369	-0.000007
C179	C	1.109268	-0.324465	-0.000002
H180	H	1.216430	-0.349229	-0.000015
H181	H	1.166124	-0.381794	0.047937
H182	H	1.166123	-0.381785	-0.047957
H183	H	1.112458	-0.305051	0.047952
H184	H	1.112462	-0.305032	-0.047951
C185	C	1.111365	-0.459623	-0.070686
C186	C	1.107586	-0.430285	-0.000007
H187	H	1.157940	-0.480681	-0.070682
H188	H	1.069921	-0.478381	-0.070683
H189	H	1.108809	-0.439702	-0.118628
H190	H	1.110137	-0.450205	0.047936
H191	H	1.149041	-0.411525	-0.000002
C192	C	1.038832	-0.673172	0.070657
C193	C	1.034155	-0.701796	-0.000022
H194	H	1.085949	-0.660035	0.070657
H195	H	0.998093	-0.647465	0.070647
H196	H	1.035639	-0.692606	0.118599
H197	H	1.037342	-0.682361	-0.047965
H198	H	1.074906	-0.727506	-0.000020
H199	H	0.762470	-0.777594	-0.000027
H200	H	0.763923	-0.686138	-0.000040
C201	C	0.617319	-0.507448	-0.000058
C202	C	0.677370	-0.545351	-0.000053
H203	H	0.570207	-0.520590	-0.000077
H204	H	0.620495	-0.488038	0.047892
H205	H	0.620524	-0.488017	-0.048002
H206	H	0.674167	-0.564780	0.047894
H207	H	0.674192	-0.564769	-0.048008
C208	C	0.639484	-0.296914	-0.070727
C209	C	0.681456	-0.288270	-0.000043
H210	H	0.592914	-0.275850	-0.070725
H211	H	0.667980	-0.291039	-0.118661
H212	H	0.629081	-0.329715	-0.070723
H213	H	0.691864	-0.255469	-0.000051
H214	H	0.652953	-0.294141	0.047903
C215	C	0.675100	-0.422715	-0.070741
C216	C	0.679765	-0.394094	-0.000056
H217	H	0.627985	-0.435854	-0.070752
H218	H	0.678300	-0.403282	-0.118674
H219	H	0.715845	-0.448425	-0.070726
H220	H	0.639023	-0.368382	-0.000074
H221	H	0.676557	-0.413528	0.047889
H222	H	0.987375	0.005375	0.360717
H223	H	1.087081	-0.481230	-0.000016
H224	H	0.987411	0.005386	0.796299
