data_functionalizedCrystal
_audit_creation_method	'MofGen! by Chris Wilmer'
_symmetry_space_group_name_H-M	'P1'
_symmetry_Int_Tables_number	1
_symmetry_cell_setting	triclinic
loop_
_symmetry_equiv_pos_as_xyz
  x,y,z
_cell_length_a	10.723024
_cell_length_b	16.109301
_cell_length_c	15.186229
_cell_angle_alpha	89.994833
_cell_angle_beta	89.996943
_cell_angle_gamma	83.964675
loop_
_atom_site_label
_atom_site_type_symbol
_atom_site_fract_x
_atom_site_fract_y
_atom_site_fract_z
O1	O	1.655641	0.116608	-0.073226
O2	O	1.292341	0.127770	-0.073229
O3	O	1.483971	0.001217	-0.073219
O4	O	1.464011	0.243161	-0.073237
O5	O	1.483958	0.001215	0.073239
O6	O	1.292328	0.127768	0.073228
O7	O	1.655628	0.116606	0.073231
Zn8	Zn	1.473976	0.122187	0.096483
Zn9	Zn	1.473993	0.122189	-0.096481
O10	O	1.463998	0.243159	0.073221
C11	C	1.483156	-0.029764	0.000010
C12	C	1.480732	-0.122074	0.000012
C13	C	1.245845	0.126956	-0.000001
C14	C	1.107323	0.124526	-0.000002
C15	C	1.588805	-0.343710	-0.000001
C16	C	1.586518	-0.430444	-0.000009
C17	C	1.359155	-0.411907	-0.000007
C18	C	1.361444	-0.325175	-0.000006
C19	C	1.476272	-0.291079	0.000001
C20	C	1.471696	-0.464545	-0.000007
C21	C	1.469215	-0.558586	-0.000015
C22	C	1.478754	-0.197032	0.000007
C23	C	1.031402	0.195339	-0.000008
C24	C	0.888232	0.192829	-0.000009
C25	C	1.702123	0.117419	0.000001
C26	C	1.840645	0.119850	-0.000004
C27	C	1.464813	0.274140	-0.000010
C28	C	1.467237	0.366449	-0.000017
N29	N	1.473974	0.122185	0.228176
N30	N	1.474005	0.122185	-0.228174
C31	C	1.558856	0.066166	0.453903
C32	C	1.558860	0.066164	0.546093
C33	C	1.389113	0.178206	0.546092
C34	C	1.389104	0.178203	0.453904
C35	C	1.473983	0.122184	0.407812
C36	C	1.473996	0.122185	0.592190
C37	C	1.473999	0.122183	0.692146
C38	C	1.473978	0.122185	0.307850
H39	H	1.682306	-0.315952	0.000003
O40	O	0.918581	0.047577	-0.000116
C41	C	1.082920	-0.037555	-0.076014
C42	C	0.994739	0.044332	-0.075985
H43	H	1.144498	-0.040214	-0.137356
H44	H	1.144680	-0.040229	-0.014764
H45	H	1.024789	-0.092879	-0.075967
H46	H	1.052770	0.099701	-0.076063
H47	H	0.932974	0.046932	-0.137230
H48	H	1.072396	0.257822	-0.000007
O49	O	1.641429	0.011719	0.590729
C50	C	1.809747	-0.099443	0.580994
C51	C	1.716323	-0.037811	0.530335
H52	H	1.870305	-0.139516	0.532188
H53	H	1.872153	-0.063211	0.624123
H54	H	1.755875	-0.141269	0.624186
H55	H	1.770092	0.004030	0.487096
H56	H	1.653918	-0.074095	0.487263
O57	O	1.306795	0.232595	0.591005
C58	C	1.231534	0.282226	0.733024
C59	C	1.324844	0.220596	0.682275
H60	H	1.246076	0.272535	0.806825
H61	H	1.247764	0.348934	0.714952
H62	H	1.131610	0.270795	0.714858
H63	H	1.424804	0.231951	0.700414
H64	H	1.308504	0.153909	0.700352
H65	H	1.066329	0.062043	-0.000020
H66	H	1.319984	0.223820	0.416375
H67	H	1.265665	-0.439679	-0.000011
O68	O	1.695948	-0.481450	0.000031
C69	C	1.921702	-0.490677	-0.000019
C70	C	1.797861	-0.432817	-0.000041
H71	H	2.004130	-0.451381	-0.000096
H72	H	1.926398	-0.531738	0.061285
H73	H	1.926252	-0.531755	-0.061299
H74	H	1.793228	-0.391687	0.061198
H75	H	1.793216	-0.391812	-0.061386
O76	O	1.641198	0.011793	0.408992
C77	C	1.716247	-0.037986	0.266974
C78	C	1.622982	0.023675	0.317722
H79	H	1.701535	-0.028412	0.193173
H80	H	1.816243	-0.026597	0.284996
H81	H	1.699952	-0.104646	0.285193
H82	H	1.639163	0.090359	0.299530
H83	H	1.523020	0.012214	0.299696
O84	O	1.252039	-0.274129	-0.000120
C85	C	1.058456	-0.231701	-0.076023
C86	C	1.182287	-0.289572	-0.075988
H87	H	1.002038	-0.244154	-0.137365
H88	H	1.001854	-0.244195	-0.014773
H89	H	1.079849	-0.163862	-0.075982
H90	H	1.161008	-0.357431	-0.076060
H91	H	1.238852	-0.277006	-0.137234
O92	O	0.810290	0.265098	-0.000133
C93	C	0.645965	0.350233	-0.076047
C94	C	0.734146	0.268345	-0.076004
H95	H	0.584399	0.352893	-0.137391
H96	H	0.584194	0.352905	-0.014798
H97	H	0.704096	0.405556	-0.076007
H98	H	0.676114	0.212976	-0.076075
H99	H	0.795921	0.265746	-0.137247
