data_functionalizedCrystal
_audit_creation_method	'MofGen! by Chris Wilmer'
_symmetry_space_group_name_H-M	'P1'
_symmetry_Int_Tables_number	1
_symmetry_cell_setting	triclinic
loop_
_symmetry_equiv_pos_as_xyz
  x,y,z
_cell_length_a	10.685661
_cell_length_b	16.959454
_cell_length_c	10.686551
_cell_angle_alpha	94.404578
_cell_angle_beta	99.072622
_cell_angle_gamma	85.641540
loop_
_atom_site_label
_atom_site_type_symbol
_atom_site_fract_x
_atom_site_fract_y
_atom_site_fract_z
Zn1	Zn	1.995666	-0.368940	0.866180
Zn2	Zn	1.979224	-0.510555	0.653923
Zn3	Zn	1.767101	-0.368976	0.637705
Zn4	Zn	1.783357	-0.491656	0.849885
O5	O	1.881337	-0.435031	0.751923
O6	O	2.171112	-0.395619	0.851631
O7	O	1.937401	-0.499698	0.474143
O8	O	1.797499	-0.258362	0.668045
O9	O	2.159032	-0.499663	0.695686
O10	O	1.965425	-0.258336	0.835905
O11	O	1.781556	-0.395680	0.462228
O12	O	1.591632	-0.377355	0.652245
O13	O	1.825205	-0.467453	1.029675
O14	O	1.603575	-0.467488	0.808132
O15	O	1.981188	-0.377294	1.041647
O16	O	1.953164	-0.618656	0.679886
O17	O	1.809262	-0.604772	0.823858
C18	C	1.551547	-0.420376	0.726661
C19	C	1.410463	-0.414123	0.715884
C20	C	1.881229	-0.640394	0.751894
C21	C	1.881303	-0.728252	0.751932
C22	C	1.806525	-1.092536	0.826890
C23	C	1.956514	-1.106934	0.677113
C24	C	1.956469	-1.024387	0.677098
C25	C	1.881449	-0.975910	0.751979
C26	C	1.806474	-1.009981	0.826875
C27	C	2.031432	-0.990310	0.602194
C28	C	2.031389	-0.907758	0.602175
C29	C	1.956375	-0.859279	0.677063
C30	C	1.881398	-0.893355	0.751963
C31	C	1.806378	-0.844878	0.826844
C32	C	1.731408	-0.878952	0.901752
C33	C	1.731460	-0.961502	0.901763
C34	C	1.956322	-0.776729	0.677052
C35	C	1.806328	-0.762323	0.826828
C36	C	2.212416	-0.449745	0.777285
C37	C	2.353502	-0.456015	0.788093
C38	C	1.906844	-0.420262	1.083006
C39	C	1.917713	-0.413968	1.224093
C40	C	1.881483	-0.228867	0.751984
C41	C	1.881544	-0.141012	0.752009
C42	C	1.856003	-0.449690	0.422135
C43	C	1.845380	-0.455772	0.281067
H44	H	1.745242	-0.722857	0.887811
H45	H	1.412668	-0.496659	0.858167
H46	H	2.092435	-0.880020	0.541183
H47	H	1.351291	-0.373470	0.645816
H48	H	1.670320	-0.839473	0.962714
N49	N	2.037163	-0.739976	0.596261
H50	H	2.084689	-0.783212	0.548821
H51	H	2.099831	-0.705991	0.652464
N52	N	1.650599	-0.998252	0.982544
H53	H	1.662010	-1.057903	0.971183
H54	H	1.558426	-0.980725	0.955763
H55	H	1.745489	-1.120282	0.887882
N56	N	2.037402	-1.159214	0.596330
H57	H	2.026050	-1.216680	0.607697
H58	H	2.129564	-1.147889	0.623090
H59	H	2.092499	-1.029785	0.541220
N60	N	2.010776	-0.360181	1.302451
H61	H	2.005617	-0.363157	1.395514
H62	H	1.989299	-0.303871	1.277849
H63	H	1.775141	-0.496381	1.221908
