data_functionalizedCrystal
_audit_creation_method	'MofGen! by Chris Wilmer'
_symmetry_space_group_name_H-M	'P1'
_symmetry_Int_Tables_number	1
_symmetry_cell_setting	triclinic
loop_
_symmetry_equiv_pos_as_xyz
  x,y,z
_cell_length_a	14.044220
_cell_length_b	10.540539
_cell_length_c	12.503572
_cell_angle_alpha	93.560877
_cell_angle_beta	86.164750
_cell_angle_gamma	88.857185
loop_
_atom_site_label
_atom_site_type_symbol
_atom_site_fract_x
_atom_site_fract_y
_atom_site_fract_z
O1	O	1.265193	0.299541	-0.089197
O2	O	1.598526	0.632874	0.244137
O3	O	1.931859	0.966208	0.577470
O4	O	0.989150	0.288487	-0.089224
O5	O	1.322484	0.621821	0.244109
O6	O	1.655817	0.955154	0.577443
O7	O	1.133469	0.109945	-0.089208
O8	O	1.466803	0.443278	0.244125
O9	O	1.800136	0.776611	0.577458
O10	O	1.120874	0.478084	-0.089212
O11	O	1.454207	0.811417	0.244121
O12	O	1.787541	1.144751	0.577454
O13	O	1.122616	0.123396	0.089432
O14	O	1.455949	0.456730	0.422766
O15	O	1.789282	0.790063	0.756099
O16	O	0.978297	0.301939	0.089417
O17	O	1.311630	0.635273	0.422750
O18	O	1.644964	0.968606	0.756083
O19	O	1.254339	0.312993	0.089444
O20	O	1.587673	0.646326	0.422777
O21	O	1.921006	0.979660	0.756111
Cu22	Cu	1.115327	0.308694	0.105742
Cu23	Cu	1.448660	0.642028	0.439075
Cu24	Cu	1.781994	0.975361	0.772408
Cu25	Cu	1.128163	0.292786	-0.105522
Cu26	Cu	1.461496	0.626119	0.227812
Cu27	Cu	1.794829	0.959453	0.561145
O28	O	1.110020	0.491536	0.089428
O29	O	1.443354	0.824869	0.422762
O30	O	1.776687	1.158202	0.756095
C31	C	0.948377	0.290375	0.000093
C32	C	1.281710	0.623709	0.333426
C33	C	1.615043	0.957042	0.666759
C34	C	0.843054	0.275945	0.000082
C35	C	1.176387	0.609278	0.333415
C36	C	1.509721	0.942611	0.666749
C37	C	0.650213	0.249566	0.000104
C38	C	0.983546	0.582899	0.333437
C39	C	1.316879	0.916232	0.666770
C40	C	0.593272	0.351908	0.000107
C41	C	0.926605	0.685242	0.333440
C42	C	1.259939	1.018575	0.666774
C43	C	0.485969	0.337231	0.000119
C44	C	0.819302	0.670564	0.333452
C45	C	1.152635	1.003897	0.666786
C46	C	0.757526	0.264241	0.000092
C47	C	1.090860	0.597575	0.333425
C48	C	1.424193	0.930908	0.666758
C49	C	1.127098	0.069272	0.000110
C50	C	1.460431	0.402605	0.333443
C51	C	1.793765	0.735939	0.666777
C52	C	1.124272	-0.071962	0.000104
C53	C	1.457606	0.261371	0.333437
C54	C	1.790939	0.594704	0.666771
C55	C	1.016008	-0.266368	-0.000308
C56	C	1.349341	0.066965	0.333025
C57	C	1.682675	0.400299	0.666359
C58	C	1.018848	-0.119430	0.000095
C59	C	1.352182	0.213903	0.333428
C60	C	1.685515	0.547237	0.666761
C61	C	1.168809	-0.120809	0.102122
C62	C	1.502143	0.212524	0.435455
C63	C	1.835476	0.545858	0.768788
C64	C	1.165206	-0.267711	0.102207
C65	C	1.498539	0.065623	0.435540
C66	C	1.831873	0.398956	0.768874
C67	C	1.179693	-0.283309	-0.100941
C68	C	1.513026	0.050024	0.232393
C69	C	1.846359	0.383357	0.565726
C70	C	1.180746	-0.136331	-0.102289
C71	C	1.514079	0.197003	0.231044
C72	C	1.847412	0.530336	0.564377
C73	C	1.295113	0.311105	0.000125
C74	C	1.628446	0.644438	0.333458
C75	C	1.961780	0.977771	0.666792
C76	C	1.400436	0.325535	0.000129
C77	C	1.733770	0.658868	0.333462
C78	C	2.067103	0.992201	0.666795
C79	C	1.116392	0.532208	0.000108
C80	C	1.449725	0.865542	0.333441
C81	C	1.783059	1.198875	0.666774
C82	C	1.119218	0.673442	0.000107
C83	C	1.452551	1.006775	0.333440
C84	C	1.785885	1.340109	0.666773
N85	N	1.106306	0.319883	0.254333
N86	N	1.439640	0.653217	0.587666
N87	N	1.772973	0.986550	0.921000
N88	N	1.137191	0.281588	-0.254113
N89	N	1.470524	0.614921	0.079220
N90	N	1.803858	0.948254	0.412554
C91	C	1.093036	0.336354	0.473447
C92	C	1.426370	0.669687	0.806780
C93	C	1.759703	1.003020	1.140113
C94	C	1.150458	0.265121	0.526780
C95	C	1.483791	0.598455	0.860113
C96	C	1.817125	0.931788	1.193447
C97	C	1.143074	0.274286	0.648703
C98	C	1.476408	0.607619	0.982036
C99	C	1.809741	0.940952	1.315369
C100	C	1.100419	0.327191	0.351513
C101	C	1.433752	0.660524	0.684847
C102	C	1.767085	0.993857	1.018180
H103	H	0.618375	0.150932	0.000110
H104	H	0.951709	0.484265	0.333444
H105	H	1.285042	0.817599	0.666777
H106	H	0.983371	-0.086369	-0.073036
H107	H	1.316704	0.246964	0.260297
H108	H	1.650037	0.580297	0.593630
H109	H	0.970113	-0.295291	0.072433
H110	H	1.303446	0.038042	0.405766
H111	H	1.636779	0.371376	0.739100
H112	H	0.625111	0.450550	0.000101
H113	H	0.958445	0.783883	0.333434
H114	H	1.291778	1.117217	0.666767
Cl115	Cl	1.297321	-0.344418	-0.101992
Cl116	Cl	1.630654	-0.011085	0.231341
Cl117	Cl	1.963987	0.322249	0.564675
H118	H	0.974198	-0.076223	0.073339
H119	H	1.307531	0.257111	0.406672
H120	H	1.640864	0.590444	0.740006
H121	H	1.205164	0.197256	0.480873
H122	H	1.538497	0.530589	0.814207
H123	H	1.871831	0.863923	1.147540
Cl124	Cl	0.958568	-0.325527	-0.113261
Cl125	Cl	1.291901	0.007806	0.220072
Cl126	Cl	1.625234	0.341140	0.553406
Cl127	Cl	1.100158	-0.308242	0.219931
Cl128	Cl	1.433492	0.025091	0.553265
Cl129	Cl	1.766825	0.358425	0.886598
Cl130	Cl	1.287985	-0.073772	0.107996
Cl131	Cl	1.621318	0.259561	0.441330
Cl132	Cl	1.954652	0.592894	0.774663
H133	H	1.128954	-0.076056	0.178033
H134	H	1.462287	0.257277	0.511366
H135	H	1.795621	0.590610	0.844699
Cl136	Cl	1.281826	-0.329402	0.109380
Cl137	Cl	1.615159	0.003931	0.442713
Cl138	Cl	1.948493	0.337265	0.776046
Cl139	Cl	1.134257	-0.346320	-0.220322
Cl140	Cl	1.467590	-0.012987	0.113011
Cl141	Cl	1.800923	0.320346	0.446345
H142	H	1.148208	-0.104908	-0.177759
H143	H	1.481542	0.228425	0.155574
H144	H	1.814875	0.561758	0.488908
H145	H	1.257982	-0.104802	-0.108442
H146	H	1.591315	0.228531	0.224892
H147	H	1.924649	0.561865	0.558225
Cl148	Cl	1.008582	0.441133	0.544317
Cl149	Cl	1.341915	0.774467	0.877650
Cl150	Cl	1.675249	1.107800	1.210984
