data_functionalizedCrystal
_audit_creation_method	'MofGen! by Chris Wilmer'
_symmetry_space_group_name_H-M	'P1'
_symmetry_Int_Tables_number	1
_symmetry_cell_setting	triclinic
loop_
_symmetry_equiv_pos_as_xyz
  x,y,z
_cell_length_a	17.077404
_cell_length_b	17.077402
_cell_length_c	17.077396
_cell_angle_alpha	90.027528
_cell_angle_beta	90.018362
_cell_angle_gamma	90.021463
loop_
_atom_site_label
_atom_site_type_symbol
_atom_site_fract_x
_atom_site_fract_y
_atom_site_fract_z
Zn1	Zn	1.200051	-0.312551	0.443824
Zn2	Zn	1.199957	-0.443826	0.312560
Zn3	Zn	1.068783	-0.312573	0.312575
Zn4	Zn	1.068750	-0.443774	0.443786
O5	O	1.134385	-0.378181	0.378186
O6	O	1.309886	-0.329977	0.426421
O7	O	1.182531	-0.426446	0.202715
O8	O	1.086250	-0.202723	0.330007
O9	O	1.309816	-0.426424	0.329982
O10	O	1.182692	-0.202707	0.426435
O11	O	1.086158	-0.330015	0.202726
O12	O	0.958932	-0.329965	0.329970
O13	O	1.086193	-0.426336	0.553638
O14	O	0.958907	-0.426357	0.426371
O15	O	1.182659	-0.329927	0.553666
O16	O	1.182499	-0.553666	0.329946
O17	O	1.086101	-0.553628	0.426357
C18	C	0.930437	-0.378158	0.378169
C19	C	0.843188	-0.378168	0.378180
C20	C	0.802234	-0.328037	0.428472
C21	C	0.720254	-0.328042	0.428476
C22	C	0.679228	-0.378183	0.378190
C23	C	0.720187	-0.428315	0.327892
C24	C	0.802166	-0.428306	0.327885
C25	C	0.549317	-0.428333	0.327912
C26	C	0.467333	-0.428344	0.327920
C27	C	0.467405	-0.328070	0.428502
C28	C	0.549384	-0.328060	0.428495
C29	C	0.590337	-0.378194	0.378198
C30	C	1.134307	-0.582129	0.378163
C31	C	1.134346	-0.669378	0.378179
C32	C	1.184536	-0.710292	0.428430
C33	C	1.184569	-0.792273	0.428447
C34	C	1.134415	-0.833338	0.378208
C35	C	1.084220	-0.792418	0.327955
C36	C	1.084183	-0.710439	0.327943
C37	C	1.084300	-0.963288	0.327983
C38	C	1.084337	-1.045273	0.327994
C39	C	1.184686	-1.045122	0.428486
C40	C	1.184649	-0.963143	0.428474
C41	C	1.134455	-0.922229	0.378220
C42	C	1.339130	-0.378204	0.378204
C43	C	1.426379	-0.378213	0.378212
C44	C	1.134433	-0.378123	0.582931
C45	C	1.134453	-0.378098	0.670181
C46	C	1.134485	-0.173436	0.378227
C47	C	1.134527	-0.086187	0.378244
C48	C	1.134383	-0.378182	0.174238
C49	C	1.134515	-0.377985	0.086989
C50	C	1.184685	-0.327894	0.711186
C51	C	1.184694	-0.327868	0.793167
C52	C	1.134475	-0.378051	0.834140
C53	C	1.084238	-0.428257	0.793128
C54	C	1.084225	-0.428279	0.711149
C55	C	1.084269	-0.428210	0.963999
C56	C	1.084283	-0.428190	1.045983
C57	C	1.184739	-0.327799	1.046016
C58	C	1.184726	-0.327821	0.964037
C59	C	1.134489	-0.378028	0.923031
H60	H	0.835509	-0.469127	0.286932
H61	H	0.434057	-0.287247	0.469455
Br62	Br	0.664511	-0.496358	0.259640
Br63	Br	1.252921	-0.259663	1.101665
H64	H	0.433932	-0.469173	0.286973
H65	H	1.225556	-1.078438	0.469406
Br66	Br	1.016120	-0.496288	1.101590
H67	H	1.225600	-0.286988	0.826550
Br68	Br	1.252722	-0.907412	0.496649
Br69	Br	1.016273	-1.101004	0.259810
H70	H	1.043380	-0.825860	0.287053
H71	H	1.043423	-0.929978	0.287063
Br72	Br	1.252612	-0.654569	0.496609
Br73	Br	0.604897	-0.496377	0.259655
Br74	Br	1.016062	-0.654912	0.259746
H75	H	1.225623	-0.286962	0.930679
Br76	Br	1.252850	-0.259791	0.655588
Br77	Br	0.857904	-0.259991	0.496726
H78	H	1.225445	-0.825581	0.469360
H79	H	0.582785	-0.287236	0.469447
Br80	Br	1.016087	-0.496347	0.908348
Br81	Br	1.016077	-0.496359	0.848734
H82	H	1.043313	-0.469152	0.677764
H83	H	0.686913	-0.287222	0.469431
