data_functionalizedCrystal
_audit_creation_method	'MofGen! by Chris Wilmer'
_symmetry_space_group_name_H-M	'P1'
_symmetry_Int_Tables_number	1
_symmetry_cell_setting	triclinic
loop_
_symmetry_equiv_pos_as_xyz
  x,y,z
_cell_length_a	16.109295
_cell_length_b	16.776229
_cell_length_c	16.109301
_cell_angle_alpha	90.008074
_cell_angle_beta	96.539666
_cell_angle_gamma	89.995788
loop_
_atom_site_label
_atom_site_type_symbol
_atom_site_fract_x
_atom_site_fract_y
_atom_site_fract_z
O1	O	-1.103138	0.066236	0.106847
O2	O	-0.769804	0.399570	0.440180
O3	O	-0.436471	0.732903	0.773514
O4	O	-0.861075	0.066250	0.120151
O5	O	-0.527742	0.399584	0.453484
O6	O	-0.194408	0.732917	0.786818
O7	O	-0.988756	0.066235	-0.007532
O8	O	-0.655423	0.399568	0.325801
O9	O	-0.322089	0.732902	0.659134
O10	O	-0.975457	0.066252	0.234530
O11	O	-0.642123	0.399585	0.567863
O12	O	-0.308790	0.732919	0.901197
O13	O	-0.988739	-0.066342	-0.007540
O14	O	-0.655406	0.266992	0.325793
O15	O	-0.322073	0.600325	0.659127
O16	O	-0.861058	-0.066326	0.120143
O17	O	-0.527725	0.267007	0.453477
O18	O	-0.194392	0.600340	0.786810
O19	O	-1.103121	-0.066340	0.106839
O20	O	-0.769787	0.266993	0.440172
O21	O	-0.436454	0.600327	0.773506
Zn22	Zn	-0.982087	-0.087382	0.113490
Zn23	Zn	-0.648753	0.245951	0.446823
Zn24	Zn	-0.315420	0.579284	0.780157
Zn25	Zn	-0.982109	0.087293	0.113500
Zn26	Zn	-0.648776	0.420626	0.446834
Zn27	Zn	-0.315442	0.753959	0.780167
O28	O	-0.975440	-0.066325	0.234522
O29	O	-0.642106	0.267009	0.567856
O30	O	-0.308773	0.600342	0.901189
C31	C	-0.830092	-0.000036	0.119609
C32	C	-0.496758	0.333297	0.452942
C33	C	-0.163425	0.666630	0.786276
C34	C	-0.737796	-0.000031	0.117996
C35	C	-0.404463	0.333302	0.451329
C36	C	-0.071129	0.666635	0.784662
C37	C	-0.515523	-0.000035	0.190008
C38	C	-0.182190	0.333299	0.523341
C39	C	0.151143	0.666632	0.856675
C40	C	-0.428803	-0.000040	0.188486
C41	C	-0.095469	0.333294	0.521819
C42	C	0.237864	0.666627	0.855152
C43	C	-0.448677	-0.000047	0.036996
C44	C	-0.115344	0.333286	0.370330
C45	C	0.217990	0.666620	0.703663
C46	C	-0.535396	-0.000048	0.038520
C47	C	-0.202063	0.333286	0.371853
C48	C	0.131271	0.666619	0.705186
C49	C	-0.568816	-0.000038	0.115028
C50	C	-0.235483	0.333296	0.448361
C51	C	0.097850	0.666629	0.781695
C52	C	-0.395377	-0.000042	0.111982
C53	C	-0.062044	0.333292	0.445316
C54	C	0.271290	0.666625	0.778649
C55	C	-0.301351	-0.000047	0.110331
C56	C	0.031983	0.333286	0.443665
C57	C	0.365316	0.666620	0.776998
C58	C	-0.662849	-0.000034	0.116679
C59	C	-0.329515	0.333300	0.450013
C60	C	0.003818	0.666633	0.783346
N61	N	-0.982078	-0.206594	0.113482
N62	N	-0.648744	0.126740	0.446816
N63	N	-0.315411	0.460073	0.780149
C64	C	-1.038632	-0.248318	0.056967
C65	C	-0.705299	0.085016	0.390301
C66	C	-0.371965	0.418349	0.723634
C67	C	-1.038637	-0.331770	0.056967
C68	C	-0.705303	0.001563	0.390300
C69	C	-0.371970	0.334897	0.723633
C70	C	-0.982090	-0.373497	0.113486
C71	C	-0.648757	-0.040163	0.446819
C72	C	-0.315424	0.293170	0.780152
C73	C	-0.925530	-0.331767	0.170003
C74	C	-0.592196	0.001566	0.503336
C75	C	-0.258863	0.334900	0.836670
C76	C	-0.925522	-0.248316	0.169999
C77	C	-0.592189	0.085017	0.503333
C78	C	-0.258855	0.418350	0.836666
C79	C	-0.925560	-0.668314	0.170019
C80	C	-0.592227	-0.334981	0.503353
C81	C	-0.258893	-0.001647	0.836686
C82	C	-0.925574	-0.751771	0.170021
C83	C	-0.592241	-0.418437	0.503354
C84	C	-0.258907	-0.085104	0.836687
C85	C	-1.038675	-0.751768	0.056987
C86	C	-0.705341	-0.418434	0.390320
C87	C	-0.372008	-0.085101	0.723654
C88	C	-1.038667	-0.668317	0.056983
C89	C	-0.705333	-0.334984	0.390316
C90	C	-0.372000	-0.001650	0.723650
C91	C	-0.982104	-0.626595	0.113497
C92	C	-0.648770	-0.293261	0.446831
C93	C	-0.315437	0.040072	0.780164
C94	C	-0.982098	-0.536106	0.113496
C95	C	-0.648765	-0.202773	0.446830
C96	C	-0.315432	0.130560	0.780163
C97	C	-0.982099	-0.463983	0.113491
C98	C	-0.648766	-0.130650	0.446824
C99	C	-0.315432	0.202683	0.780158
C100	C	-0.134104	-0.000051	0.107386
C101	C	0.199230	0.333283	0.440719
C102	C	0.532563	0.666616	0.774053
C103	C	-0.226397	-0.000048	0.109014
C104	C	0.106936	0.333285	0.442348
C105	C	0.440270	0.666619	0.775681
C106	C	-0.988209	-0.000054	-0.038511
C107	C	-0.654876	0.333280	0.294822
C108	C	-0.321542	0.666613	0.628156
C109	C	-0.986594	-0.000055	-0.130806
C110	C	-0.653260	0.333279	0.202527
C111	C	-0.319927	0.666612	0.535860
N112	N	-0.982125	0.206504	0.113501
N113	N	-0.648792	0.539837	0.446835
N114	N	-0.315458	0.873171	0.780168
C115	C	-1.058602	-0.000046	-0.353080
C116	C	-0.725268	0.333287	-0.019747
C117	C	-0.391935	0.666620	0.313587
C118	C	-1.057078	-0.000040	-0.439800
C119	C	-0.723744	0.333294	-0.106467
C120	C	-0.390411	0.666627	0.226866
C121	C	-0.905588	-0.000034	-0.419923
C122	C	-0.572255	0.333299	-0.086590
C123	C	-0.238922	0.666633	0.246744
C124	C	-0.907113	-0.000035	-0.333204
C125	C	-0.573780	0.333298	0.000129
C126	C	-0.240447	0.666632	0.333462
C127	C	-0.983622	-0.000045	-0.299785
C128	C	-0.650289	0.333288	0.033548
C129	C	-0.316956	0.666621	0.366881
C130	C	-0.980573	-0.000038	-0.473225
C131	C	-0.647240	0.333296	-0.139891
C132	C	-0.313907	0.666629	0.193442
C133	C	-0.978920	-0.000030	-0.567251
C134	C	-0.645587	0.333303	-0.233917
C135	C	-0.312254	0.666636	0.099416
C136	C	-0.985276	-0.000051	-0.205754
C137	C	-0.651943	0.333282	0.127580
C138	C	-0.318609	0.666616	0.460913
C139	C	-0.975987	-0.000034	0.265501
C140	C	-0.642654	0.333299	0.598834
C141	C	-0.309320	0.666632	0.932168
C142	C	-0.977602	-0.000028	0.357796
C143	C	-0.644269	0.333305	0.691130
C144	C	-0.310935	0.666639	1.024463
H145	H	-0.542731	-0.000032	0.252306
H146	H	-0.209398	0.333301	0.585639
H147	H	0.123936	0.666634	0.918972
O148	O	-0.864560	-0.623324	0.230981
O149	O	-0.531227	-0.289990	0.564315
O150	O	-0.197894	0.043343	0.897648
H151	H	-0.874044	-0.558285	0.221483
H152	H	-0.540711	-0.224951	0.554816
H153	H	-0.207377	0.108382	0.888150
O154	O	-1.099637	-0.376769	-0.003991
O155	O	-0.766303	-0.043435	0.329342
O156	O	-0.432970	0.289898	0.662675
H157	H	-1.090137	-0.441807	0.005496
H158	H	-0.756804	-0.108474	0.338830
H159	H	-0.423470	0.224859	0.672163
O160	O	-0.412631	-0.000056	-0.045521
O161	O	-0.079298	0.333277	0.287812
O162	O	0.254036	0.666611	0.621146
H163	H	-0.373607	0.053983	-0.049840
H164	H	-0.040274	0.387317	0.283494
H165	H	0.293059	0.720650	0.616827
O166	O	-0.826237	-0.000044	-0.275717
O167	O	-0.492903	0.333289	0.057617
O168	O	-0.159570	0.666623	0.390950
H169	H	-0.789621	0.053988	-0.287590
H170	H	-0.456288	0.387321	0.045744
H171	H	-0.122955	0.720655	0.379077
H172	H	-0.385414	-0.000039	0.249542
H173	H	-0.052081	0.333294	0.582875
H174	H	0.281253	0.666628	0.916209
H175	H	-0.578790	-0.000052	-0.022542
H176	H	-0.245457	0.333281	0.310791
H177	H	0.087877	0.666614	0.644125
H178	H	-1.084682	-0.214349	0.010947
H179	H	-0.751349	0.118984	0.344280
H180	H	-0.418015	0.452317	0.677613
H181	H	-1.084715	-0.634346	0.010963
H182	H	-0.751381	-0.301012	0.344296
H183	H	-0.418048	0.032321	0.677630
O184	O	-1.137951	-0.000044	-0.497279
O185	O	-0.804618	0.333289	-0.163946
O186	O	-0.471285	0.666623	0.169387
H187	H	-1.124042	-0.000033	-0.563196
H188	H	-0.790708	0.333300	-0.229863
H189	H	-0.457375	0.666634	0.103471
O190	O	-1.099678	-0.796767	-0.003980
O191	O	-0.766345	-0.463433	0.329354
O192	O	-0.433011	-0.130100	0.662687
H193	H	-1.090181	-0.861805	0.005508
H194	H	-0.756848	-0.528472	0.338841
H195	H	-0.423514	-0.195139	0.672174
O196	O	-0.864595	-0.796781	0.230995
O197	O	-0.531261	-0.463448	0.564329
O198	O	-0.197928	-0.130115	0.897662
H199	H	-0.825262	-0.753750	0.270294
H200	H	-0.491928	-0.420417	0.603627
H201	H	-0.158595	-0.087083	0.936960
O202	O	-0.864541	-0.376766	0.230969
O203	O	-0.531208	-0.043433	0.564302
O204	O	-0.197874	0.289901	0.897636
H205	H	-0.874054	-0.441805	0.221486
H206	H	-0.540720	-0.108472	0.554819
H207	H	-0.207387	0.224862	0.888152
H208	H	-0.879469	-0.214345	0.216018
H209	H	-0.546135	0.118988	0.549352
H210	H	-0.212802	0.452321	0.882685
H211	H	-1.120900	-0.000053	-0.325874
H212	H	-0.787567	0.333281	0.007460
H213	H	-0.454234	0.666614	0.340793
O214	O	-0.823070	-0.000040	-0.455966
O215	O	-0.489736	0.333293	-0.122633
O216	O	-0.156403	0.666626	0.210700
H217	H	-0.834604	-0.000051	-0.525221
H218	H	-0.501271	0.333282	-0.191888
H219	H	-0.167937	0.666615	0.141445
