data_functionalizedCrystal
_audit_creation_method	'MofGen! by Chris Wilmer'
_symmetry_space_group_name_H-M	'P1'
_symmetry_Int_Tables_number	1
_symmetry_cell_setting	triclinic
loop_
_symmetry_equiv_pos_as_xyz
  x,y,z
_cell_length_a	10.654545
_cell_length_b	10.723024
_cell_length_c	9.730223
_cell_angle_alpha	89.996766
_cell_angle_beta	89.997167
_cell_angle_gamma	84.475474
loop_
_atom_site_label
_atom_site_type_symbol
_atom_site_fract_x
_atom_site_fract_y
_atom_site_fract_z
O1	O	1.667816	0.175248	-0.114272
O2	O	1.302334	0.191953	-0.114278
O3	O	1.493505	0.002025	-0.114270
O4	O	1.476645	0.365175	-0.114280
O5	O	1.493493	0.002020	0.114310
O6	O	1.302322	0.191947	0.114302
O7	O	1.667804	0.175243	0.114308
Zn8	Zn	1.485061	0.183594	0.150597
Zn9	Zn	1.485077	0.183601	-0.150567
O10	O	1.476632	0.365170	0.114300
C11	C	1.255530	0.190725	0.000011
C12	C	1.116087	0.187059	0.000009
C13	C	1.050576	0.185330	0.124609
C14	C	0.919557	0.181864	0.124609
C15	C	0.919571	0.181862	-0.124601
C16	C	1.050589	0.185318	-0.124600
C17	C	1.492272	-0.044477	0.000018
C18	C	1.488601	-0.183032	0.000014
C19	C	1.595571	-0.258000	0.000013
C20	C	1.591779	-0.401204	0.000008
C21	C	1.714608	0.176471	0.000015
C22	C	1.854051	0.180137	0.000008
C23	C	1.477866	0.411672	0.000008
C24	C	1.481537	0.550227	0.000004
N25	N	1.485059	0.183589	0.356133
N26	N	1.485089	0.183597	-0.356103
C27	C	1.569739	0.099525	0.428063
C28	C	1.569751	0.099525	0.571946
C29	C	1.400400	0.267665	0.571957
C30	C	1.400383	0.267657	0.428077
H31	H	0.866226	0.180446	-0.226053
Br32	Br	1.752899	-0.188288	0.000001
H33	H	1.103930	0.186723	-0.226070
Br34	Br	1.684653	-0.014570	0.330430
Br35	Br	1.744419	-0.508568	0.000024
H36	H	1.331460	0.336113	0.630548
H37	H	0.866224	0.180457	0.226071
H38	H	1.394214	-0.224867	0.000003
Br39	Br	1.328892	-0.342416	0.000021
H40	H	1.638703	0.031071	0.630507
Br41	Br	1.285442	0.381742	0.330447
H42	H	1.103901	0.186747	0.226074
