data_functionalizedCrystal
_audit_creation_method	'MofGen! by Chris Wilmer'
_symmetry_space_group_name_H-M	'P1'
_symmetry_Int_Tables_number	1
_symmetry_cell_setting	triclinic
loop_
_symmetry_equiv_pos_as_xyz
  x,y,z
_cell_length_a	19.121224
_cell_length_b	13.897448
_cell_length_c	19.120904
_cell_angle_alpha	87.585296
_cell_angle_beta	90.128641
_cell_angle_gamma	92.450040
loop_
_atom_site_label
_atom_site_type_symbol
_atom_site_fract_x
_atom_site_fract_y
_atom_site_fract_z
Zn1	Zn	-1.054900	0.348323	-0.442279
Zn2	Zn	-0.554900	0.848323	0.057721
Zn3	Zn	-1.059834	0.502473	-0.325046
Zn4	Zn	-0.559834	1.002473	0.174954
Zn5	Zn	-0.942667	0.347745	-0.320041
Zn6	Zn	-0.442667	0.847745	0.179959
Zn7	Zn	-0.937644	0.516132	-0.437224
Zn8	Zn	-0.437644	1.016132	0.062776
O9	O	-0.998761	0.428668	-0.381147
O10	O	-0.498761	0.928668	0.118853
O11	O	-1.153662	0.363297	-0.430938
O12	O	-0.653662	0.863297	0.069062
O13	O	-1.048458	0.475989	-0.226278
O14	O	-0.548458	0.975989	0.273722
O15	O	-0.957592	0.212839	-0.336277
O16	O	-0.457592	0.712839	0.163723
O17	O	-1.157287	0.476550	-0.344808
O18	O	-0.657287	0.976550	0.155192
O19	O	-1.040049	0.213264	-0.426085
O20	O	-0.540049	0.713264	0.073915
O21	O	-0.962376	0.362312	-0.222600
O22	O	-0.462376	0.862312	0.277400
O23	O	-0.843894	0.375556	-0.331375
O24	O	-0.343894	0.875556	0.168625
O25	O	-0.949032	0.499830	-0.535999
O26	O	-0.449032	0.999830	-0.035999
O27	O	-0.840204	0.499269	-0.417469
O28	O	-0.340204	0.999269	0.082531
O29	O	-1.035179	0.376542	-0.539713
O30	O	-0.535179	0.876542	-0.039713
O31	O	-1.043588	0.639267	-0.339906
O32	O	-0.543588	1.139267	0.160094
O33	O	-0.953816	0.649302	-0.422323
O34	O	-0.453816	1.149302	0.077677
C35	C	-0.816611	0.438833	-0.373331
C36	C	-0.316611	0.938833	0.126669
C37	C	-0.738685	0.443205	-0.370003
C38	C	-0.238685	0.943205	0.129997
C39	C	-0.298047	0.470890	-0.348954
C40	C	0.201953	0.970890	0.151046
C41	C	-0.371266	0.466776	-0.352075
C42	C	0.128734	0.966776	0.147925
C43	C	-0.405988	0.405859	-0.398552
C44	C	0.094012	0.905859	0.101448
C45	C	-0.367486	0.349046	-0.441906
C46	C	0.132514	0.849046	0.058094
C47	C	-0.294268	0.353156	-0.438781
C48	C	0.205732	0.853156	0.061219
C49	C	-0.626965	0.390502	-0.410232
C50	C	-0.126965	0.890502	0.089768
C51	C	-0.700188	0.386398	-0.413355
C52	C	-0.200188	0.886398	0.086645
C53	C	-0.703964	0.504127	-0.323523
C54	C	-0.203964	1.004127	0.176477
C55	C	-0.630744	0.508236	-0.320405
C56	C	-0.130744	1.008236	0.179595
C57	C	-0.592248	0.451419	-0.363756
C58	C	-0.092248	0.951419	0.136244
C59	C	-0.480830	0.401655	-0.401745
C60	C	0.019170	0.901655	0.098255
C61	C	-0.517408	0.455619	-0.360559
C62	C	-0.017408	0.955619	0.139441
C63	C	-0.998711	0.679284	-0.381125
C64	C	-0.498711	1.179284	0.118875
C65	C	-0.998753	0.786497	-0.381142
C66	C	-0.498753	1.286497	0.118858
C67	C	-0.990995	0.439774	-0.564004
C68	C	-0.490995	0.939774	-0.064004
C69	C	-0.987685	0.444506	-0.641927
C70	C	-0.487685	0.944506	-0.141927
C71	C	-0.181624	0.418456	-0.388987
C72	C	0.318376	0.918456	0.111013
C73	C	-0.259550	0.414083	-0.392306
C74	C	0.240450	0.914083	0.107694
C75	C	-0.998830	0.177073	-0.381186
C76	C	-0.498830	0.677073	0.118814
C77	C	-0.998860	0.069859	-0.381203
C78	C	-0.498860	0.569859	0.118797
C79	C	-0.998824	0.982790	-0.381189
C80	C	-0.498824	1.482790	0.118811
C81	C	-0.998782	0.873559	-0.381165
C82	C	-0.498782	1.373559	0.118835
C83	C	-1.030980	0.382543	-0.680470
C84	C	-0.530980	0.882543	-0.180470
C85	C	-1.027862	0.386987	-0.753686
C86	C	-0.527862	0.886987	-0.253686
C87	C	-0.981452	0.453399	-0.788358
C88	C	-0.481452	0.953399	-0.288358
C89	C	-0.938152	0.515365	-0.749810
C90	C	-0.438152	1.015365	-0.249810
C91	C	-0.941267	0.510916	-0.676595
C92	C	-0.441267	1.010916	-0.176595
C93	C	-0.969799	0.470039	-1.009324
C94	C	-0.469799	0.970039	-0.509324
C95	C	-0.966688	0.474485	-1.082544
C96	C	-0.466688	0.974485	-0.582544
C97	C	-1.056398	0.346105	-1.086415
C98	C	-0.556398	0.846105	-0.586415
C99	C	-1.059512	0.341666	-1.013199
C100	C	-0.559512	0.841666	-0.513199
C101	C	-1.016210	0.403628	-0.974657
C102	C	-0.516210	0.903628	-0.474657
C103	C	-0.978265	0.457945	-0.863197
C104	C	-0.478265	0.957945	-0.363197
C105	C	-1.019393	0.399077	-0.899819
C106	C	-0.519393	0.899077	-0.399819
C107	C	-1.006538	0.417534	-0.199004
C108	C	-0.506538	0.917534	0.300996
C109	C	-1.009983	0.412522	-0.121087
C110	C	-0.509983	0.912522	0.378913
H111	H	-0.595630	0.344242	-0.445535
H112	H	-0.095630	0.844242	0.054465
F113	F	-0.593797	0.573049	-0.270922
F114	F	-0.093797	1.073049	0.229078
H115	H	-0.735314	0.550384	-0.288228
H116	H	-0.235314	1.050384	0.211772
F117	F	-1.080381	0.311862	-0.643576
F118	F	-0.580381	0.811862	-0.143576
F119	F	-0.737140	0.321558	-0.462824
F120	F	-0.237140	0.821558	0.037176
F121	F	-1.068779	0.328391	-0.862917
F122	F	-0.568779	0.828391	-0.362917
H123	H	-0.395762	0.299442	-0.479746
H124	H	0.104238	0.799442	0.020254
H125	H	-0.940481	0.512022	-0.891436
H126	H	-0.440481	1.012022	-0.391436
H127	H	-0.269782	0.520500	-0.311111
H128	H	0.230218	1.020500	0.188889
H129	H	-0.402607	0.513032	-0.316772
H130	H	0.097393	1.013032	0.183228
F131	F	-0.923712	0.535985	-0.968314
F132	F	-0.423712	1.035985	-0.468314
F133	F	-0.888755	0.586042	-0.786713
F134	F	-0.388755	1.086042	-0.286713
H135	H	-0.262924	0.306894	-0.474081
H136	H	0.237076	0.806894	0.025919
F137	F	-0.480453	0.520444	-0.311093
F138	F	0.019547	1.020444	0.188907
F139	F	-1.108909	0.270982	-0.976303
F140	F	-0.608909	0.770982	-0.476303
F141	F	-0.895185	0.576863	-0.635575
F142	F	-0.395185	1.076863	-0.135575
F143	F	-1.102479	0.280163	-1.127439
F144	F	-0.602479	0.780163	-0.627439
H145	H	-1.063119	0.336532	-0.785065
H146	H	-0.563119	0.836532	-0.285065
F147	F	-0.517789	0.336830	-0.451212
F148	F	-0.017789	0.836830	0.048788
F149	F	-0.917287	0.545169	-1.119443
F150	F	-0.417287	1.045169	-0.619443
