data_functionalizedCrystal
_audit_creation_method	'MofGen! by Chris Wilmer'
_symmetry_space_group_name_H-M	'P1'
_symmetry_Int_Tables_number	1
_symmetry_cell_setting	triclinic
loop_
_symmetry_equiv_pos_as_xyz
  x,y,z
_cell_length_a	12.594517
_cell_length_b	12.594516
_cell_length_c	13.897441
_cell_angle_alpha	89.972920
_cell_angle_beta	89.979935
_cell_angle_gamma	90.011616
loop_
_atom_site_label
_atom_site_type_symbol
_atom_site_fract_x
_atom_site_fract_y
_atom_site_fract_z
Zn1	Zn	1.627285	-0.423724	-0.545436
Zn2	Zn	1.627193	-0.601732	-0.384145
Zn3	Zn	1.449293	-0.423767	-0.384150
Zn4	Zn	1.449284	-0.601660	-0.545393
O5	O	1.538264	-0.512721	-0.464781
O6	O	1.776219	-0.447349	-0.524056
O7	O	1.603559	-0.578172	-0.249164
O8	O	1.472946	-0.274816	-0.405566
O9	O	1.776151	-0.578131	-0.405556
O10	O	1.603716	-0.274784	-0.524061
O11	O	1.472857	-0.447422	-0.249168
O12	O	1.300346	-0.447353	-0.405524
O13	O	1.472931	-0.578009	-0.680380
O14	O	1.300340	-0.578050	-0.523988
O15	O	1.603708	-0.447280	-0.680412
O16	O	1.603551	-0.750668	-0.405514
O17	O	1.472842	-0.750616	-0.523983
C18	C	1.261723	-0.512699	-0.464753
C19	C	1.143417	-0.512716	-0.464763
C20	C	1.074137	-0.441533	-0.400453
C21	C	1.003334	-0.538621	-0.376728
C22	C	1.003422	-0.415675	-0.488505
C23	C	1.074172	-0.609855	-0.440992
C24	C	1.074267	-0.486844	-0.552810
C25	C	1.003495	-0.583999	-0.529118
C26	C	1.538214	-0.789262	-0.464764
C27	C	1.538291	-0.907567	-0.464789
C28	C	1.609466	-0.976810	-0.400423
C29	C	1.635474	-1.047508	-0.488464
C30	C	1.512415	-1.047668	-0.376804
C31	C	1.564349	-0.976707	-0.552877
C32	C	1.441245	-0.976861	-0.441157
C33	C	1.467216	-1.047527	-0.529259
C34	C	1.815885	-0.512743	-0.464810
C35	C	1.934190	-0.512752	-0.464822
C36	C	1.538329	-0.512631	-0.716374
C37	C	1.538357	-0.512593	-0.823588
C38	C	1.538342	-0.235100	-0.464819
C39	C	1.538376	-0.116794	-0.464835
C40	C	1.538379	-0.512563	-0.910658
C41	C	1.538409	-0.512515	-1.019891
C42	C	1.538260	-0.512733	-0.214167
C43	C	1.538439	-0.512471	-0.106953
H44	H	0.972288	-0.333605	-0.508527
H45	H	0.972178	-0.560527	-0.302295
H46	H	1.669666	-0.945759	-0.346040
H47	H	1.717580	-1.078543	-0.508479
O48	O	1.590650	-0.939511	-0.641626
C49	C	1.620045	-0.785584	-0.741183
C50	C	1.590266	-0.827566	-0.640629
H51	H	1.619723	-0.695072	-0.740415
H52	H	1.702578	-0.815236	-0.761495
H53	H	1.559800	-0.815376	-0.796105
H54	H	1.650439	-0.797791	-0.585640
H55	H	1.507706	-0.797922	-0.620398
H56	H	1.407063	-1.078381	-0.583774
H57	H	1.359162	-0.945803	-0.421117
H58	H	1.490495	-1.078837	-0.302377
H59	H	1.105155	-0.381394	-0.346002
H60	H	1.105120	-0.691961	-0.420854
O61	O	0.966893	-0.655990	-0.594039
C62	C	1.011874	-0.788297	-0.712418
C63	C	1.053471	-0.706821	-0.638919
H64	H	1.081851	-0.829401	-0.748739
H65	H	0.960918	-0.849931	-0.673929
H66	H	0.962044	-0.745815	-0.769050
H67	H	1.103345	-0.749211	-0.582268
H68	H	1.104368	-0.645192	-0.677475
O69	O	1.111424	-0.460495	-0.641552
C70	C	1.117544	-0.328384	-0.766909
C71	C	1.075411	-0.358095	-0.666391
H72	H	1.088426	-0.245603	-0.787031
H73	H	1.208054	-0.329317	-0.766216
H74	H	1.087282	-0.388282	-0.821928
H75	H	1.105594	-0.298227	-0.611316
H76	H	0.984902	-0.357196	-0.667164
