data_functionalizedCrystal
_audit_creation_method	'MofGen! by Chris Wilmer'
_symmetry_space_group_name_H-M	'P1'
_symmetry_Int_Tables_number	1
_symmetry_cell_setting	triclinic
loop_
_symmetry_equiv_pos_as_xyz
  x,y,z
_cell_length_a	13.033409
_cell_length_b	13.032721
_cell_length_c	13.032268
_cell_angle_alpha	103.289627
_cell_angle_beta	105.162573
_cell_angle_gamma	89.138002
loop_
_atom_site_label
_atom_site_type_symbol
_atom_site_fract_x
_atom_site_fract_y
_atom_site_fract_z
Zn1	Zn	1.451051	-0.662355	-0.490271
Zn2	Zn	1.784385	-0.329022	-0.156937
Zn3	Zn	2.117718	0.004311	0.176396
Zn4	Zn	1.450937	-0.817427	-0.335232
Zn5	Zn	1.784271	-0.484094	-0.001898
Zn6	Zn	2.117604	-0.150760	0.331435
Zn7	Zn	1.301724	-0.623048	-0.329561
Zn8	Zn	1.635058	-0.289715	0.003773
Zn9	Zn	1.968391	0.043619	0.337106
Zn10	Zn	1.250860	-0.817388	-0.535377
Zn11	Zn	1.584194	-0.484055	-0.202044
Zn12	Zn	1.917527	-0.150721	0.131290
O13	O	1.363643	-0.730055	-0.422610
O14	O	1.696977	-0.396721	-0.089277
O15	O	2.030310	-0.063388	0.244057
O16	O	1.597263	-0.699393	-0.453201
O17	O	1.930596	-0.366059	-0.119867
O18	O	2.263930	-0.032726	0.213466
O19	O	1.452383	-0.775208	-0.183460
O20	O	1.785716	-0.441875	0.149873
O21	O	2.119049	-0.108541	0.483207
O22	O	1.342867	-0.482032	-0.329629
O23	O	1.676201	-0.148699	0.003705
O24	O	2.009534	0.184634	0.337038
O25	O	1.597179	-0.813323	-0.339294
O26	O	1.930513	-0.479990	-0.005961
O27	O	2.263846	-0.146656	0.327373
O28	O	1.452577	-0.510911	-0.447702
O29	O	1.785911	-0.177578	-0.114369
O30	O	2.119244	0.155755	0.218965
O31	O	1.342757	-0.632399	-0.179293
O32	O	1.676090	-0.299065	0.154040
O33	O	2.009423	0.034268	0.487373
O34	O	1.148750	-0.632361	-0.373366
O35	O	1.482084	-0.299028	-0.040033
O36	O	1.815417	0.034306	0.293300
O37	O	1.256177	-0.813257	-0.680413
O38	O	1.589511	-0.479923	-0.347080
O39	O	1.922844	-0.146590	-0.013746
O40	O	1.111381	-0.775142	-0.524579
O41	O	1.444714	-0.441808	-0.191245
O42	O	1.778047	-0.108475	0.142088
O43	O	1.403257	-0.699355	-0.647274
O44	O	1.736590	-0.366022	-0.313940
O45	O	2.069923	-0.032688	0.019393
O46	O	1.403062	-0.963652	-0.383032
O47	O	1.736396	-0.630318	-0.049698
O48	O	2.069729	-0.296985	0.283635
O49	O	1.256067	-0.963623	-0.530078
O50	O	1.589400	-0.630290	-0.196744
O51	O	1.922733	-0.296956	0.136589
C52	C	1.092150	-0.699482	-0.453252
C53	C	1.425484	-0.366149	-0.119919
C54	C	1.758817	-0.032816	0.213414
C55	C	0.975997	-0.686431	-0.466391
C56	C	1.309331	-0.353098	-0.133057
C57	C	1.642664	-0.019765	0.200276
C58	C	0.804146	-0.723386	-0.429354
C59	C	1.137479	-0.390053	-0.096020
C60	C	1.470812	-0.056720	0.237313
C61	C	0.924196	-0.736878	-0.415770
C62	C	1.257530	-0.403545	-0.082436
C63	C	1.590863	-0.070212	0.250897
C64	C	1.324058	-1.001559	-0.462085
C65	C	1.657391	-0.668226	-0.128752
C66	C	1.990724	-0.334892	0.204582
C67	C	1.307213	-1.117724	-0.478998
C68	C	1.640547	-0.784391	-0.145664
C69	C	1.973880	-0.451058	0.187669
C70	C	1.372483	-1.169506	-0.413825
C71	C	1.705817	-0.836172	-0.080492
C72	C	2.039150	-0.502839	0.252841
C73	C	1.355075	-1.289569	-0.431304
C74	C	1.688409	-0.956235	-0.097971
C75	C	2.021742	-0.622902	0.235363
C76	C	1.636196	-0.760747	-0.391848
C77	C	1.969530	-0.427414	-0.058515
C78	C	2.302863	-0.094080	0.274818
C79	C	1.752342	-0.773826	-0.378740
C80	C	2.085675	-0.440493	-0.045406
C81	C	2.419009	-0.107159	0.287927
C82	C	1.324056	-0.760686	-0.704096
C83	C	1.657389	-0.427353	-0.370762
C84	C	1.990723	-0.094019	-0.037429
C85	C	1.307186	-0.773739	-0.824048
C86	C	1.640519	-0.440406	-0.490715
C87	C	1.973853	-0.107073	-0.157382
C88	C	1.403409	-0.457496	-0.383001
C89	C	1.736742	-0.124162	-0.049668
C90	C	2.070075	0.209171	0.283665
C91	C	1.420354	-0.341348	-0.366122
C92	C	1.753688	-0.008014	-0.032789
C93	C	2.087021	0.325319	0.300544
C94	C	1.372437	-0.723203	-0.861130
C95	C	1.705770	-0.389869	-0.527797
C96	C	2.039104	-0.056536	-0.194463
C97	C	1.355003	-0.736693	-0.985107
C98	C	1.688336	-0.403359	-0.651773
C99	C	2.021670	-0.070026	-0.318440
C100	C	1.403148	-0.699474	-0.142201
C101	C	1.736481	-0.366140	0.191132
C102	C	2.069815	-0.032807	0.524465
C103	C	1.420263	-0.686149	-0.022184
C104	C	1.753596	-0.352815	0.311149
C105	C	2.086930	-0.019482	0.644483
H106	H	0.968716	-0.790060	-0.362384
H107	H	1.302050	-0.456727	-0.029051
H108	H	1.635383	-0.123394	0.304283
Cl109	Cl	1.201001	-0.855955	-0.916731
Cl110	Cl	1.534334	-0.522622	-0.583398
Cl111	Cl	1.867667	-0.189288	-0.250065
H112	H	1.238449	-1.162279	-0.547738
H113	H	1.571782	-0.828946	-0.214405
H114	H	1.905116	-0.495613	0.118929
H115	H	0.931476	-0.633259	-0.519787
H116	H	1.264809	-0.299925	-0.186454
H117	H	1.598143	0.033408	0.146880
Cl118	Cl	1.248813	-0.818912	-1.077787
Cl119	Cl	1.582146	-0.485579	-0.744454
Cl120	Cl	1.915479	-0.152245	-0.411121
Cl121	Cl	0.821076	-0.855929	-0.296315
Cl122	Cl	1.154409	-0.522595	0.037018
Cl123	Cl	1.487743	-0.189262	0.370352
H124	H	1.441255	-1.124955	-0.345092
H125	H	1.774588	-0.791622	-0.011758
H126	H	2.107922	-0.458288	0.321575
H127	H	1.489034	-0.632885	-0.962152
H128	H	1.822367	-0.299552	-0.628818
H129	H	2.155701	0.033782	-0.295485
H130	H	1.286306	-1.334120	-0.500049
H131	H	1.619640	-1.000786	-0.166716
H132	H	1.952973	-0.667453	0.166618
Cl133	Cl	0.735408	-0.641300	-0.511795
Cl134	Cl	1.068741	-0.307966	-0.178462
Cl135	Cl	1.402074	0.025367	0.154871
H136	H	1.489131	-1.296799	-0.297384
H137	H	1.822464	-0.963466	0.035949
H138	H	2.155797	-0.630133	0.369282
H139	H	1.441204	-0.669945	-0.801094
H140	H	1.774538	-0.336612	-0.467760
H141	H	2.107871	-0.003278	-0.134427
