data_functionalizedCrystal
_audit_creation_method	'MofGen! by Chris Wilmer'
_symmetry_space_group_name_H-M	'P1'
_symmetry_Int_Tables_number	1
_symmetry_cell_setting	triclinic
loop_
_symmetry_equiv_pos_as_xyz
  x,y,z
_cell_length_a	18.101395
_cell_length_b	18.101398
_cell_length_c	18.101389
_cell_angle_alpha	89.975198
_cell_angle_beta	89.980315
_cell_angle_gamma	90.029682
loop_
_atom_site_label
_atom_site_type_symbol
_atom_site_fract_x
_atom_site_fract_y
_atom_site_fract_z
Zn1	Zn	-0.294952	1.132117	-0.418842
Zn2	Zn	-0.044952	1.382117	-0.168842
Zn3	Zn	0.205048	1.632117	0.081158
Zn4	Zn	0.455048	1.882117	0.331158
Zn5	Zn	-0.418778	1.132011	-0.294997
Zn6	Zn	-0.168778	1.382011	-0.044997
Zn7	Zn	0.081222	1.632011	0.205003
Zn8	Zn	0.331222	1.882011	0.455003
Zn9	Zn	-0.294950	1.008276	-0.295002
Zn10	Zn	-0.044950	1.258276	-0.045002
Zn11	Zn	0.205050	1.508276	0.204998
Zn12	Zn	0.455050	1.758276	0.454998
Zn13	Zn	-0.418751	1.008224	-0.418785
Zn14	Zn	-0.168751	1.258224	-0.168785
Zn15	Zn	0.081249	1.508224	0.081215
Zn16	Zn	0.331249	1.758224	0.331215
O17	O	-0.356858	1.070157	-0.356906
O18	O	-0.106858	1.320157	-0.106906
O19	O	0.143142	1.570157	0.143094
O20	O	0.393142	1.820157	0.393094
O21	O	-0.311390	1.235735	-0.402435
O22	O	-0.061390	1.485735	-0.152435
O23	O	0.188610	1.735735	0.097565
O24	O	0.438610	1.985735	0.347565
O25	O	-0.402362	1.115574	-0.191365
O26	O	-0.152362	1.365574	0.058635
O27	O	0.097638	1.615574	0.308635
O28	O	0.347638	1.865574	0.558635
O29	O	-0.191317	1.024769	-0.311455
O30	O	0.058683	1.274769	-0.061455
O31	O	0.308683	1.524769	0.188545
O32	O	0.558683	1.774769	0.438545
O33	O	-0.402364	1.235658	-0.311447
O34	O	-0.152364	1.485658	-0.061447
O35	O	0.097636	1.735658	0.188553
O36	O	0.347636	1.985658	0.438553
O37	O	-0.191319	1.115755	-0.402440
O38	O	0.058681	1.365755	-0.152440
O39	O	0.308681	1.615755	0.097560
O40	O	0.558681	1.865755	0.347560
O41	O	-0.311386	1.024666	-0.191368
O42	O	-0.061386	1.274666	0.058632
O43	O	0.188614	1.524666	0.308632
O44	O	0.438614	1.774666	0.558632
O45	O	-0.311360	0.904636	-0.311400
O46	O	-0.061360	1.154636	-0.061400
O47	O	0.188640	1.404636	0.188600
O48	O	0.438640	1.654636	0.438600
O49	O	-0.402319	1.024682	-0.522425
O50	O	-0.152319	1.274682	-0.272425
O51	O	0.097681	1.524682	-0.022425
O52	O	0.347681	1.774682	0.227575
O53	O	-0.402317	0.904598	-0.402343
O54	O	-0.152317	1.154598	-0.152343
O55	O	0.097683	1.404598	0.097657
O56	O	0.347683	1.654598	0.347657
O57	O	-0.311364	1.115705	-0.522467
O58	O	-0.061364	1.365705	-0.272467
O59	O	0.188636	1.615705	-0.022467
O60	O	0.438636	1.865705	0.227533
O61	O	-0.522407	1.115524	-0.311392
O62	O	-0.272407	1.365524	-0.061392
O63	O	-0.022407	1.615524	0.188608
O64	O	0.227593	1.865524	0.438608
O65	O	-0.522388	1.024579	-0.402339
O66	O	-0.272388	1.274579	-0.152339
O67	O	-0.022388	1.524579	0.097661
O68	O	0.227612	1.774579	0.347661
C69	C	-0.356836	0.877746	-0.356866
C70	C	-0.106836	1.127746	-0.106866
C71	C	0.143164	1.377746	0.143134
C72	C	0.393164	1.627746	0.393134
C73	C	-0.356844	0.795432	-0.356866
C74	C	-0.106844	1.045432	-0.106866
C75	C	0.143156	1.295432	0.143134
C76	C	0.393156	1.545432	0.393134
C77	C	-0.356860	0.644724	-0.356900
C78	C	-0.106860	0.894724	-0.106900
C79	C	0.143140	1.144724	0.143100
C80	C	0.393140	1.394724	0.393100
C81	C	-0.299550	0.613369	-0.299776
C82	C	-0.049550	0.863369	-0.049776
C83	C	0.200450	1.113369	0.200224
C84	C	0.450450	1.363369	0.450224
C85	C	-0.299335	0.527751	-0.299964
C86	C	-0.049335	0.777751	-0.049964
C87	C	0.200665	1.027751	0.200036
C88	C	0.450665	1.277751	0.450036
C89	C	-0.356875	0.496341	-0.356931
C90	C	-0.106875	0.746341	-0.106931
C91	C	0.143125	0.996341	0.143069
C92	C	0.393125	1.246341	0.393069
C93	C	-0.336055	0.527481	-0.435067
C94	C	-0.086055	0.777481	-0.185067
C95	C	0.163945	1.027481	0.064933
C96	C	0.413945	1.277481	0.314933
C97	C	-0.335631	0.613126	-0.434718
C98	C	-0.085631	0.863126	-0.184718
C99	C	0.164369	1.113126	0.065282
C100	C	0.414369	1.363126	0.315282
C101	C	-0.435137	0.613119	-0.336577
C102	C	-0.185137	0.863119	-0.086577
C103	C	0.064863	1.113119	0.163423
C104	C	0.314863	1.363119	0.413423
C105	C	-0.434724	0.527467	-0.334874
C106	C	-0.184724	0.777467	-0.084874
C107	C	0.065276	1.027467	0.165126
C108	C	0.315276	1.277467	0.415126
C109	C	-0.356884	0.412482	-0.356954
C110	C	-0.106884	0.662482	-0.106954
C111	C	0.143116	0.912482	0.143046
C112	C	0.393116	1.162482	0.393046
C113	C	-0.356848	0.728583	-0.356882
C114	C	-0.106848	0.978583	-0.106882
C115	C	0.143152	1.228583	0.143118
C116	C	0.393152	1.478583	0.393118
C117	C	-0.549268	1.070055	-0.356875
C118	C	-0.299268	1.320055	-0.106875
C119	C	-0.049268	1.570055	0.143125
C120	C	0.200732	1.820055	0.393125
C121	C	-0.631582	1.070079	-0.356886
C122	C	-0.381582	1.320079	-0.106886
C123	C	-0.131582	1.570079	0.143114
C124	C	0.118418	1.820079	0.393114
C125	C	-0.782291	1.070164	-0.356916
C126	C	-0.532291	1.320164	-0.106916
C127	C	-0.282291	1.570164	0.143084
C128	C	-0.032291	1.820164	0.393084
C129	C	-0.813663	1.012914	-0.414093
C130	C	-0.563663	1.262914	-0.164093
C131	C	-0.313663	1.512914	0.085907
C132	C	-0.063663	1.762914	0.335907
C133	C	-0.899281	1.013131	-0.414334
C134	C	-0.649281	1.263131	-0.164334
C135	C	-0.399281	1.513131	0.085666
C136	C	-0.149281	1.763131	0.335666
C137	C	-0.930673	1.070247	-0.356945
C138	C	-0.680673	1.320247	-0.106945
C139	C	-0.430673	1.570247	0.143055
C140	C	-0.180673	1.820247	0.393055
C141	C	-0.899497	1.148322	-0.377949
C142	C	-0.649497	1.398322	-0.127949
C143	C	-0.399497	1.648322	0.122051
C144	C	-0.149497	1.898322	0.372051
C145	C	-0.813852	1.147943	-0.378347
C146	C	-0.563852	1.397943	-0.128347
C147	C	-0.313852	1.647943	0.121653
C148	C	-0.063852	1.897943	0.371653
C149	C	-0.813914	1.050039	-0.278598
C150	C	-0.563914	1.300039	-0.028598
C151	C	-0.313914	1.550039	0.221402
C152	C	-0.063914	1.800039	0.471402
C153	C	-0.899566	1.048365	-0.279032
C154	C	-0.649566	1.298365	-0.029032
C155	C	-0.399566	1.548365	0.220968
C156	C	-0.149566	1.798365	0.470968
C157	C	-1.014533	1.070298	-0.356960
C158	C	-0.764533	1.320298	-0.106960
C159	C	-0.514533	1.570298	0.143040
C160	C	-0.264533	1.820298	0.393040
C161	C	-0.698431	1.070118	-0.356903
C162	C	-0.448431	1.320118	-0.106903
C163	C	-0.198431	1.570118	0.143097
C164	C	0.051569	1.820118	0.393097
C165	C	-0.163696	1.070279	-0.356954
C166	C	0.086304	1.320279	-0.106954
C167	C	0.336304	1.570279	0.143046
C168	C	0.586304	1.820279	0.393046
C169	C	-0.081382	1.070332	-0.356974
C170	C	0.168618	1.320332	-0.106974
C171	C	0.418618	1.570332	0.143026
C172	C	0.668618	1.820332	0.393026
C173	C	-0.356839	1.070200	-0.550068
C174	C	-0.106839	1.320200	-0.300068
C175	C	0.143161	1.570200	-0.050068
C176	C	0.393161	1.820200	0.199932
C177	C	-0.356831	1.070218	-0.632382
C178	C	-0.106831	1.320218	-0.382382
C179	C	0.143169	1.570218	-0.132382
C180	C	0.393169	1.820218	0.117618
C181	C	-0.356880	1.263319	-0.356947
C182	C	-0.106880	1.513319	-0.106947
C183	C	0.143120	1.763319	0.143053
C184	C	0.393120	2.013319	0.393053
C185	C	-0.356890	1.345633	-0.356965
C186	C	-0.106890	1.595633	-0.106965
C187	C	0.143110	1.845633	0.143035
C188	C	0.393110	2.095633	0.393035
C189	C	-0.356692	1.070261	-0.931474
C190	C	-0.106692	1.320261	-0.681474
C191	C	0.143308	1.570261	-0.431474
C192	C	0.393308	1.820261	-0.181474
C193	C	-0.413737	1.012795	-0.900122
C194	C	-0.163737	1.262795	-0.650122
C195	C	0.086263	1.512795	-0.400122
C196	C	0.336263	1.762795	-0.150122
C197	C	-0.414001	1.012950	-0.814504
C198	C	-0.164001	1.262950	-0.564504
C199	C	0.085999	1.512950	-0.314504
C200	C	0.335999	1.762950	-0.064504
C201	C	-0.356761	1.070239	-0.783091
C202	C	-0.106761	1.320239	-0.533091
C203	C	0.143239	1.570239	-0.283091
C204	C	0.393239	1.820239	-0.033091
C205	C	-0.377948	1.148264	-0.814197
C206	C	-0.127948	1.398264	-0.564197
C207	C	0.122052	1.648264	-0.314197
C208	C	0.372052	1.898264	-0.064197
C209	C	-0.378323	1.147944	-0.899842
C210	C	-0.128323	1.397944	-0.649842
C211	C	0.121677	1.647944	-0.399842
C212	C	0.371677	1.897944	-0.149842
C213	C	-0.278334	1.050381	-0.899899
C214	C	-0.028334	1.300381	-0.649899
C215	C	0.221666	1.550381	-0.399899
C216	C	0.471666	1.800381	-0.149899
C217	C	-0.278787	1.048645	-0.814248
C218	C	-0.028787	1.298645	-0.564248
C219	C	0.221213	1.548645	-0.314248
C220	C	0.471213	1.798645	-0.064248
C221	C	-0.356799	1.070231	-0.699231
C222	C	-0.106799	1.320231	-0.449231
C223	C	0.143201	1.570231	-0.199231
C224	C	0.393201	1.820231	0.050769
C225	C	-0.356656	1.070274	-1.015333
C226	C	-0.106656	1.320274	-0.765333
C227	C	0.143344	1.570274	-0.515333
C228	C	0.393344	1.820274	-0.265333
C229	C	-0.356823	1.070157	-0.164496
C230	C	-0.106823	1.320157	0.085504
C231	C	0.143177	1.570157	0.335504
C232	C	0.393177	1.820157	0.585504
C233	C	-0.356622	1.070282	-0.082182
C234	C	-0.106622	1.320282	0.167818
C235	C	0.143378	1.570282	0.417818
C236	C	0.393378	1.820282	0.667818
H237	H	-0.241876	0.634917	-0.313096
H238	H	0.008124	0.884917	-0.063096
H239	H	0.258124	1.134917	0.186904
H240	H	0.508124	1.384917	0.436904
H241	H	-0.312322	0.506693	-0.242037
H242	H	-0.062322	0.756693	0.007963
H243	H	0.187678	1.006693	0.257963
H244	H	0.437678	1.256693	0.507963
F245	F	-0.786825	0.936982	-0.397135
F246	F	-0.536825	1.186982	-0.147135
F247	F	-0.286825	1.436982	0.102865
F248	F	-0.036825	1.686982	0.352865
H249	H	-0.477831	0.633392	-0.378183
H250	H	-0.227831	0.883392	-0.128183
H251	H	0.022169	1.133392	0.121817
H252	H	0.272169	1.383392	0.371817
F253	F	-0.453193	1.169971	-0.925962
F254	F	-0.203193	1.419971	-0.675962
F255	F	0.046807	1.669971	-0.425962
F256	F	0.296807	1.919971	-0.175962
F257	F	-0.785770	0.976858	-0.253556
F258	F	-0.535770	1.226858	-0.003556
F259	F	-0.285770	1.476858	0.246444
F260	F	-0.035770	1.726858	0.496444
H261	H	-0.793615	1.091731	-0.235999
H262	H	-0.543615	1.341731	0.014001
H263	H	-0.293615	1.591731	0.264001
H264	H	-0.043615	1.841731	0.514001
F265	F	-0.926208	0.973261	-0.258324
F266	F	-0.676208	1.223261	-0.008324
F267	F	-0.426208	1.473261	0.241676
F268	F	-0.176208	1.723261	0.491676
F269	F	-0.253104	0.977305	-0.928111
F270	F	-0.003104	1.227305	-0.678111
F271	F	0.246896	1.477305	-0.428111
F272	F	0.496896	1.727305	-0.178111
H273	H	-0.338578	1.192212	-0.920583
H274	H	-0.088578	1.442212	-0.670583
H275	H	0.161422	1.692212	-0.420583
H276	H	0.411422	1.942212	-0.170583
F277	F	-0.257905	0.973589	-0.787682
F278	F	-0.007905	1.223589	-0.537682
F279	F	0.242095	1.473589	-0.287682
F280	F	0.492095	1.723589	-0.037682
F281	F	-0.325349	1.205734	-0.787607
F282	F	-0.075349	1.455734	-0.537607
F283	F	0.174651	1.705734	-0.287607
F284	F	0.424651	1.955734	-0.037607
F285	F	-0.455254	0.500859	-0.259712
F286	F	-0.205254	0.750859	-0.009712
F287	F	0.044746	1.000859	0.240288
F288	F	0.294746	1.250859	0.490288
F289	F	-0.387841	0.640245	-0.492274
F290	F	-0.137841	0.890245	-0.242274
F291	F	0.112159	1.140245	0.007726
F292	F	0.362159	1.390245	0.257726
F293	F	-0.222782	1.105089	-0.926402
F294	F	0.027218	1.355089	-0.676402
F295	F	0.277218	1.605089	-0.426402
F296	F	0.527218	1.855089	-0.176402
F297	F	-0.396581	0.936938	-0.927022
F298	F	-0.146581	1.186938	-0.677022
F299	F	0.103419	1.436938	-0.427022
F300	F	0.353419	1.686938	-0.177022
F301	F	-0.223526	0.501003	-0.317602
F302	F	0.026474	0.751003	-0.067602
F303	F	0.276474	1.001003	0.182398
F304	F	0.526474	1.251003	0.432398
F305	F	-0.489182	1.029744	-0.928299
F306	F	-0.239182	1.279744	-0.678299
F307	F	0.010818	1.529744	-0.428299
F308	F	0.260818	1.779744	-0.178299
F309	F	-0.785489	1.030137	-0.489514
F310	F	-0.535489	1.280137	-0.239514
F311	F	-0.285489	1.530137	0.010486
F312	F	-0.035489	1.780137	0.260486
F313	F	-0.489910	1.030140	-0.787727
F314	F	-0.239910	1.280140	-0.537727
F315	F	0.010090	1.530140	-0.287727
F316	F	0.260090	1.780140	-0.037727
H317	H	-0.920903	1.165675	-0.434573
H318	H	-0.670903	1.415675	-0.184573
H319	H	-0.420903	1.665675	0.065427
H320	H	-0.170903	1.915675	0.315427
F321	F	-0.316313	0.640240	-0.223812
F322	F	-0.066313	0.890240	0.026188
F323	F	0.183687	1.140240	0.276188
F324	F	0.433687	1.390240	0.526188
F325	F	-0.927495	1.098904	-0.220397
F326	F	-0.677495	1.348904	0.029603
F327	F	-0.427495	1.598904	0.279603
F328	F	-0.177495	1.848904	0.529603
F329	F	-0.926013	1.030566	-0.490201
F330	F	-0.676013	1.280566	-0.240201
F331	F	-0.426013	1.530566	0.009799
F332	F	-0.176013	1.780566	0.259799
H333	H	-0.434621	1.165409	-0.792754
H334	H	-0.184621	1.415409	-0.542754
H335	H	0.065379	1.665409	-0.292754
H336	H	0.315379	1.915409	-0.042754
F337	F	-0.220284	1.099367	-0.786309
F338	F	0.029716	1.349367	-0.536309
F339	F	0.279716	1.599367	-0.286309
F340	F	0.529716	1.849367	-0.036309
H341	H	-0.278423	0.633132	-0.451896
H342	H	-0.028423	0.883132	-0.201896
H343	H	0.221577	1.133132	0.048104
H344	H	0.471577	1.383132	0.298104
H345	H	-0.400742	0.955091	-0.793471
H346	H	-0.150742	1.205091	-0.543471
H347	H	0.099258	1.455091	-0.293471
H348	H	0.349258	1.705091	-0.043471
H349	H	-0.793093	1.192065	-0.338504
H350	H	-0.543093	1.442065	-0.088504
H351	H	-0.293093	1.692065	0.161496
H352	H	-0.043093	1.942065	0.411496
F353	F	-0.388952	0.500896	-0.492241
F354	F	-0.138952	0.750896	-0.242241
F355	F	0.111048	1.000896	0.007759
F356	F	0.361048	1.250896	0.257759
H357	H	-0.793833	1.164977	-0.435591
H358	H	-0.543833	1.414977	-0.185591
H359	H	-0.293833	1.664977	0.064409
H360	H	-0.043833	1.914977	0.314409
F361	F	-0.926842	0.937466	-0.397183
F362	F	-0.676842	1.187466	-0.147183
F363	F	-0.426842	1.437466	0.102817
F364	F	-0.176842	1.687466	0.352817
F365	F	-0.262108	0.499485	-0.457918
F366	F	-0.012108	0.749485	-0.207918
F367	F	0.237892	0.999485	0.042082
F368	F	0.487892	1.249485	0.292082
H369	H	-0.454151	0.634680	-0.280551
H370	H	-0.204151	0.884680	-0.030551
H371	H	0.045849	1.134680	0.219449
H372	H	0.295849	1.384680	0.469449
H373	H	-0.919824	1.192165	-0.337593
H374	H	-0.669824	1.442165	-0.087593
H375	H	-0.419824	1.692165	0.162407
H376	H	-0.169824	1.942165	0.412407
F377	F	-0.493489	0.499543	-0.385278
F378	F	-0.243489	0.749543	-0.135278
F379	F	0.006511	0.999543	0.114722
F380	F	0.256511	1.249543	0.364722
