data_functionalizedCrystal
_audit_creation_method	'MofGen! by Chris Wilmer'
_symmetry_space_group_name_H-M	'P1'
_symmetry_Int_Tables_number	1
_symmetry_cell_setting	triclinic
loop_
_symmetry_equiv_pos_as_xyz
  x,y,z
_cell_length_a	10.654550
_cell_length_b	10.489741
_cell_length_c	9.130313
_cell_angle_alpha	89.999004
_cell_angle_beta	89.996220
_cell_angle_gamma	84.512038
loop_
_atom_site_label
_atom_site_type_symbol
_atom_site_fract_x
_atom_site_fract_y
_atom_site_fract_z
O1	O	1.667918	0.179156	-0.121919
O2	O	1.302447	0.196226	-0.121895
O3	O	1.493499	0.002089	-0.121899
O4	O	1.476867	0.373293	-0.121915
O5	O	1.493497	0.002094	0.121700
O6	O	1.302445	0.196231	0.121703
O7	O	1.667916	0.179161	0.121680
Cu8	Cu	1.485180	0.187697	0.143934
Cu9	Cu	1.485183	0.187690	-0.144150
O10	O	1.476864	0.373298	0.121683
C11	C	1.255648	0.194975	-0.000093
C12	C	1.116203	0.191225	-0.000084
C13	C	1.036771	0.305530	-0.000110
C14	C	0.905748	0.301999	-0.000135
C15	C	0.933603	0.069849	-0.000114
C16	C	1.064623	0.073381	-0.000078
C17	C	1.088351	0.423374	-0.000116
C18	C	1.008917	0.537688	-0.000144
C19	C	0.877895	0.534157	-0.000169
C20	C	0.826306	0.416312	-0.000166
C21	C	1.492241	-0.045439	-0.000100
C22	C	1.488483	-0.187067	-0.000103
C23	C	1.366923	-0.255148	-0.000106
C24	C	1.424346	-0.347296	0.119997
C25	C	1.424377	-0.347276	-0.120172
C26	C	1.545956	-0.277349	0.120099
C27	C	1.545970	-0.277320	-0.120178
C28	C	1.603481	-0.369440	-0.000045
C29	C	1.714715	0.180412	-0.000126
C30	C	1.854160	0.184162	-0.000145
C31	C	1.478122	0.420826	-0.000118
C32	C	1.481880	0.562454	-0.000126
N33	N	1.485187	0.187700	0.346557
N34	N	1.485186	0.187677	-0.346772
C35	C	1.569807	0.101766	0.423207
C36	C	1.569803	0.101751	0.576544
C37	C	1.400557	0.273615	0.576567
C38	C	1.400555	0.273623	0.423232
C39	C	1.654439	0.015843	0.346531
C40	C	1.739066	-0.070097	0.423182
C41	C	1.739063	-0.070112	0.576519
C42	C	1.654432	0.015812	0.653205
H43	H	1.266977	-0.205449	0.000022
N44	N	1.614049	-0.236211	-0.254680
H45	H	1.702901	-0.279480	-0.255649
H46	H	1.567960	-0.261368	-0.345288
N47	N	0.792217	0.657443	-0.000105
H48	H	0.844779	0.732627	-0.000077
H49	H	0.737237	0.661075	-0.090397
H50	H	1.807961	-0.140096	0.638926
H51	H	1.372910	-0.378281	0.221542
N52	N	1.309282	0.366286	0.659270
H53	H	1.322126	0.353242	0.768038
H54	H	1.324600	0.456918	0.632472
N55	N	1.614034	-0.236555	0.254748
H56	H	1.616120	-0.140500	0.253949
H57	H	1.568420	-0.262684	0.345284
H58	H	0.719617	0.413446	-0.000164
N59	N	1.150303	-0.049903	-0.000061
H60	H	1.241129	-0.029781	-0.000032
H61	H	1.133459	-0.101203	0.090243
H62	H	1.195034	0.426262	-0.000102
N63	N	1.356228	-0.388296	-0.254664
H64	H	1.266875	-0.346312	-0.254543
H65	H	1.401338	-0.361612	-0.345312
N66	N	1.309286	0.366303	0.340546
H67	H	1.255678	0.420739	0.412384
H68	H	1.357870	0.423153	0.276923
H69	H	0.891588	-0.026095	-0.000136
H70	H	1.807963	-0.140062	0.360736
N71	N	1.064564	0.664779	-0.000148
H72	H	1.035691	0.714904	-0.090459
H73	H	1.035644	0.714815	0.090205
N74	N	1.654433	0.015866	0.181149
H75	H	1.739924	0.035242	0.144211
H76	H	1.635339	-0.070989	0.144320
N77	N	1.654437	0.015803	0.818590
H78	H	1.587992	0.083280	0.855534
H79	H	1.635431	-0.071085	0.855408
H80	H	1.703518	-0.418912	0.000015
