data_functionalizedCrystal
_audit_creation_method	'MofGen! by Chris Wilmer'
_symmetry_space_group_name_H-M	'P1'
_symmetry_Int_Tables_number	1
_symmetry_cell_setting	triclinic
loop_
_symmetry_equiv_pos_as_xyz
  x,y,z
_cell_length_a	15.944551
_cell_length_b	10.654541
_cell_length_c	9.730217
_cell_angle_alpha	90.003041
_cell_angle_beta	89.996919
_cell_angle_gamma	83.991333
loop_
_atom_site_label
_atom_site_type_symbol
_atom_site_fract_x
_atom_site_fract_y
_atom_site_fract_z
O1	O	-1.115457	-0.161964	-0.114146
O2	O	-0.615457	0.338036	0.385854
O3	O	-0.871023	-0.181933	-0.114180
O4	O	-0.371023	0.318067	0.385820
O5	O	-0.998861	0.010863	-0.114154
O6	O	-0.498861	0.510863	0.385846
O7	O	-0.987619	-0.354761	-0.114172
O8	O	-0.487619	0.145239	0.385828
O9	O	-0.998857	0.010865	0.114426
O10	O	-0.498857	0.510865	0.614426
O11	O	-0.871019	-0.181931	0.114400
O12	O	-0.371019	0.318069	0.614400
O13	O	-1.115453	-0.161963	0.114434
O14	O	-0.615453	0.338037	0.614434
Zn15	Zn	-0.993235	-0.171947	0.150709
Zn16	Zn	-0.493235	0.328053	0.650709
Zn17	Zn	-0.993241	-0.171949	-0.150455
Zn18	Zn	-0.493241	0.328051	0.349545
O19	O	-0.987615	-0.354759	0.114408
O20	O	-0.487615	0.145241	0.614408
C21	C	-0.839722	-0.181103	0.000106
C22	C	-0.339722	0.318897	0.500106
C23	C	-0.746462	-0.178618	0.000093
C24	C	-0.246462	0.321382	0.500093
C25	C	-0.998034	0.057652	0.000135
C26	C	-0.498034	0.557652	0.500135
C27	C	-0.995566	0.197063	0.000133
C28	C	-0.495566	0.697063	0.500133
C29	C	-1.146754	-0.162793	0.000145
C30	C	-0.646754	0.337207	0.500145
C31	C	-1.240014	-0.165278	0.000149
C32	C	-0.740014	0.334722	0.500149
C33	C	-0.530880	-0.053173	0.000126
C34	C	-0.030880	0.446827	0.500126
C35	C	-0.470198	-0.111426	-0.112579
C36	C	0.029802	0.388574	0.387421
C37	C	-0.575710	-0.174122	0.000109
C38	C	-0.075710	0.325878	0.500109
C39	C	-0.470217	-0.111453	0.112783
C40	C	0.029783	0.388547	0.612783
C41	C	-0.410772	-0.169770	0.000131
C42	C	0.089228	0.330230	0.500131
C43	C	-0.516257	-0.232408	-0.112689
C44	C	-0.016257	0.267592	0.387311
C45	C	-0.516282	-0.232418	0.112775
C46	C	-0.016282	0.267582	0.612775
C47	C	-0.455618	-0.290760	0.000042
C48	C	0.044382	0.209240	0.500042
C49	C	-0.670727	-0.176625	0.000096
C50	C	-0.170727	0.323375	0.500096
C51	C	-0.315756	-0.167276	0.000135
C52	C	0.184244	0.332724	0.500135
C53	C	-0.988442	-0.401548	0.000116
C54	C	-0.488442	0.098452	0.500116
C55	C	-0.990910	-0.540959	0.000109
C56	C	-0.490910	-0.040959	0.500109
N57	N	-0.993238	-0.171944	0.356246
N58	N	-0.493238	0.328056	0.856246
C59	C	-1.148431	0.227012	0.000171
C60	C	-0.648431	0.727012	0.500171
C61	C	-1.223700	0.307480	0.000193
C62	C	-0.723700	0.807480	0.500193
C63	C	-1.221376	0.438468	0.000189
C64	C	-0.721376	0.938468	0.500189
C65	C	-1.143774	0.488989	0.000158
C66	C	-0.643774	0.988989	0.500158
C67	C	-1.068504	0.408521	0.000136
C68	C	-0.568504	0.908521	0.500136
C69	C	-1.070837	0.277532	0.000145
C70	C	-0.570837	0.777532	0.500145
C71	C	-0.915641	0.378573	0.000087
C72	C	-0.415641	0.878573	0.500087
C73	C	-0.917963	0.247584	0.000102
C74	C	-0.417963	0.747584	0.500102
C75	C	-0.838039	0.429094	0.000057
C76	C	-0.338039	0.929094	0.500057
C77	C	-0.762767	0.348625	0.000045
C78	C	-0.262767	0.848625	0.500045
C79	C	-0.765095	0.217630	0.000051
C80	C	-0.265095	0.717630	0.500051
C81	C	-0.842694	0.167116	0.000080
C82	C	-0.342694	0.667116	0.500080
N83	N	-0.993245	-0.171941	-0.355991
N84	N	-0.493245	0.328059	0.144009
C85	C	-1.106485	-0.001272	0.356260
C86	C	-0.606485	0.498728	0.856260
C87	C	-1.163115	0.084060	0.428206
C88	C	-0.663115	0.584060	0.928206
C89	C	-1.163123	0.084061	0.572086
C90	C	-0.663123	0.584061	1.072086
C91	C	-1.106495	-0.001277	0.644022
C92	C	-0.606495	0.498723	1.144022
C93	C	-1.049865	-0.086610	0.572076
C94	C	-0.549865	0.413390	1.072076
C95	C	-1.049865	-0.086604	0.428192
C96	C	-0.549865	0.413396	0.928192
C97	C	-0.936615	-0.257274	0.572062
C98	C	-0.436615	0.242726	1.072062
C99	C	-0.936609	-0.257283	0.428182
C100	C	-0.436609	0.242717	0.928182
C101	C	-0.879987	-0.342612	0.643998
C102	C	-0.379987	0.157388	1.143998
C103	C	-0.823360	-0.427953	0.572051
C104	C	-0.323360	0.072047	1.072051
C105	C	-0.823355	-0.427951	0.428163
C106	C	-0.323355	0.072049	0.928163
C107	C	-0.879980	-0.342615	0.356235
C108	C	-0.379980	0.157385	0.856235
H109	H	-0.563632	0.047204	-0.000009
H110	H	-0.063632	0.547204	0.499991
H111	H	-0.703801	0.152119	0.000027
H112	H	-0.203801	0.652119	0.500027
Cl113	Cl	-0.879992	-0.342608	0.824877
Cl114	Cl	-0.379992	0.157392	1.324877
H115	H	-0.777253	-0.497424	0.630631
H116	H	-0.277253	0.002576	1.130631
Cl117	Cl	-0.752154	-0.535227	0.337728
Cl118	Cl	-0.252154	-0.035227	0.837728
Cl119	Cl	-0.438748	-0.032441	0.259891
Cl120	Cl	0.061252	0.467559	0.759891
Cl121	Cl	-0.405316	-0.445891	-0.000058
Cl122	Cl	0.094684	0.054109	0.499942
H123	H	-0.879984	-0.342611	0.239081
H124	H	-0.379984	0.157389	0.739081
H125	H	-0.844597	0.060461	0.000093
H126	H	-0.344597	0.560461	0.500093
H127	H	-0.449794	-0.060271	-0.207858
H128	H	0.050206	0.439729	0.292142
H129	H	-0.699590	0.389771	0.000011
H130	H	-0.199590	0.889771	0.500011
H131	H	-1.150331	0.120356	0.000194
H132	H	-0.650331	0.620356	0.500194
H133	H	-0.536542	-0.283527	-0.208076
H134	H	-0.036542	0.216473	0.291924
Cl135	Cl	-1.106491	-0.001280	0.175381
Cl136	Cl	-0.606491	0.498720	0.675381
Cl137	Cl	-0.547821	-0.311334	0.259886
Cl138	Cl	-0.047821	0.188666	0.759886
H139	H	-1.282667	0.503986	0.000196
H140	H	-0.782667	1.003986	0.500196
Cl141	Cl	-1.321252	0.243962	0.000224
Cl142	Cl	-0.821252	0.743962	0.500224
H143	H	-1.141888	0.595648	0.000137
H144	H	-0.641888	1.095648	0.500137
H145	H	-0.836151	0.535752	0.000045
H146	H	-0.336151	1.035752	0.500045
Cl147	Cl	-1.234299	0.191343	0.337770
Cl148	Cl	-0.734299	0.691343	0.837770
Cl149	Cl	-1.106495	-0.001260	0.824901
Cl150	Cl	-0.606495	0.498740	1.324901
Cl151	Cl	-1.234311	0.191344	0.662536
Cl152	Cl	-0.734311	0.691344	1.162536
