data_functionalizedCrystal
_audit_creation_method	'MofGen! by Chris Wilmer'
_symmetry_space_group_name_H-M	'P1'
_symmetry_Int_Tables_number	1
_symmetry_cell_setting	triclinic
loop_
_symmetry_equiv_pos_as_xyz
  x,y,z
_cell_length_a	16.109318
_cell_length_b	17.019294
_cell_length_c	14.586319
_cell_angle_alpha	86.117240
_cell_angle_beta	90.000075
_cell_angle_gamma	83.431560
loop_
_atom_site_label
_atom_site_type_symbol
_atom_site_fract_x
_atom_site_fract_y
_atom_site_fract_z
O1	O	1.103030	0.101460	-0.084173
O2	O	0.860959	0.114064	-0.085186
O3	O	0.988748	-0.007072	-0.075609
O4	O	0.975242	0.222596	-0.093750
O5	O	0.988739	-0.007074	0.076872
O6	O	0.860950	0.114062	0.067295
O7	O	1.103022	0.101458	0.068308
Cu8	Cu	0.981985	0.107760	0.081724
Cu9	Cu	0.981996	0.107762	-0.098602
O10	O	0.975233	0.222594	0.058731
C11	C	0.829980	0.113550	-0.008907
C12	C	0.737687	0.112012	-0.008793
C13	C	0.438623	0.107046	-0.091502
C14	C	0.525343	0.108486	-0.091621
C15	C	0.525352	0.108473	0.074623
C16	C	0.438634	0.107028	0.074742
C17	C	0.395272	0.106318	-0.008324
C18	C	0.568709	0.109204	-0.008562
C19	C	0.662735	0.110765	-0.008691
C20	C	0.301240	0.104756	-0.008195
C21	C	0.988231	-0.036462	0.002951
C22	C	0.986695	-0.124032	0.009862
C23	C	0.985980	-0.165167	-0.070008
C24	C	0.984531	-0.247448	-0.063512
C25	C	0.983803	-0.288593	0.022856
C26	C	0.984516	-0.247452	0.102731
C27	C	0.985959	-0.165172	0.096234
C28	C	0.979441	-0.537025	0.046631
C29	C	0.978001	-0.619311	0.053122
C30	C	0.978014	-0.619301	-0.113122
C31	C	0.979462	-0.537020	-0.119611
C32	C	0.980170	-0.495886	-0.039735
C33	C	0.982325	-0.372697	0.029498
C34	C	0.981643	-0.411782	-0.046379
C35	C	1.134000	0.101972	-0.007972
C36	C	1.226293	0.103510	-0.008093
C37	C	0.975749	0.251984	-0.019831
C38	C	0.977286	0.339554	-0.026748
N39	N	0.981984	0.107758	0.208556
N40	N	0.982003	0.107758	-0.225433
C41	C	1.038587	0.054137	0.447802
C42	C	1.038590	0.054135	0.543784
C43	C	0.925394	0.161381	0.535314
C44	C	0.925388	0.161379	0.439334
C45	C	0.981990	0.107758	0.395581
C46	C	0.981998	0.107758	0.587542
C47	C	0.982000	0.107757	0.691609
C48	C	0.981987	0.107758	0.291507
H49	H	0.403320	0.106468	-0.159139
C50	C	1.100082	-0.003955	0.600588
C51	C	1.150909	0.038083	0.652385
C52	C	1.207559	-0.015406	0.704733
H53	H	1.133869	-0.035911	0.560889
H54	H	1.070240	-0.036793	0.640678
H55	H	1.180749	0.070907	0.612299
H56	H	1.117146	0.070036	0.692102
H57	H	1.177718	-0.048244	0.744823
H58	H	1.241340	-0.047359	0.665026
H59	H	1.242047	0.013109	0.739889
C60	C	0.863986	0.219726	0.582689
C61	C	0.877356	0.297248	0.553193
C62	C	0.820794	0.351018	0.596802
H63	H	0.872033	0.212163	0.647336
H64	H	0.808495	0.211186	0.567617
H65	H	0.932834	0.305785	0.568272
H66	H	0.869303	0.304837	0.488552
H67	H	0.765304	0.342477	0.581730
H68	H	0.828846	0.343447	0.661447
H69	H	0.829853	0.403622	0.576789
C70	C	0.863843	0.219475	0.382589
C71	C	0.812987	0.177435	0.330832
C72	C	0.756278	0.230921	0.278556
H73	H	0.893613	0.252340	0.342472
H74	H	0.830090	0.251404	0.422362
H75	H	0.846736	0.145519	0.291063
H76	H	0.783199	0.144574	0.370926
H77	H	0.722524	0.262851	0.318329
H78	H	0.786054	0.263783	0.238444
H79	H	0.721760	0.202405	0.243439
H80	H	0.980056	-0.503526	-0.189941
H81	H	0.560636	0.109078	-0.159353
C82	C	1.100088	-0.003977	0.400217
C83	C	1.150948	0.038027	0.341779
C84	C	1.207601	-0.015493	0.297931
H85	H	1.070275	-0.036824	0.365316
H86	H	1.133845	-0.035921	0.445020
H87	H	1.117195	0.069957	0.296982
H88	H	1.180779	0.070870	0.376658
H89	H	1.241358	-0.047437	0.342734
H90	H	1.177781	-0.048337	0.263035
H91	H	1.242121	0.012999	0.258283
C92	C	0.572577	0.109295	0.164705
C93	C	0.657796	0.110741	0.146798
C94	C	0.701321	0.111512	0.229759
H95	H	0.564862	0.063098	0.202574
H96	H	0.552015	0.155049	0.195253
H97	H	0.678351	0.064991	0.116264
H98	H	0.665537	0.156935	0.108943
H99	H	0.680760	0.157266	0.260307
H100	H	0.693599	0.065314	0.267623
H101	H	0.759146	0.112500	0.217621
C102	C	0.986927	-0.120470	-0.163750
C103	C	1.059252	-0.082128	-0.171652
C104	C	1.060149	-0.040952	-0.257999
H105	H	0.939084	-0.082295	-0.170296
H106	H	0.986333	-0.156730	-0.210422
H107	H	1.059839	-0.045871	-0.124994
H108	H	1.107107	-0.120285	-0.165123
H109	H	1.059554	-0.077212	-0.304670
H110	H	1.012302	-0.002782	-0.264537
H111	H	1.109224	-0.014939	-0.263375
H112	H	0.403337	0.106434	0.142479
C113	C	0.983843	-0.291978	-0.150335
C114	C	0.984835	-0.238340	-0.227361
C115	C	0.984229	-0.279334	-0.307362
H116	H	0.934845	-0.318069	-0.151898
H117	H	1.031771	-0.330074	-0.150797
H118	H	0.936911	-0.200258	-0.226900
H119	H	1.033829	-0.212246	-0.225829
H120	H	1.032157	-0.317430	-0.307824
H121	H	0.935230	-0.305424	-0.308916
H122	H	0.984910	-0.242949	-0.359633
H123	H	0.977436	-0.652802	-0.178152
H124	H	0.983918	-0.280958	0.173054
H125	H	0.977404	-0.652808	0.123456
C126	C	0.980053	-0.492318	0.133325
C127	C	0.909378	-0.436208	0.133777
C128	C	0.909911	-0.395018	0.213637
H129	H	1.029020	-0.466175	0.134813
H130	H	0.979373	-0.528586	0.185708
H131	H	0.910065	-0.399945	0.081408
H132	H	0.860399	-0.462330	0.132304
H133	H	0.909232	-0.431286	0.266021
H134	H	0.958881	-0.368880	0.215118
H135	H	0.861956	-0.356947	0.213959
C136	C	0.986764	-0.120653	0.183059
C137	C	0.985834	-0.174297	0.260087
C138	C	0.986576	-0.133317	0.340087
H139	H	0.938875	-0.082535	0.183620
H140	H	1.035800	-0.094593	0.184521
H141	H	0.936803	-0.200344	0.258626
H142	H	1.033719	-0.212416	0.259557
H143	H	1.035613	-0.107257	0.341549
H144	H	0.938687	-0.095200	0.340639
H145	H	0.985953	-0.169708	0.392361
H146	H	0.982230	-0.378278	-0.116698
H147	H	0.981735	-0.406207	0.099818
