data_functionalizedCrystal
_audit_creation_method	'MofGen! by Chris Wilmer'
_symmetry_space_group_name_H-M	'P1'
_symmetry_Int_Tables_number	1
_symmetry_cell_setting	triclinic
loop_
_symmetry_equiv_pos_as_xyz
  x,y,z
_cell_length_a	6.817900
_cell_length_b	15.866870
_cell_length_c	10.992410
_cell_angle_alpha	110.457062
_cell_angle_beta	108.764651
_cell_angle_gamma	102.655915
loop_
_atom_site_label
_atom_site_type_symbol
_atom_site_fract_x
_atom_site_fract_y
_atom_site_fract_z
V1	V	-4.122271	-0.132635	-0.463409
O2	O	-4.071990	0.006374	-0.389949
O3	O	-4.107734	-0.262994	-0.522407
O4	O	-4.099739	-0.130595	-0.637155
O5	O	-4.080041	-0.126941	-0.274406
V6	V	-4.598159	-0.116008	-0.433251
O7	O	-4.400277	-0.169108	-0.529564
O8	O	-4.770350	-0.079535	-0.367096
O9	O	-4.389489	0.014350	-0.374253
O10	O	-4.765836	-0.255017	-0.506711
O11	O	-4.757785	-0.121702	-0.622254
O12	O	-4.397483	-0.118048	-0.259505
C13	C	-3.960136	-0.294772	-0.531138
C14	C	-4.029710	-0.401342	-0.580534
C15	C	-3.950392	-0.683426	-0.122343
C16	C	-4.015783	-0.783569	-0.168801
C17	C	-4.139039	-0.810921	-0.417066
C18	C	-4.073647	-0.710778	-0.370629
C19	C	-3.979328	-0.647038	-0.223266
C20	C	-4.102583	-0.674391	-0.471551
C21	C	-4.037207	-0.574257	-0.425117
C22	C	-3.942895	-0.510511	-0.277760
C23	C	-3.913952	-0.546904	-0.176832
C24	C	-4.196917	-0.738133	-0.618914
C25	C	-4.225853	-0.701745	-0.719836
C26	C	-4.160462	-0.601610	-0.673402
C27	C	-4.066150	-0.537863	-0.526046
C28	C	-4.189405	-0.565216	-0.774331
C29	C	-4.124029	-0.465082	-0.727897
C30	C	-4.000774	-0.437729	-0.479612
C31	C	-3.949936	-0.125884	-0.677509
C32	C	-4.013022	-0.125078	-0.819955
C33	C	-3.879701	-0.117738	-1.011603
C34	C	-3.814226	-0.118973	-0.863704
C35	C	-4.216755	-0.219600	-0.941825
C36	C	-4.281018	-0.218764	-1.089996
C37	C	-4.147714	-0.035735	-0.965282
C38	C	-4.076977	-0.035287	-0.816056
C39	C	-4.200429	0.046123	-0.365521
C40	C	-4.110095	0.152692	-0.316134
C41	C	-4.210628	-0.122763	-0.219146
C42	C	-4.126780	-0.123564	-0.076696
H43	H	-3.923937	-0.385827	-0.359612
H44	H	-4.040458	0.036042	-0.951646
O45	O	-4.152050	-0.429569	-0.825740
C46	C	-4.074070	-0.327519	-0.753150
H47	H	-4.076225	-0.303790	-0.643155
H48	H	-4.186770	-0.300794	-0.819432
H49	H	-3.896166	-0.295452	-0.738168
H50	H	-4.175026	-0.286265	-0.947792
O51	O	-4.281334	-0.627243	-0.917447
C52	C	-4.498037	-0.690599	-0.960024
H53	H	-4.512718	-0.695266	-0.861955
H54	H	-4.530713	-0.765762	-1.043349
H55	H	-4.625911	-0.662003	-1.009195
H56	H	-4.269478	-0.285266	-1.167761
H57	H	-4.302662	-0.753656	-0.839820
H58	H	-4.463517	-0.226983	-1.136520
O59	O	-3.879741	-0.413266	-0.232833
C60	C	-4.066884	-0.391947	-0.293671
H61	H	-4.198949	-0.459181	-0.395685
H62	H	-4.014041	-0.330632	-0.321762
H63	H	-4.138990	-0.368787	-0.212763
H64	H	-3.661659	-0.051008	-0.778175
O65	O	-4.396784	-0.229184	-0.911980
C66	C	-4.459601	-0.316394	-0.901935
H67	H	-4.396233	-0.368897	-0.964292
H68	H	-4.649380	-0.350121	-0.949538
H69	H	-4.383989	-0.300686	-0.783855
O70	O	-3.859005	-0.621406	0.020754
C71	C	-3.992716	-0.567327	0.046743
H72	H	-4.094850	-0.565764	-0.056858
H73	H	-3.881271	-0.490075	0.133784
H74	H	-4.110146	-0.602411	0.084320
H75	H	-3.758358	-0.049306	-0.998022
H76	H	-4.215848	-0.862832	-0.537051
O77	O	-3.854284	-0.192909	-1.104571
C78	C	-3.690596	-0.156495	-1.144778
H79	H	-3.675314	-0.080007	-1.128984
H80	H	-3.740984	-0.205404	-1.262978
H81	H	-3.523130	-0.154631	-1.074889
O82	O	-3.987821	-0.818812	-0.070639
C83	C	-4.109574	-0.790691	0.007915
H84	H	-4.138032	-0.723421	0.003576
H85	H	-4.011562	-0.773715	0.124933
H86	H	-4.277576	-0.852194	-0.041239
O87	O	-4.246288	-0.034045	-0.776474
C88	C	-4.310888	-0.114705	-0.751277
H89	H	-4.260784	-0.173953	-0.812483
H90	H	-4.499634	-0.143495	-0.790096
H91	H	-4.224489	-0.091894	-0.630880
O92	O	-3.900855	0.048042	-0.713995
C93	C	-3.720495	0.025309	-0.646425
H94	H	-3.786225	-0.051282	-0.659138
H95	H	-3.628265	0.079058	-0.526877
H96	H	-3.601152	0.029768	-0.698617
O97	O	-4.361395	-0.039700	-1.015702
C98	C	-4.378228	0.039400	-0.914968
H99	H	-4.237741	0.066599	-0.803479
H100	H	-4.546200	0.015308	-0.912002
H101	H	-4.364358	0.100254	-0.947966
O102	O	-3.822565	-0.484884	-0.033734
C103	C	-3.956276	-0.430806	-0.007745
H104	H	-4.058410	-0.429242	-0.111346
H105	H	-3.844831	-0.353554	0.079296
H106	H	-4.073706	-0.465889	0.029832
H107	H	-4.250148	-0.819668	-0.656716
H108	H	-3.760915	-0.182955	-0.869191
