data_functionalizedCrystal
_audit_creation_method	'MofGen! by Chris Wilmer'
_symmetry_space_group_name_H-M	'P1'
_symmetry_Int_Tables_number	1
_symmetry_cell_setting	triclinic
loop_
_symmetry_equiv_pos_as_xyz
  x,y,z
_cell_length_a	18.050591
_cell_length_b	21.295417
_cell_length_c	18.050583
_cell_angle_alpha	89.959541
_cell_angle_beta	89.977979
_cell_angle_gamma	90.026512
loop_
_atom_site_label
_atom_site_type_symbol
_atom_site_fract_x
_atom_site_fract_y
_atom_site_fract_z
Zn1	Zn	1.135289	-0.250631	-0.420010
Zn2	Zn	1.385289	-0.000631	-0.170010
Zn3	Zn	1.635289	0.249369	0.079990
Zn4	Zn	1.885289	0.499369	0.329990
Zn5	Zn	1.135192	-0.355917	-0.295811
Zn6	Zn	1.385192	-0.105917	-0.045811
Zn7	Zn	1.635192	0.144083	0.204189
Zn8	Zn	1.885192	0.394083	0.454189
Zn9	Zn	1.011106	-0.250659	-0.295821
Zn10	Zn	1.261106	-0.000659	-0.045821
Zn11	Zn	1.511106	0.249341	0.204179
Zn12	Zn	1.761106	0.499341	0.454179
Zn13	Zn	1.011051	-0.355859	-0.419946
Zn14	Zn	1.261051	-0.105859	-0.169946
Zn15	Zn	1.511051	0.144141	0.080054
Zn16	Zn	1.761051	0.394141	0.330054
O17	O	1.073159	-0.303267	-0.357897
O18	O	1.323159	-0.053267	-0.107897
O19	O	1.573159	0.196733	0.142103
O20	O	1.823159	0.446733	0.392103
O21	O	1.239201	-0.264610	-0.403557
O22	O	1.489201	-0.014610	-0.153557
O23	O	1.739201	0.235390	0.096443
O24	O	1.989201	0.485390	0.346443
O25	O	1.118714	-0.341991	-0.191887
O26	O	1.368714	-0.091991	0.058113
O27	O	1.618714	0.158009	0.308113
O28	O	1.868714	0.408009	0.558113
O29	O	1.027642	-0.162566	-0.312326
O30	O	1.277642	0.087434	-0.062326
O31	O	1.527642	0.337434	0.187674
O32	O	1.777642	0.587434	0.437674
O33	O	1.239130	-0.341964	-0.312308
O34	O	1.489130	-0.091964	-0.062308
O35	O	1.739130	0.158036	0.187692
O36	O	1.989130	0.408036	0.437692
O37	O	1.118879	-0.162545	-0.403567
O38	O	1.368879	0.087455	-0.153567
O39	O	1.618879	0.337455	0.096433
O40	O	1.868879	0.587455	0.346433
O41	O	1.027548	-0.264658	-0.191895
O42	O	1.277548	-0.014658	0.058105
O43	O	1.527548	0.235342	0.308105
O44	O	1.777548	0.485342	0.558105
O45	O	0.907174	-0.264601	-0.312264
O46	O	1.157174	-0.014601	-0.062264
O47	O	1.407174	0.235399	0.187736
O48	O	1.657174	0.485399	0.437736
O49	O	1.027549	-0.341864	-0.523879
O50	O	1.277549	-0.091864	-0.273879
O51	O	1.527549	0.158136	-0.023879
O52	O	1.777549	0.408136	0.226121
O53	O	0.907134	-0.341891	-0.403458
O54	O	1.157134	-0.091891	-0.153458
O55	O	1.407134	0.158109	0.096542
O56	O	1.657134	0.408109	0.346542
O57	O	1.118826	-0.264554	-0.523926
O58	O	1.368826	-0.014554	-0.273926
O59	O	1.618826	0.235446	-0.023926
O60	O	1.868826	0.485446	0.226074
O61	O	1.118661	-0.443999	-0.312247
O62	O	1.368661	-0.193999	-0.062247
O63	O	1.618661	0.056001	0.187753
O64	O	1.868661	0.306001	0.437753
O65	O	1.027455	-0.443956	-0.403449
O66	O	1.277455	-0.193956	-0.153449
O67	O	1.527455	0.056044	0.096551
O68	O	1.777455	0.306044	0.346551
C69	C	0.880207	-0.303243	-0.357856
C70	C	1.130207	-0.053243	-0.107856
C71	C	1.380207	0.196757	0.142144
C72	C	1.630207	0.446757	0.392144
C73	C	0.797662	-0.303248	-0.357856
C74	C	1.047662	-0.053248	-0.107856
C75	C	1.297662	0.196752	0.142144
C76	C	1.547662	0.446752	0.392144
C77	C	0.598211	-0.261169	-0.308379
C78	C	0.848211	-0.011169	-0.058379
C79	C	1.098211	0.238831	0.191621
C80	C	1.348211	0.488831	0.441621
C81	C	0.548788	-0.318588	-0.290098
C82	C	0.798788	-0.068588	-0.040098
C83	C	1.048788	0.181412	0.209902
C84	C	1.298788	0.431412	0.459902
C85	C	0.646531	-0.303267	-0.357889
C86	C	0.896531	-0.053267	-0.107889
C87	C	1.146531	0.196733	0.142111
C88	C	1.396531	0.446733	0.392111
C89	C	0.548872	-0.245869	-0.376169
C90	C	0.798872	0.004131	-0.126169
C91	C	1.048872	0.254131	0.123831
C92	C	1.298872	0.504131	0.373831
C93	C	0.500546	-0.303281	-0.357921
C94	C	0.750546	-0.053281	-0.107921
C95	C	1.000546	0.196719	0.142079
C96	C	1.250546	0.446719	0.392079
C97	C	0.598196	-0.360716	-0.339573
C98	C	0.848196	-0.110716	-0.089573
C99	C	1.098196	0.139284	0.160427
C100	C	1.348196	0.389284	0.410427
C101	C	0.598284	-0.287959	-0.425676
C102	C	0.848284	-0.037959	-0.175676
C103	C	1.098284	0.212041	0.074324
C104	C	1.348284	0.462041	0.324324
C105	C	0.548883	-0.345417	-0.407420
C106	C	0.798883	-0.095417	-0.157420
C107	C	1.048883	0.154583	0.092580
C108	C	1.298883	0.404583	0.342580
C109	C	0.730629	-0.303259	-0.357870
C110	C	0.980629	-0.053259	-0.107870
C111	C	1.230629	0.196741	0.142130
C112	C	1.480629	0.446741	0.392130
C113	C	0.416450	-0.303296	-0.357940
C114	C	0.666450	-0.053296	-0.107940
C115	C	0.916450	0.196704	0.142060
C116	C	1.166450	0.446704	0.392060
C117	C	1.073062	-0.466818	-0.357856
C118	C	1.323062	-0.216818	-0.107856
C119	C	1.573062	0.033182	0.142144
C120	C	1.823062	0.283182	0.392144
C121	C	1.073088	-0.536786	-0.357863
C122	C	1.323088	-0.286786	-0.107863
C123	C	1.573088	-0.036786	0.142137
C124	C	1.823088	0.213214	0.392137
C125	C	1.120621	-0.569654	-0.310423
C126	C	1.370621	-0.319654	-0.060423
C127	C	1.620621	-0.069654	0.189577
C128	C	1.870621	0.180346	0.439577
C129	C	1.120656	-0.635397	-0.310440
C130	C	1.370656	-0.385397	-0.060440
C131	C	1.620656	-0.135397	0.189560
C132	C	1.870656	0.114603	0.439560
C133	C	1.073145	-0.668269	-0.357889
C134	C	1.323145	-0.418269	-0.107889
C135	C	1.573145	-0.168269	0.142111
C136	C	1.823145	0.081731	0.392111
C137	C	1.025608	-0.635393	-0.405338
C138	C	1.275608	-0.385393	-0.155338
C139	C	1.525608	-0.135393	0.094662
C140	C	1.775608	0.114607	0.344662
C141	C	1.025580	-0.569652	-0.405325
C142	C	1.275580	-0.319652	-0.155325
C143	C	1.525580	-0.069652	0.094675
C144	C	1.775580	0.180348	0.344675
N145	N	1.008178	-0.771530	-0.363536
N146	N	1.258178	-0.521530	-0.113536
N147	N	1.508178	-0.271530	0.136464
N148	N	1.758178	-0.021530	0.386464
N149	N	1.008207	-0.833981	-0.363544
N150	N	1.258207	-0.583981	-0.113544
N151	N	1.508207	-0.333981	0.136456
N152	N	1.758207	-0.083981	0.386456
C153	C	1.073228	-0.866344	-0.357931
C154	C	1.323228	-0.616344	-0.107931
C155	C	1.573228	-0.366344	0.142069
C156	C	1.823228	-0.116344	0.392069
N157	N	1.138221	-0.833895	-0.352296
N158	N	1.388221	-0.583895	-0.102296
N159	N	1.638221	-0.333895	0.147704
N160	N	1.888221	-0.083895	0.397704
N161	N	1.138191	-0.771438	-0.352284
N162	N	1.388191	-0.521438	-0.102284
N163	N	1.638191	-0.271438	0.147716
N164	N	1.888191	-0.021438	0.397716
C165	C	1.073170	-0.739554	-0.357908
C166	C	1.323170	-0.489554	-0.107908
C167	C	1.573170	-0.239554	0.142092
C168	C	1.823170	0.010446	0.392092
C169	C	1.120803	-0.970497	-0.310507
C170	C	1.370803	-0.720497	-0.060507
C171	C	1.620803	-0.470497	0.189493
C172	C	1.870803	-0.220497	0.439493
C173	C	1.120839	-1.036241	-0.310529
C174	C	1.370839	-0.786241	-0.060529
C175	C	1.620839	-0.536241	0.189471
C176	C	1.870839	-0.286241	0.439471
C177	C	1.025784	-1.036235	-0.405423
C178	C	1.275784	-0.786235	-0.155423
C179	C	1.525784	-0.536235	0.094577
C180	C	1.775784	-0.286235	0.344577
C181	C	1.025755	-0.970493	-0.405405
C182	C	1.275755	-0.720493	-0.155405
C183	C	1.525755	-0.470493	0.094595
C184	C	1.775755	-0.220493	0.344595
C185	C	1.073263	-0.937628	-0.357943
C186	C	1.323263	-0.687628	-0.107943
C187	C	1.573263	-0.437628	0.142057
C188	C	1.823263	-0.187628	0.392057
C189	C	1.266865	-0.303291	-0.357939
C190	C	1.516865	-0.053291	-0.107939
C191	C	1.766865	0.196709	0.142061
C192	C	2.016865	0.446709	0.392061
C193	C	1.349411	-0.303301	-0.357956
C194	C	1.599411	-0.053301	-0.107956
C195	C	1.849411	0.196699	0.142044
C196	C	2.099411	0.446699	0.392044
C197	C	1.073192	-0.303199	-0.551603
C198	C	1.323192	-0.053199	-0.301603
C199	C	1.573192	0.196801	-0.051603
C200	C	1.823192	0.446801	0.198397
C201	C	1.073206	-0.303171	-0.634148
C202	C	1.323206	-0.053171	-0.384148
C203	C	1.573206	0.196829	-0.134148
C204	C	1.823206	0.446829	0.115852
C205	C	1.073277	-0.139076	-0.357955
C206	C	1.323277	0.110924	-0.107955
C207	C	1.573277	0.360924	0.142045
C208	C	1.823277	0.610924	0.392045
C209	C	1.073328	-0.069108	-0.357979
C210	C	1.323328	0.180892	-0.107979
C211	C	1.573328	0.430892	0.142021
C212	C	1.823328	0.680892	0.392021
C213	C	1.122892	-0.261109	-0.833625
C214	C	1.372892	-0.011109	-0.583625
C215	C	1.622892	0.238891	-0.333625
C216	C	1.872892	0.488891	-0.083625
C217	C	1.055159	-0.245698	-0.883014
C218	C	1.305159	0.004302	-0.633014
C219	C	1.555159	0.254302	-0.383014
C220	C	1.805159	0.504302	-0.133014
C221	C	1.073236	-0.303160	-0.785279
C222	C	1.323236	-0.053160	-0.535279
C223	C	1.573236	0.196840	-0.285279
C224	C	1.823236	0.446840	-0.035279
C225	C	1.140996	-0.318531	-0.882972
C226	C	1.390996	-0.068531	-0.632972
C227	C	1.640996	0.181469	-0.382972
C228	C	1.890996	0.431469	-0.132972
C229	C	1.073271	-0.303148	-0.931264
C230	C	1.323271	-0.053148	-0.681264
C231	C	1.573271	0.196852	-0.431264
C232	C	1.823271	0.446852	-0.181264
C233	C	1.005467	-0.287720	-0.833581
C234	C	1.255467	-0.037720	-0.583581
C235	C	1.505467	0.212280	-0.333581
C236	C	1.755467	0.462280	-0.083581
C237	C	1.091350	-0.360579	-0.833534
C238	C	1.341350	-0.110579	-0.583534
C239	C	1.591350	0.139421	-0.333534
C240	C	1.841350	0.389421	-0.083534
C241	C	1.023570	-0.345190	-0.882901
C242	C	1.273570	-0.095190	-0.632901
C243	C	1.523570	0.154810	-0.382901
C244	C	1.773570	0.404810	-0.132901
C245	C	1.073217	-0.303165	-0.701181
C246	C	1.323217	-0.053165	-0.451181
C247	C	1.573217	0.196835	-0.201181
C248	C	1.823217	0.446835	0.048819
C249	C	1.073282	-0.303143	-1.015361
C250	C	1.323282	-0.053143	-0.765361
C251	C	1.573282	0.196857	-0.515361
C252	C	1.823282	0.446857	-0.265361
C253	C	1.073169	-0.303288	-0.164945
C254	C	1.323169	-0.053288	0.085055
C255	C	1.573169	0.196712	0.335055
C256	C	1.823169	0.446712	0.585055
C257	C	1.073299	-0.303139	-0.082399
C258	C	1.323299	-0.053139	0.167601
C259	C	1.573299	0.196861	0.417601
C260	C	1.823299	0.446861	0.667601
H261	H	0.619870	-0.225606	-0.266464
H262	H	0.869870	0.024394	-0.016464
H263	H	1.119870	0.274394	0.233536
H264	H	1.369870	0.524394	0.483536
H265	H	1.106680	-0.409128	-0.811786
H266	H	1.356680	-0.159128	-0.561786
H267	H	1.606680	0.090872	-0.311786
H268	H	1.856680	0.340872	-0.061786
H269	H	1.159307	-0.542897	-0.271778
H270	H	1.409307	-0.292897	-0.021778
H271	H	1.659307	-0.042897	0.228222
H272	H	1.909307	0.207103	0.478222
H273	H	0.986872	-0.542890	-0.443958
H274	H	1.236872	-0.292890	-0.193958
H275	H	1.486872	-0.042890	0.056042
H276	H	1.736872	0.207110	0.306042
H277	H	0.527167	-0.197328	-0.391591
H278	H	0.777167	0.052672	-0.141591
H279	H	1.027167	0.302672	0.108409
H280	H	1.277167	0.552672	0.358409
H281	H	0.527049	-0.331546	-0.232786
H282	H	0.777049	-0.081546	0.017214
H283	H	1.027049	0.168454	0.267214
H284	H	1.277049	0.418454	0.517214
H285	H	1.159366	-0.662163	-0.271808
H286	H	1.409366	-0.412163	-0.021808
H287	H	1.659366	-0.162163	0.228192
H288	H	1.909366	0.087837	0.478192
H289	H	1.159551	-1.063001	-0.271899
H290	H	1.409551	-0.813001	-0.021899
H291	H	1.659551	-0.563001	0.228101
H292	H	1.909551	-0.313001	0.478101
H293	H	0.981544	-0.380746	-0.904402
H294	H	1.231544	-0.130746	-0.654402
H295	H	1.481544	0.119254	-0.404402
H296	H	1.731544	0.369254	-0.154402
H297	H	0.948161	-0.274658	-0.811976
H298	H	1.198161	-0.024658	-0.561976
H299	H	1.448161	0.225342	-0.311976
H300	H	1.698161	0.475342	-0.061976
H301	H	0.987046	-0.943730	-0.444032
H302	H	1.237046	-0.693730	-0.194032
H303	H	1.487046	-0.443730	0.055968
H304	H	1.737046	-0.193730	0.305968
H305	H	1.159489	-0.943737	-0.271862
H306	H	1.409489	-0.693737	-0.021862
H307	H	1.659489	-0.443737	0.228138
H308	H	1.909489	-0.193737	0.478138
H309	H	0.987103	-1.062999	-0.444060
H310	H	1.237103	-0.812999	-0.194060
H311	H	1.487103	-0.562999	0.055940
H312	H	1.737103	-0.312999	0.305940
H313	H	1.198285	-0.331535	-0.904670
H314	H	1.448285	-0.081535	-0.654670
H315	H	1.698285	0.168465	-0.404670
H316	H	1.948285	0.418465	-0.154670
H317	H	0.620041	-0.274983	-0.482970
H318	H	0.870041	-0.024983	-0.232970
H319	H	1.120041	0.225017	0.017030
H320	H	1.370041	0.475017	0.267030
H321	H	0.986925	-0.662161	-0.443973
H322	H	1.236925	-0.412161	-0.193973
H323	H	1.486925	-0.162161	0.056027
H324	H	1.736925	0.087839	0.306027
H325	H	0.619771	-0.409277	-0.324062
H326	H	0.869771	-0.159277	-0.074062
H327	H	1.119771	0.090723	0.175938
H328	H	1.369771	0.340723	0.425938
H329	H	1.164816	-0.225525	-0.811985
H330	H	1.414816	0.024475	-0.561985
H331	H	1.664816	0.274475	-0.311985
H332	H	1.914816	0.524475	-0.061985
H333	H	0.527361	-0.381065	-0.449303
H334	H	0.777361	-0.131065	-0.199303
H335	H	1.027361	0.118935	0.050697
H336	H	1.277361	0.368935	0.300697
H337	H	1.039849	-0.197136	-0.904748
H338	H	1.289849	0.052864	-0.654748
H339	H	1.539849	0.302864	-0.404748
H340	H	1.789849	0.552864	-0.154748
