data_functionalizedCrystal
_audit_creation_method	'MofGen! by Chris Wilmer'
_symmetry_space_group_name_H-M	'P1'
_symmetry_Int_Tables_number	1
_symmetry_cell_setting	triclinic
loop_
_symmetry_equiv_pos_as_xyz
  x,y,z
_cell_length_a	12.759401
_cell_length_b	18.215405
_cell_length_c	12.759393
_cell_angle_alpha	89.962431
_cell_angle_beta	89.981504
_cell_angle_gamma	90.025046
loop_
_atom_site_label
_atom_site_type_symbol
_atom_site_fract_x
_atom_site_fract_y
_atom_site_fract_z
Zn1	Zn	1.606181	-0.292938	-0.593937
Zn2	Zn	1.606044	-0.416024	-0.418239
Zn3	Zn	1.430483	-0.292976	-0.418277
Zn4	Zn	1.430440	-0.415967	-0.593881
O5	O	1.518287	-0.354476	-0.506084
O6	O	1.753184	-0.309273	-0.570639
O7	O	1.582716	-0.399741	-0.271223
O8	O	1.453865	-0.189987	-0.441618
O9	O	1.753083	-0.399704	-0.441554
O10	O	1.582949	-0.189959	-0.570675
O11	O	1.453732	-0.309339	-0.271251
O12	O	1.283456	-0.309284	-0.441563
O13	O	1.453792	-0.399607	-0.740909
O14	O	1.283425	-0.399645	-0.570578
O15	O	1.582908	-0.309218	-0.740951
O16	O	1.582675	-0.519001	-0.441499
O17	O	1.453660	-0.518959	-0.570542
C18	C	1.245320	-0.354463	-0.506069
C19	C	1.128543	-0.354475	-0.506088
C20	C	1.073692	-0.401601	-0.573155
C21	C	0.963968	-0.401610	-0.573167
C22	C	0.963956	-0.307365	-0.439035
C23	C	1.073678	-0.307353	-0.439029
C24	C	1.073699	-0.456015	-0.650592
C25	C	0.963975	-0.456025	-0.650604
C26	C	1.518176	-0.545683	-0.506033
C27	C	1.518225	-0.627482	-0.506047
C28	C	1.585561	-0.815673	-0.438977
C29	C	1.585608	-0.892531	-0.439003
C30	C	1.451148	-0.892528	-0.573265
C31	C	1.451107	-0.815671	-0.573244
C32	C	1.518312	-0.777245	-0.506094
C33	C	1.518400	-0.930961	-0.506141
C34	C	1.518450	-1.014295	-0.506169
C35	C	1.518263	-0.693906	-0.506067
C36	C	1.792320	-0.354491	-0.506098
C37	C	1.909097	-0.354497	-0.506105
C38	C	1.518361	-0.354402	-0.780117
C39	C	1.518392	-0.354370	-0.896894
C40	C	1.518427	-0.162523	-0.506157
C41	C	1.518487	-0.080724	-0.506189
C42	C	1.585632	-0.307300	-0.951779
C43	C	1.585657	-0.307274	-1.061503
C44	C	1.451199	-0.401394	-1.061447
C45	C	1.451170	-0.401416	-0.951725
C46	C	1.663263	-0.252963	-0.951813
C47	C	1.663288	-0.252936	-1.061537
C48	C	1.518274	-0.354497	-0.233116
C49	C	1.518447	-0.354322	-0.116340
H50	H	1.107699	-0.510128	-0.621300
H51	H	0.934165	-0.513008	-0.628663
H52	H	1.740530	-0.273395	-0.917774
H53	H	1.103511	-0.440815	-0.732001
H54	H	1.396430	-0.923824	-0.627935
H55	H	0.919271	-0.268999	-0.384439
C56	C	1.436384	-0.729165	-0.714534
C57	C	1.377182	-0.773426	-0.647027
H58	H	1.390748	-0.703089	-0.760087
H59	H	1.476395	-0.695285	-0.674543
H60	H	1.482146	-0.759108	-0.754766
H61	H	1.331425	-0.743482	-0.606789
H62	H	1.337153	-0.807310	-0.687022
H63	H	1.118333	-0.268973	-0.384424
C64	C	1.598213	-0.131844	-1.025814
C65	C	1.624025	-0.179830	-1.107523
H66	H	1.573979	-0.086712	-1.054207
H67	H	1.544688	-0.153145	-0.983906
H68	H	1.658474	-0.123121	-0.983924
H69	H	1.563762	-0.188558	-1.149408
H70	H	1.677555	-0.158525	-1.149448
C71	C	1.318247	-0.494431	-0.962695
C72	C	1.377241	-0.453145	-0.891394
H73	H	1.272606	-0.526367	-0.925447
H74	H	1.278112	-0.462350	-1.005508
H75	H	1.364016	-0.522584	-1.005475
H76	H	1.331472	-0.424988	-0.848619
H77	H	1.417378	-0.485231	-0.848562
C78	C	1.773140	-0.273494	-1.211488
C79	C	1.773128	-0.273535	-1.101746
H80	H	1.840951	-0.286203	-1.236308
H81	H	1.723501	-0.308254	-1.236278
H82	H	1.754994	-0.225992	-1.236301
H83	H	1.791266	-0.321038	-1.076933
H84	H	1.822783	-0.238773	-1.076945
C85	C	1.391544	-0.443153	-1.229619
C86	C	1.377320	-0.453111	-1.121721
H87	H	1.345937	-0.475087	-1.266826
H88	H	1.376205	-0.393708	-1.247618
H89	H	1.462134	-0.453924	-1.247590
H90	H	1.306731	-0.442335	-1.103750
H91	H	1.392652	-0.502568	-1.103715
H92	H	0.929982	-0.435680	-0.727959
H93	H	1.640285	-0.784388	-0.384302
C94	C	1.600422	-0.979102	-0.297791
C95	C	1.659565	-0.934800	-0.365295
H96	H	1.646097	-1.005207	-0.252312
H97	H	1.554697	-0.949189	-0.257488
H98	H	1.560374	-1.012963	-0.337796
H99	H	1.699607	-0.900935	-0.325290
H100	H	1.705308	-0.964716	-0.405601
H101	H	1.641509	-0.195969	-0.922065
