data_functionalizedCrystal
_audit_creation_method	'MofGen! by Chris Wilmer'
_symmetry_space_group_name_H-M	'P1'
_symmetry_Int_Tables_number	1
_symmetry_cell_setting	triclinic
loop_
_symmetry_equiv_pos_as_xyz
  x,y,z
_cell_length_a	19.121063
_cell_length_b	13.897449
_cell_length_c	19.121595
_cell_angle_alpha	87.542018
_cell_angle_beta	90.075983
_cell_angle_gamma	92.469882
loop_
_atom_site_label
_atom_site_type_symbol
_atom_site_fract_x
_atom_site_fract_y
_atom_site_fract_z
Zn1	Zn	-0.262198	1.483152	-0.408323
Zn2	Zn	0.237802	1.983152	0.091677
Zn3	Zn	-0.384438	1.469293	-0.296079
Zn4	Zn	0.115562	1.969293	0.203921
Zn5	Zn	-0.267220	1.314692	-0.291096
Zn6	Zn	0.232780	1.814692	0.208904
Zn7	Zn	-0.379404	1.315218	-0.413274
Zn8	Zn	0.120596	1.815218	0.086726
O9	O	-0.323315	1.395589	-0.352193
O10	O	0.176685	1.895589	0.147807
O11	O	-0.278419	1.616296	-0.393448
O12	O	0.221581	2.116296	0.106552
O13	O	-0.373098	1.442765	-0.197312
O14	O	0.126902	1.942765	0.302688
O15	O	-0.168446	1.342619	-0.302490
O16	O	0.331554	1.842619	0.197510
O17	O	-0.368229	1.606114	-0.310982
O18	O	0.131771	2.106114	0.189018
O19	O	-0.164757	1.466386	-0.388616
O20	O	0.335243	1.966386	0.111384
O21	O	-0.286977	1.329180	-0.193651
O22	O	0.213023	1.829180	0.306349
O23	O	-0.282096	1.179780	-0.307290
O24	O	0.217904	1.679780	0.192710
O25	O	-0.359648	1.343515	-0.510723
O26	O	0.140352	1.843515	-0.010723
O27	O	-0.364517	1.180166	-0.397053
O28	O	0.135483	1.680166	0.102947
O29	O	-0.273537	1.466896	-0.507086
O30	O	0.226463	1.966896	-0.007086
O31	O	-0.481878	1.443275	-0.315782
O32	O	0.018122	1.943275	0.184218
O33	O	-0.478179	1.330076	-0.401884
O34	O	0.021821	1.830076	0.098116
C35	C	-0.323305	1.144974	-0.352168
C36	C	0.176695	1.644974	0.147832
C37	C	-0.323317	1.037759	-0.352175
C38	C	0.176683	1.537759	0.147825
C39	C	-0.323319	0.950690	-0.352187
C40	C	0.176681	1.450690	0.147813
C41	C	-0.323323	0.841459	-0.352208
C42	C	0.176677	1.341459	0.147792
C43	C	-0.505466	1.385256	-0.359927
C44	C	-0.005466	1.885256	0.140073
C45	C	-0.583390	1.380925	-0.363258
C46	C	-0.083390	1.880925	0.136742
C47	C	-0.621900	1.437877	-0.320032
C48	C	-0.121900	1.937877	0.179968
C49	C	-0.695118	1.433809	-0.323170
C50	C	-0.195118	1.933809	0.176830
C51	C	-0.729824	1.372785	-0.369531
C52	C	-0.229824	1.872785	0.130469
C53	C	-0.691309	1.315831	-0.412762
C54	C	-0.191309	1.815831	0.087238
C55	C	-0.618093	1.319904	-0.409627
C56	C	-0.118093	1.819904	0.090373
C57	C	-0.950795	1.357541	-0.381239
C58	C	-0.450795	1.857541	0.118761
C59	C	-1.024017	1.353470	-0.384369
C60	C	-0.524017	1.853470	0.115631
C61	C	-1.027820	1.471450	-0.294778
C62	C	-0.527820	1.971450	0.205222
C63	C	-0.954602	1.475514	-0.291644
C64	C	-0.454602	1.975514	0.208356
C65	C	-0.916094	1.418564	-0.334878
C66	C	-0.416094	1.918564	0.165122
C67	C	-0.804664	1.368624	-0.372738
C68	C	-0.304664	1.868624	0.127262
C69	C	-0.841255	1.422730	-0.331674
C70	C	-0.341255	1.922730	0.168326
C71	C	-0.140452	1.405990	-0.344445
C72	C	0.359548	1.905990	0.155555
C73	C	-0.062527	1.410422	-0.341143
C74	C	0.437473	1.910422	0.158857
C75	C	-0.315471	1.406810	-0.535054
C76	C	0.184529	1.906810	-0.035054
C77	C	-0.312128	1.411592	-0.612978
C78	C	0.187872	1.911592	-0.112978
C79	C	-0.323325	1.647183	-0.352219
C80	C	0.176675	2.147183	0.147781
C81	C	-0.323330	1.754397	-0.352229
C82	C	0.176670	2.254397	0.147771
C83	C	-0.355387	1.349602	-0.651481
C84	C	0.144613	1.849602	-0.151481
C85	C	-0.352247	1.354103	-0.724699
C86	C	0.147753	1.854103	-0.224699
C87	C	-0.305842	1.420589	-0.759412
C88	C	0.194158	1.920589	-0.259412
C89	C	-0.262581	1.482586	-0.720904
C90	C	0.237419	1.982586	-0.220904
C91	C	-0.265726	1.478089	-0.647687
C92	C	0.234274	1.978089	-0.147687
C93	C	-0.294107	1.437385	-0.980385
C94	C	0.205893	1.937385	-0.480385
C95	C	-0.290964	1.441876	-1.053606
C96	C	0.209036	1.941876	-0.553606
C97	C	-0.380631	1.313393	-1.057397
C98	C	0.119369	1.813393	-0.557397
C99	C	-0.383768	1.308898	-0.984179
C100	C	0.116232	1.808898	-0.484179
C101	C	-0.340510	1.370898	-0.945676
C102	C	0.159490	1.870898	-0.445676
C103	C	-0.302629	1.425190	-0.834253
C104	C	0.197371	1.925190	-0.334253
C105	C	-0.343727	1.366302	-0.870837
C106	C	0.156273	1.866302	-0.370837
C107	C	-0.331078	1.384470	-0.170042
C108	C	0.168922	1.884470	0.329958
C109	C	-0.334223	1.379886	-0.092110
C110	C	0.165777	1.879886	0.407890
H111	H	-0.593647	1.487565	-0.282277
H112	H	-0.093647	1.987565	0.217723
H113	H	-0.726469	1.480185	-0.287970
H114	H	-0.226469	1.980185	0.212030
H115	H	-0.926346	1.525205	-0.253894
H116	H	-0.426346	2.025205	0.246106
H117	H	-1.059182	1.517817	-0.259581
H118	H	-0.559182	2.017817	0.240419
H119	H	-0.586738	1.273529	-0.444827
H120	H	-0.086738	1.773529	0.055173
H121	H	-0.812994	1.472421	-0.293930
H122	H	-0.312994	1.972421	0.206070
H123	H	-1.052272	1.303788	-0.422134
H124	H	-0.552272	1.803788	0.077866
H125	H	-0.919447	1.311168	-0.416441
H126	H	-0.419447	1.811168	0.083559
H127	H	-0.253170	1.496014	-1.081867
H128	H	0.246830	1.996014	-0.581867
H129	H	-0.387474	1.303625	-0.756046
H130	H	0.112526	1.803625	-0.256046
H131	H	-0.719573	1.266147	-0.450513
H132	H	-0.219573	1.766147	0.049487
H133	H	-0.832931	1.318935	-0.410483
H134	H	-0.332931	1.818935	0.089517
H135	H	-0.224801	1.536725	-0.749173
H136	H	0.275199	2.036725	-0.249173
H137	H	-0.258883	1.487870	-0.949045
H138	H	0.241117	1.987870	-0.449045
H139	H	-0.264846	1.479322	-0.862525
H140	H	0.235154	1.979322	-0.362525
H141	H	-0.393167	1.295450	-0.623223
H142	H	0.106833	1.795450	-0.123223
H143	H	-0.230500	1.528567	-0.616338
H144	H	0.269500	2.028567	-0.116338
H145	H	-0.421567	1.254773	-0.955921
H146	H	0.078433	1.754773	-0.455921
H147	H	-0.415849	1.262917	-1.088753
H148	H	0.084151	1.762917	-0.588753
H149	H	-0.381512	1.312172	-0.842571
H150	H	0.118488	1.812172	-0.342571
