data_functionalizedCrystal
_audit_creation_method	'MofGen! by Chris Wilmer'
_symmetry_space_group_name_H-M	'P1'
_symmetry_Int_Tables_number	1
_symmetry_cell_setting	triclinic
loop_
_symmetry_equiv_pos_as_xyz
  x,y,z
_cell_length_a	17.699083
_cell_length_b	10.268362
_cell_length_c	17.699103
_cell_angle_alpha	89.989758
_cell_angle_beta	83.287038
_cell_angle_gamma	90.001874
loop_
_atom_site_label
_atom_site_type_symbol
_atom_site_fract_x
_atom_site_fract_y
_atom_site_fract_z
O1	O	-1.004083	0.108119	-0.095711
O2	O	-0.504083	0.608119	0.404289
O3	O	-0.783705	0.108166	-0.108163
O4	O	-0.283705	0.608166	0.391837
O5	O	-0.900112	0.108116	0.008251
O6	O	-0.400112	0.608116	0.508251
O7	O	-0.887675	0.108169	-0.212125
O8	O	-0.387675	0.608169	0.287875
O9	O	-0.900102	-0.108484	0.008256
O10	O	-0.400102	0.391516	0.508256
O11	O	-0.783695	-0.108434	-0.108158
O12	O	-0.283695	0.391566	0.391842
O13	O	-1.004073	-0.108482	-0.095706
O14	O	-0.504073	0.391518	0.404294
Cu15	Cu	-0.893883	-0.128235	-0.101932
Cu16	Cu	-0.393883	0.371765	0.398068
Cu17	Cu	-0.893895	0.127920	-0.101937
Cu18	Cu	-0.393895	0.627920	0.398063
O19	O	-0.887665	-0.108432	-0.212120
O20	O	-0.387665	0.391568	0.287880
C21	C	-0.755503	-0.000128	-0.107715
C22	C	-0.255503	0.499872	0.392285
C23	C	-0.671485	-0.000111	-0.106376
C24	C	-0.171485	0.499889	0.393624
C25	C	-0.622869	-0.000095	-0.174709
C26	C	-0.122869	0.499905	0.325291
C27	C	-0.543925	-0.000111	-0.173447
C28	C	-0.043925	0.499889	0.326553
C29	C	-0.513600	-0.000134	-0.103851
C30	C	-0.013600	0.499866	0.396149
C31	C	-0.562222	-0.000155	-0.035513
C32	C	-0.062222	0.499845	0.464487
C33	C	-0.641164	-0.000148	-0.036776
C34	C	-0.141164	0.499852	0.463224
C35	C	-0.243859	-0.000184	-0.030418
C36	C	0.256141	0.499816	0.469582
C37	C	-0.164910	-0.000187	-0.029160
C38	C	0.335090	0.499813	0.470840
C39	C	-0.146620	-0.000147	-0.167088
C40	C	0.353380	0.499853	0.332912
C41	C	-0.225562	-0.000140	-0.168351
C42	C	0.274438	0.499860	0.331649
C43	C	-0.274177	-0.000167	-0.100014
C44	C	0.225823	0.499833	0.399986
C45	C	-0.359777	-0.000152	-0.101383
C46	C	0.140223	0.499848	0.398617
C47	C	-0.428002	-0.000140	-0.102480
C48	C	0.071998	0.499860	0.397520
N49	N	-0.893880	-0.308401	-0.101927
N50	N	-0.393880	0.191599	0.398073
C51	C	-0.893891	-0.574072	-0.101936
C52	C	-0.393891	-0.074072	0.398064
C53	C	-0.893882	-0.426234	-0.101933
C54	C	-0.393882	0.073766	0.398067
C55	C	-0.032275	-0.000181	-0.096155
C56	C	0.467725	0.499819	0.403845
C57	C	-0.116293	-0.000180	-0.097493
C58	C	0.383707	0.499820	0.402507
C59	C	-0.899659	-0.000187	0.036450
C60	C	-0.399659	0.499813	0.536450
C61	C	-0.898315	-0.000198	0.120468
C62	C	-0.398315	0.499802	0.620468
N63	N	-0.893904	0.308086	-0.101936
N64	N	-0.393904	0.808086	0.398064
C65	C	-0.888119	-0.000125	-0.240320
C66	C	-0.388119	0.499875	0.259680
C67	C	-0.889463	-0.000106	-0.324337
C68	C	-0.389463	0.499894	0.175663
C69	C	-0.890096	0.117958	0.636176
C70	C	-0.390096	0.617958	1.136176
C71	C	-0.891358	0.117946	0.557233
C72	C	-0.391358	0.617946	1.057233
C73	C	-0.891982	-0.000131	0.517777
C74	C	-0.391982	0.499869	1.017777
C75	C	-0.891352	-0.118204	0.557270
C76	C	-0.391352	0.381796	1.057270
C77	C	-0.890095	-0.118191	0.636212
C78	C	-0.390095	0.381809	1.136212
C79	C	-0.896422	-0.118259	0.238903
C80	C	-0.396422	0.381741	0.738903
C81	C	-0.897676	-0.118263	0.159955
C82	C	-0.397676	0.381737	0.659955
C83	C	-0.897685	0.117878	0.159924
C84	C	-0.397685	0.617878	0.659924
C85	C	-0.896428	0.117891	0.238867
C86	C	-0.396428	0.617891	0.738867
C87	C	-0.895802	-0.000181	0.278353
C88	C	-0.395802	0.499819	0.778353
C89	C	-0.894434	-0.000167	0.363952
C90	C	-0.394434	0.499833	0.863952
C91	C	-0.893344	-0.000146	0.432178
C92	C	-0.393344	0.499854	0.932178
H93	H	-0.504345	-0.000096	-0.229090
H94	H	-0.004345	0.499904	0.270910
H95	H	-0.898181	-0.214422	0.127832
H96	H	-0.398181	0.285578	0.627832
H97	H	-0.895913	-0.214401	0.271044
H98	H	-0.395913	0.285599	0.771044
H99	H	-0.889581	0.214110	0.668295
H100	H	-0.389581	0.714110	1.168295
H101	H	-0.895916	0.214041	0.270987
H102	H	-0.395916	0.714041	0.770987
H103	H	-0.891875	0.214086	0.525087
H104	H	-0.391875	0.714086	1.025087
Cl105	Cl	-0.263681	-0.000104	-0.255847
Cl106	Cl	0.236319	0.499896	0.244153
Cl107	Cl	-0.892141	-0.266645	0.507669
Cl108	Cl	-0.392141	0.233355	1.007669
Cl109	Cl	-0.660984	-0.000057	-0.262206
Cl110	Cl	-0.160984	0.499943	0.237794
Cl111	Cl	-0.898484	0.266314	0.110281
Cl112	Cl	-0.398484	0.766314	0.610281
H113	H	-0.107027	-0.000132	-0.222732
H114	H	0.392973	0.499868	0.277268
H115	H	-0.283432	-0.000207	0.025227
H116	H	0.216568	0.499793	0.525227
Cl117	Cl	-0.126788	-0.000217	0.058339
Cl118	Cl	0.373212	0.499783	0.558339
Cl119	Cl	-0.524098	-0.000192	0.051980
Cl120	Cl	-0.024098	0.499808	0.551980
H121	H	-0.889579	-0.214330	0.668361
H122	H	-0.389579	0.285670	1.168361
H123	H	-0.680747	-0.000160	0.018868
H124	H	-0.180747	0.499840	0.518868
