data_functionalizedCrystal
_audit_creation_method	'MofGen! by Chris Wilmer'
_symmetry_space_group_name_H-M	'P1'
_symmetry_Int_Tables_number	1
_symmetry_cell_setting	triclinic
loop_
_symmetry_equiv_pos_as_xyz
  x,y,z
_cell_length_a	25.639242
_cell_length_b	25.639240
_cell_length_c	25.639243
_cell_angle_alpha	90.016535
_cell_angle_beta	90.004678
_cell_angle_gamma	90.025061
loop_
_atom_site_label
_atom_site_type_symbol
_atom_site_fract_x
_atom_site_fract_y
_atom_site_fract_z
Zn1	Zn	0.799197	-0.208370	0.295607
Zn2	Zn	1.132530	0.124963	0.628940
Zn3	Zn	1.465863	0.458296	0.962274
Zn4	Zn	0.799144	-0.295775	0.208160
Zn5	Zn	1.132477	0.037559	0.541494
Zn6	Zn	1.465811	0.370892	0.874827
Zn7	Zn	0.711788	-0.208343	0.208183
Zn8	Zn	1.045121	0.124990	0.541516
Zn9	Zn	1.378454	0.458323	0.874850
Zn10	Zn	0.711727	-0.295765	0.295562
Zn11	Zn	1.045060	0.037569	0.628895
Zn12	Zn	1.378394	0.370902	0.962229
O13	O	0.755464	-0.252063	0.251878
O14	O	1.088797	0.081270	0.585211
O15	O	1.422130	0.414603	0.918545
O16	O	0.872355	-0.219980	0.284016
O17	O	1.205688	0.113353	0.617350
O18	O	1.539021	0.446687	0.950683
O19	O	0.787559	-0.284170	0.134998
O20	O	1.120893	0.049164	0.468332
O21	O	1.454226	0.382497	0.801665
O22	O	0.723430	-0.135182	0.219808
O23	O	1.056763	0.198152	0.553141
O24	O	1.390097	0.531485	0.886475
O25	O	0.872316	-0.284196	0.219770
O26	O	1.205649	0.049138	0.553103
O27	O	1.538983	0.382471	0.886436
O28	O	0.787649	-0.135201	0.284038
O29	O	1.120982	0.198132	0.617371
O30	O	1.454316	0.531465	0.950705
O31	O	0.723379	-0.219934	0.135015
O32	O	1.056712	0.113399	0.468348
O33	O	1.390046	0.446732	0.801681
O34	O	0.638614	-0.219925	0.219765
O35	O	0.971948	0.113409	0.553098
O36	O	1.305281	0.446742	0.886431
O37	O	0.723327	-0.284179	0.368733
O38	O	1.056660	0.049155	0.702067
O39	O	1.389993	0.382488	1.035400
O40	O	0.638570	-0.284153	0.283962
O41	O	0.971903	0.049181	0.617295
O42	O	1.305237	0.382514	0.950629
O43	O	0.787590	-0.219970	0.368766
O44	O	1.120924	0.113363	0.702100
O45	O	1.454257	0.446696	1.035433
O46	O	0.787500	-0.368939	0.219726
O47	O	1.120834	-0.035605	0.553060
O48	O	1.454167	0.297728	0.886393
O49	O	0.723276	-0.368931	0.283940
O50	O	1.056609	-0.035598	0.617273
O51	O	1.389942	0.297735	0.950607
C52	C	0.619621	-0.252035	0.251861
C53	C	0.952955	0.081298	0.585195
C54	C	1.286288	0.414632	0.918528
C55	C	0.561507	-0.252036	0.251866
C56	C	0.894841	0.081298	0.585200
C57	C	1.228174	0.414631	0.918533
C58	C	0.310342	-0.218686	0.285392
C59	C	0.643675	0.114648	0.618726
C60	C	0.977009	0.447981	0.952059
C61	C	0.364946	-0.218680	0.285389
C62	C	0.698280	0.114653	0.618723
C63	C	1.031613	0.447986	0.952056
O64	O	0.393207	-0.190302	0.313891
O65	O	0.726540	0.143031	0.647224
O66	O	1.059874	0.476364	0.980557
N67	N	0.392233	-0.252057	0.251884
N68	N	0.725567	0.081276	0.585217
N69	N	1.058900	0.414609	0.918551
C70	C	0.364913	-0.285445	0.218383
C71	C	0.698247	0.047888	0.551717
C72	C	1.031580	0.381222	0.885050
O73	O	0.393137	-0.313835	0.189885
O74	O	0.726470	0.019499	0.523218
O75	O	1.059804	0.352832	0.856551
C76	C	0.310310	-0.285452	0.218389
C77	C	0.643643	0.047881	0.551723
C78	C	0.976977	0.381214	0.885056
C79	C	0.283026	-0.252070	0.251893
C80	C	0.616359	0.081264	0.585226
C81	C	0.949692	0.414597	0.918560
C82	C	0.283058	-0.185306	0.318894
C83	C	0.616391	0.148027	0.652227
C84	C	0.949724	0.481361	0.985560
C85	C	0.228457	-0.185311	0.318896
C86	C	0.561791	0.148023	0.652229
C87	C	0.895124	0.481356	0.985563
C88	C	0.201141	-0.218695	0.285397
C89	C	0.534474	0.114639	0.618730
C90	C	0.867808	0.447972	0.952063
C91	C	0.228425	-0.252074	0.251895
C92	C	0.561758	0.081259	0.585229
C93	C	0.895092	0.414592	0.918562
C94	C	0.282991	-0.318843	0.184892
C95	C	0.616324	0.014491	0.518225
C96	C	0.949657	0.347824	0.851558
C97	C	0.228384	-0.318847	0.184901
C98	C	0.561717	0.014486	0.518234
C99	C	0.895050	0.347819	0.851567
C100	C	0.201100	-0.285465	0.218405
C101	C	0.534433	0.047869	0.551738
C102	C	0.867766	0.381202	0.885071
C103	C	0.146508	-0.285463	0.218398
C104	C	0.479842	0.047870	0.551731
C105	C	0.813175	0.381204	0.885065
N106	N	0.119221	-0.252086	0.251903
N107	N	0.452555	0.081247	0.585237
N108	N	0.785888	0.414580	0.918570
C109	C	0.146538	-0.218702	0.285403
C110	C	0.479871	0.114631	0.618736
C111	C	0.813204	0.447964	0.952069
C112	C	0.479584	-0.285428	0.218374
C113	C	0.812917	0.047906	0.551707
C114	C	1.146251	0.381239	0.885041
C115	C	0.534186	-0.285418	0.218365
C116	C	0.867520	0.047915	0.551698
C117	C	1.200853	0.381249	0.885032
C118	C	0.534215	-0.218654	0.285372
C119	C	0.867549	0.114679	0.618705
C120	C	1.200882	0.448013	0.952038
C121	C	0.479612	-0.218661	0.285378
C122	C	0.812946	0.114672	0.618711
C123	C	1.146279	0.448005	0.952044
C124	C	0.452297	-0.252051	0.251879
C125	C	0.785630	0.081282	0.585213
C126	C	1.118964	0.414616	0.918546
C127	C	0.031872	-0.218714	0.285404
C128	C	0.365206	0.114619	0.618738
C129	C	0.698539	0.447953	0.952071
C130	C	-0.022733	-0.218720	0.285402
C131	C	0.310600	0.114613	0.618735
C132	C	0.643934	0.447947	0.952069
C133	C	-0.022757	-0.285486	0.218397
C134	C	0.310576	0.047847	0.551731
C135	C	0.643909	0.381181	0.885064
C136	C	0.031843	-0.285478	0.218398
C137	C	0.365177	0.047855	0.551731
C138	C	0.698510	0.381189	0.885064
C139	C	0.059157	-0.252090	0.251905
C140	C	0.392490	0.081243	0.585239
C141	C	0.725823	0.414576	0.918572
O142	O	0.118213	-0.313828	0.189913
O143	O	0.451546	0.019505	0.523246
O144	O	0.784880	0.352838	0.856580
O145	O	0.118307	-0.190322	0.313901
O146	O	0.451641	0.143011	0.647235
O147	O	0.784974	0.476344	0.980568
C148	C	0.755390	-0.387906	0.251837
C149	C	1.088723	-0.054572	0.585170
C150	C	1.422057	0.278761	0.918504
C151	C	0.755406	-0.446020	0.251837
C152	C	1.088740	-0.112687	0.585170
C153	C	1.422073	0.220647	0.918504
C154	C	0.788919	-0.806355	0.285383
C155	C	1.122253	-0.473021	0.618716
C156	C	1.455586	-0.139688	0.952050
C157	C	0.788935	-0.860959	0.285394
C158	C	1.122268	-0.527626	0.618727
C159	C	1.455601	-0.194292	0.952060
O160	O	0.817341	-0.889172	0.313873
O161	O	1.150674	-0.555839	0.647207
O162	O	1.484007	-0.222505	0.980540
N163	N	0.755536	-0.888302	0.251929
N164	N	1.088870	-0.554969	0.585262
N165	N	1.422203	-0.221636	0.918595
C166	C	0.722117	-0.861038	0.218455
C167	C	1.055450	-0.527705	0.551788
C168	C	1.388783	-0.194372	0.885121
O169	O	0.693710	-0.889310	0.189991
O170	O	1.027043	-0.555977	0.523325
O171	O	1.360377	-0.222643	0.856658
C172	C	0.722099	-0.806435	0.218447
C173	C	1.055432	-0.473102	0.551780
C174	C	1.388766	-0.139768	0.885114
C175	C	0.755503	-0.779095	0.251910
C176	C	1.088837	-0.445761	0.585244
C177	C	1.422170	-0.112428	0.918577
C178	C	0.822320	-0.779014	0.318844
C179	C	1.155654	-0.445681	0.652177
C180	C	1.488987	-0.112348	0.985511
C181	C	0.822305	-0.724414	0.318833
C182	C	1.155639	-0.391080	0.652166
C183	C	1.488972	-0.057747	0.985499
C184	C	0.788890	-0.697154	0.285360
C185	C	1.122223	-0.363820	0.618693
C186	C	1.455556	-0.030487	0.952027
C187	C	0.755488	-0.724494	0.251899
C188	C	1.088822	-0.391161	0.585232
C189	C	1.422155	-0.057827	0.918566
C190	C	0.688677	-0.779172	0.184976
C191	C	1.022011	-0.445839	0.518309
C192	C	1.355344	-0.112506	0.851643
C193	C	0.688662	-0.724565	0.184972
C194	C	1.021995	-0.391232	0.518305
C195	C	1.355329	-0.057899	0.851638
C196	C	0.722066	-0.697225	0.218435
C197	C	1.055400	-0.363891	0.551768
C198	C	1.388733	-0.030558	0.885102
C199	C	0.722058	-0.642634	0.218415
C200	C	1.055391	-0.309300	0.551748
C201	C	1.388724	0.024033	0.885082
N202	N	0.755456	-0.615290	0.251880
N203	N	1.088789	-0.281957	0.585213
N204	N	1.422123	0.051376	0.918547
C205	C	0.788872	-0.642550	0.285353
C206	C	1.122205	-0.309217	0.618686
C207	C	1.455539	0.024116	0.952019
C208	C	0.722156	-0.975709	0.218474
C209	C	1.055489	-0.642376	0.551807
C210	C	1.388822	-0.309042	0.885140
C211	C	0.722176	-1.030311	0.218478
C212	C	1.055509	-0.696978	0.551812
C213	C	1.388842	-0.363645	0.885145
C214	C	0.788993	-1.030228	0.285418
C215	C	1.122326	-0.696895	0.618752
C216	C	1.455660	-0.363562	0.952085
C217	C	0.788975	-0.975625	0.285411
C218	C	1.122309	-0.642292	0.618744
C219	C	1.455642	-0.308958	0.952077
C220	C	0.755554	-0.948366	0.251939
C221	C	1.088887	-0.615032	0.585272
C222	C	1.422221	-0.281699	0.918605
C223	C	0.788838	-0.527885	0.285326
C224	C	1.122172	-0.194552	0.618659
C225	C	1.455505	0.138781	0.951992
C226	C	0.788822	-0.473280	0.285310
C227	C	1.122155	-0.139947	0.618643
C228	C	1.455489	0.193387	0.951976
C229	C	0.722003	-0.473368	0.218372
C230	C	1.055336	-0.140035	0.551705
C231	C	1.388670	0.193299	0.885039
C232	C	0.722021	-0.527968	0.218386
C233	C	1.055354	-0.194635	0.551719
C234	C	1.388688	0.138698	0.885052
C235	C	0.755440	-0.555226	0.251867
C236	C	1.088774	-0.221892	0.585200
C237	C	1.422107	0.111441	0.918533
O238	O	0.693664	-0.614386	0.189951
O239	O	1.026998	-0.281053	0.523285
O240	O	1.360331	0.052281	0.856618
O241	O	0.817269	-0.614272	0.313816
O242	O	1.150602	-0.280939	0.647149
O243	O	1.483936	0.052395	0.980482
C244	C	0.891837	-0.252092	0.251895
C245	C	1.225170	0.081241	0.585229
C246	C	1.558503	0.414575	0.918562
C247	C	0.949951	-0.252104	0.251903
C248	C	1.283284	0.081229	0.585236
C249	C	1.616617	0.414562	0.918569
C250	C	0.755458	-0.252076	0.388251
C251	C	1.088791	0.081257	0.721584
C252	C	1.422124	0.414590	1.054918
C253	C	0.755455	-0.252082	0.446365
C254	C	1.088788	0.081251	0.779698
C255	C	1.422122	0.414585	1.113032
C256	C	0.755552	-0.115690	0.251931
C257	C	1.088886	0.217643	0.585264
C258	C	1.422219	0.550976	0.918597
C259	C	0.755590	-0.057576	0.251953
C260	C	1.088923	0.275757	0.585286
C261	C	1.422257	0.609090	0.918620
C262	C	0.721996	-0.285501	0.697536
C263	C	1.055329	0.047832	1.030869
C264	C	1.388663	0.381166	1.364202
C265	C	0.721994	-0.285502	0.642931
C266	C	1.055327	0.047832	0.976265
C267	C	1.388660	0.381165	1.309598
O268	O	0.693526	-0.313918	0.614675
O269	O	1.026860	0.019415	0.948009
O270	O	1.360193	0.352748	1.281342
N271	N	0.755453	-0.252075	0.615639
N272	N	1.088787	0.081259	0.948972
N273	N	1.422120	0.414592	1.282306
C274	C	0.788914	-0.218641	0.642954
C275	C	1.122247	0.114692	0.976287
C276	C	1.455580	0.448026	1.309620
O277	O	0.817373	-0.190208	0.614725
O278	O	1.150707	0.143125	0.948059
O279	O	1.484040	0.476458	1.281392
C280	C	0.788913	-0.218638	0.697557
C281	C	1.122246	0.114695	1.030890
C282	C	1.455580	0.448029	1.364224
C283	C	0.755455	-0.252071	0.724847
C284	C	1.088788	0.081262	1.058180
C285	C	1.422122	0.414595	1.391513
C286	C	0.688540	-0.318931	0.724825
C287	C	1.021874	0.014402	1.058159
C288	C	1.355207	0.347736	1.391492
C289	C	0.688543	-0.318931	0.779426
C290	C	1.021877	0.014402	1.112759
C291	C	1.355210	0.347736	1.446093
C292	C	0.722002	-0.285501	0.806737
C293	C	1.055335	0.047832	1.140070
C294	C	1.388669	0.381166	1.473403
C295	C	0.755458	-0.252071	0.779447
C296	C	1.088791	0.081262	1.112781
C297	C	1.422125	0.414595	1.446114
C298	C	0.822370	-0.185202	0.724871
C299	C	1.155704	0.148131	1.058204
C300	C	1.489037	0.481464	1.391538
C301	C	0.822366	-0.185202	0.779478
C302	C	1.155700	0.148131	1.112811
C303	C	1.489033	0.481465	1.446145
C304	C	0.788908	-0.218635	0.806767
C305	C	1.122242	0.114698	1.140101
C306	C	1.455575	0.448032	1.473434
C307	C	0.788920	-0.218641	0.861359
C308	C	1.122253	0.114692	1.194692
C309	C	1.455587	0.448025	1.528025
N310	N	0.755460	-0.252068	0.888651
N311	N	1.088794	0.081265	1.221984
N312	N	1.422127	0.414598	1.555318
C313	C	0.722001	-0.285498	0.861340
C314	C	1.055335	0.047835	1.194673
C315	C	1.388668	0.381168	1.528007
C316	C	0.788912	-0.218649	0.528283
C317	C	1.122246	0.114685	0.861616
C318	C	1.455579	0.448018	1.194950
C319	C	0.788916	-0.218654	0.473681
C320	C	1.122249	0.114680	0.807014
C321	C	1.455583	0.448013	1.140347
C322	C	0.721995	-0.285514	0.473662
C323	C	1.055329	0.047819	0.806996
C324	C	1.388662	0.381153	1.140329
C325	C	0.721994	-0.285511	0.528266
C326	C	1.055328	0.047822	0.861599
C327	C	1.388661	0.381155	1.194932
C328	C	0.755453	-0.252076	0.555576
C329	C	1.088786	0.081257	0.888909
C330	C	1.422119	0.414591	1.222242
C331	C	0.722011	-0.285496	0.976005
C332	C	1.055344	0.047837	1.309339
C333	C	1.388677	0.381171	1.642672
C334	C	0.722018	-0.285495	1.030611
C335	C	1.055352	0.047839	1.363944
C336	C	1.388685	0.381172	1.697277
C337	C	0.788937	-0.218633	1.030624
C338	C	1.122270	0.114701	1.363958
C339	C	1.455603	0.448034	1.697291
C340	C	0.788931	-0.218636	0.976024
C341	C	1.122265	0.114697	1.309357
C342	C	1.455598	0.448031	1.642690
C343	C	0.755464	-0.252069	0.948716
C344	C	1.088797	0.081264	1.282049
C345	C	1.422131	0.414597	1.615382
O346	O	0.817371	-0.190238	0.889649
O347	O	1.150705	0.143096	1.222983
O348	O	1.484038	0.476429	1.556316
O349	O	0.693542	-0.313921	0.889575
O350	O	1.026875	0.019412	1.222908
O351	O	1.360208	0.352745	1.556242
C352	C	0.755468	-0.252064	1.116036
C353	C	1.088801	0.081269	1.449369
C354	C	1.422135	0.414603	1.782702
C355	C	0.755477	-0.252065	1.057922
C356	C	1.088810	0.081269	1.391255
C357	C	1.422144	0.414602	1.724588
H358	H	0.457347	-0.312616	0.191091
H359	H	0.790680	0.020717	0.524424
H360	H	1.124014	0.354050	0.857758
H361	H	0.054105	-0.191526	0.312689
H362	H	0.387438	0.141807	0.646023
H363	H	0.720771	0.475140	0.979356
H364	H	0.849616	-0.157978	0.702661
H365	H	1.182949	0.175356	1.035994
H366	H	1.516283	0.508689	1.369328
C367	C	0.825564	-0.443208	0.322125
C368	C	1.158897	-0.109875	0.655459
C369	C	1.492230	0.223458	0.988792
H370	H	0.845461	-0.467267	0.342066
H371	H	1.178795	-0.133934	0.675399
H372	H	1.512128	0.199400	1.008733
H373	H	0.848358	-0.421899	0.302147
H374	H	1.181691	-0.088566	0.635481
H375	H	1.515025	0.244768	0.968814
H376	H	0.805532	-0.421913	0.344885
H377	H	1.138866	-0.088580	0.678218
H378	H	1.472199	0.244753	1.011552
C379	C	0.859044	-0.694344	0.355647
C380	C	1.192378	-0.361010	0.688980
C381	C	1.525711	-0.027677	1.022313
H382	H	0.854256	-0.657918	0.350850
H383	H	1.187589	-0.324585	0.684184
H384	H	1.520923	0.008748	1.017517
H385	H	0.851362	-0.703287	0.390768
H386	H	1.184696	-0.369953	0.724102
H387	H	1.518029	-0.036620	1.057435
H388	H	0.894185	-0.703272	0.348027
H389	H	1.227518	-0.369939	0.681361
H390	H	1.560852	-0.036605	1.014694
H391	H	0.849532	-0.801204	0.346105
H392	H	1.182865	-0.467870	0.679438
H393	H	1.516198	-0.134537	1.012771
H394	H	-0.044945	-0.191533	0.312685
H395	H	0.288388	0.141800	0.646018
H396	H	0.621721	0.475133	0.979351
H397	H	0.849610	-0.157972	0.801711
H398	H	1.182944	0.175361	1.135044
H399	H	1.516277	0.508695	1.468377
C400	C	0.651732	-0.355701	0.809438
C401	C	0.985066	-0.022368	1.142771
C402	C	1.318399	0.310966	1.476104
H403	H	0.631804	-0.375604	0.785345
H404	H	0.965137	-0.042270	1.118679
H405	H	1.298470	0.291063	1.452012
H406	H	0.671710	-0.378490	0.830736
H407	H	1.005044	-0.045156	1.164070
H408	H	1.338377	0.288177	1.497403
H409	H	0.628962	-0.335690	0.830738
H410	H	0.962295	-0.002357	1.164072
H411	H	1.295628	0.330977	1.497405
H412	H	0.816176	-0.953367	0.312660
H413	H	1.149509	-0.620034	0.645993
H414	H	1.482842	-0.286701	0.979326
C415	C	0.825733	-0.181859	0.946004
C416	C	1.159066	0.151474	1.279337
C417	C	1.492399	0.484807	1.612671
H418	H	0.845657	-0.161947	0.970092
H419	H	1.178990	0.171386	1.303425
H420	H	1.512324	0.504719	1.636759
H421	H	0.848500	-0.201857	0.924693
H422	H	1.181833	0.131476	1.258026
H423	H	1.515167	0.464809	1.591359
H424	H	0.805737	-0.159072	0.924716
H425	H	1.139070	0.174262	1.258049
H426	H	1.472404	0.507595	1.591382
H427	H	0.661445	-0.702373	0.157715
H428	H	0.994778	-0.369040	0.491049
H429	H	1.328111	-0.035707	0.824382
C430	C	0.685435	-1.060382	0.181667
C431	C	1.018768	-0.727049	0.515000
C432	C	1.352102	-0.393716	0.848333
H433	H	0.690228	-1.096807	0.186461
H434	H	1.023562	-0.763474	0.519795
H435	H	1.356895	-0.430141	0.853128
H436	H	0.650298	-1.051452	0.189285
H437	H	0.983631	-0.718119	0.522618
H438	H	1.316964	-0.384785	0.855951
H439	H	0.693118	-1.051444	0.146541
H440	H	1.026451	-0.718110	0.479875
H441	H	1.359785	-0.384777	0.813208
C442	C	0.651736	-0.355711	0.694792
C443	C	0.985070	-0.022378	1.028125
C444	C	1.318403	0.310955	1.361458
H445	H	0.631818	-0.375620	0.718872
H446	H	0.965151	-0.042287	1.052205
H447	H	1.298484	0.291046	1.385539
H448	H	0.628964	-0.335716	0.673490
H449	H	0.962297	-0.002383	1.006824
H450	H	1.295630	0.330950	1.340157
H451	H	0.671727	-0.378502	0.673492
H452	H	1.005061	-0.045168	1.006825
H453	H	1.338394	0.288165	1.340158
C454	C	0.685187	-0.322283	0.558279
C455	C	1.018521	0.011050	0.891613
C456	C	1.351854	0.344383	1.224946
H457	H	0.665260	-0.342190	0.534189
H458	H	0.998594	-0.008856	0.867522
H459	H	1.331927	0.324477	1.200855
H460	H	0.705169	-0.345068	0.579579
H461	H	1.038502	-0.011735	0.912912
H462	H	1.371835	0.321598	1.246245
H463	H	0.662415	-0.302274	0.579580
H464	H	0.995748	0.031059	0.912913
H465	H	1.329081	0.364393	1.246246
C466	C	0.198451	-0.148595	0.355756
C467	C	0.531785	0.184739	0.689089
C468	C	0.865118	0.518072	1.022422
H469	H	0.222547	-0.128718	0.375707
H470	H	0.555880	0.204615	0.709040
H471	H	0.889213	0.537948	1.042374
H472	H	0.177153	-0.125780	0.335808
H473	H	0.510486	0.207554	0.669141
H474	H	0.843820	0.540887	1.002474
H475	H	0.177151	-0.168639	0.378503
H476	H	0.510484	0.164694	0.711836
H477	H	0.843817	0.498028	1.045170
H478	H	0.816048	-0.550072	0.312593
H479	H	1.149381	-0.216738	0.645926
H480	H	1.482715	0.116595	0.979259
H481	H	0.816201	-1.052433	0.312674
H482	H	1.149535	-0.719100	0.646008
H483	H	1.482868	-0.385767	0.979341
C484	C	0.685279	-0.558044	0.181576
C485	C	1.018612	-0.224711	0.514910
C486	C	1.351945	0.108623	0.848243
H487	H	0.665374	-0.533986	0.161642
H488	H	0.998707	-0.200653	0.494975
H489	H	1.332040	0.132680	0.828308
H490	H	0.705300	-0.579346	0.158819
H491	H	1.038633	-0.246013	0.492152
H492	H	1.371966	0.087320	0.825485
H493	H	0.662483	-0.579346	0.201566
H494	H	0.995817	-0.246013	0.534900
H495	H	1.329150	0.087321	0.868233
C496	C	0.685211	-0.322270	1.060626
C497	C	1.018544	0.011063	1.393960
C498	C	1.351877	0.344397	1.727293
H499	H	0.665280	-0.342175	1.036537
H500	H	0.998613	-0.008841	1.369871
H501	H	1.331947	0.324492	1.703204
H502	H	0.705194	-0.345057	1.081922
H503	H	1.038527	-0.011723	1.415255
H504	H	1.371861	0.321610	1.748589
H505	H	0.662441	-0.302261	1.081930
H506	H	0.995774	0.031072	1.415264
H507	H	1.329108	0.364406	1.748597
H508	H	0.694754	-0.312716	0.953777
H509	H	1.028087	0.020617	1.287111
H510	H	1.361420	0.353951	1.620444
H511	H	0.305293	-0.158120	0.346176
H512	H	0.638626	0.175213	0.679509
H513	H	0.971960	0.508546	1.012842
H514	H	0.661476	-0.801424	0.157726
H515	H	0.994809	-0.468090	0.491060
H516	H	1.328143	-0.134757	0.824393
H517	H	0.694942	-0.953517	0.191213
H518	H	1.028275	-0.620184	0.524546
H519	H	1.361608	-0.286851	0.857879
C520	C	0.449604	-0.181946	0.322237
C521	C	0.782938	0.151387	0.655570
C522	C	1.116271	0.484720	0.988903
H523	H	0.473698	-0.162067	0.342187
H524	H	0.807031	0.171266	0.675521
H525	H	1.140365	0.504600	1.008854
H526	H	0.428304	-0.159134	0.302288
H527	H	0.761637	0.174200	0.635621
H528	H	1.094970	0.507533	0.968955
H529	H	0.428306	-0.201991	0.344985
H530	H	0.761639	0.131342	0.678318
H531	H	1.094972	0.464675	1.011652
H532	H	0.694798	-0.451164	0.191117
H533	H	1.028131	-0.117831	0.524451
H534	H	1.361464	0.215502	0.857784
H535	H	0.816180	-0.191417	1.052871
H536	H	1.149513	0.141917	1.386204
H537	H	1.482847	0.475250	1.719537
H538	H	0.694750	-0.312734	0.451416
H539	H	1.028084	0.020600	0.784749
H540	H	1.361417	0.353933	1.118082
H541	H	0.206146	-0.346039	0.157623
H542	H	0.539480	-0.012706	0.490956
H543	H	0.872813	0.320627	0.824290
H544	H	0.556466	-0.191471	0.312649
H545	H	0.889800	0.141863	0.645982
H546	H	1.223133	0.475196	0.979316
C547	C	0.825723	-0.181880	0.443668
C548	C	1.159056	0.151453	0.777001
C549	C	1.492389	0.484786	1.110335
H550	H	0.845645	-0.161970	0.467759
H551	H	1.178979	0.171363	0.801092
H552	H	1.512312	0.504697	1.134425
H553	H	0.848491	-0.201882	0.422361
H554	H	1.181825	0.131451	0.755695
H555	H	1.515158	0.464785	1.089028
H556	H	0.805734	-0.159091	0.422375
H557	H	1.139067	0.174242	0.755709
H558	H	1.472400	0.507575	1.089042
H559	H	0.556396	-0.312596	0.191077
H560	H	0.889730	0.020737	0.524410
H561	H	1.223063	0.354071	0.857744
C562	C	0.312992	-0.355567	0.148039
C563	C	0.646325	-0.022233	0.481373
C564	C	0.979658	0.311100	0.814706
H565	H	0.288895	-0.375451	0.128097
H566	H	0.622229	-0.042118	0.461431
H567	H	0.955562	0.291215	0.794764
H568	H	0.334297	-0.335534	0.125291
H569	H	0.667630	-0.002201	0.458624
H570	H	1.000963	0.331133	0.791957
H571	H	0.334285	-0.378382	0.167998
H572	H	0.667619	-0.045048	0.501331
H573	H	1.000952	0.288285	0.834664
H574	H	0.054059	-0.312656	0.191111
H575	H	0.387392	0.020677	0.524445
H576	H	0.720726	0.354010	0.857778
H577	H	-0.045008	-0.312664	0.191121
H578	H	0.288325	0.020669	0.524454
H579	H	0.621658	0.354002	0.857788
C580	C	0.825726	-0.181875	0.558320
C581	C	1.159059	0.151458	0.891653
C582	C	1.492393	0.484792	1.224986
H583	H	0.845655	-0.161973	0.534241
H584	H	1.178988	0.171360	0.867575
H585	H	1.512321	0.504693	1.200908
H586	H	0.805747	-0.159085	0.579626
H587	H	1.139080	0.174248	0.912959
H588	H	1.472413	0.507581	1.246293
H589	H	0.848497	-0.201884	0.579615
H590	H	1.181830	0.131450	0.912948
H591	H	1.515164	0.464783	1.246281
