data_functionalizedCrystal
_audit_creation_method	'MofGen! by Chris Wilmer'
_symmetry_space_group_name_H-M	'P1'
_symmetry_Int_Tables_number	1
_symmetry_cell_setting	triclinic
loop_
_symmetry_equiv_pos_as_xyz
  x,y,z
_cell_length_a	14.560438
_cell_length_b	14.809374
_cell_length_c	14.809384
_cell_angle_alpha	119.201816
_cell_angle_beta	89.998451
_cell_angle_gamma	67.427478
loop_
_atom_site_label
_atom_site_type_symbol
_atom_site_fract_x
_atom_site_fract_y
_atom_site_fract_z
Zr1	Zr	1.014447	0.955220	0.203660
O2	O	0.901943	1.113138	0.350820
O3	O	1.033008	0.777454	0.145583
O4	O	1.070575	0.926601	0.332122
O5	O	0.852859	0.993487	0.031884
O6	O	1.221714	0.926604	0.332120
O7	O	0.864375	0.963991	0.164281
O8	O	1.154512	0.659807	-0.001564
O9	O	0.920061	1.260284	0.365568
O10	O	1.172960	0.857925	0.136476
O11	O	1.051573	0.879936	0.037671
O12	O	1.095804	1.055537	0.257296
O13	O	0.974417	1.077548	0.158491
Zr14	Zr	1.237129	1.002268	-0.007502
Zr15	Zr	1.255495	0.955225	0.203657
Zr16	Zr	0.996080	1.002263	-0.007499
Zr17	Zr	1.043343	1.189901	0.227181
Zr18	Zr	1.208232	0.767587	-0.031022
O19	O	1.218568	1.180034	0.050575
O20	O	1.244682	1.113145	0.350816
O21	O	0.875828	1.180027	0.050580
O22	O	1.349633	0.844350	-0.154662
O23	O	1.375747	0.777461	0.145579
O24	O	1.006893	0.844343	-0.154657
O25	O	1.398716	0.964001	0.164275
O26	O	1.181000	1.030887	-0.135963
O27	O	1.029862	1.030884	-0.135962
O28	O	1.387200	0.993497	0.031877
O29	O	1.111662	1.260288	0.365565
O30	O	1.139913	0.697200	-0.169407
O31	O	1.331514	0.697204	-0.169409
O32	O	1.346113	0.659811	-0.001566
O33	O	0.905462	1.297677	0.197725
O34	O	1.097063	1.297681	0.197722
O35	O	1.155772	0.901951	-0.061138
O36	O	1.277159	0.879940	0.037668
O37	O	1.200003	1.077552	0.158488
O38	O	1.078616	1.099563	0.059682
C39	C	1.089643	0.685194	0.068658
C40	C	1.077376	0.585565	0.058673
C41	C	1.132123	0.530229	0.103236
C42	C	1.119445	0.427258	0.092917
C43	C	0.824273	0.978738	0.098083
C44	C	0.721942	0.978736	0.098084
C45	C	0.714138	0.875587	0.035018
C46	C	0.617983	0.875595	0.035010
C47	C	0.537441	1.081910	0.161143
C48	C	0.633594	1.081902	0.161145
C49	C	0.802486	0.772421	-0.028043
C50	C	0.794686	0.669263	-0.091113
C51	C	0.698531	0.669271	-0.091122
C52	C	0.610176	0.772437	-0.028059
C53	C	1.427302	0.978750	0.098075
C54	C	1.529634	0.978752	0.098074
C55	C	1.148761	0.919900	0.362206
C56	C	1.156558	0.899929	0.451849
C57	C	1.161933	1.272294	0.127500
C58	C	1.174200	1.371923	0.137485
C59	C	1.121760	0.989054	0.551749
C60	C	1.129818	0.968416	0.644401
C61	C	1.102813	1.037586	0.833951
C62	C	1.095015	1.057553	0.744306
C63	C	1.391157	0.685200	0.068655
C64	C	1.481222	0.585573	0.058668
C65	C	1.066669	0.744037	-0.195469
C66	C	1.046605	0.664380	-0.295096
C67	C	1.368184	0.744043	-0.195473
C68	C	1.450451	0.664388	-0.295101
C69	C	0.883392	1.213445	0.391631
C70	C	0.801125	1.293100	0.491260
C71	C	0.860418	1.272288	0.127504
C72	C	0.770354	1.371915	0.137490
C73	C	1.184906	1.213451	0.391627
C74	C	1.204970	1.293108	0.491255
C75	C	1.469127	0.527294	0.105564
C76	C	1.553746	0.433693	0.096202
C77	C	1.650457	0.398368	0.039937
C78	C	1.662551	0.456657	-0.006960
C79	C	1.577934	0.550261	0.002409
C80	C	1.091572	0.638466	-0.393468
C81	C	1.072716	0.563634	-0.487086
C82	C	1.008899	0.514712	-0.482330
C83	C	0.963926	0.540633	-0.383947
C84	C	0.982776	0.615470	-0.290331
C85	C	1.552457	0.615492	-0.290313
C86	C	1.629767	0.540659	-0.383915
C87	C	1.605068	0.514716	-0.482306
C88	C	1.503052	0.563621	-0.487092
C89	C	1.425745	0.638460	-0.393490
C90	C	0.699120	1.342007	0.486472
C91	C	0.621813	1.416870	0.580078
C92	C	0.646513	1.442817	0.678469
C93	C	0.748528	1.393906	0.683254
C94	C	0.825834	1.319051	0.589650
C95	C	0.782451	1.430202	0.090604
C96	C	0.697837	1.523823	0.099992
C97	C	0.601126	1.559151	0.156260
C98	C	0.589032	1.500859	0.203153
C99	C	0.673646	1.407244	0.193770
C100	C	1.268793	1.342008	0.486464
C101	C	1.287666	1.416843	0.580065
C102	C	1.242708	1.442784	0.678457
C103	C	1.178882	1.393876	0.683245
C104	C	1.160017	1.319035	0.589644
H105	H	1.021121	0.556706	0.012880
C106	C	0.908262	0.772403	-0.028040
N107	N	0.987932	0.772390	-0.028037
C108	C	0.893733	0.486801	-0.378734
N109	N	0.840868	0.446247	-0.374811
H110	H	1.482956	0.542488	-0.567214
C111	C	1.122208	0.535124	-0.595297
N112	N	1.159489	0.513649	-0.676799
H113	H	1.719349	0.322147	0.032315
C114	C	0.891875	0.555787	-0.160478
N115	N	0.965078	0.470313	-0.212723
C116	C	0.711162	1.587921	0.048393
N117	N	0.721200	1.636194	0.009525
H118	H	0.532236	1.635380	0.163892
H119	H	1.142282	1.415009	0.763368
H120	H	1.086008	1.080637	0.568685
C121	C	1.178128	0.844681	0.621507
N122	N	1.214512	0.751486	0.604266
C123	C	1.768941	0.417777	-0.068858
N124	N	1.849075	0.388484	-0.115487
C125	C	1.208106	0.569227	0.165121
N126	N	1.265331	0.598607	0.211745
H127	H	0.993558	0.453777	-0.558566
H128	H	1.108043	1.279228	0.593559
C129	C	0.504404	0.772440	-0.028075
N130	N	0.424739	0.772440	-0.028084
C131	C	1.046700	1.181289	0.767202
N132	N	1.010308	1.274485	0.784446
H133	H	0.510279	1.529637	0.248966
C134	C	1.204866	0.776201	0.428963
N135	N	1.241250	0.683006	0.411722
C136	C	0.660319	1.343125	0.245339
N137	N	0.650273	1.294834	0.284183
H138	H	1.063187	0.398403	0.047120
H139	H	1.305407	1.320900	0.406358
H140	H	0.465497	1.165902	0.212488
H141	H	1.712828	0.500846	-0.380000
C142	C	1.540418	0.369583	0.147785
N143	N	1.530376	0.321295	0.186634
C144	C	0.933314	0.643952	-0.182126
N145	N	0.896057	0.665399	-0.100628
C146	C	1.591253	0.614350	-0.049197
N147	N	1.601292	0.662616	-0.088072
H148	H	1.572587	0.636601	-0.210207
C149	C	1.690120	0.432381	-0.585263
N150	N	1.754184	0.370359	-0.662807
H151	H	1.342687	0.678262	-0.397404
C152	C	0.561461	1.525151	0.781426
N153	N	0.497395	1.587161	0.858969
C154	C	1.250211	0.410893	0.199347
N155	N	1.307461	0.440245	0.245941
C156	C	0.509603	1.470657	0.574790
N157	N	0.425088	1.511168	0.570804
H158	H	0.692184	0.585276	-0.142484
C159	C	0.938038	1.265245	0.594933
N160	N	1.022550	1.224718	0.598919
C161	C	0.888827	1.391366	0.028708
N162	N	0.968949	1.362126	-0.017908
H163	H	0.639943	1.165899	0.212480
C164	C	1.263470	1.525116	0.781412
N165	N	1.279109	1.587131	0.858955
H166	H	1.390389	0.556051	0.151393
H167	H	1.143537	0.678292	-0.397361
H168	H	0.678988	1.320886	0.406366
H169	H	0.768628	1.415042	0.763375
H170	H	1.339635	1.456659	0.576147
