data_functionalizedCrystal
_audit_creation_method	'MofGen! by Chris Wilmer'
_symmetry_space_group_name_H-M	'P1'
_symmetry_Int_Tables_number	1
_symmetry_cell_setting	triclinic
loop_
_symmetry_equiv_pos_as_xyz
  x,y,z
_cell_length_a	10.654559
_cell_length_b	15.995350
_cell_length_c	9.730223
_cell_angle_alpha	90.000899
_cell_angle_beta	89.999563
_cell_angle_gamma	83.990529
loop_
_atom_site_label
_atom_site_type_symbol
_atom_site_fract_x
_atom_site_fract_y
_atom_site_fract_z
O1	O	1.666290	0.117636	-0.114290
O2	O	1.300667	0.128832	-0.114290
O3	O	1.493473	0.001404	-0.114289
O4	O	1.473484	0.245063	-0.114291
O5	O	1.493471	0.001408	0.114291
O6	O	1.300665	0.128835	0.114290
O7	O	1.666288	0.117639	0.114290
Zn8	Zn	1.483476	0.123237	0.150582
Zn9	Zn	1.483479	0.123233	-0.150582
O10	O	1.473482	0.245066	0.114289
C11	C	1.253879	0.128010	-0.000000
C12	C	1.114469	0.125545	-0.000001
C13	C	1.063939	0.048202	0.000003
C14	C	0.932947	0.045891	-0.000007
C15	C	0.903024	0.198275	-0.000020
C16	C	1.034014	0.200585	-0.000020
C17	C	1.144394	-0.026837	0.000022
C18	C	1.093865	-0.104187	0.000028
C19	C	0.962873	-0.106498	0.000018
C20	C	0.882410	-0.031458	0.000002
C21	C	1.492646	-0.029794	-0.000002
C22	C	1.490168	-0.122758	-0.000009
C23	C	1.481271	-0.460558	-0.000005
C24	C	1.343958	-0.413924	-0.000517
C25	C	1.346436	-0.317219	-0.000002
C26	C	1.485684	-0.292971	-0.000008
C27	C	1.553411	-0.333652	0.130520
C28	C	1.549961	-0.430308	0.130630
C29	C	1.552800	-0.430653	-0.129309
C30	C	1.552768	-0.333708	-0.131034
C31	C	1.488186	-0.198259	-0.000005
C32	C	1.478774	-0.555270	0.000002
C33	C	1.713076	0.118461	-0.000003
C34	C	1.852487	0.120925	-0.000012
C35	C	1.474310	0.276264	-0.000002
C36	C	1.476787	0.369229	-0.000003
N37	N	1.483483	0.123240	0.356118
N38	N	1.483482	0.123224	-0.356119
C39	C	1.568880	0.066834	0.428045
C40	C	1.568876	0.066824	0.571928
C41	C	1.398077	0.179633	0.571945
C42	C	1.398075	0.179638	0.428064
C43	C	1.654288	0.010436	0.356099
C44	C	1.739692	-0.045973	0.428025
C45	C	1.739689	-0.045984	0.571908
C46	C	1.654282	0.010416	0.643865
H47	H	1.075155	0.263565	-0.000011
H48	H	1.654301	0.010441	0.238942
N49	N	1.285676	-0.024348	0.000020
H50	H	1.305479	0.036036	0.000013
H51	H	1.323005	-0.053740	0.084766
H52	H	1.654041	-0.461824	-0.130190
H53	H	0.775748	-0.033346	-0.000019
N54	N	1.180641	-0.185119	0.000031
H55	H	1.271291	-0.171921	0.000040
H56	H	1.164270	-0.218791	0.084769
H57	H	1.809222	-0.091897	0.369431
N58	N	1.275917	-0.279975	-0.123936
H59	H	1.242937	-0.326375	-0.179395
H60	H	1.202891	-0.239044	-0.092650
N61	N	1.831807	-0.106814	0.649491
H62	H	1.885915	-0.142534	0.582076
H63	H	1.887306	-0.074399	0.709182
N64	N	1.493336	-0.458204	-0.260359
H65	H	1.540683	-0.438359	-0.342017
H66	H	1.497107	-0.521550	-0.262060
N67	N	1.271246	-0.438894	-0.124498
H68	H	1.326603	-0.480680	-0.181539
H69	H	1.194042	-0.465282	-0.093232
H70	H	0.921737	-0.169480	0.000009
H71	H	1.503251	-0.306750	-0.227595
H72	H	1.654278	0.010397	0.761024
N73	N	0.816227	0.279197	0.000001
H74	H	0.832485	0.312903	0.084742
H75	H	0.832501	0.312853	-0.084784
H76	H	1.500573	-0.448896	0.228205
N77	N	1.688937	-0.314185	0.136930
H78	H	1.707778	-0.278719	0.055092
H79	H	1.702915	-0.282454	0.224402
H80	H	1.506370	-0.305544	0.227658
H81	H	1.328542	0.225551	0.630541
H82	H	1.650774	-0.461969	0.136548
N83	N	1.271571	-0.440290	0.122777
H84	H	1.327338	-0.482311	0.178963
H85	H	1.244188	-0.389339	0.180960
N86	N	1.275461	-0.280716	0.124160
H87	H	1.276776	-0.217673	0.125011
H88	H	1.185249	-0.294654	0.120075
N89	N	1.687280	-0.312583	-0.141489
H90	H	1.706728	-0.276146	-0.061077
H91	H	1.746516	-0.366176	-0.140371
N92	N	1.305968	0.240471	0.350474
H93	H	1.251868	0.276202	0.417881
H94	H	1.354037	0.277789	0.290778
