data_functionalizedCrystal
_audit_creation_method	'MofGen! by Chris Wilmer'
_symmetry_space_group_name_H-M	'P1'
_symmetry_Int_Tables_number	1
_symmetry_cell_setting	triclinic
loop_
_symmetry_equiv_pos_as_xyz
  x,y,z
_cell_length_a	25.639243
_cell_length_b	21.295416
_cell_length_c	21.295411
_cell_angle_alpha	89.980829
_cell_angle_beta	90.027104
_cell_angle_gamma	89.966945
loop_
_atom_site_label
_atom_site_type_symbol
_atom_site_fract_x
_atom_site_fract_y
_atom_site_fract_z
Zn1	Zn	0.799313	0.250635	0.355965
Zn2	Zn	1.299313	0.750635	0.855965
Zn3	Zn	0.799232	0.355887	0.250695
Zn4	Zn	1.299232	0.855887	0.750695
Zn5	Zn	0.711872	0.250641	0.250705
Zn6	Zn	1.211872	0.750641	0.750705
Zn7	Zn	0.711847	0.355875	0.355922
Zn8	Zn	1.211847	0.855875	0.855922
O9	O	0.755566	0.303260	0.303322
O10	O	1.255566	0.803260	0.803322
O11	O	0.872467	0.264600	0.342014
O12	O	1.372467	0.764600	0.842014
O13	O	0.787620	0.341933	0.162607
O14	O	1.287620	0.841933	0.662607
O15	O	0.723516	0.162551	0.264691
O16	O	1.223516	0.662551	0.764691
O17	O	0.872408	0.341928	0.264673
O18	O	1.372408	0.841928	0.764673
O19	O	0.787758	0.162546	0.342024
O20	O	1.287758	0.662546	0.842024
O21	O	0.723437	0.264609	0.162615
O22	O	1.223437	0.764609	0.662615
O23	O	0.638704	0.264598	0.264649
O24	O	1.138704	0.764598	0.764649
O25	O	0.723473	0.341908	0.444017
O26	O	1.223473	0.841908	0.944017
O27	O	0.638685	0.341913	0.341951
O28	O	1.138685	0.841913	0.841951
O29	O	0.787734	0.264588	0.444049
O30	O	1.287734	0.764588	0.944049
O31	O	0.787596	0.443975	0.264631
O32	O	1.287596	0.943975	0.764631
O33	O	0.723395	0.443966	0.341941
O34	O	1.223395	0.943966	0.841941
C35	C	0.619724	0.303255	0.303297
C36	C	1.119724	0.803255	0.803297
C37	C	0.561609	0.303269	0.303301
C38	C	1.061609	0.803269	0.803301
C39	C	0.755498	0.466811	0.303294
C40	C	1.255498	0.966811	0.803294
C41	C	0.755517	0.536779	0.303303
C42	C	1.255517	1.036779	0.803303
C43	C	0.788976	0.569629	0.263091
C44	C	1.288976	1.069629	0.763091
C45	C	0.789001	0.635372	0.263108
C46	C	1.289001	1.135372	0.763108
C47	C	0.755557	0.668262	0.303331
C48	C	1.255557	1.168262	0.803331
C49	C	0.722095	0.635404	0.343551
C50	C	1.222095	1.135404	0.843551
C51	C	0.722075	0.569662	0.343537
C52	C	1.222075	1.069662	0.843537
N53	N	0.709819	0.771531	0.308125
N54	N	1.209819	1.271531	0.808125
N55	N	0.709840	0.833982	0.308135
N56	N	1.209840	1.333982	0.808135
C57	C	0.755616	0.866336	0.303375
C58	C	1.255616	1.366336	0.803375
N59	N	0.801371	0.833880	0.298594
N60	N	1.301371	1.333880	0.798594
N61	N	0.801350	0.771423	0.298581
N62	N	1.301350	1.271423	0.798581
C63	C	0.755575	0.739547	0.303350
C64	C	1.255575	1.239547	0.803350
C65	C	0.789105	0.970472	0.263179
C66	C	1.289105	1.470472	0.763179
C67	C	0.789130	1.036216	0.263200
C68	C	1.289130	1.536216	0.763200
C69	C	0.722220	1.036246	0.343640
C70	C	1.222220	1.536246	0.843640
C71	C	0.722199	0.970504	0.343622
C72	C	1.222199	1.470504	0.843622
C73	C	0.755641	0.937621	0.303388
C74	C	1.255641	1.437621	0.803388
C75	C	0.201272	0.263058	0.343661
C76	C	0.701272	0.763058	0.843661
C77	C	0.146667	0.263058	0.343665
C78	C	0.646667	0.763058	0.843665
O79	O	0.118452	0.228857	0.377949
O80	O	0.618452	0.728857	0.877949
N81	N	0.119327	0.303258	0.303339
N82	N	0.619327	0.803258	0.803339
C83	C	0.146594	0.343457	0.263003
C84	C	0.646594	0.843457	0.763003
O85	O	0.118325	0.377649	0.228703
O86	O	0.618325	0.877649	0.728703
C87	C	0.201197	0.343453	0.262996
C88	C	0.701197	0.843453	0.762996
C89	C	0.228535	0.303255	0.303329
C90	C	0.728535	0.803255	0.803329
C91	C	0.228609	0.222863	0.383989
C92	C	0.728609	0.722863	0.883989
C93	C	0.283210	0.222864	0.383986
C94	C	0.783210	0.722864	0.883986
C95	C	0.310473	0.263061	0.343654
C96	C	0.810473	0.763061	0.843654
C97	C	0.283135	0.303257	0.303325
C98	C	0.783135	0.803257	0.803325
C99	C	0.228463	0.383649	0.222657
C100	C	0.728463	0.883649	0.722657
C101	C	0.283070	0.383642	0.222653
C102	C	0.783070	0.883642	0.722653
C103	C	0.310407	0.343443	0.262986
C104	C	0.810407	0.843443	0.762986
C105	C	0.364999	0.343455	0.262990
C106	C	0.864999	0.843455	0.762990
N107	N	0.392339	0.303255	0.303316
N108	N	0.892339	0.803255	0.803316
C109	C	0.365076	0.263058	0.343648
C110	C	0.865076	0.763058	0.843648
C111	C	0.031923	0.343459	0.263019
C112	C	0.531923	0.843459	0.763019
C113	C	-0.022679	0.343466	0.263028
C114	C	0.477321	0.843466	0.763028
C115	C	-0.022602	0.263066	0.343689
C116	C	0.477398	0.763066	0.843689
C117	C	0.032002	0.263063	0.343683
C118	C	0.532002	0.763063	0.843683
C119	C	0.059264	0.303259	0.303344
C120	C	0.559264	0.803259	0.803344
C121	C	0.479741	0.263065	0.343638
C122	C	0.979741	0.763065	0.843638
C123	C	0.534347	0.263072	0.343633
C124	C	1.034347	0.763072	0.843633
C125	C	0.534264	0.343469	0.262970
C126	C	1.034264	0.843469	0.762970
C127	C	0.479664	0.343465	0.262977
C128	C	0.979664	0.843465	0.762977
C129	C	0.452404	0.303257	0.303313
C130	C	0.952404	0.803257	0.803313
O131	O	0.393249	0.377636	0.228722
O132	O	0.893249	0.877636	0.728722
O133	O	0.393352	0.228865	0.377936
O134	O	0.893352	0.728865	0.877936
C135	C	0.891939	0.303264	0.303347
C136	C	1.391939	0.803264	0.803347
C137	C	0.950053	0.303266	0.303358
C138	C	1.450053	0.803266	0.803358
C139	C	0.755609	0.303246	0.467512
C140	C	1.255609	0.803246	0.967512
C141	C	0.755628	0.303241	0.537480
C142	C	1.255628	0.803241	1.037480
C143	C	0.755649	1.139069	0.303374
C144	C	1.255649	1.639069	0.803374
C145	C	0.755687	1.069101	0.303424
C146	C	1.255687	1.569101	0.803424
C147	C	0.755553	0.303227	0.139770
C148	C	1.255553	0.803227	0.639770
C149	C	0.755636	0.303056	0.069802
C150	C	1.255636	0.803056	0.569802
C151	C	0.789087	0.262978	0.570364
C152	C	1.289087	0.762978	1.070364
C153	C	0.789086	0.262951	0.636107
C154	C	1.289086	0.762951	1.136107
C155	C	0.755632	0.303197	0.668963
C156	C	1.255632	0.803197	1.168963
C157	C	0.722166	0.343462	0.636071
C158	C	1.222166	0.843462	1.136071
C159	C	0.722164	0.343484	0.570329
C160	C	1.222164	0.843484	1.070329
N161	N	0.751598	0.358265	0.772180
N162	N	1.251598	0.858265	1.272180
N163	N	0.751603	0.358243	0.834632
N164	N	1.251603	0.858243	1.334632
C165	C	0.755635	0.303133	0.867038
C166	C	1.255635	0.803133	1.367038
N167	N	0.759672	0.248046	0.834633
N168	N	1.259672	0.748046	1.334633
N169	N	0.759670	0.248069	0.772175
N170	N	1.259670	0.748069	1.272175
C171	C	0.755630	0.303178	0.740248
C172	C	1.255630	0.803178	1.240248
C173	C	0.789096	0.262838	0.971207
C174	C	1.289096	0.762838	1.471207
C175	C	0.789091	0.262810	1.036951
C176	C	1.289091	0.762810	1.536951
C177	C	0.722174	0.343327	1.036914
C178	C	1.222174	0.843327	1.536914
C179	C	0.722175	0.343349	0.971171
C180	C	1.222175	0.843349	1.471171
C181	C	0.755639	0.303106	0.938322
C182	C	1.255639	0.803106	1.438322
H183	H	0.816208	0.542858	0.230331
H184	H	1.316208	1.042858	0.730331
C185	C	0.564415	0.218846	0.388001
C186	C	1.064415	0.718846	0.888001
N187	N	0.587060	0.185533	0.421416
N188	N	1.087060	0.685533	0.921416
H189	H	0.054116	0.376197	0.230172
H190	H	0.554116	0.876197	0.730172
H191	H	0.694828	0.542915	0.376284
H192	H	1.194828	1.042915	0.876284
C193	C	-0.052744	0.387690	0.218662
C194	C	0.447256	0.887690	0.718662
N195	N	-0.075388	0.420998	0.185241
N196	N	0.424612	0.920998	0.685241
H197	H	0.816249	0.662124	0.230362
H198	H	1.316249	1.162124	0.730362
C199	C	0.825899	0.934298	0.218930
C200	C	1.325899	1.434298	0.718930
N201	N	0.853614	0.907054	0.185604
N202	N	1.353614	1.407054	0.685604
C203	C	0.825940	1.072351	0.218960
C204	C	1.325940	1.572351	0.718960
N205	N	0.853665	1.099568	0.185637
N206	N	1.353665	1.599568	0.685637
C207	C	0.685374	0.387599	1.073051
C208	C	1.185374	0.887599	1.573051
N209	N	0.657655	0.420945	1.100274
N210	N	1.157655	0.920945	1.600274
H211	H	0.694991	1.063025	0.376393
H212	H	1.194991	1.563025	0.876393
H213	H	0.694951	0.943755	0.376364
H214	H	1.194951	1.443755	0.876364
C215	C	0.825899	0.218662	0.672287
C216	C	1.325899	0.718662	1.172287
N217	N	0.853627	0.185305	0.699536
N218	N	1.353627	0.685305	1.199536
H219	H	0.694926	0.376229	0.662826
H220	H	1.194926	0.876229	1.162826
C221	C	0.685356	0.387779	0.534156
C222	C	1.185356	0.887779	1.034156
N223	N	0.657633	0.421143	0.506909
N224	N	1.157633	0.921143	1.006909
H225	H	0.054256	0.230329	0.376524
H226	H	0.554256	0.730329	0.876524
C227	C	-0.052601	0.218844	0.388052
C228	C	0.447399	0.718844	0.888052
N229	N	-0.075199	0.185538	0.421463
N230	N	0.424801	0.685538	0.921463
C231	C	0.449763	0.218838	0.388014
C232	C	0.949763	0.718838	0.888014
N233	N	0.427184	0.185530	0.421441
N234	N	0.927184	0.685530	0.921441
C235	C	0.313274	0.178634	0.428347
C236	C	0.813274	0.678634	0.928347
N237	N	0.335915	0.145314	0.461759
N238	N	0.835915	0.645314	0.961759
H239	H	0.816341	0.230066	0.944460
H240	H	1.316341	0.730066	1.444460
H241	H	0.816337	0.230020	1.063724
H242	H	1.316337	0.730020	1.563724
C243	C	0.198404	0.427862	0.178279
C244	C	0.698404	0.927862	0.678279
N245	N	0.175764	0.461163	0.144847
N246	N	0.675764	0.961163	0.644847
C247	C	0.313055	0.427864	0.178278
C248	C	0.813055	0.927864	0.678278
N249	N	0.335638	0.461173	0.144857
N250	N	0.835638	0.961173	0.644857
C251	C	0.685369	0.387644	0.934997
C252	C	1.185369	0.887644	1.434997
N253	N	0.657644	0.421008	0.907751
N254	N	1.157644	0.921008	1.407751
H255	H	0.694865	0.662187	0.376302
H256	H	1.194865	1.162187	0.876302
C257	C	0.449592	0.387690	0.218615
C258	C	0.949592	0.887690	0.718615
N259	N	0.426945	0.420998	0.185196
N260	N	0.926945	0.920998	0.685196
H261	H	0.206418	0.190126	0.416833
H262	H	0.706418	0.690126	0.916833
H263	H	0.556472	0.376198	0.230134
H264	H	1.056472	0.876198	0.730134
H265	H	0.816335	0.230208	0.543623
H266	H	1.316335	0.730208	1.043623
