data_functionalizedCrystal
_audit_creation_method	'MofGen! by Chris Wilmer'
_symmetry_space_group_name_H-M	'P1'
_symmetry_Int_Tables_number	1
_symmetry_cell_setting	triclinic
loop_
_symmetry_equiv_pos_as_xyz
  x,y,z
_cell_length_a	15.944557
_cell_length_b	18.266242
_cell_length_c	15.944551
_cell_angle_alpha	90.006078
_cell_angle_beta	96.499947
_cell_angle_gamma	89.992907
loop_
_atom_site_label
_atom_site_type_symbol
_atom_site_fract_x
_atom_site_fract_y
_atom_site_fract_z
O1	O	-1.114526	0.060851	0.108358
O2	O	-0.614526	0.560851	0.608358
O3	O	-0.869977	0.060860	0.121708
O4	O	-0.369977	0.560860	0.621708
O5	O	-0.998930	0.060848	-0.007242
O6	O	-0.498930	0.560848	0.492758
O7	O	-0.985574	0.060862	0.237308
O8	O	-0.485574	0.560862	0.737308
O9	O	-0.998908	-0.060913	-0.007245
O10	O	-0.498908	0.439087	0.492755
O11	O	-0.869955	-0.060902	0.121705
O12	O	-0.369955	0.439098	0.621705
O13	O	-1.114504	-0.060911	0.108354
O14	O	-0.614504	0.439089	0.608354
Zn15	Zn	-0.992226	-0.080239	0.115029
Zn16	Zn	-0.492226	0.419761	0.615029
Zn17	Zn	-0.992255	0.080188	0.115034
Zn18	Zn	-0.492255	0.580188	0.615034
O19	O	-0.985552	-0.060900	0.237304
O20	O	-0.485552	0.439100	0.737304
C21	C	-0.838672	-0.000020	0.121151
C22	C	-0.338672	0.499980	0.621151
C23	C	-0.745427	-0.000017	0.119487
C24	C	-0.245427	0.499983	0.619487
N25	N	-0.992213	-0.189726	0.115025
N26	N	-0.492213	0.310274	0.615025
C27	C	-0.474796	-0.000034	0.034581
C28	C	0.025204	0.499966	0.534581
C29	C	-0.525366	-0.060067	0.075510
C30	C	-0.025366	0.439933	0.575510
C31	C	-0.409785	-0.000035	0.113551
C32	C	0.090215	0.499965	0.613551
C33	C	-0.525368	0.059980	0.075535
C34	C	-0.025368	0.559980	0.575535
C35	C	-0.574697	-0.000025	0.116463
C36	C	-0.074697	0.499975	0.616463
C37	C	-0.459127	-0.060118	0.154459
C38	C	0.040873	0.439882	0.654459
C39	C	-0.459126	0.059983	0.154472
C40	C	0.040874	0.559983	0.654472
C41	C	-0.509664	-0.000065	0.195460
C42	C	-0.009664	0.499935	0.695460
C43	C	-0.314783	-0.000041	0.111871
C44	C	0.185217	0.499959	0.611871
C45	C	-0.669696	-0.000024	0.118149
C46	C	-0.169696	0.499976	0.618149
C47	C	-1.043150	-0.228028	0.166007
C48	C	-0.543150	0.271972	0.666007
C49	C	-1.043164	-0.304672	0.166005
C50	C	-0.543164	0.195328	0.666005
C51	C	-0.992225	-0.343013	0.115030
C52	C	-0.492225	0.156987	0.615030
C53	C	-0.941284	-0.304702	0.064037
C54	C	-0.441284	0.195298	0.564037
C55	C	-0.941278	-0.228059	0.064035
C56	C	-0.441278	0.271941	0.564035
N57	N	-0.918655	-0.463363	0.112730
N58	N	-0.418655	0.036637	0.612730
N59	N	-0.918663	-0.536171	0.112737
N60	N	-0.418663	-0.036171	0.612737
C61	C	-0.992242	-0.573935	0.115033
C62	C	-0.492242	-0.073935	0.615033
N63	N	-1.065813	-0.536141	0.117338
N64	N	-0.565813	-0.036141	0.617338
N65	N	-1.065804	-0.463326	0.117335
N66	N	-0.565804	0.036674	0.617335
C67	C	-0.992226	-0.426120	0.115027
C68	C	-0.492226	0.073880	0.615027
C69	C	-1.043199	-0.695344	0.166016
C70	C	-0.543199	-0.195344	0.666016
C71	C	-1.043214	-0.771990	0.166007
C72	C	-0.543214	-0.271990	0.666007
C73	C	-0.941326	-0.772018	0.064044
C74	C	-0.441326	-0.272018	0.564044
C75	C	-0.941319	-0.695373	0.064048
C76	C	-0.441319	-0.195373	0.564048
C77	C	-0.992253	-0.657041	0.115038
C78	C	-0.492253	-0.157041	0.615038
C79	C	-0.145811	-0.000033	0.108900
C80	C	0.354189	0.499967	0.608900
C81	C	-0.239061	-0.000042	0.110530
C82	C	0.260939	0.499958	0.610530
C83	C	-0.998364	-0.000033	-0.038538
C84	C	-0.498364	0.499967	0.461462
C85	C	-0.996702	-0.000033	-0.131784
C86	C	-0.496702	0.499967	0.368216
N87	N	-0.992276	0.189675	0.115031
N88	N	-0.492276	0.689675	0.615031
C89	C	-0.912798	-0.000020	-0.346642
C90	C	-0.412798	0.499980	0.153358
C91	C	-0.951749	-0.060057	-0.407660
C92	C	-0.451749	0.439943	0.092340
C93	C	-0.993695	-0.000027	-0.302510
C94	C	-0.493695	0.499973	0.197490
C95	C	-0.951790	0.059990	-0.407640
C96	C	-0.451790	0.559990	0.092360
C97	C	-0.990784	-0.000019	-0.467422
C98	C	-0.490784	0.499981	0.032578
C99	C	-1.032668	-0.060114	-0.362300
C100	C	-0.532668	0.439886	0.137700
C101	C	-1.032698	0.059988	-0.362273
C102	C	-0.532698	0.559988	0.137727
C103	C	-1.071708	-0.000065	-0.423274
C104	C	-0.571708	0.499935	0.076726
C105	C	-0.995369	-0.000033	-0.207507
C106	C	-0.495369	0.499967	0.292493
C107	C	-0.989116	-0.000018	-0.562423
C108	C	-0.489116	0.499982	-0.062423
C109	C	-0.986117	-0.000017	0.268600
C110	C	-0.486117	0.499983	0.768600
C111	C	-0.987779	-0.000012	0.361846
C112	C	-0.487779	0.499988	0.861846
H113	H	-0.554288	-0.110825	0.042157
H114	H	-0.054288	0.389175	0.542157
H115	H	-0.845650	-0.000078	-0.313336
H116	H	-0.345650	0.499922	0.186664
H117	H	-0.899852	-0.803234	0.022538
H118	H	-0.399852	-0.303234	0.522538
C119	C	-1.162493	-0.000113	-0.468075
C120	C	-0.662493	0.499887	0.031925
H121	H	-1.191083	-0.042798	-0.452564
H122	H	-0.691083	0.457202	0.047436
H123	H	-1.191450	0.042129	-0.451850
H124	H	-0.691450	0.542129	0.048150
H125	H	-1.160950	0.000286	-0.527461
H126	H	-0.660950	0.500286	-0.027461
C127	C	-1.078891	0.128553	-0.335065
C128	C	-0.578891	0.628553	0.164935
H129	H	-1.050074	0.171172	-0.350408
H130	H	-0.550074	0.671172	0.149592
H131	H	-1.135026	0.128984	-0.362359
H132	H	-0.635026	0.628984	0.137641
H133	H	-1.080052	0.127815	-0.275632
H134	H	-0.580052	0.627815	0.224368
C135	C	-0.905518	-0.128620	-0.434834
C136	C	-0.405518	0.371380	0.065166
H137	H	-0.849067	-0.128546	-0.408335
H138	H	-0.349067	0.371454	0.091665
H139	H	-0.933704	-0.171253	-0.418552
H140	H	-0.433704	0.328747	0.081448
H141	H	-0.905244	-0.128348	-0.494383
H142	H	-0.405244	0.371652	0.005617
H143	H	-0.525155	-0.000096	0.263525
H144	H	-0.025155	0.499904	0.763525
H145	H	-1.084644	-0.335864	0.207523
H146	H	-0.584644	0.164136	0.707523
C147	C	-1.099238	-0.653175	0.222086
C148	C	-0.599238	-0.153175	0.722086
H149	H	-1.129590	-0.686967	0.252439
H150	H	-0.629590	-0.186967	0.752439
H151	H	-1.064824	-0.623276	0.260724
H152	H	-0.564824	-0.123276	0.760724
H153	H	-1.137890	-0.623276	0.187678
H154	H	-0.637890	-0.123276	0.687678
H155	H	-1.084700	-0.803174	0.207521
H156	H	-0.584700	-0.303174	0.707521
C157	C	-0.905569	0.128557	-0.434778
C158	C	-0.405569	0.628557	0.065222
H159	H	-0.943003	0.156829	-0.472451
H160	H	-0.443003	0.656829	0.027549
H161	H	-0.886830	0.157014	-0.386395
H162	H	-0.386830	0.657014	0.113605
H163	H	-0.858360	0.114123	-0.462246
H164	H	-0.358360	0.614123	0.037754
C165	C	-0.453639	-0.000117	-0.057293
C166	C	0.046361	0.499883	0.442707
H167	H	-0.476438	-0.042829	-0.085228
H168	H	0.023562	0.457171	0.414772
H169	H	-0.477310	0.042097	-0.085615
H170	H	0.022690	0.542097	0.414385
H171	H	-0.394108	0.000313	-0.057712
H172	H	0.105892	0.500313	0.442288
C173	C	-0.420202	-0.128755	0.199482
C174	C	0.079798	0.371245	0.699482
H175	H	-0.360789	-0.128352	0.198130
H176	H	0.139211	0.371648	0.698130
H177	H	-0.432344	-0.128920	0.256450
H178	H	0.067656	0.371080	0.756450
H179	H	-0.443452	-0.171342	0.171627
H180	H	0.056548	0.328658	0.671627
C181	C	-1.078833	-0.128761	-0.335301
C182	C	-0.578833	0.371239	0.164699
H183	H	-1.079577	-0.128359	-0.275808
H184	H	-0.579577	0.371641	0.224192
H185	H	-1.135113	-0.128940	-0.362229
H186	H	-0.635113	0.371060	0.137771
H187	H	-1.050272	-0.171339	-0.351198
H188	H	-0.550272	0.328661	0.148802
H189	H	-0.430189	0.110743	0.187796
H190	H	0.069811	0.610743	0.687796
C191	C	-0.885276	-0.653240	0.007977
C192	C	-0.385276	-0.153240	0.507977
H193	H	-0.854934	-0.687049	-0.022378
H194	H	-0.354934	-0.187049	0.477622
H195	H	-0.919689	-0.623338	-0.030659
H196	H	-0.419689	-0.123338	0.469341
H197	H	-0.846616	-0.623346	0.042380
H198	H	-0.346616	-0.123346	0.542380
H199	H	-1.084629	-0.196822	0.207524
H200	H	-0.584629	0.303178	0.707524
C201	C	-0.564441	0.128544	0.030471
C202	C	-0.064441	0.628544	0.530471
H203	H	-0.552756	0.128462	-0.026648
H204	H	-0.052756	0.628462	0.473352
H205	H	-0.623783	0.128293	0.032292
H206	H	-0.123783	0.628293	0.532292
H207	H	-0.540870	0.171177	0.057959
H208	H	-0.040870	0.671177	0.557959
H209	H	-0.899810	-0.335924	0.022532
H210	H	-0.399810	0.164076	0.522532
H211	H	-0.899797	-0.196874	0.022517
H212	H	-0.399797	0.303126	0.522517
