data_functionalizedCrystal
_audit_creation_method	'MofGen! by Chris Wilmer'
_symmetry_space_group_name_H-M	'P1'
_symmetry_Int_Tables_number	1
_symmetry_cell_setting	triclinic
loop_
_symmetry_equiv_pos_as_xyz
  x,y,z
_cell_length_a	14.971486
_cell_length_b	17.699092
_cell_length_c	14.048226
_cell_angle_alpha	89.995250
_cell_angle_beta	89.998499
_cell_angle_gamma	83.450248
loop_
_atom_site_label
_atom_site_type_symbol
_atom_site_fract_x
_atom_site_fract_y
_atom_site_fract_z
O1	O	1.186611	0.098633	-0.079047
O2	O	0.926171	0.110444	-0.079073
O3	O	1.063745	-0.005632	-0.079057
O4	O	1.049037	0.214709	-0.079063
O5	O	1.063729	-0.005639	0.079264
O6	O	0.926155	0.110437	0.079248
O7	O	1.186595	0.098626	0.079274
Zn8	Zn	1.056372	0.104531	0.104398
Zn9	Zn	1.056394	0.104540	-0.104197
O10	O	1.049021	0.214702	0.079258
C11	C	0.892840	0.109913	0.000084
C12	C	0.793548	0.108330	0.000075
C13	C	0.736091	0.176521	0.000074
C14	C	0.642797	0.175030	0.000088
C15	C	0.606961	0.105345	0.000096
C16	C	0.664426	0.037148	0.000100
C17	C	0.757719	0.038641	0.000092
C18	C	0.469974	0.034042	0.000113
C19	C	0.376675	0.032549	0.000118
C20	C	0.355052	0.170431	0.000109
C21	C	0.448345	0.171923	0.000102
C22	C	0.505803	0.103726	0.000103
C23	C	1.063209	-0.033834	0.000102
C24	C	1.061624	-0.117855	0.000097
C25	C	1.060891	-0.157321	-0.086205
C26	C	1.059396	-0.236268	-0.086206
C27	C	1.058641	-0.275748	0.000096
C28	C	1.059372	-0.236277	0.086404
C29	C	1.060860	-0.157331	0.086405
C30	C	1.053368	-0.554656	0.086405
C31	C	1.051882	-0.633608	0.086398
C32	C	1.051903	-0.633593	-0.086206
C33	C	1.053392	-0.554647	-0.086205
C34	C	1.054118	-0.515182	0.000103
C35	C	1.055737	-0.429579	0.000103
C36	C	1.057028	-0.361350	0.000096
C37	C	1.219926	0.099158	0.000114
C38	C	1.319218	0.100741	0.000118
C39	C	1.049557	0.242904	0.000097
C40	C	1.051142	0.326926	0.000095
N41	N	1.056364	0.104524	0.246759
N42	N	1.056409	0.104540	-0.246558
C43	C	1.117301	0.053147	0.296584
C44	C	1.117307	0.053146	0.396241
C45	C	1.056380	0.104527	0.446072
C46	C	0.995436	0.155907	0.396240
C47	C	0.995426	0.155903	0.296584
C48	C	0.995462	0.155913	0.603954
C49	C	0.995472	0.155918	0.703617
C50	C	1.117342	0.053155	0.703611
C51	C	1.117333	0.053152	0.603956
C52	C	1.056390	0.104533	0.554130
H53	H	0.516755	-0.021492	0.000115
H54	H	1.053977	-0.522536	0.156683
O55	O	0.936353	0.205929	0.555595
C56	C	0.950719	0.280873	0.579949
H57	H	1.022329	0.281341	0.607337
H58	H	0.901100	0.303038	0.637797
C59	C	0.848752	0.331588	0.457777
C60	C	0.936708	0.332164	0.491407
H61	H	0.840106	0.363228	0.403162
H62	H	0.839071	0.281097	0.441370
H63	H	0.807413	0.350057	0.505991
H64	H	0.978044	0.313686	0.443197
H65	H	0.946396	0.382653	0.507803
O66	O	1.050980	-0.671905	0.170264
C67	C	0.973907	-0.644104	0.222758
H68	H	0.920205	-0.616458	0.172247
H69	H	0.992264	-0.600203	0.276576
C70	C	1.003419	-0.744337	0.337670
C71	C	0.937459	-0.710388	0.275631
H72	H	0.980937	-0.785223	0.370288
H73	H	1.055347	-0.763066	0.302306
H74	H	1.018710	-0.707746	0.382510
H75	H	0.922176	-0.746976	0.230785
H76	H	0.885527	-0.691667	0.310988
H77	H	1.058752	-0.268427	0.156673
H78	H	0.945823	0.197740	0.436818
H79	H	0.635242	-0.019590	0.000120
O80	O	1.061601	-0.119112	0.170324
C81	C	1.060587	-0.170881	0.246497
H82	H	1.087849	-0.230261	0.221206
H83	H	0.988691	-0.171412	0.273010
C84	C	1.086288	-0.073571	0.359118
C85	C	1.119779	-0.146502	0.328057
H86	H	1.122797	-0.058532	0.409430
H87	H	1.086968	-0.038692	0.307800
H88	H	1.026376	-0.074023	0.381205
H89	H	1.179686	-0.146047	0.305959
H90	H	1.119111	-0.181381	0.379374
O91	O	1.054232	-0.516253	-0.169998
C92	C	1.132488	-0.479036	-0.175181
H93	H	1.186209	-0.508777	-0.126265
H94	H	1.116090	-0.417299	-0.151939
C95	C	1.101572	-0.445076	-0.338396
C96	C	1.167556	-0.481608	-0.278322
H97	H	1.123203	-0.446659	-0.402018
H98	H	1.048847	-0.470147	-0.334904
H99	H	1.087914	-0.393632	-0.319016
H100	H	1.181205	-0.533053	-0.297695
H101	H	1.220284	-0.456546	-0.281820
H102	H	0.945804	0.197739	0.256018
H103	H	0.308265	0.225959	0.000112
O104	O	0.341714	-0.035075	0.000097
C105	C	0.247051	-0.021765	0.000126
H106	H	0.225019	0.037276	-0.029864
H107	H	0.221092	-0.025445	0.076084
C108	C	0.235533	-0.154525	-0.025105
C109	C	0.208474	-0.082012	-0.061947
H110	H	0.211735	-0.191689	-0.063390
H111	H	0.299309	-0.163493	-0.025121
H112	H	0.213899	-0.157580	0.038193
H113	H	0.230118	-0.078955	-0.125239
H114	H	0.144700	-0.073044	-0.061943
O115	O	0.936157	0.205742	0.751988
C116	C	0.847648	0.193309	0.727639
H117	H	0.847357	0.132712	0.700242
H118	H	0.821262	0.235225	0.669800
C119	C	0.787358	0.279390	0.849830
C120	C	0.787000	0.204961	0.816188
H121	H	0.749945	0.286580	0.904449
H122	H	0.846988	0.287769	0.866232
H123	H	0.765371	0.314311	0.801623
H124	H	0.808997	0.170042	0.864391
H125	H	0.727372	0.196577	0.799796
H126	H	0.765260	0.233266	0.000067
O127	O	0.587110	0.241341	0.000044
C128	C	0.638744	0.303166	0.000054
H129	H	0.708414	0.284018	-0.029927
H130	H	0.645349	0.324521	0.076006
C131	C	0.506544	0.391235	-0.025210
C132	C	0.592110	0.367719	-0.062042
H133	H	0.477777	0.431056	-0.063510
H134	H	0.471756	0.349583	-0.025213
H135	H	0.512060	0.409026	0.038082
H136	H	0.586593	0.349920	-0.125328
H137	H	0.626897	0.409369	-0.062051
H138	H	1.166919	0.011309	0.256018
H139	H	1.166926	0.011310	0.436808
O140	O	0.813408	-0.027671	0.000045
C141	C	0.761777	-0.089497	0.000075
H142	H	0.692102	-0.070350	-0.029894
H143	H	0.755184	-0.110857	0.076031
C144	C	0.893977	-0.177562	-0.025205
C145	C	0.808404	-0.154046	-0.062021
H146	H	0.922739	-0.217380	-0.063504
H147	H	0.928763	-0.135909	-0.025221
H148	H	0.888470	-0.195356	0.038092
H149	H	0.813912	-0.136243	-0.125311
H150	H	0.773620	-0.195698	-0.062016
H151	H	1.166948	0.011317	0.563383
H152	H	0.477518	0.228666	0.000086
O153	O	1.061460	-0.118995	-0.170069
C154	C	0.983674	-0.129807	-0.222579
H155	H	0.929141	-0.145566	-0.172078
H156	H	1.000320	-0.177557	-0.276383
C157	C	1.016860	-0.036471	-0.337505
C158	C	0.949879	-0.055820	-0.275477
H159	H	0.996015	0.009165	-0.370138
H160	H	1.069268	-0.029189	-0.302130
H161	H	1.030725	-0.076269	-0.382332
H162	H	0.936023	-0.016028	-0.230644
H163	H	0.897468	-0.063094	-0.310846
O164	O	1.176507	0.003138	0.751898
C165	C	1.162126	-0.071809	0.727575
H166	H	1.127640	-0.071767	0.655225
H167	H	1.117670	-0.095283	0.783674
C168	C	1.295413	-0.122077	0.811820
C169	C	1.253063	-0.122025	0.722954
H170	H	1.351506	-0.153054	0.808973
H171	H	1.305101	-0.071584	0.828210
H172	H	1.258357	-0.141636	0.858559
H173	H	1.290114	-0.102457	0.676219
H174	H	1.243384	-0.172516	0.706556
H175	H	1.058802	-0.268397	-0.156482
H176	H	1.051308	-0.665735	-0.156482
