data_functionalizedCrystal
_audit_creation_method	'MofGen! by Chris Wilmer'
_symmetry_space_group_name_H-M	'P1'
_symmetry_Int_Tables_number	1
_symmetry_cell_setting	triclinic
loop_
_symmetry_equiv_pos_as_xyz
  x,y,z
_cell_length_a	27.732048
_cell_length_b	26.809956
_cell_length_c	27.732048
_cell_angle_alpha	90.000636
_cell_angle_beta	97.357345
_cell_angle_gamma	89.996742
loop_
_atom_site_label
_atom_site_type_symbol
_atom_site_fract_x
_atom_site_fract_y
_atom_site_fract_z
O1	O	0.640931	-0.041421	-0.057510
O2	O	1.140931	0.458579	0.442490
O3	O	0.500138	-0.041436	-0.066256
O4	O	1.000138	0.458564	0.433744
O5	O	0.574907	-0.041419	0.008514
O6	O	1.074907	0.458581	0.508514
O7	O	0.566162	-0.041439	-0.132280
O8	O	1.066162	0.458561	0.367720
O9	O	0.574893	0.041541	0.008502
O10	O	1.074893	0.541541	0.508502
O11	O	0.500123	0.041523	-0.066267
O12	O	1.000123	0.541523	0.433733
O13	O	0.640917	0.041539	-0.057522
O14	O	1.140917	0.541539	0.442478
Zn15	Zn	0.570518	0.054702	-0.061896
Zn16	Zn	1.070518	0.554702	0.438104
Zn17	Zn	0.570536	-0.054600	-0.061881
Zn18	Zn	1.070536	0.445400	0.438119
O19	O	0.566147	0.041521	-0.132291
O20	O	1.066147	0.541521	0.367709
C21	C	0.482124	0.000041	-0.066078
C22	C	0.982124	0.500041	0.433922
C23	C	0.428469	0.000036	-0.065525
C24	C	0.928469	0.500036	0.434475
N25	N	0.570509	0.129298	-0.061906
N26	N	1.070509	0.629298	0.438094
N27	N	0.570549	-0.129196	-0.061867
N28	N	1.070549	0.370804	0.438133
C29	C	0.089654	0.000051	-0.106229
C30	C	0.589654	0.500051	0.393771
C31	C	-0.112006	0.000056	-0.104178
C32	C	0.387994	0.500056	0.395822
O33	O	-0.143262	0.000073	-0.141398
O34	O	0.356738	0.500073	0.358602
N35	N	-0.131130	0.000062	-0.059843
N36	N	0.368870	0.500062	0.440157
C37	C	-0.099835	0.000069	-0.016017
C38	C	0.400165	0.500069	0.483983
O39	O	-0.120728	0.000079	0.021740
O40	O	0.379272	0.500079	0.521740
C41	C	0.101824	0.000068	-0.018068
C42	C	0.601824	0.500068	0.481932
C43	C	0.120944	0.000057	-0.062407
C44	C	0.620944	0.500057	0.437593
C45	C	0.108775	0.000042	-0.150563
C46	C	0.608775	0.500042	0.349437
C47	C	0.159187	0.000038	-0.151076
C48	C	0.659187	0.500038	0.348924
C49	C	0.190477	0.000044	-0.107253
C50	C	0.690477	0.500044	0.392747
C51	C	0.171356	0.000054	-0.062919
C52	C	0.671356	0.500054	0.437081
C53	C	0.133117	0.000079	0.025757
C54	C	0.633117	0.500079	0.525757
C55	C	0.183535	0.000080	0.025240
C56	C	0.683535	0.500080	0.525240
C57	C	0.202655	0.000069	-0.019098
C58	C	0.702655	0.500069	0.480902
C59	C	0.253059	0.000056	-0.019609
C60	C	0.753059	0.500056	0.480391
N61	N	0.272183	0.000050	-0.063944
N62	N	0.772183	0.500050	0.436056
C63	C	0.240892	0.000044	-0.107766
C64	C	0.740892	0.500044	0.392234
C65	C	-0.205709	0.000069	-0.014943
C66	C	0.294291	0.500069	0.485057
C67	C	-0.256124	0.000068	-0.014430
C68	C	0.243876	0.500068	0.485570
C69	C	-0.268291	0.000056	-0.102591
C70	C	0.231709	0.500056	0.397409
C71	C	-0.217876	0.000053	-0.103104
C72	C	0.282124	0.500053	0.396896
C73	C	-0.186585	0.000063	-0.059278
C74	C	0.313415	0.500063	0.440722
C75	C	0.346761	0.000036	-0.108839
C76	C	0.846761	0.500036	0.391161
C77	C	0.397178	0.000030	-0.109347
C78	C	0.897178	0.500030	0.390653
C79	C	0.409341	0.000044	-0.021186
C80	C	0.909341	0.500044	0.478814
C81	C	0.358929	0.000048	-0.020678
C82	C	0.858929	0.500048	0.479322
C83	C	0.327639	0.000045	-0.064508
C84	C	0.827639	0.500045	0.435492
O85	O	0.284343	0.000045	0.017592
O86	O	0.784343	0.500045	0.517592
O87	O	0.261794	0.000045	-0.145518
O88	O	0.761794	0.500045	0.354482
C89	C	0.039242	0.000055	-0.105716
C90	C	0.539242	0.500055	0.394284
C91	C	0.020120	0.000065	-0.061382
C92	C	0.520120	0.500065	0.438618
C93	C	0.051411	0.000071	-0.017560
C94	C	0.551411	0.500071	0.482440
C95	C	-0.030294	0.000065	-0.060869
C96	C	0.469706	0.500065	0.439131
C97	C	-0.061585	0.000059	-0.104691
C98	C	0.438415	0.500059	0.395309
C99	C	-0.042461	0.000053	-0.149026
C100	C	0.457539	0.500053	0.350974
C101	C	0.007951	0.000049	-0.149539
C102	C	0.507951	0.500049	0.350461
C103	C	0.032287	0.000077	0.026775
C104	C	0.532287	0.500077	0.526775
C105	C	-0.018125	0.000080	0.027284
C106	C	0.481875	0.500080	0.527284
C107	C	-0.049416	0.000074	-0.016538
C108	C	0.450584	0.500074	0.483462
C109	C	0.658931	0.000060	-0.057699
C110	C	1.158931	0.500060	0.442301
C111	C	0.712586	0.000062	-0.058252
C112	C	1.212586	0.500062	0.441748
C113	C	0.574716	0.000062	0.026515
C114	C	1.074716	0.500062	0.526515
C115	C	0.574164	0.000066	0.080170
C116	C	1.074164	0.500066	0.580170
C117	C	0.603640	0.473932	-0.028781
C118	C	1.103640	0.973932	0.471219
C119	C	0.603652	0.682810	-0.028774
C120	C	1.103652	1.182810	0.471226
O121	O	0.631801	0.709820	-0.000613
O122	O	1.131801	1.209820	0.499387
N123	N	0.570539	0.708925	-0.061870
N124	N	1.070539	1.208925	0.438130
C125	C	0.537419	0.682818	-0.094969
C126	C	1.037419	1.182818	0.405031
O127	O	0.509252	0.709824	-0.123116
O128	O	1.009252	1.209824	0.376884
C129	C	0.537406	0.473941	-0.094974
C130	C	1.037406	0.973941	0.405026
C131	C	0.570524	0.447829	-0.061878
C132	C	1.070524	0.947829	0.438122
C133	C	0.636755	0.447819	0.004312
C134	C	1.136755	0.947819	0.504312
C135	C	0.636754	0.395603	0.004308
C136	C	1.136754	0.895603	0.504308
C137	C	0.603637	0.369500	-0.028789
C138	C	1.103637	0.869500	0.471211
C139	C	0.570522	0.395612	-0.061882
C140	C	1.070522	0.895612	0.438118
C141	C	0.504284	0.447835	-0.128070
C142	C	1.004284	0.947835	0.371930
C143	C	0.504283	0.395613	-0.128067
C144	C	1.004283	0.895613	0.371933
C145	C	0.537401	0.369500	-0.094972
C146	C	1.037401	0.869500	0.405028
C147	C	0.537405	0.317293	-0.094983
C148	C	1.037405	0.817293	0.405017
N149	N	0.570517	0.291177	-0.061887
N150	N	1.070517	0.791177	0.438113
C151	C	0.603633	0.317281	-0.028790
C152	C	1.103633	0.817281	0.471210
C153	C	0.537429	0.792481	-0.094965
C154	C	1.037429	1.292481	0.405035
C155	C	0.537433	0.844700	-0.094964
C156	C	1.037433	1.344700	0.405036
C157	C	0.603665	0.844689	-0.028768
C158	C	1.103665	1.344689	0.471232
C159	C	0.603663	0.792469	-0.028772
C160	C	1.103663	1.292469	0.471228
C161	C	0.570542	0.766366	-0.061868
C162	C	1.070542	1.266366	0.438132
C163	C	0.603628	0.207623	-0.028801
C164	C	1.103628	0.707623	0.471199
C165	C	0.603625	0.155402	-0.028809
C166	C	1.103625	0.655402	0.471191
C167	C	0.537392	0.155418	-0.095003
C168	C	1.037392	0.655418	0.404997
C169	C	0.537396	0.207635	-0.094997
C170	C	1.037396	0.707635	0.405003
C171	C	0.570516	0.233735	-0.061892
C172	C	1.070516	0.733735	0.438108
O173	O	0.509266	0.290250	-0.123126
O174	O	1.009266	0.790250	0.376874
O175	O	0.631789	0.290266	-0.000640
O176	O	1.131789	0.790266	0.499360
C177	C	0.603642	0.526149	-0.028777
C178	C	1.103642	1.026149	0.471223
C179	C	0.570527	0.552261	-0.061870
C180	C	1.070527	1.052261	0.438130
C181	C	0.537410	0.526158	-0.094968
C182	C	1.037410	1.026158	0.405032
C183	C	0.570531	0.604480	-0.061870
C184	C	1.070531	1.104480	0.438130
C185	C	0.603647	0.630584	-0.028773
C186	C	1.103647	1.130584	0.471227
C187	C	0.636759	0.604468	0.004324
C188	C	1.136759	1.104468	0.504324
C189	C	0.636758	0.552252	0.004320
C190	C	1.136758	1.052252	0.504320
C191	C	0.504298	0.552273	-0.128064
C192	C	1.004298	1.052273	0.371936
C193	C	0.504303	0.604489	-0.128058
C194	C	1.004303	1.104489	0.371942
C195	C	0.537419	0.630593	-0.094961
C196	C	1.037419	1.130593	0.405039
C197	C	0.566338	0.000039	-0.150292
C198	C	1.066338	0.500039	0.349708
C199	C	0.566891	0.000031	-0.203947
C200	C	1.066891	0.500031	0.296053
C201	C	0.614867	0.000045	0.418985
C202	C	1.114867	0.500045	0.918985
C203	C	0.612816	0.000038	0.620645
C204	C	1.112816	0.500038	1.120645
O205	O	0.650037	0.000021	0.651900
O206	O	1.150037	0.500021	1.151900
N207	N	0.568481	0.000034	0.639768
N208	N	1.068481	0.500034	1.139768
C209	C	0.524656	0.000028	0.608474
C210	C	1.024656	0.500028	1.108474
O211	O	0.486899	0.000019	0.629367
O212	O	0.986899	0.500019	1.129367
C213	C	0.526707	0.000031	0.406815
C214	C	1.026707	0.500031	0.906815
C215	C	0.571045	0.000041	0.387694
C216	C	1.071045	0.500041	0.887694
C217	C	0.659202	0.000054	0.399864
C218	C	1.159202	0.500054	0.899864
C219	C	0.659714	0.000059	0.349452
C220	C	1.159714	0.500059	0.849452
C221	C	0.615892	0.000054	0.318161
C222	C	1.115892	0.500054	0.818161
C223	C	0.571557	0.000045	0.337282
C224	C	1.071557	0.500045	0.837282
C225	C	0.482882	0.000022	0.375521
C226	C	0.982882	0.500022	0.875521
C227	C	0.483399	0.000021	0.325104
C228	C	0.983399	0.500021	0.825104
C229	C	0.527737	0.000031	0.305983
C230	C	1.027737	0.500031	0.805983
C231	C	0.528247	0.000045	0.255580
C232	C	1.028247	0.500045	0.755580
N233	N	0.572583	0.000050	0.236456
N234	N	1.072583	0.500050	0.736456
C235	C	0.616405	0.000054	0.267747
C236	C	1.116405	0.500054	0.767747
C237	C	0.523582	0.000027	0.714348
C238	C	1.023582	0.500027	1.214348
C239	C	0.523069	0.000027	0.764762
C240	C	1.023069	0.500027	1.264762
C241	C	0.611230	0.000036	0.776930
C242	C	1.111230	0.500036	1.276930
C243	C	0.611742	0.000040	0.726514
C244	C	1.111742	0.500040	1.226514
C245	C	0.567917	0.000031	0.695224
C246	C	1.067917	0.500031	1.195224
C247	C	0.617477	0.000064	0.161878
C248	C	1.117477	0.500064	0.661878
C249	C	0.617986	0.000071	0.111461
C250	C	1.117986	0.500071	0.611461
C251	C	0.529825	0.000059	0.099298
C252	C	1.029825	0.500059	0.599298
C253	C	0.529316	0.000055	0.149710
C254	C	1.029316	0.500055	0.649710
C255	C	0.573147	0.000056	0.180999
C256	C	1.073147	0.500056	0.680999
O257	O	0.491047	0.000057	0.224296
O258	O	0.991047	0.500057	0.724296
O259	O	0.654156	0.000053	0.246844
O260	O	1.154156	0.500053	0.746844
C261	C	0.614355	0.000041	0.469397
C262	C	1.114355	0.500041	0.969397
C263	C	0.570021	0.000032	0.488518
C264	C	1.070021	0.500032	0.988518
C265	C	0.526198	0.000027	0.457228
C266	C	1.026198	0.500027	0.957228
C267	C	0.569508	0.000032	0.538933
C268	C	1.069508	0.500032	1.038933
C269	C	0.613330	0.000036	0.570223
C270	C	1.113330	0.500036	1.070223
C271	C	0.657665	0.000041	0.551100
C272	C	1.157665	0.500041	1.051100
C273	C	0.658177	0.000045	0.500688
C274	C	1.158177	0.500045	1.000688
C275	C	0.481863	0.000023	0.476351
C276	C	0.981863	0.500023	0.976351
C277	C	0.481355	0.000019	0.526764
C278	C	0.981355	0.500019	1.026764
C279	C	0.525177	0.000023	0.558054
C280	C	1.025177	0.500023	1.058054
H281	H	0.321291	0.000035	-0.144530
H282	H	0.821291	0.500035	0.355470
O283	O	0.505241	0.129979	-0.127104
O284	O	1.005241	0.629979	0.372896
C285	C	0.512351	0.078291	-0.120012
C286	C	1.012351	0.578291	0.379988
H287	H	0.530712	0.071162	-0.081457
H288	H	1.030712	0.571162	0.418543
H289	H	0.475706	0.058446	-0.125635
H290	H	0.975706	0.558446	0.374365
H291	H	0.536384	0.063468	-0.147209
H292	H	1.036384	0.563468	0.352791
O293	O	0.415692	-0.000046	-0.152451
O294	O	0.915692	0.499954	0.347549
C295	C	0.399676	-0.043021	-0.179128
C296	C	0.899676	0.456979	0.320872
H297	H	0.364805	-0.057340	-0.166215
H298	H	0.864805	0.442660	0.333785
H299	H	0.392379	-0.033365	-0.219437
H300	H	0.892379	0.466635	0.280563
H301	H	0.428894	-0.073109	-0.173306
H302	H	0.928894	0.426891	0.326694
H303	H	0.510433	0.228896	-0.121951
H304	H	1.010433	0.728896	0.378049
O305	O	0.062659	-0.000008	0.069360
O306	O	0.562659	0.499992	0.569360
C307	C	0.054026	-0.042964	0.096307
C308	C	0.554026	0.457036	0.596307
H309	H	0.036610	-0.072995	0.070655
H310	H	0.536610	0.427005	0.570655
H311	H	0.089937	-0.057389	0.115971
H312	H	0.589937	0.442611	0.615971
H313	H	0.028551	-0.033245	0.124083
H314	H	0.528551	0.466755	0.624083
H315	H	0.694282	0.000053	0.485125
H316	H	1.194282	0.500053	0.985125
H317	H	0.663725	0.530995	0.031269
H318	H	1.163725	1.030995	0.531269
H319	H	0.663726	0.625730	0.031271
H320	H	1.163726	1.125730	0.531271
O321	O	0.439769	-0.000012	0.394007
O322	O	0.939769	0.499988	0.894007
C323	C	0.401207	-0.000007	0.355569
C324	C	0.901207	0.499993	0.855569
H325	H	0.414507	-0.015707	0.321419
H326	H	0.914507	0.484293	0.821419
H327	H	0.370233	-0.024101	0.365871
H328	H	0.870233	0.475899	0.865871
H329	H	0.387697	0.039790	0.348335
H330	H	0.887697	0.539790	0.848335
O331	O	-0.036718	0.000000	0.070346
O332	O	0.463282	0.500000	0.570346
C333	C	-0.065526	-0.042954	0.073289
C334	C	0.434474	0.457046	0.573289
H335	H	-0.053791	-0.072993	0.048125
H336	H	0.446209	0.427007	0.548125
H337	H	-0.060711	-0.057367	0.112284
H338	H	0.439289	0.442633	0.612284
H339	H	-0.105370	-0.033238	0.061838
H340	H	0.394630	0.466762	0.561838
O341	O	-0.175386	0.000053	0.027676
O342	O	0.324614	0.500053	0.527676
C343	C	-0.203082	0.000069	0.066912
C344	C	0.296918	0.500069	0.566912
H345	H	-0.240801	-0.015638	0.054350
H346	H	0.259199	0.484362	0.554350
H347	H	-0.184263	-0.024013	0.097598
H348	H	0.315737	0.475987	0.597598
H349	H	-0.206578	0.039870	0.080516
H350	H	0.293422	0.539870	0.580516
H351	H	0.663722	0.469068	0.031266
H352	H	1.163722	0.969068	0.531266
O353	O	-0.072842	-0.000041	-0.191609
O354	O	0.427158	0.499959	0.308391
C355	C	-0.064221	-0.043003	-0.218554
C356	C	0.435779	0.456997	0.281446
H357	H	-0.046798	-0.073032	-0.192903
H358	H	0.453202	0.426968	0.307097
H359	H	-0.100138	-0.057425	-0.238204
H360	H	0.399862	0.442575	0.261796
H361	H	-0.038757	-0.033294	-0.246342
H362	H	0.461243	0.466706	0.253658
O363	O	-0.298760	0.000073	-0.145116
O364	O	0.201240	0.500073	0.354884
C365	C	-0.347355	0.000062	-0.135150
C366	C	0.152645	0.500062	0.364850
H367	H	-0.349006	0.015769	-0.097197
H368	H	0.150994	0.515769	0.402803
H369	H	-0.370407	0.024146	-0.163104
H370	H	0.129593	0.524146	0.336896
H371	H	-0.361948	-0.039738	-0.137091
H372	H	0.138052	0.460262	0.362909
O373	O	0.340296	0.000120	0.022361
O374	O	0.840296	0.500120	0.522361
C375	C	0.311512	0.043097	0.025296
C376	C	0.811512	0.543097	0.525296
H377	H	0.298674	0.057416	-0.012900
H378	H	0.798674	0.557416	0.487100
H379	H	0.278637	0.033444	0.044317
H380	H	0.778637	0.533444	0.544317
H381	H	0.333948	0.073184	0.046845
H382	H	0.833948	0.573184	0.546845
H383	H	0.477335	0.625747	-0.155012
H384	H	0.977335	1.125747	0.344988
O385	O	0.472110	0.526998	-0.160265
O386	O	0.972110	1.026998	0.339735
C387	C	0.442880	0.561251	-0.189463
C388	C	0.942880	1.061251	0.310537
H389	H	0.462698	0.598472	-0.189864
H390	H	0.962698	1.098472	0.310136
H391	H	0.435217	0.546172	-0.228122
H392	H	0.935217	1.046172	0.271878
H393	H	0.407090	0.566807	-0.174016
H394	H	0.907090	1.066807	0.325984
H395	H	0.083302	0.000038	-0.186251
H396	H	0.583302	0.500038	0.313749
O397	O	0.700222	-0.000044	0.581520
O398	O	1.200222	0.499956	1.081520
C399	C	0.702557	-0.043006	0.611050
C400	C	1.202557	0.456994	1.111050
H401	H	0.677703	-0.073036	0.592398
H402	H	1.177703	0.426964	1.092398
H403	H	0.741539	-0.057426	0.617009
H404	H	1.241539	0.442574	1.117009
H405	H	0.690319	-0.033296	0.647622
H406	H	1.190319	0.466704	1.147622
O407	O	0.472062	0.370235	-0.160154
O408	O	0.972062	0.870235	0.339846
C409	C	0.442443	0.340021	-0.134474
C410	C	0.942443	0.840021	0.365526
H411	H	0.441916	0.355753	-0.096355
H412	H	0.941916	0.855753	0.403645
H413	H	0.403875	0.339436	-0.154460
H414	H	0.903875	0.839436	0.345540
H415	H	0.457587	0.300443	-0.131842
H416	H	0.957587	0.800443	0.368158
O417	O	0.177676	0.000056	-0.194189
O418	O	0.677676	0.500056	0.305811
C419	C	0.139240	0.000040	-0.232752
C420	C	0.639240	0.500040	0.267248
H421	H	0.105088	0.015746	-0.219458
H422	H	0.605088	0.515746	0.280542
H423	H	0.149542	0.024125	-0.263732
H424	H	0.649542	0.524125	0.236268
H425	H	0.132009	-0.039760	-0.246248
H426	H	0.632009	0.460240	0.253752
O427	O	0.661101	0.000056	0.092968
O428	O	1.161101	0.500056	0.592968
C429	C	0.699668	0.000070	0.131401
C430	C	1.199668	0.500070	0.631401
H431	H	0.686380	-0.015640	0.165552
H432	H	1.186380	0.484360	0.665552
H433	H	0.730649	-0.024011	0.121091
H434	H	1.230649	0.475989	0.621091
H435	H	0.713160	0.039870	0.138637
H436	H	1.213160	0.539870	0.638637
H437	H	0.447710	0.000014	0.299629
H438	H	0.947710	0.500014	0.799629
H439	H	-0.202311	0.000047	-0.139207
H440	H	0.297689	0.500047	0.360793
H441	H	0.023514	0.000042	-0.185643
H442	H	0.523514	0.500042	0.314357
O443	O	-0.274717	-0.000016	0.028628
O444	O	0.225283	0.499984	0.528628
C445	C	-0.303521	-0.042975	0.031567
C446	C	0.196479	0.457025	0.531567
H447	H	-0.291783	-0.073009	0.006401
H448	H	0.208217	0.426991	0.506401
H449	H	-0.298704	-0.057391	0.070561
H450	H	0.201296	0.442609	0.570561
H451	H	-0.343365	-0.033263	0.020118
H452	H	0.156635	0.466737	0.520118
H453	H	0.117558	0.000088	0.061861
H454	H	0.617558	0.500088	0.561861
H455	H	0.209009	0.000089	0.060929
H456	H	0.709009	0.500089	0.560929
O457	O	0.481039	0.000088	0.683906
O458	O	0.981039	0.500088	1.183906
C459	C	0.478682	0.043059	0.654388
C460	C	0.978682	0.543059	1.154388
H461	H	0.517027	0.057387	0.652113
H462	H	1.017027	0.557387	1.152113
H463	H	0.460382	0.033395	0.616363
H464	H	0.960382	0.533395	1.116363
H465	H	0.456730	0.073143	0.670818
H466	H	0.956730	0.573143	1.170818
H467	H	0.434827	0.000047	0.014492
H468	H	0.934827	0.500047	0.514492
O469	O	0.635781	0.232919	0.003422
O470	O	1.135781	0.732919	0.503422
C471	C	0.628275	0.220162	0.051219
C472	C	1.128275	0.720162	0.551219
H473	H	0.609638	0.182251	0.051025
H474	H	1.109638	0.682251	0.551025
H475	H	0.664787	0.218366	0.075274
H476	H	1.164787	0.718366	0.575274
H477	H	0.604331	0.249554	0.066007
H478	H	1.104331	0.749554	0.566007
H479	H	0.630595	0.134142	-0.001859
H480	H	1.130595	0.634142	0.498141
H481	H	0.630630	0.865951	-0.001820
H482	H	1.130630	1.365951	0.498180
O483	O	0.439260	-0.000045	0.446009
O484	O	0.939260	0.499955	0.946009
C485	C	0.412330	-0.043019	0.454618
C486	C	0.912330	0.456981	0.954618
H487	H	0.424499	-0.057348	0.492949
H488	H	0.924499	0.442652	0.992949
H489	H	0.371987	-0.033357	0.450785
H490	H	0.871987	0.466643	0.950785
H491	H	0.418726	-0.073101	0.427082
H492	H	0.918726	0.426899	0.927082
O493	O	0.701743	0.000126	0.430305
O494	O	1.201743	0.500126	0.930305
C495	C	0.704085	0.043099	0.459820
C496	C	1.204085	0.543099	0.959820
H497	H	0.665735	0.057416	0.462097
H498	H	1.165735	0.557416	0.962097
H499	H	0.722390	0.033440	0.497845
H500	H	1.222390	0.533440	0.997845
H501	H	0.726025	0.073188	0.443388
H502	H	1.226025	0.573188	0.943388
O503	O	0.668939	0.370318	0.036508
O504	O	1.168939	0.870318	0.536508
C505	C	0.698172	0.404564	0.065710
C506	C	1.198172	0.904564	0.565710
H507	H	0.678356	0.441789	0.066113
H508	H	1.178356	0.941789	0.566113
H509	H	0.705833	0.389482	0.104367
H510	H	1.205833	0.889482	0.604367
H511	H	0.733962	0.410115	0.050263
H512	H	1.233962	0.910115	0.550263
O513	O	0.660022	0.000134	0.192316
O514	O	1.160022	0.500134	0.692316
C515	C	0.662364	0.043105	0.221835
C516	C	1.162364	0.543105	0.721835
H517	H	0.624014	0.057421	0.224112
H518	H	1.124014	0.557421	0.724112
H519	H	0.680668	0.033443	0.259859
H520	H	1.180668	0.533443	0.759859
H521	H	0.684303	0.073196	0.205405
H522	H	1.184303	0.573196	0.705405
H523	H	0.695819	0.000065	0.333889
H524	H	1.195819	0.500065	0.833889
H525	H	0.647846	0.000047	0.710950
H526	H	1.147846	0.500047	1.210950
H527	H	0.630630	0.771211	-0.001822
H528	H	1.130630	1.271211	0.498178
O529	O	0.505219	0.869986	-0.127135
O530	O	1.005219	1.369986	0.372865
C531	C	0.475999	0.835742	-0.156352
C532	C	0.975999	1.335742	0.343648
H533	H	0.475604	0.798520	-0.136535
H534	H	0.975604	1.298520	0.363465
H535	H	0.437341	0.850830	-0.163992
H536	H	0.937341	1.350830	0.336008
H537	H	0.491422	0.830186	-0.192155
H538	H	0.991422	1.330186	0.307845
H539	H	0.646911	0.000040	0.802415
H540	H	1.146911	0.500040	1.302415
O541	O	0.480029	-0.000044	0.783390
O542	O	0.980029	0.499956	1.283390
C543	C	0.477095	-0.043017	0.812176
C544	C	0.977095	0.456983	1.312176
H545	H	0.515291	-0.057335	0.825017
H546	H	1.015291	0.442665	1.325017
H547	H	0.458071	-0.033359	0.845050
H548	H	0.958071	0.466641	1.345050
H549	H	0.455549	-0.073106	0.789741
H550	H	0.955549	0.426894	1.289741
H551	H	0.493213	0.000061	0.165279
H552	H	0.993213	0.500061	0.665279
H553	H	0.510457	0.771232	-0.121917
H554	H	1.010457	1.271232	0.378083
O555	O	0.472065	0.473115	-0.160237
O556	O	0.972065	0.973115	0.339763
C557	C	0.442846	0.438868	-0.189450
C558	C	0.942846	0.938868	0.310550
H559	H	0.442456	0.401646	-0.169631
H560	H	0.942456	0.901646	0.330369
H561	H	0.404187	0.453953	-0.197089
H562	H	0.904187	0.953953	0.302911
H563	H	0.458268	0.433311	-0.225254
H564	H	0.958268	0.933311	0.274746
H565	H	0.494146	0.000057	0.073812
H566	H	0.994146	0.500057	0.573812
H567	H	0.445246	0.000015	0.542327
H568	H	0.945246	0.500015	1.042327
