data_functionalizedCrystal
_audit_creation_method	'MofGen! by Chris Wilmer'
_symmetry_space_group_name_H-M	'P1'
_symmetry_Int_Tables_number	1
_symmetry_cell_setting	triclinic
loop_
_symmetry_equiv_pos_as_xyz
  x,y,z
_cell_length_a	16.120530
_cell_length_b	21.295417
_cell_length_c	16.120297
_cell_angle_alpha	87.131911
_cell_angle_beta	89.871860
_cell_angle_gamma	87.125028
loop_
_atom_site_label
_atom_site_type_symbol
_atom_site_fract_x
_atom_site_fract_y
_atom_site_fract_z
Zn1	Zn	1.247396	-0.318916	0.534531
Zn2	Zn	1.747396	0.181084	1.034531
Zn3	Zn	1.254333	-0.419126	0.395463
Zn4	Zn	1.754333	0.080874	0.895463
Zn5	Zn	1.115388	-0.308279	0.388451
Zn6	Zn	1.615388	0.191721	0.888451
Zn7	Zn	1.108290	-0.418546	0.527433
Zn8	Zn	1.608290	0.081454	1.027433
O9	O	1.181352	-0.366216	0.461470
O10	O	1.681352	0.133784	0.961470
O11	O	1.364682	-0.336903	0.521989
O12	O	1.864682	0.163097	1.021989
O13	O	1.241776	-0.400212	0.278168
O14	O	1.741776	0.099788	0.778168
O15	O	1.132967	-0.221604	0.407864
O16	O	1.632967	0.278396	0.907864
O17	O	1.369779	-0.410527	0.419817
O18	O	1.869779	0.089473	0.919817
O19	O	1.229953	-0.229419	0.515189
O20	O	1.729953	0.270581	1.015189
O21	O	1.139693	-0.318774	0.273016
O22	O	1.639693	0.181226	0.773016
O23	O	0.998081	-0.318211	0.400981
O24	O	1.498081	0.181789	0.900981
O25	O	1.120869	-0.409539	0.644739
O26	O	1.620869	0.090461	1.144739
O27	O	0.992866	-0.399224	0.503091
O28	O	1.492866	0.100776	1.003091
O29	O	1.223070	-0.336341	0.649955
O30	O	1.723070	0.163659	1.149955
O31	O	1.234893	-0.507134	0.412933
O32	O	1.734893	-0.007134	0.912933
O33	O	1.127595	-0.506708	0.509891
O34	O	1.627595	-0.006708	1.009891
C35	C	0.965301	-0.357501	0.450505
C36	C	1.465301	0.142499	0.950505
C37	C	0.872872	-0.353789	0.445834
C38	C	1.372872	0.146211	0.945834
C39	C	0.703644	-0.346996	0.437314
C40	C	1.203644	0.153004	0.937314
C41	C	0.659897	-0.385485	0.485686
C42	C	1.159897	0.114515	0.985686
C43	C	0.565733	-0.381706	0.480945
C44	C	1.065733	0.118294	0.980945
C45	C	0.797817	-0.350775	0.442053
C46	C	1.297817	0.149225	0.942053
C47	C	1.181248	-0.529762	0.461422
C48	C	1.681248	-0.029762	0.961422
C49	C	1.181278	-0.599732	0.461433
C50	C	1.681278	-0.099732	0.961433
C51	C	1.231746	-0.636611	0.517354
C52	C	1.731746	-0.136611	1.017354
C53	C	1.231775	-0.702355	0.517376
C54	C	1.731775	-0.202355	1.017376
C55	C	1.181344	-0.731218	0.461463
C56	C	1.681344	-0.231218	0.961463
C57	C	1.130866	-0.694331	0.405538
C58	C	1.630866	-0.194331	0.905538
C59	C	1.130833	-0.628588	0.405523
C60	C	1.630833	-0.128588	0.905523
N61	N	1.178754	-0.831581	0.388371
N62	N	1.678754	-0.331581	0.888371
N63	N	1.178790	-0.894035	0.388388
N64	N	1.678790	-0.394035	0.888388
C65	C	1.181440	-0.929298	0.461505
C66	C	1.681440	-0.429298	0.961505
N67	N	1.184068	-0.899749	0.534608
N68	N	1.684068	-0.399749	1.034608
N69	N	1.184036	-0.837290	0.534591
N70	N	1.684036	-0.337290	1.034591
C71	C	1.181374	-0.802505	0.461473
C72	C	1.681374	-0.302505	0.961473
C73	C	1.231941	-1.037465	0.517455
C74	C	1.731941	-0.537465	1.017455
C75	C	1.231963	-1.103210	0.517478
C76	C	1.731963	-0.603210	1.017478
C77	C	1.131059	-1.095184	0.405633
C78	C	1.631059	-0.595184	0.905633
C79	C	1.131032	-1.029440	0.405617
C80	C	1.631032	-0.529440	0.905617
C81	C	1.181478	-1.000585	0.461527
C82	C	1.681478	-0.500585	0.961527
C83	C	1.398246	-0.374966	0.472477
C84	C	1.898246	0.125034	0.972477
C85	C	1.490674	-0.378695	0.477168
C86	C	1.990674	0.121305	0.977168
C87	C	1.170404	-0.374062	0.678363
C88	C	1.670404	0.125938	1.178363
C89	C	1.165738	-0.377405	0.770790
C90	C	1.665738	0.122595	1.270790
C91	C	1.181478	-0.202034	0.461536
C92	C	1.681478	0.297966	0.961536
C93	C	1.181531	-0.132069	0.461565
C94	C	1.681531	0.367931	0.961565
C95	C	1.192305	-0.358358	0.245422
C96	C	1.692305	0.141642	0.745422
C97	C	1.197132	-0.354844	0.153004
C98	C	1.697132	0.145156	0.653004
C99	C	1.157190	-0.383494	0.940014
C100	C	1.657190	0.116506	1.440014
C101	C	1.205678	-0.348757	0.983785
C102	C	1.705678	0.151243	1.483785
C103	C	1.200922	-0.352145	1.077947
C104	C	1.700922	0.147855	1.577947
C105	C	1.161945	-0.380107	0.845843
C106	C	1.661945	0.119893	1.345843
H107	H	0.670378	-0.311209	0.392343
H108	H	1.170378	0.188791	0.892343
N109	N	1.286344	-1.006336	0.577755
N110	N	1.786344	-0.506336	1.077755
H111	H	1.318316	-1.039678	0.613190
H112	H	1.818316	-0.539678	1.113190
H113	H	1.250510	-0.979092	0.614482
H114	H	1.750510	-0.479092	1.114482
H115	H	1.250762	-0.316474	0.950541
H116	H	1.750762	0.183526	1.450541
H117	H	1.272820	-0.613119	0.562881
H118	H	1.772820	-0.113119	1.062881
H119	H	1.273060	-1.133237	0.563019
H120	H	1.773060	-0.633237	1.063019
N121	N	1.076658	-1.126305	0.345331
N122	N	1.576658	-0.626305	0.845331
H123	H	1.084334	-1.173550	0.353826
H124	H	1.584334	-0.673550	0.853826
H125	H	1.092639	-1.113201	0.286609
H126	H	1.592639	-0.613201	0.786609
H127	H	0.693165	-0.421275	0.530661
H128	H	1.193165	0.078725	1.030661
N129	N	1.286210	-0.742143	0.577692
N130	N	1.786210	-0.242143	1.077692
H131	H	1.318161	-0.713887	0.613108
H132	H	1.818161	-0.213887	1.113108
H133	H	1.326436	-0.769731	0.545826
H134	H	1.826436	-0.269731	1.045826
N135	N	1.076473	-0.725456	0.345230
N136	N	1.576473	-0.225456	0.845230
H137	H	1.084155	-0.772701	0.353722
H138	H	1.584155	-0.272701	0.853722
H139	H	1.092458	-0.712348	0.286511
H140	H	1.592458	-0.212348	0.786511
N141	N	1.076399	-0.588806	0.345205
N142	N	1.576399	-0.088806	0.845205
H143	H	1.044453	-0.617064	0.309787
H144	H	1.544453	-0.117064	0.809787
H145	H	1.112210	-0.561495	0.308463
H146	H	1.612210	-0.061495	0.808463
N147	N	1.076605	-0.989659	0.345296
N148	N	1.576605	-0.489659	0.845296
H149	H	1.044663	-1.017917	0.309876
H150	H	1.544663	-0.517917	0.809876
H151	H	1.112417	-0.962346	0.308556
H152	H	1.612417	-0.462346	0.808556
N153	N	1.097460	-0.426245	0.984040
N154	N	1.597460	0.073755	1.484040
H155	H	1.102485	-0.422629	1.046039
H156	H	1.602485	0.077371	1.546039
H157	H	1.111108	-0.471193	0.969567
H158	H	1.611108	0.028807	1.469567
