data_functionalizedCrystal
_audit_creation_method	'MofGen! by Chris Wilmer'
_symmetry_space_group_name_H-M	'P1'
_symmetry_Int_Tables_number	1
_symmetry_cell_setting	triclinic
loop_
_symmetry_equiv_pos_as_xyz
  x,y,z
_cell_length_a	10.654550
_cell_length_b	10.654558
_cell_length_c	9.130313
_cell_angle_alpha	90.000114
_cell_angle_beta	90.004307
_cell_angle_gamma	84.486610
loop_
_atom_site_label
_atom_site_type_symbol
_atom_site_fract_x
_atom_site_fract_y
_atom_site_fract_z
O1	O	0.176451	1.667828	0.121775
O2	O	0.193246	1.302351	0.121782
O3	O	0.002109	1.493493	0.121773
O4	O	0.367587	1.476686	0.121784
O5	O	0.002099	1.493490	-0.121826
O6	O	0.193236	1.302348	-0.121817
O7	O	0.176440	1.667825	-0.121824
Cu8	Cu	0.184837	1.485087	-0.144063
Cu9	Cu	0.184849	1.485090	0.144021
O10	O	0.367577	1.476684	-0.121815
C11	C	0.192005	1.255552	-0.000017
C12	C	0.188309	1.116109	-0.000014
C13	C	0.183119	0.919572	0.132772
C14	C	0.186581	1.050595	0.132773
C15	C	0.186563	1.050596	-0.132811
C16	C	0.183092	0.919577	-0.132811
C17	C	0.181404	0.854063	0.265568
C18	C	0.183147	0.919567	0.398366
C19	C	0.186609	1.050590	0.398368
C20	C	0.188327	1.116108	0.265571
C21	C	-0.044694	1.492257	-0.000025
C22	C	-0.184137	1.488565	-0.000020
C23	C	-0.263620	1.601106	-0.000026
C24	C	-0.394641	1.597630	-0.000016
C25	C	-0.366684	1.369061	0.000001
C26	C	-0.235666	1.372539	0.000002
C27	C	-0.212091	1.717133	-0.000047
C28	C	-0.291575	1.829683	-0.000056
C29	C	-0.422596	1.826207	-0.000045
C30	C	-0.474133	1.710180	-0.000027
C31	C	0.414380	1.477919	-0.000014
C32	C	0.553823	1.481611	-0.000010
C33	C	0.177681	1.714625	-0.000022
C34	C	0.181377	1.854067	-0.000015
N35	N	0.184848	1.485093	0.346644
N36	N	0.184828	1.485094	-0.346686
C37	C	0.100380	1.569889	0.423292
C38	C	0.100372	1.569893	0.576628
C39	C	0.269306	1.400293	0.576656
C40	C	0.269318	1.400296	0.423322
C41	C	0.015910	1.654686	0.346613
C42	C	-0.068567	1.739488	0.423262
C43	C	-0.068575	1.739492	0.576598
C44	C	0.015894	1.654694	0.653287
H45	H	0.191139	1.222796	0.265583
H46	H	-0.105409	1.719976	-0.000060
H47	H	0.187964	1.103951	-0.240928
H48	H	-0.408657	1.274597	0.000014
H49	H	-0.137332	1.808536	0.360814
H50	H	-0.137350	1.808550	0.639004
H51	H	0.181697	0.866238	-0.240938
O52	O	-0.236000	1.954823	-0.000070
H53	H	-0.131541	1.938337	-0.000089
O54	O	0.015890	1.654690	0.818673
H55	H	-0.057042	1.727898	0.859093
H56	H	-0.487309	1.917850	-0.000037
O57	O	-0.615449	1.706422	-0.000018
H58	H	-0.662064	1.804172	-0.000032
O59	O	-0.149924	1.251160	-0.000006
H60	H	-0.207763	1.169896	-0.000017
O61	O	0.360378	1.308805	0.659359
H62	H	0.346162	1.323034	0.778859
H63	H	0.188017	1.103922	0.506498
H64	H	0.338102	1.331248	0.360914
O65	O	0.015927	1.654695	0.181230
H66	H	-0.078136	1.633978	0.140778
O67	O	0.177593	0.712756	0.265561
H68	H	0.176657	0.678209	0.380207
O69	O	0.181294	0.848914	0.541593
H70	H	0.178607	0.746800	0.519288
