data_functionalizedCrystal
_audit_creation_method	'MofGen! by Chris Wilmer'
_symmetry_space_group_name_H-M	'P1'
_symmetry_Int_Tables_number	1
_symmetry_cell_setting	triclinic
loop_
_symmetry_equiv_pos_as_xyz
  x,y,z
_cell_length_a	18.215407
_cell_length_b	17.640280
_cell_length_c	18.215399
_cell_angle_alpha	78.775082
_cell_angle_beta	89.980650
_cell_angle_gamma	78.800709
loop_
_atom_site_label
_atom_site_type_symbol
_atom_site_fract_x
_atom_site_fract_y
_atom_site_fract_z
Zn1	Zn	1.184362	-0.314658	-0.356963
Zn2	Zn	1.684362	0.185342	0.143037
Zn3	Zn	1.209179	-0.446836	-0.209049
Zn4	Zn	1.709179	0.053164	0.290951
Zn5	Zn	1.061301	-0.314685	-0.233906
Zn6	Zn	1.561301	0.185315	0.266094
Zn7	Zn	1.086159	-0.446792	-0.332082
Zn8	Zn	1.586159	0.053208	0.167918
O9	O	1.135250	-0.380743	-0.283000
O10	O	1.635250	0.119257	0.217000
O11	O	1.290640	-0.332199	-0.337352
O12	O	1.790640	0.167801	0.162648
O13	O	1.189545	-0.429336	-0.109356
O14	O	1.689545	0.070664	0.390644
O15	O	1.056836	-0.204077	-0.271045
O16	O	1.556836	0.295923	0.228955
O17	O	1.308873	-0.429310	-0.228680
O18	O	1.808873	0.070690	0.271320
O19	O	1.147248	-0.204057	-0.361455
O20	O	1.647248	0.295943	0.138545
O21	O	1.080900	-0.332245	-0.127618
O22	O	1.580900	0.167755	0.372382
O23	O	0.961613	-0.332201	-0.246919
O24	O	1.461613	0.167799	0.253081
O25	O	1.099204	-0.429234	-0.438373
O26	O	1.599204	0.070766	0.061627
O27	O	0.979876	-0.429260	-0.319049
O28	O	1.479876	0.070740	0.180951
O29	O	1.171353	-0.332156	-0.456653
O30	O	1.671353	0.167844	0.043347
O31	O	1.213650	-0.557435	-0.204554
O32	O	1.713650	-0.057435	0.295446
O33	O	1.123268	-0.557402	-0.294946
O34	O	1.623268	-0.057402	0.205054
C35	C	0.944041	-0.380729	-0.282981
C36	C	1.444041	0.119271	0.217019
C37	C	0.862245	-0.380742	-0.282987
C38	C	1.362245	0.119258	0.217013
C39	C	0.683595	-0.431360	-0.320471
C40	C	1.183595	0.068640	0.179529
C41	C	0.606737	-0.431363	-0.320480
C42	C	1.106737	0.068637	0.179520
C43	C	0.587660	-0.330140	-0.245542
C44	C	1.087660	0.169860	0.254458
C45	C	0.664516	-0.330134	-0.245538
C46	C	1.164516	0.169866	0.254462
C47	C	0.712483	-0.380749	-0.283001
C48	C	1.212483	0.119251	0.216999
C49	C	0.558768	-0.380757	-0.283013
C50	C	1.058768	0.119243	0.216987
C51	C	0.475435	-0.380759	-0.283023
C52	C	0.975435	0.119241	0.216977
C53	C	0.795821	-0.380745	-0.282993
C54	C	1.295821	0.119255	0.217007
C55	C	1.173869	-0.586097	-0.244369
C56	C	1.673869	-0.086097	0.255631
C57	C	1.190458	-0.673948	-0.227867
C58	C	1.690458	-0.173948	0.272133
C59	C	1.009530	-0.962931	-0.408631
C60	C	1.509530	-0.462931	0.091369
C61	C	1.025119	-1.045481	-0.393102
C62	C	1.525119	-0.545481	0.106898
C63	C	1.119292	-1.045450	-0.299072
C64	C	1.619292	-0.545450	0.200928
C65	C	1.103714	-0.962899	-0.314596
C66	C	1.603714	-0.462899	0.185404
C67	C	1.048831	-0.921646	-0.369376
C68	C	1.548831	-0.421646	0.130624
C69	C	1.143015	-0.921613	-0.275341
C70	C	1.643015	-0.421613	0.224659
C71	C	1.127435	-0.839069	-0.290861
C72	C	1.627435	-0.339069	0.209139
C73	C	1.072553	-0.797810	-0.345637
C74	C	1.572553	-0.297810	0.154363
C75	C	1.033251	-0.839102	-0.384896
C76	C	1.533251	-0.339102	0.115104
C77	C	1.197893	-0.962867	-0.220557
C78	C	1.697893	-0.462867	0.279443
C79	C	1.237194	-0.921582	-0.181302
C80	C	1.737194	-0.421582	0.318698
C81	C	1.221618	-0.839036	-0.196826
C82	C	1.721618	-0.339036	0.303174
C83	C	1.166737	-0.797778	-0.251602
C84	C	1.666737	-0.297778	0.248398
C85	C	1.260920	-0.797745	-0.157566
C86	C	1.760920	-0.297745	0.342434
C87	C	1.245340	-0.715201	-0.173087
C88	C	1.745340	-0.215201	0.326913
C89	C	1.151157	-0.715233	-0.267122
C90	C	1.651157	-0.215233	0.232878
C91	C	1.327206	-0.380757	-0.283019
C92	C	1.827206	0.119243	0.216981
C93	C	1.409006	-0.380763	-0.283027
C94	C	1.909006	0.119237	0.216973
C95	C	1.135283	-0.380687	-0.474963
C96	C	1.635283	0.119313	0.025037
C97	C	1.135297	-0.380663	-0.556767
C98	C	1.635297	0.119337	-0.056767
C99	C	1.096501	-0.174587	-0.321798
C100	C	1.596501	0.325413	0.178202
C101	C	1.079988	-0.086736	-0.338332
C102	C	1.579988	0.413264	0.161668
C103	C	1.172879	-0.330046	-0.831357
C104	C	1.672879	0.169954	-0.331357
C105	C	1.172874	-0.330068	-0.754494
C106	C	1.672874	0.169932	-0.254494
C107	C	1.097753	-0.431165	-0.735447
C108	C	1.597753	0.068835	-0.235447
C109	C	1.097762	-0.431147	-0.812308
C110	C	1.597762	0.068853	-0.312308
C111	C	1.135324	-0.380583	-0.860262
C112	C	1.635324	0.119417	-0.360262
C113	C	1.135309	-0.380622	-0.706538
C114	C	1.635309	0.119378	-0.206538
C115	C	1.135304	-0.380646	-0.623200
C116	C	1.635304	0.119354	-0.123200
C117	C	1.135330	-0.380560	-0.943605
C118	C	1.635330	0.119440	-0.443605
C119	C	1.135249	-0.380741	-0.091794
C120	C	1.635249	0.119259	0.408206
C121	C	1.135336	-0.380543	-0.010033
C122	C	1.635336	0.119457	0.489967
H123	H	0.688035	-0.288915	-0.215026
H124	H	1.188035	0.211085	0.284974
Br125	Br	1.298667	-0.659165	-0.119802
Br126	Br	1.798667	-0.159165	0.380198
H127	H	1.106471	-0.681644	-0.311735
H128	H	1.606471	-0.181644	0.188265
H129	H	1.203463	-0.288873	-0.870400
H130	H	1.703463	0.211127	-0.370400
H131	H	1.067180	-0.472304	-0.835841
H132	H	1.567180	0.027696	-0.335841
Br133	Br	0.935055	-0.906937	-0.482986
Br134	Br	1.435055	-0.406937	0.017014
H135	H	0.988566	-0.805512	-0.429509
H136	H	1.488566	-0.305512	0.070491
H137	H	1.203457	-0.288916	-0.730964
H138	H	1.703457	0.211084	-0.230964
H139	H	1.067170	-0.472331	-0.696394
H140	H	1.567170	0.027669	-0.196394
Br141	Br	0.522559	-0.261452	-0.194702
Br142	Br	1.022559	0.238548	0.305298
Br143	Br	0.567535	-0.500049	-0.371339
Br144	Br	1.067535	-0.000049	0.128661
H145	H	0.722648	-0.472572	-0.350978
H146	H	1.222648	0.027428	0.149022
H147	H	1.059864	-0.730598	-0.358267
H148	H	1.559864	-0.230598	0.141733
H149	H	0.993120	-1.079093	-0.425081
H150	H	1.493120	-0.579093	0.074919
H151	H	1.163975	-1.079049	-0.254468
H152	H	1.663975	-0.579049	0.245532
Br153	Br	1.219066	-1.074893	-0.199521
Br154	Br	1.719066	-0.574893	0.300479
H155	H	1.281878	-0.955181	-0.136698
H156	H	1.781878	-0.455181	0.363302
H157	H	1.305600	-0.831345	-0.112959
H158	H	1.805600	-0.331345	0.387041
