data_functionalizedCrystal
_audit_creation_method	'MofGen! by Chris Wilmer'
_symmetry_space_group_name_H-M	'P1'
_symmetry_Int_Tables_number	1
_symmetry_cell_setting	triclinic
loop_
_symmetry_equiv_pos_as_xyz
  x,y,z
_cell_length_a	23.532350
_cell_length_b	16.109301
_cell_length_c	15.186229
_cell_angle_alpha	89.986602
_cell_angle_beta	90.002376
_cell_angle_gamma	96.856638
loop_
_atom_site_label
_atom_site_type_symbol
_atom_site_fract_x
_atom_site_fract_y
_atom_site_fract_z
O1	O	-0.755654	0.100706	-0.073117
O2	O	-0.255654	0.600706	0.426883
O3	O	-0.589840	0.115359	-0.073144
O4	O	-0.089840	0.615359	0.426856
O5	O	-0.677303	-0.013035	-0.073121
O6	O	-0.177303	0.486965	0.426879
O7	O	-0.668192	0.229101	-0.073140
O8	O	-0.168192	0.729101	0.426860
O9	O	-0.677291	-0.013056	0.073337
O10	O	-0.177291	0.486944	0.573337
O11	O	-0.589829	0.115339	0.073313
O12	O	-0.089829	0.615339	0.573313
O13	O	-0.755643	0.100686	0.073341
O14	O	-0.255643	0.600686	0.573341
Zn15	Zn	-0.672734	0.108009	0.096580
Zn16	Zn	-0.172734	0.608009	0.596580
Zn17	Zn	-0.672749	0.108036	-0.096384
Zn18	Zn	-0.172749	0.608036	0.403616
O19	O	-0.668181	0.229081	0.073317
O20	O	-0.168181	0.729081	0.573317
C21	C	-0.568617	0.114984	0.000081
C22	C	-0.068617	0.614984	0.500081
C23	C	-0.505394	0.113885	0.000071
C24	C	-0.005394	0.613885	0.500071
C25	C	-0.113347	0.106968	0.079945
C26	C	0.386653	0.606968	0.579945
C27	C	-0.053943	0.105922	0.079949
C28	C	0.446057	0.605922	0.579949
O29	O	-0.023217	0.105344	0.147844
O30	O	0.476783	0.605344	0.647844
N31	N	-0.024239	0.105415	0.000116
N32	N	0.475761	0.605415	0.500116
C33	C	-0.053943	0.105945	-0.079727
C34	C	0.446057	0.605945	0.420273
O35	O	-0.023223	0.105417	-0.147631
O36	O	0.476777	0.605417	0.352369
C37	C	-0.113346	0.106985	-0.079730
C38	C	0.386654	0.606985	0.420270
C39	C	-0.143046	0.107500	0.000109
C40	C	0.356954	0.607500	0.500109
C41	C	-0.143047	0.107483	0.159777
C42	C	0.356953	0.607483	0.659777
C43	C	-0.202446	0.108530	0.159773
C44	C	0.297554	0.608530	0.659773
C45	C	-0.232145	0.109062	0.079937
C46	C	0.267855	0.609062	0.579937
C47	C	-0.202445	0.108547	0.000105
C48	C	0.297555	0.608547	0.500105
C49	C	-0.143048	0.107509	-0.159571
C50	C	0.356952	0.607509	0.340429
C51	C	-0.202455	0.108548	-0.159567
C52	C	0.297545	0.608548	0.340433
C53	C	-0.232155	0.109063	-0.079729
C54	C	0.267845	0.609063	0.420271
C55	C	-0.291543	0.110127	-0.079736
C56	C	0.208457	0.610127	0.420264
N57	N	-0.321247	0.110634	0.000097
N58	N	0.178753	0.610634	0.500097
C59	C	-0.291548	0.110102	0.079934
C60	C	0.208452	0.610102	0.579934
C61	C	0.070807	0.103760	-0.079714
C62	C	0.570807	0.603760	0.420286
C63	C	0.130210	0.102727	-0.079712
C64	C	0.630210	0.602727	0.420288
C65	C	0.130205	0.102702	0.079964
C66	C	0.630205	0.602702	0.579964
C67	C	0.070802	0.103742	0.079961
C68	C	0.570802	0.603742	0.579961
C69	C	0.041103	0.104267	0.000119
C70	C	0.541103	0.604267	0.500119
C71	C	-0.416291	0.112302	0.079919
C72	C	0.083709	0.612302	0.579919
C73	C	-0.475695	0.113352	0.079907
C74	C	0.024305	0.613352	0.579907
C75	C	-0.475685	0.113372	-0.079768
C76	C	0.024315	0.613372	0.420232
C77	C	-0.416286	0.112326	-0.079757
C78	C	0.083714	0.612326	0.420243
C79	C	-0.386590	0.111788	0.000093
C80	C	0.113410	0.611788	0.500093
O81	O	-0.322307	0.110703	-0.147596
O82	O	0.177693	0.610703	0.352404
O83	O	-0.322276	0.110619	0.147826
O84	O	0.177724	0.610619	0.647826
C85	C	-0.676928	-0.044017	0.000108
C86	C	-0.176928	0.455983	0.500108
C87	C	-0.675821	-0.136304	0.000110
C88	C	-0.175821	0.363696	0.500110
C89	C	-0.725147	-0.358979	0.000104
C90	C	-0.225147	0.141021	0.500104
C91	C	-0.724103	-0.445691	0.000096
C92	C	-0.224103	0.054309	0.500096
C93	C	-0.620332	-0.424969	0.000083
C94	C	-0.120332	0.075031	0.500083
C95	C	-0.621377	-0.338259	0.000084
C96	C	-0.121377	0.161741	0.500084
C97	C	-0.673786	-0.305266	0.000099
C98	C	-0.173786	0.194734	0.500099
C99	C	-0.671697	-0.478688	0.000090
C100	C	-0.171697	0.021312	0.500090
C101	C	-0.670565	-0.572705	0.000082
C102	C	-0.170565	-0.072705	0.500082
C103	C	-0.674918	-0.211244	0.000105
C104	C	-0.174918	0.288756	0.500105
C105	C	0.223134	0.101069	0.000115
C106	C	0.723134	0.601069	0.500115
C107	C	0.159913	0.102190	0.000124
C108	C	0.659913	0.602190	0.500124
C109	C	-0.668555	0.260063	0.000086
C110	C	-0.168555	0.760063	0.500086
C111	C	-0.669662	0.352349	0.000079
C112	C	-0.169662	0.852349	0.500079
N113	N	-0.672727	0.107990	0.228273
N114	N	-0.172727	0.607990	0.728273
N115	N	-0.672760	0.108049	-0.228076
N116	N	-0.172760	0.608049	0.271924
C117	C	-0.638216	0.057869	0.546223
C118	C	-0.138216	0.557869	1.046223
C119	C	-0.638211	0.057857	0.454034
C120	C	-0.138211	0.557857	0.954034
C121	C	-0.707276	0.158172	0.453980
C122	C	-0.207276	0.658172	0.953980
C123	C	-0.707283	0.158179	0.546168
C124	C	-0.207283	0.658179	1.046168
C125	C	-0.672750	0.108029	0.592287
C126	C	-0.172750	0.608029	1.092287
C127	C	-0.672738	0.108010	0.407910
C128	C	-0.172738	0.608010	0.907910
C129	C	-0.672733	0.107997	0.307953
C130	C	-0.172733	0.607997	0.807953
C131	C	-0.672756	0.108040	0.692250
C132	C	-0.172756	0.608040	1.192250
H133	H	-0.499874	0.113775	0.144924
H134	H	0.000126	0.613775	0.644924
N135	N	-0.565980	-0.280314	0.000089
N136	N	-0.065980	0.219686	0.500089
H137	H	-0.564104	-0.243864	-0.054203
H138	H	-0.064104	0.256136	0.445797
H139	H	-0.532650	-0.314425	0.000121
H140	H	-0.032650	0.185575	0.500121
H141	H	-0.577662	-0.451843	0.000072
H142	H	-0.077662	0.048157	0.500072
N143	N	-0.779498	-0.503628	0.000106
N144	N	-0.279498	-0.003628	0.500106
H145	H	-0.802368	-0.493053	-0.054179
H146	H	-0.302368	0.006947	0.445821
H147	H	-0.802311	-0.493053	0.054440
H148	H	-0.302311	0.006947	0.554440
N149	N	-0.600977	0.003769	0.595962
N150	N	-0.100977	0.503769	1.095962
H151	H	-0.625784	-0.037113	0.634218
H152	H	-0.125784	0.462887	1.134218
H153	H	-0.573102	0.040242	0.634156
H154	H	-0.073102	0.540242	1.134156
N155	N	-0.781672	-0.323394	0.000119
N156	N	-0.281672	0.176606	0.500119
H157	H	-0.804177	-0.342999	-0.054171
H158	H	-0.304177	0.157001	0.445829
H159	H	-0.774494	-0.260319	0.000156
H160	H	-0.274494	0.239681	0.500156
N161	N	-0.600966	0.003753	0.404349
N162	N	-0.100966	0.503753	0.904349
H163	H	-0.579093	-0.028015	0.447557
H164	H	-0.079093	0.471985	0.947557
H165	H	-0.573118	0.040215	0.366091
H166	H	-0.073118	0.540215	0.866091
H167	H	0.154396	0.102267	0.144971
H168	H	0.654396	0.602267	0.644971
H169	H	-0.226633	0.108976	-0.224586
H170	H	0.273367	0.608976	0.275414
H171	H	-0.735408	0.199025	0.583674
H172	H	-0.235408	0.699025	1.083674
N173	N	-0.744521	0.212259	0.404237
N174	N	-0.244521	0.712259	0.904237
H175	H	-0.739276	0.204646	0.338846
H176	H	-0.239276	0.704646	0.838846
H177	H	-0.733261	0.272816	0.420333
H178	H	-0.233261	0.772816	0.920333
N179	N	-0.384269	0.111720	0.166042
N180	N	0.115731	0.611720	0.666042
H181	H	-0.412155	0.111638	0.216605
H182	H	0.087845	0.611638	0.716605
H183	H	-0.355256	0.163121	0.169782
H184	H	0.144744	0.663121	0.669782
H185	H	-0.118873	0.107047	0.224793
H186	H	0.381127	0.607047	0.724793
N187	N	-0.234470	0.109082	0.245890
N188	N	0.265530	0.609082	0.745890
H189	H	-0.228757	0.057348	0.280792
H190	H	0.271243	0.557348	0.780792
H191	H	-0.276597	0.109856	0.233719
H192	H	0.223403	0.609856	0.733719
N193	N	0.038770	0.104300	0.166071
N194	N	0.538770	0.604300	0.666071
H195	H	0.066604	0.103807	0.216642
H196	H	0.566604	0.603807	0.716642
H197	H	0.009495	0.053183	0.169559
H198	H	0.509495	0.553183	0.669559
H199	H	0.046631	0.104196	-0.144735
H200	H	0.546631	0.604196	0.355265
N201	N	0.162241	0.102183	-0.165823
N202	N	0.662241	0.602183	0.334177
H203	H	0.134408	0.102679	-0.216395
H204	H	0.634408	0.602679	0.283605
H205	H	0.182255	0.050202	-0.169299
H206	H	0.682255	0.550202	0.330701
N207	N	-0.111024	0.106941	-0.245683
N208	N	0.388976	0.606941	0.254317
H209	H	-0.116735	0.158667	-0.280601
H210	H	0.383265	0.658667	0.219399
H211	H	-0.126016	0.055541	-0.280496
H212	H	0.373984	0.555541	0.219504
N213	N	-0.384242	0.111780	-0.165861
N214	N	0.115758	0.611780	0.334139
H215	H	-0.389944	0.163513	-0.200770
H216	H	0.110056	0.663513	0.299230
H217	H	-0.399228	0.060388	-0.200691
H218	H	0.100772	0.560388	0.299309
N219	N	-0.507723	0.113946	-0.165874
N220	N	-0.007723	0.613946	0.334126
H221	H	-0.549860	0.114683	-0.153755
H222	H	-0.049860	0.614683	0.346245
H223	H	-0.501972	0.062217	-0.200727
H224	H	-0.001972	0.562217	0.299273
