data_functionalizedCrystal
_audit_creation_method	'MofGen! by Chris Wilmer'
_symmetry_space_group_name_H-M	'P1'
_symmetry_Int_Tables_number	1
_symmetry_cell_setting	triclinic
loop_
_symmetry_equiv_pos_as_xyz
  x,y,z
_cell_length_a	6.817900
_cell_length_b	11.102183
_cell_length_c	16.305550
_cell_angle_alpha	93.871771
_cell_angle_beta	103.455250
_cell_angle_gamma	108.603876
loop_
_atom_site_label
_atom_site_type_symbol
_atom_site_fract_x
_atom_site_fract_y
_atom_site_fract_z
V1	V	-4.052574	-0.176911	-0.263030
O2	O	-4.012740	0.007398	-0.258024
O3	O	-4.029744	-0.349723	-0.261230
O4	O	-4.003648	-0.174674	-0.377747
O5	O	-4.039017	-0.168864	-0.140700
V6	V	-4.532957	-0.154808	-0.248398
O7	O	-4.320721	-0.225395	-0.295125
O8	O	-4.715008	-0.106324	-0.216303
O9	O	-4.332581	0.018004	-0.250199
O10	O	-4.690189	-0.339117	-0.253404
O11	O	-4.663911	-0.162856	-0.370728
O12	O	-4.358678	-0.157045	-0.133681
C13	C	-3.880983	-0.391836	-0.257080
C14	C	-3.943599	-0.533116	-0.256372
C15	C	-3.857871	-0.496208	-0.101856
C16	C	-3.844420	-0.544127	-0.024268
C17	C	-3.903261	-0.676872	-0.023608
C18	C	-3.975565	-0.761704	-0.100544
C19	C	-3.989016	-0.713785	-0.178132
C20	C	-3.930162	-0.581035	-0.178783
C21	C	-4.074758	-0.750693	-0.332647
C22	C	-4.015903	-0.617947	-0.333308
C23	C	-4.147062	-0.835525	-0.409583
C24	C	-4.160499	-0.787606	-0.487172
C25	C	-4.101650	-0.654851	-0.487829
C26	C	-4.029354	-0.570029	-0.410896
C27	C	-3.847692	-0.168542	-0.405708
C28	C	-3.889142	-0.167856	-0.499490
C29	C	-4.039834	-0.165200	-0.840236
C30	C	-3.802612	-0.157314	-0.799307
C31	C	-3.759603	-0.158553	-0.701812
C32	C	-3.965072	-0.166517	-0.671188
C33	C	-4.150785	-0.292032	-0.721813
C34	C	-4.192543	-0.291322	-0.819363
C35	C	-4.077232	-0.048574	-0.794393
C36	C	-4.029155	-0.047580	-0.696550
C37	C	-3.922834	-0.167266	-0.575650
C38	C	-4.082083	-0.164460	-0.935775
C39	C	-4.144686	0.060110	-0.254346
C40	C	-4.061307	0.201388	-0.255059
C41	C	-4.177976	-0.163182	-0.105716
C42	C	-4.115764	-0.163861	-0.011933
H43	H	-3.892313	-0.715886	0.039570
C44	C	-4.116451	-0.602153	-0.573183
N45	N	-4.127598	-0.562466	-0.637473
C46	C	-4.227654	-0.045375	-0.667612
N47	N	-4.377122	-0.043694	-0.645786
C48	C	-3.793122	-0.350182	-0.102574
N49	N	-3.744354	-0.240194	-0.103114
C50	C	-4.093650	-0.411342	-0.699106
N51	N	-4.050601	-0.501202	-0.682005
H52	H	-4.368017	-0.302330	-0.847354
H53	H	-3.894291	0.045258	-0.662173
H54	H	-3.682979	-0.066643	-0.811671
C55	C	-4.040558	-0.907736	-0.099820
N56	N	-4.089600	-1.017732	-0.099277
H57	H	-3.769992	-0.241105	-0.830818
C58	C	-4.212059	-0.981557	-0.408860
N59	N	-4.261107	-1.091554	-0.408320
H60	H	-4.219382	-0.856685	-0.549807
C61	C	-4.359778	-0.306046	-0.696261
N62	N	-4.517189	-0.316599	-0.677013
C63	C	-3.964620	-0.424003	-0.411611
N64	N	-3.915870	-0.314013	-0.412147
H65	H	-3.619675	-0.068308	-0.666789
H66	H	-3.971677	0.046528	-0.807762
H67	H	-4.249991	-0.053235	-0.821209
C68	C	-4.161441	-0.410590	-0.860406
N69	N	-4.138002	-0.500421	-0.891316
H70	H	-3.785551	-0.475043	0.038371
H71	H	-3.705791	-0.243311	-0.685518
