data_functionalizedCrystal
_audit_creation_method	'MofGen! by Chris Wilmer'
_symmetry_space_group_name_H-M	'P1'
_symmetry_Int_Tables_number	1
_symmetry_cell_setting	triclinic
loop_
_symmetry_equiv_pos_as_xyz
  x,y,z
_cell_length_a	14.853567
_cell_length_b	15.455320
_cell_length_c	16.974959
_cell_angle_alpha	96.320423
_cell_angle_beta	83.518991
_cell_angle_gamma	87.331584
loop_
_atom_site_label
_atom_site_type_symbol
_atom_site_fract_x
_atom_site_fract_y
_atom_site_fract_z
O1	O	1.199650	-0.065053	0.100102
O2	O	0.937113	-0.064203	0.112440
O3	O	1.076132	-0.072718	-0.009209
O4	O	1.060631	-0.056539	0.221752
O5	O	1.068215	0.072031	-0.002255
O6	O	0.929195	0.080545	0.119395
O7	O	1.191733	0.079695	0.107057
Cu8	Cu	1.059741	0.093337	0.113861
Cu9	Cu	1.069104	-0.077845	0.105636
O10	O	1.052714	0.088210	0.228706
C11	C	0.899569	0.008130	0.115358
C12	C	0.799496	0.008007	0.113683
N13	N	1.053162	0.213737	0.119645
C14	C	1.071727	-0.002416	-0.035290
C15	C	1.070388	-0.008591	-0.123363
C16	C	0.387470	0.002468	0.034339
C17	C	0.365263	0.012591	0.178862
C18	C	0.459287	0.012699	0.180437
C19	C	0.517407	0.007690	0.108962
C20	C	0.481503	0.002573	0.035912
C21	C	0.495198	0.017806	0.253486
C22	C	0.589228	0.017913	0.255064
C23	C	0.647349	0.012910	0.183588
C24	C	0.611440	0.007795	0.110535
C25	C	0.669559	0.002786	0.039060
C26	C	0.633652	-0.002324	-0.033994
C27	C	0.539624	-0.002430	-0.035564
C28	C	0.741376	0.013016	0.185158
C29	C	0.763592	0.002890	0.040633
C30	C	1.229277	0.007360	0.104139
C31	C	1.329350	0.007477	0.105814
N32	N	1.075691	-0.198246	0.099846
C33	C	1.016617	0.759975	0.151514
C34	C	1.021612	0.668862	0.147155
C35	C	1.085686	0.619530	0.091132
C36	C	1.144762	0.661316	0.039459
C37	C	1.139762	0.752427	0.043814
C38	C	1.107238	0.346633	0.072327
C39	C	1.112236	0.255516	0.067977
C40	C	0.989084	0.263069	0.175673
C41	C	0.984093	0.354182	0.180027
C42	C	1.043166	0.395959	0.128351
N43	N	1.090795	0.526398	0.086676
N44	N	1.038052	0.489089	0.132803
C45	C	1.063399	-0.051917	-0.619539
C46	C	1.064648	-0.046097	-0.536783
C47	C	1.060949	0.035716	-0.491630
C48	C	1.056011	0.111714	-0.529238
C49	C	1.054768	0.105893	-0.611993
C50	C	1.064207	0.061586	-0.243725
C51	C	1.065447	0.067401	-0.160965
C52	C	1.074086	-0.090410	-0.168516
C53	C	1.072838	-0.096224	-0.251271
C54	C	1.067904	-0.020226	-0.288872
N55	N	1.062223	0.041667	-0.407040
N56	N	1.066637	-0.026178	-0.373461
C57	C	1.057118	0.017906	0.254787
C58	C	1.058458	0.024075	0.342859
H59	H	0.810908	-0.001185	-0.017572
H60	H	1.066402	-0.118537	-0.656296
C61	C	0.432202	0.023380	0.331152
C62	C	0.444328	0.100914	0.378722
C63	C	0.386317	0.106072	0.450282
H64	H	0.371025	0.022641	0.319870
H65	H	0.445814	-0.024975	0.358716
H66	H	0.430710	0.149256	0.351163
H67	H	0.505493	0.101669	0.390026
H68	H	0.399929	0.057718	0.477846
H69	H	0.325144	0.105331	0.438992
H70	H	0.394543	0.158675	0.482570
C71	C	0.696906	-0.007714	-0.111506
C72	C	0.786933	-0.006513	-0.094485
C73	C	0.845229	-0.011466	-0.165865
H74	H	0.688931	-0.060277	-0.143940
H75	H	0.683364	0.040688	-0.139035
H76	H	0.800469	-0.054911	-0.066969
H77	H	0.794936	0.046045	-0.062062
H78	H	0.831688	0.036936	-0.193394
H79	H	0.837247	-0.064029	-0.198294
H80	H	0.906318	-0.010643	-0.154326
C81	C	0.914383	0.407682	0.240762
C82	C	0.827079	0.384599	0.226679
C83	C	0.762842	0.433872	0.282610
H84	H	0.924602	0.396515	0.293049
H85	H	0.919803	0.467938	0.235958
H86	H	0.821662	0.324358	0.231490
H87	H	0.816832	0.395770	0.174403
H88	H	0.768262	0.494127	0.277806
H89	H	0.773069	0.422701	0.334893
H90	H	0.703599	0.418223	0.273058
C91	C	0.925046	0.217764	0.231900
C92	C	0.938063	0.245402	0.310946
C93	C	0.879091	0.203678	0.362764
H94	H	0.864070	0.232039	0.224000
H95	H	0.937202	0.156432	0.221337
H96	H	0.925901	0.306720	0.321505
H97	H	0.999027	0.231127	0.318871
H98	H	0.891246	0.142346	0.352201
H99	H	0.818118	0.217956	0.354857
H100	H	0.887921	0.222418	0.416402
C101	C	1.181835	0.202104	0.007064
C102	C	1.232483	0.258190	-0.037275
C103	C	1.296595	0.209018	-0.093397
H104	H	1.221253	0.168577	0.033876
H105	H	1.151545	0.164239	-0.027753
H106	H	1.262772	0.296039	-0.002462
H107	H	1.193090	0.291718	-0.064104
H108	H	1.266304	0.171153	-0.128214
H109	H	1.336006	0.175492	-0.066578
H110	H	1.330962	0.247064	-0.123492
C111	C	1.214225	0.607777	-0.021479
C112	C	1.198796	0.624405	-0.098419
C113	C	1.262763	0.575087	-0.154568
H114	H	1.273567	0.623288	-0.012152
H115	H	1.208729	0.547523	-0.016710
H116	H	1.204300	0.684646	-0.103185
H117	H	1.139467	0.608890	-0.107771
H118	H	1.257267	0.514833	-0.149799
H119	H	1.322101	0.590602	-0.145234
H120	H	1.252298	0.586356	-0.206778
H121	H	1.187865	0.786442	0.001740
H122	H	1.068673	-0.107977	-0.506172
C123	C	1.076968	-0.185132	-0.300166
C124	C	1.081613	-0.250440	-0.249528
C125	C	1.085453	-0.332354	-0.294545
H126	H	1.024135	-0.190431	-0.326655
H127	H	1.129273	-0.191104	-0.338558
H128	H	1.029313	-0.244471	-0.211150
H129	H	1.134444	-0.245170	-0.223038
H130	H	1.137758	-0.338325	-0.332937
H131	H	1.032618	-0.337643	-0.321032
H132	H	1.088613	-0.376675	-0.260195
C133	C	1.079302	-0.172847	-0.127573
C134	C	1.002721	-0.173497	-0.071444
C135	C	1.007502	-0.249423	-0.033708
H136	H	1.081285	-0.222469	-0.166227
H137	H	1.132509	-0.174279	-0.101382
H138	H	0.949528	-0.172074	-0.097634
H139	H	1.000723	-0.123893	-0.032775
H140	H	1.060709	-0.250855	-0.007516
H141	H	1.009487	-0.299039	-0.072367
H142	H	0.955548	-0.249871	0.004386
C143	C	1.061438	0.156313	-0.112079
C144	C	1.056860	0.221623	-0.162721
C145	C	1.053160	0.303534	-0.117716
H146	H	1.009170	0.162378	-0.073662
H147	H	1.114318	0.161513	-0.085624
H148	H	1.003987	0.216425	-0.189163
H149	H	1.109124	0.215587	-0.201138
H150	H	1.106039	0.308734	-0.091260
H151	H	1.000891	0.309589	-0.079300
H152	H	1.050062	0.347856	-0.152070
H153	H	0.618455	0.022074	0.314548
H154	H	1.155340	0.380641	0.030252
H155	H	1.060191	0.123468	-0.274330
C156	C	1.051957	0.200461	-0.480074
C157	C	1.054075	0.189296	-0.399548
C158	C	1.050327	0.271031	-0.354235
H159	H	1.102531	0.231585	-0.497968
H160	H	0.997388	0.232350	-0.486055
H161	H	1.108638	0.157420	-0.393571
H162	H	1.003504	0.158186	-0.381631
H163	H	0.995758	0.302921	-0.360217
H164	H	1.100902	0.302150	-0.372136
H165	H	1.051755	0.263468	-0.299593
H166	H	0.510378	-0.006569	-0.095039
H167	H	1.050745	0.167774	-0.642607
H168	H	0.964445	0.800136	0.197137
C169	C	0.348317	-0.003119	-0.044895
C170	C	0.253533	-0.002157	-0.030982
C171	C	0.217436	-0.007314	-0.103955
H172	H	0.365441	0.045277	-0.071964
H173	H	0.370994	-0.055680	-0.076762
H174	H	0.230865	0.050398	0.000871
H175	H	0.236385	-0.050550	-0.003926
H176	H	0.240113	-0.059875	-0.135821
H177	H	0.234566	0.041083	-0.131018
H178	H	0.153122	-0.006670	-0.094525
H179	H	0.770609	0.017178	0.244637
C180	C	0.302266	0.018165	0.256528
C181	C	0.314386	0.095705	0.304094
C182	C	0.256375	0.100864	0.375654
H183	H	0.241090	0.017420	0.245246
H184	H	0.315884	-0.030185	0.284096
H185	H	0.300762	0.144043	0.276531
H186	H	0.375550	0.096468	0.315398
H187	H	0.269992	0.052514	0.403222
H188	H	0.195202	0.100116	0.364364
H189	H	0.264596	0.153470	0.407938
C190	C	0.957427	0.623666	0.203350
C191	C	0.900264	0.686370	0.253362
C192	C	0.841129	0.644769	0.305148
H193	H	0.921908	0.586107	0.173142
H194	H	0.991613	0.590479	0.234774
H195	H	0.866081	0.719543	0.221941
H196	H	0.935757	0.723932	0.283587
H197	H	0.875315	0.611582	0.336572
H198	H	0.805616	0.607211	0.274933
H199	H	0.802342	0.687308	0.339092
