data_functionalizedCrystal
_audit_creation_method	'MofGen! by Chris Wilmer'
_symmetry_space_group_name_H-M	'P1'
_symmetry_Int_Tables_number	1
_symmetry_cell_setting	triclinic
loop_
_symmetry_equiv_pos_as_xyz
  x,y,z
_cell_length_a	17.639617
_cell_length_b	12.594516
_cell_length_c	12.594509
_cell_angle_alpha	89.973452
_cell_angle_beta	101.241887
_cell_angle_gamma	78.787300
loop_
_atom_site_label
_atom_site_type_symbol
_atom_site_fract_x
_atom_site_fract_y
_atom_site_fract_z
Zn1	Zn	1.208536	0.095178	0.931404
Zn2	Zn	1.208430	0.273217	0.753402
Zn3	Zn	1.076335	0.131162	0.717386
Zn4	Zn	1.076297	0.309063	0.895303
O5	O	1.142400	0.202155	0.824373
O6	O	1.319146	0.088734	0.937972
O7	O	1.190879	0.254431	0.599670
O8	O	1.093932	-0.022574	0.745811
O9	O	1.319068	0.219538	0.807195
O10	O	1.191059	-0.049011	0.903049
O11	O	1.093829	0.150063	0.573209
O12	O	0.965706	0.184822	0.710806
O13	O	1.093868	0.280633	1.049046
O14	O	0.965678	0.315525	0.841521
O15	O	1.191022	0.123492	1.075569
O16	O	1.190842	0.426934	0.772190
O17	O	1.093765	0.453270	0.876444
C18	C	0.937009	0.257968	0.768338
C19	C	0.849141	0.281871	0.744391
C20	C	0.560331	0.020543	1.006559
C21	C	0.477767	0.043031	0.984036
C22	C	0.477708	0.179011	0.847661
C23	C	0.560274	0.156539	0.870177
C24	C	0.601579	0.077303	0.949626
C25	C	0.601522	0.213299	0.813243
C26	C	0.684081	0.190825	0.835753
C27	C	0.725392	0.111590	0.915197
C28	C	0.684138	0.054829	0.972136
C29	C	0.560215	0.292529	0.733789
C30	C	0.601463	0.349289	0.676856
C31	C	0.684023	0.326821	0.699371
C32	C	0.725335	0.247586	0.778814
C33	C	0.725277	0.383582	0.642432
C34	C	0.807836	0.361107	0.664942
C35	C	0.807894	0.225112	0.801324
C36	C	1.142309	0.478720	0.824337
C37	C	1.142343	0.597016	0.824376
C38	C	1.089528	0.680636	0.881026
C39	C	1.070257	0.756740	0.778648
C40	C	1.161657	0.731700	0.926782
C41	C	1.123034	0.671573	0.721936
C42	C	1.214468	0.646517	0.870145
C43	C	1.195224	0.722581	0.767707
C44	C	1.348592	0.146124	0.880628
C45	C	1.436460	0.122247	0.904601
C46	C	1.142477	0.924513	0.824428
C47	C	1.142421	0.806223	0.824424
C48	C	1.142452	0.202047	1.102009
C49	C	1.142475	0.202001	1.220321
C50	C	1.142392	0.202173	0.547831
C51	C	1.142523	0.201877	0.429561
C52	C	1.089649	0.287425	1.275152
C53	C	1.161778	0.293823	1.365611
C54	C	1.070402	0.195523	1.340676
C55	C	1.214642	0.208440	1.309231
C56	C	1.123217	0.110109	1.284277
C57	C	1.195396	0.116456	1.374717
H58	H	0.792617	0.093289	0.933519
C59	C	0.351237	0.017086	1.010086
C60	C	0.432425	-0.019367	1.046622
H61	H	0.323246	-0.021443	1.048718
H62	H	0.337705	0.092293	1.021863
H63	H	0.337697	0.005111	0.934902
H64	H	0.445965	-0.007385	1.121806
H65	H	0.445962	-0.094592	1.034855
H66	H	1.045011	0.359749	1.231925
H67	H	1.275631	0.213958	1.294903
C68	C	0.967261	0.789669	0.619777
C69	C	0.987966	0.821230	0.726408
H70	H	0.916455	0.829476	0.587536
H71	H	1.004753	0.803672	0.579484
H72	H	0.966519	0.714453	0.620000
H73	H	0.988714	0.896444	0.726185
H74	H	0.950464	0.807235	0.766711
C75	C	1.128385	0.488071	1.362817
C76	C	1.183803	0.398651	1.413623
H77	H	1.141977	0.552787	1.392459
H78	H	1.128060	0.489161	1.287320
H79	H	1.077534	0.482913	1.374232
H80	H	1.234653	0.403804	1.402201
H81	H	1.184136	0.397561	1.489137
H82	H	0.691634	0.448088	0.577737
C83	C	0.686918	-0.074283	1.101627
C84	C	0.605743	-0.066549	1.093898
H85	H	0.714952	-0.128044	1.155548
H86	H	0.700422	-0.093630	1.033829
H87	H	0.700432	-0.006423	1.120766
H88	H	0.592228	-0.134407	1.074751
H89	H	0.592234	-0.047208	1.161711
H90	H	1.106881	0.032481	1.248692
H91	H	1.106659	0.645129	0.635310
H92	H	1.239921	0.741268	0.719751
H93	H	1.240141	0.044149	1.417779
H94	H	1.009431	0.190094	1.355141
H95	H	0.841527	0.160594	0.866024
H96	H	1.275411	0.598733	0.908865
H97	H	0.841421	0.407327	0.618581
H98	H	1.177962	0.758291	1.013366
H99	H	1.044797	0.661762	0.928827
H100	H	0.444066	0.243522	0.782970
C101	C	0.441975	0.351998	0.802753
C102	C	0.469464	0.317247	0.709044
H103	H	0.385950	0.367264	0.787473
H104	H	0.460666	0.296689	0.858207
H105	H	0.460659	0.415620	0.826120
H106	H	0.450785	0.253619	0.685681
H107	H	0.450765	0.372559	0.653572
C108	C	0.474880	0.444130	0.581795
C109	C	0.556056	0.436387	0.589531
H110	H	0.446850	0.497909	0.527889
H111	H	0.461360	0.376287	0.562642
H112	H	0.461375	0.463465	0.649606
H113	H	0.569561	0.417045	0.521722
H114	H	0.569581	0.504246	0.608679
H115	H	0.717771	-0.009689	1.036835
