data_functionalizedCrystal
_audit_creation_method	'MofGen! by Chris Wilmer'
_symmetry_space_group_name_H-M	'P1'
_symmetry_Int_Tables_number	1
_symmetry_cell_setting	triclinic
loop_
_symmetry_equiv_pos_as_xyz
  x,y,z
_cell_length_a	6.817900
_cell_length_b	13.212833
_cell_length_c	19.453114
_cell_angle_alpha	90.000282
_cell_angle_beta	101.709288
_cell_angle_gamma	106.298119
loop_
_atom_site_label
_atom_site_type_symbol
_atom_site_fract_x
_atom_site_fract_y
_atom_site_fract_z
V1	V	-4.014887	-0.145494	-0.209757
O2	O	-3.994416	0.005873	-0.215203
O3	O	-3.974382	-0.287416	-0.199245
O4	O	-3.957705	-0.143747	-0.305381
O5	O	-4.011208	-0.138790	-0.108332
V6	V	-4.498630	-0.127331	-0.198729
O7	O	-4.275663	-0.185337	-0.233949
O8	O	-4.688051	-0.087488	-0.174537
O9	O	-4.315929	0.014590	-0.209241
O10	O	-4.636498	-0.278699	-0.193283
O11	O	-4.619706	-0.134036	-0.300154
O12	O	-4.332606	-0.129078	-0.103105
C13	C	-3.821587	-0.321998	-0.193594
C14	C	-3.869698	-0.438023	-0.185636
C15	C	-3.902280	-0.586338	-0.111073
C16	C	-3.857068	-0.477320	-0.118543
C17	C	-3.927540	-0.507752	-0.245263
C18	C	-3.972753	-0.616770	-0.237792
C19	C	-3.960123	-0.656059	-0.170695
C20	C	-4.005351	-0.765080	-0.163226
C21	C	-4.075807	-0.795509	-0.289944
C22	C	-4.030595	-0.686491	-0.297415
C23	C	-3.800313	-0.138733	-0.328980
C24	C	-3.834897	-0.138243	-0.407094
C25	C	-4.033217	-0.143252	-0.447033
C26	C	-4.065712	-0.142792	-0.520429
C27	C	-3.899885	-0.137344	-0.553884
C28	C	-3.701533	-0.132329	-0.513935
C29	C	-3.669039	-0.132778	-0.440540
N30	N	-3.843208	-0.192464	-0.669172
N31	N	-3.874089	-0.192040	-0.738894
C32	C	-3.997775	-0.135988	-0.775018
N33	N	-4.089450	-0.080390	-0.738787
N34	N	-4.058574	-0.080819	-0.669058
C35	C	-3.935098	-0.136856	-0.633468
C36	C	-4.231343	-0.140497	-0.894542
C37	C	-4.263828	-0.140030	-0.967939
C38	C	-3.899648	-0.129577	-0.961444
C39	C	-3.867164	-0.130033	-0.888048
C40	C	-4.033021	-0.135498	-0.854602
C41	C	-4.132066	0.049166	-0.214890
C42	C	-4.063193	0.165191	-0.222853
C43	C	-4.153340	-0.134096	-0.079502
C44	C	-4.097995	-0.134580	-0.001388
H45	H	-4.168273	-0.147698	-0.419805
H46	H	-4.425324	-0.144101	-1.000456
H47	H	-3.507536	-0.128691	-0.408021
H48	H	-3.937792	-0.475743	-0.299890
H49	H	-4.366392	-0.144943	-0.867308
H50	H	-4.227216	-0.146877	-0.552954
H51	H	-3.892012	-0.618328	-0.056440
C52	C	-3.519129	-0.126341	-0.550733
H53	H	-3.566890	-0.126802	-0.600165
H54	H	-3.410473	-0.063088	-0.534845
H55	H	-3.467512	-0.185454	-0.539897
H56	H	-3.764623	-0.125132	-0.988682
C57	C	-3.649016	-0.124541	-0.844114
H58	H	-3.554909	-0.121239	-0.874548
H59	H	-3.600250	-0.063322	-0.812817
H60	H	-3.657298	-0.185688	-0.817879
H61	H	-3.809964	-0.420556	-0.069992
C62	C	-3.991451	-0.808297	-0.089423
H63	H	-3.950503	-0.751155	-0.054985
H64	H	-4.124107	-0.853603	-0.085897
H65	H	-3.891117	-0.846780	-0.081852
H66	H	-4.040863	-0.654487	-0.352043
H67	H	-4.122907	-0.852289	-0.338493
