data_functionalizedCrystal
_audit_creation_method	'MofGen! by Chris Wilmer'
_symmetry_space_group_name_H-M	'P1'
_symmetry_Int_Tables_number	1
_symmetry_cell_setting	triclinic
loop_
_symmetry_equiv_pos_as_xyz
  x,y,z
_cell_length_a	16.625547
_cell_length_b	19.121111
_cell_length_c	16.625539
_cell_angle_alpha	87.587585
_cell_angle_beta	89.978691
_cell_angle_gamma	87.529553
loop_
_atom_site_label
_atom_site_type_symbol
_atom_site_fract_x
_atom_site_fract_y
_atom_site_fract_z
Zn1	Zn	1.218921	0.279627	-0.469681
Zn2	Zn	1.213065	0.397081	-0.340594
Zn3	Zn	1.084090	0.279648	-0.334852
Zn4	Zn	1.078287	0.397042	-0.475372
O5	O	1.148591	0.338349	-0.405125
O6	O	1.330976	0.295215	-0.452578
O7	O	1.195933	0.381528	-0.227001
O8	O	1.106855	0.181360	-0.347953
O9	O	1.326673	0.381508	-0.357739
O10	O	1.205915	0.181345	-0.447011
O11	O	1.101176	0.295250	-0.222783
O12	O	0.970488	0.295213	-0.353471
O13	O	1.096965	0.381442	-0.587448
O14	O	0.966225	0.381462	-0.456711
O15	O	1.200288	0.295177	-0.583267
O16	O	1.190307	0.495360	-0.363257
O17	O	1.091286	0.495332	-0.462278
C18	C	0.939100	0.338336	-0.405086
C19	C	0.849479	0.338347	-0.405089
C20	C	0.776696	0.338348	-0.405099
C21	C	0.685388	0.338352	-0.405120
C22	C	0.612611	0.338358	-0.405141
C23	C	0.521296	0.338363	-0.405160
C24	C	1.139553	0.520830	-0.414026
C25	C	1.135761	0.598896	-0.417861
C26	C	1.185574	0.635563	-0.368150
C27	C	1.182012	0.708915	-0.371762
C28	C	1.128632	0.745598	-0.425080
C29	C	1.078817	0.708925	-0.474796
C30	C	1.082384	0.635575	-0.471188
C31	C	1.115286	0.967068	-0.438555
C32	C	1.111721	1.040423	-0.442157
C33	C	1.214917	1.040407	-0.339124
C34	C	1.218476	0.967056	-0.335517
C35	C	1.168664	0.930390	-0.385236
C36	C	1.124988	0.820574	-0.428771
C37	C	1.172312	0.855414	-0.381548
C38	C	1.358899	0.338364	-0.405164
C39	C	1.448520	0.338370	-0.405181
C40	C	1.157679	1.155156	-0.396217
C41	C	1.161534	1.077090	-0.392447
C42	C	1.148632	0.338303	-0.615431
C43	C	1.148650	0.338283	-0.705052
C44	C	1.148664	0.338268	-0.777833
C45	C	1.148684	0.338242	-0.869141
C46	C	1.148704	0.338217	-0.941916
C47	C	1.148726	0.338191	-1.033229
C48	C	1.148598	0.338345	-0.195634
C49	C	1.148746	0.338167	-0.106004
H50	H	1.229038	0.605701	-0.324729
H51	H	1.068263	1.070288	-0.485590
H52	H	1.215777	0.825545	-0.338140
O53	O	1.073240	0.856288	-0.480601
C54	C	1.117056	0.898639	-0.534820
H55	H	1.177650	0.909592	-0.506986
H56	H	1.127245	0.870333	-0.593194
C57	C	0.994881	0.954890	-0.586978
C58	C	1.069301	0.968348	-0.552789
H59	H	0.965423	0.997889	-0.598065
H60	H	0.965360	0.926356	-0.550452
H61	H	1.003382	0.931300	-0.635619
H62	H	1.060798	0.991930	-0.504144
H63	H	1.098819	0.996888	-0.589307
H64	H	1.035358	0.738798	-0.518213
H65	H	1.074725	0.937220	-0.479037
O66	O	1.230429	0.744424	-0.323389
C67	C	1.278317	0.696318	-0.275566
H68	H	1.247831	0.644058	-0.270173
H69	H	1.339920	0.688454	-0.304762
C70	C	1.326036	0.789176	-0.197796
C71	C	1.288589	0.724990	-0.191166
H72	H	1.332376	0.806862	-0.145735
H73	H	1.293775	0.821586	-0.230017
H74	H	1.377368	0.782613	-0.222129
H75	H	1.237254	0.731555	-0.166843
H76	H	1.320842	0.692581	-0.158939
O77	O	1.033916	0.600063	-0.519510
C78	C	0.986053	0.648167	-0.567361
H79	H	0.980730	0.700474	-0.536902
H80	H	1.015172	0.655915	-0.629004
C81	C	0.908161	0.555346	-0.614913
C82	C	0.901618	0.619588	-0.577500
H83	H	0.856078	0.537716	-0.621171
H84	H	0.940409	0.522936	-0.582678
H85	H	0.932430	0.561811	-0.666279
H86	H	0.877358	0.613121	-0.526131
H87	H	0.869363	0.651996	-0.609727
H88	H	1.255472	1.070268	-0.298647
O89	O	1.270407	0.931533	-0.283710
C90	C	1.313599	0.979626	-0.240595
H91	H	1.313825	1.031892	-0.276192
H92	H	1.283734	0.987481	-0.179711
C93	C	1.400540	0.886751	-0.183938
C94	C	1.400823	0.950944	-0.227662
H95	H	1.454343	0.869059	-0.175957
H96	H	1.371439	0.854349	-0.212983
H97	H	1.375648	0.893306	-0.133207
H98	H	1.425705	0.944387	-0.278396
H99	H	1.429930	0.983345	-0.198625
