data_functionalizedCrystal
_audit_creation_method	'MofGen! by Chris Wilmer'
_symmetry_space_group_name_H-M	'P1'
_symmetry_Int_Tables_number	1
_symmetry_cell_setting	triclinic
loop_
_symmetry_equiv_pos_as_xyz
  x,y,z
_cell_length_a	18.215407
_cell_length_b	12.827892
_cell_length_c	18.215399
_cell_angle_alpha	89.976162
_cell_angle_beta	89.980167
_cell_angle_gamma	90.015840
loop_
_atom_site_label
_atom_site_type_symbol
_atom_site_fract_x
_atom_site_fract_y
_atom_site_fract_z
Zn1	Zn	1.125121	-0.416031	-0.416137
Zn2	Zn	1.625121	0.083969	0.083863
Zn3	Zn	1.125049	-0.590790	-0.293079
Zn4	Zn	1.625049	-0.090790	0.206921
Zn5	Zn	1.002053	-0.416065	-0.293084
Zn6	Zn	1.502053	0.083935	0.206916
Zn7	Zn	1.002039	-0.590732	-0.416104
Zn8	Zn	1.502039	-0.090732	0.083896
O9	O	1.063566	-0.503405	-0.354601
O10	O	1.563566	-0.003405	0.145399
O11	O	1.228095	-0.439223	-0.399825
O12	O	1.728095	0.060777	0.100175
O13	O	1.108710	-0.567651	-0.190096
O14	O	1.608710	-0.067651	0.309904
O15	O	1.018414	-0.269825	-0.309423
O16	O	1.518414	0.230175	0.190577
O17	O	1.228043	-0.567618	-0.309415
O18	O	1.728043	-0.067618	0.190585
O19	O	1.108831	-0.269800	-0.399829
O20	O	1.608831	0.230200	0.100171
O21	O	1.018345	-0.439282	-0.190099
O22	O	1.518345	0.060718	0.309901
O23	O	0.899067	-0.439225	-0.309392
O24	O	1.399067	0.060775	0.190608
O25	O	1.018390	-0.567519	-0.519093
O26	O	1.518390	-0.067519	-0.019093
O27	O	0.899057	-0.567552	-0.399774
O28	O	1.399057	-0.067552	0.100226
O29	O	1.108818	-0.439167	-0.519117
O30	O	1.608818	0.060833	-0.019117
O31	O	1.108696	-0.737019	-0.309383
O32	O	1.608696	-0.237019	0.190617
O33	O	1.018321	-0.736976	-0.399769
O34	O	1.518321	-0.236976	0.100231
C35	C	0.872359	-0.503387	-0.354580
C36	C	1.372359	-0.003387	0.145420
C37	C	0.790560	-0.503405	-0.354589
C38	C	1.290560	-0.003405	0.145411
C39	C	0.602380	-0.570329	-0.401592
C40	C	1.102380	-0.070329	0.098408
C41	C	0.525522	-0.570333	-0.401601
C42	C	1.025522	-0.070333	0.098399
C43	C	0.525503	-0.436499	-0.307627
C44	C	1.025503	0.063501	0.192373
C45	C	0.602360	-0.436491	-0.307622
C46	C	1.102360	0.063509	0.192378
C47	C	0.640797	-0.503413	-0.354603
C48	C	1.140797	-0.003413	0.145397
C49	C	0.487081	-0.503424	-0.354617
C50	C	0.987081	-0.003424	0.145383
C51	C	0.403747	-0.503427	-0.354627
C52	C	0.903747	-0.003427	0.145373
C53	C	0.724136	-0.503408	-0.354595
C54	C	1.224136	-0.003408	0.145405
C55	C	1.063520	-0.774915	-0.354588
C56	C	1.563520	-0.274915	0.145412
C57	C	1.063567	-0.891068	-0.354607
C58	C	1.563567	-0.391068	0.145393
C59	C	1.108341	-0.942839	-0.309931
C60	C	1.608341	-0.442839	0.190069
C61	C	1.108391	-1.062889	-0.309950
C62	C	1.608391	-0.562889	0.190050
C63	C	1.255518	-0.503424	-0.354623
C64	C	1.755518	-0.003424	0.145377
C65	C	1.337317	-0.503432	-0.354632
C66	C	1.837317	-0.003432	0.145368
C67	C	1.063610	-0.503333	-0.546554
C68	C	1.563610	-0.003333	-0.046554
C69	C	1.063629	-0.503302	-0.628353
C70	C	1.563629	-0.003302	-0.128353
C71	C	1.063632	-0.230835	-0.354630
C72	C	1.563632	0.269165	0.145370
C73	C	1.063660	-0.114682	-0.354643
C74	C	1.563660	0.385318	0.145357
C75	C	1.110732	-0.436407	-0.816561
C76	C	1.610732	0.063593	-0.316561
C77	C	1.110741	-0.436376	-0.893420
C78	C	1.610741	0.063624	-0.393420
C79	C	1.016579	-0.570036	-0.893383
C80	C	1.516579	-0.070036	-0.393383
C81	C	1.016567	-0.570060	-0.816526
C82	C	1.516567	-0.070060	-0.316526
C83	C	1.063648	-0.503247	-0.778117
C84	C	1.563648	-0.003247	-0.278117
C85	C	1.063668	-0.503192	-0.931833
C86	C	1.563668	-0.003192	-0.431833
C87	C	1.063678	-0.503160	-1.015167
C88	C	1.563678	-0.003160	-0.515167
C89	C	1.063638	-0.503278	-0.694778
C90	C	1.563638	-0.003278	-0.194778
C91	C	1.063563	-0.503401	-0.163395
C92	C	1.563563	-0.003401	0.336605
C93	C	1.063687	-0.503138	-0.081597
C94	C	1.563687	-0.003138	0.418403
H95	H	0.633639	-0.381993	-0.269358
H96	H	1.133639	0.118007	0.230642
Cl97	Cl	1.004444	-0.959846	-0.413689
Cl98	Cl	1.504444	-0.459846	0.086311
Cl99	Cl	1.169941	-0.352353	-0.941746
Cl100	Cl	1.669941	0.147647	-0.441746
Cl101	Cl	1.167572	-1.131622	-0.250889
Cl102	Cl	1.667572	-0.631622	0.249111
Cl103	Cl	1.004469	-1.045956	-0.413697
Cl104	Cl	1.504469	-0.545956	0.086303
H105	H	1.146639	-0.898288	-0.271671
H106	H	1.646639	-0.398288	0.228329
H107	H	0.978249	-0.624435	-0.924666
H108	H	1.478249	-0.124435	-0.424666
Cl109	Cl	0.650699	-0.654454	-0.460657
Cl110	Cl	1.150699	-0.154454	0.039343
Cl111	Cl	0.477230	-0.654459	-0.460676
Cl112	Cl	0.977230	-0.154459	0.039324
Cl113	Cl	0.477177	-0.352377	-0.248567
Cl114	Cl	0.977177	0.147623	0.251433
H115	H	1.149066	-0.382000	-0.785290
H116	H	1.649066	0.118000	-0.285290
Cl117	Cl	0.957367	-0.654090	-0.768193
Cl118	Cl	1.457367	-0.154090	-0.268193
