data_functionalizedCrystal
_audit_creation_method	'MofGen! by Chris Wilmer'
_symmetry_space_group_name_H-M	'P1'
_symmetry_Int_Tables_number	1
_symmetry_cell_setting	triclinic
loop_
_symmetry_equiv_pos_as_xyz
  x,y,z
_cell_length_a	16.992694
_cell_length_b	10.489741
_cell_length_c	15.455313
_cell_angle_alpha	92.692689
_cell_angle_beta	87.142206
_cell_angle_gamma	87.603699
loop_
_atom_site_label
_atom_site_type_symbol
_atom_site_fract_x
_atom_site_fract_y
_atom_site_fract_z
O1	O	1.045321	0.265388	-0.072021
O2	O	0.817021	0.262418	-0.072047
O3	O	0.936366	0.078758	-0.072028
O4	O	0.925976	0.449049	-0.072040
O5	O	0.929541	0.089214	0.072233
O6	O	0.810196	0.272874	0.072214
O7	O	1.038496	0.275845	0.072240
Cu8	Cu	0.923723	0.275314	0.085399
Cu9	Cu	0.931794	0.262948	-0.085206
O10	O	0.919151	0.459505	0.072221
C11	C	0.784374	0.263826	0.000081
C12	C	0.697266	0.252430	0.000071
C13	C	0.647647	0.362380	0.000068
C14	C	0.565799	0.351666	0.000081
C15	C	0.533573	0.231001	0.000089
C16	C	0.583198	0.121044	0.000095
C17	C	0.665044	0.131759	0.000089
C18	C	0.289723	0.186590	0.000114
C19	C	0.207871	0.175882	0.000117
C20	C	0.190477	0.406505	0.000105
C21	C	0.272325	0.417210	0.000094
C22	C	0.321944	0.307253	0.000104
N23	N	0.449911	0.220047	0.000099
N24	N	0.405603	0.318209	0.000100
C25	C	0.932168	0.036386	0.000102
C26	C	0.929821	-0.105448	0.000100
C27	C	0.853885	-0.180195	0.000085
C28	C	0.886392	-0.264041	0.071217
C29	C	0.893138	-0.274324	-0.071013
C30	C	0.962356	-0.187422	0.071291
C31	C	0.969095	-0.197700	-0.071003
C32	C	1.001656	-0.281512	0.000146
C33	C	1.071143	0.274436	0.000111
C34	C	1.158251	0.285832	0.000115
C35	C	0.923349	0.501877	0.000090
C36	C	0.925697	0.643710	0.000086
N37	N	0.918052	0.284011	0.205394
N38	N	0.937472	0.254242	-0.205201
C39	C	0.968772	0.206019	0.250796
C40	C	0.964490	0.212608	0.341603
C41	C	0.909492	0.297199	0.387007
C42	C	0.858766	0.375195	0.341598
C43	C	0.863045	0.368597	0.250793
C44	C	0.891025	0.325640	0.658585
C45	C	0.886752	0.332234	0.749397
C46	C	0.992475	0.169646	0.749396
C47	C	0.996751	0.163062	0.658589
C48	C	0.946023	0.241053	0.613188
N49	N	0.905116	0.303939	0.479826
N50	N	0.950396	0.234305	0.520370
H51	H	0.525401	0.441198	0.000077
O52	O	0.678860	0.479657	-0.000057
C53	C	0.657105	0.541757	-0.074782
H54	H	0.601329	0.499379	-0.099686
H55	H	0.645550	0.648095	-0.057982
H56	H	0.706842	0.528014	-0.127103
O57	O	0.858181	-0.320028	-0.142693
C58	C	0.857107	-0.454313	-0.142121
H59	H	0.861401	-0.485546	-0.072792
H60	H	0.799775	-0.487580	-0.169070
H61	H	0.909275	-0.498399	-0.184038
O62	O	0.841685	0.401226	0.614448
C63	C	0.795385	0.324098	0.561916
H64	H	0.792194	0.225302	0.589290
H65	H	0.733374	0.369694	0.560886
H66	H	0.823146	0.314932	0.493095
H67	H	0.821742	0.432106	0.213827
O68	O	0.779347	-0.127636	0.000197
C69	C	0.724861	-0.225374	0.000993
H70	H	0.752960	-0.314194	0.028666
H71	H	0.670148	-0.191924	0.042971
H72	H	0.707416	-0.249036	-0.068012
H73	H	0.851416	-0.293490	0.131347
H74	H	0.556953	0.022797	0.000114
O75	O	0.713223	0.024907	-0.000067
C76	C	0.702027	-0.053293	-0.074766
H77	H	0.676900	0.007442	-0.126988
H78	H	0.760982	-0.100367	-0.099846
H79	H	0.659148	-0.130189	-0.057868
H80	H	0.991610	-0.149433	0.131495
H81	H	1.064144	-0.325496	0.000193
H82	H	1.004043	-0.168221	-0.131136
H83	H	0.298558	0.515467	0.000076
O84	O	1.022221	0.123737	0.206829
C85	C	1.066081	0.056334	0.266379
H86	H	1.030857	0.056288	0.331113
H87	H	1.078713	-0.046263	0.240154
H88	H	1.124138	0.104470	0.276025
O89	O	0.805268	0.457391	0.385566
C90	C	0.761430	0.524834	0.326018
H91	H	0.763303	0.467716	0.261294
H92	H	0.697650	0.539756	0.352260
H93	H	0.787886	0.621564	0.316347
H94	H	1.005790	0.149100	0.378569
H95	H	1.041535	0.094182	0.621623
O96	O	1.041710	0.093693	0.793405
C97	C	1.029271	-0.035564	0.771245
H98	H	1.002141	-0.043298	0.705317
H99	H	1.088031	-0.092584	0.768140
H100	H	0.987585	-0.075329	0.822359
O101	O	0.337804	0.079649	0.000082
C102	C	0.291805	-0.029143	0.000110
H103	H	0.232203	-0.004952	-0.027204
H104	H	0.323512	-0.109736	-0.041768
H105	H	0.282506	-0.060716	0.069322
H106	H	0.841963	0.401123	0.786361
H107	H	0.150069	0.496026	0.000099
O108	O	0.176532	0.058681	-0.000022
C109	C	0.133219	0.040178	-0.074723
H110	H	0.155419	0.105043	-0.126951
H111	H	0.141160	-0.063751	-0.099790
H112	H	0.068057	0.064278	-0.057832
