data_functionalizedCrystal
_audit_creation_method	'MofGen! by Chris Wilmer'
_symmetry_space_group_name_H-M	'P1'
_symmetry_Int_Tables_number	1
_symmetry_cell_setting	triclinic
loop_
_symmetry_equiv_pos_as_xyz
  x,y,z
_cell_length_a	25.639243
_cell_length_b	13.897448
_cell_length_c	13.897441
_cell_angle_alpha	90.028012
_cell_angle_beta	90.024497
_cell_angle_gamma	90.022250
loop_
_atom_site_label
_atom_site_type_symbol
_atom_site_fract_x
_atom_site_fract_y
_atom_site_fract_z
Zn1	Zn	-0.799338	0.383915	-0.545495
Zn2	Zn	-0.299338	0.883915	-0.045495
Zn3	Zn	-0.799278	0.545237	-0.384204
Zn4	Zn	-0.299278	1.045237	0.115796
Zn5	Zn	-0.711902	0.383965	-0.384203
Zn6	Zn	-0.211902	0.883965	0.115797
Zn7	Zn	-0.711889	0.545177	-0.545446
Zn8	Zn	-0.211889	1.045177	-0.045446
O9	O	-0.755602	0.464574	-0.464837
O10	O	-0.255602	0.964574	0.035163
O11	O	-0.872496	0.405319	-0.524121
O12	O	-0.372496	0.905319	-0.024121
O13	O	-0.787668	0.523889	-0.249222
O14	O	-0.287668	1.023889	0.250778
O15	O	-0.723531	0.248977	-0.405619
O16	O	-0.223531	0.748977	0.094381
O17	O	-0.872451	0.523841	-0.405621
O18	O	-0.372451	1.023841	0.094379
O19	O	-0.787770	0.248940	-0.524120
O20	O	-0.287770	0.748940	-0.024120
O21	O	-0.723472	0.405404	-0.249222
O22	O	-0.223472	0.905404	0.250778
O23	O	-0.638735	0.405346	-0.405571
O24	O	-0.138735	0.905346	0.094429
O25	O	-0.723509	0.523740	-0.680434
O26	O	-0.223509	1.023740	-0.180434
O27	O	-0.638725	0.523788	-0.524036
O28	O	-0.138725	1.023788	-0.024036
O29	O	-0.787758	0.405261	-0.680471
O30	O	-0.287758	0.905261	-0.180471
O31	O	-0.787655	0.680211	-0.405573
O32	O	-0.287655	1.180211	0.094427
O33	O	-0.723451	0.680167	-0.524037
O34	O	-0.223451	1.180167	-0.024037
C35	C	-0.619759	0.464567	-0.464799
C36	C	-0.119759	0.964567	0.035201
C37	C	-0.561645	0.464587	-0.464805
C38	C	-0.061645	0.964587	0.035195
C39	C	-0.201300	0.402955	-0.526642
C40	C	0.298700	0.902955	-0.026642
C41	C	-0.146695	0.402954	-0.526648
C42	C	0.353305	0.902954	-0.026648
O43	O	-0.118473	0.350535	-0.579177
O44	O	0.381527	0.850535	-0.079177
N45	N	-0.119363	0.464570	-0.464863
N46	N	0.380637	0.964570	0.035137
C47	C	-0.146637	0.526183	-0.403061
C48	C	0.353363	1.026183	0.096939
O49	O	-0.118375	0.578592	-0.350507
O50	O	0.381625	1.078592	0.149493
C51	C	-0.201241	0.526179	-0.403050
C52	C	0.298759	1.026179	0.096950
C53	C	-0.228570	0.464566	-0.464847
C54	C	0.271430	0.964566	0.035153
C55	C	-0.228629	0.341347	-0.588433
C56	C	0.271371	0.841347	-0.088433
C57	C	-0.283230	0.341349	-0.588428
C58	C	0.216770	0.841349	-0.088428
C59	C	-0.310501	0.402960	-0.526632
C60	C	0.189499	0.902960	-0.026632
C61	C	-0.283171	0.464568	-0.464842
C62	C	0.216829	0.964568	0.035158
C63	C	-0.228514	0.587787	-0.341244
C64	C	0.271486	1.087787	0.158756
C65	C	-0.283121	0.587776	-0.341239
C66	C	0.216879	1.087776	0.158761
C67	C	-0.310451	0.526164	-0.403035
C68	C	0.189549	1.026164	0.096965
C69	C	-0.365042	0.526182	-0.403042
C70	C	0.134958	1.026182	0.096958
N71	N	-0.392375	0.464566	-0.464827
N72	N	0.107625	0.964566	0.035173
C73	C	-0.365104	0.402955	-0.526622
C74	C	0.134896	0.902955	-0.026622
C75	C	-0.031967	0.526187	-0.403085
C76	C	0.468033	1.026187	0.096915
C77	C	0.022636	0.526198	-0.403099
C78	C	0.522636	1.026198	0.096901
C79	C	0.022574	0.402967	-0.526686
C80	C	0.522574	0.902967	-0.026686
C81	C	-0.032029	0.402962	-0.526676
C82	C	0.467971	0.902962	-0.026676
C83	C	-0.059299	0.464572	-0.464871
C84	C	0.440701	0.964572	0.035129
C85	C	-0.479769	0.402966	-0.526608
C86	C	0.020231	0.902966	-0.026608
C87	C	-0.534374	0.402976	-0.526601
C88	C	-0.034374	0.902976	-0.026601
C89	C	-0.534308	0.526203	-0.403011
C90	C	-0.034308	1.026203	0.096989
C91	C	-0.479707	0.526196	-0.403022
C92	C	0.020293	1.026196	0.096978
C93	C	-0.452439	0.464570	-0.464823
C94	C	0.047561	0.964570	0.035177
O95	O	-0.393299	0.578572	-0.350537
O96	O	0.106701	1.078572	0.149463
O97	O	-0.393373	0.350547	-0.579158
O98	O	0.106627	0.850547	-0.079158
C99	C	-0.755559	0.715188	-0.464821
C100	C	-0.255559	1.215188	0.035179
C101	C	-0.755589	0.822402	-0.464846
C102	C	-0.255589	1.322402	0.035154
C103	C	-0.755639	0.464488	-0.716430
C104	C	-0.255639	0.964488	-0.216430
C105	C	-0.755655	0.464452	-0.823644
C106	C	-0.255655	0.964452	-0.323644
C107	C	0.108025	0.464581	-0.464876
C108	C	0.608025	0.964581	0.035124
C109	C	0.049911	0.464583	-0.464892
C110	C	0.549911	0.964583	0.035108
C111	C	-0.755640	1.018697	-0.464915
C112	C	-0.255640	1.518697	0.035085
C113	C	-0.755610	0.909464	-0.464879
C114	C	-0.255610	1.409464	0.035121
C115	C	-0.755654	1.212981	-0.464886
C116	C	-0.255654	1.712981	0.035114
C117	C	-0.755665	1.105767	-0.464936
C118	C	-0.255665	1.605767	0.035064
C119	C	-0.755669	0.464387	-1.019940
C120	C	-0.255669	0.964387	-0.519940
C121	C	-0.755659	0.464426	-0.910707
C122	C	-0.255659	0.964426	-0.410707
C123	C	-0.755595	0.464589	-0.214223
C124	C	-0.255595	0.964589	0.285777
C125	C	-0.755680	0.464353	-0.107009
C126	C	-0.255680	0.964353	0.392991
H127	H	-0.054166	0.576366	-0.352758
H128	H	0.445834	1.076366	0.147242
H129	H	0.044883	0.576380	-0.352789
H130	H	0.544883	1.076380	0.147211
H131	H	-0.206272	0.637958	-0.290922
H132	H	0.293728	1.137958	0.209078
N133	N	-0.312533	0.654224	-0.274572
N134	N	0.187467	1.154224	0.225428
H135	H	-0.286931	0.693250	-0.235430
H136	H	0.213069	1.193250	0.264570
H137	H	-0.335190	0.698916	-0.313751
H138	H	0.164810	1.198916	0.186249
N139	N	-0.450226	0.592661	-0.336386
N140	N	0.049774	1.092661	0.163614
H141	H	-0.475790	0.631694	-0.297242
H142	H	0.024210	1.131694	0.202758
H143	H	-0.427570	0.553342	-0.291811
H144	H	0.072430	1.053342	0.208189
N145	N	-0.450369	0.336500	-0.593274
N146	N	0.049631	0.836500	-0.093274
H147	H	-0.427718	0.375751	-0.637913
H148	H	0.072282	0.875751	-0.137913
H149	H	-0.427744	0.291754	-0.554095
H150	H	0.072256	0.791754	-0.054095
H151	H	-0.556522	0.576367	-0.352701
H152	H	-0.056522	1.076367	0.147299
H153	H	0.044788	0.352797	-0.577001
H154	H	0.544788	0.852797	-0.077001
N155	N	-0.563852	0.336524	-0.593258
N156	N	-0.063852	0.836524	-0.093258
H157	H	-0.538287	0.297493	-0.632402
H158	H	-0.038287	0.797493	-0.132402
H159	H	-0.586507	0.291836	-0.554071
H160	H	-0.086507	0.791836	-0.054071
N161	N	-0.061503	0.336511	-0.593330
N162	N	0.438497	0.836511	-0.093330
H163	H	-0.084157	0.291756	-0.554211
H164	H	0.415843	0.791756	-0.054211
H165	H	-0.084132	0.375838	-0.637944
H166	H	0.415868	0.875838	-0.137944
H167	H	-0.206431	0.291170	-0.638754
H168	H	0.293569	0.791170	-0.138754
N169	N	-0.312703	0.274892	-0.655077
N170	N	0.187297	0.774892	-0.155077
H171	H	-0.287135	0.235865	-0.694218
H172	H	0.212865	0.735865	-0.194218
H173	H	-0.335356	0.230201	-0.615887
H174	H	0.164644	0.730201	-0.115887
