data_functionalizedCrystal
_audit_creation_method	'MofGen! by Chris Wilmer'
_symmetry_space_group_name_H-M	'P1'
_symmetry_Int_Tables_number	1
_symmetry_cell_setting	triclinic
loop_
_symmetry_equiv_pos_as_xyz
  x,y,z
_cell_length_a	19.188905
_cell_length_b	18.266242
_cell_length_c	19.188930
_cell_angle_alpha	89.989745
_cell_angle_beta	96.860332
_cell_angle_gamma	90.016065
loop_
_atom_site_label
_atom_site_type_symbol
_atom_site_fract_x
_atom_site_fract_y
_atom_site_fract_z
O1	O	0.926160	0.061010	-0.087084
O2	O	1.426160	0.561010	0.412916
O3	O	0.722847	0.060986	-0.098837
O4	O	1.222847	0.560986	0.401163
O5	O	0.830371	0.060984	0.008696
O6	O	1.330371	0.560984	0.508696
O7	O	0.818636	0.061011	-0.194617
O8	O	1.318636	0.561011	0.305383
O9	O	0.830353	-0.060778	0.008699
O10	O	1.330353	0.439222	0.508699
O11	O	0.722828	-0.060776	-0.098834
O12	O	1.222828	0.439224	0.401166
O13	O	0.926142	-0.060752	-0.087081
O14	O	1.426142	0.439248	0.412919
Zn15	Zn	0.824482	-0.080097	-0.092957
Zn16	Zn	1.324482	0.419903	0.407043
Zn17	Zn	0.824506	0.080330	-0.092961
Zn18	Zn	1.324506	0.580330	0.407039
O19	O	0.818618	-0.060751	-0.194614
O20	O	1.318618	0.439249	0.305386
C21	C	0.696826	0.000102	-0.098458
C22	C	1.196826	0.500102	0.401542
C23	C	0.619321	0.000092	-0.097324
C24	C	1.119321	0.500092	0.402676
C25	C	0.582939	0.066466	-0.096781
C26	C	1.082939	0.566466	0.403219
C27	C	0.510115	0.066475	-0.095708
C28	C	1.010115	0.566475	0.404292
C29	C	0.473678	0.000106	-0.095164
C30	C	0.973678	0.500106	0.404836
C31	C	0.510068	-0.066277	-0.095711
C32	C	1.010068	0.433723	0.404289
C33	C	0.582890	-0.066284	-0.096791
C34	C	1.082890	0.433716	0.403209
N35	N	0.364651	-0.049292	-0.053734
N36	N	0.864651	0.450708	0.446266
N37	N	0.295474	-0.049280	-0.052706
N38	N	0.795474	0.450720	0.447294
C39	C	0.254272	0.000123	-0.091911
C40	C	0.754272	0.500123	0.408089
N41	N	0.284861	0.049526	-0.132173
N42	N	0.784861	0.549526	0.367827
N43	N	0.354045	0.049517	-0.133198
N44	N	0.854045	0.549517	0.366802
C45	C	0.394716	0.000106	-0.093993
C46	C	0.894716	0.500106	0.406007
C47	C	0.138926	0.066512	-0.090206
C48	C	0.638926	0.566512	0.409794
C49	C	0.066100	0.066518	-0.089137
C50	C	0.566100	0.566518	0.410863
C51	C	0.066056	-0.066236	-0.089133
C52	C	0.566056	0.433764	0.410867
C53	C	0.138879	-0.066240	-0.090209
C54	C	0.638879	0.433760	0.409791
C55	C	0.175310	0.000136	-0.090742
C56	C	0.675310	0.500136	0.409258
N57	N	0.824471	-0.189583	-0.092954
N58	N	1.324471	0.310417	0.407046
C59	C	0.866681	-0.227875	-0.135196
C60	C	1.366681	0.272125	0.364804
C61	C	0.866692	-0.304520	-0.135194
C62	C	1.366692	0.195480	0.364806
C63	C	0.824481	-0.342870	-0.092958
C64	C	1.324481	0.157130	0.407042
C65	C	0.782269	-0.304570	-0.050708
C66	C	1.282269	0.195430	0.449292
C67	C	0.782264	-0.227926	-0.050706
C68	C	1.282264	0.272074	0.449294
N69	N	0.763333	-0.463231	-0.091244
N70	N	1.263333	0.036769	0.408756
N71	N	0.763339	-0.536039	-0.091250
N72	N	1.263339	-0.036039	0.408750
C73	C	0.824495	-0.573793	-0.092961
C74	C	1.324495	-0.073793	0.407039
N75	N	0.885645	-0.535988	-0.094679
N76	N	1.385645	-0.035988	0.405321
N77	N	0.885637	-0.463173	-0.094677
N78	N	1.385637	0.036827	0.405323
C79	C	0.824482	-0.425977	-0.092955
C80	C	1.324482	0.074023	0.407045
C81	C	0.866721	-0.695191	-0.135202
C82	C	1.366721	-0.195191	0.364798
C83	C	0.866734	-0.771838	-0.135195
C84	C	1.366734	-0.271838	0.364805
C85	C	0.782304	-0.771886	-0.050714
C86	C	1.282304	-0.271886	0.449286
C87	C	0.782298	-0.695241	-0.050717
C88	C	1.282298	-0.195241	0.449283
C89	C	0.824505	-0.656898	-0.092965
C90	C	1.324505	-0.156898	0.407035
C91	C	0.952163	0.000134	-0.087460
C92	C	1.452163	0.500134	0.412540
C93	C	1.029668	0.000148	-0.088594
C94	C	1.529668	0.500148	0.411406
C95	C	0.829982	0.000101	0.034708
C96	C	1.329982	0.500101	0.534708
C97	C	0.828841	0.000095	0.112213
C98	C	1.328841	0.500095	0.612213
N99	N	0.824523	0.189817	-0.092959
N100	N	1.324523	0.689817	0.407041
C101	C	0.819007	0.000134	-0.220626
C102	C	1.319007	0.500134	0.279374
C103	C	0.820148	0.000145	-0.298131
C104	C	1.320148	0.500145	0.201869
C105	C	0.891933	0.000099	0.157142
C106	C	1.391933	0.500099	0.657142
C107	C	0.890861	0.000110	0.229966
C108	C	1.390861	0.500110	0.729966
C109	C	0.826694	0.000103	0.257857
C110	C	1.326694	0.500103	0.757857
C111	C	0.763594	0.000103	0.212917
C112	C	1.263594	0.500103	0.712917
C113	C	0.764668	0.000099	0.140095
C114	C	1.264668	0.500099	0.640095
N115	N	0.777640	-0.041341	0.365858
N116	N	1.277640	0.458659	0.865858
N117	N	0.776624	-0.041338	0.435037
N118	N	1.276624	0.458662	0.935037
C119	C	0.823456	0.000118	0.477265
C120	C	1.323456	0.500118	0.977265
N121	N	0.871352	0.041561	0.447703
N122	N	1.371352	0.541561	0.947703
N123	N	0.872369	0.041556	0.378518
N124	N	1.372369	0.541556	0.878518
C125	C	0.825523	0.000108	0.336819
C126	C	1.325523	0.500108	0.836819
C127	C	0.885390	0.000135	0.601159
C128	C	1.385390	0.500135	1.101159
C129	C	0.884315	0.000151	0.673984
C130	C	1.384315	0.500151	1.173984
C131	C	0.757047	0.000137	0.656933
C132	C	1.257047	0.500137	1.156933
C133	C	0.758123	0.000128	0.584110
C134	C	1.258123	0.500128	1.084110
C135	C	0.822296	0.000124	0.556228
C136	C	1.322296	0.500124	1.056228
H137	H	0.168502	-0.120290	-0.090646
H138	H	0.668502	0.379710	0.409354
H139	H	0.480487	0.120527	-0.095267
H140	H	0.980487	0.620527	0.404733
H141	H	0.168589	0.120559	-0.090647
H142	H	0.668589	0.620559	0.409353
H143	H	0.704801	0.000135	0.679641
H144	H	1.204801	0.500135	1.179641
H145	H	0.901111	-0.803013	-0.169592
H146	H	1.401111	-0.303013	0.330408
F147	F	0.911620	-0.345281	-0.180154
F148	F	1.411620	0.154719	0.319846
H149	H	0.747901	-0.335800	-0.016319
H150	H	1.247901	0.164200	0.483681
F151	F	0.737333	-0.187172	-0.005747
F152	F	1.237333	0.312828	0.494253
F153	F	0.737386	-0.812696	-0.005756
F154	F	1.237386	-0.312696	0.494244
H155	H	0.935694	0.000158	0.710565
H156	H	1.435694	0.500158	1.210565
F157	F	0.958014	0.000115	0.277792
F158	F	1.458014	0.500115	0.777792
H159	H	0.706747	0.000121	0.547527
H160	H	1.206747	0.500121	1.047527
H161	H	0.901052	-0.196661	-0.169595
H162	H	1.401052	0.303339	0.330405
H163	H	0.612597	0.120515	-0.097215
H164	H	1.112597	0.620515	0.402785
F165	F	0.911653	-0.654382	-0.180154
F166	F	1.411653	-0.154382	0.319846
F167	F	0.471288	-0.136912	-0.095135
F168	F	0.971288	0.363088	0.404865
F169	F	0.737360	-0.654487	-0.005768
F170	F	1.237360	-0.154487	0.494232
F171	F	0.027281	-0.136872	-0.088560
F172	F	0.527281	0.363128	0.411440
F173	F	0.027380	0.137167	-0.088565
F174	F	0.527380	0.637167	0.411435
F175	F	0.960232	0.000110	0.127472
F176	F	1.460232	0.500110	0.627472
H177	H	0.711349	0.000099	0.235631
H178	H	1.211349	0.500099	0.735631
H179	H	0.937644	0.000135	0.578456
H180	H	1.437644	0.500135	1.078456
F181	F	0.621611	-0.136932	-0.097369
F182	F	1.121611	0.363068	0.402631
F183	F	0.697514	0.000095	0.092276
F184	F	1.197514	0.500095	0.592276
