data_functionalizedCrystal
_audit_creation_method	'MofGen! by Chris Wilmer'
_symmetry_space_group_name_H-M	'P1'
_symmetry_Int_Tables_number	1
_symmetry_cell_setting	triclinic
loop_
_symmetry_equiv_pos_as_xyz
  x,y,z
_cell_length_a	18.215407
_cell_length_b	12.759394
_cell_length_c	18.215399
_cell_angle_alpha	89.976418
_cell_angle_beta	89.982632
_cell_angle_gamma	90.011299
loop_
_atom_site_label
_atom_site_type_symbol
_atom_site_fract_x
_atom_site_fract_y
_atom_site_fract_z
Zn1	Zn	1.125128	-0.418349	-0.416090
Zn2	Zn	1.125060	-0.594046	-0.293033
Zn3	Zn	1.002061	-0.418374	-0.293042
Zn4	Zn	1.002050	-0.593979	-0.416063
O5	O	1.063575	-0.506187	-0.354557
O6	O	1.228104	-0.441673	-0.399773
O7	O	1.108720	-0.570782	-0.190050
O8	O	1.018419	-0.271350	-0.309380
O9	O	1.228054	-0.570758	-0.309364
O10	O	1.108836	-0.271331	-0.399782
O11	O	1.018353	-0.441716	-0.190057
O12	O	0.899075	-0.441651	-0.309354
O13	O	1.018401	-0.570642	-0.519051
O14	O	0.899068	-0.570667	-0.399737
O15	O	1.108826	-0.441608	-0.519071
O16	O	1.108710	-0.741058	-0.309338
O17	O	1.018335	-0.741009	-0.399728
C18	C	0.872369	-0.506155	-0.354544
C19	C	0.790570	-0.506166	-0.354556
C20	C	0.602401	-0.439090	-0.401707
C21	C	0.525542	-0.439099	-0.401709
C22	C	0.525501	-0.573313	-0.307420
C23	C	0.602358	-0.573298	-0.307415
C24	C	0.640806	-0.506188	-0.354562
C25	C	0.487090	-0.506212	-0.354570
C26	C	0.403757	-0.506223	-0.354573
C27	C	0.724145	-0.506176	-0.354559
C28	C	1.063534	-0.779155	-0.354545
C29	C	1.063584	-0.895931	-0.354564
C30	C	1.157665	-0.895754	-0.448771
C31	C	1.204728	-0.950526	-0.495880
C32	C	1.204772	-1.060247	-0.495896
C33	C	1.157746	-1.115199	-0.448799
C34	C	1.110682	-1.060427	-0.401690
C35	C	1.110645	-0.950703	-0.401678
C36	C	1.016599	-1.060605	-0.307489
C37	C	1.016557	-0.950883	-0.307468
C38	C	0.969572	-1.115557	-0.260392
C39	C	0.922511	-1.060785	-0.213278
C40	C	0.922470	-0.951057	-0.213264
C41	C	0.969494	-0.896111	-0.260359
C42	C	1.255528	-0.506220	-0.354570
C43	C	1.337327	-0.506234	-0.354576
C44	C	1.063620	-0.506115	-0.546510
C45	C	1.063639	-0.506084	-0.628309
C46	C	1.063636	-0.232154	-0.354585
C47	C	1.063662	-0.115377	-0.354597
C48	C	1.110740	-0.438833	-0.816514
C49	C	1.110749	-0.438802	-0.893373
C50	C	1.016590	-0.573172	-0.893342
C51	C	1.016578	-0.573197	-0.816484
C52	C	1.063657	-0.506029	-0.778073
C53	C	1.063678	-0.505973	-0.931789
C54	C	1.063687	-0.505941	-1.015122
C55	C	1.063647	-0.506060	-0.694734
C56	C	1.063573	-0.506183	-0.163351
C57	C	1.063696	-0.505918	-0.081552
H58	H	0.494188	-0.627952	-0.269036
H59	H	0.633703	-0.384442	-0.440095
C60	C	1.203826	-0.305999	-0.885679
C61	C	1.162508	-0.364943	-0.935628
H62	H	1.235783	-0.260404	-0.911767
H63	H	1.171767	-0.265818	-0.855703
H64	H	1.231959	-0.351803	-0.855700
H65	H	1.134370	-0.319139	-0.965604
H66	H	1.194571	-0.405127	-0.965617
H67	H	1.157641	-0.806413	-0.448756
H68	H	0.969468	-0.806770	-0.260349
C69	C	1.087783	-1.272425	-0.467533
C70	C	1.157788	-1.235807	-0.448824
H71	H	1.087811	-1.346884	-0.467553
H72	H	1.053035	-1.247676	-0.432734
H73	H	1.075032	-1.247563	-0.515010
H74	H	1.170537	-1.260664	-0.401345
H75	H	1.192547	-1.260567	-0.483625
H76	H	1.149073	-0.384137	-0.785242
C77	C	0.407746	-0.379523	-0.443583
C78	C	0.483326	-0.365347	-0.453534
H79	H	0.381685	-0.333984	-0.475576
H80	H	0.395153	-0.450127	-0.454271
H81	H	0.395141	-0.364055	-0.394153
H82	H	0.495932	-0.380823	-0.502963
H83	H	0.495923	-0.294727	-0.442851
C84	C	0.923510	-0.706030	-0.824167
C85	C	0.964823	-0.647069	-0.774223
H86	H	0.891564	-0.751635	-0.798075
H87	H	0.895373	-0.660245	-0.854144
H88	H	0.955578	-0.746210	-0.854145
H89	H	0.932755	-0.606883	-0.744248
H90	H	0.992963	-0.692860	-0.744233
H91	H	0.633629	-0.627938	-0.269020
H92	H	1.243016	-0.905774	-0.534227
C93	C	0.974803	-0.632804	-1.011145
C94	C	0.964848	-0.647009	-0.935566
H95	H	0.942862	-0.678396	-1.037210
H96	H	0.964046	-0.562217	-1.023745
H97	H	1.024251	-0.648184	-1.023737
H98	H	0.915401	-0.631622	-0.922973
H99	H	0.975599	-0.717612	-0.922961
H100	H	1.243088	-1.104843	-0.534263
H101	H	0.969608	-1.204898	-0.260411
H102	H	0.884222	-1.105535	-0.174940
C103	C	0.829471	-0.962263	-0.120151
C104	C	0.870734	-0.890855	-0.161480
H105	H	0.797534	-0.925098	-0.088180
H106	H	0.801325	-1.005057	-0.152202
H107	H	0.861571	-1.005053	-0.092033
H108	H	0.838633	-0.848071	-0.189603
H109	H	0.898881	-0.848043	-0.129425
