data_functionalizedCrystal
_audit_creation_method	'MofGen! by Chris Wilmer'
_symmetry_space_group_name_H-M	'P1'
_symmetry_Int_Tables_number	1
_symmetry_cell_setting	triclinic
loop_
_symmetry_equiv_pos_as_xyz
  x,y,z
_cell_length_a	13.897448
_cell_length_b	10.686154
_cell_length_c	10.685314
_cell_angle_alpha	81.644047
_cell_angle_beta	94.334330
_cell_angle_gamma	85.603301
loop_
_atom_site_label
_atom_site_type_symbol
_atom_site_fract_x
_atom_site_fract_y
_atom_site_fract_z
Zn1	Zn	-0.306655	-1.885470	-0.569063
Zn2	Zn	0.193345	-1.385470	-0.069063
Zn3	Zn	-0.454606	-1.901604	-0.356827
Zn4	Zn	0.045394	-1.401604	0.143173
Zn5	Zn	-0.306726	-1.689480	-0.373092
Zn6	Zn	0.193274	-1.189480	0.126908
Zn7	Zn	-0.481314	-1.673188	-0.585257
Zn8	Zn	0.018686	-1.173188	-0.085257
O9	O	-0.387325	-1.787436	-0.471060
O10	O	0.112675	-1.287436	0.028940
O11	O	-0.315073	-2.065225	-0.527326
O12	O	0.184927	-1.565225	-0.027326
O13	O	-0.423843	-1.887036	-0.181372
O14	O	0.076157	-1.387036	0.318628
O15	O	-0.171733	-1.715544	-0.399117
O16	O	0.328267	-1.215544	0.100883
O17	O	-0.423773	-2.077079	-0.371397
O18	O	0.076227	-1.577079	0.128603
O19	O	-0.171680	-1.859537	-0.543097
O20	O	0.328320	-1.359537	-0.043097
O21	O	-0.315196	-1.731190	-0.193321
O22	O	0.184804	-1.231190	0.306679
O23	O	-0.341093	-1.509704	-0.414820
O24	O	0.158907	-1.009704	0.085180
O25	O	-0.469292	-1.687777	-0.760722
O26	O	0.030708	-1.187777	-0.260722
O27	O	-0.469362	-1.497734	-0.570697
O28	O	0.030638	-0.997734	-0.070697
O29	O	-0.340971	-1.843739	-0.748825
O30	O	0.159029	-1.343739	-0.248825
O31	O	-0.593133	-1.871239	-0.387100
O32	O	-0.093133	-1.371239	0.112900
O33	O	-0.612755	-1.703422	-0.554926
O34	O	-0.112755	-1.203422	-0.054926
C35	C	-0.408134	-1.457666	-0.496281
C36	C	0.091866	-0.957666	0.003719
C37	C	-0.417061	-1.316586	-0.507101
C38	C	0.082939	-0.816586	-0.007101
C39	C	-0.637943	-1.787346	-0.471030
C40	C	-0.137943	-1.287346	0.028970
C41	C	-0.745154	-1.787420	-0.471051
C42	C	-0.245154	-1.287420	0.028949
C43	C	-0.941446	-1.787547	-0.471121
C44	C	-0.441446	-1.287547	0.028879
C45	C	-0.832216	-1.787473	-0.471086
C46	C	-0.332216	-1.287473	0.028914
C47	C	-0.135728	-1.787558	-0.471115
C48	C	0.364272	-1.287558	0.028885
C49	C	-0.028513	-1.787610	-0.471138
C50	C	0.471487	-1.287610	0.028862
C51	C	-0.408102	-1.762141	-0.802114
C52	C	0.091898	-1.262141	-0.302114
C53	C	-0.416956	-1.751362	-0.943190
C54	C	0.083044	-1.251362	-0.443190
C55	C	-0.366426	-1.118494	-0.445732
C56	C	0.133574	-0.618494	0.054268
C57	C	-0.357495	-1.259573	-0.434918
C58	C	0.142505	-0.759573	0.065082
C59	C	-0.366555	-1.812705	-0.141288
C60	C	0.133445	-1.312705	0.358712
C61	C	-0.357414	-1.823729	-0.000194
C62	C	0.142586	-1.323729	0.499806
H63	H	-0.474897	-1.257461	-0.577175
H64	H	0.025103	-0.757461	-0.077175
H65	H	-0.299669	-1.318691	-0.364841
H66	H	0.200331	-0.818691	0.135159
H67	H	-0.299654	-1.893920	-0.941072
H68	H	0.200346	-1.393920	-0.441072
H69	H	-0.474710	-1.681153	-1.002320
H70	H	0.025290	-1.181153	-0.502320
