data_functionalizedCrystal
_audit_creation_method	'MofGen! by Chris Wilmer'
_symmetry_space_group_name_H-M	'P1'
_symmetry_Int_Tables_number	1
_symmetry_cell_setting	triclinic
loop_
_symmetry_equiv_pos_as_xyz
  x,y,z
_cell_length_a	18.215407
_cell_length_b	12.594516
_cell_length_c	18.215399
_cell_angle_alpha	90.023782
_cell_angle_beta	90.019833
_cell_angle_gamma	90.012264
loop_
_atom_site_label
_atom_site_type_symbol
_atom_site_fract_x
_atom_site_fract_y
_atom_site_fract_z
Zn1	Zn	1.125139	-0.423740	0.416137
Zn2	Zn	1.625139	0.076260	0.916137
Zn3	Zn	1.125075	-0.601738	0.293080
Zn4	Zn	1.625075	-0.101738	0.793080
Zn5	Zn	1.002071	-0.423775	0.293085
Zn6	Zn	1.502071	0.076225	0.793085
Zn7	Zn	1.002065	-0.601679	0.416105
Zn8	Zn	1.502065	-0.101679	0.916105
O9	O	1.063588	-0.512733	0.354602
O10	O	1.563588	-0.012733	0.854602
O11	O	1.228115	-0.447362	0.399825
O12	O	1.728115	0.052638	0.899825
O13	O	1.108734	-0.578170	0.190096
O14	O	1.608734	-0.078170	0.690096
O15	O	1.018426	-0.274825	0.309423
O16	O	1.518426	0.225175	0.809423
O17	O	1.228068	-0.578136	0.309415
O18	O	1.728068	-0.078136	0.809415
O19	O	1.108843	-0.274799	0.399830
O20	O	1.608843	0.225201	0.899830
O21	O	1.018364	-0.447422	0.190100
O22	O	1.518364	0.052578	0.690100
O23	O	0.899086	-0.447364	0.309392
O24	O	1.399086	0.052636	0.809392
O25	O	1.018415	-0.578035	0.519093
O26	O	1.518415	-0.078035	1.019093
O27	O	0.899082	-0.578069	0.399774
O28	O	1.399082	-0.078069	0.899774
O29	O	1.108837	-0.447305	0.519117
O30	O	1.608837	0.052695	1.019117
O31	O	1.108729	-0.750676	0.309384
O32	O	1.608729	-0.250676	0.809384
O33	O	1.018354	-0.750632	0.399770
O34	O	1.518354	-0.250632	0.899770
C35	C	0.872381	-0.512715	0.354580
C36	C	1.372381	-0.012715	0.854580
C37	C	0.790583	-0.512733	0.354589
C38	C	1.290583	-0.012733	0.854589
C39	C	0.602406	-0.580898	0.401592
C40	C	1.102406	-0.080898	0.901592
C41	C	0.525547	-0.580901	0.401601
C42	C	1.025547	-0.080901	0.901601
C43	C	0.525522	-0.444588	0.307627
C44	C	1.025522	0.055412	0.807627
C45	C	0.602379	-0.444580	0.307622
C46	C	1.102379	0.055420	0.807622
C47	C	0.640819	-0.512741	0.354604
C48	C	1.140819	-0.012741	0.854604
C49	C	0.487103	-0.512752	0.354618
C50	C	0.987103	-0.012752	0.854618
C51	C	0.403769	-0.512755	0.354627
C52	C	0.903769	-0.012755	0.854627
C53	C	0.724158	-0.512736	0.354595
C54	C	1.224158	-0.012736	0.854595
C55	C	1.063554	-0.789274	0.354589
C56	C	1.563554	-0.289274	0.854589
C57	C	1.063606	-0.907579	0.354608
C58	C	1.563606	-0.407579	0.854608
C59	C	1.112818	-0.976817	0.305499
C60	C	1.612818	-0.476817	0.805499
C61	C	1.130801	-1.047521	0.372671
C62	C	1.630801	-0.547521	0.872671
C63	C	1.045716	-1.047675	0.287480
C64	C	1.545716	-0.547675	0.787480
C65	C	1.081623	-0.976724	0.421814
C66	C	1.581623	-0.476724	0.921814
C67	C	0.996507	-0.976872	0.336578
C68	C	1.496507	-0.476872	0.836578
C69	C	1.014464	-1.047544	0.403795
C70	C	1.514464	-0.547544	0.903795
C71	C	1.255541	-0.512752	0.354623
C72	C	1.755541	-0.012752	0.854623
C73	C	1.337339	-0.512760	0.354632
C74	C	1.837339	-0.012760	0.854632
C75	C	1.063633	-0.512660	0.546555
C76	C	1.563633	-0.012660	1.046555
C77	C	1.063652	-0.512628	0.628354
C78	C	1.563652	-0.012628	1.128354
C79	C	1.063642	-0.235112	0.354631
C80	C	1.563642	0.264888	0.854631
C81	C	1.063665	-0.116807	0.354643
C82	C	1.563665	0.383193	0.854643
C83	C	1.063585	-0.512729	0.163395
C84	C	1.563585	-0.012729	0.663395
C85	C	1.063709	-0.512461	0.081597
C86	C	1.563709	-0.012461	0.581597
C87	C	1.110751	-0.444493	0.816561
C88	C	1.610751	0.055507	1.316561
C89	C	1.110760	-0.444462	0.893420
C90	C	1.610760	0.055538	1.393420
C91	C	1.016604	-0.580599	0.893384
C92	C	1.516604	-0.080599	1.393384
C93	C	1.016592	-0.580624	0.816526
C94	C	1.516592	-0.080624	1.316526
C95	C	1.063670	-0.512572	0.778117
C96	C	1.563670	-0.012572	1.278117
C97	C	1.063691	-0.512517	0.931833
C98	C	1.563691	-0.012517	1.431833
C99	C	1.063700	-0.512483	1.015167
C100	C	1.563700	-0.012483	1.515167
C101	C	1.063660	-0.512604	0.694778
C102	C	1.563660	-0.012604	1.194778
H103	H	0.633656	-0.389071	0.269359
H104	H	1.133656	0.110929	0.769359
C105	C	0.407743	-0.641433	0.443342
C106	C	0.907743	-0.141433	0.943342
C107	C	0.483322	-0.655821	0.453252
C108	C	0.983322	-0.155821	0.953252
H109	H	0.381677	-0.687683	0.475235
H110	H	0.881677	-0.187683	0.975235
H111	H	0.395127	-0.656923	0.393885
H112	H	0.895127	-0.156923	0.893885
H113	H	0.395169	-0.569936	0.454198
H114	H	0.895169	-0.069936	0.954198
H115	H	0.495897	-0.727317	0.442390
H116	H	0.995897	-0.227317	0.942390
H117	H	0.495943	-0.640339	0.502720
H118	H	0.995943	-0.140339	1.002720
C119	C	1.165831	-0.872909	0.493523
C120	C	1.665831	-0.372909	0.993523
C121	C	1.102181	-0.934844	0.498494
C122	C	1.602181	-0.434844	0.998494
H123	H	1.178526	-0.847060	0.540861
H124	H	1.678526	-0.347060	1.040861
H125	H	1.157240	-0.814734	0.461489
H126	H	1.657240	-0.314734	0.961489
H127	H	1.204899	-0.914938	0.474859
H128	H	1.704899	-0.414938	0.974859
H129	H	1.063111	-0.892813	0.517153
H130	H	1.563111	-0.392813	1.017153
H131	H	1.110769	-0.993028	0.530539
H132	H	1.610769	-0.493028	1.030539
C133	C	0.888243	-1.051962	0.441628
C134	C	1.388243	-0.551962	0.941628
C135	C	0.958316	-1.089213	0.459939
C136	C	1.458316	-0.589213	0.959939
H137	H	0.853584	-1.077685	0.476293
H138	H	1.353584	-0.577685	0.976293
H139	H	0.875407	-1.076395	0.393984
H140	H	1.375407	-0.576395	0.893984
H141	H	0.888214	-0.976541	0.442203
H142	H	1.388214	-0.476541	0.942203
H143	H	0.958347	-1.164634	0.459359
H144	H	1.458347	-0.664634	0.959359
H145	H	0.971156	-1.064786	0.507596
H146	H	1.471156	-0.564786	1.007596
C147	C	1.132811	-0.873794	0.196438
C148	C	1.632811	-0.373794	0.696438
C149	C	1.169002	-0.934886	0.249484
C150	C	1.669002	-0.434886	0.749484
H151	H	1.167498	-0.847913	0.161858
H152	H	1.667498	-0.347913	0.661858
H153	H	1.108976	-0.815643	0.219552
H154	H	1.608976	-0.315643	0.719552
H155	H	1.097422	-0.916401	0.171921
H156	H	1.597422	-0.416401	0.671921
H157	H	1.204388	-0.892276	0.274005
H158	H	1.704388	-0.392276	0.774005
H159	H	1.192849	-0.993046	0.226368
H160	H	1.692849	-0.493046	0.726368
H161	H	0.633701	-0.636396	0.439849
H162	H	1.133701	-0.136396	0.939849
H163	H	0.978248	-0.636061	0.785224
H164	H	1.478248	-0.136061	1.285224
H165	H	0.494215	-0.389095	0.269376
H166	H	0.994215	0.110905	0.769376
H167	H	1.149083	-0.389079	0.785291
H168	H	1.649083	0.110921	1.285291
H169	H	1.030559	-1.078839	0.230696
H170	H	1.530559	-0.578839	0.730696
C171	C	1.258856	-1.053737	0.341771
C172	C	1.758856	-0.553737	0.841771
C173	C	1.207435	-1.089430	0.393285
C174	C	1.707435	-0.589430	0.893285
H175	H	1.306165	-1.079614	0.354492
H176	H	1.806165	-0.579614	0.854492
H177	H	1.259500	-0.978329	0.341473
H178	H	1.759500	-0.478329	0.841473
H179	H	1.245779	-1.079080	0.294412
H180	H	1.745779	-0.579080	0.794412
H181	H	1.220508	-1.064080	0.440643
H182	H	1.720508	-0.564080	0.940643
H183	H	1.206792	-1.164854	0.393590
H184	H	1.706792	-0.664854	0.893590
C185	C	0.920531	-0.823765	0.316808
C186	C	1.420531	-0.323765	0.816808
C187	C	0.919892	-0.934933	0.315943
C188	C	1.419892	-0.434933	0.815943
H189	H	0.873230	-0.797875	0.304068
H190	H	1.373230	-0.297875	0.804068
H191	H	0.955584	-0.798502	0.282397
H192	H	1.455584	-0.298502	0.782397
H193	H	0.933202	-0.799526	0.364552
H194	H	1.433202	-0.299526	0.864552
H195	H	0.907226	-0.959172	0.268198
H196	H	1.407226	-0.459172	0.768198
H197	H	0.884828	-0.960206	0.350356
H198	H	1.384828	-0.460206	0.850356
C199	C	1.203834	-0.309913	0.885730
C200	C	1.703834	0.190087	1.385730
C201	C	1.162517	-0.369632	0.935678
C202	C	1.662517	0.130368	1.435678
H203	H	1.235790	-0.263719	0.911820
H204	H	1.735790	0.236281	1.411820
H205	H	1.171774	-0.269209	0.855753
H206	H	1.671774	0.230791	1.355753
H207	H	1.231968	-0.356315	0.855752
H208	H	1.731968	0.143685	1.355752
H209	H	1.134378	-0.323231	0.965652
H210	H	1.634378	0.176769	1.465652
H211	H	1.194581	-0.410340	0.965667
H212	H	1.694581	0.089660	1.465667
C213	C	0.974819	-0.641014	1.011186
C214	C	1.474819	-0.141014	1.511186
C215	C	0.964864	-0.655406	0.935606
C216	C	1.464864	-0.155406	1.435606
H217	H	0.942879	-0.687205	1.037249
H218	H	1.442879	-0.187205	1.537249
H219	H	0.964060	-0.569504	1.023786
H220	H	1.464060	-0.069504	1.523786
H221	H	1.024268	-0.656591	1.023780
H222	H	1.524268	-0.156591	1.523780
H223	H	0.915416	-0.639822	0.923011
H224	H	1.415416	-0.139822	1.423011
H225	H	0.975617	-0.726933	0.923001
H226	H	1.475617	-0.226933	1.423001
