data_functionalizedCrystal
_audit_creation_method	'MofGen! by Chris Wilmer'
_symmetry_space_group_name_H-M	'P1'
_symmetry_Int_Tables_number	1
_symmetry_cell_setting	triclinic
loop_
_symmetry_equiv_pos_as_xyz
  x,y,z
_cell_length_a	13.635800
_cell_length_b	11.353885
_cell_length_c	14.730271
_cell_angle_alpha	95.576621
_cell_angle_beta	47.431671
_cell_angle_gamma	107.526914
loop_
_atom_site_label
_atom_site_type_symbol
_atom_site_fract_x
_atom_site_fract_y
_atom_site_fract_z
V1	V	-2.173612	-0.352208	0.243778
O2	O	-2.086190	-0.383226	0.073342
O3	O	-2.223416	-0.313519	0.401567
O4	O	-2.185012	-0.522370	0.277350
O5	O	-2.124859	-0.172929	0.198419
V6	V	-2.401224	-0.335172	0.218982
O7	O	-2.335280	-0.389578	0.298170
O8	O	-2.464655	-0.297802	0.164590
O9	O	-2.239817	-0.373861	0.061193
O10	O	-2.547344	-0.304154	0.389419
O11	O	-2.508675	-0.514451	0.264341
O12	O	-2.278220	-0.165010	0.185411
C13	C	-2.162767	-0.298601	0.438867
C14	C	-2.244368	-0.268103	0.568102
C15	C	-2.113778	-0.565010	0.280413
C16	C	-2.164231	-0.703880	0.308905
C17	C	-2.377905	-0.258661	0.636054
C18	C	-2.454601	-0.230023	0.757492
C19	C	-2.397754	-0.210818	0.810972
C20	C	-2.264207	-0.220266	0.743011
C21	C	-2.187518	-0.248912	0.621579
C22	C	-2.116193	-0.771923	0.216662
C23	C	-2.168337	-0.915452	0.246108
V24	V	-1.673612	-0.352208	0.243778
O25	O	-1.586190	-0.383226	0.073342
O26	O	-1.723416	-0.313519	0.401567
O27	O	-1.685012	-0.522370	0.277350
O28	O	-1.624859	-0.172929	0.198419
V29	V	-1.901224	-0.335172	0.218982
O30	O	-1.835280	-0.389578	0.298170
O31	O	-1.964655	-0.297802	0.164590
O32	O	-1.739817	-0.373861	0.061193
O33	O	-2.047344	-0.304154	0.389419
O34	O	-2.008675	-0.514451	0.264341
O35	O	-1.778220	-0.165010	0.185411
C36	C	-2.132138	-0.388774	0.023899
C37	C	-2.040158	-0.419280	-0.105333
C38	C	-2.181125	-0.122362	0.182350
C39	C	-2.120289	0.016507	0.153851
C40	C	-1.939800	-0.327934	-0.201830
C41	C	-1.844732	-0.359462	-0.335399
C42	C	-1.662767	-0.298601	0.438867
C43	C	-1.744368	-0.268103	0.568102
C44	C	-1.613778	-0.565010	0.280413
C45	C	-1.664231	-0.703880	0.308905
C46	C	-1.632138	-0.388774	0.023899
C47	C	-1.540158	-0.419280	-0.105333
C48	C	-1.681125	-0.122362	0.182350
C49	C	-1.620289	0.016507	0.153851
C50	C	-1.783102	-0.774131	0.329443
C51	C	-1.830511	-0.904616	0.356199
C52	C	-1.759053	-0.964847	0.362425
C53	C	-1.640169	-0.894586	0.341882
C54	C	-1.592756	-0.764105	0.315118
C55	C	-1.579117	-0.428725	-0.173284
C56	C	-1.492695	-0.457369	-0.294720
C57	C	-1.367319	-0.476576	-0.348198
C58	C	-1.328358	-0.467126	-0.280240
C59	C	-1.414775	-0.438474	-0.158810
C60	C	-1.509518	0.076703	0.147619
C61	C	-1.452331	0.207184	0.120827
C62	C	-1.505924	0.277468	0.100277
C63	C	-1.616703	0.217264	0.106508
C64	C	-1.673881	0.086784	0.133290
H65	H	-2.424210	-0.274287	0.592525
H66	H	-1.681201	-0.413091	-0.129758
N67	N	-1.793360	0.021879	0.140011
H68	H	-1.876412	0.051195	0.207319
H69	H	-1.821349	-0.071431	0.160051
N70	N	-1.865329	-0.493982	-0.356924
H71	H	-1.794494	-0.497437	-0.449289
H72	H	-1.963554	-0.533929	-0.322816
H73	H	-1.383042	-0.430797	-0.103488
N74	N	-1.444237	0.418199	0.071391
H75	H	-1.455281	0.452031	0.142853
H76	H	-1.495020	0.453502	0.059289
H77	H	-2.563336	-0.222332	0.812808
N78	N	-1.674494	0.293076	0.084334
H79	H	-1.621456	0.384866	0.066426
H80	H	-1.777460	0.276871	0.160989
H81	H	-1.728812	-0.166551	-0.415636
N82	N	-2.480477	-0.179921	0.941945
H83	H	-2.573696	-0.176852	0.976868
H84	H	-2.425619	-0.096017	0.940440
H85	H	-2.248064	-0.963452	0.346887
H86	H	-1.362130	0.256184	0.115758
H87	H	-1.524442	-0.465061	-0.350035
N88	N	-1.451695	0.000906	0.169767
H89	H	-1.528823	-0.049063	0.256295
H90	H	-1.372821	0.058928	0.161677
N91	N	-2.202888	-0.199518	0.800688
H92	H	-2.271736	-0.179922	0.887919
H93	H	-2.112072	-0.127279	0.748472
N94	N	-1.958746	-0.980386	0.378374
H95	H	-1.932198	-1.039127	0.314697
H96	H	-1.996770	-0.922344	0.370408
N97	N	-2.043487	-0.259093	0.548293
H98	H	-2.019124	-0.242577	0.600607
H99	H	-1.971666	-0.195661	0.469781
N100	N	-1.860175	-0.709191	0.322707
H101	H	-1.812113	-0.615868	0.302632
H102	H	-1.960503	-0.729809	0.405606
N103	N	-2.010543	-0.708350	0.083169
H104	H	-1.988253	-0.614827	0.081055
H105	H	-2.051068	-0.737316	0.044424
N106	N	-1.810228	-1.105583	0.391299
H107	H	-1.834773	-1.130677	0.470040
H108	H	-1.733778	-1.139349	0.319772
N109	N	-2.060748	-0.553793	-0.126865
H110	H	-1.989913	-0.557248	-0.219230
H111	H	-2.158972	-0.593740	-0.092758
N112	N	-2.014664	-0.919929	0.020353
H113	H	-1.992381	-0.826406	0.018237
H114	H	-2.055221	-0.948910	-0.018365
H115	H	-1.296965	-0.499905	-0.447076
N116	N	-2.269835	-0.767451	0.442395
H117	H	-2.292114	-0.860973	0.444508
H118	H	-2.358728	-0.745310	0.490853
N119	N	-1.563111	-0.959555	0.348613
H120	H	-1.462776	-0.939051	0.265731
H121	H	-1.611309	-1.052852	0.368739
N122	N	-1.919231	-0.193420	-0.180300
H123	H	-1.990077	-0.189964	-0.087936
H124	H	-1.932771	-0.146888	-0.224281
N125	N	-1.464543	-0.688340	0.292970
H126	H	-1.426482	-0.746305	0.300981
H127	H	-1.491201	-0.629605	0.356659
H128	H	-1.226265	-0.482767	-0.323801
