data_functionalizedCrystal
_audit_creation_method	'MofGen! by Chris Wilmer'
_symmetry_space_group_name_H-M	'P1'
_symmetry_Int_Tables_number	1
_symmetry_cell_setting	triclinic
loop_
_symmetry_equiv_pos_as_xyz
  x,y,z
_cell_length_a	13.897448
_cell_length_b	13.033385
_cell_length_c	13.032268
_cell_angle_alpha	105.160384
_cell_angle_beta	82.851959
_cell_angle_gamma	97.153102
loop_
_atom_site_label
_atom_site_type_symbol
_atom_site_fract_x
_atom_site_fract_y
_atom_site_fract_z
Zn1	Zn	-0.611412	-1.547436	0.393984
Zn2	Zn	-0.754546	-1.569889	0.216387
Zn3	Zn	-0.575126	-1.392389	0.238985
Zn4	Zn	-0.754504	-1.369808	0.416530
O5	O	-0.673897	-1.469880	0.316471
O6	O	-0.645602	-1.699037	0.351532
O7	O	-0.715577	-1.565191	0.070757
O8	O	-0.444966	-1.413010	0.259568
O9	O	-0.750762	-1.715533	0.221053
O10	O	-0.471625	-1.526922	0.373445
O11	O	-0.583758	-1.434782	0.087359
O12	O	-0.583717	-1.240771	0.281430
O13	O	-0.750691	-1.374523	0.562167
O14	O	-0.715506	-1.224181	0.411871
O15	O	-0.645562	-1.505026	0.545602
O16	O	-0.889513	-1.543294	0.242915
O17	O	-0.889483	-1.396295	0.389959
C18	C	-0.645670	-1.193940	0.351549
C19	C	-0.633620	-1.075888	0.366581
C20	C	-0.667725	-0.909415	0.324161
C21	C	-0.680182	-1.031429	0.308620
C22	C	-0.924500	-1.469807	0.316451
C23	C	-1.031723	-1.469868	0.316465
C24	C	-1.228036	-1.469971	0.316517
C25	C	-1.118794	-1.469910	0.316492
C26	C	-0.422320	-1.469980	0.316512
C27	C	-0.315113	-1.470023	0.316529
C28	C	-0.702169	-1.434751	0.593500
C29	C	-0.714217	-1.419781	0.711553
C30	C	-0.702227	-0.746900	0.281246
C31	C	-0.714281	-0.864953	0.266208
C32	C	-0.645671	-1.504934	0.040513
C33	C	-0.633373	-1.520110	-0.077565
C34	C	-0.667573	-1.477677	0.755989
C35	C	-0.680024	-1.462206	0.878002
H36	H	-0.763367	-0.917215	0.205092
C37	C	-0.471853	-1.576223	0.881553
C38	C	-0.567003	-1.602490	0.851876
H39	H	-0.430878	-1.627076	0.837992
H40	H	-0.471532	-1.576632	0.954284
H41	H	-0.448614	-1.507150	0.872493
H42	H	-0.590244	-1.671560	0.860944
H43	H	-0.567327	-1.602092	0.779128
H44	H	-0.618417	-1.538693	0.703702
H45	H	-0.763362	-1.358754	0.763840
H46	H	-0.584539	-1.023629	0.427710
C47	C	-0.745884	-1.380453	1.055784
C48	C	-0.746390	-1.379830	0.948573
H49	H	-0.786862	-1.329604	1.099348
H50	H	-0.681333	-1.362644	1.075891
H51	H	-0.769131	-1.449532	1.064821
H52	H	-0.723136	-1.310753	0.939534
H53	H	-0.810955	-1.397632	0.928459
H54	H	-0.618650	-0.857151	0.385287
H55	H	-0.729272	-1.083688	0.247500
