data_functionalizedCrystal
_audit_creation_method	'MofGen! by Chris Wilmer'
_symmetry_space_group_name_H-M	'P1'
_symmetry_Int_Tables_number	1
_symmetry_cell_setting	triclinic
loop_
_symmetry_equiv_pos_as_xyz
  x,y,z
_cell_length_a	19.805407
_cell_length_b	12.759399
_cell_length_c	19.805399
_cell_angle_alpha	90.023653
_cell_angle_beta	90.017803
_cell_angle_gamma	90.012432
loop_
_atom_site_label
_atom_site_type_symbol
_atom_site_fract_x
_atom_site_fract_y
_atom_site_fract_z
Zn1	Zn	1.034789	-0.418366	0.382706
Zn2	Zn	1.034726	-0.594059	0.269526
Zn3	Zn	0.921603	-0.418387	0.269534
Zn4	Zn	0.921589	-0.593995	0.382676
O5	O	0.978177	-0.506202	0.326110
O6	O	1.129497	-0.441690	0.367702
O7	O	1.019700	-0.570791	0.174810
O8	O	0.936650	-0.271363	0.284563
O9	O	1.129451	-0.570771	0.284548
O10	O	1.019807	-0.271348	0.367710
O11	O	0.936589	-0.441725	0.174816
O12	O	0.826885	-0.441663	0.284534
O13	O	0.936626	-0.570662	0.477397
O14	O	0.826875	-0.570682	0.367658
O15	O	1.019793	-0.441628	0.477419
O16	O	1.019686	-0.741072	0.284519
O17	O	0.936565	-0.741025	0.367650
C18	C	0.802321	-0.506169	0.326094
C19	C	0.727089	-0.506180	0.326103
C20	C	0.691769	-0.439086	0.369467
C21	C	0.621081	-0.439092	0.369469
C22	C	0.585713	-0.506197	0.326111
C23	C	0.621038	-0.573294	0.282743
C24	C	0.691725	-0.573282	0.282737
C25	C	0.335964	-0.573341	0.282763
C26	C	0.265272	-0.573350	0.282774
C27	C	0.265321	-0.439151	0.369496
C28	C	0.336008	-0.439139	0.369490
C29	C	0.371326	-0.506231	0.326119
C30	C	0.447974	-0.506223	0.326116
C31	C	0.509066	-0.506211	0.326117
C32	C	0.978135	-0.779169	0.326095
C33	C	0.978180	-0.895946	0.326111
C34	C	1.021510	-0.950797	0.282874
C35	C	1.021553	-1.060521	0.282897
C36	C	0.934930	-1.060533	0.369396
C37	C	0.934891	-0.950811	0.369376
C38	C	1.101446	-1.210401	0.258812
C39	C	1.144771	-1.265256	0.215564
C40	C	1.155188	-1.229704	0.149523
C41	C	1.122271	-1.139298	0.126717
C42	C	1.078942	-1.084449	0.169961
C43	C	1.068537	-1.119999	0.236011
C44	C	0.854997	-0.800929	0.393454
C45	C	0.811663	-0.746077	0.436695
C46	C	0.801239	-0.781627	0.502737
C47	C	0.834144	-0.872037	0.525541
C48	C	0.877478	-0.926888	0.482300
C49	C	0.887903	-0.891331	0.416259
C50	C	1.154720	-0.506236	0.326127
C51	C	1.229952	-0.506250	0.326135
C52	C	0.978215	-0.506136	0.502653
C53	C	0.978231	-0.506107	0.577885
C54	C	0.978237	-0.232168	0.326141
C55	C	0.978263	-0.115392	0.326154
C56	C	0.978178	-0.506192	0.150255
C57	C	0.978293	-0.505924	0.075023
C58	C	1.021537	-0.438916	0.613242
C59	C	1.021544	-0.438886	0.683931
C60	C	0.978248	-0.506052	0.719261
C61	C	0.934937	-0.573247	0.683899
C62	C	0.934927	-0.573271	0.613212
C63	C	0.934975	-0.573149	0.968973
C64	C	0.934990	-0.573122	1.039665
C65	C	1.021592	-0.438763	1.039691
C66	C	1.021582	-0.438788	0.969004
C67	C	0.978269	-0.505977	0.933648
C68	C	0.978261	-0.506008	0.857000
C69	C	0.978259	-0.506028	0.795908
H70	H	0.236556	-0.384517	0.404808
H71	H	1.056810	-0.384174	0.712715
F72	F	0.729404	-0.367667	0.415618
F73	F	0.583494	-0.367684	0.415624
H74	H	1.056841	-0.384097	0.940242
F75	F	1.067688	-0.367249	1.077325
H76	H	1.056760	-0.906129	0.247646
H77	H	0.825657	-0.900982	0.579318
F78	F	0.729314	-0.644693	0.236584
H79	H	0.899656	-0.627975	0.584425
H80	H	0.364801	-0.384499	0.404799
F81	F	0.227633	-0.644774	0.236622
H82	H	1.056796	-0.384224	0.584481
H83	H	0.364712	-0.627973	0.247449
F84	F	0.776624	-0.649875	0.412415
H85	H	0.899717	-0.627874	0.940195
H86	H	0.592236	-0.627927	0.247436
H87	H	1.130751	-1.110365	0.072937
H88	H	0.899685	-1.105217	0.404619
F89	F	0.888855	-0.644727	0.721502
H90	H	0.765951	-0.736958	0.537943
F91	F	0.912499	-1.023111	0.506572
H92	H	0.899730	-0.627819	1.068429
H93	H	1.052143	-1.010841	0.151392
H94	H	1.190465	-1.274375	0.114311
H95	H	0.863486	-0.771969	0.339679
F96	F	1.179802	-1.361470	0.239838
H97	H	1.092975	-1.239350	0.312589
