data_functionalizedCrystal
_audit_creation_method	'MofGen! by Chris Wilmer'
_symmetry_space_group_name_H-M	'P1'
_symmetry_Int_Tables_number	1
_symmetry_cell_setting	triclinic
loop_
_symmetry_equiv_pos_as_xyz
  x,y,z
_cell_length_a	19.288840
_cell_length_b	16.776229
_cell_length_c	19.288865
_cell_angle_alpha	89.991353
_cell_angle_beta	96.868869
_cell_angle_gamma	90.012976
loop_
_atom_site_label
_atom_site_type_symbol
_atom_site_fract_x
_atom_site_fract_y
_atom_site_fract_z
O1	O	0.921361	0.066430	-0.086563
O2	O	1.421361	0.566430	0.413437
O3	O	0.719098	0.066404	-0.098270
O4	O	1.219098	0.566404	0.401730
O5	O	0.826074	0.066402	0.008714
O6	O	1.326074	0.566402	0.508714
O7	O	0.814385	0.066432	-0.193548
O8	O	1.314385	0.566432	0.306452
O9	O	0.826062	-0.066174	0.008714
O10	O	1.326062	0.433826	0.508714
O11	O	0.719086	-0.066172	-0.098270
O12	O	1.219086	0.433828	0.401730
O13	O	0.921349	-0.066146	-0.086563
O14	O	1.421349	0.433854	0.413437
Zn15	Zn	0.820215	-0.087209	-0.092416
Zn16	Zn	1.320215	0.412791	0.407584
Zn17	Zn	0.820231	0.087467	-0.092417
Zn18	Zn	1.320231	0.587467	0.407583
O19	O	0.814373	-0.066144	-0.193547
O20	O	1.314373	0.433856	0.306453
C21	C	0.693215	0.000112	-0.097896
C22	C	1.193215	0.500112	0.402104
C23	C	0.616110	0.000101	-0.096774
C24	C	1.116110	0.500101	0.403226
N25	N	0.820209	-0.206420	-0.092416
N26	N	1.320209	0.293580	0.407584
C27	C	0.579913	0.072371	-0.096235
C28	C	1.079913	0.572371	0.403765
C29	C	0.507467	0.072380	-0.095173
C30	C	1.007467	0.572380	0.404827
C31	C	0.471221	0.000116	-0.094636
C32	C	0.971221	0.500116	0.405364
C33	C	0.507426	-0.072162	-0.095179
C34	C	1.007426	0.427838	0.404821
C35	C	0.579871	-0.072170	-0.096248
C36	C	1.079871	0.427830	0.403752
C37	C	0.361889	-0.055243	-0.052258
C38	C	0.861889	0.444757	0.447742
C39	C	0.289446	-0.055232	-0.051185
C40	C	0.789446	0.444768	0.448815
C41	C	0.247778	0.000137	-0.091342
C42	C	0.747778	0.500137	0.408658
C43	C	0.278562	0.055509	-0.132564
C44	C	0.778562	0.555509	0.367436
C45	C	0.351007	0.055501	-0.133633
C46	C	0.851007	0.555501	0.366367
C47	C	0.392667	0.000117	-0.093477
C48	C	0.892667	0.500117	0.406523
C49	C	0.133025	0.072422	-0.089653
C50	C	0.633025	0.572422	0.410347
C51	C	0.060577	0.072428	-0.088595
C52	C	0.560577	0.572428	0.411405
C53	C	0.060539	-0.072117	-0.088594
C54	C	0.560539	0.427883	0.411406
C55	C	0.132985	-0.072121	-0.089658
C56	C	0.632985	0.427879	0.410342
C57	C	0.169225	0.000150	-0.090185
C58	C	0.669225	0.500150	0.409815
C59	C	0.862201	-0.248121	-0.134434
C60	C	1.362201	0.251879	0.365566
C61	C	0.862209	-0.331573	-0.134431
C62	C	1.362209	0.168427	0.365569
C63	C	0.820221	-0.373323	-0.092414
C64	C	1.320221	0.126677	0.407586
C65	C	0.778227	-0.331616	-0.050391
C66	C	1.278227	0.168384	0.449609
C67	C	0.778224	-0.248165	-0.050390
C68	C	1.278224	0.251835	0.449610
C69	C	0.778241	-0.668163	-0.050391
C70	C	1.278241	-0.168163	0.449609
C71	C	0.778247	-0.751619	-0.050397
C72	C	1.278247	-0.251619	0.449603
C73	C	0.862226	-0.751571	-0.134433
C74	C	1.362226	-0.251571	0.365567
C75	C	0.862223	-0.668120	-0.134432
C76	C	1.362223	-0.168120	0.365568
C77	C	0.820233	-0.626421	-0.092407
C78	C	1.320233	-0.126421	0.407593
C79	C	0.820226	-0.535932	-0.092409
C80	C	1.320226	-0.035932	0.407591
C81	C	0.820223	-0.463810	-0.092415
C82	C	1.320223	0.036190	0.407585
C83	C	0.947232	0.000148	-0.086937
C84	C	1.447232	0.500148	0.413063
C85	C	1.024336	0.000164	-0.088059
C86	C	1.524336	0.500164	0.411941
C87	C	0.825692	0.000112	0.034591
C88	C	1.325692	0.500112	0.534591
C89	C	0.824563	0.000104	0.111694
C90	C	1.324563	0.500104	0.611694
N91	N	0.820243	0.206678	-0.092412
N92	N	1.320243	0.706678	0.407588
C93	C	0.814755	0.000148	-0.219424
C94	C	1.314755	0.500148	0.280576
C95	C	0.815884	0.000161	-0.296527
C96	C	1.315884	0.500161	0.203473
C97	C	0.887331	0.000109	0.156396
C98	C	1.387331	0.500109	0.656396
C99	C	0.886270	0.000121	0.228843
C100	C	1.386270	0.500121	0.728843
C101	C	0.822438	0.000113	0.256585
C102	C	1.322438	0.500113	0.756585
C103	C	0.759661	0.000114	0.211873
C104	C	1.259661	0.500114	0.711873
C105	C	0.760723	0.000109	0.139428
C106	C	1.260723	0.500109	0.639428
C107	C	0.772253	-0.046332	0.364868
C108	C	1.272253	0.453668	0.864868
C109	C	0.771193	-0.046332	0.437312
C110	C	1.271193	0.453668	0.937312
C111	C	0.819158	0.000131	0.480030
C112	C	1.319158	0.500131	0.980030
C113	C	0.868194	0.046584	0.450296
C114	C	1.368194	0.546584	0.950296
C115	C	0.869257	0.046579	0.377851
C116	C	1.369257	0.546579	0.877851
C117	C	0.821278	0.000119	0.335139
C118	C	1.321278	0.500119	0.835139
C119	C	0.880781	0.000150	0.603288
C120	C	1.380781	0.500150	1.103288
C121	C	0.879717	0.000167	0.675736
C122	C	1.379717	0.500167	1.175736
C123	C	0.753106	0.000151	0.658764
C124	C	1.253106	0.500151	1.158764
C125	C	0.754171	0.000142	0.586318
C126	C	1.254171	0.500142	1.086318
C127	C	0.818010	0.000137	0.558584
C128	C	1.318010	0.500137	1.058584
H129	H	0.609415	0.131220	-0.096664
H130	H	1.109415	0.631220	0.403336
F131	F	0.693913	0.000105	0.091850
F132	F	1.193913	0.500105	0.591850
F133	F	0.687363	0.000134	0.538741
F134	F	1.187363	0.500134	1.038741
F135	F	0.691725	0.000110	0.241399
F136	F	1.191725	0.500110	0.741399
F137	F	0.256688	-0.114175	-0.007327
F138	F	0.756688	0.385825	0.492673
H139	H	0.896419	-0.785533	-0.168650
H140	H	1.396419	-0.285533	0.331350
H141	H	0.162532	0.131269	-0.090088
H142	H	0.662532	0.631269	0.409912
F143	F	0.719008	-0.095775	0.468951
F144	F	1.219008	0.404225	0.968951
F145	F	0.953080	0.000127	0.276427
F146	F	1.453080	0.500127	0.776427
F147	F	0.406229	-0.114180	-0.009516
F148	F	0.906229	0.385820	0.490484
F149	F	0.171511	-0.149041	-0.090228
F150	F	0.671511	0.350959	0.409772
F151	F	0.468935	0.149302	-0.094600
F152	F	0.968935	0.649302	0.405400
H153	H	0.744053	-0.785610	-0.016179
H154	H	1.244053	-0.285610	0.483821
H155	H	0.896389	-0.214135	-0.168654
H156	H	1.396389	0.285865	0.331346
H157	H	0.609342	-0.131022	-0.096688
H158	H	1.109342	0.368978	0.403312
F159	F	0.921440	0.096020	0.346208
F160	F	1.421440	0.596020	0.846208
F161	F	0.021968	-0.149026	-0.088028
F162	F	0.521968	0.350974	0.411972
F163	F	0.383767	0.114428	-0.177504
F164	F	0.883767	0.614428	0.322496
H165	H	0.744051	-0.634221	-0.016171
H166	H	1.244051	-0.134221	0.483829
H167	H	0.733193	-0.084172	0.330092
H168	H	1.233193	0.415828	0.830092
F169	F	0.948723	0.000141	0.573769
F170	F	1.448723	0.500141	1.073769
F171	F	0.906901	-0.375951	-0.179154
F172	F	1.406901	0.124049	0.320846
H173	H	0.031106	0.131281	-0.088160
H174	H	0.531106	0.631281	0.411840
F175	F	0.234221	0.114439	-0.175308
F176	F	0.734221	0.614439	0.324692
H177	H	0.477911	-0.131000	-0.094743
H178	H	0.977911	0.369000	0.405257
F179	F	0.906904	-0.623692	-0.179161
F180	F	1.406904	-0.123692	0.320839
F181	F	0.733536	-0.203784	-0.005663
F182	F	1.233536	0.296216	0.494337
F183	F	0.733542	-0.376051	-0.005670
F184	F	1.233542	0.123949	0.494330
F185	F	0.919245	0.096038	0.495754
F186	F	1.419245	0.596038	0.995754
F187	F	0.955275	0.000121	0.126884
F188	F	1.455275	0.500121	0.626884
H189	H	0.930833	0.000175	0.712132
H190	H	1.430833	0.500175	1.212132
F191	F	0.685169	0.000147	0.688284
F192	F	1.185169	0.500147	1.188284
