data_functionalizedCrystal
_audit_creation_method	'MofGen! by Chris Wilmer'
_symmetry_space_group_name_H-M	'P1'
_symmetry_Int_Tables_number	1
_symmetry_cell_setting	triclinic
loop_
_symmetry_equiv_pos_as_xyz
  x,y,z
_cell_length_a	15.944545
_cell_length_b	15.944493
_cell_length_c	14.421503
_cell_angle_alpha	90.010165
_cell_angle_beta	89.995153
_cell_angle_gamma	83.485608
loop_
_atom_site_label
_atom_site_type_symbol
_atom_site_fract_x
_atom_site_fract_y
_atom_site_fract_z
O1	O	1.114510	0.108298	-0.077039
O2	O	0.869957	0.121660	-0.077053
O3	O	0.998937	-0.007299	-0.077053
O4	O	0.985530	0.237258	-0.077039
O5	O	0.998916	-0.007280	0.077170
O6	O	0.869935	0.121680	0.077171
O7	O	1.114489	0.108317	0.077184
Cu8	Cu	0.992210	0.115000	0.091259
Cu9	Cu	0.992235	0.114978	-0.091128
O10	O	0.985508	0.237277	0.077185
C11	C	0.838652	0.121116	0.000057
C12	C	0.745406	0.119456	0.000051
C13	C	0.998378	-0.038584	0.000054
C14	C	0.996735	-0.131833	0.000042
C15	C	0.474791	0.034560	0.000056
C16	C	0.525354	0.075499	0.076101
C17	C	0.409764	0.113535	0.000067
C18	C	0.525355	0.075502	-0.075951
C19	C	0.574677	0.116440	0.000057
C20	C	0.459098	0.154453	0.076174
C21	C	0.459096	0.154444	-0.075946
C22	C	0.509626	0.195442	0.000117
C23	C	0.314762	0.111860	0.000073
C24	C	0.669676	0.118122	0.000058
C25	C	1.072656	-0.367594	0.000064
C26	C	1.031726	-0.418171	-0.075978
C27	C	0.993691	-0.302554	0.000054
C28	C	1.031686	-0.418128	0.076074
C29	C	0.990757	-0.467463	0.000068
C30	C	0.952782	-0.351902	-0.076051
C31	C	0.952754	-0.351856	0.076069
C32	C	0.911766	-0.402400	0.000009
C33	C	0.995384	-0.207554	0.000044
C34	C	0.989058	-0.562460	0.000071
C35	C	1.145793	0.108862	0.000072
C36	C	1.239039	0.110522	0.000072
C37	C	0.986067	0.268562	0.000075
C38	C	0.987710	0.361811	0.000081
N39	N	0.992198	0.115016	0.219540
N40	N	0.992254	0.114956	-0.219409
C41	C	0.932548	0.174620	0.469194
C42	C	1.008444	0.190926	0.531003
C43	C	0.992219	0.114996	0.408702
C44	C	0.916342	0.098709	0.530987
C45	C	0.992232	0.114978	0.591423
C46	C	1.068154	0.131339	0.469149
C47	C	0.976001	0.039090	0.469129
C48	C	1.051953	0.055364	0.530909
C49	C	0.992210	0.115008	0.303441
C50	C	0.992249	0.114965	0.696682
H51	H	0.459152	-0.033454	0.000126
C52	C	0.530544	0.287394	0.000184
N53	N	0.546302	0.356651	0.000240
H54	H	0.919462	-0.323090	-0.140407
C55	C	0.419986	0.199449	-0.162798
N56	N	0.390527	0.233339	-0.228222
C57	C	0.564440	0.030416	-0.162801
N58	N	0.593875	-0.003548	-0.228214
C59	C	0.864450	0.242791	0.432575
N60	N	0.813164	0.294140	0.404990
H61	H	0.554283	0.042154	0.140387
C62	C	0.819806	-0.423296	-0.000052
N63	N	0.750543	-0.439036	-0.000101
H64	H	0.919426	-0.322886	0.140357
C65	C	1.154868	0.150047	0.432611
N66	N	1.220178	0.164142	0.405088
H67	H	1.140674	-0.351967	-0.000009
C68	C	1.026987	0.277633	0.567729
N69	N	1.040946	0.342943	0.595390
H70	H	1.102476	0.004931	0.557837
H71	H	0.430273	0.187790	0.140533
H72	H	0.962248	-0.025074	0.441930
C73	C	1.076790	-0.457295	-0.162819
N74	N	1.110739	-0.486764	-0.228224
H75	H	0.852168	0.084942	0.558153
H76	H	1.065042	-0.447052	0.140358
