data_functionalizedCrystal
_audit_creation_method	'MofGen! by Chris Wilmer'
_symmetry_space_group_name_H-M	'P1'
_symmetry_Int_Tables_number	1
_symmetry_cell_setting	triclinic
loop_
_symmetry_equiv_pos_as_xyz
  x,y,z
_cell_length_a	9.065218
_cell_length_b	9.065218
_cell_length_c	12.996460
_cell_angle_alpha	89.995720
_cell_angle_beta	89.994367
_cell_angle_gamma	85.015885
loop_
_atom_site_label
_atom_site_type_symbol
_atom_site_fract_x
_atom_site_fract_y
_atom_site_fract_z
O1	O	-1.960404	-0.216360	0.085565
O2	O	-1.531119	-0.234106	0.085566
O3	O	-1.754634	-0.010590	0.085563
O4	O	-1.736888	-0.439875	0.085568
O5	O	-1.754611	-0.010578	-0.085570
O6	O	-1.531095	-0.234093	-0.085568
O7	O	-1.960380	-0.216347	-0.085569
Cu8	Cu	-1.745735	-0.225219	-0.101194
Cu9	Cu	-1.745763	-0.225234	0.101191
O10	O	-1.736864	-0.439862	-0.085566
C11	C	-1.476120	-0.232394	-0.000001
C12	C	-1.312277	-0.227294	-0.000000
C13	C	-1.752917	0.044403	-0.000002
C14	C	-1.747817	0.208245	0.000003
C15	C	-2.015378	-0.218059	0.000000
C16	C	-2.179221	-0.223158	0.000006
N17	N	-1.745726	-0.225207	-0.243541
C18	C	-1.738582	-0.494855	0.000001
C19	C	-1.743681	-0.658698	0.000003
C20	C	-1.745761	-0.225236	-0.663356
C21	C	-1.745747	-0.225233	-0.546551
C22	C	-1.745745	-0.225223	-0.453452
C23	C	-1.745729	-0.225217	-0.336640
N24	N	-1.745784	-0.225234	0.243538
