data_functionalizedCrystal
_audit_creation_method	'MofGen! by Chris Wilmer'
_symmetry_space_group_name_H-M	'P1'
_symmetry_Int_Tables_number	1
_symmetry_cell_setting	triclinic
loop_
_symmetry_equiv_pos_as_xyz
  x,y,z
_cell_length_a	17.019311
_cell_length_b	16.098538
_cell_length_c	14.971486
_cell_angle_alpha	92.731634
_cell_angle_beta	96.494255
_cell_angle_gamma	96.609511
loop_
_atom_site_label
_atom_site_type_symbol
_atom_site_fract_x
_atom_site_fract_y
_atom_site_fract_z
O1	O	1.054165	0.144847	-0.105619
O2	O	1.554165	0.644847	0.394381
O3	O	0.823672	0.128317	-0.121098
O4	O	1.323672	0.628317	0.378902
O5	O	0.945097	0.137031	0.016883
O6	O	1.445097	0.637031	0.516883
O7	O	0.932741	0.136133	-0.243600
O8	O	1.432741	0.636133	0.256400
O9	O	0.938004	-0.001990	0.008854
O10	O	1.438004	0.498010	0.508854
O11	O	0.816579	-0.010705	-0.129126
O12	O	1.316579	0.489295	0.370874
O13	O	1.047072	0.005825	-0.113648
O14	O	1.547072	0.505825	0.386352
Zn15	Zn	0.930699	-0.024512	-0.122662
Zn16	Zn	1.430699	0.475488	0.377338
Zn17	Zn	0.940045	0.158655	-0.112084
Zn18	Zn	1.440045	0.658655	0.387916
O19	O	0.925648	-0.002889	-0.251628
O20	O	1.425648	0.497111	0.248372
C21	C	0.790628	0.056691	-0.124682
C22	C	1.290628	0.556691	0.375318
C23	C	0.702735	0.050389	-0.123391
C24	C	1.202735	0.550389	0.376609
N25	N	0.924327	-0.149519	-0.129881
N26	N	1.424327	0.350481	0.370119
C27	C	0.205434	0.010942	-0.116337
C28	C	0.705434	0.510942	0.383663
C29	C	0.288018	0.016865	-0.117550
C30	C	0.788018	0.516865	0.382450
C31	C	0.333178	0.095610	-0.113774
C32	C	0.833178	0.595610	0.386226
C33	C	0.295748	0.168435	-0.108793
C34	C	0.795748	0.668435	0.391207
C35	C	0.213164	0.162510	-0.107586
C36	C	0.713164	0.662510	0.392414
C37	C	0.582721	0.117289	-0.117204
C38	C	1.082721	0.617289	0.382796
C39	C	0.665311	0.123208	-0.118408
C40	C	1.165311	0.623208	0.381592
C41	C	0.657575	-0.028362	-0.127167
C42	C	1.157575	0.471638	0.372833
C43	C	0.574991	-0.034279	-0.125955
C44	C	1.074991	0.465721	0.374045
C45	C	0.537567	0.038546	-0.120979
C46	C	1.037567	0.538546	0.379021
C47	C	0.417593	0.101666	-0.115011
C48	C	0.917593	0.601666	0.384989
C49	C	0.453153	0.032488	-0.119748
C50	C	0.953153	0.532488	0.380252
C51	C	0.975884	-0.189404	-0.071337
C52	C	1.475884	0.310596	0.428663
C53	C	0.971433	-0.276912	-0.076395
C54	C	1.471433	0.223088	0.423605
C55	C	0.915430	-0.324534	-0.140002
C56	C	1.415430	0.175466	0.359998
C57	C	0.863868	-0.284643	-0.198549
C58	C	1.363868	0.215357	0.301451
C59	C	0.868315	-0.197136	-0.193485
C60	C	1.368315	0.302864	0.306515
C61	C	0.899309	-0.588941	-0.158341
C62	C	1.399309	-0.088941	0.341659
C63	C	0.894867	-0.676453	-0.163402
C64	C	1.394867	-0.176453	0.336598
C65	C	1.002432	-0.668716	-0.041246
C66	C	1.502432	-0.168716	0.458754
C67	C	1.006877	-0.581208	-0.036193
C68	C	1.506877	-0.081208	0.463807
C69	C	0.955313	-0.541325	-0.094736
C70	C	1.455313	-0.041325	0.405264
C71	C	0.910881	-0.413981	-0.145176
C72	C	1.410881	0.086019	0.354824
C73	C	0.959858	-0.451880	-0.089557
C74	C	1.459858	0.048120	0.410443
C75	C	1.080116	0.077453	-0.110063
C76	C	1.580116	0.577453	0.389937
C77	C	1.168009	0.083761	-0.111354
C78	C	1.668009	0.583761	0.388646
N79	N	0.946423	0.283662	-0.104858
N80	N	1.446423	0.783662	0.395142
C81	C	0.929747	0.066660	-0.280935
C82	C	1.429747	0.566660	0.219065
C83	C	0.931402	0.066774	-0.380222
C84	C	1.431402	0.566774	0.119778
C85	C	0.860069	0.061660	-0.437917
C86	C	1.360069	0.561660	0.062083
C87	C	0.861630	0.061783	-0.531206
C88	C	1.361630	0.561783	-0.031206
C89	C	0.934525	0.067015	-0.566797
C90	C	1.434525	0.567015	-0.066797
C91	C	1.005864	0.072133	-0.509094
C92	C	1.505864	0.572133	-0.009094
C93	C	1.004303	0.072015	-0.415807
C94	C	1.504303	0.572015	0.084193
C95	C	1.009114	0.072375	-0.703534
C96	C	1.509114	0.572375	-0.203534
C97	C	1.010676	0.072490	-0.796828
C98	C	1.510676	0.572490	-0.296828
C99	C	0.866441	0.062142	-0.818933
C100	C	1.366441	0.562142	-0.318933
C101	C	0.864880	0.062025	-0.725646
C102	C	1.364880	0.562025	-0.225646
C103	C	0.936219	0.067141	-0.667950
C104	C	1.436219	0.567141	-0.167950
C105	C	0.940998	0.067484	0.046190
C106	C	1.440998	0.567484	0.546190
C107	C	0.939343	0.067376	0.145476
C108	C	1.439343	0.567376	0.645476
H109	H	0.168670	-0.053180	-0.119417
H110	H	0.668670	0.446820	0.380583
H111	H	0.857324	-0.556475	-0.206011
H112	H	1.357324	-0.056475	0.293989
C113	C	0.849253	-0.466366	-0.215112
C114	C	1.349253	0.033634	0.284888
H115	H	0.819171	-0.430083	-0.249246
H116	H	1.319171	0.069917	0.250754
H117	H	0.876002	-0.498471	-0.254196
H118	H	1.376002	0.001529	0.245804
H119	H	0.814545	-0.502856	-0.185023
H120	H	1.314545	-0.002856	0.314977
H121	H	0.332523	0.232550	-0.105723
H122	H	0.832523	0.732550	0.394277
C123	C	1.037493	-0.137024	-0.001377
C124	C	1.537493	0.362976	0.498623
H125	H	1.032765	-0.079194	-0.006751
H126	H	1.532765	0.420806	0.493249
H127	H	1.028118	-0.151988	0.057452
H128	H	1.528118	0.348012	0.557452
H129	H	1.089610	-0.147566	-0.011683
H130	H	1.589610	0.352434	0.488317
C131	C	0.811606	-0.153263	-0.257887
C132	C	1.311606	0.346737	0.242113
H133	H	0.777620	-0.194155	-0.296500
H134	H	1.277620	0.305845	0.203500
H135	H	0.780356	-0.121501	-0.223893
H136	H	1.280356	0.378499	0.276107
H137	H	0.841859	-0.117073	-0.293014
H138	H	1.341859	0.382927	0.206986
C139	C	0.541569	0.197394	-0.111701
C140	C	1.041569	0.697394	0.388299
H141	H	0.580296	0.245137	-0.109608
H142	H	1.080296	0.745137	0.390392
H143	H	0.503525	0.197821	-0.163201
H144	H	1.003525	0.697821	0.336799
H145	H	0.515506	0.198651	-0.058877
H146	H	1.015506	0.698651	0.441123
C147	C	0.714985	0.209830	-0.114263
C148	C	1.214985	0.709830	0.385737
H149	H	0.680869	0.252354	-0.111137
H150	H	1.180869	0.752354	0.388863
H151	H	0.753347	0.215725	-0.062393
H152	H	1.253347	0.715725	0.437607
H153	H	0.741375	0.214852	-0.166719
H154	H	1.241375	0.714852	0.333281
H155	H	0.800708	0.057389	-0.408947
H156	H	1.300708	0.557389	0.091053
H157	H	1.005453	-0.413104	-0.037765
H158	H	1.505453	0.086896	0.462235
C159	C	0.802240	-0.337022	-0.268490
C160	C	1.302240	0.162978	0.231510
H161	H	0.772160	-0.300733	-0.302618
H162	H	1.272160	0.199267	0.197382
H163	H	0.828993	-0.369119	-0.307577
H164	H	1.328993	0.130881	0.192423
H165	H	0.767529	-0.373519	-0.238411
H166	H	1.267529	0.126481	0.261589
C167	C	0.783162	0.056147	-0.594668
C168	C	1.283162	0.556147	-0.094668
H169	H	0.739525	0.053002	-0.560111
H170	H	1.239525	0.553002	-0.060111
H171	H	0.783238	0.104456	-0.628716
H172	H	1.283238	0.604456	-0.128716
H173	H	0.778307	0.007491	-0.634321
H174	H	1.278307	0.507491	-0.134321
C175	C	1.028153	-0.320782	-0.012005
C176	C	1.528153	0.179218	0.487995
H177	H	1.062152	-0.279887	0.026592
H178	H	1.562152	0.220113	0.526592
H179	H	0.997914	-0.356974	0.023126
H180	H	1.497914	0.143026	0.523126
H181	H	1.059402	-0.352540	-0.046013
H182	H	1.559402	0.147460	0.453987
H183	H	0.805522	0.057760	-0.696671
H184	H	1.305522	0.557760	-0.196671
H185	H	1.052480	-0.542436	0.015601
H186	H	1.552480	-0.042436	0.515601
H187	H	0.808354	0.057973	-0.865915
H188	H	1.308354	0.557973	-0.365915
C189	C	0.171994	0.242609	-0.102104
C190	C	0.671994	0.742609	0.397896
H191	H	0.116341	0.227803	-0.101936
H192	H	0.616341	0.727803	0.398064
H193	H	0.193098	0.275150	-0.048344
H194	H	0.693098	0.775150	0.451656
H195	H	0.181132	0.274284	-0.152670
H196	H	0.681132	0.774284	0.347330
H197	H	0.849260	-0.715223	-0.215202
H198	H	1.349260	-0.215223	0.284798
H199	H	0.416380	-0.031625	-0.122828
H200	H	0.916380	0.468375	0.377172
H201	H	1.070034	0.076752	-0.825803
H202	H	1.570034	0.576752	-0.325803
C203	C	1.059140	-0.712590	0.023153
C204	C	1.559140	-0.212590	0.523153
H205	H	1.048469	-0.771526	0.011036
H206	H	1.548469	-0.271526	0.511036
H207	H	1.112716	-0.694446	0.014524
H208	H	1.612716	-0.194446	0.514524
H209	H	1.051208	-0.698874	0.083640
H210	H	1.551208	-0.198874	0.583640
C211	C	1.087586	0.078000	-0.640070
C212	C	1.587586	0.578000	-0.140070
H213	H	1.131223	0.081124	-0.674627
H214	H	1.631223	0.581124	-0.174627
H215	H	1.092451	0.126648	-0.600411
H216	H	1.592451	0.626648	-0.100411
H217	H	1.087498	0.029682	-0.606029
H218	H	1.587498	0.529682	-0.106029
H219	H	0.454372	0.165780	-0.111933
H220	H	0.954372	0.665780	0.388067
H221	H	0.318485	-0.042432	-0.121606
H222	H	0.818485	0.457568	0.378394
H223	H	0.538229	-0.098401	-0.129011
H224	H	1.038229	0.401599	0.370989
H225	H	1.065217	0.076391	-0.538080
H226	H	1.565217	0.576391	-0.038080
C227	C	1.082767	0.077642	-0.352338
C228	C	1.582767	0.577642	0.147662
H229	H	1.071398	0.076832	-0.291682
H230	H	1.571398	0.576832	0.208318
H231	H	1.110185	0.031309	-0.365885
H232	H	1.610185	0.531309	0.134115
H233	H	1.115123	0.128274	-0.360281
H234	H	1.615123	0.628274	0.139719
C235	C	0.698741	-0.108462	-0.132652
C236	C	1.198741	0.391538	0.367348
H237	H	0.754392	-0.093659	-0.132838
H238	H	1.254392	0.406341	0.367162
H239	H	0.689603	-0.140146	-0.082099
H240	H	1.189603	0.359854	0.417901
H241	H	0.677631	-0.140994	-0.186423
H242	H	1.177631	0.359006	0.313577
