data_functionalizedCrystal
_audit_creation_method	'MofGen! by Chris Wilmer'
_symmetry_space_group_name_H-M	'P1'
_symmetry_Int_Tables_number	1
_symmetry_cell_setting	triclinic
loop_
_symmetry_equiv_pos_as_xyz
  x,y,z
_cell_length_a	19.288865
_cell_length_b	14.971486
_cell_length_c	14.048226
_cell_angle_alpha	90.006640
_cell_angle_beta	89.994985
_cell_angle_gamma	96.624812
loop_
_atom_site_label
_atom_site_type_symbol
_atom_site_fract_x
_atom_site_fract_y
_atom_site_fract_z
O1	O	0.921714	-0.111581	-0.079129
O2	O	1.255047	0.221752	0.254205
O3	O	1.588380	0.555085	0.587538
O4	O	0.719502	-0.126633	-0.079138
O5	O	1.052836	0.206700	0.254196
O6	O	1.386169	0.540033	0.587529
O7	O	0.826028	0.011122	-0.079126
O8	O	1.159361	0.344455	0.254207
O9	O	1.492694	0.677789	0.587541
O10	O	0.815188	-0.249337	-0.079140
O11	O	1.148522	0.083997	0.254193
O12	O	1.481855	0.417330	0.587526
O13	O	0.826015	0.011130	0.079195
O14	O	1.159348	0.344463	0.412529
O15	O	1.492682	0.677797	0.745862
O16	O	0.719489	-0.126625	0.079184
O17	O	1.052823	0.206708	0.412517
O18	O	1.386156	0.540041	0.745850
O19	O	0.921701	-0.111573	0.079193
O20	O	1.255034	0.221760	0.412526
O21	O	1.588368	0.555093	0.745859
Zn22	Zn	0.820593	-0.119098	0.104325
Zn23	Zn	1.153927	0.214235	0.437658
Zn24	Zn	1.487260	0.547569	0.770992
Zn25	Zn	0.820610	-0.119109	-0.104270
Zn26	Zn	1.153943	0.214225	0.229063
Zn27	Zn	1.487277	0.547558	0.562397
O28	O	0.815175	-0.249329	0.079181
O29	O	1.148509	0.084005	0.412514
O30	O	1.481842	0.417338	0.745848
C31	C	0.693618	-0.126145	0.000022
C32	C	1.026951	0.207188	0.333355
C33	C	1.360284	0.540522	0.666689
C34	C	0.616509	-0.124691	0.000019
C35	C	0.949843	0.208642	0.333352
C36	C	1.283176	0.541975	0.666685
C37	C	0.947585	-0.112062	0.000031
C38	C	1.280919	0.221272	0.333364
C39	C	1.614252	0.554605	0.666698
C40	C	1.024694	-0.113516	0.000028
C41	C	1.358027	0.219818	0.333361
C42	C	1.691360	0.553151	0.666695
C43	C	0.825537	0.044448	0.000034
C44	C	1.158870	0.377781	0.333368
C45	C	1.492203	0.711115	0.666701
C46	C	0.824084	0.143737	0.000033
C47	C	1.157417	0.477071	0.333367
C48	C	1.490751	0.810404	0.666700
C49	C	1.069126	-0.032687	0.000024
C50	C	1.402460	0.300646	0.333358
C51	C	1.735793	0.633980	0.666691
C52	C	1.141578	-0.034053	0.000030
C53	C	1.474911	0.299280	0.333363
C54	C	1.808245	0.632614	0.666696
C55	C	1.169594	-0.116252	0.000020
C56	C	1.502927	0.217081	0.333353
C57	C	1.836260	0.550415	0.666687
C58	C	1.125151	-0.197091	0.000029
C59	C	1.458484	0.136242	0.333363
C60	C	1.791818	0.469575	0.666696
C61	C	1.052701	-0.195723	0.000033
C62	C	1.386034	0.137610	0.333367
C63	C	1.719368	0.470944	0.666700
C64	C	1.278086	-0.180873	-0.055456
C65	C	1.611419	0.152461	0.277877
C66	C	1.944752	0.485794	0.611211
C67	C	1.350535	-0.182237	-0.055466
C68	C	1.683868	0.151096	0.277868
C69	C	2.017201	0.484429	0.611201
C70	C	1.393053	-0.120475	0.000012
C71	C	1.726386	0.212858	0.333345
C72	C	2.059720	0.546191	0.666679
C73	C	1.363115	-0.057333	0.055487
C74	C	1.696448	0.276000	0.388820
C75	C	2.029782	0.609334	0.722154
C76	C	1.290665	-0.055965	0.055491
C77	C	1.623998	0.277368	0.388824
C78	C	1.957332	0.610702	0.722158
C79	C	1.248152	-0.117745	0.000016
C80	C	1.581486	0.215589	0.333350
C81	C	1.914819	0.548922	0.666683
C82	C	1.516047	-0.041122	0.000015
C83	C	1.849380	0.292211	0.333349
C84	C	2.182713	0.625545	0.666682
C85	C	1.588499	-0.042491	0.000027
C86	C	1.921832	0.290842	0.333360
C87	C	2.255166	0.624175	0.666693
C88	C	1.572070	-0.205532	0.000017
C89	C	1.905404	0.127801	0.333350
C90	C	2.238737	0.461135	0.666683
C91	C	1.499619	-0.204160	0.000015
C92	C	1.832953	0.129173	0.333348
C93	C	2.166286	0.462506	0.666682
C94	C	1.471612	-0.121953	0.000010
C95	C	1.804945	0.211380	0.333343
C96	C	2.138279	0.544714	0.666676
C97	C	0.815667	-0.282655	0.000019
C98	C	1.149000	0.050678	0.333352
C99	C	1.482333	0.384012	0.666685
C100	C	0.817119	-0.381944	0.000013
C101	C	1.150453	-0.048611	0.333347
C102	C	1.483786	0.284723	0.666680
N103	N	0.820587	-0.119090	0.246686
N104	N	1.153920	0.214243	0.580019
N105	N	1.487253	0.547576	0.913352
C106	C	0.886665	0.201301	0.000037
C107	C	1.219998	0.534634	0.333370
C108	C	1.553332	0.867968	0.666703
C109	C	0.885296	0.294593	0.000027
C110	C	1.218629	0.627926	0.333360
C111	C	1.551962	0.961260	0.666694
C112	C	0.821345	0.330320	0.000021
C113	C	1.154678	0.663653	0.333354
C114	C	1.488012	0.996986	0.666688
C115	C	0.758759	0.272749	0.000014
C116	C	1.092093	0.606082	0.333348
C117	C	1.425426	0.939415	0.666681
C118	C	0.760129	0.179458	0.000017
C119	C	1.093462	0.512792	0.333351
C120	C	1.426796	0.846125	0.666684
C121	C	0.755909	0.467196	0.000011
C122	C	1.089242	0.800529	0.333344
C123	C	1.422575	1.133862	0.666678
C124	C	0.754538	0.560492	0.000010
C125	C	1.087872	0.893826	0.333343
C126	C	1.421205	1.227159	0.666677
C127	C	0.881075	0.582330	0.000021
C128	C	1.214408	0.915664	0.333354
C129	C	1.547742	1.248997	0.666687
C130	C	0.882445	0.489040	0.000024
C131	C	1.215778	0.822373	0.333357
C132	C	1.549112	1.155707	0.666690
C133	C	0.819859	0.431475	0.000019
C134	C	1.153192	0.764809	0.333352
C135	C	1.486526	1.098142	0.666686
N136	N	0.820622	-0.119109	-0.246631
N137	N	1.153955	0.214224	0.086703
N138	N	1.487289	0.547557	0.420036
C139	C	0.867771	-0.058117	0.296509
C140	C	1.201104	0.275216	0.629842
C141	C	1.534438	0.608549	0.963176
C142	C	0.867776	-0.058117	0.396167
C143	C	1.201109	0.275217	0.729500
C144	C	1.534442	0.608550	1.062833
C145	C	0.820599	-0.119094	0.445999
C146	C	1.153932	0.214239	0.779333
C147	C	1.487266	0.547572	1.112666
C148	C	0.773409	-0.180070	0.396169
C149	C	1.106743	0.153263	0.729502
C150	C	1.440076	0.486596	1.062836
C151	C	0.773402	-0.180066	0.296513
C152	C	1.106735	0.153268	0.629847
C153	C	1.440069	0.486601	0.963180
C154	C	0.773430	-0.180077	0.603883
C155	C	1.106763	0.153257	0.937217
C156	C	1.440096	0.486590	1.270550
C157	C	0.773438	-0.180082	0.703546
C158	C	1.106771	0.153251	1.036879
C159	C	1.440104	0.486584	1.370213
C160	C	0.867803	-0.058128	0.703537
C161	C	1.201137	0.275206	1.036870
C162	C	1.534470	0.608539	1.370203
C163	C	0.867796	-0.058123	0.603881
C164	C	1.201129	0.275210	0.937214
C165	C	1.534462	0.608544	1.270548
C166	C	0.820607	-0.119100	0.554058
C167	C	1.153940	0.214233	0.887391
C168	C	1.487274	0.547566	1.220724
H169	H	1.046328	0.034253	0.000023
H170	H	1.379661	0.367586	0.333357
H171	H	1.712995	0.700919	0.666690
H172	H	1.594880	-0.272460	0.000015
H173	H	1.928213	0.060873	0.333348
H174	H	2.261546	0.394206	0.666682
H175	H	0.735001	-0.229728	0.563321
H176	H	1.068334	0.103605	0.896654
H177	H	1.401668	0.436939	1.229987
H178	H	0.906196	-0.008467	0.436732
H179	H	1.239530	0.324866	0.770066
H180	H	1.572863	0.658199	1.103399
H181	H	0.734979	-0.229715	0.255948
H182	H	1.068312	0.103618	0.589281
H183	H	1.401646	0.436952	0.922615
Cl184	Cl	1.160369	-0.300427	0.000021
Cl185	Cl	1.493703	0.032906	0.333354
Cl186	Cl	1.827036	0.366239	0.666688
H187	H	0.906191	-0.008466	0.255942
H188	H	1.239524	0.324867	0.589275
H189	H	1.572857	0.658201	0.922608
Cl190	Cl	1.197447	0.067568	0.000022
Cl191	Cl	1.530780	0.400901	0.333355
Cl192	Cl	1.864113	0.734235	0.666688
H193	H	0.932035	0.629204	0.000022
H194	H	1.265368	0.962538	0.333355
H195	H	1.598702	1.295871	0.666688
Cl196	Cl	0.996839	-0.297345	0.000035
Cl197	Cl	1.330173	0.035989	0.333369
Cl198	Cl	1.663506	0.369322	0.666702
Cl199	Cl	0.963973	0.366956	0.000034
Cl200	Cl	1.297306	0.700289	0.333368
Cl201	Cl	1.630639	1.033622	0.666701
H202	H	0.906214	-0.008475	0.563307
H203	H	1.239547	0.324858	0.896641
H204	H	1.572881	0.658191	1.229974
Cl205	Cl	0.967065	0.156398	0.000055
Cl206	Cl	1.300398	0.489731	0.333388
Cl207	Cl	1.633732	0.823064	0.666721
Cl208	Cl	0.678363	0.317662	-0.000005
Cl209	Cl	1.011697	0.650995	0.333328
Cl210	Cl	1.345030	0.984329	0.666661
H211	H	0.709169	0.132590	0.000014
H212	H	1.042503	0.465923	0.333348
H213	H	1.375836	0.799257	0.666681
H214	H	0.906226	-0.008478	0.744109
H215	H	1.239559	0.324856	1.077442
H216	H	1.572892	0.658189	1.410775
H217	H	0.735021	-0.229736	0.744115
H218	H	1.068354	0.103598	1.077448
H219	H	1.401687	0.436931	1.410781
H220	H	0.734994	-0.229716	0.436749
H221	H	1.068327	0.103617	0.770082
H222	H	1.401660	0.436950	1.103415
H223	H	1.266293	-0.004554	0.100663
H224	H	1.599626	0.328779	0.433996
H225	H	1.932959	0.662113	0.767329
H226	H	1.397733	-0.007036	0.100657
H227	H	1.731066	0.326297	0.433990
H228	H	2.064400	0.659631	0.767324
H229	H	1.493242	0.025816	0.000015
H230	H	1.826575	0.359149	0.333348
H231	H	2.159909	0.692483	0.666682
Cl232	Cl	1.644359	0.059132	0.000032
Cl233	Cl	1.977692	0.392465	0.333366
Cl234	Cl	2.311026	0.725798	0.666699
H235	H	1.463441	-0.269980	0.000012
H236	H	1.796774	0.063353	0.333345
H237	H	2.130108	0.396687	0.666679
H238	H	0.934519	0.459955	0.000036
H239	H	1.267853	0.793288	0.333369
H240	H	1.601186	1.126622	0.666702
H241	H	0.702464	0.589577	0.000020
H242	H	1.035797	0.922911	0.333353
H243	H	1.369131	1.256244	0.666687
H244	H	0.704944	0.420328	0.000005
H245	H	1.038278	0.753662	0.333338
H246	H	1.371611	1.086995	0.666671
H247	H	1.374905	-0.233645	-0.100645
H248	H	1.708238	0.099688	0.232689
H249	H	2.041571	0.433022	0.566022
H250	H	1.243472	-0.231174	-0.100631
H251	H	1.576805	0.102159	0.232702
H252	H	1.910138	0.435492	0.566035
