data_functionalizedCrystal
_audit_creation_method	'MofGen! by Chris Wilmer'
_symmetry_space_group_name_H-M	'P1'
_symmetry_Int_Tables_number	1
_symmetry_cell_setting	triclinic
loop_
_symmetry_equiv_pos_as_xyz
  x,y,z
_cell_length_a	23.532407
_cell_length_b	23.532407
_cell_length_c	22.610064
_cell_angle_alpha	89.999397
_cell_angle_beta	89.997161
_cell_angle_gamma	82.848678
loop_
_atom_site_label
_atom_site_type_symbol
_atom_site_fract_x
_atom_site_fract_y
_atom_site_fract_z
O1	O	0.755263	0.069127	-0.049117
O2	O	1.088597	0.402460	0.284217
O3	O	1.421930	0.735794	0.617550
O4	O	0.589400	0.079130	-0.049135
O5	O	0.922733	0.412464	0.284198
O6	O	1.256067	0.745797	0.617532
O7	O	0.677333	-0.008803	-0.049114
O8	O	1.010667	0.324530	0.284219
O9	O	1.344000	0.657864	0.617552
O10	O	0.667330	0.157060	-0.049137
O11	O	1.000664	0.490394	0.284196
O12	O	1.333997	0.823727	0.617529
O13	O	0.677318	-0.008790	0.049255
O14	O	1.010651	0.324543	0.382588
O15	O	1.343985	0.657876	0.715921
O16	O	0.589385	0.079143	0.049234
O17	O	0.922718	0.412476	0.382568
O18	O	1.256051	0.745810	0.715901
O19	O	0.755248	0.069140	0.049252
O20	O	1.088581	0.402473	0.382586
O21	O	1.421915	0.735807	0.715919
Zn22	Zn	0.672314	0.074144	0.064862
Zn23	Zn	1.005647	0.407477	0.398195
Zn24	Zn	1.338980	0.740810	0.731528
Zn25	Zn	0.672334	0.074127	-0.064744
Zn26	Zn	1.005668	0.407460	0.268589
Zn27	Zn	1.339001	0.740793	0.601923
O28	O	0.667315	0.157073	0.049232
O29	O	1.000648	0.490407	0.382565
O30	O	1.333981	0.823740	0.715899
C31	C	0.568176	0.078882	0.000048
C32	C	0.901510	0.412215	0.333381
C33	C	1.234843	0.745549	0.666714
C34	C	0.504959	0.078116	0.000041
C35	C	0.838293	0.411449	0.333374
C36	C	1.171626	0.744783	0.666708
C37	C	0.105856	0.125350	0.000061
C38	C	0.439190	0.458683	0.333395
C39	C	0.772523	0.792016	0.666728
C40	C	0.046456	0.124638	0.000065
C41	C	0.379789	0.457971	0.333398
C42	C	0.713123	0.791305	0.666732
O43	O	0.009711	0.168424	0.000081
O44	O	0.343045	0.501757	0.333414
O45	O	0.676378	0.835091	0.666747
N46	N	0.023830	0.072362	0.000071
N47	N	0.357163	0.405695	0.333405
N48	N	0.690496	0.739028	0.666738
C49	C	0.060607	0.020794	0.000080
C50	C	0.393941	0.354127	0.333413
C51	C	0.727274	0.687460	0.666746
O52	O	0.035908	-0.023737	0.000086
O53	O	0.369241	0.309596	0.333419
O54	O	0.702574	0.642930	0.666753
C55	C	0.120006	0.021506	0.000080
C56	C	0.453340	0.354839	0.333414
C57	C	0.786673	0.688172	0.666747
C58	C	0.142629	0.073785	0.000068
C59	C	0.475962	0.407119	0.333401
C60	C	0.809296	0.740452	0.666735
C61	C	0.128479	0.177625	0.000050
C62	C	0.461813	0.510958	0.333383
C63	C	0.795146	0.844292	0.666716
C64	C	0.187876	0.178336	0.000045
C65	C	0.521209	0.511670	0.333378
C66	C	0.854542	0.845003	0.666712
C67	C	0.224649	0.126772	0.000052
C68	C	0.557982	0.460105	0.333385
C69	C	0.891315	0.793439	0.666718
C70	C	0.202025	0.074497	0.000063
C71	C	0.535359	0.407830	0.333397
C72	C	0.868692	0.741163	0.666730
C73	C	0.156783	-0.030062	0.000093
C74	C	0.490116	0.303271	0.333426
C75	C	0.823450	0.636605	0.666760
C76	C	0.216185	-0.029345	0.000094
C77	C	0.549519	0.303988	0.333427
C78	C	0.882852	0.637321	0.666761
C79	C	0.238808	0.022934	0.000082
C80	C	0.572141	0.356268	0.333415
C81	C	0.905475	0.689601	0.666748
C82	C	0.298194	0.023643	0.000065
C83	C	0.631528	0.356977	0.333398
C84	C	0.964861	0.690310	0.666732
N85	N	0.320820	0.075920	0.000059
N86	N	0.654154	0.409253	0.333392
N87	N	0.987487	0.742586	0.666726
C88	C	0.284048	0.127484	0.000052
C89	C	0.617381	0.460817	0.333386
C90	C	0.950714	0.794151	0.666719
C91	C	-0.064135	0.019302	0.000080
C92	C	0.269198	0.352635	0.333413
C93	C	0.602532	0.685969	0.666746
C94	C	-0.123533	0.018589	0.000075
C95	C	0.209800	0.351923	0.333408
C96	C	0.543134	0.685256	0.666742
C97	C	-0.137680	0.122434	0.000061
C98	C	0.195653	0.455768	0.333395
C99	C	0.528986	0.789101	0.666728
C100	C	-0.078281	0.123146	0.000062
C101	C	0.255052	0.456480	0.333395
C102	C	0.588385	0.789813	0.666729
C103	C	-0.041509	0.071578	0.000074
C104	C	0.291824	0.404912	0.333407
C105	C	0.625158	0.738245	0.666740
C106	C	0.408784	0.128974	0.000042
C107	C	0.742118	0.462307	0.333375
C108	C	1.075451	0.795640	0.666708
C109	C	0.468186	0.129680	0.000034
C110	C	0.801520	0.463014	0.333368
C111	C	1.134853	0.796347	0.666701
C112	C	0.482329	0.025836	0.000051
C113	C	0.815662	0.359169	0.333384
C114	C	1.148995	0.692503	0.666718
C115	C	0.422932	0.025129	0.000055
C116	C	0.756265	0.358462	0.333389
C117	C	1.089598	0.691796	0.666722
C118	C	0.386160	0.076702	0.000052
C119	C	0.719494	0.410036	0.333386
C120	C	1.052827	0.743369	0.666719
O121	O	0.334974	-0.020119	0.000052
O122	O	0.668307	0.313214	0.333385
O123	O	1.001640	0.646547	0.666719
O124	O	0.308755	0.172007	0.000054
O125	O	0.642089	0.505340	0.333387
O126	O	0.975422	0.838674	0.666721
C127	C	0.677071	-0.030013	0.000072
C128	C	1.010404	0.303321	0.333405
C129	C	1.343738	0.636654	0.666738
C130	C	0.676305	-0.093230	0.000076
C131	C	1.009638	0.240104	0.333409
C132	C	1.342972	0.573437	0.666743
C133	C	0.723539	-0.492333	0.000049
C134	C	1.056872	-0.158999	0.333382
C135	C	1.390205	0.174334	0.666716
C136	C	0.722827	-0.551733	0.000044
C137	C	1.056160	-0.218400	0.333378
C138	C	1.389494	0.114934	0.666711
O139	O	0.766613	-0.588478	0.000027
O140	O	1.099946	-0.255144	0.333361
O141	O	1.433280	0.078189	0.666694
N142	N	0.670551	-0.574359	0.000039
N143	N	1.003884	-0.241026	0.333372
N144	N	1.337217	0.092307	0.666706
C145	C	0.618983	-0.537582	0.000032
C146	C	0.952316	-0.204248	0.333366
C147	C	1.285649	0.129085	0.666699
O148	O	0.574452	-0.562281	0.000027
O149	O	0.907785	-0.228948	0.333360
O150	O	1.241119	0.104385	0.666693
C151	C	0.619695	-0.478182	0.000033
C152	C	0.953028	-0.144849	0.333366
C153	C	1.286361	0.188484	0.666699
C154	C	0.671974	-0.455560	0.000044
C155	C	1.005308	-0.122227	0.333377
C156	C	1.338641	0.211107	0.666711
C157	C	0.775814	-0.469710	0.000060
C158	C	1.109147	-0.136376	0.333393
C159	C	1.442481	0.196957	0.666726
C160	C	0.776525	-0.410313	0.000065
C161	C	1.109859	-0.076980	0.333399
C162	C	1.443192	0.256353	0.666732
C163	C	0.724961	-0.373540	0.000060
C164	C	1.058294	-0.040207	0.333394
C165	C	1.391628	0.293126	0.666727
C166	C	0.672685	-0.396164	0.000050
C167	C	1.006019	-0.062830	0.333383
C168	C	1.339352	0.270503	0.666716
C169	C	0.568127	-0.441406	0.000022
C170	C	0.901460	-0.108073	0.333355
C171	C	1.234794	0.225261	0.666688
C172	C	0.568844	-0.382004	0.000021
C173	C	0.902177	-0.048670	0.333355
C174	C	1.235510	0.284663	0.666688
C175	C	0.621123	-0.359381	0.000033
C176	C	0.954457	-0.026048	0.333366
C177	C	1.287790	0.307286	0.666699
C178	C	0.621832	-0.299995	0.000050
C179	C	0.955166	0.033339	0.333384
C180	C	1.288499	0.366672	0.666717
N181	N	0.674109	-0.277368	0.000056
N182	N	1.007442	0.055965	0.333389
N183	N	1.340775	0.389298	0.666722
C184	C	0.725673	-0.314141	0.000061
C185	C	1.059006	0.019192	0.333394
C186	C	1.392340	0.352525	0.666727
C187	C	0.617491	-0.662324	0.000031
C188	C	0.950824	-0.328991	0.333364
C189	C	1.284158	0.004343	0.666697
C190	C	0.616778	-0.721722	0.000034
C191	C	0.950112	-0.388389	0.333368
C192	C	1.283445	-0.055055	0.666701
C193	C	0.720623	-0.735869	0.000045
C194	C	1.053957	-0.402536	0.333379
C195	C	1.387290	-0.069203	0.666712
C196	C	0.721335	-0.676470	0.000046
C197	C	1.054669	-0.343137	0.333379
C198	C	1.388002	-0.009804	0.666712
C199	C	0.669767	-0.639698	0.000036
C200	C	1.003101	-0.306365	0.333369
C201	C	1.336434	0.026969	0.666702
C202	C	0.727163	-0.189405	0.000073
C203	C	1.060496	0.143929	0.333406
C204	C	1.393829	0.477262	0.666740
C205	C	0.727869	-0.130003	0.000081
C206	C	1.061203	0.203331	0.333414
C207	C	1.394536	0.536664	0.666748
C208	C	0.624025	-0.115860	0.000067
C209	C	0.957358	0.217473	0.333400
C210	C	1.290692	0.550806	0.666734
C211	C	0.623318	-0.175257	0.000062
C212	C	0.956651	0.158076	0.333395
C213	C	1.289985	0.491409	0.666729
C214	C	0.674891	-0.212029	0.000063
C215	C	1.008225	0.121305	0.333396
C216	C	1.341558	0.454638	0.666730
O217	O	0.578070	-0.263215	0.000065
O218	O	0.911403	0.070118	0.333398
O219	O	1.244736	0.403451	0.666732
O220	O	0.770196	-0.289433	0.000058
O221	O	1.103529	0.043900	0.333392
O222	O	1.436863	0.377233	0.666725
C223	C	0.776472	0.069388	0.000069
C224	C	1.109805	0.402722	0.333402
C225	C	1.443138	0.736055	0.666735
C226	C	0.839689	0.070154	0.000071
C227	C	1.173022	0.403487	0.333405
C228	C	1.506355	0.736821	0.666738
C229	C	0.667577	0.178283	0.000045
C230	C	1.000910	0.511616	0.333378
C231	C	1.334244	0.844949	0.666711
C232	C	0.668343	0.241500	0.000036
C233	C	1.001676	0.574833	0.333370
C234	C	1.335010	0.908167	0.666703
N235	N	0.672304	0.074155	0.153314
N236	N	1.005637	0.407488	0.486647
N237	N	1.338971	0.740821	0.819981
N238	N	0.672349	0.074111	-0.153196
N239	N	1.005682	0.407444	0.180137
N240	N	1.339015	0.740778	0.513470
C241	C	0.711273	0.035196	0.561965
C242	C	1.044606	0.368529	0.895298
C243	C	1.377940	0.701862	1.228631
C244	C	0.711276	0.035192	0.623884
C245	C	1.044609	0.368525	0.957218
C246	C	1.377942	0.701858	1.290551
O247	O	0.744384	0.002076	0.655911
O248	O	1.077718	0.335409	0.989244
O249	O	1.411051	0.668742	1.322578
N250	N	0.672334	0.074115	0.654851
N251	N	1.005667	0.407448	0.988185
N252	N	1.339001	0.740781	1.321518
C253	C	0.633383	0.113041	0.623895
C254	C	0.966716	0.446374	0.957228
C255	C	1.300049	0.779708	1.290562
O256	O	0.600259	0.146147	0.655920
O257	O	0.933593	0.479481	0.989254
O258	O	1.266926	0.812814	1.322587
C259	C	0.633377	0.113042	0.561976
C260	C	0.966711	0.446375	0.895309
C261	C	1.300044	0.779709	1.228643
C262	C	0.672326	0.074120	0.531013
C263	C	1.005659	0.407453	0.864346
C264	C	1.338992	0.740787	1.197679
C265	C	0.750218	-0.003724	0.531001
C266	C	1.083551	0.329610	0.864334
C267	C	1.416884	0.662943	1.197668
C268	C	0.750215	-0.003719	0.469085
C269	C	1.083549	0.329615	0.802419
C270	C	1.416882	0.662948	1.135752
C271	C	0.711268	0.035206	0.438133
C272	C	1.044601	0.368539	0.771467
C273	C	1.377935	0.701872	1.104800
C274	C	0.672323	0.074125	0.469097
C275	C	1.005657	0.407458	0.802430
C276	C	1.338990	0.740792	1.135764
C277	C	0.594424	0.151965	0.531021
C278	C	0.927757	0.485298	0.864354
C279	C	1.261091	0.818631	1.197688
C280	C	0.594422	0.151962	0.469098
C281	C	0.927755	0.485295	0.802431
C282	C	1.261089	0.818629	1.135765
C283	C	0.633370	0.113040	0.438134
C284	C	0.966704	0.446374	0.771468
C285	C	1.300037	0.779707	1.104801
C286	C	0.633374	0.113054	0.376229
C287	C	0.966707	0.446387	0.709563
C288	C	1.300041	0.779721	1.042896
N289	N	0.672316	0.074131	0.345262
N290	N	1.005649	0.407464	0.678596
N291	N	1.338983	0.740798	1.011929
C292	C	0.711263	0.035207	0.376214
C293	C	1.044596	0.368540	0.709548
C294	C	1.377930	0.701873	1.042881
C295	C	0.633396	0.113035	0.753928
C296	C	0.966729	0.446369	1.087262
C297	C	1.300063	0.779702	1.420595
C298	C	0.633403	0.113037	0.815846
C299	C	0.966737	0.446371	1.149179
C300	C	1.300070	0.779704	1.482513
C301	C	0.711296	0.035187	0.815831
C302	C	1.044629	0.368521	1.149165
C303	C	1.377962	0.701854	1.482498
C304	C	0.711291	0.035188	0.753913
C305	C	1.044624	0.368521	1.087246
C306	C	1.377957	0.701855	1.420579
C307	C	0.672338	0.074112	0.722962
C308	C	1.005671	0.407445	1.056295
C309	C	1.339004	0.740779	1.389628
C310	C	0.711255	0.035220	0.246187
C311	C	1.044589	0.368554	0.579520
C312	C	1.377922	0.701887	0.912854
C313	C	0.711251	0.035230	0.184266
C314	C	1.044584	0.368564	0.517599
C315	C	1.377918	0.701897	0.850933
C316	C	0.633357	0.113078	0.184286
C317	C	0.966690	0.446412	0.517619
C318	C	1.300023	0.779745	0.850953
C319	C	0.633363	0.113071	0.246202
C320	C	0.966696	0.446404	0.579535
C321	C	1.300029	0.779737	0.912869
C322	C	0.672314	0.074137	0.277151
C323	C	1.005648	0.407470	0.610484
C324	C	1.338981	0.740804	0.943818
O325	O	0.600281	0.146152	0.344163
O326	O	0.933614	0.479485	0.677497
O327	O	1.266948	0.812818	1.010830
O328	O	0.744376	0.002101	0.344182
O329	O	1.077709	0.335434	0.677515
O330	O	1.411042	0.668767	1.010848
H331	H	0.512280	-0.016146	0.000054
H332	H	0.845613	0.317187	0.333388
H333	H	1.178946	0.650520	0.666721
N334	N	0.792219	-0.045702	0.435692
N335	N	1.125553	0.287631	0.769025
N336	N	1.458886	0.620965	1.102359
H337	H	0.832600	-0.039350	0.446467
H338	H	1.165934	0.293984	0.779801
H339	H	1.499267	0.627317	1.113134
H340	H	0.785838	-0.086070	0.446486
H341	H	1.119172	0.247264	0.779819
H342	H	1.452505	0.580597	1.113153
H343	H	0.206289	0.220908	0.000035
H344	H	0.539622	0.554241	0.333368
H345	H	0.872956	0.887574	0.666702
N346	N	0.591355	0.155055	0.279595
N347	N	0.924688	0.488388	0.612928
N348	N	1.258022	0.821721	0.946262
H349	H	0.566263	0.133417	0.305283
H350	H	0.899596	0.466750	0.638616
H351	H	1.232929	0.800083	0.971949
H352	H	0.613010	0.180151	0.305254
H353	H	0.946343	0.513485	0.638587
H354	H	1.279677	0.846818	0.971920
H355	H	0.486602	0.172255	0.000024
H356	H	0.819935	0.505588	0.333357
H357	H	1.153269	0.838921	0.666691
H358	H	0.743005	0.003494	0.728706
H359	H	1.076339	0.336828	1.062039
H360	H	1.409672	0.670161	1.395372
N361	N	0.255847	-0.084966	0.000110
N362	N	0.589180	0.248367	0.333444
N363	N	0.922514	0.581700	0.666777
H364	H	0.232498	-0.118189	0.000119
H365	H	0.565831	0.215144	0.333452
H366	H	0.899165	0.548477	0.666785
H367	H	0.280802	-0.086943	-0.036357
H368	H	0.614135	0.246390	0.296976
H369	H	0.947468	0.579724	0.630310
H370	H	0.580748	-0.193677	0.000069
H371	H	0.914081	0.139656	0.333403
H372	H	1.247414	0.472989	0.666736
H373	H	0.770443	-0.111587	0.000092
H374	H	1.103777	0.221746	0.333425
H375	H	1.437110	0.555080	0.666759
N376	N	0.511742	-0.465802	0.000002
N377	N	0.845075	-0.132469	0.333335
N378	N	1.178409	0.200864	0.666668
H379	H	0.509118	-0.490133	0.036464
H380	H	0.842451	-0.156799	0.369798
H381	H	1.175784	0.176534	0.703131
H382	H	0.479220	-0.433458	-0.000028
H383	H	0.812553	-0.100125	0.333305
H384	H	1.145886	0.233208	0.666638
N385	N	0.591351	0.155060	0.150896
N386	N	0.924684	0.488393	0.484230
N387	N	1.258018	0.821726	0.817563
H388	H	0.597261	0.149151	0.106973
H389	H	0.930594	0.482484	0.440307
H390	H	1.263928	0.815817	0.773640
H391	H	0.550991	0.148680	0.161722
H392	H	0.884324	0.482013	0.495056
H393	H	1.217657	0.815347	0.828389
N394	N	0.753272	-0.006767	0.279559
N395	N	1.086606	0.326566	0.612892
N396	N	1.419939	0.659899	0.946226
H397	H	0.778364	0.014869	0.305246
H398	H	1.111697	0.348202	0.638580
H399	H	1.445031	0.681535	0.971913
H400	H	0.731623	-0.031872	0.305217
H401	H	1.064956	0.301461	0.638550
H402	H	1.398289	0.634795	0.971884
N403	N	0.552404	0.193945	0.435720
N404	N	0.885737	0.527279	0.769053
N405	N	1.219071	0.860612	1.102386
H406	H	0.558730	0.234333	0.446498
H407	H	0.892063	0.567667	0.779832
H408	H	1.225397	0.901000	1.113165
H409	H	0.558328	0.187996	0.391806
H410	H	0.891661	0.521329	0.725139
H411	H	1.224994	0.854663	1.058472
H412	H	-0.167632	0.164421	0.000059
H413	H	0.165701	0.497754	0.333392
H414	H	0.499035	0.831087	0.666725
N415	N	0.753305	-0.006797	0.849221
N416	N	1.086638	0.326536	1.182555
N417	N	1.419971	0.659869	1.515888
H418	H	0.747393	-0.000890	0.893144
H419	H	1.080727	0.332443	1.226477
H420	H	1.414060	0.665777	1.559811
H421	H	0.746956	-0.047167	0.838400
H422	H	1.080289	0.286167	1.171734
H423	H	1.413622	0.619500	1.505067
N424	N	0.132392	-0.086450	0.000115
N425	N	0.465725	0.246884	0.333448
N426	N	0.799058	0.580217	0.666782
H427	H	0.108064	-0.089076	-0.036348
H428	H	0.441398	0.244257	0.296986
H429	H	0.774731	0.577590	0.630319
H430	H	0.164739	-0.118969	0.000146
H431	H	0.498072	0.214365	0.333479
H432	H	0.831406	0.547698	0.666813
H433	H	0.098544	0.219617	0.000046
H434	H	0.431877	0.552951	0.333380
H435	H	0.765211	0.886284	0.666713
H436	H	0.378851	0.170970	0.000041
H437	H	0.712185	0.504303	0.333375
H438	H	1.045518	0.837637	0.666708
N439	N	0.513223	-0.342342	0.000008
N440	N	0.846556	-0.009009	0.333341
N441	N	1.179889	0.324325	0.666675
H442	H	0.480000	-0.365691	0.000000
H443	H	0.813333	-0.032358	0.333334
H444	H	1.146666	0.300976	0.666667
H445	H	0.511246	-0.317390	0.036476
H446	H	0.844579	0.015943	0.369809
H447	H	1.177912	0.349277	0.703143
H448	H	-0.059867	0.165717	0.000055
H449	H	0.273467	0.499050	0.333389
H450	H	0.606800	0.832384	0.666722
N451	N	0.591398	0.155020	0.849239
N452	N	0.924732	0.488354	1.182573
N453	N	1.258065	0.821687	1.515906
H454	H	0.566726	0.179676	0.820230
H455	H	0.900060	0.513009	1.153563
H456	H	1.233393	0.846343	1.486897
H457	H	0.566347	0.133340	0.874928
H458	H	0.899680	0.466674	1.208261
H459	H	1.233014	0.800007	1.541595
H460	H	-0.141947	-0.023982	0.000076
H461	H	0.191387	0.309352	0.333409
H462	H	0.524720	0.642685	0.666742
N463	N	0.792237	-0.045701	0.564379
N464	N	1.125570	0.287633	0.897712
N465	N	1.458904	0.620966	1.231046
H466	H	0.816907	-0.070349	0.535359
H467	H	1.150240	0.262985	0.868693
H468	H	1.483573	0.596318	1.202026
H469	H	0.817289	-0.024015	0.590058
H470	H	1.150622	0.309319	0.923391
H471	H	1.483956	0.642652	1.256724
N472	N	0.782787	-0.229060	0.000074
N473	N	1.116120	0.104274	0.333407
N474	N	1.449453	0.437607	0.666741
H475	H	0.816007	-0.205707	0.000083
H476	H	1.149340	0.127626	0.333416
H477	H	1.482673	0.460960	0.666750
H478	H	0.784749	-0.254014	0.036540
H479	H	1.118083	0.079319	0.369873
H480	H	1.451416	0.412652	0.703207
N481	N	0.591389	0.155027	0.720545
N482	N	0.924723	0.488360	1.053878
N483	N	1.258056	0.821694	1.387211
H484	H	0.566293	0.133396	0.694858
H485	H	0.899626	0.466729	1.028191
H486	H	1.232960	0.800063	1.361524
H487	H	0.566762	0.179673	0.749597
H488	H	0.900095	0.513007	1.082930
H489	H	1.233429	0.846340	1.416264
N490	N	0.560388	-0.746112	0.000029
N491	N	0.893721	-0.412778	0.333362
N492	N	1.227054	-0.079445	0.666695
H493	H	0.557779	-0.770438	-0.036439
H494	H	0.891112	-0.437105	0.296895
H495	H	1.224445	-0.103771	0.630228
H496	H	0.557801	-0.770414	0.036516
H497	H	0.891135	-0.437080	0.369850
H498	H	1.224468	-0.103747	0.703183
N499	N	0.568411	-0.076193	0.000078
N500	N	0.901744	0.257140	0.333411
N501	N	1.235078	0.590474	0.666744
H502	H	0.576799	-0.035132	0.000085
H503	H	0.910133	0.298201	0.333418
H504	H	1.243466	0.631534	0.666751
H505	H	0.545612	-0.083476	-0.036390
H506	H	0.878946	0.249857	0.296943
H507	H	1.212279	0.583191	0.630277
H508	H	-0.034198	-0.022693	0.000084
H509	H	0.299136	0.310640	0.333417
H510	H	0.632469	0.643973	0.666751
H511	H	0.404512	-0.017441	0.000056
H512	H	0.737845	0.315892	0.333390
H513	H	1.071178	0.649225	0.666723
H514	H	0.819097	-0.391900	0.000072
H515	H	1.152430	-0.058567	0.333405
H516	H	1.485763	0.274767	0.666739
N517	N	0.561868	-0.622664	0.000025
N518	N	0.895201	-0.289330	0.333358
N519	N	1.228535	0.044003	0.666692
H520	H	0.528647	-0.646015	0.000023
H521	H	0.861980	-0.312682	0.333356
H522	H	1.195314	0.020651	0.666689
H523	H	0.559894	-0.597711	0.036492
H524	H	0.893227	-0.264378	0.369826
H525	H	1.226560	0.068956	0.703159
H526	H	0.763906	-0.658056	0.000054
H527	H	1.097239	-0.324722	0.333388
H528	H	1.430573	0.008611	0.666721
N529	N	0.831434	-0.509367	0.000066
N530	N	1.164768	-0.176033	0.333399
N531	N	1.498101	0.157300	0.666732
H532	H	0.864653	-0.486012	0.000073
H533	H	1.197987	-0.152679	0.333406
H534	H	1.531320	0.180654	0.666739
H535	H	0.833396	-0.534317	0.036534
H536	H	1.166730	-0.200984	0.369868
H537	H	1.500063	0.132350	0.703201
N538	N	0.776241	-0.775538	0.000051
N539	N	1.109575	-0.442204	0.333384
N540	N	1.442908	-0.108871	0.666717
H541	H	0.767853	-0.816598	0.000047
H542	H	1.101186	-0.483265	0.333380
H543	H	1.434520	-0.149931	0.666714
H544	H	0.799045	-0.768246	-0.036413
H545	H	1.132378	-0.434913	0.296920
H546	H	1.465712	-0.101579	0.630253
N547	N	0.753263	-0.006749	0.150870
N548	N	1.086596	0.326584	0.484203
N549	N	1.419929	0.659917	0.817536
H550	H	0.777934	-0.031409	0.179877
H551	H	1.111267	0.301925	0.513210
H552	H	1.444600	0.635258	0.846544
H553	H	0.731605	-0.031816	0.125179
H554	H	1.064938	0.301517	0.458512
H555	H	1.398272	0.634850	0.791846
H556	H	0.562709	0.183658	0.556223
H557	H	0.896042	0.516992	0.889556
H558	H	1.229375	0.850325	1.222889
