data_functionalizedCrystal
_audit_creation_method	'MofGen! by Chris Wilmer'
_symmetry_space_group_name_H-M	'P1'
_symmetry_Int_Tables_number	1
_symmetry_cell_setting	triclinic
loop_
_symmetry_equiv_pos_as_xyz
  x,y,z
_cell_length_a	13.897449
_cell_length_b	12.759399
_cell_length_c	12.759386
_cell_angle_alpha	90.062858
_cell_angle_beta	89.956847
_cell_angle_gamma	89.983604
loop_
_atom_site_label
_atom_site_type_symbol
_atom_site_fract_x
_atom_site_fract_y
_atom_site_fract_z
Zn1	Zn	1.474933	0.417848	-0.594036
Zn2	Zn	1.474771	0.593662	-0.418355
Zn3	Zn	1.313559	0.418001	-0.418369
Zn4	Zn	1.313611	0.593490	-0.593990
O5	O	1.394219	0.505750	-0.506187
O6	O	1.609894	0.441178	-0.570745
O7	O	1.453297	0.570496	-0.271335
O8	O	1.335012	0.270960	-0.441697
O9	O	1.609775	0.570348	-0.441672
O10	O	1.453573	0.270847	-0.570759
O11	O	1.334855	0.441439	-0.271346
O12	O	1.178585	0.441272	-0.441652
O13	O	1.335101	0.570054	-0.741018
O14	O	1.178623	0.570203	-0.570680
O15	O	1.453623	0.441011	-0.741051
O16	O	1.453347	0.740660	-0.441628
O17	O	1.334944	0.740534	-0.570667
C18	C	1.143605	0.505736	-0.506164
C19	C	1.036391	0.505756	-0.506178
C20	C	1.394160	0.778718	-0.506164
C21	C	1.394223	0.895494	-0.506188
C22	C	1.394386	0.505497	-0.780221
C23	C	1.394457	0.505388	-0.896998
C24	C	0.840096	0.505759	-0.506206
C25	C	0.949328	0.505754	-0.506188
C26	C	1.645812	0.505765	-0.506212
C27	C	1.753026	0.505771	-0.506223
C28	C	1.394305	0.231717	-0.506234
C29	C	1.394341	0.114940	-0.506254
C30	C	1.455946	0.950387	-0.439074
C31	C	1.456008	1.060111	-0.439110
C32	C	1.332615	1.060040	-0.573376
C33	C	1.332559	0.950318	-0.573345
C34	C	1.569848	1.210008	-0.401724
C35	C	1.631563	1.264905	-0.334593
C36	C	1.646367	1.229421	-0.232083
C37	C	1.599442	1.139043	-0.196682
C38	C	1.537720	1.084152	-0.263807
C39	C	1.522935	1.119634	-0.366332
C40	C	1.218717	0.800419	-0.610721
C41	C	1.156989	0.745526	-0.677841
C42	C	1.142176	0.781007	-0.780353
C43	C	1.189084	0.871389	-0.815750
C44	C	1.250811	0.926282	-0.748629
C45	C	1.265626	0.890793	-0.646118
C46	C	1.394108	0.505927	-0.233220
C47	C	1.394224	0.505739	-0.116444
C48	C	1.332168	0.438952	-0.061637
C49	C	1.332286	0.438773	0.048087
C50	C	1.456520	0.572179	0.048187
C51	C	1.456405	0.572351	-0.061534
C52	C	1.297190	0.314907	0.197780
C53	C	1.235119	0.248128	0.252590
C54	C	1.140862	0.232795	0.217132
C55	C	1.108657	0.284255	0.126865
C56	C	1.170723	0.351042	0.072060
C57	C	1.264993	0.366355	0.107517
C58	C	1.491492	0.696220	-0.211229
C59	C	1.553554	0.763012	-0.266036
C60	C	1.647813	0.778356	-0.230580
C61	C	1.680014	0.726914	-0.140310
C62	C	1.617952	0.660122	-0.085503
C63	C	1.523694	0.644776	-0.120966
H64	H	1.506158	0.905752	-0.384393
Cl65	Cl	1.062832	0.148843	0.286039
H66	H	1.177023	0.900278	-0.899224
Cl67	Cl	1.415697	0.334157	0.242348
Cl68	Cl	1.723951	1.298436	-0.147693
Cl69	Cl	1.275606	0.183435	0.366062
H70	H	1.507145	0.626414	0.092908
H71	H	1.091909	0.736304	-0.835000
H72	H	1.669770	1.338490	-0.363426
Cl73	Cl	1.309784	1.039906	-0.793130
Cl74	Cl	1.618045	1.094449	-0.067799
Cl75	Cl	1.372991	0.676927	-0.255813
H76	H	1.644179	0.618235	-0.012000
Cl77	Cl	1.798513	0.746208	-0.095727
H78	H	1.118800	0.671928	-0.649014
Cl79	Cl	1.725830	0.862336	-0.299476
H80	H	1.282409	1.104690	-0.628051
Cl81	Cl	1.513073	0.827674	-0.379527
Cl82	Cl	1.237342	0.755803	-0.481844
H83	H	1.499517	1.010567	-0.234986
Cl84	Cl	1.254006	0.355201	-0.130662
Cl85	Cl	1.551256	1.254613	-0.530605
H86	H	1.144502	0.392940	-0.001433
H87	H	1.031899	0.271774	0.098010
