data_functionalizedCrystal
_audit_creation_method	'MofGen! by Chris Wilmer'
_symmetry_space_group_name_H-M	'P1'
_symmetry_Int_Tables_number	1
_symmetry_cell_setting	triclinic
loop_
_symmetry_equiv_pos_as_xyz
  x,y,z
_cell_length_a	12.827893
_cell_length_b	12.827892
_cell_length_c	12.827885
_cell_angle_alpha	90.029786
_cell_angle_beta	89.980728
_cell_angle_gamma	89.984638
loop_
_atom_site_label
_atom_site_type_symbol
_atom_site_fract_x
_atom_site_fract_y
_atom_site_fract_z
Zn1	Zn	1.597670	0.415983	-0.590849
Zn2	Zn	2.097670	0.915983	-0.090849
Zn3	Zn	1.597564	0.590761	-0.416109
Zn4	Zn	2.097564	1.090761	0.083891
Zn5	Zn	1.422911	0.416034	-0.416122
Zn6	Zn	1.922911	0.916034	0.083878
Zn7	Zn	1.422896	0.590683	-0.590809
Zn8	Zn	1.922896	1.090683	-0.090809
O9	O	1.510260	0.503365	-0.503472
O10	O	2.010260	1.003365	-0.003472
O11	O	1.743892	0.439179	-0.567680
O12	O	2.243892	0.939179	-0.067680
O13	O	1.574357	0.567637	-0.269875
O14	O	2.074357	1.067637	0.230125
O15	O	1.446144	0.269791	-0.439322
O16	O	1.946144	0.769791	0.060678
O17	O	1.743814	0.567587	-0.439300
O18	O	2.243814	1.067587	0.060700
O19	O	1.574538	0.269754	-0.567693
O20	O	2.074538	0.769754	-0.067693
O21	O	1.446041	0.439266	-0.269884
O22	O	1.946041	0.939266	0.230116
O23	O	1.276673	0.439190	-0.439284
O24	O	1.776673	0.939190	0.060716
O25	O	1.446118	0.567455	-0.737050
O26	O	1.946118	1.067455	-0.237050
O27	O	1.276662	0.567504	-0.567625
O28	O	1.776662	1.067504	-0.067625
O29	O	1.574524	0.439104	-0.737080
O30	O	2.074524	0.939104	-0.237080
O31	O	1.574343	0.736986	-0.439261
O32	O	2.074343	1.236986	0.060739
O33	O	1.446016	0.736929	-0.567612
O34	O	1.946016	1.236929	-0.067612
C35	C	1.238750	0.503345	-0.503452
C36	C	1.738750	1.003345	-0.003452
C37	C	1.122597	0.503362	-0.503469
C38	C	1.622597	1.003362	-0.003469
C39	C	1.510195	0.774875	-0.503454
C40	C	2.010195	1.274875	-0.003454
C41	C	1.510262	0.891028	-0.503481
C42	C	2.010262	1.391028	-0.003481
C43	C	1.510331	0.503265	-0.776043
C44	C	2.010331	1.003265	-0.276043
C45	C	1.510362	0.503222	-0.892196
C46	C	2.010362	1.003222	-0.392196
C47	C	1.070835	0.566954	-0.566878
C48	C	1.570835	1.066954	-0.066878
C49	C	0.950784	0.566973	-0.566896
C50	C	1.450784	1.066973	-0.066896
C51	C	1.782830	0.503386	-0.503493
C52	C	2.282830	1.003386	-0.003493
C53	C	1.898983	0.503395	-0.503502
C54	C	2.398983	1.003395	-0.003502
C55	C	1.510354	0.230795	-0.503514
C56	C	2.010354	0.730795	-0.003514
C57	C	1.510394	0.114642	-0.503531
C58	C	2.010394	0.614642	-0.003531
C59	C	1.573838	0.942807	-0.440039
C60	C	2.073838	1.442807	0.059961
C61	C	1.573910	1.062857	-0.440066
C62	C	2.073910	1.562857	0.059934
C63	C	1.573907	0.439697	-0.943995
C64	C	2.073907	0.939697	-0.443995
C65	C	1.573940	0.439652	-1.064045
C66	C	2.073940	0.939652	-0.564045
C67	C	1.510249	0.503390	-0.231962
C68	C	2.010249	1.003390	0.268038
C69	C	1.510422	0.503138	-0.115810
C70	C	2.010422	1.003138	0.384190
H71	H	1.115396	0.621381	-0.621155
H72	H	1.615396	1.121381	-0.121155
C73	C	1.647438	0.366173	-1.124222
C74	C	2.147438	0.866173	-0.624222
N75	N	1.702796	0.310825	-1.169550
N76	N	2.202796	0.810825	-0.669550
C77	C	1.436797	0.951205	-0.576886
C78	C	1.936797	1.451205	-0.076886
N79	N	1.381460	0.996528	-0.632175
N80	N	1.881460	1.496528	-0.132175
C81	C	1.436918	0.576616	-1.055640
C82	C	1.936918	1.076616	-0.555640
N83	N	1.381553	0.631958	-1.010312
N84	N	1.881553	1.131958	-0.510312
H85	H	0.906270	0.621420	-0.621181
H86	H	1.406270	1.121420	-0.121181
H87	H	0.943491	0.448952	-0.449208
H88	H	1.443491	0.948952	0.050792
C89	C	1.647372	0.366264	-0.883842
C90	C	2.147372	0.866264	-0.383842
N91	N	1.702707	0.310953	-0.838537
N92	N	2.202707	0.810953	-0.338537
C93	C	1.062402	0.429825	-0.430145
C94	C	1.562402	0.929825	0.069855
N95	N	1.017065	0.374436	-0.374915
N96	N	1.517065	0.874436	0.125085
H97	H	1.628220	0.898262	-0.385708
H98	H	2.128220	1.398262	0.114292
C99	C	1.647442	1.123009	-0.366683
C100	C	2.147442	1.623009	0.133317
N101	N	1.702830	1.168319	-0.311410
N102	N	2.202830	1.668319	0.188590
H103	H	1.455957	1.070121	-0.557845
H104	H	1.955957	1.570121	-0.057845
H105	H	1.455975	0.557567	-0.936725
H106	H	1.955975	1.057567	-0.436725
