data_functionalizedCrystal
_audit_creation_method	'MofGen! by Chris Wilmer'
_symmetry_space_group_name_H-M	'P1'
_symmetry_Int_Tables_number	1
_symmetry_cell_setting	triclinic
loop_
_symmetry_equiv_pos_as_xyz
  x,y,z
_cell_length_a	12.759401
_cell_length_b	21.295416
_cell_length_c	12.759393
_cell_angle_alpha	90.034987
_cell_angle_beta	89.979541
_cell_angle_gamma	89.968144
loop_
_atom_site_label
_atom_site_type_symbol
_atom_site_fract_x
_atom_site_fract_y
_atom_site_fract_z
Zn1	Zn	1.606147	0.250557	-0.593983
Zn2	Zn	1.605992	0.355838	-0.418287
Zn3	Zn	1.430447	0.250589	-0.418318
Zn4	Zn	1.430390	0.355795	-0.593924
O5	O	1.518244	0.303195	-0.506128
O6	O	1.753148	0.264527	-0.570688
O7	O	1.582665	0.341908	-0.271270
O8	O	1.453844	0.162496	-0.441657
O9	O	1.753034	0.341877	-0.441605
O10	O	1.582929	0.162472	-0.570718
O11	O	1.453693	0.264582	-0.271293
O12	O	1.283419	0.264541	-0.441601
O13	O	1.453746	0.341804	-0.740953
O14	O	1.283377	0.341835	-0.570618
O15	O	1.582874	0.264486	-0.740996
O16	O	1.582609	0.443922	-0.441548
O17	O	1.453595	0.443890	-0.570588
C18	C	1.245277	0.303187	-0.506107
C19	C	1.128500	0.303199	-0.506123
C20	C	1.073644	0.343507	-0.573197
C21	C	0.963920	0.343510	-0.573217
C22	C	0.963918	0.262894	-0.439082
C23	C	1.073640	0.262889	-0.439067
C24	C	1.518107	0.466747	-0.506082
C25	C	1.518145	0.536715	-0.506097
C26	C	1.585382	0.569577	-0.438977
C27	C	1.585432	0.635319	-0.439005
C28	C	1.518225	0.668197	-0.506143
C29	C	1.450983	0.635327	-0.573275
C30	C	1.450943	0.569586	-0.573253
N31	N	1.426319	0.771464	-0.514152
N32	N	1.426360	0.833915	-0.514168
C33	C	1.518344	0.866272	-0.506217
N34	N	1.610287	0.833818	-0.498229
N35	N	1.610245	0.771360	-0.498208
C36	C	1.518262	0.739482	-0.506175
C37	C	1.585641	0.970419	-0.439124
C38	C	1.585692	1.036163	-0.439160
C39	C	1.451234	1.036170	-0.573425
C40	C	1.451192	0.970427	-0.573394
C41	C	1.518394	0.937556	-0.506239
C42	C	1.792277	0.303203	-0.506150
C43	C	1.909054	0.303207	-0.506159
C44	C	1.518412	1.139005	-0.506216
C45	C	1.518486	1.069036	-0.506299
C46	C	1.518321	0.303136	-0.780161
C47	C	1.518353	0.303111	-0.896938
C48	C	1.585536	0.343328	-1.061524
C49	C	1.585511	0.343358	-0.951800
C50	C	1.451209	0.262837	-0.951806
C51	C	1.451230	0.262811	-1.061529
C52	C	1.518229	0.303208	-0.233161
C53	C	1.518400	0.303056	-0.116384
H54	H	1.118307	0.376329	-0.627800
C55	C	0.930074	0.232098	-0.261279
C56	C	0.903612	0.218590	-0.365371
H57	H	0.892848	0.204744	-0.215774
H58	H	0.912047	0.274378	-0.245785
H59	H	1.003273	0.226324	-0.251685
H60	H	0.830414	0.224370	-0.374967
H61	H	0.921631	0.176300	-0.380871
C62	C	1.196981	0.254034	-0.297758
C63	C	1.133950	0.218580	-0.365334
H64	H	1.234218	0.226678	-0.252248
H65	H	1.154136	0.281425	-0.257492
H66	H	1.245350	0.278035	-0.337708
H67	H	1.085576	0.194582	-0.325384
H68	H	1.176799	0.191177	-0.405605
H69	H	1.640180	0.376152	-0.907137
C70	C	1.391183	0.468814	-0.632831
C71	C	1.377027	0.533459	-0.647032
H72	H	1.345553	0.446511	-0.678385
H73	H	1.375833	0.458089	-0.562231
H74	H	1.461762	0.457999	-0.648265
H75	H	1.306450	0.544275	-0.631591
H76	H	1.392370	0.544188	-0.717649
H77	H	0.919260	0.376332	-0.627837
C78	C	1.718552	0.977014	-0.306415
C79	C	1.659514	0.934282	-0.365316
H80	H	1.764160	0.954704	-0.260854
H81	H	1.672816	1.002702	-0.266201
H82	H	1.758732	1.002609	-0.352248
H83	H	1.619327	0.908690	-0.319483
H84	H	1.705255	0.908583	-0.405533
C85	C	1.727176	1.109941	-0.424840
C86	C	1.659712	1.072253	-0.365435
H87	H	1.772907	1.132208	-0.379339
H88	H	1.687166	1.138954	-0.464772
H89	H	1.767220	1.084217	-0.470684
H90	H	1.619662	1.097978	-0.319596
H91	H	1.699726	1.043237	-0.325485
C92	C	1.718298	0.576179	-0.306273
C93	C	1.659265	0.533446	-0.365175
H94	H	1.763916	0.553871	-0.260719
H95	H	1.672560	0.601861	-0.266050
H96	H	1.758468	0.601780	-0.352105
H97	H	1.619089	0.507848	-0.319343
H98	H	1.705009	0.507753	-0.405400
H99	H	1.640188	0.662081	-0.384349
C100	C	1.391333	0.736108	-0.632913
C101	C	1.377105	0.671464	-0.647071
H102	H	1.345719	0.758415	-0.678472
H103	H	1.461913	0.746833	-0.648357
H104	H	1.375999	0.746916	-0.562309
H105	H	1.392447	0.660655	-0.717674
H106	H	1.306509	0.660735	-0.631635
H107	H	1.396518	1.062938	-0.628094
H108	H	1.396436	0.943669	-0.628045
C109	C	1.718275	0.422927	-1.050492
C110	C	1.659358	0.387570	-1.121823
H111	H	1.763844	0.450244	-1.087718
H112	H	1.758483	0.395513	-1.007716
H113	H	1.672453	0.447011	-1.007678
H114	H	1.705180	0.363483	-1.164632
H115	H	1.619147	0.414988	-1.164616
H116	H	1.396523	0.230070	-0.907129
C117	C	1.318478	0.183214	-1.050523
C118	C	1.377430	0.218538	-1.121840
H119	H	1.272924	0.155882	-1.087759
H120	H	1.278255	0.210648	-1.007713
H121	H	1.364280	0.159147	-1.007742
H122	H	1.331629	0.242609	-1.164616
H123	H	1.417657	0.191101	-1.164668
