data_functionalizedCrystal
_audit_creation_method	'MofGen! by Chris Wilmer'
_symmetry_space_group_name_H-M	'P1'
_symmetry_Int_Tables_number	1
_symmetry_cell_setting	triclinic
loop_
_symmetry_equiv_pos_as_xyz
  x,y,z
_cell_length_a	14.044220
_cell_length_b	14.044220
_cell_length_c	12.503572
_cell_angle_alpha	86.156832
_cell_angle_beta	93.835250
_cell_angle_gamma	93.188878
loop_
_atom_site_label
_atom_site_type_symbol
_atom_site_fract_x
_atom_site_fract_y
_atom_site_fract_z
O1	O	-1.282200	-0.225116	-0.089210
O2	O	-1.032200	0.024884	0.160790
O3	O	-0.782200	0.274884	0.410790
O4	O	-0.532200	0.524884	0.660790
O5	O	-1.005530	-0.216809	-0.089237
O6	O	-0.755530	0.033191	0.160763
O7	O	-0.505530	0.283191	0.410763
O8	O	-0.255530	0.533191	0.660763
O9	O	-1.139712	-0.082627	-0.089213
O10	O	-0.889712	0.167373	0.160787
O11	O	-0.639712	0.417373	0.410787
O12	O	-0.389712	0.667373	0.660787
O13	O	-1.148019	-0.359298	-0.089234
O14	O	-0.898019	-0.109298	0.160766
O15	O	-0.648019	0.140702	0.410766
O16	O	-0.398019	0.390702	0.660766
O17	O	-1.129622	-0.092737	0.089427
O18	O	-0.879622	0.157263	0.339427
O19	O	-0.629622	0.407263	0.589427
O20	O	-0.379622	0.657263	0.839427
O21	O	-0.995440	-0.226918	0.089403
O22	O	-0.745440	0.023082	0.339403
O23	O	-0.495440	0.273082	0.589403
O24	O	-0.245440	0.523082	0.839403
O25	O	-1.272110	-0.235226	0.089430
O26	O	-1.022110	0.014774	0.339430
O27	O	-0.772110	0.264774	0.589430
O28	O	-0.522110	0.514774	0.839430
Cu29	Cu	-1.132854	-0.231995	0.105728
Cu30	Cu	-0.882854	0.018005	0.355728
Cu31	Cu	-0.632854	0.268005	0.605728
Cu32	Cu	-0.382854	0.518005	0.855728
Cu33	Cu	-1.144786	-0.220040	-0.105535
Cu34	Cu	-0.894786	0.029960	0.144465
Cu35	Cu	-0.644786	0.279960	0.394465
Cu36	Cu	-0.394786	0.529960	0.644465
O37	O	-1.137929	-0.369407	0.089406
O38	O	-0.887929	-0.119407	0.339406
O39	O	-0.637929	0.130593	0.589406
O40	O	-0.387929	0.380593	0.839406
C41	C	-1.131031	-0.052060	0.000107
C42	C	-0.881031	0.197940	0.250107
C43	C	-0.631031	0.447940	0.500107
C44	C	-0.381031	0.697940	0.750107
C45	C	-1.120187	0.054082	0.000107
C46	C	-0.870187	0.304082	0.250107
C47	C	-0.620187	0.554082	0.500107
C48	C	-0.370187	0.804082	0.750107
C49	C	-0.964864	-0.218228	0.000080
C50	C	-0.714864	0.031772	0.250080
C51	C	-0.464864	0.281772	0.500080
C52	C	-0.214864	0.531772	0.750080
C53	C	-0.858721	-0.207383	0.000070
C54	C	-0.608721	0.042617	0.250070
C55	C	-0.358721	0.292617	0.500070
C56	C	-0.108721	0.542617	0.750070
C57	C	-1.312777	-0.233807	0.000111
C58	C	-1.062777	0.016193	0.250111
C59	C	-0.812777	0.266193	0.500111
C60	C	-0.562777	0.516193	0.750111
C61	C	-1.418920	-0.244651	0.000114
C62	C	-1.168920	0.005349	0.250114
C63	C	-0.918920	0.255349	0.500114
C64	C	-0.668920	0.505349	0.750114
C65	C	-0.664382	-0.187558	0.000092
C66	C	-0.414382	0.062442	0.250092
C67	C	-0.164382	0.312442	0.500092
C68	C	0.085618	0.562442	0.750092
C69	C	-0.613253	-0.264472	0.000091
C70	C	-0.363253	-0.014472	0.250091
C71	C	-0.113253	0.235528	0.500091
C72	C	0.136747	0.485528	0.750091
C73	C	-0.505116	-0.253441	0.000104
C74	C	-0.255116	-0.003441	0.250104
C75	C	-0.005116	0.246559	0.500104
C76	C	0.244884	0.496559	0.750104
C77	C	-0.772529	-0.198587	0.000080
C78	C	-0.522529	0.051413	0.250080
C79	C	-0.272529	0.301413	0.500080
C80	C	-0.022529	0.551413	0.750080
C81	C	-1.146609	-0.399974	0.000084
C82	C	-0.896609	-0.149974	0.250084
C83	C	-0.646609	0.100026	0.500084
C84	C	-0.396609	0.350026	0.750084
C85	C	-1.157454	-0.506117	0.000077
C86	C	-0.907454	-0.256117	0.250077
C87	C	-0.657454	-0.006117	0.500077
C88	C	-0.407454	0.243883	0.750077
N89	N	-1.124469	-0.240404	0.254319
N90	N	-0.874469	0.009596	0.504319
N91	N	-0.624469	0.259596	0.754319
N92	N	-0.374469	0.509596	1.004319
C93	C	-1.100361	0.248421	0.000090
C94	C	-0.850361	0.498421	0.250090
C95	C	-0.600361	0.748421	0.500090
C96	C	-0.350361	0.998421	0.750090
C97	C	-1.177275	0.299551	0.000094
C98	C	-0.927275	0.549551	0.250094
C99	C	-0.677275	0.799551	0.500094
C100	C	-0.427275	1.049551	0.750094
C101	C	-1.166244	0.407687	0.000084
C102	C	-0.916244	0.657687	0.250084
C103	C	-0.666244	0.907687	0.500084
C104	C	-0.416244	1.157687	0.750084
C105	C	-1.111391	0.140274	0.000099
C106	C	-0.861391	0.390274	0.250099
C107	C	-0.611391	0.640274	0.500099
C108	C	-0.361391	0.890274	0.750099
N109	N	-1.153179	-0.211624	-0.254126
N110	N	-0.903179	0.038376	-0.004126
N111	N	-0.653179	0.288376	0.245874
N112	N	-0.403179	0.538376	0.495874
C113	C	-1.112134	-0.252782	0.473432
C114	C	-0.862134	-0.002782	0.723432
C115	C	-0.612134	0.247218	0.973432
C116	C	-0.362134	0.497218	1.223432
C117	C	-1.165511	-0.199249	0.526768
C118	C	-0.915511	0.050751	0.776768
C119	C	-0.665511	0.300751	1.026768
C120	C	-0.415511	0.550751	1.276768
C121	C	-1.158648	-0.206136	0.648690
C122	C	-0.908648	0.043864	0.898690
C123	C	-0.658648	0.293864	1.148690
C124	C	-0.408648	0.543864	1.398690
C125	C	-1.118996	-0.245896	0.351499
C126	C	-0.868996	0.004104	0.601499
C127	C	-0.618996	0.254104	0.851499
C128	C	-0.368996	0.504104	1.101499
H129	H	-0.650692	-0.338605	0.000081
H130	H	-0.400692	-0.088605	0.250081
H131	H	-0.150692	0.161395	0.500081
H132	H	0.099308	0.411395	0.750081
H133	H	-1.061285	-0.303783	0.519330
H134	H	-0.811285	-0.053783	0.769330
H135	H	-0.561285	0.196217	1.019330
H136	H	-0.311285	0.446217	1.269330
H137	H	-0.626945	-0.113431	0.000104
H138	H	-0.376945	0.136569	0.250104
H139	H	-0.126945	0.386569	0.500104
H140	H	0.123055	0.636569	0.750104
H141	H	-1.251413	0.262115	0.000029
H142	H	-1.001413	0.512115	0.250029
H143	H	-0.751413	0.762115	0.500029
H144	H	-0.501413	1.012115	0.750029
H145	H	-1.216364	-0.148245	0.480864
H146	H	-0.966364	0.101755	0.730864
H147	H	-0.716364	0.351755	0.980864
H148	H	-0.466364	0.601755	1.230864
Cl149	Cl	-0.985912	0.306222	0.000073
Cl150	Cl	-0.735912	0.556222	0.250073
Cl151	Cl	-0.485912	0.806222	0.500073
Cl152	Cl	-0.235912	1.056222	0.750073
