data_functionalizedCrystal
_audit_creation_method	'MofGen! by Chris Wilmer'
_symmetry_space_group_name_H-M	'P1'
_symmetry_Int_Tables_number	1
_symmetry_cell_setting	triclinic
loop_
_symmetry_equiv_pos_as_xyz
  x,y,z
_cell_length_a	27.732048
_cell_length_b	27.732025
_cell_length_c	26.210047
_cell_angle_alpha	90.005231
_cell_angle_beta	90.015477
_cell_angle_gamma	82.638061
loop_
_atom_site_label
_atom_site_type_symbol
_atom_site_fract_x
_atom_site_fract_y
_atom_site_fract_z
O1	O	0.640933	0.057527	0.042348
O2	O	0.974266	0.390860	0.375681
O3	O	1.307599	0.724193	0.709015
O4	O	0.500139	0.066272	0.042361
O5	O	0.833472	0.399606	0.375694
O6	O	1.166805	0.732939	0.709028
O7	O	0.574914	-0.008498	0.042370
O8	O	0.908247	0.324835	0.375703
O9	O	1.241581	0.658169	0.709036
O10	O	0.566157	0.132297	0.042339
O11	O	0.899491	0.465630	0.375673
O12	O	1.232824	0.798964	0.709006
O13	O	0.574887	-0.008519	-0.042488
O14	O	0.908220	0.324815	0.290845
O15	O	1.241554	0.658148	0.624178
O16	O	0.500112	0.066252	-0.042497
O17	O	0.833445	0.399585	0.290836
O18	O	1.166778	0.732918	0.624170
O19	O	0.640906	0.057506	-0.042510
O20	O	0.974239	0.390840	0.290823
O21	O	1.307572	0.724173	0.624157
Cu22	Cu	0.570506	0.061877	-0.050252
Cu23	Cu	0.903839	0.395210	0.283082
Cu24	Cu	1.237173	0.728544	0.616415
Cu25	Cu	0.570538	0.061901	0.050103
Cu26	Cu	0.903872	0.395235	0.383436
Cu27	Cu	1.237205	0.728568	0.716769
O28	O	0.566130	0.132276	-0.042519
O29	O	0.899464	0.465610	0.290815
O30	O	1.232797	0.798943	0.624148
C31	C	0.574719	-0.026515	-0.000054
C32	C	0.908052	0.306818	0.333279
C33	C	1.241385	0.640151	0.666612
C34	C	0.574170	-0.080171	-0.000039
C35	C	0.907503	0.253163	0.333294
C36	C	1.240837	0.586496	0.666628
C37	C	0.482118	0.066078	-0.000066
C38	C	0.815452	0.399412	0.333267
C39	C	1.148785	0.732745	0.666601
C40	C	0.428463	0.065526	-0.000060
C41	C	0.761797	0.398859	0.333273
C42	C	1.095130	0.732192	0.666607
C43	C	0.570288	-0.463325	0.046188
C44	C	0.903621	-0.129992	0.379521
C45	C	1.236955	0.203342	0.712854
C46	C	0.572341	-0.261666	0.046204
C47	C	0.905674	0.071668	0.379537
C48	C	1.239007	0.405001	0.712871
O49	O	0.572638	-0.235589	0.085544
O50	O	0.905971	0.097745	0.418878
O51	O	1.239305	0.431078	0.752211
N52	N	0.572582	-0.236456	-0.000051
N53	N	0.905916	0.096878	0.333282
N54	N	1.239249	0.430211	0.666616
C55	C	0.572314	-0.261664	-0.046313
C56	C	0.905648	0.071669	0.287020
C57	C	1.238981	0.405003	0.620354
O58	O	0.572572	-0.235595	-0.085655
O59	O	0.905905	0.097738	0.247678
O60	O	1.239239	0.431072	0.581012
C61	C	0.570265	-0.463323	-0.046329
C62	C	0.903599	-0.129990	0.287005
C63	C	1.236932	0.203344	0.620338
C64	C	0.570019	-0.488530	-0.000071
C65	C	0.903352	-0.155196	0.333262
C66	C	1.236685	0.178137	0.666596
C67	C	0.570042	-0.488532	0.092442
C68	C	0.903375	-0.155199	0.425775
C69	C	1.236709	0.178135	0.759108
C70	C	0.569526	-0.538943	0.092437
C71	C	0.902860	-0.205610	0.425771
C72	C	1.236193	0.127723	0.759104
C73	C	0.569257	-0.564148	0.046179
C74	C	0.902590	-0.230815	0.379512
C75	C	1.235923	0.102519	0.712845
C76	C	0.569503	-0.538941	-0.000075
C77	C	0.902836	-0.205608	0.333258
C78	C	1.236169	0.127725	0.666591
C79	C	0.570001	-0.488531	-0.092590
C80	C	0.903334	-0.155198	0.240743
C81	C	1.236667	0.178136	0.574076
C82	C	0.569490	-0.538949	-0.092590
C83	C	0.902823	-0.205616	0.240743
C84	C	1.236156	0.127718	0.574077
C85	C	0.569243	-0.564156	-0.046332
C86	C	0.902576	-0.230822	0.287001
C87	C	1.235909	0.102511	0.620334
C88	C	0.568717	-0.614557	-0.046339
C89	C	0.902051	-0.281224	0.286995
C90	C	1.235384	0.052109	0.620328
N91	N	0.568476	-0.639767	-0.000084
N92	N	0.901809	-0.306434	0.333250
N93	N	1.235142	0.026899	0.666583
C94	C	0.568745	-0.614563	0.046175
C95	C	0.902079	-0.281229	0.379508
C96	C	1.235412	0.052104	0.712841
C97	C	0.573389	-0.155790	-0.046301
C98	C	0.906722	0.177543	0.287032
C99	C	1.240056	0.510877	0.620365
C100	C	0.573900	-0.105375	-0.046298
C101	C	0.907234	0.227958	0.287036
C102	C	1.240567	0.561291	0.620369
C103	C	0.573928	-0.105381	0.046219
C104	C	0.907261	0.227953	0.379553
C105	C	1.240594	0.561286	0.712886
C106	C	0.573413	-0.155796	0.046215
C107	C	0.906746	0.177538	0.379548
C108	C	1.240080	0.510871	0.712882
C109	C	0.573147	-0.181000	-0.000047
C110	C	0.906481	0.152333	0.333287
C111	C	1.239814	0.485667	0.666620
C112	C	0.567662	-0.720430	0.046162
C113	C	0.900995	-0.387097	0.379495
C114	C	1.234328	-0.053764	0.712828
C115	C	0.567144	-0.770846	0.046153
C116	C	0.900477	-0.437513	0.379487
C117	C	1.233811	-0.104179	0.712820
C118	C	0.567119	-0.770837	-0.046364
C119	C	0.900453	-0.437503	0.286970
C120	C	1.233786	-0.104170	0.620303
C121	C	0.567634	-0.720425	-0.046355
C122	C	0.900968	-0.387092	0.286978
C123	C	1.234301	-0.053758	0.620311
C124	C	0.567907	-0.695223	-0.000088
C125	C	0.901241	-0.361890	0.333245
C126	C	1.234574	-0.028557	0.666578
O127	O	0.568425	-0.640666	-0.085658
O128	O	0.901759	-0.307333	0.247675
O129	O	1.235092	0.026000	0.581008
O130	O	0.568498	-0.640642	0.085511
O131	O	0.901831	-0.307309	0.418844
O132	O	1.235165	0.026025	0.752178
C133	C	0.570804	-0.412914	0.046192
C134	C	0.904137	-0.079580	0.379526
C135	C	1.237471	0.253753	0.712859
C136	C	0.571050	-0.387707	-0.000062
C137	C	0.904383	-0.054373	0.333271
C138	C	1.237717	0.278960	0.666605
C139	C	0.570780	-0.412911	-0.046320
C140	C	0.904114	-0.079578	0.287013
C141	C	1.237447	0.253755	0.620346
C142	C	0.571561	-0.337292	-0.000058
C143	C	0.904895	-0.003959	0.333275
C144	C	1.238228	0.329374	0.666609
C145	C	0.571831	-0.312088	0.046201
C146	C	0.905164	0.021246	0.379534
C147	C	1.238498	0.354579	0.712867
C148	C	0.571589	-0.337298	0.092455
C149	C	0.904923	-0.003964	0.425789
C150	C	1.238256	0.329369	0.759122
C151	C	0.571073	-0.387709	0.092451
C152	C	0.904407	-0.054376	0.425784
C153	C	1.237740	0.278958	0.759117
C154	C	0.571022	-0.387702	-0.092575
C155	C	0.904356	-0.054368	0.240758
C156	C	1.237689	0.278965	0.574091
C157	C	0.571537	-0.337290	-0.092567
C158	C	0.904871	-0.003957	0.240766
C159	C	1.238204	0.329377	0.574100
C160	C	0.571807	-0.312085	-0.046308
C161	C	0.905140	0.021248	0.287025
C162	C	1.238474	0.354581	0.620358
C163	C	0.089645	0.106230	-0.000091
C164	C	0.422978	0.439563	0.333242
C165	C	0.756312	0.772897	0.666576
C166	C	-0.112014	0.104179	-0.000095
C167	C	0.221319	0.437512	0.333238
C168	C	0.554652	0.770846	0.666572
O169	O	-0.143273	0.141400	-0.000125
O170	O	0.190060	0.474733	0.333208
O171	O	0.523394	0.808067	0.666542
N172	N	-0.131135	0.059843	-0.000085
N173	N	0.202199	0.393177	0.333249
N174	N	0.535532	0.726510	0.666582
C175	C	-0.099836	0.016017	-0.000076
C176	C	0.233497	0.349350	0.333257
C177	C	0.566830	0.682684	0.666590
O178	O	-0.120726	-0.021740	-0.000073
O179	O	0.212607	0.311593	0.333260
O180	O	0.545940	0.644926	0.666594
C181	C	0.101822	0.018069	-0.000076
C182	C	0.435155	0.351402	0.333257
C183	C	0.768489	0.684735	0.666591
C184	C	0.120939	0.062407	-0.000081
C185	C	0.454273	0.395741	0.333252
C186	C	0.787606	0.729074	0.666585
C187	C	0.108763	0.150565	-0.000097
C188	C	0.442096	0.483898	0.333237
C189	C	0.775429	0.817232	0.666570
C190	C	0.159175	0.151077	-0.000093
C191	C	0.492508	0.484410	0.333240
C192	C	0.825841	0.817744	0.666574
C193	C	0.190469	0.107254	-0.000083
C194	C	0.523802	0.440588	0.333250
C195	C	0.857135	0.773921	0.666583
C196	C	0.171351	0.062920	-0.000077
C197	C	0.504684	0.396253	0.333256
C198	C	0.838018	0.729586	0.666589
C199	C	0.133119	-0.025757	-0.000072
C200	C	0.466453	0.307576	0.333262
C201	C	0.799786	0.640910	0.666595
C202	C	0.183537	-0.025240	-0.000073
C203	C	0.516870	0.308093	0.333261
C204	C	0.850203	0.641427	0.666594
C205	C	0.202654	0.019098	-0.000078
C206	C	0.535987	0.352432	0.333255
C207	C	0.869320	0.685765	0.666589
C208	C	0.253057	0.019609	-0.000064
C209	C	0.586391	0.352942	0.333269
C210	C	0.919724	0.686276	0.666603
N211	N	0.272177	0.063945	-0.000074
N212	N	0.605511	0.397278	0.333259
N213	N	0.938844	0.730611	0.666592
C214	C	0.240883	0.107767	-0.000084
C215	C	0.574216	0.441101	0.333249
C216	C	0.907550	0.774434	0.666583
C217	C	-0.205710	0.014943	-0.000076
C218	C	0.127623	0.348276	0.333258
C219	C	0.460956	0.681610	0.666591
C220	C	-0.256125	0.014430	-0.000075
C221	C	0.077209	0.347763	0.333258
C222	C	0.410542	0.681097	0.666592
C223	C	-0.268299	0.102592	-0.000094
C224	C	0.065034	0.435925	0.333239
C225	C	0.398367	0.769259	0.666572
C226	C	-0.217884	0.103105	-0.000092
C227	C	0.115449	0.436438	0.333242
C228	C	0.448783	0.769771	0.666575
C229	C	-0.186590	0.059279	-0.000086
C230	C	0.146743	0.392612	0.333247
C231	C	0.480076	0.725946	0.666581
C232	C	0.346752	0.108840	-0.000076
C233	C	0.680086	0.442173	0.333258
C234	C	1.013419	0.775507	0.666591
C235	C	0.397169	0.109348	-0.000070
C236	C	0.730502	0.442682	0.333264
C237	C	1.063836	0.776015	0.666597
C238	C	0.409339	0.021187	-0.000053
C239	C	0.742673	0.354520	0.333280
C240	C	1.076006	0.687853	0.666614
C241	C	0.358927	0.020678	-0.000056
C242	C	0.692260	0.354011	0.333277
C243	C	1.025594	0.687345	0.666611
C244	C	0.327634	0.064509	-0.000069
C245	C	0.660967	0.397842	0.333264
C246	C	0.994301	0.731175	0.666597
O247	O	0.284344	-0.017592	-0.000040
O248	O	0.617678	0.315741	0.333294
O249	O	0.951011	0.649075	0.666627
O250	O	0.261783	0.145519	-0.000099
O251	O	0.595116	0.478853	0.333234
O252	O	0.928449	0.812186	0.666568
C253	C	0.039233	0.105718	-0.000095
C254	C	0.372566	0.439051	0.333239
C255	C	0.705900	0.772384	0.666572
C256	C	0.020115	0.061383	-0.000089
C257	C	0.353449	0.394716	0.333244
C258	C	0.686782	0.728049	0.666578
C259	C	0.051410	0.017560	-0.000079
C260	C	0.384743	0.350893	0.333254
C261	C	0.718076	0.684227	0.666587
C262	C	-0.030299	0.060870	-0.000088
C263	C	0.303034	0.394203	0.333245
C264	C	0.636368	0.727536	0.666579
C265	C	-0.061593	0.104692	-0.000098
C266	C	0.271740	0.438026	0.333236
C267	C	0.605073	0.771359	0.666569
C268	C	-0.042473	0.149028	-0.000108
C269	C	0.290860	0.482361	0.333225
C270	C	0.624194	0.815695	0.666559
C271	C	0.007939	0.149540	-0.000104
C272	C	0.341272	0.482874	0.333229
C273	C	0.674606	0.816207	0.666562
C274	C	0.032289	-0.026776	-0.000069
C275	C	0.365623	0.306558	0.333265
C276	C	0.698956	0.639891	0.666598
C277	C	-0.018123	-0.027284	-0.000072
C278	C	0.315210	0.306049	0.333261
C279	C	0.648544	0.639382	0.666595
C280	C	-0.049417	0.016538	-0.000082
C281	C	0.283916	0.349872	0.333252
C282	C	0.617249	0.683205	0.666585
C283	C	0.658926	0.057700	-0.000082
C284	C	0.992260	0.391033	0.333251
C285	C	1.325593	0.724367	0.666585
C286	C	0.712581	0.058253	-0.000085
C287	C	1.045914	0.391586	0.333249
C288	C	1.379248	0.724920	0.666582
C289	C	0.566326	0.150294	-0.000094
C290	C	0.899659	0.483627	0.333240
C291	C	1.232993	0.816961	0.666573
C292	C	0.566874	0.203949	-0.000105
C293	C	0.900208	0.537283	0.333228
C294	C	1.233541	0.870616	0.666561
N295	N	0.570487	0.061860	-0.120836
N296	N	0.903820	0.395193	0.212498
N297	N	1.237154	0.728526	0.545831
C298	C	0.541437	0.032763	-0.526804
C299	C	0.874770	0.366096	-0.193470
C300	C	1.208103	0.699429	0.139863
C301	C	0.541415	0.032751	-0.313145
C302	C	0.874749	0.366084	0.020188
C303	C	1.208082	0.699417	0.353522
O304	O	0.516686	0.007973	-0.285527
O305	O	0.850019	0.341306	0.047807
O306	O	1.183352	0.674639	0.381140
N307	N	0.570505	0.061866	-0.286419
N308	N	0.903839	0.395199	0.046914
N309	N	1.237172	0.728533	0.380247
C310	C	0.599605	0.090984	-0.313112
C311	C	0.932939	0.424318	0.020222
C312	C	1.266272	0.757651	0.353555
O313	O	0.624352	0.115745	-0.285478
O314	O	0.957685	0.449078	0.047856
O315	O	1.291018	0.782411	0.381189
C316	C	0.599629	0.090993	-0.526769
C317	C	0.932962	0.424327	-0.193436
C318	C	1.266296	0.757660	0.139897
C319	C	0.570533	0.061880	-0.553492
C320	C	0.903867	0.395213	-0.220159
C321	C	1.237200	0.728546	0.113174
C322	C	0.512344	0.003651	-0.553526
C323	C	0.845677	0.336984	-0.220193
C324	C	1.179010	0.670318	0.113140
C325	C	0.512347	0.003656	-0.606938
C326	C	0.845681	0.336990	-0.273605
C327	C	1.179014	0.670323	0.059729
C328	C	0.541444	0.032773	-0.633626
C329	C	0.874777	0.366107	-0.300293
C330	C	1.208111	0.699440	0.033040
C331	C	0.570537	0.061885	-0.606904
C332	C	0.903870	0.395218	-0.273570
C333	C	1.237203	0.728552	0.059763
C334	C	0.628731	0.120109	-0.553461
C335	C	0.962064	0.453442	-0.220127
C336	C	1.295398	0.786775	0.113206
C337	C	0.628735	0.120107	-0.606879
C338	C	0.962069	0.453441	-0.273545
C339	C	1.295402	0.786774	0.059788
C340	C	0.599640	0.090994	-0.633601
C341	C	0.932973	0.424327	-0.300268
C342	C	1.266306	0.757660	0.033065
C343	C	0.599637	0.091007	-0.687004
C344	C	0.932970	0.424341	-0.353670
C345	C	1.266304	0.757674	-0.020337
N346	N	0.570547	0.061892	-0.713729
N347	N	0.903880	0.395225	-0.380396
N348	N	1.237214	0.728559	-0.047063
C349	C	0.541450	0.032775	-0.687041
C350	C	0.874784	0.366108	-0.353707
C351	C	1.208117	0.699442	-0.020374
C352	C	0.599590	0.090978	-0.200938
C353	C	0.932924	0.424311	0.132395
C354	C	1.266257	0.757645	0.465728
C355	C	0.599584	0.090977	-0.147524
C356	C	0.932917	0.424310	0.185809
C357	C	1.266250	0.757643	0.519142
C358	C	0.541394	0.032742	-0.147561
C359	C	0.874728	0.366076	0.185772
C360	C	1.208061	0.699409	0.519105
C361	C	0.541398	0.032747	-0.200976
C362	C	0.874732	0.366080	0.132357
C363	C	1.208065	0.699413	0.465690
C364	C	0.570500	0.061863	-0.227664
C365	C	0.903833	0.395196	0.105669
C366	C	1.237167	0.728529	0.439003
C367	C	0.541460	0.032789	-0.799209
C368	C	0.874793	0.366122	-0.465875
C369	C	1.208126	0.699455	-0.132542
C370	C	0.541464	0.032798	-0.852625
C371	C	0.874798	0.366131	-0.519291
C372	C	1.208131	0.699465	-0.185958
C373	C	0.599656	0.091030	-0.852583
C374	C	0.932989	0.424364	-0.519250
C375	C	1.266322	0.757697	-0.185916
C376	C	0.599649	0.091023	-0.799172
C377	C	0.932983	0.424356	-0.465838
C378	C	1.266316	0.757690	-0.132505
C379	C	0.570550	0.061898	-0.772486
C380	C	0.903883	0.395232	-0.439152
C381	C	1.237217	0.728565	-0.105819
O382	O	0.624358	0.115768	-0.714655
O383	O	0.957691	0.449102	-0.381322
O384	O	1.291024	0.782435	-0.047988
O385	O	0.516716	0.008010	-0.714684
O386	O	0.850049	0.341343	-0.381351
O387	O	1.183383	0.674677	-0.048017
C388	C	0.541433	0.032757	-0.473392
C389	C	0.874766	0.366091	-0.140059
C390	C	1.208100	0.699424	0.193275
C391	C	0.570526	0.061869	-0.446669
C392	C	0.903859	0.395203	-0.113336
C393	C	1.237193	0.728536	0.219997
C394	C	0.599623	0.090986	-0.473358
C395	C	0.932956	0.424320	-0.140025
C396	C	1.266289	0.757653	0.193309
C397	C	0.570519	0.061868	-0.393255
C398	C	0.903853	0.395201	-0.059922
C399	C	1.237186	0.728534	0.273412
C400	C	0.541423	0.032751	-0.366567
C401	C	0.874756	0.366084	-0.033233
C402	C	1.208090	0.699417	0.300100
C403	C	0.512333	0.003635	-0.393292
C404	C	0.845666	0.336969	-0.059959
C405	C	1.178999	0.670302	0.273375
C406	C	0.512336	0.003640	-0.446704
C407	C	0.845670	0.336974	-0.113370
C408	C	1.179003	0.670307	0.219963
C409	C	0.628713	0.120102	-0.446632
C410	C	0.962046	0.453435	-0.113299
C411	C	1.295379	0.786768	0.220034
C412	C	0.628706	0.120094	-0.393221
C413	C	0.962040	0.453428	-0.059887
C414	C	1.295373	0.786761	0.273446
C415	C	0.599610	0.090977	-0.366532
C416	C	0.932943	0.424311	-0.033199
C417	C	1.266276	0.757644	0.300134
N418	N	0.570561	0.061915	0.120687
N419	N	0.903894	0.395248	0.454020
N420	N	1.237228	0.728582	0.787353
H421	H	0.567884	-0.699917	0.083837
H422	H	0.901218	-0.366584	0.417170
H423	H	1.234551	-0.033250	0.750503
H424	H	0.569329	-0.559463	0.130105
H425	H	0.902662	-0.226129	0.463438
H426	H	1.235995	0.107204	0.796772
H427	H	-0.180235	-0.020747	-0.000071
H428	H	0.153099	0.312586	0.333262
H429	H	0.486432	0.645919	0.666595
H430	H	0.117563	-0.061862	-0.000068
H431	H	0.450897	0.271471	0.333266
H432	H	0.784230	0.604805	0.666599
O433	O	0.570772	-0.412130	0.137418
O434	O	0.904106	-0.078797	0.470752
O435	O	1.237439	0.254537	0.804085
C436	C	0.529020	-0.394030	0.165555
C437	C	0.862353	-0.060697	0.498888
C438	C	1.195687	0.272636	0.832221
H439	H	0.515426	-0.355499	0.152399
H440	H	0.848759	-0.022166	0.485732
H441	H	1.182093	0.311168	0.819066
H442	H	0.499403	-0.418354	0.159146
H443	H	0.832737	-0.085021	0.492479
H444	H	1.166070	0.248313	0.825813
C445	C	0.558478	-0.440775	0.238876
C446	C	0.891811	-0.107442	0.572209
C447	C	1.225145	0.225891	0.905542
C448	C	0.541784	-0.393449	0.222720
C449	C	0.875118	-0.060116	0.556054
C450	C	1.208451	0.273218	0.889387
H451	H	0.566350	-0.440419	0.274138
H452	H	0.899684	-0.107085	0.607472
H453	H	1.233017	0.226248	0.940805
H454	H	0.586607	-0.452971	0.219919
H455	H	0.919940	-0.119638	0.553253
H456	H	1.253273	0.213696	0.886586
H457	H	0.533795	-0.461040	0.233531
H458	H	0.867128	-0.127707	0.566864
H459	H	1.200461	0.205627	0.900197
H460	H	0.566470	-0.373187	0.228059
H461	H	0.899803	-0.039853	0.561393
H462	H	1.233136	0.293480	0.894726
H463	H	0.513660	-0.381250	0.241679
H464	H	0.846993	-0.047916	0.575012
H465	H	1.180327	0.285417	0.908346
H466	H	0.566941	-0.791367	0.083823
H467	H	0.900275	-0.458033	0.417157
H468	H	1.233608	-0.124700	0.750490
H469	H	0.570263	-0.468016	0.130113
H470	H	0.903596	-0.134682	0.463446
H471	H	1.236930	0.198651	0.796780
H472	H	0.574144	-0.084850	0.083885
H473	H	0.907477	0.248483	0.417218
H474	H	1.240811	0.581817	0.750552
H475	H	0.209014	-0.060929	-0.000069
H476	H	0.542347	0.272404	0.333265
H477	H	0.875681	0.605737	0.666598
H478	H	0.343361	-0.015426	-0.000044
H479	H	0.676694	0.317907	0.333289
H480	H	1.010028	0.651241	0.666622
H481	H	0.569274	-0.559468	-0.130263
H482	H	0.902607	-0.226135	0.203070
H483	H	1.235940	0.107199	0.536404
H484	H	0.488656	-0.020053	-0.628691
H485	H	0.821990	0.313281	-0.295358
H486	H	1.155323	0.646614	0.037976
O487	O	0.571797	-0.312885	-0.137551
O488	O	0.905130	0.020449	0.195782
O489	O	1.238463	0.353782	0.529116
C490	C	0.571437	-0.345946	-0.178377
C491	C	0.904770	-0.012613	0.154956
C492	C	1.238104	0.320720	0.488289
H493	H	0.586379	-0.383998	-0.164813
H494	H	0.919712	-0.050665	0.168520
H495	H	1.253046	0.282669	0.501853
H496	H	0.532585	-0.345946	-0.192603
H497	H	0.865918	-0.012613	0.140730
H498	H	1.199252	0.320720	0.474064
C499	C	0.584991	-0.283924	-0.238739
C500	C	0.918324	0.049409	0.094595
C501	C	1.251658	0.382743	0.427928
C502	C	0.603347	-0.330659	-0.222080
C503	C	0.936680	0.002674	0.111253
C504	C	1.270014	0.336008	0.444586
H505	H	0.604672	-0.274494	-0.265698
H506	H	0.938006	0.058840	0.067635
H507	H	1.271339	0.392173	0.400968
H508	H	0.585232	-0.261649	-0.211234
H509	H	0.918565	0.071684	0.122099
H510	H	1.251898	0.405018	0.455433
H511	H	0.552615	-0.283930	-0.250590
H512	H	0.885948	0.049403	0.082743
H513	H	1.219281	0.382737	0.416077
H514	H	0.635720	-0.330651	-0.210224
H515	H	0.969054	0.002682	0.123109
H516	H	1.302387	0.336016	0.456443
H517	H	0.603112	-0.352934	-0.249585
H518	H	0.936446	-0.019601	0.083749
H519	H	1.269779	0.313733	0.417082
O520	O	0.627989	0.119283	-0.878458
O521	O	0.961323	0.452616	-0.545125
O522	O	1.294656	0.785950	-0.211792
C523	C	0.677153	0.105536	-0.865401
C524	C	1.010487	0.438869	-0.532068
C525	C	1.343820	0.772202	-0.198735
H526	H	0.679367	0.086776	-0.826619
H527	H	1.012700	0.420109	-0.493286
H528	H	1.346034	0.753442	-0.159952
H529	H	0.695149	0.079475	-0.895459
H530	H	1.028483	0.412809	-0.562125
H531	H	1.361816	0.746142	-0.228792
C532	C	0.700838	0.174106	-0.910558
C533	C	1.034171	0.507439	-0.577225
C534	C	1.367505	0.840772	-0.243892
C535	C	0.703557	0.151068	-0.862923
C536	C	1.036890	0.484401	-0.529590
C537	C	1.370224	0.817735	-0.196256
H538	H	0.717126	0.202191	-0.909031
H539	H	1.050459	0.535525	-0.575698
H540	H	1.383793	0.868858	-0.242365
H541	H	0.667716	0.183367	-0.919357
H542	H	1.001049	0.516700	-0.586024
H543	H	1.334382	0.850033	-0.252690
H544	H	0.715834	0.152384	-0.935601
H545	H	1.049168	0.485717	-0.602268
H546	H	1.382501	0.819050	-0.268934
H547	H	0.688555	0.172788	-0.837882
H548	H	1.021889	0.506121	-0.504549
H549	H	1.355222	0.839454	-0.171216
H550	H	0.736677	0.141811	-0.854120
H551	H	1.070011	0.475145	-0.520787
H552	H	1.403344	0.808478	-0.187453
O553	O	0.177679	0.194181	-0.000033
O554	O	0.511012	0.527514	0.333300
O555	O	0.844346	0.860848	0.666633
C556	C	0.161666	0.220874	0.043915
C557	C	0.495000	0.554208	0.377249
C558	C	0.828333	0.887541	0.710582
H559	H	0.126803	0.207959	0.058570
H560	H	0.460136	0.541293	0.391903
H561	H	0.793469	0.874626	0.725237
H562	H	0.190891	0.215070	0.074692
H563	H	0.524225	0.548404	0.408025
H564	H	0.857558	0.881737	0.741358
C565	C	0.194612	0.291181	0.012553
C566	C	0.527945	0.624514	0.345887
C567	C	0.861278	0.957848	0.679220
C568	C	0.151789	0.275321	0.030550
C569	C	0.485122	0.608655	0.363883
C570	C	0.818456	0.941988	0.697217
H571	H	0.188521	0.324767	0.004310
H572	H	0.521854	0.658100	0.337643
H573	H	0.855188	0.991433	0.670977
H574	H	0.205402	0.273197	-0.017055
H575	H	0.538735	0.606530	0.316278
H576	H	0.872068	0.939864	0.649612
H577	H	0.218962	0.286340	0.038203
H578	H	0.552295	0.619674	0.371537
H579	H	0.885628	0.953007	0.704870
H580	H	0.127442	0.280157	0.004898
H581	H	0.460775	0.613490	0.338231
H582	H	0.794109	0.946823	0.671564
H583	H	0.140995	0.293308	0.060154
H584	H	0.474328	0.626641	0.393487
H585	H	0.807661	0.959974	0.726820
O586	O	0.567794	-0.695973	-0.091318
O587	O	0.901127	-0.362640	0.242015
O588	O	1.234461	-0.029307	0.575349
C589	C	0.525768	-0.702492	-0.119443
C590	C	0.859101	-0.369159	0.213890
C591	C	1.192435	-0.035826	0.547223
H592	H	0.511441	-0.737171	-0.106295
H593	H	0.844774	-0.403838	0.227038
H594	H	1.178108	-0.070504	0.560371
H595	H	0.496734	-0.670070	-0.113014
H596	H	0.830067	-0.336736	0.220319
H597	H	1.163400	-0.003403	0.553653
C598	C	0.556032	-0.663973	-0.192760
C599	C	0.889365	-0.330640	0.140573
C600	C	1.222699	0.002693	0.473906
C601	C	0.538438	-0.706569	-0.176615
C602	C	0.871771	-0.373235	0.156719
C603	C	1.205104	-0.039902	0.490052
H604	H	0.563846	-0.666486	-0.228026
H605	H	0.897179	-0.333152	0.105307
H606	H	1.230513	0.000181	0.438640
H607	H	0.584345	-0.659579	-0.173811
H608	H	0.917678	-0.326246	0.159522
H609	H	1.251012	0.007087	0.492855
H610	H	0.531834	-0.636959	-0.187398
H611	H	0.865167	-0.303625	0.145935
H612	H	1.198500	0.029708	0.479269
H613	H	0.562638	-0.733581	-0.181971
H614	H	0.895971	-0.400248	0.151363
H615	H	1.229305	-0.066915	0.484696
H616	H	0.510129	-0.710967	-0.195566
H617	H	0.843462	-0.377634	0.137768
H618	H	1.176796	-0.044301	0.471101
H619	H	0.321279	0.144531	-0.000088
H620	H	0.654612	0.477864	0.333245
H621	H	0.987946	0.811198	0.666579
O622	O	0.484042	-0.024562	-0.527553
O623	O	0.817375	0.308771	-0.194220
O624	O	1.150708	0.642105	0.139114
C625	C	0.450821	0.005146	-0.496683
C626	C	0.784155	0.338480	-0.163349
C627	C	1.117488	0.671813	0.169984
H628	H	0.465599	0.040904	-0.488658
H629	H	0.798932	0.374237	-0.155324
H630	H	1.132265	0.707571	0.178009
H631	H	0.414441	0.012810	-0.517294
H632	H	0.747774	0.346143	-0.183961
H633	H	1.081108	0.679476	0.149372
C634	C	0.425566	-0.064975	-0.455814
C635	C	0.758900	0.268359	-0.122481
C636	C	1.092233	0.601692	0.210852
C637	C	0.443718	-0.021058	-0.445955
C638	C	0.777051	0.312275	-0.112621
C639	C	1.110385	0.645608	0.220712
H640	H	0.421183	-0.081139	-0.424524
H641	H	0.754516	0.252194	-0.091191
H642	H	1.087849	0.585528	0.242143
H643	H	0.447946	-0.084990	-0.476614
H644	H	0.781279	0.248343	-0.143280
H645	H	1.114613	0.581677	0.190053
H646	H	0.395251	-0.058582	-0.472992
H647	H	0.728584	0.274751	-0.139659
H648	H	1.061918	0.608084	0.193674
H649	H	0.474035	-0.027452	-0.428783
H650	H	0.807369	0.305882	-0.095450
H651	H	1.140702	0.639215	0.237884
H652	H	0.421343	-0.001044	-0.425151
H653	H	0.754677	0.332289	-0.091818
H654	H	1.088010	0.665622	0.241515
H655	H	0.517769	0.009090	-0.874380
H656	H	0.851102	0.342424	-0.541047
H657	H	1.184436	0.675757	-0.207713
H658	H	0.434828	-0.014493	-0.000043
H659	H	0.768161	0.318841	0.333290
H660	H	1.101495	0.652174	0.666624
O661	O	0.026425	0.192654	-0.000135
O662	O	0.359758	0.525987	0.333198
O663	O	0.693092	0.859321	0.666531
C664	C	-0.012015	0.231217	-0.000132
C665	C	0.321319	0.564551	0.333201
C666	C	0.654652	0.897884	0.666535
H667	H	-0.046167	0.217919	-0.016195
H668	H	0.287166	0.551252	0.317138
H669	H	0.620500	0.884585	0.650472
H670	H	-0.019242	0.244726	0.040576
H671	H	0.314091	0.578060	0.373909
H672	H	0.647425	0.911393	0.707242
C673	C	0.043840	0.289392	-0.013691
C674	C	0.377174	0.622725	0.319642
C675	C	0.710507	0.956059	0.652976
C676	C	0.001895	0.273059	-0.033424
C677	C	0.335228	0.606393	0.299910
C678	C	0.668561	0.939726	0.633243
H679	H	0.052420	0.315203	-0.034225
H680	H	0.385754	0.648537	0.299109
H681	H	0.719087	0.981870	0.632442
H682	H	0.069738	0.263412	-0.013691
H683	H	0.403072	0.596745	0.319642
H684	H	0.736405	0.930078	0.652975
H685	H	0.037812	0.300646	0.020232
H686	H	0.371145	0.633979	0.353565
H687	H	0.704478	0.967313	0.686898
H688	H	0.007926	0.261800	-0.067343
H689	H	0.341259	0.595133	0.265990
H690	H	0.674592	0.928467	0.599324
H691	H	-0.024002	0.299039	-0.033430
H692	H	0.309331	0.632372	0.299903
H693	H	0.642665	0.965706	0.633237
O694	O	0.570683	-0.412219	-0.137484
O695	O	0.904016	-0.078885	0.195850
O696	O	1.237349	0.254448	0.529183
C697	C	0.528491	-0.435573	-0.140253
C698	C	0.861825	-0.102240	0.193080
C699	C	1.195158	0.231094	0.526413
H700	H	0.514475	-0.441209	-0.100088
H701	H	0.847808	-0.107876	0.233245
H702	H	1.181142	0.225457	0.566578
H703	H	0.499354	-0.412077	-0.163060
H704	H	0.832687	-0.078744	0.170273
H705	H	1.166020	0.254589	0.503607
C706	C	0.557912	-0.478287	-0.216058
C707	C	0.891245	-0.144954	0.117275
C708	C	1.224579	0.188379	0.450609
C709	C	0.540699	-0.485214	-0.166726
C710	C	0.874033	-0.151880	0.166607
C711	C	1.207366	0.181453	0.499940
H712	H	0.565441	-0.508907	-0.232390
H713	H	0.898775	-0.175574	0.100943
H714	H	1.232108	0.157760	0.434277
H715	H	0.586337	-0.462552	-0.214194
H716	H	0.919670	-0.129219	0.119140
H717	H	1.253003	0.204115	0.452473
H718	H	0.533628	-0.458706	-0.235057
H719	H	0.866961	-0.125373	0.098276
H720	H	1.200295	0.207961	0.431610
H721	H	0.564985	-0.504790	-0.147727
H722	H	0.898319	-0.171456	0.185607
H723	H	1.231652	0.161877	0.518940
H724	H	0.512279	-0.500954	-0.168588
H725	H	0.845612	-0.167620	0.164745
H726	H	1.178946	0.165713	0.498078
O727	O	0.513125	0.004419	-0.226854
O728	O	0.846459	0.337752	0.106479
O729	O	1.179792	0.671085	0.439813
C730	C	0.487434	-0.021268	-0.191838
C731	C	0.820767	0.312065	0.141495
C732	C	1.154100	0.645398	0.474829
H733	H	0.507462	-0.024225	-0.153755
H734	H	0.840795	0.309108	0.179578
H735	H	1.174128	0.642441	0.512912
H736	H	0.449341	-0.001091	-0.186171
H737	H	0.782675	0.332243	0.147162
H738	H	1.116008	0.665576	0.480496
C739	C	0.459174	-0.068957	-0.259462
C740	C	0.792507	0.264376	0.073872
C741	C	1.125840	0.597709	0.407205
C742	C	0.483774	-0.072593	-0.212689
C743	C	0.817108	0.260740	0.120645
C744	C	1.150441	0.594074	0.453978
H745	H	0.456914	-0.100616	-0.272324
H746	H	0.790247	0.232717	0.061010
H747	H	1.123581	0.566051	0.394343
H748	H	0.476481	-0.051651	-0.283053
H749	H	0.809814	0.281683	0.050280
H750	H	1.143148	0.615016	0.383613
H751	H	0.427432	-0.052141	-0.254733
H752	H	0.760766	0.281192	0.078601
H753	H	1.094099	0.614526	0.411934
H754	H	0.515517	-0.089404	-0.217419
H755	H	0.848850	0.243930	0.115914
H756	H	1.182183	0.577263	0.449247
H757	H	0.466472	-0.089904	-0.189098
H758	H	0.799806	0.243430	0.144235
H759	H	1.133139	0.576763	0.477568
H760	H	0.571805	-0.316767	0.130121
H761	H	0.905139	0.016567	0.463454
H762	H	1.238472	0.349900	0.796787
H763	H	0.566898	-0.791367	-0.084026
H764	H	0.900231	-0.458034	0.249307
H765	H	1.233565	-0.124701	0.582641
H766	H	-0.202323	0.139209	-0.000099
H767	H	0.131011	0.472542	0.333235
H768	H	0.464344	0.805876	0.666568
O769	O	0.573190	-0.180207	0.091195
O770	O	0.906523	0.153126	0.424528
O771	O	1.239856	0.486460	0.757862
C772	C	0.573518	-0.147141	0.132021
C773	C	0.906851	0.186192	0.465354
C774	C	1.240185	0.519526	0.798688
H775	H	0.589195	-0.113322	0.118462
H776	H	0.922528	0.220012	0.451795
H777	H	1.255862	0.553345	0.785129
H778	H	0.534779	-0.136416	0.146235
H779	H	0.868112	0.196917	0.479568
H780	H	1.201446	0.530251	0.812902
C781	C	0.585775	-0.212731	0.192387
C782	C	0.919108	0.120602	0.525720
C783	C	1.252441	0.453936	0.859053
C784	C	0.605033	-0.171195	0.175734
C785	C	0.938367	0.162138	0.509067
C786	C	1.271700	0.495472	0.842401
H787	H	0.605213	-0.227569	0.219352
H788	H	0.938546	0.105765	0.552685
H789	H	1.271879	0.439098	0.886019
H790	H	0.585552	-0.235008	0.164882
H791	H	0.918885	0.098325	0.498215
H792	H	1.252218	0.431658	0.831548
H793	H	0.553493	-0.203788	0.204228
H794	H	0.886826	0.129546	0.537561
H795	H	1.220159	0.462879	0.870894
H796	H	0.637312	-0.180140	0.163887
H797	H	0.970645	0.153194	0.497221
H798	H	1.303979	0.486527	0.830554
H799	H	0.605262	-0.148920	0.203238
H800	H	0.938596	0.184414	0.536571
H801	H	1.271929	0.517747	0.869905
H802	H	0.574092	-0.084855	-0.083965
H803	H	0.907425	0.248478	0.249368
H804	H	1.240759	0.581811	0.582701
O805	O	0.513098	0.004527	-0.121578
O806	O	0.846431	0.337861	0.211756
O807	O	1.179765	0.671194	0.545089
C808	C	0.479881	0.034232	-0.090701
C809	C	0.813214	0.367566	0.242632
C810	C	1.146547	0.700899	0.575965
H811	H	0.494650	0.069997	-0.082690
H812	H	0.827983	0.403330	0.250643
H813	H	1.161317	0.736663	0.583976
H814	H	0.443493	0.041883	-0.111301
H815	H	0.776826	0.375216	0.222032
H816	H	1.110159	0.708549	0.555366
C817	C	0.454659	-0.035891	-0.049807
C818	C	0.787993	0.297442	0.283526
C819	C	1.121326	0.630775	0.616859
C820	C	0.472801	0.008033	-0.039965
C821	C	0.806135	0.341367	0.293369
C822	C	1.139468	0.674700	0.626702
H823	H	0.450290	-0.052052	-0.018511
H824	H	0.783623	0.281281	0.314822
H825	H	1.116957	0.614614	0.648155
H826	H	0.477037	-0.055905	-0.070610
H827	H	0.810370	0.277429	0.262723
H828	H	1.143704	0.610762	0.596056
H829	H	0.424338	-0.029510	-0.066975
H830	H	0.757671	0.303823	0.266358
H831	H	1.091004	0.637157	0.599692
H832	H	0.503125	0.001651	-0.022803
H833	H	0.836458	0.334984	0.310530
H834	H	1.169791	0.668318	0.643863
H835	H	0.450428	0.028045	-0.019157
H836	H	0.783762	0.361378	0.314176
H837	H	1.117095	0.694712	0.647509
H838	H	0.623270	0.114690	-0.125771
H839	H	0.956604	0.448023	0.207562
H840	H	1.289937	0.781356	0.540896
H841	H	-0.067962	0.184710	-0.000114
H842	H	0.265372	0.518043	0.333219
H843	H	0.598705	0.851377	0.666553
H844	H	0.412731	0.145456	-0.000074
H845	H	0.746064	0.478789	0.333260
H846	H	1.079398	0.812122	0.666593
H847	H	-0.033683	-0.063393	-0.000064
H848	H	0.299651	0.269940	0.333270
H849	H	0.632984	0.603274	0.666603
H850	H	0.573173	-0.176307	-0.083976
H851	H	0.906506	0.157026	0.249358
H852	H	1.239840	0.490360	0.582691
O853	O	0.627871	0.119312	-0.226780
O854	O	0.961204	0.452645	0.106553
O855	O	1.294538	0.785978	0.439887
C856	C	0.653549	0.144998	-0.191731
C857	C	0.986883	0.478331	0.141602
C858	C	1.320216	0.811664	0.474935
H859	H	0.633510	0.147949	-0.153666
H860	H	0.966843	0.481282	0.179668
H861	H	1.300177	0.814616	0.513001
H862	H	0.691641	0.124823	-0.186036
H863	H	1.024975	0.458156	0.147297
H864	H	1.358308	0.791489	0.480631
C865	C	0.681825	0.192697	-0.259312
C866	C	1.015159	0.526030	0.074021
C867	C	1.348492	0.859363	0.407355
C868	C	0.657210	0.196325	-0.212561
C869	C	0.990544	0.529659	0.120773
C870	C	1.323877	0.862992	0.454106
H871	H	0.684086	0.224357	-0.272161
H872	H	1.017419	0.557690	0.061172
H873	H	1.350753	0.891024	0.394506
H874	H	0.664527	0.175390	-0.282926
H875	H	0.997860	0.508724	0.050408
H876	H	1.331194	0.842057	0.383741
H877	H	0.713566	0.175882	-0.254560
H878	H	1.046900	0.509216	0.078774
H879	H	1.380233	0.842549	0.412107
H880	H	0.625468	0.213134	-0.217315
H881	H	0.958802	0.546467	0.116018
H882	H	1.292135	0.879800	0.449352
H883	H	0.674504	0.213636	-0.188948
H884	H	1.007837	0.546969	0.144385
H885	H	1.341170	0.880302	0.477718
H886	H	0.623334	0.114737	-0.777413
H887	H	0.956668	0.448070	-0.444079
H888	H	1.290001	0.781403	-0.110746
O889	O	0.657043	0.148400	-0.527590
O890	O	0.990376	0.481733	-0.194256
O891	O	1.323710	0.815066	0.139077
C892	C	0.682716	0.174101	-0.562610
C893	C	1.016049	0.507434	-0.229277
C894	C	1.349382	0.840768	0.104056
H895	H	0.685681	0.154069	-0.600686
H896	H	1.019015	0.487402	-0.267353
H897	H	1.352348	0.820736	0.065980
H898	H	0.662521	0.212186	-0.568293
H899	H	0.995854	0.545519	-0.234959
H900	H	1.329188	0.878852	0.098374
C901	C	0.730390	0.202393	-0.494988
C902	C	1.063723	0.535727	-0.161655
C903	C	1.397056	0.869060	0.171678
C904	C	0.734036	0.177788	-0.541753
C905	C	1.067369	0.511121	-0.208420
C906	C	1.400702	0.844454	0.124914
H907	H	0.762046	0.204670	-0.482122
H908	H	1.095379	0.538003	-0.148789
H909	H	1.428712	0.871336	0.184544
H910	H	0.713093	0.185080	-0.471394
H911	H	1.046426	0.518413	-0.138061
H912	H	1.379759	0.851746	0.195273
H913	H	0.713559	0.234128	-0.499730
H914	H	1.046892	0.567461	-0.166397
H915	H	1.380226	0.900795	0.166937
H916	H	0.750861	0.146052	-0.537009
H917	H	1.084194	0.479385	-0.203676
H918	H	1.417527	0.812718	0.129657
H919	H	0.751337	0.195096	-0.565346
H920	H	1.084670	0.528430	-0.232013
H921	H	1.418004	0.861763	0.101320
O922	O	0.484131	-0.024716	-0.472636
O923	O	0.817465	0.308618	-0.139303
O924	O	1.150798	0.641951	0.194030
C925	C	0.497888	-0.073873	-0.459573
C926	C	0.831221	0.259460	-0.126240
C927	C	1.164555	0.592794	0.207093
H928	H	0.536903	-0.078815	-0.444879
H929	H	0.870237	0.254518	-0.111546
H930	H	1.203570	0.587851	0.221788
H931	H	0.472633	-0.084917	-0.428576
H932	H	0.805966	0.248416	-0.095243
H933	H	1.139300	0.581749	0.238090
C934	C	0.446408	-0.099905	-0.525073
C935	C	0.779741	0.233428	-0.191740
C936	C	1.113075	0.566762	0.141594
C937	C	0.494329	-0.105976	-0.507029
C938	C	0.827662	0.227358	-0.173696
C939	C	1.160995	0.560691	0.159637
H940	H	0.444210	-0.119708	-0.554345
H941	H	0.777544	0.213625	-0.221012
H942	H	1.110877	0.546958	0.112321
H943	H	0.437138	-0.066787	-0.533873
H944	H	0.770471	0.266547	-0.200540
H945	H	1.103805	0.599880	0.132794
H946	H	0.425367	-0.109108	-0.499238
H947	H	0.758701	0.224225	-0.165905
H948	H	1.092034	0.557559	0.167429
H949	H	0.515367	-0.096767	-0.532862
H950	H	0.848701	0.236566	-0.199529
H951	H	1.182034	0.569900	0.133805
H952	H	0.503602	-0.139094	-0.498235
H953	H	0.836935	0.194240	-0.164902
H954	H	1.170269	0.527573	0.168432
O955	O	-0.298772	0.145118	-0.000127
O956	O	0.034561	0.478451	0.333206
O957	O	0.367895	0.811785	0.666539
C958	C	-0.347366	0.135152	-0.000112
C959	C	-0.014033	0.468485	0.333221
C960	C	0.319300	0.801818	0.666555
H961	H	-0.349016	0.097192	-0.016165
H962	H	-0.015683	0.430525	0.317168
H963	H	0.317650	0.763859	0.650502
H964	H	-0.361953	0.137108	0.040598
H965	H	-0.028620	0.470441	0.373931
H966	H	0.304713	0.803774	0.707265
C967	C	-0.376487	0.219523	-0.013686
C968	C	-0.043154	0.552857	0.319648
C969	C	0.290179	0.886190	0.652981
C970	C	-0.378515	0.172902	-0.033407
C971	C	-0.045181	0.506235	0.299927
C972	C	0.288152	0.839569	0.633260
H973	H	-0.395702	0.242810	-0.034221
H974	H	-0.062369	0.576144	0.299112
H975	H	0.270964	0.909477	0.632445
H976	H	-0.343749	0.226239	-0.013694
H977	H	-0.010415	0.559572	0.319639
H978	H	0.322918	0.892905	0.652972
H979	H	-0.388642	0.221146	0.020239
H980	H	-0.055309	0.554480	0.353572
H981	H	0.278024	0.887813	0.686905
H982	H	-0.366354	0.171278	-0.067328
H983	H	-0.033021	0.504611	0.266005
H984	H	0.300312	0.837945	0.599339
H985	H	-0.411252	0.166187	-0.033405
H986	H	-0.077919	0.499521	0.299929
H987	H	0.255414	0.832854	0.633262
H988	H	0.652435	0.143817	-0.628605
H989	H	0.985768	0.477150	-0.295272
H990	H	1.319101	0.810484	0.038062
H991	H	-0.271685	-0.021675	-0.000063
H992	H	0.061648	0.311659	0.333271
H993	H	0.394982	0.644992	0.666604
O994	O	0.483995	-0.024594	-0.367385
O995	O	0.817328	0.308740	-0.034052
O996	O	1.150661	0.642073	0.299281
C997	C	0.434831	-0.010871	-0.380459
C998	C	0.768164	0.322463	-0.047126
C999	C	1.101498	0.655796	0.286207
H1000	H	0.429861	0.028145	-0.395140
H1001	H	0.763194	0.361478	-0.061807
H1002	H	1.096527	0.694812	0.271526
H1003	H	0.423804	-0.036136	-0.411470
H1004	H	0.757138	0.297198	-0.078136
H1005	H	1.090471	0.630531	0.255197
C1006	C	0.408841	-0.062374	-0.314988
C1007	C	0.742175	0.270959	0.018345
C1008	C	1.075508	0.604292	0.351679
C1009	C	0.402736	-0.014453	-0.333015
C1010	C	0.736069	0.318880	0.000318
C1011	C	1.069403	0.652213	0.333651
H1012	H	0.389043	-0.064586	-0.285723
H1013	H	0.722376	0.268747	0.047610
H1014	H	1.055710	0.602080	0.380943
H1015	H	0.441964	-0.071622	-0.306181
H1016	H	0.775297	0.261712	0.027153
H1017	H	1.108630	0.595045	0.360486
H1018	H	0.399653	-0.083423	-0.340834
H1019	H	0.732986	0.249910	-0.007501
H1020	H	1.066320	0.583243	0.325832
H1021	H	0.411930	0.006593	-0.307171
H1022	H	0.745264	0.339927	0.026162
H1023	H	1.078597	0.673260	0.359495
H1024	H	0.369614	-0.005203	-0.341817
H1025	H	0.702948	0.328130	-0.008484
H1026	H	1.036281	0.661464	0.324850
H1027	H	0.652398	0.143807	-0.371468
H1028	H	0.985732	0.477140	-0.038134
H1029	H	1.319065	0.810474	0.295199
O1030	O	0.513161	0.004570	-0.773235
O1031	O	0.846495	0.337903	-0.439902
O1032	O	1.179828	0.671236	-0.106569
C1033	C	0.479944	0.034273	-0.742357
C1034	C	0.813277	0.367606	-0.409024
C1035	C	1.146610	0.700939	-0.075691
H1036	H	0.494718	0.070032	-0.734335
H1037	H	0.828051	0.403366	-0.401002
H1038	H	1.161384	0.736699	-0.067668
H1039	H	0.443559	0.041932	-0.762962
H1040	H	0.776892	0.375266	-0.429628
H1041	H	1.110225	0.708599	-0.096295
C1042	C	0.454706	-0.035855	-0.701485
C1043	C	0.788039	0.297479	-0.368152
C1044	C	1.121373	0.630812	-0.034819
C1045	C	0.472854	0.008065	-0.691629
C1046	C	0.806187	0.341398	-0.358295
C1047	C	1.139520	0.674731	-0.024962
H1048	H	0.450330	-0.052021	-0.670194
H1049	H	0.783664	0.281312	-0.336861
H1050	H	1.116997	0.614646	-0.003528
H1051	H	0.477084	-0.055867	-0.722290
H1052	H	0.810417	0.277467	-0.388956
H1053	H	1.143751	0.610800	-0.055623
H1054	H	0.424387	-0.029465	-0.718657
H1055	H	0.757721	0.303868	-0.385323
H1056	H	1.091054	0.637201	-0.051990
H1057	H	0.503174	0.001674	-0.674463
H1058	H	0.836508	0.335008	-0.341130
H1059	H	1.169841	0.668341	-0.007797
H1060	H	0.450480	0.028075	-0.670820
H1061	H	0.783814	0.361408	-0.337487
H1062	H	1.117147	0.694742	-0.004154
H1063	H	0.570207	-0.468017	-0.130258
H1064	H	0.903540	-0.134684	0.203075
H1065	H	1.236873	0.198650	0.536408
H1066	H	0.083287	0.186253	-0.000106
H1067	H	0.416621	0.519586	0.333227
H1068	H	0.749954	0.852919	0.666560
H1069	H	0.057765	-0.062462	-0.000062
H1070	H	0.391098	0.270871	0.333271
H1071	H	0.724432	0.604204	0.666604
H1072	H	0.652408	0.143812	-0.468357
H1073	H	0.985741	0.477145	-0.135023
H1074	H	1.319075	0.810479	0.198310
