data_functionalizedCrystal
_audit_creation_method	'MofGen! by Chris Wilmer'
_symmetry_space_group_name_H-M	'P1'
_symmetry_Int_Tables_number	1
_symmetry_cell_setting	triclinic
loop_
_symmetry_equiv_pos_as_xyz
  x,y,z
_cell_length_a	18.101398
_cell_length_b	18.101395
_cell_length_c	11.169409
_cell_angle_alpha	90.035674
_cell_angle_beta	90.028498
_cell_angle_gamma	90.026371
loop_
_atom_site_label
_atom_site_type_symbol
_atom_site_fract_x
_atom_site_fract_y
_atom_site_fract_z
Zn1	Zn	1.132152	-0.294863	0.678792
Zn2	Zn	1.132038	-0.418729	0.478098
Zn3	Zn	1.008301	-0.294896	0.478096
Zn4	Zn	1.008261	-0.418657	0.678712
O5	O	1.070188	-0.356786	0.578425
O6	O	1.235769	-0.311311	0.652204
O7	O	1.115594	-0.402347	0.310148
O8	O	1.024795	-0.191259	0.504752
O9	O	1.235686	-0.402315	0.504754
O10	O	1.115787	-0.191235	0.652203
O11	O	1.024685	-0.311367	0.310147
O12	O	0.904663	-0.311297	0.504674
O13	O	1.024726	-0.402191	0.846673
O14	O	0.904634	-0.402223	0.652066
O15	O	1.115748	-0.311241	0.846732
O16	O	1.115555	-0.522353	0.504677
O17	O	1.024616	-0.522300	0.652067
C18	C	0.877778	-0.356756	0.578362
C19	C	0.795464	-0.356761	0.578364
C20	C	0.496373	-0.356808	0.578465
C21	C	0.527692	-0.299313	0.486182
C22	C	0.613310	-0.299467	0.485789
C23	C	0.644755	-0.356784	0.578415
C24	C	0.613635	-0.434799	0.543859
C25	C	0.527990	-0.434479	0.543217
C26	C	0.527993	-0.336965	0.705520
C27	C	0.613644	-0.335228	0.704826
C28	C	0.728615	-0.356775	0.578388
C29	C	0.412513	-0.356821	0.578488
C30	C	1.070089	-0.549197	0.578389
C31	C	1.070114	-0.631511	0.578414
C32	C	1.070277	-0.930602	0.578479
C33	C	1.013194	-0.899274	0.671444
C34	C	1.012922	-0.813656	0.671153
C35	C	1.070196	-0.782219	0.578448
C36	C	1.049061	-0.813380	0.451956
C37	C	1.048693	-0.899026	0.452512
C38	C	1.148620	-0.898949	0.610893
C39	C	1.148160	-0.813298	0.613667
C40	C	1.070152	-0.698360	0.578423
C41	C	1.070319	-1.014461	0.578496
C42	C	1.263350	-0.356817	0.578488
C43	C	1.345664	-0.356830	0.578515
C44	C	1.070245	-0.356704	0.891467
C45	C	1.070269	-0.356669	1.024867
C46	C	1.070308	-0.163624	0.578486
C47	C	1.070359	-0.081310	0.578513
C48	C	1.070174	-0.356815	0.266600
C49	C	1.070293	-0.356641	0.133201
H50	H	0.507271	-0.478769	0.607501
H51	H	0.635052	-0.374052	0.777268
N52	N	1.030524	-0.926487	0.796087
H53	H	1.040559	-0.882903	0.850215
H54	H	1.075532	-0.959398	0.793398
H55	H	1.026146	-0.792585	0.764945
H56	H	1.167888	-0.920491	0.701560
N57	N	0.640621	-0.493069	0.630088
H58	H	0.619941	-0.542766	0.606159
H59	H	0.623629	-0.480389	0.713723
N60	N	0.501466	-0.456754	0.420184
H61	H	0.470372	-0.502931	0.426480
H62	H	0.545445	-0.466650	0.366939
N63	N	0.501142	-0.392427	0.796592
H64	H	0.471863	-0.366158	0.860711
H65	H	0.544938	-0.418047	0.834176
H66	H	0.991425	-0.919066	0.425056
H67	H	0.635046	-0.451916	0.451979
N68	N	1.169279	-0.786318	0.736974
H69	H	1.128521	-0.754096	0.769894
H70	H	1.216516	-0.756777	0.731827
H71	H	1.192940	-0.791895	0.550893
N72	N	0.640397	-0.316842	0.361079
H73	H	0.621510	-0.367012	0.335885
H74	H	0.696190	-0.316972	0.360384
N75	N	0.974001	-0.785066	0.414938
H76	H	0.960893	-0.805426	0.333437
H77	H	0.975078	-0.729324	0.411456
H78	H	1.089330	-0.793020	0.380801
H79	H	1.191149	-0.919209	0.543184
H80	H	0.955477	-0.920858	0.650242
N81	N	0.936007	-0.786589	0.642698
H82	H	0.900390	-0.805336	0.705287
H83	H	0.920653	-0.805509	0.561319
N84	N	0.641189	-0.222838	0.514467
H85	H	0.597843	-0.188654	0.527479
H86	H	0.672084	-0.204067	0.445626
N87	N	0.499446	-0.262919	0.747171
H88	H	0.443750	-0.264460	0.751968
H89	H	0.515083	-0.223431	0.688573
N90	N	1.101371	-0.926489	0.357634
H91	H	1.124726	-0.882958	0.315630
H92	H	1.073428	-0.957476	0.297534
H93	H	0.633989	-0.277818	0.730882
H94	H	0.506138	-0.312283	0.392584
N95	N	0.500439	-0.222447	0.514533
H96	H	0.467525	-0.224144	0.587470
H97	H	0.471557	-0.202688	0.444113
