data_functionalizedCrystal
_audit_creation_method	'MofGen! by Chris Wilmer'
_symmetry_space_group_name_H-M	'P1'
_symmetry_Int_Tables_number	1
_symmetry_cell_setting	triclinic
loop_
_symmetry_equiv_pos_as_xyz
  x,y,z
_cell_length_a	19.288864
_cell_length_b	9.616153
_cell_length_c	19.288865
_cell_angle_alpha	90.011727
_cell_angle_beta	83.136245
_cell_angle_gamma	90.016071
loop_
_atom_site_label
_atom_site_type_symbol
_atom_site_fract_x
_atom_site_fract_y
_atom_site_fract_z
O1	O	0.921346	0.116107	0.086650
O2	O	1.421346	0.616107	0.586650
O3	O	0.719085	0.116014	0.098338
O4	O	1.219085	0.616014	0.598338
O5	O	0.826060	0.116036	-0.008636
O6	O	1.326060	0.616036	0.491364
O7	O	0.814371	0.116086	0.193624
O8	O	1.314371	0.616086	0.693624
O9	O	0.826056	-0.115255	-0.008644
O10	O	1.326056	0.384745	0.491356
O11	O	0.719081	-0.115277	0.098331
O12	O	1.219081	0.384723	0.598331
O13	O	0.921342	-0.115184	0.086642
O14	O	1.421342	0.384816	0.586642
Zn15	Zn	0.820211	-0.151953	0.092486
Zn16	Zn	1.320211	0.348047	0.592486
Zn17	Zn	0.820216	0.152783	0.092495
Zn18	Zn	1.320216	0.652783	0.592495
O19	O	0.814367	-0.115206	0.193617
O20	O	1.314367	0.384794	0.693617
C21	C	0.693207	0.000356	0.097959
C22	C	1.193207	0.500356	0.597959
C23	C	0.616103	0.000320	0.096830
C24	C	1.116103	0.500320	0.596830
N25	N	0.820212	-0.359928	0.092478
N26	N	1.320212	0.140072	0.592478
C27	C	0.571407	0.000357	0.159598
C28	C	1.071407	0.500357	0.659598
C29	C	0.498960	0.000372	0.158537
C30	C	0.998960	0.500372	0.658537
C31	C	0.471212	0.000378	0.094705
C32	C	0.971212	0.500378	0.594705
C33	C	0.515918	0.000333	0.031929
C34	C	1.015918	0.500333	0.531929
C35	C	0.588364	0.000304	0.032991
C36	C	1.088364	0.500304	0.532991
C37	C	0.362952	0.081444	0.044528
C38	C	0.862952	0.581444	0.544528
C39	C	0.290507	0.081482	0.043468
C40	C	0.790507	0.581482	0.543468
C41	C	0.247767	0.000461	0.091425
C42	C	0.747767	0.500461	0.591425
C43	C	0.277478	-0.080579	0.140454
C44	C	0.777478	0.419421	0.640454
C45	C	0.349923	-0.080608	0.141516
C46	C	0.849923	0.419392	0.641516
C47	C	0.392658	0.000409	0.093546
C48	C	0.892658	0.500409	0.593546
C49	C	0.124514	0.000513	0.153047
C50	C	0.624514	0.500513	0.653047
C51	C	0.052066	0.000519	0.151984
C52	C	0.552066	0.500519	0.651984
C53	C	0.069026	0.000494	0.025374
C54	C	0.569026	0.500494	0.525374
C55	C	0.141473	0.000474	0.026439
C56	C	0.641473	0.500474	0.526439
C57	C	0.169212	0.000490	0.090278
C58	C	0.669212	0.500490	0.590278
C59	C	0.877645	-0.580242	0.035447
C60	C	1.377645	-0.080242	0.535447
C61	C	0.877495	-0.419075	0.035233
C62	C	1.377495	0.080925	0.535233
C63	C	0.747795	-0.418497	0.076876
C64	C	1.247795	0.081503	0.576876
C65	C	0.748137	-0.579715	0.076477
C66	C	1.248137	-0.079715	0.576477
C67	C	0.834558	-0.579775	0.165318
C68	C	1.334558	-0.079775	0.665318
C69	C	0.836202	-0.418546	0.164820
C70	C	1.336202	0.081454	0.664820
C71	C	0.947220	0.000477	0.087022
C72	C	1.447220	0.500477	0.587022
C73	C	1.024324	0.000523	0.088151
C74	C	1.524324	0.500523	0.588151
C75	C	0.825682	0.000386	-0.034516
C76	C	1.325682	0.500386	0.465484
C77	C	0.824553	0.000373	-0.111620
C78	C	1.324553	0.500373	0.388380
N79	N	0.820220	0.360758	0.092497
N80	N	1.320220	0.860758	0.592497
C81	C	0.887321	0.000395	-0.156316
C82	C	1.387321	0.500395	0.343684
C83	C	0.886260	0.000417	-0.228763
C84	C	1.386260	0.500417	0.271237
C85	C	0.822428	0.000388	-0.256511
C86	C	1.322428	0.500388	0.243489
C87	C	0.759652	0.000374	-0.211805
C88	C	1.259652	0.500374	0.288195
C89	C	0.760714	0.000367	-0.139359
C90	C	1.260714	0.500367	0.360641
C91	C	0.772247	-0.080651	-0.364801
C92	C	1.272247	0.419349	0.135199
C93	C	0.771187	-0.080652	-0.437245
C94	C	1.271187	0.419348	0.062755
C95	C	0.819148	0.000418	-0.479956
C96	C	1.319148	0.500418	0.020044
C97	C	0.868181	0.081471	-0.450216
C98	C	1.368181	0.581471	0.049784
C99	C	0.869243	0.081464	-0.377770
C100	C	1.369243	0.581464	0.122230
C101	C	0.821269	0.000397	-0.335065
C102	C	1.321269	0.500397	0.164935
C103	C	0.880770	0.000465	-0.603209
C104	C	1.380770	0.500465	-0.103209
C105	C	0.879707	0.000495	-0.675657
C106	C	1.379707	0.500495	-0.175657
C107	C	0.753097	0.000439	-0.658697
C108	C	1.253097	0.500439	-0.158697
C109	C	0.754162	0.000423	-0.586250
C110	C	1.254162	0.500423	-0.086250
C111	C	0.818000	0.000429	-0.558511
C112	C	1.318000	0.500429	-0.058511
C113	C	0.814745	0.000447	0.219497
C114	C	1.314745	0.500447	0.719497
C115	C	0.815874	0.000469	0.296601
C116	C	1.315874	0.500469	0.796601
H117	H	0.593987	0.000373	0.211580
H118	H	1.093987	0.500373	0.711580
H119	H	0.735466	-0.617353	0.023376
H120	H	1.235466	-0.117353	0.523376
Cl121	Cl	0.709549	-0.182551	-0.474627
Cl122	Cl	1.209549	0.317449	0.025373
Cl123	Cl	0.481037	0.000332	-0.048318
Cl124	Cl	0.981037	0.500332	0.451682
Cl125	Cl	0.680199	-0.639985	0.138205
Cl126	Cl	1.180199	-0.139985	0.638205
Cl127	Cl	0.675249	0.000389	-0.530057
Cl128	Cl	1.175249	0.500389	-0.030057
Cl129	Cl	0.223755	-0.182440	0.200747
Cl130	Cl	0.723755	0.317560	0.700747
H131	H	0.701123	0.000423	-0.681288
H132	H	1.201123	0.500423	-0.181288
H133	H	0.704042	-0.380188	0.117329
H134	H	1.204042	0.119812	0.617329
H135	H	0.909166	0.147462	-0.353558
H136	H	1.409166	0.647462	0.146442
Cl137	Cl	0.958623	0.000532	-0.731848
Cl138	Cl	1.458623	0.500532	-0.231848
Cl139	Cl	0.711948	-0.182582	-0.311114
Cl140	Cl	1.211948	0.317418	0.188886
Cl141	Cl	0.644557	0.000258	-0.045924
Cl142	Cl	1.144557	0.500258	0.454076
Cl143	Cl	0.679405	0.000350	-0.246686
Cl144	Cl	1.179405	0.500350	0.253314
Cl145	Cl	0.960614	-0.357925	0.049536
Cl146	Cl	1.460614	0.142075	0.549536
Cl147	Cl	0.442760	0.000416	0.237451
Cl148	Cl	0.942760	0.500416	0.737451
Cl149	Cl	0.387273	-0.182488	0.203145
Cl150	Cl	0.887273	0.317512	0.703145
Cl151	Cl	0.416676	0.183308	-0.015767
Cl152	Cl	0.916676	0.683308	0.484233
H153	H	0.709599	0.000348	-0.102967
H154	H	1.209599	0.500348	0.397033
H155	H	0.734805	-0.378154	0.024379
H156	H	1.234805	0.121846	0.524379
H157	H	0.931666	-0.618975	0.044553
H158	H	1.431666	-0.118975	0.544553
Cl159	Cl	0.914331	-0.642471	0.188556
Cl160	Cl	1.414331	-0.142471	0.688556
Cl161	Cl	0.863747	-0.642833	-0.047526
Cl162	Cl	1.363747	-0.142833	0.452474
Cl163	Cl	0.159390	0.000519	0.233300
Cl164	Cl	0.659390	0.500519	0.733300
H165	H	0.015674	0.000542	0.203099
H166	H	0.515674	0.500542	0.703099
H167	H	0.046435	0.000585	-0.026600
H168	H	0.546435	0.500585	0.473400
H169	H	0.797068	-0.378279	0.209243
H170	H	1.297068	0.121721	0.709243
H171	H	0.266322	0.147475	0.003549
H172	H	0.766322	0.647475	0.503549
Cl173	Cl	0.197666	0.000435	-0.052474
Cl174	Cl	0.697666	0.500435	0.447526
Cl175	Cl	0.863376	-0.359570	-0.048210
Cl176	Cl	1.363376	0.140430	0.451790
Cl177	Cl	0.918445	-0.359425	0.183116
Cl178	Cl	1.418445	0.140575	0.683116
Cl179	Cl	0.769902	-0.638692	0.230861
Cl180	Cl	1.269902	-0.138692	0.730861
Cl181	Cl	0.967575	0.000443	-0.121448
Cl182	Cl	1.467575	0.500443	0.378552
H183	H	0.937375	0.000440	-0.265162
H184	H	1.437375	0.500440	0.234838
H185	H	0.907235	0.147487	-0.484990
H186	H	1.407235	0.647487	0.015010
Cl187	Cl	0.961023	0.000466	-0.568333
Cl188	Cl	1.461023	0.500466	-0.068333
