data_functionalizedCrystal
_audit_creation_method	'MofGen! by Chris Wilmer'
_symmetry_space_group_name_H-M	'P1'
_symmetry_Int_Tables_number	1
_symmetry_cell_setting	triclinic
loop_
_symmetry_equiv_pos_as_xyz
  x,y,z
_cell_length_a	18.050591
_cell_length_b	12.759399
_cell_length_c	12.759393
_cell_angle_alpha	89.968539
_cell_angle_beta	90.028291
_cell_angle_gamma	89.988878
loop_
_atom_site_label
_atom_site_type_symbol
_atom_site_fract_x
_atom_site_fract_y
_atom_site_fract_z
Zn1	Zn	1.135414	0.418322	0.594236
Zn2	Zn	1.135337	0.594039	0.418555
Zn3	Zn	1.011217	0.418362	0.418547
Zn4	Zn	1.011210	0.593947	0.594168
O5	O	1.073295	0.506167	0.506377
O6	O	1.239329	0.441652	0.570963
O7	O	1.118844	0.570790	0.271533
O8	O	1.027728	0.271336	0.441878
O9	O	1.239272	0.570751	0.441891
O10	O	1.118975	0.271306	0.570956
O11	O	1.027653	0.441722	0.271527
O12	O	0.907292	0.441632	0.441812
O13	O	1.027715	0.570594	0.741198
O14	O	0.907286	0.570634	0.570840
O15	O	1.118967	0.441563	0.741248
O16	O	1.118836	0.741048	0.441825
O17	O	1.027640	0.740980	0.570848
C18	C	0.880343	0.506128	0.506319
C19	C	0.797797	0.506137	0.506319
C20	C	1.073249	0.779135	0.506353
C21	C	1.073298	0.895911	0.506378
C22	C	1.073349	0.506064	0.780410
C23	C	1.073372	0.506020	0.897187
C24	C	0.598328	0.435905	0.436315
C25	C	0.548921	0.531735	0.410465
C26	C	0.646666	0.506169	0.506366
C27	C	0.548991	0.410371	0.532213
C28	C	0.500681	0.506191	0.506410
C29	C	0.598347	0.602050	0.480466
C30	C	0.598422	0.480621	0.602259
C31	C	0.549037	0.576518	0.576446
C32	C	0.730765	0.506154	0.506338
C33	C	0.416585	0.506216	0.506438
C34	C	1.267000	0.506207	0.506436
C35	C	1.349546	0.506224	0.506461
C36	C	1.073361	0.232134	0.506424
C37	C	1.073389	0.115357	0.506444
C38	C	1.120838	0.950774	0.439272
C39	C	1.120885	1.060498	0.439307
C40	C	1.025847	1.060487	0.573557
C41	C	1.025803	0.950765	0.573526
C42	C	1.208543	1.210385	0.401937
C43	C	1.256077	1.265251	0.334815
C44	C	1.267502	1.229713	0.232307
C45	C	1.231383	1.139311	0.196900
C46	C	1.183845	1.084451	0.264016
C47	C	1.172433	1.119987	0.366539
C48	C	0.938144	0.800876	0.610886
C49	C	0.890601	0.746013	0.677998
C50	C	0.879168	0.781549	0.780507
C51	C	0.915274	0.871955	0.815910
C52	C	0.962817	0.926817	0.748799
C53	C	0.974251	0.891274	0.646290
C54	C	1.073284	0.506195	0.233409
C55	C	1.073404	0.505943	0.116633
C56	C	1.120906	0.438783	1.061808
C57	C	1.120891	0.438824	0.952084
C58	C	1.025868	0.573187	0.952020
C59	C	1.025887	0.573151	1.061742
C60	C	1.208460	0.401355	0.802173
C61	C	1.255955	0.334178	0.747344
C62	C	1.267389	0.231655	0.782981
C63	C	1.231317	0.196287	0.873446
C64	C	1.183817	0.263458	0.928270
C65	C	1.172397	0.365996	0.892634
C66	C	0.938317	0.610609	1.211655
C67	C	0.890812	0.677775	1.266480
C68	C	0.879371	0.780300	1.230845
C69	C	0.915430	0.815665	1.140377
C70	C	0.962934	0.748498	1.085551
C71	C	0.974377	0.645974	1.121194
H72	H	0.619970	0.376548	0.377011
H73	H	1.306060	0.176959	0.738331
H74	H	1.159597	0.384057	1.106497
H75	H	0.527179	0.553360	0.329389
H76	H	0.619937	0.683098	0.458533
O77	O	1.291088	0.368640	0.659587
C78	C	1.336040	0.455373	0.684905
H79	H	1.350064	0.453321	0.772006
H80	H	1.389340	0.451985	0.637135
H81	H	1.305066	0.530946	0.666047
H82	H	0.992296	0.777301	1.011887
H83	H	1.154439	0.234657	1.001915
H84	H	0.527531	0.636016	0.635704
O85	O	0.979606	1.113658	0.638724
C86	C	0.905585	1.086961	0.615634
H87	H	0.904031	1.007331	0.575221
H88	H	0.872257	1.083178	0.691410
H89	H	0.880614	1.148785	0.561602
H90	H	0.620181	0.458967	0.683311
H91	H	0.906115	0.899150	1.111362
H92	H	1.306206	1.274392	0.177656
H93	H	0.527272	0.329358	0.554021
H94	H	1.154439	1.010846	0.235189
H95	H	1.159511	0.906114	0.384598
O96	O	1.242585	1.104914	0.097300
C97	C	1.292273	1.172735	0.045645
H98	H	1.327303	1.215940	0.106137
H99	H	1.329945	1.125156	-0.007965
H100	H	1.259752	1.231948	-0.003005
H101	H	1.285485	1.338857	0.363653
O102	O	1.197444	0.501022	0.767704
C103	C	1.219770	0.572367	0.845924
H104	H	1.261387	0.532820	0.900317
H105	H	1.246606	0.643624	0.807656
H106	H	1.169371	0.598350	0.893049
O107	O	1.197586	1.244929	0.501541
C108	C	1.265751	1.246290	0.555527
H109	H	1.313104	1.251437	0.496665
H110	H	1.267642	1.317094	0.609916
H111	H	1.271628	1.171440	0.603655
H112	H	0.992219	1.000428	0.777634
O113	O	0.833221	0.845668	1.283950
C114	C	0.830877	0.943753	1.233110
H115	H	0.847291	0.933713	1.147438
H116	H	0.772338	0.976969	1.237772
H117	H	0.871105	0.999889	1.273007
H118	H	0.987180	0.627904	0.907314
O119	O	0.904115	0.906311	0.915536
C120	C	0.854399	0.838517	0.967171
H121	H	0.855230	0.758508	0.927471
H122	H	0.871700	0.829669	1.052660
H123	H	0.796065	0.872553	0.963138
O124	O	1.242527	0.096672	0.907940
C125	C	1.292171	0.044961	0.840138
H126	H	1.327183	0.105412	0.796845
H127	H	1.329864	-0.008697	0.887747
H128	H	1.259611	-0.003648	0.780999
O129	O	0.855899	0.643438	1.354461
C130	C	0.909089	0.613450	1.429682
H131	H	0.963648	0.655161	1.412846
H132	H	0.888736	0.635884	1.511207
H133	H	0.917892	0.525057	1.425820
O134	O	0.832982	0.728108	0.845578
C135	C	0.803540	0.640715	0.792344
H136	H	0.841873	0.618267	0.725016
H137	H	0.798472	0.571973	0.848997
H138	H	0.746470	0.661233	0.759973
O139	O	0.855489	0.658284	0.643450
C140	C	0.810547	0.683707	0.556671
H141	H	0.832225	0.758220	0.518059
H142	H	0.811914	0.616649	0.497698
H143	H	0.751162	0.696808	0.584083
H144	H	0.947455	0.771928	0.527416
H145	H	0.947633	0.527125	1.240682
