data_functionalizedCrystal
_audit_creation_method	'MofGen! by Chris Wilmer'
_symmetry_space_group_name_H-M	'P1'
_symmetry_Int_Tables_number	1
_symmetry_cell_setting	triclinic
loop_
_symmetry_equiv_pos_as_xyz
  x,y,z
_cell_length_a	15.944551
_cell_length_b	15.944551
_cell_length_c	15.021413
_cell_angle_alpha	90.003065
_cell_angle_beta	89.997174
_cell_angle_gamma	83.498738
loop_
_atom_site_label
_atom_site_type_symbol
_atom_site_fract_x
_atom_site_fract_y
_atom_site_fract_z
O1	O	1.114529	0.108321	-0.073941
O2	O	1.614529	0.608321	0.426059
O3	O	0.869979	0.121677	-0.073964
O4	O	1.369979	0.621677	0.426036
O5	O	0.998932	-0.007276	-0.073944
O6	O	1.498932	0.492724	0.426056
O7	O	0.985576	0.237274	-0.073961
O8	O	1.485576	0.737274	0.426039
O9	O	0.998912	-0.007257	0.074121
O10	O	1.498912	0.492743	0.574121
O11	O	0.869959	0.121695	0.074101
O12	O	1.369959	0.621695	0.574101
O13	O	1.114508	0.108339	0.074123
O14	O	1.614508	0.608339	0.574123
Zn15	Zn	0.992230	0.115020	0.097620
Zn16	Zn	1.492230	0.615020	0.597620
Zn17	Zn	0.992257	0.114996	-0.097461
Zn18	Zn	1.492257	0.614996	0.402539
O19	O	0.985555	0.237292	0.074103
O20	O	1.485555	0.737292	0.574103
C21	C	0.838675	0.121132	0.000066
C22	C	1.338675	0.621132	0.500066
C23	C	0.745429	0.119470	0.000057
C24	C	1.245429	0.619470	0.500057
C25	C	0.530572	0.035565	0.000081
C26	C	1.030572	0.535565	0.500081
C27	C	0.469562	0.074518	-0.072926
C28	C	0.969562	0.574518	0.427074
C29	C	0.574703	0.116462	0.000068
C30	C	1.074703	0.616462	0.500068
C31	C	0.469564	0.074556	0.073054
C32	C	0.969564	0.574556	0.573054
C33	C	0.409790	0.113551	0.000083
C34	C	0.909790	0.613551	0.500083
C35	C	0.514921	0.155438	-0.072998
C36	C	1.014921	0.655438	0.427002
C37	C	0.514930	0.155464	0.073047
C38	C	1.014930	0.655464	0.573047
C39	C	0.453937	0.194476	0.000023
C40	C	0.953937	0.694476	0.500023
C41	C	0.669705	0.118137	0.000059
C42	C	1.169705	0.618137	0.500059
C43	C	0.314789	0.111883	0.000085
C44	C	0.814789	0.611883	0.500085
C45	C	0.998367	-0.038561	0.000089
C46	C	1.498367	0.461439	0.500089
C47	C	0.996705	-0.131807	0.000089
C48	C	1.496705	0.368193	0.500089
C49	C	0.912801	-0.346663	0.000069
C50	C	1.412801	0.153337	0.500069
C51	C	0.951753	-0.407672	0.073077
C52	C	1.451753	0.092328	0.573077
C53	C	0.993698	-0.302533	0.000082
C54	C	1.493698	0.197467	0.500082
C55	C	0.951792	-0.407673	-0.072903
C56	C	1.451792	0.092327	0.427097
C57	C	0.990787	-0.467445	0.000071
C58	C	1.490787	0.032555	0.500071
C59	C	1.032672	-0.362313	0.073150
C60	C	1.532672	0.137687	0.573150
C61	C	1.032700	-0.362308	-0.072895
C62	C	1.532700	0.137692	0.427105
C63	C	1.071711	-0.423298	0.000131
C64	C	1.571711	0.076702	0.500131
C65	C	0.995372	-0.207530	0.000089
C66	C	1.495372	0.292470	0.500089
C67	C	0.989119	-0.562446	0.000070
C68	C	1.489119	-0.062446	0.500070
C69	C	1.145813	0.108885	0.000092
C70	C	1.645813	0.608885	0.500092
C71	C	1.239059	0.110547	0.000094
C72	C	1.739059	0.610547	0.500094
C73	C	0.986120	0.268577	0.000069
C74	C	1.486120	0.768577	0.500069
C75	C	0.987782	0.361823	0.000063
C76	C	1.487782	0.861823	0.500063
N77	N	0.992218	0.115036	0.230758
N78	N	1.492218	0.615036	0.730758
N79	N	0.992276	0.114973	-0.230598
N80	N	1.492276	0.614973	0.269402
C81	C	0.932581	0.174636	0.470432
C82	C	1.432581	0.674636	0.970432
C83	C	1.008481	0.190943	0.529772
C84	C	1.508481	0.690943	1.029772
C85	C	0.992239	0.115015	0.412365
C86	C	1.492239	0.615015	0.912365
C87	C	0.916360	0.098727	0.529766
C88	C	1.416360	0.598727	1.029766
C89	C	0.992253	0.114997	0.587789
C90	C	1.492253	0.614997	1.087789
C91	C	1.068178	0.131360	0.470398
C92	C	1.568178	0.631360	0.970398
C93	C	0.976006	0.039111	0.470387
C94	C	1.476006	0.539111	0.970387
C95	C	1.051962	0.055386	0.529701
C96	C	1.551962	0.555386	1.029701
C97	C	0.992230	0.115028	0.311307
C98	C	1.492230	0.615028	0.811307
C99	C	0.992271	0.114984	0.688844
C100	C	1.492271	0.614984	1.188844
H101	H	0.449470	0.040332	0.134773
H102	H	0.949470	0.540332	0.634773
F103	F	0.907062	-0.433943	-0.153573
F104	F	1.407062	0.066057	0.346427
F105	F	0.541234	0.200160	0.153719
F106	F	1.041234	0.700160	0.653719
F107	F	0.825033	-0.303129	0.000152
F108	F	1.325033	0.196871	0.500152
F109	F	1.117983	-0.010529	0.563507
F110	F	1.617983	0.489471	1.063507
F111	F	0.907021	-0.433945	0.153746
F112	F	1.407021	0.066055	0.653746
F113	F	0.958013	-0.044754	0.436264
F114	F	1.458013	0.455246	0.936264
H115	H	0.852184	0.084959	0.555847
H116	H	1.352184	0.584959	1.055847
H117	H	0.882181	0.225096	0.444409
H118	H	1.382181	0.725096	0.944409
F119	F	1.159555	-0.466641	0.000190
F120	F	1.659555	0.033359	0.500190
H121	H	0.534918	0.189621	-0.134787
H122	H	1.034918	0.689621	0.365213
F123	F	1.152081	0.149454	0.436460
F124	F	1.652081	0.649454	0.936460
H125	H	1.066851	-0.342314	0.134941
H126	H	1.566851	0.157686	0.634941
F127	F	0.574108	-0.052202	-0.000005
F128	F	1.074108	0.447798	0.499995
H129	H	1.022224	0.255126	0.555856
H130	H	1.522224	0.755126	1.055856
F131	F	0.410594	0.282319	-0.000034
F132	F	0.910594	0.782319	0.499966
F133	F	0.443289	0.029788	-0.153596
F134	F	0.943289	0.529788	0.346404
F135	F	1.077397	-0.336004	-0.153567
F136	F	1.577397	0.163996	0.346433
