data_functionalizedCrystal
_audit_creation_method	'MofGen! by Chris Wilmer'
_symmetry_space_group_name_H-M	'P1'
_symmetry_Int_Tables_number	1
_symmetry_cell_setting	triclinic
loop_
_symmetry_equiv_pos_as_xyz
  x,y,z
_cell_length_a	14.853554
_cell_length_b	14.853566
_cell_length_c	9.130313
_cell_angle_alpha	89.997390
_cell_angle_beta	89.999354
_cell_angle_gamma	96.368068
loop_
_atom_site_label
_atom_site_type_symbol
_atom_site_fract_x
_atom_site_fract_y
_atom_site_fract_z
O1	O	-0.117695	1.196355	0.121701
O2	O	-0.131718	0.933894	0.121724
O3	O	0.006524	1.072142	0.121704
O4	O	-0.255937	1.058107	0.121721
O5	O	0.006520	1.072140	-0.121894
O6	O	-0.131722	0.933893	-0.121874
O7	O	-0.117699	1.196353	-0.121898
Cu8	Cu	-0.124711	1.065123	-0.144129
Cu9	Cu	-0.124706	1.065125	0.143955
O10	O	-0.255941	1.058106	-0.121878
C11	C	-0.131085	0.900305	-0.000072
C12	C	-0.129181	0.800221	-0.000063
C13	C	-0.121129	0.377038	0.132697
C14	C	-0.121133	0.377057	-0.132884
C15	C	-0.122921	0.471091	-0.132880
C16	C	-0.123814	0.518102	-0.000085
C17	C	-0.122919	0.471080	0.132705
C18	C	-0.123825	0.518119	-0.265667
C19	C	-0.125613	0.612159	-0.265668
C20	C	-0.126500	0.659173	-0.132872
C21	C	-0.125604	0.612145	-0.000076
C22	C	-0.126497	0.659156	0.132719
C23	C	-0.125594	0.612131	0.265516
C24	C	-0.123805	0.518094	0.265502
C25	C	-0.128289	0.753210	-0.132858
C26	C	-0.128287	0.753199	0.132727
C27	C	-0.289528	1.058740	-0.000077
C28	C	-0.389613	1.060639	-0.000071
C29	C	-0.812789	1.068713	0.132703
C30	C	-0.812778	1.068711	-0.132878
C31	C	-0.718745	1.066915	-0.132876
C32	C	-0.671730	1.066020	-0.000083
C33	C	-0.718747	1.066920	0.132709
C34	C	-0.671720	1.066025	-0.265666
C35	C	-0.577681	1.064230	-0.265670
C36	C	-0.530664	1.063328	-0.132875
C37	C	-0.577688	1.064227	-0.000078
C38	C	-0.530672	1.063332	0.132715
C39	C	-0.577694	1.064224	0.265514
C40	C	-0.671730	1.066018	0.265503
C41	C	-0.436628	1.061535	-0.132864
C42	C	-0.436630	1.061539	0.132721
C43	C	0.040111	1.071507	-0.000094
C44	C	0.140195	1.069608	-0.000090
C45	C	-0.118333	1.229943	-0.000099
C46	C	-0.120236	1.330026	-0.000098
N47	N	-0.124713	1.065128	-0.346751
C48	C	-0.063521	1.126359	-0.423412
C49	C	-0.063510	1.126357	-0.576749
C50	C	-0.185893	1.003889	-0.576751
C51	C	-0.185898	1.003887	-0.423417
C52	C	0.007134	1.197068	-0.423413
C53	C	0.007144	1.197066	-0.576749
N54	N	-0.124697	1.065127	0.346578
H55	H	-0.129032	0.791493	-0.240979
Cl56	Cl	-0.518577	1.063102	-0.432613
H57	H	-0.398346	1.060811	-0.240987
H58	H	-0.235718	0.954020	-0.361001
H59	H	-0.014337	1.262362	-0.375859
Cl60	Cl	-0.015899	1.303853	-0.641022
Cl61	Cl	-0.377533	1.060407	0.299671
Cl62	Cl	-0.730828	1.067156	-0.432594
Cl63	Cl	0.107992	1.163998	-0.650174
Cl64	Cl	-0.122713	0.459015	-0.432597
Cl65	Cl	-0.129402	0.812292	0.299680
Cl66	Cl	-0.126744	0.671269	-0.432609
Cl67	Cl	-0.518576	1.063110	0.432447
Cl68	Cl	-0.730844	1.067183	0.432434
Cl69	Cl	-0.119969	0.317926	0.299633
H70	H	-0.235707	0.954028	-0.639188
Cl71	Cl	0.113945	1.174104	-0.359147
H72	H	-0.126328	0.650419	0.373637
H73	H	-0.123070	0.479797	0.373618
H74	H	-0.120413	0.338774	-0.241000
Cl75	Cl	-0.871898	1.069851	0.299641
H76	H	-0.851063	1.069446	-0.240992
