data_functionalizedCrystal
_audit_creation_method	'MofGen! by Chris Wilmer'
_symmetry_space_group_name_H-M	'P1'
_symmetry_Int_Tables_number	1
_symmetry_cell_setting	triclinic
loop_
_symmetry_equiv_pos_as_xyz
  x,y,z
_cell_length_a	16.959455
_cell_length_b	18.215405
_cell_length_c	16.959455
_cell_angle_alpha	90.016495
_cell_angle_beta	90.007639
_cell_angle_gamma	90.021832
loop_
_atom_site_label
_atom_site_type_symbol
_atom_site_fract_x
_atom_site_fract_y
_atom_site_fract_z
Zn1	Zn	1.208305	-0.293154	0.446890
Zn2	Zn	1.541638	0.040179	0.780224
Zn3	Zn	1.874972	0.373513	1.113557
Zn4	Zn	1.208232	-0.416195	0.314704
Zn5	Zn	1.541565	-0.082862	0.648038
Zn6	Zn	1.874899	0.250472	0.981371
Zn7	Zn	1.076149	-0.293140	0.314728
Zn8	Zn	1.409482	0.040193	0.648061
Zn9	Zn	1.742816	0.373526	0.981395
Zn10	Zn	1.076087	-0.416177	0.446843
Zn11	Zn	1.409421	-0.082843	0.780176
Zn12	Zn	1.742754	0.250490	1.113510
O13	O	1.142193	-0.354666	0.380791
O14	O	1.475527	-0.021333	0.714125
O15	O	1.808860	0.312000	1.047458
O16	O	1.318906	-0.309489	0.429366
O17	O	1.652240	0.023844	0.762699
O18	O	1.985573	0.357178	1.096032
O19	O	1.190706	-0.399873	0.204097
O20	O	1.524040	-0.066540	0.537430
O21	O	1.857373	0.266793	0.870763
O22	O	1.093736	-0.190158	0.332289
O23	O	1.427070	0.143176	0.665623
O24	O	1.760403	0.476509	0.998956
O25	O	1.318853	-0.399887	0.332249
O26	O	1.652186	-0.066553	0.665583
O27	O	1.985519	0.266780	0.998916
O28	O	1.190831	-0.190168	0.429389
O29	O	1.524164	0.143166	0.762722
O30	O	1.857498	0.476499	1.096055
O31	O	1.093665	-0.309466	0.204114
O32	O	1.426999	0.023868	0.537447
O33	O	1.760332	0.357201	0.870781
O34	O	0.965530	-0.309448	0.332243
O35	O	1.298863	0.023885	0.665577
O36	O	1.632197	0.357219	0.998910
O37	O	1.093631	-0.399855	0.557460
O38	O	1.426964	-0.066522	0.890793
O39	O	1.760298	0.266811	1.224127
O40	O	0.965485	-0.399842	0.429308
O41	O	1.298818	-0.066509	0.762641
O42	O	1.632151	0.266824	1.095974
O43	O	1.190771	-0.309471	0.557495
O44	O	1.524104	0.023862	0.890828
O45	O	1.857438	0.357195	1.224162
O46	O	1.190646	-0.519177	0.332203
O47	O	1.523980	-0.185843	0.665536
O48	O	1.857313	0.147490	0.998870
O49	O	1.093560	-0.519163	0.429285
O50	O	1.426893	-0.185830	0.762618
O51	O	1.760227	0.147503	1.095951
C52	C	1.142110	-0.545873	0.380753
C53	C	1.475443	-0.212539	0.714087
C54	C	1.808777	0.120794	1.047420
C55	C	1.142146	-0.627672	0.380764
C56	C	1.475480	-0.294338	0.714097
C57	C	1.808813	0.038995	1.047430
C58	C	0.936827	-0.354642	0.380773
C59	C	1.270160	-0.021309	0.714107
C60	C	1.603494	0.312025	1.047440
C61	C	0.848970	-0.354650	0.380784
C62	C	1.182304	-0.021316	0.714118
C63	C	1.515637	0.312017	1.047451
C64	C	1.192818	-0.815848	0.330306
C65	C	1.526151	-0.482515	0.663640
C66	C	1.859485	-0.149181	0.996973
C67	C	1.192853	-0.892707	0.330325
C68	C	1.526187	-0.559373	0.663659
C69	C	1.859520	-0.226040	0.996992
C70	C	1.091670	-0.892733	0.431333
C71	C	1.425003	-0.559399	0.764667
C72	C	1.758337	-0.226066	1.098000
C73	C	1.091639	-0.815875	0.431318
C74	C	1.424972	-0.482542	0.764651
C75	C	1.758306	-0.149209	1.097984
C76	C	1.142212	-0.777435	0.380800
C77	C	1.475545	-0.444102	0.714133
C78	C	1.808879	-0.110768	1.047466
C79	C	1.142278	-0.931151	0.380834
C80	C	1.475611	-0.597818	0.714168
C81	C	1.808945	-0.264484	1.047501
C82	C	1.142316	-1.014485	0.380856
C83	C	1.475649	-0.681151	0.714189
C84	C	1.808983	-0.347818	1.047522
C85	C	1.142175	-0.694096	0.380779
C86	C	1.475509	-0.360763	0.714113
C87	C	1.808842	-0.027429	1.047446
C88	C	0.477494	-0.307560	0.330356
C89	C	0.810827	0.025774	0.663689
C90	C	1.144161	0.359107	0.997022
C91	C	0.477496	-0.401834	0.431272
C92	C	0.810829	-0.068501	0.764606
C93	C	1.144162	0.264833	1.097939
C94	C	0.560042	-0.401823	0.431268
C95	C	0.893375	-0.068490	0.764601
C96	C	1.226708	0.264843	1.097934
C97	C	0.601318	-0.354681	0.380805
C98	C	0.934651	-0.021348	0.714139
C99	C	1.267984	0.311986	1.047472
C100	C	0.560048	-0.307549	0.330348
C101	C	0.893381	0.025784	0.663681
C102	C	1.226714	0.359118	0.997014
C103	C	0.601318	-0.448960	0.481719
C104	C	0.934651	-0.115626	0.815052
C105	C	1.267984	0.217707	1.148385
C106	C	0.683869	-0.448951	0.481715
C107	C	1.017202	-0.115618	0.815049
C108	C	1.350535	0.217715	1.148382
C109	C	0.725146	-0.401805	0.431256
C110	C	1.058479	-0.068471	0.764589
C111	C	1.391813	0.264862	1.097923
C112	C	0.683871	-0.354671	0.380797
C113	C	1.017204	-0.021337	0.714130
C114	C	1.350538	0.311996	1.047464
C115	C	0.725147	-0.307528	0.330335
C116	C	1.058480	0.025805	0.663668
C117	C	1.391814	0.359139	0.997001
C118	C	0.683874	-0.260390	0.279879
C119	C	1.017207	0.072944	0.613212
C120	C	1.350540	0.406277	0.946546
C121	C	0.601325	-0.260402	0.279889
C122	C	0.934658	0.072931	0.613222
C123	C	1.267992	0.406264	0.946555
C124	C	0.807694	-0.401792	0.431247
C125	C	1.141028	-0.068459	0.764580
C126	C	1.474361	0.264875	1.097913
C127	C	0.807701	-0.307518	0.330327
C128	C	1.141034	0.025816	0.663660
C129	C	1.474367	0.359149	0.996993
C130	C	1.348362	-0.354691	0.380810
C131	C	1.681695	-0.021358	0.714143
C132	C	2.015028	0.311975	1.047477
C133	C	1.436218	-0.354702	0.380818
C134	C	1.769551	-0.021369	0.714151
C135	C	2.102885	0.311965	1.047485
C136	C	1.142202	-0.354663	0.586960
C137	C	1.475536	-0.021329	0.920293
C138	C	1.808869	0.312004	1.253626
C139	C	1.142206	-0.354661	0.674816
C140	C	1.475539	-0.021328	1.008150
C141	C	1.808873	0.312005	1.341483
C142	C	1.142299	-0.162714	0.380847
C143	C	1.475632	0.170620	0.714180
C144	C	1.808965	0.503953	1.047514
C145	C	1.142344	-0.080915	0.380871
C146	C	1.475677	0.252419	0.714204
C147	C	1.809010	0.585752	1.047537
C148	C	1.192733	-0.401731	0.716083
C149	C	1.526067	-0.068397	1.049416
C150	C	1.859400	0.264936	1.382749
C151	C	1.091677	-0.307594	0.716103
C152	C	1.425011	0.025739	1.049437
C153	C	1.758344	0.359072	1.382770
C154	C	1.091676	-0.307594	0.798649
C155	C	1.425009	0.025739	1.131982
C156	C	1.758343	0.359073	1.465316
C157	C	1.142203	-0.354664	0.839916
C158	C	1.475537	-0.021330	1.173249
C159	C	1.808870	0.312003	1.506582
C160	C	1.192732	-0.401733	0.798636
C161	C	1.526065	-0.068400	1.131970
C162	C	1.859398	0.264933	1.465303
C163	C	1.041143	-0.260530	0.839935
C164	C	1.374476	0.072803	1.173268
C165	C	1.707809	0.406136	1.506601
C166	C	1.041139	-0.260529	0.922485
C167	C	1.374472	0.072805	1.255819
C168	C	1.707805	0.406138	1.589152
C169	C	1.091671	-0.307595	0.963754
C170	C	1.425004	0.025738	1.297087
C171	C	1.758337	0.359072	1.630420
C172	C	1.142202	-0.354666	0.922469
C173	C	1.475535	-0.021333	1.255803
C174	C	1.808868	0.312001	1.589136
C175	C	1.192729	-0.401736	0.963736
C176	C	1.526062	-0.068402	1.297069
C177	C	1.859396	0.264931	1.630402
C178	C	1.243265	-0.448804	0.922453
C179	C	1.576598	-0.115470	1.255786
C180	C	1.909932	0.217863	1.589120
C181	C	1.243264	-0.448800	0.839904
C182	C	1.576597	-0.115466	1.173238
C183	C	1.909930	0.217867	1.506571
C184	C	1.091672	-0.307599	1.046302
C185	C	1.425005	0.025734	1.379635
C186	C	1.758338	0.359068	1.712969
C187	C	1.192728	-0.401738	1.046289
C188	C	1.526061	-0.068405	1.379623
C189	C	1.859394	0.264928	1.712956
C190	C	1.142185	-0.354682	1.175425
C191	C	1.475518	-0.021348	1.508758
C192	C	1.808851	0.311985	1.842092
C193	C	1.142199	-0.354668	1.087569
C194	C	1.475532	-0.021335	1.420902
C195	C	1.808866	0.311998	1.754235
H196	H	1.233999	-0.784552	0.289172
H197	H	1.567332	-0.451218	0.622506
H198	H	1.900665	-0.117885	0.955839
Cl199	Cl	0.425610	-0.248299	0.266933
Cl200	Cl	0.758944	0.085034	0.600266
Cl201	Cl	1.092277	0.418368	0.933600
H202	H	1.233880	-0.440050	0.682467
H203	H	1.567214	-0.106717	1.015800
H204	H	1.900547	0.226616	1.349133
Cl205	Cl	1.256256	-0.460911	1.098161
Cl206	Cl	1.589589	-0.127578	1.431494
Cl207	Cl	1.922922	0.205756	1.764827
Cl208	Cl	1.028094	-0.941063	0.494836
Cl209	Cl	1.361427	-0.607730	0.828169
Cl210	Cl	1.694760	-0.274396	1.161502
Cl211	Cl	0.735773	-0.201132	0.216438
Cl212	Cl	1.069106	0.132201	0.549772
Cl213	Cl	1.402440	0.465535	0.883105
Cl214	Cl	1.256477	-0.940994	0.266847
Cl215	Cl	1.589811	-0.607661	0.600180
Cl216	Cl	1.923144	-0.274328	0.933514
H217	H	1.284401	-0.487130	0.956063
H218	H	1.617735	-0.153797	1.289396
H219	H	1.951068	0.179537	1.622730
Cl220	Cl	1.028019	-0.767581	0.494805
Cl221	Cl	1.361352	-0.434248	0.828138
Cl222	Cl	1.694686	-0.100914	1.161472
H223	H	1.050536	-0.269277	0.682499
H224	H	1.383869	0.064056	1.015832
H225	H	1.717202	0.397390	1.349166
H226	H	0.567713	-0.222026	0.238809
H227	H	0.901046	0.111308	0.572143
H228	H	1.234380	0.444641	0.905476
H229	H	1.000001	-0.222214	0.806329
H230	H	1.333334	0.111119	1.139663
H231	H	1.666667	0.444453	1.472996
H232	H	0.841302	-0.269124	0.289238
H233	H	1.174635	0.064210	0.622572
H234	H	1.507968	0.397543	0.955905
H235	H	0.443884	-0.440219	0.472352
H236	H	0.777217	-0.106886	0.805685
H237	H	1.110550	0.226447	1.139019
H238	H	0.567705	-0.487345	0.522797
H239	H	0.901038	-0.154012	0.856130
H240	H	1.234371	0.179321	1.189463
Cl241	Cl	0.735748	-0.508208	0.545146
Cl242	Cl	1.069081	-0.174874	0.878479
Cl243	Cl	1.402414	0.158459	1.211813
Cl244	Cl	0.859577	-0.461051	0.494666
Cl245	Cl	1.192911	-0.127718	0.828000
Cl246	Cl	1.526244	0.205616	1.161333
H247	H	1.284406	-0.487121	0.806285
H248	H	1.617740	-0.153787	1.139618
H249	H	1.951073	0.179546	1.472951
H250	H	0.999990	-0.222203	0.956091
H251	H	1.333323	0.111131	1.289424
H252	H	1.666656	0.444464	1.622758
Cl253	Cl	1.028155	-0.248426	1.098197
Cl254	Cl	1.361488	0.084908	1.431530
Cl255	Cl	1.694821	0.418241	1.764864
