data_functionalizedCrystal
_audit_creation_method	'MofGen! by Chris Wilmer'
_symmetry_space_group_name_H-M	'P1'
_symmetry_Int_Tables_number	1
_symmetry_cell_setting	triclinic
loop_
_symmetry_equiv_pos_as_xyz
  x,y,z
_cell_length_a	18.101398
_cell_length_b	18.101165
_cell_length_c	18.101389
_cell_angle_alpha	89.809924
_cell_angle_beta	90.014375
_cell_angle_gamma	90.187455
loop_
_atom_site_label
_atom_site_type_symbol
_atom_site_fract_x
_atom_site_fract_y
_atom_site_fract_z
Zn1	Zn	-1.133238	-0.294942	-0.417759
Zn2	Zn	-0.633238	0.205058	0.082241
Zn3	Zn	-1.133603	-0.418771	-0.293546
Zn4	Zn	-0.633603	0.081229	0.206454
Zn5	Zn	-1.009397	-0.294942	-0.293941
Zn6	Zn	-0.509397	0.205058	0.206059
Zn7	Zn	-1.009817	-0.418746	-0.417357
Zn8	Zn	-0.509817	0.081254	0.082643
O9	O	-1.071514	-0.356850	-0.355651
O10	O	-0.571514	0.143150	0.144349
O11	O	-1.236920	-0.311379	-0.401285
O12	O	-0.736920	0.188621	0.098715
O13	O	-1.117104	-0.402355	-0.189966
O14	O	-0.617104	0.097645	0.310034
O15	O	-1.025497	-0.191307	-0.310700
O16	O	-0.525497	0.308693	0.189300
O17	O	-1.237188	-0.402355	-0.310026
O18	O	-0.737188	0.097645	0.189974
O19	O	-1.116482	-0.191307	-0.401668
O20	O	-0.616482	0.308693	0.098332
O21	O	-1.025851	-0.311378	-0.190256
O22	O	-0.525851	0.188622	0.309744
O23	O	-0.905820	-0.311354	-0.310310
O24	O	-0.405820	0.188646	0.189690
O25	O	-1.026212	-0.402313	-0.521043
O26	O	-0.526212	0.097687	-0.021043
O27	O	-0.906129	-0.402313	-0.400982
O28	O	-0.406129	0.097687	0.099018
O29	O	-1.116889	-0.311355	-0.521338
O30	O	-0.616889	0.188645	-0.021338
O31	O	-1.117511	-0.522403	-0.309636
O32	O	-0.617511	-0.022403	0.190364
O33	O	-1.026566	-0.522385	-0.400599
O34	O	-0.526566	-0.022385	0.099401
C35	C	-0.879104	-0.356831	-0.355646
C36	C	-0.379104	0.143169	0.144354
C37	C	-0.796789	-0.356841	-0.355661
C38	C	-0.296789	0.143159	0.144339
C39	C	-0.646081	-0.356856	-0.355660
C40	C	-0.146081	0.143144	0.144340
C41	C	-0.614947	-0.414173	-0.412619
C42	C	-0.114947	0.085827	0.087381
C43	C	-0.529329	-0.414406	-0.412449
C44	C	-0.029329	0.085594	0.087551
C45	C	-0.497699	-0.356871	-0.355660
C46	C	0.002301	0.143129	0.144340
C47	C	-0.528830	-0.377684	-0.277455
C48	C	-0.028830	0.122316	0.222545
C49	C	-0.614477	-0.378092	-0.277785
C50	C	-0.114477	0.121908	0.222215
C51	C	-0.614263	-0.278584	-0.376222
C52	C	-0.114263	0.221416	0.123778
C53	C	-0.528615	-0.279014	-0.377942
C54	C	-0.028615	0.220986	0.122058
C55	C	-0.413839	-0.356878	-0.355655
C56	C	0.086161	0.143122	0.144345
C57	C	-0.729941	-0.356851	-0.355659
C58	C	-0.229941	0.143149	0.144341
C59	C	-1.072144	-0.549265	-0.355047
C60	C	-0.572144	-0.049265	0.144953
C61	C	-1.072481	-0.631581	-0.354814
C62	C	-0.572481	-0.131581	0.145186
C63	C	-1.071557	-0.356832	-0.548813
C64	C	-0.571557	0.143168	-0.048813
C65	C	-1.071575	-0.356824	-0.631127
C66	C	-0.571575	0.143176	-0.131127
C67	C	-0.264676	-0.356872	-0.355656
C68	C	0.235324	0.143128	0.144344
C69	C	-0.346990	-0.356886	-0.355658
C70	C	0.153010	0.143114	0.144342
C71	C	-1.070902	-0.163684	-0.356273
C72	C	-0.570902	0.336316	0.143727
C73	C	-1.070641	-0.081368	-0.356538
C74	C	-0.570641	0.418632	0.143462
C75	C	-1.071258	0.069336	-0.355960
C76	C	-0.571258	0.569336	0.144040
C77	C	-1.014140	0.100689	-0.298609
C78	C	-0.514140	0.600689	0.201391
C79	C	-1.014659	0.186302	-0.298056
C80	C	-0.514659	0.686302	0.201944
C81	C	-1.071864	0.217714	-0.355392
C82	C	-0.571864	0.717714	0.144608
C83	C	-1.149837	0.185910	-0.334584
C84	C	-0.649837	0.685910	0.165416
C85	C	-1.149156	0.100267	-0.334496
C86	C	-0.649156	0.600267	0.165504
C87	C	-1.051215	0.101603	-0.434142
C88	C	-0.551215	0.601603	0.065858
C89	C	-1.049844	0.187260	-0.433394
C90	C	-0.549844	0.687260	0.066606
C91	C	-1.072212	0.301571	-0.355071
C92	C	-0.572212	0.801571	0.144929
C93	C	-1.070916	-0.014521	-0.356278
C94	C	-0.570916	0.485479	0.143722
C95	C	-1.071618	-0.356685	-0.930219
C96	C	-0.571618	0.143315	-0.430219
C97	C	-1.014368	-0.413731	-0.898708
C98	C	-0.514368	0.086269	-0.398708
C99	C	-1.014525	-0.413996	-0.813089
C100	C	-0.514525	0.086004	-0.313089
C101	C	-1.071596	-0.356754	-0.781836
C102	C	-0.571596	0.143246	-0.281836
C103	C	-1.149702	-0.377940	-0.812864
C104	C	-0.649702	0.122060	-0.312864
C105	C	-1.149383	-0.378315	-0.898508
C106	C	-0.649383	0.121685	-0.398508
C107	C	-1.051439	-0.278325	-0.898881
C108	C	-0.551439	0.221675	-0.398881
C109	C	-1.049705	-0.278778	-0.813229
C110	C	-0.549705	0.221222	-0.313229
C111	C	-1.071588	-0.356791	-0.697976
C112	C	-0.571588	0.143209	-0.197976
C113	C	-1.071630	-0.356649	-1.014078
C114	C	-0.571630	0.143351	-0.514078
C115	C	-1.071514	-0.356816	-0.163240
C116	C	-0.571514	0.143184	0.336760
C117	C	-1.071639	-0.356615	-0.080927
C118	C	-0.571639	0.143385	0.419073
H119	H	-0.508330	-0.337217	-0.233840
H120	H	-0.008330	0.162783	0.266160
H121	H	-0.956286	-0.400609	-0.919343
H122	H	-0.456286	0.099391	-0.419343
C123	C	-0.641439	-0.220894	-0.320196
C124	C	-0.141439	0.279106	0.179804
H125	H	-0.622027	-0.173712	-0.332907
H126	H	-0.122027	0.326288	0.167093
H127	H	-0.693877	-0.219170	-0.321037
H128	H	-0.193877	0.280830	0.178963
H129	H	-0.625166	-0.234209	-0.272076
H130	H	-0.125166	0.265791	0.227924
H131	H	-1.093134	-0.235822	-0.919277
H132	H	-0.593134	0.264178	-0.419277
C133	C	-1.208647	0.072200	-0.388475
C134	C	-0.708647	0.572200	0.111525
H135	H	-1.233127	0.113142	-0.410355
H136	H	-0.733127	0.613142	0.089645
H137	H	-1.186029	0.043469	-0.425959
H138	H	-0.686029	0.543469	0.074041
H139	H	-1.243499	0.042686	-0.362399
H140	H	-0.743499	0.542686	0.137601
H141	H	-0.995459	-0.259023	-0.920534
H142	H	-0.495459	0.240977	-0.420534
H143	H	-1.027263	0.078668	-0.241000
H144	H	-0.527263	0.578668	0.259000
C145	C	-1.209147	0.213361	-0.389056
C146	C	-0.709147	0.713361	0.110944
H147	H	-1.186830	0.244540	-0.425056
H148	H	-0.686830	0.744540	0.074944
H149	H	-1.231493	0.172242	-0.412799
H150	H	-0.731493	0.672242	0.087201
H151	H	-1.245704	0.240251	-0.362915
H152	H	-0.745704	0.740251	0.137085
C153	C	-0.642294	-0.324117	-0.218462
C154	C	-0.142294	0.175883	0.281538
H155	H	-0.601249	-0.302044	-0.194263
H156	H	-0.101249	0.197956	0.305737
H157	H	-0.671334	-0.286777	-0.241162
H158	H	-0.171334	0.213223	0.258838
H159	H	-0.671449	-0.350239	-0.183354
H160	H	-0.171449	0.149761	0.316646
C161	C	-1.032588	-0.492450	-0.785171
C162	C	-0.532588	0.007550	-0.285171
H163	H	-1.032739	-0.492881	-0.732688
H164	H	-0.532739	0.007119	-0.232688
H165	H	-1.079839	-0.506966	-0.802886
H166	H	-0.579839	-0.006966	-0.302886
H167	H	-0.996319	-0.525904	-0.802710
H168	H	-0.496319	-0.025904	-0.302710
H169	H	-0.635518	-0.401342	-0.470769
H170	H	-0.135518	0.098658	0.029231
H171	H	-0.992449	0.208107	-0.449100
H172	H	-0.492449	0.708107	0.050900
H173	H	-0.507565	-0.434266	-0.259813
H174	H	-0.007565	0.065734	0.240187
C175	C	-1.032831	0.213303	-0.219573
C176	C	-0.532831	0.713303	0.280427
H177	H	-1.033202	0.265780	-0.218964
H178	H	-0.533202	0.765780	0.281036
H179	H	-1.080005	0.195105	-0.205277
H180	H	-0.580005	0.695105	0.294723
H181	H	-0.996483	0.195692	-0.186055
H182	H	-0.496483	0.695692	0.313945
H183	H	-0.992225	-0.262801	-0.792955
H184	H	-0.492225	0.237199	-0.292955
C185	C	-0.643345	-0.252907	-0.451996
C186	C	-0.143345	0.247093	0.048004
H187	H	-0.675170	-0.289687	-0.471800
H188	H	-0.175170	0.210313	0.028200
H189	H	-0.669873	-0.208086	-0.446350
H190	H	-0.169873	0.291914	0.053650
H191	H	-0.602921	-0.245131	-0.484598
H192	H	-0.102921	0.254869	0.015402
C193	C	-1.172093	0.072563	-0.257287
C194	C	-0.672093	0.572563	0.242713
H195	H	-1.181735	0.113652	-0.226269
H196	H	-0.681735	0.613652	0.273731
H197	H	-1.215384	0.043041	-0.261296
H198	H	-0.715384	0.543041	0.238704
H199	H	-1.133298	0.043914	-0.236655
H200	H	-0.633298	0.543914	0.263345
H201	H	-1.167287	0.206832	-0.277900
H202	H	-0.667287	0.706832	0.222100
H203	H	-0.995144	0.080548	-0.453320
H204	H	-0.495144	0.580548	0.046680
H205	H	-0.507064	-0.234056	-0.339532
H206	H	-0.007064	0.265944	0.160468
H207	H	-1.088568	0.208683	-0.478216
H208	H	-0.588568	0.708683	0.021784
H209	H	-1.027582	-0.471460	-0.920058
H210	H	-0.527582	0.028540	-0.420058
H211	H	-0.956615	-0.400738	-0.792106
H212	H	-0.456615	0.099262	-0.292106
C213	C	-0.500896	-0.396868	-0.490760
C214	C	-0.000896	0.103132	0.009240
H215	H	-0.541689	-0.389540	-0.522964
H216	H	-0.041689	0.110460	-0.022964
H217	H	-0.471497	-0.353321	-0.489554
H218	H	0.028503	0.146679	0.010446
H219	H	-0.471973	-0.436935	-0.508081
H220	H	0.028027	0.063065	-0.008081
C221	C	-1.172437	-0.455697	-0.925273
C222	C	-0.672437	0.044303	-0.425273
H223	H	-1.181905	-0.486610	-0.883805
H224	H	-0.681905	0.013390	-0.383805
H225	H	-1.215852	-0.451938	-0.954518
H226	H	-0.715852	0.048062	-0.454518
H227	H	-1.133764	-0.476291	-0.953996
H228	H	-0.633764	0.023709	-0.453996
H229	H	-1.092825	0.081332	-0.476857
H230	H	-0.592825	0.581332	0.023143
C231	C	-0.501113	-0.257792	-0.455687
C232	C	-0.001113	0.242208	0.044313
H233	H	-0.470912	-0.296213	-0.474493
H234	H	0.029088	0.203787	0.025507
H235	H	-0.542254	-0.250721	-0.487493
H236	H	-0.042254	0.249279	0.012507
H237	H	-0.473186	-0.213353	-0.453034
H238	H	0.026814	0.286647	0.046966
H239	H	-1.088337	-0.234018	-0.791972
H240	H	-0.588337	0.265982	-0.291972
C241	C	-1.208896	-0.323581	-0.785535
C242	C	-0.708896	0.176419	-0.285535
H243	H	-1.255686	-0.337410	-0.804950
H244	H	-0.755686	0.162590	-0.304950
H245	H	-1.210728	-0.324744	-0.733098
H246	H	-0.710728	0.175256	-0.233098
H247	H	-1.196797	-0.275049	-0.801711
H248	H	-0.696797	0.224951	-0.301711
C249	C	-0.936550	0.215396	-0.315587
C250	C	-0.436550	0.715396	0.184413
H251	H	-0.904214	0.174878	-0.323109
H252	H	-0.404214	0.674878	0.176891
H253	H	-0.938084	0.244951	-0.359020
H254	H	-0.438084	0.744951	0.140980
H255	H	-0.919155	0.244298	-0.275431
H256	H	-0.419155	0.744298	0.224569
H257	H	-1.193500	-0.338568	-0.919360
H258	H	-0.693500	0.161432	-0.419360
H259	H	-0.955970	0.080612	-0.311601
H260	H	-0.455970	0.580612	0.188399
C261	C	-1.173158	-0.454502	-0.783676
C262	C	-0.673158	0.045498	-0.283676
H263	H	-1.220498	-0.466832	-0.802761
H264	H	-0.720498	0.033168	-0.302761
H265	H	-1.138257	-0.490401	-0.799008
H266	H	-0.638257	0.009599	-0.299008
H267	H	-1.175202	-0.453503	-0.731247
H268	H	-0.675202	0.046497	-0.231247
C269	C	-0.644270	-0.492083	-0.394399
C270	C	-0.144270	0.007917	0.105601
H271	H	-0.625199	-0.526372	-0.429078
H272	H	-0.125199	-0.026372	0.070922
H273	H	-0.629014	-0.505760	-0.346050
H274	H	-0.129014	-0.005760	0.153950
H275	H	-0.696696	-0.492182	-0.396841
H276	H	-0.196696	0.007818	0.103159
C277	C	-0.501897	-0.492760	-0.393987
C278	C	-0.001897	0.007240	0.106013
H279	H	-0.543096	-0.524572	-0.386554
H280	H	-0.043096	-0.024572	0.113446
H281	H	-0.472824	-0.510707	-0.433710
H282	H	0.027176	-0.010707	0.066290
H283	H	-0.472855	-0.491344	-0.350289
H284	H	0.027145	0.008656	0.149711
H285	H	-0.634636	-0.435297	-0.260432
H286	H	-0.134636	0.064703	0.239568
