data_functionalizedCrystal
_audit_creation_method	'MofGen! by Chris Wilmer'
_symmetry_space_group_name_H-M	'P1'
_symmetry_Int_Tables_number	1
_symmetry_cell_setting	triclinic
loop_
_symmetry_equiv_pos_as_xyz
  x,y,z
_cell_length_a	16.959455
_cell_length_b	16.625539
_cell_length_c	16.959454
_cell_angle_alpha	90.024917
_cell_angle_beta	89.982978
_cell_angle_gamma	89.980538
loop_
_atom_site_label
_atom_site_type_symbol
_atom_site_fract_x
_atom_site_fract_y
_atom_site_fract_z
Zn1	Zn	1.208424	-0.455904	0.314745
Zn2	Zn	1.208335	-0.321080	0.446933
Zn3	Zn	1.076240	-0.321088	0.314765
Zn4	Zn	1.076217	-0.455872	0.446878
O5	O	1.142304	-0.388486	0.380830
O6	O	1.319023	-0.438030	0.332294
O7	O	1.190784	-0.208248	0.429432
O8	O	1.093822	-0.338988	0.204151
O9	O	1.318957	-0.338975	0.429412
O10	O	1.190937	-0.438038	0.204136
O11	O	1.093735	-0.208254	0.332329
O12	O	0.965626	-0.338957	0.332276
O13	O	1.093782	-0.568709	0.429319
O14	O	0.965609	-0.437982	0.429338
O15	O	1.190914	-0.568733	0.332241
O16	O	1.190762	-0.338943	0.557536
O17	O	1.093695	-0.437975	0.557496
C18	C	0.936938	-0.388468	0.380804
C19	C	0.849081	-0.388479	0.380812
C20	C	0.477590	-0.337031	0.330248
C21	C	0.477621	-0.439987	0.431477
C22	C	0.560167	-0.439982	0.431466
C23	C	0.601428	-0.388500	0.380846
C24	C	0.560144	-0.337023	0.330237
C25	C	0.601458	-0.491453	0.482079
C26	C	0.684008	-0.491449	0.482070
C27	C	0.725271	-0.439970	0.431446
C28	C	0.683982	-0.388492	0.380834
C29	C	0.725243	-0.337010	0.330214
C30	C	0.683955	-0.285534	0.279598
C31	C	0.601406	-0.285544	0.279612
C32	C	0.807820	-0.439961	0.431432
C33	C	0.807797	-0.337001	0.330203
C34	C	1.142355	-0.598795	0.380771
C35	C	1.142377	-0.688416	0.380746
C36	C	1.142414	-1.016592	0.380658
C37	C	1.142401	-0.925283	0.380685
C38	C	1.142396	-0.852507	0.380702
C39	C	1.142383	-0.761193	0.380728
C40	C	1.348472	-0.388505	0.380857
C41	C	1.436329	-0.388513	0.380868
C42	C	1.142238	-0.388472	0.586196
C43	C	1.142282	-0.388493	0.674053
C44	C	1.142298	-0.178995	0.380832
C45	C	1.142429	-0.089374	0.380634
C46	C	1.142392	-0.388517	0.174662
C47	C	1.142429	-0.388531	0.086805
C48	C	1.091835	-0.440046	1.045537
C49	C	1.192993	-0.337008	1.045519
C50	C	1.192966	-0.337001	0.962974
C51	C	1.142371	-0.388516	0.921706
C52	C	1.091804	-0.440039	0.962984
C53	C	1.243526	-0.285473	0.921689
C54	C	1.243500	-0.285463	0.839138
C55	C	1.192908	-0.336983	0.797869
C56	C	1.142340	-0.388508	0.839152
C57	C	1.091746	-0.440024	0.797885
C58	C	1.041181	-0.491554	0.839166
C59	C	1.041213	-0.491559	0.921715
C60	C	1.192876	-0.336978	0.715321
C61	C	1.091715	-0.440016	0.715331
H62	H	0.717618	-0.533364	0.523285
N63	N	1.247547	-0.281442	1.090035
H64	H	1.284168	-0.314243	1.124249
H65	H	1.279524	-0.248808	1.051314
N66	N	1.298076	-0.229906	0.966208
H67	H	1.334701	-0.262708	1.000418
H68	H	1.330049	-0.197264	0.927491
N69	N	0.728461	-0.230003	0.225007
H70	H	0.787019	-0.237809	0.232687
H71	H	0.714055	-0.242652	0.168571
H72	H	1.050668	-0.482003	1.079153
H73	H	0.443970	-0.295123	0.289036
H74	H	1.284673	-0.243505	0.805532
H75	H	1.234042	-0.295019	0.681713
H76	H	0.444021	-0.481897	0.472694
N77	N	0.852353	-0.495467	0.486023
H78	H	0.813688	-0.528078	0.518095
H79	H	0.886623	-0.532837	0.453893
N80	N	1.037148	-0.495584	0.670823
H81	H	1.005123	-0.528225	0.709502
H82	H	1.000571	-0.462725	0.636617
N83	N	0.556876	-0.230003	0.225048
H84	H	0.498321	-0.237811	0.232749
H85	H	0.571294	-0.172405	0.237302
N86	N	0.986609	-0.547107	0.794647
H87	H	1.018698	-0.584493	0.760351
H88	H	0.954589	-0.579700	0.833366
H89	H	1.000045	-0.533511	0.955333
H90	H	0.567856	-0.533361	0.523297
N91	N	0.852290	-0.281477	0.275595
H92	H	0.837895	-0.223846	0.287797
H93	H	0.910836	-0.289345	0.283288
