data_functionalizedCrystal
_audit_creation_method	'MofGen! by Chris Wilmer'
_symmetry_space_group_name_H-M	'P1'
_symmetry_Int_Tables_number	1
_symmetry_cell_setting	triclinic
loop_
_symmetry_equiv_pos_as_xyz
  x,y,z
_cell_length_a	17.699083
_cell_length_b	13.596369
_cell_length_c	17.699083
_cell_angle_alpha	90.006879
_cell_angle_beta	83.283015
_cell_angle_gamma	89.999299
loop_
_atom_site_label
_atom_site_type_symbol
_atom_site_fract_x
_atom_site_fract_y
_atom_site_fract_z
O1	O	1.004077	0.081655	0.095712
O2	O	0.783698	0.081688	0.108165
O3	O	0.900114	0.081662	-0.008250
O4	O	0.887661	0.081681	0.212128
O5	O	0.900102	-0.081921	-0.008257
O6	O	0.783687	-0.081895	0.108159
O7	O	1.004065	-0.081927	0.095706
Zn8	Zn	0.893874	-0.107884	0.101932
Zn9	Zn	0.893889	0.107644	0.101940
O10	O	0.887650	-0.081902	0.212122
C11	C	0.755495	-0.000099	0.107716
C12	C	0.671477	-0.000087	0.106377
N13	N	0.893869	-0.254975	0.101926
C14	C	0.622856	-0.000082	0.174710
C15	C	0.543913	-0.000095	0.173448
C16	C	0.513592	-0.000106	0.103852
C17	C	0.562219	-0.000115	0.035513
C18	C	0.641161	-0.000109	0.036776
C19	C	0.243856	-0.000139	0.030418
C20	C	0.164908	-0.000142	0.029160
C21	C	0.146608	-0.000125	0.167090
C22	C	0.225550	-0.000119	0.168353
C23	C	0.274170	-0.000133	0.100015
C24	C	0.359769	-0.000121	0.101384
C25	C	0.427995	-0.000111	0.102481
C26	C	0.893888	-0.656266	0.101940
C27	C	0.893881	-0.544615	0.101939
C28	C	0.893879	-0.455624	0.101934
C29	C	0.893871	-0.343966	0.101931
C30	C	1.032268	-0.000138	0.096156
C31	C	1.116286	-0.000144	0.097494
C32	C	0.899662	-0.000129	-0.036451
C33	C	0.898323	-0.000130	-0.120469
N34	N	0.893900	0.254736	0.101940
C35	C	0.966656	-0.000141	-0.169090
C36	C	0.965394	-0.000132	-0.248033
C37	C	0.895798	-0.000119	-0.278354
C38	C	0.827459	-0.000104	-0.229727
C39	C	0.828722	-0.000106	-0.150785
C40	C	0.822364	-0.000096	-0.548090
C41	C	0.821106	-0.000097	-0.627038
C42	C	0.959036	-0.000122	-0.645338
C43	C	0.960299	-0.000123	-0.566396
C44	C	0.891961	-0.000104	-0.517776
C45	C	0.893330	-0.000112	-0.432177
C46	C	0.894427	-0.000118	-0.363951
C47	C	0.888102	-0.000108	0.240322
C48	C	0.889440	-0.000101	0.324340
H49	H	0.647537	-0.000072	0.231384
H50	H	0.107012	-0.000119	0.222734
Cl51	Cl	1.054154	-0.000168	-0.130980
Cl52	Cl	1.044948	-0.000142	-0.706465
H53	H	0.537526	-0.000138	-0.021154
Cl54	Cl	0.733606	-0.000078	-0.665153
Cl55	Cl	0.702285	-0.000120	-0.049132
Cl56	Cl	0.304969	-0.000156	-0.055494
Cl57	Cl	1.051303	-0.000150	-0.309154
H58	H	0.766718	-0.000080	-0.508512
H59	H	1.016971	-0.000139	-0.541714
H60	H	0.504328	-0.000089	0.229092
H61	H	0.770792	-0.000087	-0.254420
H62	H	0.250232	-0.000105	0.225025
H63	H	0.140225	-0.000153	-0.027517
H64	H	0.773078	-0.000097	-0.111198
