data_functionalizedCrystal
_audit_creation_method	'MofGen! by Chris Wilmer'
_symmetry_space_group_name_H-M	'P1'
_symmetry_Int_Tables_number	1
_symmetry_cell_setting	triclinic
loop_
_symmetry_equiv_pos_as_xyz
  x,y,z
_cell_length_a	13.897449
_cell_length_b	16.120297
_cell_length_c	13.897448
_cell_angle_alpha	87.126532
_cell_angle_beta	89.981481
_cell_angle_gamma	92.876717
loop_
_atom_site_label
_atom_site_type_symbol
_atom_site_fract_x
_atom_site_fract_y
_atom_site_fract_z
Zn1	Zn	1.447027	-0.471424	0.411676
Zn2	Zn	1.455105	-0.332016	0.564802
Zn3	Zn	1.293900	-0.332025	0.403526
Zn4	Zn	1.285701	-0.471378	0.572930
O5	O	1.370433	-0.401711	0.488233
O6	O	1.583080	-0.452948	0.431998
O7	O	1.440533	-0.215355	0.536596
O8	O	1.314263	-0.350539	0.269627
O9	O	1.589014	-0.350525	0.544499
O10	O	1.426765	-0.452956	0.275614
O11	O	1.322096	-0.215361	0.418107
O12	O	1.157832	-0.350494	0.425988
O13	O	1.300289	-0.588047	0.558352
O14	O	1.151808	-0.452877	0.550449
O15	O	1.418815	-0.588081	0.439879
O16	O	1.432583	-0.350480	0.700861
O17	O	1.308122	-0.452869	0.706832
C18	C	1.119821	-0.401682	0.488217
C19	C	1.012606	-0.401689	0.488234
C20	C	0.925536	-0.401703	0.488238
C21	C	0.816302	-0.401728	0.488247
C22	C	1.357736	-0.619159	0.500931
C23	C	1.352326	-0.711823	0.506342
C24	C	1.342412	-0.881480	0.516200
C25	C	1.398645	-0.922793	0.459978
C26	C	1.393129	-1.017197	0.465463
C27	C	1.347927	-0.787069	0.510716
C28	C	1.622025	-0.401741	0.488251
C29	C	1.729238	-0.401753	0.488258
C30	C	1.370364	-0.401687	0.738846
C31	C	1.370422	-0.401704	0.846061
C32	C	1.383137	-0.185108	0.475516
C33	C	1.388734	-0.092445	0.469833
C34	C	1.370528	-0.401753	0.236643
C35	C	1.370568	-0.401771	0.129430
C36	C	1.370520	-0.401757	1.042359
C37	C	1.370462	-0.401730	0.933125
H38	H	1.450930	-0.887264	0.407726
H39	H	1.290131	-0.917008	0.568448
