data_functionalizedCrystal
_audit_creation_method	'MofGen! by Chris Wilmer'
_symmetry_space_group_name_H-M	'P1'
_symmetry_Int_Tables_number	1
_symmetry_cell_setting	triclinic
loop_
_symmetry_equiv_pos_as_xyz
  x,y,z
_cell_length_a	10.685976
_cell_length_b	21.295417
_cell_length_c	10.685880
_cell_angle_alpha	94.332822
_cell_angle_beta	90.317159
_cell_angle_gamma	85.667744
loop_
_atom_site_label
_atom_site_type_symbol
_atom_site_fract_x
_atom_site_fract_y
_atom_site_fract_z
Zn1	Zn	1.971978	-0.347375	-0.561789
Zn2	Zn	1.955708	-0.444018	-0.352017
Zn3	Zn	1.746126	-0.331378	-0.368172
Zn4	Zn	1.762132	-0.445208	-0.577838
O5	O	1.858986	-0.391995	-0.464954
O6	O	2.145352	-0.366391	-0.520484
O7	O	1.914398	-0.421883	-0.178625
O8	O	1.776197	-0.245417	-0.393900
O9	O	2.133398	-0.437394	-0.366366
O10	O	1.942130	-0.257169	-0.536149
O11	O	1.760420	-0.339127	-0.190493
O12	O	1.572718	-0.340282	-0.409463
O13	O	1.803477	-0.439423	-0.751245
O14	O	1.584477	-0.423912	-0.563504
O15	O	1.957650	-0.367545	-0.739453
O16	O	1.929918	-0.532259	-0.381929
O17	O	1.787700	-0.533134	-0.547839
C18	C	1.533084	-0.380491	-0.489979
C19	C	1.393664	-0.375586	-0.500714
C20	C	1.858816	-0.555538	-0.464897
C21	C	1.858862	-0.625508	-0.464906
C22	C	1.932993	-0.657904	-0.378594
C23	C	1.933054	-0.723650	-0.378617
C24	C	1.858960	-0.756995	-0.464942
C25	C	1.784825	-0.724592	-0.551271
C26	C	1.784776	-0.658848	-0.551253
N27	N	1.749963	-0.856785	-0.482931
N28	N	1.750013	-0.919239	-0.482940
C29	C	1.859106	-0.955078	-0.465003
N30	N	1.968148	-0.926104	-0.447032
N31	N	1.968096	-0.863644	-0.447016
C32	C	1.859006	-0.828284	-0.464972
C33	C	1.933310	-1.058763	-0.378712
C34	C	1.933374	-1.124511	-0.378744
C35	C	1.785133	-1.125451	-0.551391
C36	C	1.785081	-1.059705	-0.551365
C37	C	1.859167	-1.026365	-0.465018
C38	C	2.186161	-0.403544	-0.439833
C39	C	2.325583	-0.408466	-0.429128
C40	C	1.884164	-0.405401	-0.792137
C41	C	1.894893	-0.411115	-0.931562
C42	C	1.859193	-0.227815	-0.465036
C43	C	1.859281	-0.157852	-0.465071
C44	C	1.833979	-0.378597	-0.139039
C45	C	1.823493	-0.372715	0.000404
H46	H	1.345291	-0.343684	-0.570222
H47	H	1.373963	-0.440375	-0.359625
O48	O	2.005086	-0.625619	-0.294682
C49	C	2.070509	-0.668316	-0.218487
H50	H	2.078790	-0.717424	-0.269551
H51	H	2.017326	-0.669825	-0.126701
C52	C	2.192457	-0.586263	-0.127546
C53	C	2.202637	-0.646577	-0.190268
H54	H	2.273958	-0.572853	-0.110134
H55	H	2.148377	-0.557496	-0.178877
H56	H	2.148133	-0.587528	-0.051065
H57	H	2.246947	-0.645309	-0.266754
H58	H	2.246727	-0.675343	-0.138950
H59	H	1.964239	-0.448364	-0.979986
O60	O	2.005182	-0.755174	-0.294921
C61	C	2.091652	-0.798957	-0.360164
H62	H	2.106966	-0.783438	-0.458362
H63	H	2.053201	-0.847600	-0.367468
C64	C	2.198552	-0.821095	-0.168306
C65	C	2.217369	-0.802033	-0.288911
H66	H	2.276100	-0.822996	-0.124352
H67	H	2.140294	-0.791600	-0.124349
H68	H	2.166506	-0.861630	-0.174409
H69	H	2.249400	-0.761496	-0.282806
H70	H	2.275637	-0.831522	-0.332866
O71	O	1.713028	-0.757059	-0.635173
C72	C	1.790648	-0.800866	-0.710798
H73	H	1.882351	-0.812226	-0.659333
H74	H	1.811493	-0.779795	-0.802710
C75	C	1.610772	-0.847883	-0.801981
C76	C	1.723399	-0.861839	-0.738765
H77	H	1.569289	-0.885493	-0.819238
H78	H	1.558477	-0.818368	-0.751035
H79	H	1.628159	-0.830323	-0.878567
H80	H	1.706010	-0.879391	-0.662175
H81	H	1.775690	-0.891359	-0.789699
H82	H	1.724408	-0.632470	-0.621540
H83	H	1.993640	-1.031617	-0.308407
O84	O	2.005643	-1.156000	-0.295114
C85	C	2.092122	-1.199731	-0.360477
H86	H	2.107226	-1.184204	-0.458706
H87	H	2.053803	-1.248405	-0.367703
C88	C	2.199392	-1.221795	-0.168776
C89	C	2.217952	-1.202722	-0.289419
H90	H	2.277009	-1.223643	-0.124942
H91	H	2.141128	-1.192335	-0.124738
H92	H	2.167457	-1.262355	-0.174815
H93	H	2.249872	-1.162160	-0.283378
H94	H	2.276225	-1.232176	-0.333454
H95	H	1.724811	-1.152601	-0.621684
O96	O	1.712940	-1.028326	-0.635247
C97	C	1.647577	-1.071855	-0.711467
H98	H	1.639361	-1.116477	-0.660430
H99	H	1.700770	-1.084324	-0.803257
C100	C	1.525514	-0.987475	-0.802361
C101	C	1.515413	-1.042279	-0.739671
H102	H	1.443991	-0.969231	-0.819764
H103	H	1.569553	-0.958148	-0.751014
H104	H	1.569847	-0.997874	-0.878845
H105	H	1.471096	-1.031878	-0.663182
H106	H	1.471364	-1.071603	-0.791006
H107	H	1.754146	-0.335470	-0.951178
