data_functionalizedCrystal
_audit_creation_method	'MofGen! by Chris Wilmer'
_symmetry_space_group_name_H-M	'P1'
_symmetry_Int_Tables_number	1
_symmetry_cell_setting	triclinic
loop_
_symmetry_equiv_pos_as_xyz
  x,y,z
_cell_length_a	18.215407
_cell_length_b	12.645330
_cell_length_c	18.215399
_cell_angle_alpha	89.976970
_cell_angle_beta	89.980167
_cell_angle_gamma	90.018140
loop_
_atom_site_label
_atom_site_type_symbol
_atom_site_fract_x
_atom_site_fract_y
_atom_site_fract_z
Zn1	Zn	1.125109	-0.422038	-0.416141
Zn2	Zn	1.458442	-0.088704	-0.082808
Zn3	Zn	1.791775	0.244629	0.250526
Zn4	Zn	1.125033	-0.599320	-0.293085
Zn5	Zn	1.458366	-0.265986	0.040248
Zn6	Zn	1.791699	0.067347	0.373581
Zn7	Zn	1.002041	-0.422072	-0.293088
Zn8	Zn	1.335375	-0.088739	0.040245
Zn9	Zn	1.668708	0.244594	0.373578
Zn10	Zn	1.002023	-0.599261	-0.416110
Zn11	Zn	1.335356	-0.265927	-0.082777
Zn12	Zn	1.668689	0.067406	0.250556
O13	O	1.063551	-0.510673	-0.354606
O14	O	1.396885	-0.177339	-0.021273
O15	O	1.730218	0.155994	0.312060
O16	O	1.228083	-0.445565	-0.399829
O17	O	1.561416	-0.112231	-0.066496
O18	O	1.894750	0.221102	0.266838
O19	O	1.108693	-0.575847	-0.190101
O20	O	1.442027	-0.242513	0.143232
O21	O	1.775360	0.090820	0.476565
O22	O	1.018406	-0.273720	-0.309426
O23	O	1.351739	0.059613	0.023908
O24	O	1.685073	0.392946	0.357241
O25	O	1.228027	-0.575813	-0.309421
O26	O	1.561360	-0.242480	0.023913
O27	O	1.894694	0.090854	0.357246
O28	O	1.108823	-0.273695	-0.399832
O29	O	1.442157	0.059638	-0.066499
O30	O	1.775490	0.392972	0.266835
O31	O	1.018332	-0.445624	-0.190104
O32	O	1.351666	-0.112290	0.143230
O33	O	1.684999	0.221043	0.476563
O34	O	0.899055	-0.445566	-0.309396
O35	O	1.232388	-0.112233	0.023937
O36	O	1.565721	0.221100	0.357271
O37	O	1.018374	-0.575713	-0.519099
O38	O	1.351708	-0.242379	-0.185765
O39	O	1.685041	0.090954	0.147568
O40	O	0.899041	-0.575746	-0.399780
O41	O	1.232374	-0.242413	-0.066446
O42	O	1.565708	0.090920	0.266887
O43	O	1.108805	-0.445507	-0.519121
O44	O	1.442138	-0.112174	-0.185788
O45	O	1.775472	0.221159	0.147545
O46	O	1.108675	-0.747659	-0.309391
O47	O	1.442009	-0.414326	0.023943
O48	O	1.775342	-0.080993	0.357276
O49	O	1.018300	-0.747616	-0.399777
O50	O	1.351634	-0.414283	-0.066443
O51	O	1.684967	-0.080949	0.266890
C52	C	0.872345	-0.510654	-0.354585
C53	C	1.205678	-0.177321	-0.021252
C54	C	1.539012	0.156012	0.312082
C55	C	0.790546	-0.510672	-0.354594
C56	C	1.123880	-0.177339	-0.021260
C57	C	1.457213	0.155994	0.312073
C58	C	0.602364	-0.578563	-0.401597
C59	C	0.935698	-0.245230	-0.068264
C60	C	1.269031	0.088103	0.265069
C61	C	0.525506	-0.578567	-0.401606
C62	C	0.858839	-0.245233	-0.068273
C63	C	1.192172	0.088100	0.265060
C64	C	0.525490	-0.442801	-0.307631
C65	C	0.858824	-0.109468	0.025702
C66	C	1.192157	0.223866	0.359035
C67	C	0.602348	-0.442793	-0.307626
C68	C	0.935681	-0.109460	0.025707
C69	C	1.269014	0.223873	0.359040
C70	C	0.640783	-0.510680	-0.354608
C71	C	0.974116	-0.177347	-0.021275
C72	C	1.307449	0.155986	0.312058
C73	C	0.487067	-0.510692	-0.354622
C74	C	0.820400	-0.177358	-0.021289
C75	C	1.153733	0.155975	0.312044
C76	C	0.403733	-0.510695	-0.354632
C77	C	0.737066	-0.177361	-0.021299
C78	C	1.070400	0.155972	0.312035
C79	C	0.724122	-0.510676	-0.354600
C80	C	1.057455	-0.177343	-0.021267
C81	C	1.390788	0.155991	0.312067
C82	C	1.063498	-0.786102	-0.354596
C83	C	1.396831	-0.452769	-0.021263
C84	C	1.730164	-0.119436	0.312071
C85	C	1.063542	-0.903932	-0.354616
C86	C	1.396875	-0.570599	-0.021283
C87	C	1.730209	-0.237266	0.312051
C88	C	1.006922	-1.071513	-0.411653
C89	C	1.340255	-0.738180	-0.078320
C90	C	1.673588	-0.404847	0.255013
C91	C	1.006632	-0.948954	-0.411470
C92	C	1.339965	-0.615620	-0.078137
C93	C	1.673299	-0.282287	0.255197
C94	C	1.042549	-0.948523	-0.277058
C95	C	1.375882	-0.615190	0.056276
C96	C	1.709216	-0.281856	0.389609
C97	C	1.042203	-1.071122	-0.277404
C98	C	1.375537	-0.737788	0.055930
C99	C	1.708870	-0.404455	0.389263
C100	C	1.141502	-1.071022	-0.374509
C101	C	1.474835	-0.737688	-0.041175
C102	C	1.808168	-0.404355	0.292158
C103	C	1.141024	-0.948415	-0.376205
C104	C	1.474357	-0.615082	-0.042871
C105	C	1.807691	-0.281748	0.290462
C106	C	1.255504	-0.510692	-0.354628
C107	C	1.588838	-0.177358	-0.021295
C108	C	1.922171	0.155975	0.312039
C109	C	1.337303	-0.510700	-0.354637
C110	C	1.670636	-0.177366	-0.021304
C111	C	2.003970	0.155967	0.312030
C112	C	1.063596	-0.510600	-0.546559
C113	C	1.396929	-0.177266	-0.213226
C114	C	1.730263	0.156067	0.120107
C115	C	1.063615	-0.510568	-0.628358
C116	C	1.396949	-0.177235	-0.295025
C117	C	1.730282	0.156098	0.038308
C118	C	1.063625	-0.234167	-0.354633
C119	C	1.396959	0.099166	-0.021299
C120	C	1.730292	0.432499	0.312034
C121	C	1.063657	-0.116337	-0.354644
C122	C	1.396990	0.216996	-0.021311
C123	C	1.730323	0.550329	0.312023
C124	C	1.110720	-0.442707	-0.816565
C125	C	1.444053	-0.109374	-0.483232
C126	C	1.777386	0.223960	-0.149899
C127	C	1.110728	-0.442676	-0.893424
C128	C	1.444062	-0.109343	-0.560091
C129	C	1.777395	0.223990	-0.226757
C130	C	1.016563	-0.578266	-0.893389
C131	C	1.349896	-0.244932	-0.560056
C132	C	1.683230	0.088401	-0.226722
C133	C	1.016551	-0.578290	-0.816532
C134	C	1.349884	-0.244957	-0.483198
C135	C	1.683218	0.088376	-0.149865
C136	C	1.063634	-0.510513	-0.778122
C137	C	1.396967	-0.177179	-0.444788
C138	C	1.730300	0.156154	-0.111455
C139	C	1.063654	-0.510457	-0.931838
C140	C	1.396988	-0.177124	-0.598505
C141	C	1.730321	0.156210	-0.265171
C142	C	1.063663	-0.510424	-1.015172
C143	C	1.396997	-0.177091	-0.681838
C144	C	1.730330	0.156243	-0.348505
C145	C	1.063624	-0.510544	-0.694783
C146	C	1.396957	-0.177211	-0.361449
C147	C	1.730290	0.156123	-0.028116
C148	C	1.063549	-0.510669	-0.163400
C149	C	1.396882	-0.177336	0.169933
C150	C	1.730216	0.155998	0.503267
C151	C	1.063672	-0.510401	-0.081602
C152	C	1.397006	-0.177068	0.251732
C153	C	1.730339	0.156265	0.585065
H154	H	0.494229	-0.633842	-0.439871
H155	H	0.827562	-0.300509	-0.106537
H156	H	1.160895	0.032824	0.226796
O157	O	0.643827	-0.651759	-0.452279
O158	O	0.977160	-0.318425	-0.118946
O159	O	1.310493	0.014908	0.214387
H160	H	0.629058	-0.734943	-0.439577
H161	H	0.962391	-0.401610	-0.106244
H162	H	1.295725	-0.068277	0.227090
O163	O	1.024239	-1.110749	-0.487996
O164	O	1.357572	-0.777416	-0.154663
O165	O	1.690905	-0.444082	0.178670
H166	H	1.035249	-1.042306	-0.524551
H167	H	1.368583	-0.708972	-0.191217
H168	H	1.701916	-0.375639	0.142116
H169	H	1.183771	-1.100007	-0.332986
H170	H	1.517104	-0.766674	0.000347
H171	H	1.850437	-0.433341	0.333680
O172	O	0.965787	-0.651368	-0.934822
O173	O	1.299121	-0.318034	-0.601489
O174	O	1.632454	0.015299	-0.268155
H175	H	0.933037	-0.698513	-0.895175
H176	H	1.266371	-0.365180	-0.561842
H177	H	1.599704	-0.031847	-0.228508
H178	H	1.160652	-1.101868	-0.430103
H179	H	1.493985	-0.768535	-0.096770
H180	H	1.827319	-0.435201	0.236564
O181	O	0.484037	-0.369616	-0.256935
O182	O	0.817370	-0.036283	0.076399
O183	O	1.150703	0.297051	0.409732
H184	H	0.424138	-0.381042	-0.264819
H185	H	0.757471	-0.047709	0.068515
H186	H	1.090805	0.285624	0.401848
O187	O	0.643793	-0.369589	-0.256932
O188	O	0.977127	-0.036256	0.076401
O189	O	1.310460	0.297077	0.409734
H190	H	0.604156	-0.322401	-0.224252
H191	H	0.937490	0.010932	0.109081
H192	H	1.270823	0.344266	0.442415
O193	O	0.965740	-0.651406	-0.775071
O194	O	1.299073	-0.318073	-0.441737
O195	O	1.632407	0.015260	-0.108404
H196	H	0.978329	-0.734612	-0.789802
H197	H	1.311662	-0.401279	-0.456469
H198	H	1.644996	-0.067946	-0.123135
O199	O	1.023984	-0.909036	-0.487663
O200	O	1.357318	-0.575702	-0.154330
O201	O	1.690651	-0.242369	0.179003
H202	H	1.078954	-0.938059	-0.504547
H203	H	1.412287	-0.604726	-0.171214
H204	H	1.745621	-0.271392	0.162120
O205	O	0.930949	-1.112421	-0.394444
O206	O	1.264282	-0.779088	-0.061111
O207	O	1.597616	-0.445755	0.272223
H208	H	0.933422	-1.164538	-0.345463
H209	H	1.266755	-0.831205	-0.012129
H210	H	1.600088	-0.497872	0.321204
O211	O	1.161999	-0.909792	-0.451808
O212	O	1.495332	-0.576459	-0.118475
O213	O	1.828665	-0.243125	0.214859
H214	H	1.170377	-0.978640	-0.488645
H215	H	1.503711	-0.645307	-0.155312
H216	H	1.837044	-0.311973	0.178021
H217	H	0.948921	-0.919719	-0.398309
H218	H	1.282255	-0.586386	-0.064976
H219	H	1.615588	-0.253052	0.268357
O220	O	0.966830	-1.109144	-0.255115
O221	O	1.300163	-0.775810	0.078218
O222	O	1.633497	-0.442477	0.411551
H223	H	0.925509	-1.078823	-0.294631
H224	H	1.258843	-0.745489	0.038702
H225	H	1.592176	-0.412156	0.372035
O226	O	1.094551	-1.110417	-0.219213
O227	O	1.427885	-0.777084	0.114120
O228	O	1.761218	-0.443750	0.447454
H229	H	1.119997	-1.041851	-0.190946
H230	H	1.453330	-0.708518	0.142387
H231	H	1.786663	-0.375184	0.475721
H232	H	1.149055	-0.387515	-0.785294
H233	H	1.482388	-0.054182	-0.451961
H234	H	1.815722	0.279151	-0.118627
H235	H	1.082562	-0.919362	-0.233421
H236	H	1.415896	-0.586029	0.099913
H237	H	1.749229	-0.252696	0.433246
O238	O	0.967956	-0.907990	-0.254358
O239	O	1.301289	-0.574657	0.078976
O240	O	1.634622	-0.241324	0.412309
H241	H	0.945715	-0.856102	-0.298185
H242	H	1.279048	-0.522768	0.035148
H243	H	1.612381	-0.189435	0.368482
H244	H	1.185520	-0.917762	-0.337706
H245	H	1.518853	-0.584429	-0.004372
H246	H	1.852187	-0.251096	0.328961
O247	O	1.161518	-0.369550	-0.934891
O248	O	1.494851	-0.036217	-0.601558
O249	O	1.828184	0.297117	-0.268224
H250	H	1.194257	-0.322434	-0.895267
H251	H	1.527590	0.010900	-0.561934
H252	H	1.860923	0.344233	-0.228601
