data_functionalizedCrystal
_audit_creation_method	'MofGen! by Chris Wilmer'
_symmetry_space_group_name_H-M	'P1'
_symmetry_Int_Tables_number	1
_symmetry_cell_setting	triclinic
loop_
_symmetry_equiv_pos_as_xyz
  x,y,z
_cell_length_a	14.908571
_cell_length_b	29.839131
_cell_length_c	14.908308
_cell_angle_alpha	86.746001
_cell_angle_beta	89.824947
_cell_angle_gamma	86.730696
loop_
_atom_site_label
_atom_site_type_symbol
_atom_site_fract_x
_atom_site_fract_y
_atom_site_fract_z
Zn1	Zn	1.345180	-0.234441	0.587474
Zn2	Zn	1.353725	-0.305498	0.437082
Zn3	Zn	1.203500	-0.225812	0.428476
Zn4	Zn	1.194753	-0.304964	0.578733
O5	O	1.274290	-0.267679	0.507941
O6	O	1.472138	-0.247701	0.574784
O7	O	1.341034	-0.291539	0.310117
O8	O	1.222378	-0.164093	0.449624
O9	O	1.478416	-0.299906	0.464291
O10	O	1.326470	-0.170433	0.566439
O11	O	1.230664	-0.232995	0.303794
O12	O	1.076515	-0.232477	0.441148
O13	O	1.207471	-0.298997	0.705716
O14	O	1.070090	-0.290630	0.551542
O15	O	1.317989	-0.247183	0.712138
O16	O	1.332553	-0.368290	0.455816
O17	O	1.215757	-0.367898	0.559887
C18	C	1.040678	-0.260560	0.494463
C19	C	0.940736	-0.257525	0.488719
C20	C	1.274157	-0.384395	0.507858
C21	C	1.274181	-0.434330	0.507857
C22	C	0.746301	-0.312463	0.592722
C23	C	0.652397	-0.309614	0.587328
C24	C	0.659022	-0.248975	0.472541
C25	C	0.752926	-0.251825	0.477935
C26	C	0.796562	-0.283570	0.538027
C27	C	0.890468	-0.286421	0.543416
C28	C	0.897091	-0.225781	0.428634
C29	C	0.803187	-0.222932	0.423240
C30	C	1.328473	-0.747247	0.568848
C31	C	1.328568	-0.934924	0.568908
O32	O	1.374598	-0.961967	0.620701
N33	N	1.274437	-0.955128	0.508050
C34	C	1.220274	-0.928409	0.447176
O35	O	1.174227	-0.949900	0.395420
C36	C	1.220175	-0.740733	0.447122
C37	C	1.274316	-0.720532	0.507978
C38	C	1.382609	-0.727046	0.629700
C39	C	1.382589	-0.680129	0.629681
C40	C	1.328432	-0.653414	0.568811
C41	C	1.274296	-0.673615	0.507959
C42	C	1.166008	-0.714015	0.386253
C43	C	1.165986	-0.667093	0.386247
C44	C	1.220128	-0.646892	0.447103
C45	C	1.220119	-0.599983	0.447070
N46	N	1.274250	-0.579779	0.507928
C47	C	1.328406	-0.606495	0.568798
C48	C	1.220331	-1.026942	0.447208
C49	C	1.220356	-1.073861	0.447221
C50	C	1.328649	-1.080373	0.568953
C51	C	1.328628	-1.033453	0.568936
C52	C	1.274462	-1.006739	0.508066
C53	C	1.328360	-0.507966	0.568754
C54	C	1.328337	-0.461045	0.568727
C55	C	1.220041	-0.454537	0.446998
C56	C	1.220067	-0.501454	0.447021
C57	C	1.274229	-0.528168	0.507906
O58	O	1.174105	-0.572913	0.395310
O59	O	1.374431	-0.584995	0.620560
C60	C	1.328494	-0.794163	0.568867
C61	C	1.274357	-0.814365	0.508015
C62	C	1.220201	-0.787649	0.447145
C63	C	1.274383	-0.861284	0.508028
C64	C	1.328540	-0.887999	0.568898
C65	C	1.382671	-0.867795	0.629756
C66	C	1.382650	-0.820879	0.629737
C67	C	1.166070	-0.807853	0.386287
C68	C	1.166095	-0.854770	0.386310
C69	C	1.220252	-0.881485	0.447180
C70	C	1.508814	-0.274826	0.521472
C71	C	1.608754	-0.277871	0.527238
C72	C	1.260801	-0.273993	0.742464
C73	C	1.255053	-0.276684	0.842403
C74	C	1.274446	-0.150508	0.508046
C75	C	1.274513	-0.100576	0.508091
C76	C	1.287777	-0.261358	0.274334
C77	C	1.293699	-0.258546	0.174405
C78	C	1.359332	-0.227777	1.036888
C79	C	1.353934	-0.230304	1.130791
C80	C	1.238856	-0.284262	1.124111
C81	C	1.244254	-0.281735	1.030209
C82	C	1.304495	-0.253492	0.986601
C83	C	1.309897	-0.250968	0.892697
C84	C	1.194814	-0.304923	0.886019
C85	C	1.189417	-0.307450	0.979922
H86	H	0.781831	-0.338314	0.641647
C87	C	0.894203	-0.165555	0.314626
C88	C	0.952339	-0.194018	0.368508
H89	H	0.928313	-0.145949	0.277503
H90	H	0.855349	-0.148346	0.351765
H91	H	0.859529	-0.183067	0.278057
H92	H	0.987008	-0.176506	0.405082
H93	H	0.991208	-0.211229	0.331365
H94	H	1.176279	-1.090305	0.397657
H95	H	1.140368	-0.330444	1.015440
C96	C	1.435379	-0.472202	0.689064
C97	C	1.387848	-0.438841	0.635630
H98	H	1.472111	-0.458495	0.730370
H99	H	1.472064	-0.490491	0.651910
H100	H	1.394195	-0.490242	0.721163
H101	H	1.429032	-0.420804	0.603525
H102	H	1.351161	-0.420545	0.672789
C103	C	1.363558	-1.100192	0.723769
C104	C	1.388175	-1.109743	0.635870
H105	H	1.400306	-1.118324	0.765080
H106	H	1.302390	-1.106417	0.733377
H107	H	1.371300	-1.069358	0.732465
H108	H	1.380427	-1.140577	0.627172
H109	H	1.449359	-1.103522	0.626258
H110	H	1.372714	-1.017009	0.618491
H111	H	1.358949	-0.227972	0.857193
H112	H	1.426710	-0.748793	0.679273
H113	H	1.189811	-0.307256	1.159633
H114	H	1.426672	-0.663684	0.679238
C115	C	1.486362	-0.222384	0.938272
C116	C	1.425554	-0.196737	0.988951
H117	H	1.527248	-0.203220	0.908684
H118	H	1.454471	-0.237330	0.894885
H119	H	1.518616	-0.243989	0.976882
H120	H	1.393294	-0.175133	0.950340
H121	H	1.457449	-0.181783	1.032342
H122	H	0.767645	-0.197084	0.374317
C123	C	1.151988	-0.325012	0.739110
C124	C	1.134531	-0.333192	0.830741
H125	H	1.114770	-0.342462	0.704985
H126	H	1.213271	-0.333012	0.727207
H127	H	1.139747	-0.294013	0.722993
H128	H	1.146778	-0.364190	0.846860
H129	H	1.073234	-0.325194	0.842649
H130	H	1.398586	-0.209362	1.171731
C131	C	1.058934	-0.665372	0.265928
C132	C	1.106444	-0.637728	0.319334
H133	H	1.022182	-0.647244	0.224617
H134	H	1.022273	-0.683681	0.303100
H135	H	1.100132	-0.683934	0.233836
H136	H	1.065247	-0.619169	0.351431
H137	H	1.143109	-0.619412	0.282157
H138	H	0.925996	-0.312271	0.592345
H139	H	0.623476	-0.223127	0.423623
C140	C	0.655286	-0.369838	0.701330
C141	C	0.597150	-0.341374	0.647450
H142	H	0.621176	-0.389447	0.738445
H143	H	0.689954	-0.352330	0.737899
H144	H	0.694146	-0.387047	0.664183
H145	H	0.558294	-0.324163	0.684597
H146	H	0.562467	-0.358885	0.610877
H147	H	1.372457	-0.529711	0.618338
C148	C	1.118017	-0.923797	0.332277
C149	C	1.106574	-0.876972	0.319414
H150	H	1.081269	-0.937501	0.290980
H151	H	1.101344	-0.932695	0.391915
H152	H	1.179196	-0.932950	0.322643
H153	H	1.045395	-0.867818	0.329054
H154	H	1.123241	-0.868070	0.259762
C155	C	1.113302	-1.025228	0.326873
C156	C	1.160796	-0.997581	0.380284
H157	H	1.076556	-1.007103	0.285551
H158	H	1.076635	-1.043537	0.364040
H159	H	1.154508	-1.043791	0.294792
H160	H	1.119590	-0.979021	0.412370
H161	H	1.197466	-0.979265	0.343112
C162	C	1.502850	-0.772086	0.649306
C163	C	1.442160	-0.798678	0.696638
H164	H	1.539593	-0.758385	0.690612
H165	H	1.470598	-0.749457	0.613065
H166	H	1.539530	-0.790383	0.612150
H167	H	1.405475	-0.780380	0.733789
H168	H	1.474415	-0.821310	0.732893
C169	C	1.430772	-0.942614	0.683827
C170	C	1.442197	-0.897167	0.696670
H171	H	1.467512	-0.960747	0.725141
H172	H	1.447462	-0.949086	0.624197
H173	H	1.369592	-0.948830	0.693447
H174	H	1.503377	-0.890950	0.687042
H175	H	1.425512	-0.890692	0.756314
C176	C	1.045798	-0.762800	0.366720
C177	C	1.106479	-0.736210	0.319368
H178	H	1.009045	-0.776502	0.325426
H179	H	1.009136	-0.744504	0.403881
H180	H	1.078064	-0.785431	0.402957
H181	H	1.074213	-0.713576	0.283136
H182	H	1.143145	-0.754506	0.282192
H183	H	1.175988	-0.517903	0.397460
C184	C	1.171925	-0.379719	0.392944
C185	C	1.160509	-0.425166	0.380095
H186	H	1.135164	-0.361586	0.351647
H187	H	1.233091	-0.373497	0.383309
H188	H	1.155246	-0.373251	0.452588
H189	H	1.177195	-0.431634	0.320452
H190	H	1.099329	-0.431390	0.389723
H191	H	1.121968	-0.786105	0.336720
