data_functionalizedCrystal
_audit_creation_method	'MofGen! by Chris Wilmer'
_symmetry_space_group_name_H-M	'P1'
_symmetry_Int_Tables_number	1
_symmetry_cell_setting	triclinic
loop_
_symmetry_equiv_pos_as_xyz
  x,y,z
_cell_length_a	15.944493
_cell_length_b	15.944499
_cell_length_c	15.021413
_cell_angle_alpha	90.007263
_cell_angle_beta	89.993251
_cell_angle_gamma	83.476327
loop_
_atom_site_label
_atom_site_type_symbol
_atom_site_fract_x
_atom_site_fract_y
_atom_site_fract_z
O1	O	1.114539	0.108092	-0.074014
O2	O	0.869980	0.121499	-0.074017
O3	O	0.998961	-0.007484	-0.074017
O4	O	0.985559	0.237074	-0.074014
O5	O	0.998940	-0.007466	0.074047
O6	O	0.869960	0.121517	0.074047
O7	O	1.114519	0.108110	0.074050
Zn8	Zn	0.992236	0.114817	0.097557
Zn9	Zn	0.992263	0.114792	-0.097524
O10	O	0.985538	0.237093	0.074050
C11	C	0.838675	0.120960	0.000014
C12	C	0.745427	0.119317	0.000013
C13	C	0.509653	0.195240	0.000013
C14	C	0.459092	0.154307	0.073020
C15	C	0.574707	0.116273	0.000014
C16	C	0.459117	0.154270	-0.072960
C17	C	0.409798	0.113339	0.000012
C18	C	0.525374	0.075362	0.073081
C19	C	0.525402	0.075336	-0.072964
C20	C	0.474874	0.034346	0.000061
C21	C	0.669706	0.117966	0.000016
C22	C	0.314801	0.111640	0.000016
C23	C	0.998402	-0.038769	0.000013
C24	C	0.996757	-0.132017	0.000006
C25	C	1.071691	-0.423569	0.000012
C26	C	1.032728	-0.362526	0.073018
C27	C	0.990780	-0.467653	0.000016
C28	C	1.032727	-0.362551	-0.072962
C29	C	0.993721	-0.302744	0.000010
C30	C	0.951795	-0.407838	0.073083
C31	C	0.951805	-0.407869	-0.072963
C32	C	0.912783	-0.346844	0.000061
C33	C	0.989089	-0.562652	0.000021
C34	C	0.995407	-0.207746	0.000012
C35	C	1.145824	0.108649	0.000017
C36	C	1.239072	0.110292	0.000013
C37	C	0.986097	0.268378	0.000018
C38	C	0.987742	0.361626	0.000019
N39	N	0.992224	0.114833	0.230695
N40	N	0.992282	0.114770	-0.230662
C41	C	0.932574	0.174446	0.470378
C42	C	1.008473	0.190738	0.529714
C43	C	0.992245	0.114812	0.412302
C44	C	0.916366	0.098539	0.529707
C45	C	0.992259	0.114793	0.587726
C46	C	1.068183	0.131141	0.470331
C47	C	0.976026	0.038909	0.470320
C48	C	1.051980	0.055168	0.529629
C49	C	0.992236	0.114824	0.311244
C50	C	0.992277	0.114780	0.688781
H51	H	0.554199	0.042041	0.134864
H52	H	1.102503	0.004726	0.555481
H53	H	0.852191	0.084784	0.555791
C54	C	0.483862	0.229284	-0.207279
C55	C	0.420068	0.199282	-0.156286
H56	H	0.459757	0.257069	-0.258722
H57	H	0.511565	0.267874	-0.172898
H58	H	0.523521	0.183250	-0.224811
H59	H	0.380412	0.245316	-0.138748
H60	H	0.392352	0.160689	-0.190673
H61	H	0.882163	0.224918	0.444362
C62	C	1.204492	-0.445873	0.076654
C63	C	1.162333	-0.468593	0.000106
H64	H	1.260446	-0.473675	0.076715
H65	H	1.206179	-0.386520	0.077178
H66	H	1.175447	-0.462031	0.127983
H67	H	1.191374	-0.452430	-0.051224
H68	H	1.160650	-0.527959	-0.000427
C69	C	1.027569	0.276190	0.658152
C70	C	1.027007	0.277376	0.564945
H71	H	1.039011	0.329677	0.679899
H72	H	0.974075	0.264227	0.679345
H73	H	1.070016	0.233870	0.678422
H74	H	0.984557	0.319692	0.544675
H75	H	1.080509	0.289349	0.543744
H76	H	1.132372	0.144974	0.444359
C77	C	1.037328	-0.359383	0.232741
C78	C	1.078914	-0.335399	0.156337
H79	H	1.065850	-0.342643	0.284175
H80	H	0.980894	-0.332848	0.232818
H81	H	1.037050	-0.418929	0.233052
H82	H	1.079187	-0.275853	0.156023
H83	H	1.135363	-0.361932	0.156261
C84	C	0.822916	-0.394735	-0.157040
C85	C	0.905655	-0.435029	-0.156285
H86	H	0.794433	-0.411501	-0.208488
H87	H	0.794098	-0.410065	-0.105225
H88	H	0.824107	-0.335309	-0.157934
H89	H	0.904464	-0.494454	-0.155384
H90	H	0.934479	-0.419704	-0.208113
C91	C	0.487772	-0.098680	0.076613
C92	C	0.454000	-0.057545	0.000114
H93	H	0.474878	-0.155406	0.076649
H94	H	0.547273	-0.098112	0.077093
H95	H	0.464055	-0.070424	0.127976
H96	H	0.477722	-0.085798	-0.051249
H97	H	0.394487	-0.058118	-0.000375
H98	H	0.554363	0.042005	-0.134689
H99	H	0.917592	-0.427805	0.134868
H100	H	0.845577	-0.313648	0.000103
H101	H	1.066971	-0.342485	-0.134677
H102	H	0.962271	-0.025252	0.444211
H103	H	0.430140	0.187663	0.134741
C104	C	0.497099	0.328232	0.076657
C105	C	0.530746	0.287059	0.000108
H106	H	0.510129	0.384914	0.076720
H107	H	0.437581	0.327803	0.077183
H108	H	0.520782	0.299910	0.127985
H109	H	0.507059	0.315378	-0.051220
H110	H	0.590276	0.287493	-0.000426
