data_functionalizedCrystal
_audit_creation_method	'MofGen! by Chris Wilmer'
_symmetry_space_group_name_H-M	'P1'
_symmetry_Int_Tables_number	1
_symmetry_cell_setting	triclinic
loop_
_symmetry_equiv_pos_as_xyz
  x,y,z
_cell_length_a	17.699077
_cell_length_b	15.995292
_cell_length_c	16.176319
_cell_angle_alpha	89.996390
_cell_angle_beta	89.993140
_cell_angle_gamma	83.374596
loop_
_atom_site_label
_atom_site_type_symbol
_atom_site_fract_x
_atom_site_fract_y
_atom_site_fract_z
O1	O	1.004238	0.105864	-0.068730
O2	O	0.783879	0.119646	-0.068733
O3	O	0.900105	-0.009148	-0.068733
O4	O	0.888012	0.234659	-0.068730
O5	O	0.900089	-0.009156	0.068761
O6	O	0.783863	0.119638	0.068760
O7	O	1.004222	0.105856	0.068763
Cu8	Cu	0.894041	0.112746	0.081316
Cu9	Cu	0.894060	0.112756	-0.081286
O10	O	0.887996	0.234650	0.068763
C11	C	0.755673	0.119149	0.000013
C12	C	0.671653	0.117670	0.000012
C13	C	0.632176	0.116969	0.074960
C14	C	0.553231	0.115566	0.074961
C15	C	0.513764	0.114870	0.000012
C16	C	0.553247	0.115569	-0.074942
C17	C	0.632191	0.116966	-0.074942
C18	C	0.234876	0.109934	-0.074943
C19	C	0.155926	0.108540	-0.074938
C20	C	0.155915	0.108534	0.074959
C21	C	0.234859	0.109931	0.074959
C22	C	0.274336	0.110625	0.000006
C23	C	0.359937	0.112145	0.000005
C24	C	0.428164	0.113356	0.000012
C25	C	0.899605	-0.040347	0.000012
C26	C	0.898129	-0.133297	0.000006
C27	C	0.892704	-0.471024	0.000013
C28	C	0.976593	-0.447884	0.000322
C29	C	0.978188	-0.351212	0.000009
C30	C	0.895396	-0.303474	0.000010
C31	C	0.853465	-0.332484	-0.078503
C32	C	0.852455	-0.429272	-0.078566
C33	C	0.850724	-0.429135	0.077789
C34	C	0.853832	-0.332649	0.078824
C35	C	0.896913	-0.208781	0.000005
C36	C	0.891185	-0.565717	0.000012
C37	C	1.032427	0.106353	0.000016
C38	C	1.116448	0.107832	0.000012
C39	C	0.888496	0.265849	0.000017
C40	C	0.889972	0.358799	0.000017
N41	N	0.894033	0.112739	0.195681
N42	N	0.894074	0.112757	-0.195651
C43	C	0.945513	0.055732	0.238946
C44	C	0.945517	0.055731	0.325493
C45	C	0.894044	0.112742	0.368774
C46	C	0.842558	0.169751	0.325503
C47	C	0.842551	0.169748	0.238958
C48	C	0.842584	0.169767	0.674532
C49	C	0.842596	0.169768	0.761083
C50	C	0.945550	0.055751	0.761066
C51	C	0.945543	0.055747	0.674521
C52	C	0.894055	0.112753	0.631258
C53	C	0.894051	0.112752	0.537414
C54	C	0.894051	0.112747	0.462616
H55	H	0.664332	0.117539	-0.135973
F56	F	1.018851	-0.484569	0.073918
F57	F	0.885021	-0.466195	0.155573
H58	H	0.987436	0.009312	0.360718
F59	F	1.021096	-0.326433	0.073582
H60	H	0.884365	-0.314150	0.136908
F61	F	0.787789	0.230438	0.628495
H62	H	0.664303	0.117542	0.135992
F63	F	1.021380	-0.327236	-0.073684
H64	H	0.793402	-0.299555	0.083566
F65	F	1.018633	-0.485893	-0.072859
H66	H	0.123794	0.107972	-0.135973
F67	F	0.772063	-0.448128	-0.083227
F68	F	0.890434	-0.464400	-0.155277
H69	H	0.267008	0.110497	-0.135975
H70	H	0.788975	-0.442998	0.078319
F71	F	0.773835	-0.290664	-0.082323
H72	H	0.882596	-0.312480	-0.136933
F73	F	1.000303	-0.004944	0.192891
H74	H	0.987472	0.009330	0.796300
F75	F	0.511219	0.114831	0.154731
H76	H	0.987460	0.009327	0.639284
H77	H	0.521108	0.114997	-0.135966
F78	F	0.787808	0.230449	0.807145
H79	H	0.800630	0.216167	0.203733
F80	F	0.276858	0.110676	0.154729
F81	F	0.113896	0.107791	0.154733
H82	H	0.800643	0.216168	0.360748
