data_functionalizedCrystal
_audit_creation_method	'MofGen! by Chris Wilmer'
_symmetry_space_group_name_H-M	'P1'
_symmetry_Int_Tables_number	1
_symmetry_cell_setting	triclinic
loop_
_symmetry_equiv_pos_as_xyz
  x,y,z
_cell_length_a	10.723023
_cell_length_b	10.654550
_cell_length_c	9.130313
_cell_angle_alpha	90.004369
_cell_angle_beta	89.996944
_cell_angle_gamma	95.523761
loop_
_atom_site_label
_atom_site_type_symbol
_atom_site_fract_x
_atom_site_fract_y
_atom_site_fract_z
O1	O	1.657214	-0.176145	-0.121784
O2	O	1.294064	-0.193006	-0.121790
O3	O	1.483988	-0.001835	-0.121778
O4	O	1.467289	-0.367316	-0.121796
O5	O	1.483975	-0.001829	0.121821
O6	O	1.294050	-0.193001	0.121809
O7	O	1.657200	-0.176139	0.121815
Cu8	Cu	1.475624	-0.184569	0.144054
Cu9	Cu	1.475640	-0.184576	-0.144030
O10	O	1.467276	-0.367310	0.121802
C11	C	1.247557	-0.191777	0.000009
C12	C	1.109002	-0.188106	0.000006
C13	C	0.904041	-0.182679	-0.126185
C14	C	1.047244	-0.186473	-0.126186
C15	C	1.482755	0.044966	0.000021
C16	C	1.479087	0.184408	0.000019
C17	C	1.703707	-0.177369	0.000013
C18	C	1.842262	-0.181039	0.000005
C19	C	1.468509	-0.414111	0.000001
C20	C	1.472177	-0.553554	-0.000007
N21	N	1.475622	-0.184564	0.346677
C22	C	1.590911	0.263911	0.000020
C23	C	1.587457	0.394931	0.000002
C24	C	1.360344	0.366933	-0.000012
C25	C	1.363800	0.235916	-0.000005
N26	N	1.475651	-0.184572	-0.346652
C27	C	1.559750	-0.099949	0.423334
C28	C	1.559762	-0.099949	0.576671
C29	C	1.391515	-0.269190	0.576680
C30	C	1.391498	-0.269183	0.423346
H31	H	0.895389	-0.182439	0.108041
Br32	Br	1.277308	-0.384015	0.319298
Br33	Br	1.277353	-0.384029	0.680735
H34	H	1.684786	0.221979	0.000036
H35	H	1.628247	-0.031045	0.360914
Br36	Br	1.673933	0.014895	0.680704
H37	H	1.266481	0.408887	-0.000029
Br38	Br	0.815514	-0.180278	-0.306263
Br39	Br	1.739226	0.502825	-0.000005
H40	H	1.055881	-0.186703	0.108048
H41	H	1.272733	0.171181	-0.000011
H42	H	1.100372	-0.187890	-0.234222
