data_functionalizedCrystal
_audit_creation_method	'MofGen! by Chris Wilmer'
_symmetry_space_group_name_H-M	'P1'
_symmetry_Int_Tables_number	1
_symmetry_cell_setting	triclinic
loop_
_symmetry_equiv_pos_as_xyz
  x,y,z
_cell_length_a	11.792241
_cell_length_b	10.489716
_cell_length_c	10.268362
_cell_angle_alpha	89.998762
_cell_angle_beta	89.999626
_cell_angle_gamma	84.361276
loop_
_atom_site_label
_atom_site_type_symbol
_atom_site_fract_x
_atom_site_fract_y
_atom_site_fract_z
O1	O	1.507367	0.174835	-0.108161
O2	O	2.007367	0.674835	0.391839
O3	O	1.177073	0.192853	-0.108190
O4	O	1.677073	0.692853	0.391810
O5	O	1.349750	-0.001782	-0.108180
O6	O	1.849750	0.498218	0.391820
O7	O	1.334690	0.369469	-0.108172
O8	O	1.834690	0.869469	0.391828
O9	O	1.349735	-0.001790	0.108421
O10	O	1.849735	0.498210	0.608421
O11	O	1.177058	0.192845	0.108410
O12	O	1.677058	0.692845	0.608410
O13	O	1.507352	0.174826	0.108439
O14	O	2.007352	0.674826	0.608439
Cu15	Cu	1.342203	0.183835	0.128202
Cu16	Cu	1.842203	0.683835	0.628202
Cu17	Cu	1.342221	0.183845	-0.127953
Cu18	Cu	1.842221	0.683845	0.372047
O19	O	1.334674	0.369461	0.108429
O20	O	1.834674	0.869461	0.608429
C21	C	1.134771	0.191717	0.000106
C22	C	1.634771	0.691717	0.500106
C23	C	1.008749	0.188329	0.000094
C24	C	1.508749	0.688329	0.500094
C25	C	1.348611	-0.049314	0.000116
C26	C	1.848611	0.450686	0.500116
C27	C	1.345225	-0.190934	0.000104
C28	C	1.845225	0.309066	0.500104
C29	C	0.778020	0.182100	0.000132
C30	C	1.278020	0.682100	0.500132
C31	C	0.906415	0.185561	0.000111
C32	C	1.406415	0.685561	0.500111
C33	C	1.451116	-0.288968	0.000125
C34	C	1.951116	0.211032	0.500125
C35	C	1.395169	-0.366134	-0.106671
C36	C	1.895169	0.133866	0.393329
C37	C	1.395129	-0.366106	0.106880
C38	C	1.895129	0.133894	0.606880
C39	C	1.289322	-0.266234	-0.106781
C40	C	1.789322	0.233766	0.393219
C41	C	1.289298	-0.266201	0.106866
C42	C	1.789298	0.233799	0.606866
C43	C	1.233272	-0.343318	0.000043
C44	C	1.733272	0.156682	0.500043
C45	C	1.549653	0.175962	0.000140
C46	C	2.049653	0.675962	0.500140
C47	C	1.675676	0.179350	0.000143
C48	C	2.175676	0.679350	0.500143
C49	C	1.335814	0.416994	0.000130
C50	C	1.835814	0.916994	0.500130
C51	C	1.339199	0.558613	0.000133
C52	C	1.839199	1.058613	0.500133
N53	N	1.342199	0.183827	0.308368
N54	N	1.842199	0.683827	0.808368
N55	N	1.342235	0.183842	-0.308119
N56	N	1.842235	0.683842	0.191881
C57	C	1.342215	0.183842	0.574039
C58	C	1.842215	0.683842	1.074039
C59	C	1.342203	0.183838	0.426201
C60	C	1.842203	0.683838	0.926201
H61	H	1.439876	-0.409778	-0.196954
H62	H	1.939876	0.090222	0.303046
H63	H	1.439846	-0.409734	0.197166
H64	H	1.939846	0.090266	0.697166
C65	C	1.575538	-0.256044	-0.000006
C66	C	2.075538	0.243956	0.499994
H67	H	1.613001	-0.290434	-0.075979
H68	H	2.113001	0.209566	0.424021
H69	H	1.613506	-0.291733	0.075096
H70	H	2.113506	0.208267	0.575096
H71	H	1.576861	-0.165640	0.000755
H72	H	2.076861	0.334360	0.500755
H73	H	1.244652	-0.222775	-0.197169
H74	H	1.744652	0.277225	0.302831
H75	H	1.141096	-0.367434	-0.000022
H76	H	1.641096	0.132566	0.499978
C77	C	1.228962	-0.207198	0.228832
C78	C	1.728962	0.292802	0.728832
H79	H	1.266710	-0.241553	0.304648
H80	H	1.766710	0.258447	0.804648
H81	H	1.151995	-0.226735	0.229596
H82	H	1.651995	0.273265	0.729596
H83	H	1.230984	-0.116893	0.227513
H84	H	1.730984	0.383107	0.727513
