data_functionalizedCrystal
_audit_creation_method	'MofGen! by Chris Wilmer'
_symmetry_space_group_name_H-M	'P1'
_symmetry_Int_Tables_number	1
_symmetry_cell_setting	triclinic
loop_
_symmetry_equiv_pos_as_xyz
  x,y,z
_cell_length_a	29.839134
_cell_length_b	29.839131
_cell_length_c	29.839125
_cell_angle_alpha	89.982291
_cell_angle_beta	89.978020
_cell_angle_gamma	90.036281
loop_
_atom_site_label
_atom_site_type_symbol
_atom_site_fract_x
_atom_site_fract_y
_atom_site_fract_z
Zn1	Zn	0.686720	-0.178978	-0.254125
Zn2	Zn	0.686652	-0.254090	-0.178995
Zn3	Zn	0.611602	-0.178968	-0.178995
Zn4	Zn	0.611550	-0.254075	-0.254083
O5	O	0.649131	-0.216528	-0.216549
O6	O	0.749578	-0.188952	-0.244176
O7	O	0.676690	-0.244127	-0.116128
O8	O	0.621617	-0.116102	-0.188978
O9	O	0.749528	-0.244137	-0.188979
O10	O	0.676805	-0.116109	-0.244176
O11	O	0.621551	-0.188935	-0.116127
O12	O	0.548728	-0.188921	-0.188938
O13	O	0.621528	-0.244111	-0.316956
O14	O	0.548690	-0.244101	-0.244105
O15	O	0.676755	-0.188937	-0.316987
O16	O	0.676639	-0.316955	-0.188938
O17	O	0.621462	-0.316944	-0.244105
C18	C	0.532408	-0.216509	-0.216517
C19	C	0.482474	-0.216511	-0.216514
C20	C	0.172820	-0.245303	-0.245240
C21	C	-0.014853	-0.245315	-0.245260
O22	O	-0.039127	-0.269774	-0.269665
N23	N	-0.038311	-0.216544	-0.216583
C24	C	-0.014848	-0.187766	-0.187902
O25	O	-0.039107	-0.163291	-0.163514
C26	C	0.172824	-0.187751	-0.187884
C27	C	0.196280	-0.216527	-0.216560
C28	C	0.196276	-0.274076	-0.273913
C29	C	0.243191	-0.274075	-0.273906
C30	C	0.266651	-0.245299	-0.245226
C31	C	0.243195	-0.216526	-0.216553
C32	C	0.196286	-0.158971	-0.159205
C33	C	0.243207	-0.158969	-0.159204
C34	C	0.266663	-0.187745	-0.187880
C35	C	0.313570	-0.187749	-0.187865
N36	N	0.337029	-0.216520	-0.216542
C37	C	0.313569	-0.245295	-0.245222
C38	C	-0.113379	-0.187776	-0.187912
C39	C	-0.160297	-0.187780	-0.187916
C40	C	-0.160298	-0.245329	-0.245275
C41	C	-0.113380	-0.245327	-0.245269
C42	C	-0.089921	-0.216547	-0.216589
C43	C	0.412095	-0.245290	-0.245205
C44	C	0.459014	-0.245287	-0.245194
C45	C	0.459012	-0.187736	-0.187837
C46	C	0.412096	-0.187740	-0.187846
C47	C	0.388639	-0.216519	-0.216534
O48	O	0.337873	-0.163299	-0.163477
O49	O	0.337836	-0.269759	-0.269613
C50	C	0.125905	-0.245304	-0.245247
C51	C	0.102449	-0.216531	-0.216574
C52	C	0.125909	-0.187755	-0.187893
C53	C	0.055531	-0.216535	-0.216577
C54	C	0.032071	-0.245310	-0.245258
C55	C	0.055529	-0.274082	-0.273934
C56	C	0.102445	-0.274080	-0.273927
C57	C	0.102451	-0.158984	-0.159217
C58	C	0.055535	-0.158989	-0.159226
C59	C	0.032075	-0.187764	-0.187906
C60	C	0.649050	-0.333250	-0.216527
C61	C	0.649056	-0.383185	-0.216533
C62	C	0.677914	-0.692821	-0.187866
C63	C	0.677969	-0.880494	-0.187883
O64	O	0.702441	-0.904753	-0.163493
N65	N	0.649224	-0.903970	-0.216583
C66	C	0.620465	-0.880524	-0.245283
O67	O	0.596020	-0.904798	-0.269698
C68	C	0.620412	-0.692852	-0.245268
C69	C	0.649156	-0.669379	-0.216563
C70	C	0.706656	-0.669348	-0.159164
C71	C	0.706640	-0.622433	-0.159158
C72	C	0.677882	-0.598990	-0.187854
C73	C	0.649140	-0.622463	-0.216557
C74	C	0.591656	-0.669407	-0.273969
C75	C	0.591646	-0.622486	-0.273964
C76	C	0.620390	-0.599013	-0.245259
C77	C	0.620367	-0.552106	-0.245248
N78	N	0.649112	-0.528630	-0.216548
C79	C	0.677869	-0.552072	-0.187851
C80	C	0.620494	-0.979055	-0.245289
C81	C	0.620507	-1.025973	-0.245292
C82	C	0.678012	-1.025939	-0.187893
C83	C	0.677996	-0.979021	-0.187887
C84	C	0.649239	-0.955579	-0.216589
C85	C	0.677834	-0.453547	-0.187841
C86	C	0.677814	-0.406627	-0.187836
C87	C	0.620311	-0.406664	-0.245237
C88	C	0.620329	-0.453580	-0.245240
C89	C	0.649094	-0.477020	-0.216540
O90	O	0.595912	-0.527818	-0.269629
O91	O	0.702318	-0.527791	-0.163447
C92	C	0.677930	-0.739737	-0.187872
C93	C	0.649188	-0.763210	-0.216574
C94	C	0.620430	-0.739767	-0.245271
C95	C	0.649200	-0.810128	-0.216578
C96	C	0.677958	-0.833570	-0.187881
C97	C	0.706703	-0.810094	-0.159181
C98	C	0.706687	-0.763179	-0.159175
C99	C	0.591685	-0.763243	-0.273971
C100	C	0.591703	-0.810158	-0.273974
C101	C	0.620461	-0.833601	-0.245277
C102	C	0.766309	-0.216547	-0.216582
C103	C	0.816244	-0.216555	-0.216596
C104	C	0.649143	-0.216524	-0.333728
C105	C	0.649148	-0.216522	-0.383662
C106	C	0.649225	-0.099349	-0.216582
C107	C	0.649265	-0.049415	-0.216595
C108	C	0.677935	-0.187718	-0.693325
C109	C	0.677957	-0.187680	-0.880998
O110	O	0.702399	-0.163232	-0.905279
N111	N	0.649208	-0.216402	-0.904448
C112	C	0.620449	-0.245133	-0.880976
O113	O	0.595993	-0.269559	-0.905228
C114	C	0.620424	-0.245169	-0.693304
C115	C	0.649179	-0.216448	-0.669857
C116	C	0.706687	-0.158999	-0.669877
C117	C	0.706683	-0.159011	-0.622962
C118	C	0.677927	-0.187741	-0.599494
C119	C	0.649175	-0.216460	-0.622941
C120	C	0.591663	-0.273898	-0.669833
C121	C	0.591659	-0.273903	-0.622912
C122	C	0.620414	-0.245183	-0.599465
C123	C	0.620415	-0.245202	-0.552558
N124	N	0.649164	-0.216480	-0.529108
C125	C	0.677920	-0.187749	-0.552576
C126	C	0.620464	-0.245113	-0.979507
C127	C	0.620471	-0.245105	-1.026425
C128	C	0.677979	-0.187650	-1.026443
C129	C	0.677974	-0.187661	-0.979524
C130	C	0.649214	-0.216391	-0.956057
C131	C	0.677910	-0.187776	-0.454050
C132	C	0.677904	-0.187792	-0.407130
C133	C	0.620395	-0.245244	-0.407116
C134	C	0.620401	-0.245230	-0.454032
C135	C	0.649161	-0.216493	-0.477497
O136	O	0.595982	-0.269633	-0.528248
O137	O	0.702366	-0.163320	-0.528316
C138	C	0.677939	-0.187706	-0.740240
C139	C	0.649187	-0.216425	-0.763688
C140	C	0.620431	-0.245155	-0.740219
C141	C	0.649194	-0.216417	-0.810605
C142	C	0.677950	-0.187686	-0.834074
C143	C	0.706699	-0.158964	-0.810624
C144	C	0.706695	-0.158976	-0.763708
C145	C	0.591682	-0.273877	-0.763669
C146	C	0.591689	-0.273864	-0.810585
C147	C	0.620445	-0.245133	-0.834053
C148	C	0.649145	-0.216499	-0.099827
C149	C	0.649227	-0.216374	-0.049893
H150	H	-0.179407	-0.268759	-0.268628
C151	C	0.709161	-0.156650	-0.479580
C152	C	0.737932	-0.182084	-0.506530
C153	C	0.766724	-0.153429	-0.530059
H154	H	0.726325	-0.139540	-0.458943
H155	H	0.692009	-0.137073	-0.497906
H156	H	0.755083	-0.201654	-0.488206
H157	H	0.720780	-0.199193	-0.527176
H158	H	0.749572	-0.133851	-0.548384
H159	H	0.783885	-0.136320	-0.509419
H160	H	0.786246	-0.170681	-0.548350
C161	C	0.589278	-1.051373	-0.276503
C162	C	0.564102	-1.020796	-0.301641
C163	C	0.535335	-1.044177	-0.330405
H164	H	0.569679	-1.069703	-0.259351
H165	H	0.606444	-1.069642	-0.296124
H166	H	0.546937	-1.002534	-0.282023
H167	H	0.583689	-1.002465	-0.318803
H168	H	0.552501	-1.062446	-0.350025
H169	H	0.515739	-1.062505	-0.313248
H170	H	0.518253	-1.023433	-0.347467
H171	H	0.568292	-0.829266	-0.297349
C172	C	0.737916	-0.127774	-0.597590
C173	C	0.763087	-0.102605	-0.628192
C174	C	0.791859	-0.073818	-0.604840
H175	H	0.757517	-0.144911	-0.579288
H176	H	0.720753	-0.108175	-0.579296
H177	H	0.780248	-0.122202	-0.646478
H178	H	0.743497	-0.085459	-0.646495
H179	H	0.774696	-0.054219	-0.586546
H180	H	0.811457	-0.090959	-0.586538
H181	H	0.808938	-0.056734	-0.625600
C182	C	0.589219	-0.276357	-0.954113
C183	C	0.564054	-0.301513	-0.984697
C184	C	0.535272	-0.330305	-0.961322
H185	H	0.569613	-0.259224	-0.935807
H186	H	0.606373	-0.295964	-0.935821
H187	H	0.546902	-0.281909	-1.002981
H188	H	0.583648	-0.318656	-1.003003
H189	H	0.552426	-0.349912	-0.943031
H190	H	0.515669	-0.313168	-0.943017
H191	H	0.518197	-0.347380	-0.982070
C192	C	0.560432	-0.737737	-0.305054
C193	C	0.531653	-0.710834	-0.279582
C194	C	0.502858	-0.687329	-0.308200
H195	H	0.543274	-0.758389	-0.322156
H196	H	0.577582	-0.719383	-0.324641
H197	H	0.514506	-0.729187	-0.260003
H198	H	0.548799	-0.690173	-0.262481
H199	H	0.520007	-0.668975	-0.327787
H200	H	0.485702	-0.707984	-0.325301
H201	H	0.483331	-0.669069	-0.290922
C202	C	0.560543	-0.305108	-0.836060
C203	C	0.585956	-0.333912	-0.862992
C204	C	0.557280	-0.362702	-0.886459
H205	H	0.540973	-0.287970	-0.854394
H206	H	0.543427	-0.322244	-0.815372
H207	H	0.603065	-0.316778	-0.883678
H208	H	0.605525	-0.351061	-0.844669
H209	H	0.540164	-0.379838	-0.865771
H210	H	0.537711	-0.345560	-0.904791
H211	H	0.574518	-0.382252	-0.904732
H212	H	0.730115	-0.135573	-0.829740
C213	C	0.709141	-0.156557	-0.381755
C214	C	0.734315	-0.131385	-0.412353
C215	C	0.763088	-0.102604	-0.388996
H216	H	0.728741	-0.173698	-0.363455
H217	H	0.691980	-0.136959	-0.363459
H218	H	0.751475	-0.150981	-0.430642
H219	H	0.714726	-0.114235	-0.430654
H220	H	0.745927	-0.083006	-0.370700
H221	H	0.782686	-0.119749	-0.370697
H222	H	0.780169	-0.085519	-0.409753
C223	C	0.589140	-0.381126	-0.276376
C224	C	0.595292	-0.335014	-0.270234
C225	C	0.566592	-0.311473	-0.298919
H226	H	0.558942	-0.388789	-0.269802
H227	H	0.595703	-0.388769	-0.306579
H228	H	0.588726	-0.327374	-0.240038
H229	H	0.625484	-0.327338	-0.276811
H230	H	0.573155	-0.319117	-0.329121
H231	H	0.536395	-0.319140	-0.292342
H232	H	0.570765	-0.280184	-0.294758
H233	H	0.596925	-0.472692	-0.268615
C234	C	0.709255	-1.051315	-0.156689
C235	C	0.734423	-1.020721	-0.131545
C236	C	0.763205	-1.044083	-0.102796
H237	H	0.728857	-1.069595	-0.173853
H238	H	0.692100	-1.069633	-0.137073
H239	H	0.751577	-1.002411	-0.151159
H240	H	0.714832	-1.002441	-0.114372
H241	H	0.746050	-1.062400	-0.083179
H242	H	0.782805	-1.062361	-0.119963
H243	H	0.780283	-1.023328	-0.085729
C244	C	0.268735	-0.127795	-0.128038
C245	C	0.295648	-0.153186	-0.099199
C246	C	0.319174	-0.124487	-0.070486
H247	H	0.248095	-0.110649	-0.110919
H248	H	0.287084	-0.108253	-0.145244
H249	H	0.277301	-0.172720	-0.081994
H250	H	0.316296	-0.170331	-0.116305
H251	H	0.337524	-0.104945	-0.087692
H252	H	0.298532	-0.107342	-0.053370
H253	H	0.337441	-0.141710	-0.050918
H254	H	0.568248	-0.297285	-0.688916
H255	H	0.568233	-0.297294	-0.603808
C256	C	0.589331	-0.276350	-1.051901
C257	C	0.614748	-0.305154	-1.078828
C258	C	0.586076	-0.333948	-1.102296
H259	H	0.569761	-0.259214	-1.070238
H260	H	0.572214	-0.293486	-1.031213
H261	H	0.631857	-0.288020	-1.099514
H262	H	0.634317	-0.322300	-1.060502
H263	H	0.568960	-0.351084	-1.081608
H264	H	0.566508	-0.316809	-1.120631
H265	H	0.603318	-0.353498	-1.120566
C266	C	0.127836	-0.127724	-0.128026
C267	C	0.097245	-0.102539	-0.102909
C268	C	0.120611	-0.073742	-0.074163
H269	H	0.146161	-0.108133	-0.145190
H270	H	0.146107	-0.144869	-0.108391
H271	H	0.078981	-0.085396	-0.122540
H272	H	0.078918	-0.122119	-0.085735
H273	H	0.138883	-0.090886	-0.054529
H274	H	0.138936	-0.054153	-0.091331
H275	H	0.099859	-0.056653	-0.057115
C276	C	0.737837	-0.127746	-0.695374
C277	C	0.712432	-0.098929	-0.722298
C278	C	0.741115	-0.070128	-0.745783
H279	H	0.757412	-0.144876	-0.713715
H280	H	0.754947	-0.110620	-0.674697
H281	H	0.695329	-0.116053	-0.742973
H282	H	0.692858	-0.081789	-0.703968
H283	H	0.758226	-0.053002	-0.725105
H284	H	0.760690	-0.087262	-0.764122
H285	H	0.723883	-0.050570	-0.764050
H286	H	0.701388	-0.164274	-0.960437
H287	H	0.701393	-0.164257	-1.045559
H288	H	0.478110	-0.268721	-0.268545
C289	C	0.589137	-0.276433	-0.479410
C290	C	0.563947	-0.301590	-0.448813
C291	C	0.535134	-0.330331	-0.472172
H292	H	0.606256	-0.296045	-0.497721
H293	H	0.569552	-0.259249	-0.497697
H294	H	0.583530	-0.318772	-0.430535
H295	H	0.546819	-0.281990	-0.430502
H296	H	0.515549	-0.313147	-0.490458
H297	H	0.552257	-0.349940	-0.490482
H298	H	0.518037	-0.347400	-0.451416
C299	C	0.560442	-0.305121	-0.738275
C300	C	0.535275	-0.330276	-0.768858
C301	C	0.506495	-0.359070	-0.745483
H302	H	0.540837	-0.287990	-0.719966
H303	H	0.577598	-0.324729	-0.719986
H304	H	0.518120	-0.310671	-0.787139
H305	H	0.554868	-0.347417	-0.787168
H306	H	0.523652	-0.378678	-0.727194
H307	H	0.486894	-0.341935	-0.727175
H308	H	0.489419	-0.376144	-0.766231
H309	H	0.596984	-0.268637	-0.388000
H310	H	0.730110	-0.135588	-0.744622
H311	H	0.597076	-0.959972	-0.268661
H312	H	0.177197	-0.135539	-0.135854
C313	C	0.386712	-0.276583	-0.276369
C314	C	0.417303	-0.301786	-0.301467
C315	C	0.393938	-0.330623	-0.330173
H316	H	0.368429	-0.259481	-0.296019
H317	H	0.368399	-0.296159	-0.259162
H318	H	0.435609	-0.282213	-0.318672
H319	H	0.435588	-0.318898	-0.281828
H320	H	0.375624	-0.350199	-0.312967
H321	H	0.375655	-0.313517	-0.349821
H322	H	0.414690	-0.347729	-0.347203
C323	C	0.268709	-0.305240	-0.305073
C324	C	0.295679	-0.279844	-0.333905
C325	C	0.319193	-0.308538	-0.362622
H326	H	0.248063	-0.322384	-0.322196
H327	H	0.287020	-0.324785	-0.287869
H328	H	0.277369	-0.260307	-0.351108
H329	H	0.316333	-0.262701	-0.316795
H330	H	0.337503	-0.328082	-0.345418
H331	H	0.298543	-0.325680	-0.379742
H332	H	0.337497	-0.291311	-0.382186
H333	H	0.730093	-0.744071	-0.135801
H334	H	0.177180	-0.297509	-0.297271
C335	C	-0.087997	-0.276584	-0.276454
C336	C	-0.118590	-0.301776	-0.301577
C337	C	-0.095226	-0.330570	-0.330316
H338	H	-0.069709	-0.296172	-0.259284
H339	H	-0.069687	-0.259437	-0.296085
H340	H	-0.136892	-0.318922	-0.281949
H341	H	-0.136878	-0.282200	-0.318756
H342	H	-0.076916	-0.313423	-0.349947
H343	H	-0.076940	-0.350155	-0.313143
H344	H	-0.115980	-0.347663	-0.347368
H345	H	-0.179390	-0.164352	-0.164561
H346	H	-0.094283	-0.164339	-0.164556
C347	C	0.484407	-0.156480	-0.156648
C348	C	0.453827	-0.131287	-0.131526
C349	C	0.477206	-0.102493	-0.102787
H350	H	0.502733	-0.136893	-0.173818
H351	H	0.502679	-0.173627	-0.137018
H352	H	0.435562	-0.114141	-0.151155
H353	H	0.435501	-0.150862	-0.114347
H354	H	0.495478	-0.119640	-0.083157
H355	H	0.495531	-0.082909	-0.119961
H356	H	0.456461	-0.085399	-0.085736
C357	C	0.127826	-0.305338	-0.305113
C358	C	0.097231	-0.330527	-0.330236
C359	C	0.120592	-0.359323	-0.358976
H360	H	0.146111	-0.324928	-0.287943
H361	H	0.146138	-0.288192	-0.324743
H362	H	0.078927	-0.347671	-0.310609
H363	H	0.078945	-0.310949	-0.347415
H364	H	0.138904	-0.342177	-0.378606
H365	H	0.138877	-0.378909	-0.341802
H366	H	0.099837	-0.376414	-0.376028
H367	H	0.568248	-0.688511	-0.297342
H368	H	0.392998	-0.164309	-0.164496
C369	C	0.709233	-0.953481	-0.156797
C370	C	0.737998	-0.926503	-0.182261
C371	C	0.766776	-0.902967	-0.153635
H372	H	0.726402	-0.974115	-0.139697
H373	H	0.692070	-0.935175	-0.137208
H374	H	0.755159	-0.944807	-0.201841
H375	H	0.720841	-0.905860	-0.199360
H376	H	0.749614	-0.884661	-0.134046
H377	H	0.783942	-0.923604	-0.136537
H378	H	0.786294	-0.884657	-0.170907
H379	H	0.036420	-0.297513	-0.297286
H380	H	0.036441	-0.135556	-0.135871
C381	C	0.737944	-0.835471	-0.127976
C382	C	0.763110	-0.804877	-0.102828
C383	C	0.791890	-0.828239	-0.074077
H384	H	0.757549	-0.853749	-0.145138
H385	H	0.720788	-0.853789	-0.108362
H386	H	0.780265	-0.786566	-0.122440
H387	H	0.743517	-0.786597	-0.085657
H388	H	0.774733	-0.846557	-0.054463
H389	H	0.811492	-0.846517	-0.091243
H390	H	0.808965	-0.807485	-0.057008
H391	H	0.701258	-0.472626	-0.164472
C392	C	0.709073	-0.381224	-0.156653
C393	C	0.734270	-0.411799	-0.131533
C394	C	0.763074	-0.388416	-0.102809
H395	H	0.691947	-0.362944	-0.137016
H396	H	0.728654	-0.362904	-0.173847
H397	H	0.714691	-0.430111	-0.114340
H398	H	0.751405	-0.430080	-0.151158
H399	H	0.782655	-0.370097	-0.120003
H400	H	0.745944	-0.370138	-0.083175
H401	H	0.780176	-0.409158	-0.085765
C402	C	0.737828	-0.597010	-0.127923
C403	C	0.728092	-0.608461	-0.083465
C404	C	0.756820	-0.585060	-0.054680
H405	H	0.733736	-0.565702	-0.131965
H406	H	0.768016	-0.604684	-0.134510
H407	H	0.697911	-0.600785	-0.076880
H408	H	0.732186	-0.639766	-0.079409
H409	H	0.787008	-0.592733	-0.061266
H410	H	0.752726	-0.553753	-0.058725
H411	H	0.750221	-0.592829	-0.024512
C412	C	0.560450	-0.597092	-0.305199
C413	C	0.570201	-0.608487	-0.349659
C414	C	0.541469	-0.585108	-0.378444
H415	H	0.564528	-0.565781	-0.301148
H416	H	0.530264	-0.604823	-0.298622
H417	H	0.600380	-0.600754	-0.356234
H418	H	0.566120	-0.639795	-0.353724
H419	H	0.511283	-0.592839	-0.371866
H420	H	0.545549	-0.553798	-0.374389
H421	H	0.548079	-0.592840	-0.408612
H422	H	0.730076	-0.688430	-0.135795
