data_functionalizedCrystal
_audit_creation_method	'MofGen! by Chris Wilmer'
_symmetry_space_group_name_H-M	'P1'
_symmetry_Int_Tables_number	1
_symmetry_cell_setting	triclinic
loop_
_symmetry_equiv_pos_as_xyz
  x,y,z
_cell_length_a	12.759401
_cell_length_b	21.295417
_cell_length_c	21.295420
_cell_angle_alpha	90.005898
_cell_angle_beta	90.013843
_cell_angle_gamma	90.028746
loop_
_atom_site_label
_atom_site_type_symbol
_atom_site_fract_x
_atom_site_fract_y
_atom_site_fract_z
Zn1	Zn	1.606097	-0.250788	0.355863
Zn2	Zn	2.106097	0.249212	0.855863
Zn3	Zn	1.605960	-0.356013	0.250590
Zn4	Zn	2.105960	0.143987	0.750590
Zn5	Zn	1.430413	-0.250760	0.250614
Zn6	Zn	1.930413	0.249240	0.750614
Zn7	Zn	1.430341	-0.356022	0.355828
Zn8	Zn	1.930341	0.143978	0.855828
O9	O	1.518203	-0.303396	0.303224
O10	O	2.018203	0.196604	0.803224
O11	O	1.753100	-0.264755	0.341903
O12	O	2.253100	0.235245	0.841903
O13	O	1.582646	-0.342036	0.162504
O14	O	2.082646	0.157964	0.662504
O15	O	1.453805	-0.162674	0.264600
O16	O	1.953805	0.337326	0.764600
O17	O	1.752999	-0.342063	0.264560
O18	O	2.252999	0.157937	0.764560
O19	O	1.582879	-0.162695	0.341926
O20	O	2.082879	0.337305	0.841926
O21	O	1.453672	-0.264707	0.162521
O22	O	1.953672	0.235293	0.662521
O23	O	1.283383	-0.264715	0.264566
O24	O	1.783383	0.235285	0.764566
O25	O	1.453683	-0.342078	0.443922
O26	O	1.953683	0.157922	0.943922
O27	O	1.283330	-0.342050	0.341866
O28	O	1.783330	0.157950	0.841866
O29	O	1.582810	-0.264763	0.443948
O30	O	2.082810	0.235237	0.943948
O31	O	1.582576	-0.444104	0.264526
O32	O	2.082576	0.055896	0.764526
O33	O	1.453550	-0.444110	0.341843
O34	O	1.953550	0.055890	0.841843
C35	C	1.245235	-0.303381	0.303215
C36	C	1.745235	0.196619	0.803215
C37	C	1.128459	-0.303390	0.303226
C38	C	1.628459	0.196610	0.803226
C39	C	1.073642	-0.263212	0.343561
C40	C	1.573642	0.236788	0.843561
C41	C	0.963918	-0.263224	0.343565
C42	C	1.463918	0.236776	0.843565
C43	C	0.963837	-0.343598	0.262897
C44	C	1.463837	0.156402	0.762897
C45	C	1.073559	-0.343582	0.262891
C46	C	1.573559	0.156418	0.762891
C47	C	1.073688	-0.216810	0.390136
C48	C	1.573688	0.283190	0.890136
C49	C	0.963964	-0.216822	0.390140
C50	C	1.463964	0.283178	0.890140
C51	C	1.518069	-0.466947	0.303192
C52	C	2.018069	0.033053	0.803192
C53	C	1.518108	-0.536916	0.303199
C54	C	2.018108	-0.036916	0.803199
C55	C	1.585278	-0.569736	0.343492
C56	C	2.085278	-0.069736	0.843492
C57	C	1.585315	-0.635478	0.343507
C58	C	2.085315	-0.135478	0.843507
C59	C	1.518193	-0.668398	0.303219
C60	C	2.018193	-0.168398	0.803219
C61	C	1.451009	-0.635570	0.262924
C62	C	1.951009	-0.135570	0.762924
C63	C	1.450967	-0.569829	0.262914
C64	C	1.950967	-0.069829	0.762914
N65	N	1.510261	-0.771636	0.248128
N66	N	2.010261	-0.271636	0.748128
N67	N	1.510308	-0.834088	0.248140
N68	N	2.010308	-0.334088	0.748140
C69	C	1.518316	-0.866473	0.303248
C70	C	2.018316	-0.366473	0.803248
N71	N	1.526295	-0.834047	0.358345
N72	N	2.026295	-0.334047	0.858345
N73	N	1.526254	-0.771590	0.358333
N74	N	2.026254	-0.271590	0.858333
C75	C	1.518231	-0.739683	0.303226
C76	C	2.018231	-0.239683	0.803226
C77	C	1.585530	-0.970579	0.343560
C78	C	2.085530	-0.470579	0.843560
C79	C	1.585559	-1.036322	0.343577
C80	C	2.085559	-0.536322	0.843577
C81	C	1.451259	-1.036412	0.262988
C82	C	1.951259	-0.536412	0.762988
C83	C	1.451224	-0.970670	0.262977
C84	C	1.951224	-0.470670	0.762977
C85	C	1.518365	-0.937757	0.303262
C86	C	2.018365	-0.437757	0.803262
C87	C	1.792236	-0.303411	0.303233
C88	C	2.292236	0.196589	0.803233
C89	C	1.909013	-0.303418	0.303237
C90	C	2.409013	0.196582	0.803237
C91	C	1.518254	-0.303425	0.467414
C92	C	2.018254	0.196575	0.967414
C93	C	1.518275	-0.303437	0.537382
C94	C	2.018275	0.196563	1.037382
C95	C	1.518366	-0.139206	0.303270
C96	C	2.018366	0.360794	0.803270
C97	C	1.518435	-0.069237	0.303289
C98	C	2.018435	0.430763	0.803289
C99	C	1.585501	-0.263186	0.570263
C100	C	2.085501	0.236814	1.070263
C101	C	1.585485	-0.263175	0.636006
C102	C	2.085485	0.236825	1.136006
C103	C	1.518254	-0.303427	0.668865
C104	C	2.018254	0.196573	1.168865
C105	C	1.451015	-0.343681	0.635976
C106	C	1.951015	0.156319	1.135976
C107	C	1.451026	-0.343686	0.570234
C108	C	1.951026	0.156314	1.070234
N109	N	1.510127	-0.358522	0.772081
N110	N	2.010127	0.141478	1.272081
N111	N	1.510123	-0.358515	0.834533
N112	N	2.010123	0.141485	1.334533
C113	C	1.518217	-0.303414	0.866939
C114	C	2.018217	0.196586	1.366939
N115	N	1.526336	-0.248319	0.834535
N116	N	2.026336	0.251681	1.334535
N117	N	1.526345	-0.248326	0.772078
N118	N	2.026345	0.251674	1.272078
C119	C	1.518235	-0.303426	0.740150
C120	C	2.018235	0.196574	1.240150
C121	C	1.585430	-0.263149	0.971106
C122	C	2.085430	0.236851	1.471106
C123	C	1.585406	-0.263137	1.036850
C124	C	2.085406	0.236863	1.536850
C125	C	1.450942	-0.343649	1.036818
C126	C	1.950942	0.156351	1.536818
C127	C	1.450959	-0.343654	0.971076
C128	C	1.950959	0.156346	1.471076
C129	C	1.518209	-0.303405	0.938224
C130	C	2.018209	0.196595	1.438224
C131	C	1.518157	-0.303386	1.139672
C132	C	2.018157	0.196614	1.639672
C133	C	1.518173	-0.303389	1.069704
C134	C	2.018173	0.196611	1.569704
H135	H	0.919124	-0.376321	0.230058
H136	H	1.419124	0.123679	0.730058
Cl137	Cl	1.126270	-0.243892	0.461581
Cl138	Cl	1.626270	0.256108	0.961581
Cl139	Cl	1.119690	-0.141498	0.370116
Cl140	Cl	1.619690	0.358502	0.870116
Cl141	Cl	1.366621	-0.676954	0.212280
Cl142	Cl	1.866621	-0.176954	0.712280
H143	H	1.118186	-0.376293	0.230040
H144	H	1.618186	0.123707	0.730040
Cl145	Cl	1.366516	-0.528567	0.212257
Cl146	Cl	1.866516	-0.028567	0.712257
Cl147	Cl	0.918013	-0.237120	0.465375
Cl148	Cl	1.418013	0.262880	0.965375
Cl149	Cl	1.366506	-0.394292	0.528896
Cl150	Cl	1.866506	0.105708	1.028896
H151	H	1.396190	-0.376416	1.063571
H152	H	1.896190	0.123584	1.563571
H153	H	1.639945	-0.542940	0.376296
H154	H	2.139945	-0.042940	0.876296
H155	H	1.640183	-0.230372	0.944356
H156	H	2.140183	0.269628	1.444356
Cl157	Cl	1.669944	-0.212541	1.078187
Cl158	Cl	2.169944	0.287459	1.578187
H159	H	1.640197	-0.943780	0.376365
H160	H	2.140197	-0.443780	0.876365
H161	H	1.396223	-0.376435	0.944304
H162	H	1.896223	0.123565	1.444304
Cl163	Cl	1.670038	-0.212583	0.528967
Cl164	Cl	2.170038	0.287417	1.028967
H165	H	1.640004	-0.662206	0.376326
H166	H	2.140004	-0.162206	0.876326
H167	H	0.929945	-0.170480	0.372770
H168	H	1.429945	0.329520	0.872770
H169	H	1.640257	-1.063043	0.376391
H170	H	2.140257	-0.563043	0.876391
H171	H	1.396600	-1.063215	0.230188
H172	H	1.896600	-0.563215	0.730188
Cl173	Cl	1.366777	-0.929408	0.212320
Cl174	Cl	1.866777	-0.429408	0.712320
H175	H	1.640227	-0.230395	0.662783
H176	H	2.140227	0.269605	1.162783
H177	H	1.396272	-0.376453	0.662734
H178	H	1.896272	0.123547	1.162734
