data_functionalizedCrystal
_audit_creation_method	'MofGen! by Chris Wilmer'
_symmetry_space_group_name_H-M	'P1'
_symmetry_Int_Tables_number	1
_symmetry_cell_setting	triclinic
loop_
_symmetry_equiv_pos_as_xyz
  x,y,z
_cell_length_a	19.805407
_cell_length_b	14.908520
_cell_length_c	19.805399
_cell_angle_alpha	86.729391
_cell_angle_beta	90.019573
_cell_angle_gamma	93.320773
loop_
_atom_site_label
_atom_site_type_symbol
_atom_site_fract_x
_atom_site_fract_y
_atom_site_fract_z
Zn1	Zn	1.019204	-0.359181	0.398269
Zn2	Zn	1.519204	0.140819	0.898269
Zn3	Zn	1.012594	-0.510047	0.291612
Zn4	Zn	1.512594	-0.010047	0.791612
Zn5	Zn	0.906017	-0.359206	0.285095
Zn6	Zn	1.406017	0.140794	0.785095
Zn7	Zn	0.899460	-0.509999	0.404757
Zn8	Zn	1.399460	-0.009999	0.904757
O9	O	0.959319	-0.434608	0.344934
O10	O	1.459319	0.065392	0.844934
O11	O	1.113043	-0.379203	0.384134
O12	O	1.613043	0.120797	0.884134
O13	O	0.998435	-0.490068	0.196033
O14	O	1.498435	0.009932	0.696033
O15	O	0.926542	-0.232958	0.294665
O16	O	1.426542	0.267042	0.794665
O17	O	1.108187	-0.490044	0.305773
O18	O	1.608187	0.009956	0.805773
O19	O	1.009699	-0.232939	0.377814
O20	O	1.509699	0.267061	0.877814
O21	O	0.920133	-0.379246	0.191244
O22	O	1.420133	0.120754	0.691244
O23	O	0.810431	-0.379199	0.300956
O24	O	1.310431	0.120801	0.800956
O25	O	0.915366	-0.489962	0.498612
O26	O	1.415366	0.010038	0.998612
O27	O	0.805614	-0.489986	0.388871
O28	O	1.305614	0.010014	0.888871
O29	O	1.003341	-0.379157	0.493845
O30	O	1.503341	0.120843	0.993845
O31	O	0.992077	-0.636286	0.312064
O32	O	1.492077	-0.136286	0.812064
O33	O	0.908957	-0.636250	0.395191
O34	O	1.408957	-0.136250	0.895191
C35	C	0.783463	-0.434591	0.344911
C36	C	1.283463	0.065409	0.844911
C37	C	0.708231	-0.434605	0.344918
C38	C	1.208231	0.065395	0.844918
C39	C	0.670392	-0.492379	0.390629
C40	C	1.170392	0.007621	0.890629
C41	C	0.599704	-0.492380	0.390639
C42	C	1.099704	0.007620	0.890639
C43	C	0.566855	-0.434612	0.344934
C44	C	1.066855	0.065388	0.844934
C45	C	0.604699	-0.376832	0.299220
C46	C	1.104699	0.123168	0.799220
C47	C	0.675386	-0.376827	0.299214
C48	C	1.175386	0.123173	0.799214
C49	C	0.319625	-0.376852	0.299244
C50	C	0.819625	0.123148	0.799244
C51	C	0.248932	-0.376864	0.299252
C52	C	0.748932	0.123136	0.799252
C53	C	0.243942	-0.492406	0.390668
C54	C	0.743942	0.007594	0.890668
C55	C	0.314629	-0.492400	0.390662
C56	C	0.814629	0.007600	0.890662
C57	C	0.352467	-0.434618	0.344952
C58	C	0.852467	0.065382	0.844952
C59	C	0.429116	-0.434615	0.344943
C60	C	0.929116	0.065385	0.844943
C61	C	0.490208	-0.434618	0.344939
C62	C	0.990208	0.065382	0.844939
C63	C	0.949107	-0.669002	0.355053
C64	C	1.449107	-0.169002	0.855053
C65	C	0.944800	-0.769277	0.359405
C66	C	1.444800	-0.269277	0.859405
C67	C	1.023348	-0.957679	0.281093
C68	C	1.523348	-0.457679	0.781093
C69	C	1.019304	-1.051896	0.285180
C70	C	1.519304	-0.551896	0.785180
C71	C	0.932671	-1.051929	0.371669
C72	C	1.432671	-0.551929	0.871669
C73	C	0.936715	-0.957712	0.367582
C74	C	1.436715	-0.457712	0.867582
C75	C	0.982055	-0.910590	0.322292
C76	C	1.482055	-0.410590	0.822292
C77	C	0.986095	-0.816372	0.318202
C78	C	1.486095	-0.316372	0.818202
C79	C	0.899466	-0.816407	0.404694
C80	C	1.399466	-0.316407	0.904694
C81	C	0.895421	-0.910624	0.408781
C82	C	1.395421	-0.410624	0.908781
C83	C	1.135861	-0.434626	0.344957
C84	C	1.635861	0.065374	0.844957
C85	C	1.211092	-0.434634	0.344967
C86	C	1.711092	0.065366	0.844967
C87	C	0.959359	-0.434551	0.521474
C88	C	1.459359	0.065449	1.021474
C89	C	0.959376	-0.434527	0.596705
C90	C	1.459376	0.065473	1.096705
C91	C	0.969589	-0.199299	0.334789
C92	C	1.469589	0.300701	0.834789
C93	C	0.973966	-0.099024	0.330466
C94	C	1.473966	0.400976	0.830466
C95	C	0.959320	-0.434600	0.169077
C96	C	1.459320	0.065400	0.669077
C97	C	0.959445	-0.434370	0.093836
C98	C	1.459445	0.065630	0.593836
C99	C	1.005186	-0.376828	0.629568
C100	C	1.505186	0.123172	1.129568
C101	C	1.005194	-0.376802	0.700255
C102	C	1.505194	0.123198	1.200255
C103	C	0.959395	-0.434480	0.738078
C104	C	1.459395	0.065520	1.238078
C105	C	0.913581	-0.492182	0.705210
C106	C	1.413581	0.007818	1.205210
C107	C	0.913570	-0.492203	0.634524
C108	C	1.413570	0.007797	1.134524
C109	C	0.913622	-0.492098	0.990280
C110	C	1.413622	0.007902	1.490280
C111	C	0.913638	-0.492074	1.060971
C112	C	1.413638	0.007926	1.560971
C113	C	1.005247	-0.376697	1.056011
C114	C	1.505247	0.123303	1.556011
C115	C	1.005236	-0.376718	0.985325
C116	C	1.505236	0.123282	1.485325
C117	C	0.959419	-0.434416	0.952463
C118	C	1.459419	0.065584	1.452463
C119	C	0.959410	-0.434442	0.875816
C120	C	1.459410	0.065558	1.375816
C121	C	0.959407	-0.434459	0.814725
C122	C	1.459407	0.065541	1.314725
H123	H	0.222189	-0.329817	0.262033
H124	H	0.722189	0.170183	0.762033
H125	H	0.895762	-1.090312	0.408547
H126	H	1.395762	-0.590312	0.908547
N127	N	0.864218	-0.554321	0.954826
N128	N	1.364218	-0.054321	1.454826
H129	H	0.834453	-0.517652	0.923914
H130	H	1.334453	-0.017652	1.423914
H131	H	0.835246	-0.590855	0.989544
H132	H	1.335246	-0.090855	1.489544
N133	N	0.360417	-0.314531	0.249934
N134	N	0.860417	0.185469	0.749934
H135	H	0.388140	-0.351128	0.220097
H136	H	0.888140	0.148872	0.720097
H137	H	0.391534	-0.272772	0.275730
H138	H	0.891534	0.227228	0.775730
N139	N	0.569273	-0.314541	0.249911
N140	N	1.069273	0.185459	0.749911
H141	H	0.518750	-0.323319	0.256843
H142	H	1.018750	0.176681	0.756843
H143	H	0.581010	-0.328518	0.202162
H144	H	1.081010	0.171482	0.702162
H145	H	0.697132	-0.539423	0.427846
H146	H	1.197132	-0.039423	0.927846
H147	H	1.060261	-0.919312	0.244211
H148	H	1.560261	-0.419312	0.744211
H149	H	0.876288	-0.539141	0.736011
H150	H	1.376288	-0.039141	1.236011
N151	N	0.716202	-0.314508	0.249917
N152	N	1.216202	0.185492	0.749917
H153	H	0.684668	-0.277912	0.220963
H154	H	1.184668	0.222088	0.720963
H155	H	0.743924	-0.351168	0.220128
H156	H	1.243924	0.148832	0.720128
N157	N	0.854925	-0.765613	0.449131
N158	N	1.354925	-0.265613	0.949131
H159	H	0.864700	-0.781956	0.498212
H160	H	1.364700	-0.281956	0.998212
H161	H	0.805883	-0.782100	0.439224
H162	H	1.305883	-0.282100	0.939224
H163	H	1.023011	-0.778006	0.281323
H164	H	1.523011	-0.278006	0.781323
H165	H	1.052931	-1.090232	0.251633
H166	H	1.552931	-0.590232	0.751633
H167	H	1.042499	-0.329820	0.727009
H168	H	1.542499	0.170180	1.227009
N169	N	1.054588	-0.314623	0.588776
N170	N	1.554588	0.185377	1.088776
H171	H	1.083609	-0.278067	0.620323
H172	H	1.583609	0.221933	1.120323
H173	H	1.028856	-0.272879	0.557642
H174	H	1.528856	0.227121	1.057642
H175	H	0.858509	-0.949003	0.445657
H176	H	1.358509	-0.449003	0.945657
N177	N	1.054636	-0.314513	0.944530
N178	N	1.554636	0.185487	1.444530
H179	H	1.083658	-0.277955	0.976076
H180	H	1.583658	0.222045	1.476076
H181	H	1.028902	-0.272770	0.913397
H182	H	1.528902	0.227230	1.413397
H183	H	1.042551	-0.329713	1.082776
H184	H	1.542551	0.170287	1.582776
H185	H	0.876340	-0.539044	1.091765
H186	H	1.376340	-0.039044	1.591765
H187	H	0.876260	-0.539178	0.607768
H188	H	1.376260	-0.039178	1.107768
H189	H	0.341371	-0.539444	0.427878
H190	H	0.841371	-0.039444	0.927878
N191	N	0.558890	-0.554706	0.439932
N192	N	1.058890	-0.054706	0.939932
H193	H	0.590426	-0.591309	0.468879
H194	H	1.090426	-0.091309	0.968879
H195	H	0.527739	-0.596401	0.414120
H196	H	1.027739	-0.096401	0.914120
H197	H	0.213126	-0.539452	0.427890
H198	H	0.713126	-0.039452	0.927890
