data_functionalizedCrystal
_audit_creation_method	'MofGen! by Chris Wilmer'
_symmetry_space_group_name_H-M	'P1'
_symmetry_Int_Tables_number	1
_symmetry_cell_setting	triclinic
loop_
_symmetry_equiv_pos_as_xyz
  x,y,z
_cell_length_a	12.645330
_cell_length_b	16.625548
_cell_length_c	16.625539
_cell_angle_alpha	89.988279
_cell_angle_beta	89.975479
_cell_angle_gamma	90.018732
loop_
_atom_site_label
_atom_site_type_symbol
_atom_site_fract_x
_atom_site_fract_y
_atom_site_fract_z
Zn1	Zn	-0.421885	1.232708	-0.455805
Zn2	Zn	0.078115	1.732708	0.044195
Zn3	Zn	-0.599165	1.232642	-0.320977
Zn4	Zn	-0.099165	1.732642	0.179023
Zn5	Zn	-0.421935	1.097878	-0.320998
Zn6	Zn	0.078065	1.597878	0.179002
Zn7	Zn	-0.599126	1.097863	-0.455780
Zn8	Zn	-0.099126	1.597863	0.044220
O9	O	-0.510528	1.165273	-0.388390
O10	O	-0.010528	1.665273	0.111610
O11	O	-0.445397	1.345531	-0.437922
O12	O	0.054603	1.845531	0.062078
O13	O	-0.575693	1.214744	-0.208148
O14	O	-0.075693	1.714744	0.291852
O15	O	-0.273581	1.115797	-0.338901
O16	O	0.226419	1.615797	0.161099
O17	O	-0.575644	1.345483	-0.338864
O18	O	-0.075644	1.845483	0.161136
O19	O	-0.273544	1.214856	-0.437943
O20	O	0.226456	1.714856	0.062057
O21	O	-0.445482	1.115733	-0.208163
O22	O	0.054518	1.615733	0.291837
O23	O	-0.445444	0.985043	-0.338876
O24	O	0.054556	1.485043	0.161124
O25	O	-0.575577	1.115772	-0.568615
O26	O	-0.075577	1.615772	-0.068615
O27	O	-0.575625	0.985032	-0.437899
O28	O	-0.075625	1.485032	0.062101
O29	O	-0.445359	1.214841	-0.568634
O30	O	0.054641	1.714841	-0.068634
O31	O	-0.747507	1.214730	-0.338839
O32	O	-0.247507	1.714730	0.161161
O33	O	-0.747478	1.115708	-0.437878
O34	O	-0.247478	1.615708	0.062122
C35	C	-0.510537	0.955782	-0.388387
C36	C	-0.010537	1.455782	0.111613
C37	C	-0.510566	0.866161	-0.388405
C38	C	-0.010566	1.366161	0.111595
C39	C	-0.785957	1.165232	-0.388371
C40	C	-0.285957	1.665232	0.111629
C41	C	-0.903787	1.165289	-0.388390
C42	C	-0.403787	1.665289	0.111610
C43	C	-1.071326	1.227483	-0.325958
C44	C	-0.571326	1.727483	0.174042
C45	C	-0.948765	1.227686	-0.326111
C46	C	-0.448765	1.727686	0.173889
C47	C	-0.948171	1.188327	-0.473380
C48	C	-0.448171	1.688327	0.026620
C49	C	-1.070769	1.188820	-0.473049
C50	C	-0.570769	1.688820	0.026951
C51	C	-1.071125	1.080032	-0.366669
C52	C	-0.571125	1.580032	0.133331
C53	C	-0.948521	1.080440	-0.364763
C54	C	-0.448521	1.580440	0.135237
C55	C	-0.510458	1.165312	-0.598699
C56	C	-0.010458	1.665312	-0.098699
C57	C	-0.510428	1.165329	-0.688320
C58	C	-0.010428	1.665329	-0.188320
C59	C	-0.234022	1.165335	-0.388427
C60	C	0.265978	1.665335	0.111573
C61	C	-0.116192	1.165362	-0.388443
C62	C	0.383808	1.665362	0.111557
C63	C	-0.510519	1.375581	-0.388394
C64	C	-0.010519	1.875581	0.111606
C65	C	-0.510516	1.465203	-0.388395
C66	C	-0.010516	1.965203	0.111605
C67	C	-0.510565	1.793378	-0.388400
C68	C	-0.010565	2.293378	0.111600
C69	C	-0.510555	1.702070	-0.388396
C70	C	-0.010555	2.202070	0.111604
C71	C	-0.510540	1.629293	-0.388397
C72	C	-0.010540	2.129293	0.111603
C73	C	-0.510530	1.537979	-0.388394
C74	C	-0.010530	2.037979	0.111606
C75	C	-0.510404	1.165342	-0.761103
C76	C	-0.010404	1.665342	-0.261103
C77	C	-0.510365	1.165361	-0.852411
C78	C	-0.010365	1.665361	-0.352411
C79	C	-0.510328	1.165380	-0.925188
C80	C	-0.010328	1.665380	-0.425188
C81	C	-0.510289	1.165400	-1.016502
C82	C	-0.010289	1.665400	-0.516502
C83	C	-0.510521	1.165280	-0.178899
C84	C	-0.010521	1.665280	0.321101
C85	C	-0.510252	1.165419	-0.089279
C86	C	-0.010252	1.665419	0.410721
H87	H	-1.100877	1.213250	-0.262754
H88	H	-0.600877	1.713250	0.237246
H89	H	-1.100445	1.145555	-0.521208
H90	H	-0.600445	1.645555	-0.021208
H91	H	-1.102048	1.290345	-0.340198
H92	H	-0.602048	1.790345	0.159802
C93	C	-1.021882	1.322548	-0.513008
C94	C	-0.521882	1.822548	-0.013008
C95	C	-1.109258	1.273021	-0.497938
C96	C	-0.609258	1.773021	0.002062
H97	H	-1.045642	1.374532	-0.528367
H98	H	-0.545642	1.874532	-0.028367
H99	H	-0.980665	1.300069	-0.555151
H100	H	-0.480665	1.800069	-0.055151
H101	H	-0.980091	1.326640	-0.465718
H102	H	-0.480091	1.826640	0.034282
H103	H	-1.151046	1.268924	-0.545230
H104	H	-0.651046	1.768924	-0.045230
H105	H	-1.150493	1.295505	-0.455791
H106	H	-0.650493	1.795505	0.044209
C107	C	-0.995686	1.364130	-0.357132
C108	C	-0.495686	1.864130	0.142868
C109	C	-0.909044	1.313001	-0.345565
C110	C	-0.409044	1.813001	0.154435
H111	H	-0.971162	1.416800	-0.369150
H112	H	-0.471162	1.916800	0.130850
H113	H	-1.037273	1.365486	-0.309563
H114	H	-0.537273	1.865486	0.190437
H115	H	-1.037374	1.344784	-0.400537
H116	H	-0.537374	1.844784	0.099463
H117	H	-0.867361	1.332343	-0.302156
H118	H	-0.367361	1.832343	0.197844
H119	H	-0.867440	1.311648	-0.393139
H120	H	-0.367440	1.811648	0.106861
C121	C	-0.996380	1.045562	-0.229412
C122	C	-0.496380	1.545562	0.270588
C123	C	-0.909414	1.057041	-0.280303
C124	C	-0.409414	1.557041	0.219697
H125	H	-0.972242	1.031140	-0.177261
H126	H	-0.472242	1.531140	0.322739
H127	H	-1.039775	1.003816	-0.250190
H128	H	-0.539775	1.503816	0.249810
H129	H	-1.036092	1.093951	-0.226261
H130	H	-0.536092	1.593951	0.273739
H131	H	-0.869706	1.008650	-0.283458
H132	H	-0.369706	1.508650	0.216542
H133	H	-0.866002	1.098790	-0.259519
H134	H	-0.366002	1.598790	0.240481
C135	C	-0.938490	1.031989	-0.500582
C136	C	-0.438490	1.531989	-0.000582
C137	C	-0.907210	1.014583	-0.421695
C138	C	-0.407210	1.514583	0.078305
H139	H	-0.912991	0.991330	-0.535732
H140	H	-0.412991	1.491330	-0.035732
H141	H	-0.910210	1.082555	-0.516252
H142	H	-0.410210	1.582555	-0.016252
H143	H	-1.013486	1.033873	-0.503261
H144	H	-0.513486	1.533873	-0.003261
H145	H	-0.832213	1.012705	-0.419015
H146	H	-0.332213	1.512705	0.080985
H147	H	-0.935485	0.964003	-0.406021
H148	H	-0.435485	1.464003	0.093979
H149	H	-0.919034	1.144457	-0.521183
H150	H	-0.419034	1.644457	-0.021183
C151	C	-1.168561	0.957961	-0.388311
C152	C	-0.668561	1.457961	0.111689
C153	C	-1.110300	1.017547	-0.428103
C154	C	-0.610300	1.517547	0.071897
H155	H	-1.192743	0.919391	-0.426242
H156	H	-0.692743	1.419391	0.073758
H157	H	-1.227501	0.981829	-0.362149
H158	H	-0.727501	1.481829	0.137851
H159	H	-1.124941	0.932242	-0.349565
H160	H	-0.624941	1.432242	0.150435
H161	H	-1.153923	1.043270	-0.466846
H162	H	-0.653923	1.543270	0.033154
H163	H	-1.051352	0.993677	-0.454279
H164	H	-0.551352	1.493677	0.045721
H165	H	-0.918761	1.213272	-0.263092
H166	H	-0.418761	1.713272	0.236908
H167	H	-0.917375	1.249994	-0.492133
H168	H	-0.417375	1.749994	0.007867
H169	H	-1.102134	1.059080	-0.305774
H170	H	-0.602134	1.559080	0.194226
