data_functionalizedCrystal
_audit_creation_method	'MofGen! by Chris Wilmer'
_symmetry_space_group_name_H-M	'P1'
_symmetry_Int_Tables_number	1
_symmetry_cell_setting	triclinic
loop_
_symmetry_equiv_pos_as_xyz
  x,y,z
_cell_length_a	14.971506
_cell_length_b	15.021413
_cell_length_c	14.971486
_cell_angle_alpha	90.003812
_cell_angle_beta	96.381742
_cell_angle_gamma	90.007631
loop_
_atom_site_label
_atom_site_type_symbol
_atom_site_fract_x
_atom_site_fract_y
_atom_site_fract_z
O1	O	1.186939	0.074039	-0.116637
O2	O	0.926541	0.074039	-0.130577
O3	O	1.063719	0.074033	0.006593
O4	O	1.049760	0.074045	-0.253806
O5	O	1.063697	-0.074032	0.006573
O6	O	0.926519	-0.074025	-0.130596
O7	O	1.186917	-0.074025	-0.116656
Zn8	Zn	1.056714	-0.097534	-0.123629
Zn9	Zn	1.056743	0.097547	-0.123604
O10	O	1.049738	-0.074019	-0.253826
C11	C	0.893205	0.000007	-0.129960
C12	C	0.793909	0.000007	-0.128082
N13	N	1.056701	-0.230671	-0.123647
C14	C	0.355627	0.000020	-0.201500
C15	C	0.448927	0.000024	-0.203258
C16	C	0.506147	0.000016	-0.122665
C17	C	0.470062	0.000013	-0.040310
C18	C	0.376764	0.000016	-0.038553
C19	C	0.664525	0.000006	-0.043977
C20	C	0.757831	0.000002	-0.045733
C21	C	0.736689	0.000014	-0.208681
C22	C	0.643390	0.000017	-0.206924
C23	C	0.607312	0.000012	-0.124569
C24	C	0.993260	-0.470351	-0.187044
C25	C	1.074101	-0.529685	-0.204497
C26	C	1.056724	-0.412278	-0.123624
C27	C	0.975905	-0.529686	-0.106192
C28	C	1.056739	-0.587702	-0.123605
C29	C	1.137606	-0.470305	-0.141117
C30	C	1.039356	-0.470301	-0.042777
C31	C	1.120256	-0.529608	-0.060195
C32	C	1.056714	-0.311221	-0.123638
C33	C	1.056758	-0.688757	-0.123590
C34	C	1.220252	0.000009	-0.117273
C35	C	1.319548	0.000014	-0.119151
C36	C	1.063084	0.000001	0.039908
C37	C	1.061213	0.000002	0.139205
N38	N	1.056763	0.230685	-0.123580
C39	C	1.050374	0.000015	-0.287141
C40	C	1.052244	0.000020	-0.386438
C41	C	1.141802	0.000001	0.196424
C42	C	1.140038	0.000010	0.289724
C43	C	1.057686	0.000013	0.325802
C44	C	0.977091	0.000017	0.268575
C45	C	0.978855	0.000014	0.175278
C46	C	0.973420	0.000020	0.463038
C47	C	0.971656	0.000021	0.556342
C48	C	1.134603	0.000016	0.577485
C49	C	1.136367	0.000013	0.484187
C50	C	1.055772	0.000015	0.426966
H51	H	0.309044	0.000020	-0.267128
H52	H	0.907551	-0.555772	-0.091456
H53	H	0.910038	0.000025	0.297958
H54	H	0.804417	0.000003	0.019892
H55	H	1.088805	-0.555769	-0.272859
H56	H	1.205975	-0.444331	-0.155935
H57	H	1.208862	-0.000007	0.167057
H58	H	1.173990	-0.555463	-0.006552
H59	H	0.635155	0.000007	0.023086
H60	H	0.478297	0.000037	-0.270314
H61	H	0.516658	0.000012	0.025310
H62	H	1.024628	-0.444197	0.025563
H63	H	1.205662	0.000007	0.336309
H64	H	1.203426	0.000004	0.454815
H65	H	1.200227	0.000017	0.624078
H66	H	0.904597	0.000009	0.585714
H67	H	0.907791	0.000024	0.416451
H68	H	0.596803	0.000017	-0.272550
H69	H	0.766067	0.000017	-0.275738
H70	H	0.347391	0.000013	0.028503
H71	H	0.913232	0.000015	0.128690
H72	H	0.939645	-0.444333	-0.240719
