data_functionalizedCrystal
_audit_creation_method	'MofGen! by Chris Wilmer'
_symmetry_space_group_name_H-M	'P1'
_symmetry_Int_Tables_number	1
_symmetry_cell_setting	triclinic
loop_
_symmetry_equiv_pos_as_xyz
  x,y,z
_cell_length_a	12.759401
_cell_length_b	13.032721
_cell_length_c	12.759393
_cell_angle_alpha	97.148028
_cell_angle_beta	89.980316
_cell_angle_gamma	97.203415
loop_
_atom_site_label
_atom_site_type_symbol
_atom_site_fract_x
_atom_site_fract_y
_atom_site_fract_z
Zn1	Zn	1.553094	-0.415998	-0.647100
Zn2	Zn	1.530653	-0.590780	-0.493723
Zn3	Zn	1.377389	-0.416050	-0.471442
Zn4	Zn	1.355060	-0.590696	-0.669351
O5	O	1.454049	-0.503381	-0.570404
O6	O	1.697136	-0.439197	-0.626767
O7	O	1.510275	-0.567658	-0.343754
O8	O	1.419434	-0.269806	-0.476106
O9	O	1.680649	-0.567608	-0.514082
O10	O	1.548523	-0.269768	-0.605161
O11	O	1.397673	-0.439285	-0.327384
O12	O	1.227408	-0.439203	-0.497682
O13	O	1.381376	-0.567465	-0.813413
O14	O	1.211002	-0.567515	-0.643085
O15	O	1.526871	-0.439116	-0.797065
O16	O	1.488623	-0.737005	-0.535658
O17	O	1.359616	-0.736944	-0.664690
C18	C	1.181085	-0.503357	-0.570381
C19	C	1.064306	-0.503372	-0.570399
C20	C	1.017967	-0.436472	-0.494800
C21	C	0.908240	-0.436496	-0.494817
C22	C	0.891200	-0.570324	-0.646041
C23	C	1.000925	-0.570304	-0.646018
C24	C	1.027804	-0.359204	-0.407495
C25	C	0.918077	-0.359229	-0.407512
C26	C	1.419290	-0.774892	-0.605029
C27	C	1.404515	-0.891046	-0.619877
C28	C	1.461816	-0.942827	-0.562702
C29	C	1.446547	-1.062878	-0.578047
C30	C	1.728079	-0.503406	-0.570428
C31	C	1.844854	-0.503417	-0.570438
C32	C	1.454136	-0.503275	-0.844424
C33	C	1.454173	-0.503231	-0.961195
C34	C	1.488973	-0.230809	-0.535666
C35	C	1.503855	-0.114656	-0.520863
C36	C	1.529942	-0.436392	-1.007546
C37	C	1.529972	-0.436355	-1.117265
C38	C	1.378459	-0.570002	-1.134274
C39	C	1.378426	-0.570034	-1.024556
C40	C	1.617420	-0.359235	-0.997727
C41	C	1.617450	-0.359197	-1.107446
C42	C	1.454032	-0.503411	-0.297440
C43	C	1.454236	-0.503161	-0.180632
H44	H	0.880312	-0.388131	-0.333856
O45	O	1.304953	-0.635005	-0.979426
C46	C	1.272664	-0.776174	-0.873579
C47	C	1.355990	-0.702643	-0.924608
H48	H	1.313894	-0.830893	-0.829265
H49	H	1.223875	-0.728256	-0.816036
H50	H	1.218522	-0.823860	-0.937734
H51	H	1.410203	-0.654941	-0.860527
H52	H	1.404702	-0.750621	-0.982175
H53	H	1.054780	-0.380776	-0.328835
H54	H	1.605994	-0.278305	-0.957643
H55	H	1.038648	-0.624790	-0.707569
H56	H	1.344159	-0.935592	-0.680191
H57	H	0.839582	-0.624818	-0.707607
O58	O	1.304990	-0.634863	-1.195984
C59	C	1.237851	-0.694000	-1.372543
C60	C	1.321129	-0.620506	-1.302786
H61	H	1.250857	-0.682402	-1.458904
H62	H	1.245496	-0.778296	-1.361786
H63	H	1.155491	-0.675659	-1.348561
H64	H	1.403526	-0.638753	-1.326723
H65	H	1.313391	-0.536232	-1.313550
H66	H	1.696050	-0.380875	-1.139992
H67	H	1.071677	-0.282352	-0.426966
O68	O	0.895075	-0.262669	-0.421434
C69	C	0.963411	-0.086676	-0.446643
C70	C	0.989608	-0.195979	-0.430906
H71	H	1.039825	-0.032720	-0.454283
H72	H	0.913169	-0.091995	-0.521453
H73	H	0.917834	-0.054375	-0.375761
H74	H	1.035221	-0.228343	-0.501728
H75	H	1.039802	-0.190594	-0.356055
H76	H	1.564224	-1.070115	-0.460553
H77	H	1.690984	-0.388250	-0.967395
O78	O	1.594486	-0.267377	-1.136184
C79	C	1.551148	-0.094929	-1.077799
C80	C	1.577169	-0.198847	-1.045104
H81	H	1.537118	-0.039502	-1.004181
H82	H	1.620017	-0.058548	-1.123423
H83	H	1.476966	-0.109837	-1.130016
H84	H	1.651320	-0.184027	-0.992851
H85	H	1.508240	-0.235195	-0.999536
H86	H	1.522180	-0.898283	-0.502395
O87	O	1.374546	-1.116168	-0.649926
C88	C	1.293761	-1.284411	-0.730831
C89	C	1.375318	-1.224190	-0.649377
H90	H	1.294375	-1.371757	-0.730430
H91	H	1.211712	-1.263179	-0.709611
H92	H	1.314874	-1.262868	-0.812818
H93	H	1.354304	-1.245701	-0.567362
H94	H	1.457345	-1.245427	-0.670688
