data_functionalizedCrystal
_audit_creation_method	'MofGen! by Chris Wilmer'
_symmetry_space_group_name_H-M	'P1'
_symmetry_Int_Tables_number	1
_symmetry_cell_setting	triclinic
loop_
_symmetry_equiv_pos_as_xyz
  x,y,z
_cell_length_a	19.077105
_cell_length_b	18.101395
_cell_length_c	19.075868
_cell_angle_alpha	87.593339
_cell_angle_beta	85.264809
_cell_angle_gamma	87.727498
loop_
_atom_site_label
_atom_site_type_symbol
_atom_site_fract_x
_atom_site_fract_y
_atom_site_fract_z
Zn1	Zn	1.093925	-0.321803	-0.441940
Zn2	Zn	1.427258	0.011531	-0.108607
Zn3	Zn	1.760591	0.344864	0.224726
Zn4	Zn	1.089028	-0.450605	-0.324029
Zn5	Zn	1.422361	-0.117272	0.009304
Zn6	Zn	1.755695	0.216062	0.342637
Zn7	Zn	0.971239	-0.322001	-0.319312
Zn8	Zn	1.304573	0.011332	0.014021
Zn9	Zn	1.637906	0.344665	0.347355
Zn10	Zn	0.975988	-0.440822	-0.437171
Zn11	Zn	1.309321	-0.107489	-0.103837
Zn12	Zn	1.642655	0.225844	0.229496
O13	O	1.032545	-0.383808	-0.380613
O14	O	1.365878	-0.050474	-0.047280
O15	O	1.699212	0.282859	0.286054
O16	O	1.191927	-0.342900	-0.430269
O17	O	1.525260	-0.009566	-0.096936
O18	O	1.858594	0.323767	0.236397
O19	O	1.069367	-0.437723	-0.224733
O20	O	1.402700	-0.104390	0.108600
O21	O	1.736033	0.228944	0.441934
O22	O	0.987576	-0.218344	-0.335601
O23	O	1.320909	0.114990	-0.002268
O24	O	1.654242	0.448323	0.331066
O25	O	1.188330	-0.437530	-0.343641
O26	O	1.521663	-0.104197	-0.010307
O27	O	1.854996	0.229136	0.323026
O28	O	1.077712	-0.218198	-0.425695
O29	O	1.411045	0.115136	-0.092362
O30	O	1.744379	0.448469	0.240971
O31	O	0.982828	-0.343238	-0.221267
O32	O	1.316161	-0.009905	0.112066
O33	O	1.649494	0.323429	0.445399
O34	O	0.873217	-0.333752	-0.330976
O35	O	1.206551	-0.000419	0.002357
O36	O	1.539884	0.332915	0.335691
O37	O	0.995669	-0.420857	-0.536474
O38	O	1.329002	-0.087523	-0.203141
O39	O	1.662336	0.245810	0.130193
O40	O	0.876706	-0.421049	-0.417566
O41	O	1.210039	-0.087716	-0.084233
O42	O	1.543373	0.245617	0.249100
O43	O	1.082317	-0.333414	-0.539978
O44	O	1.415650	-0.000080	-0.206645
O45	O	1.748983	0.333253	0.126688
O46	O	1.073971	-0.552939	-0.339016
O47	O	1.407304	-0.219605	-0.005682
O48	O	1.740638	0.113728	0.327651
O49	O	0.990921	-0.545751	-0.422140
O50	O	1.324254	-0.212418	-0.088807
O51	O	1.657588	0.120916	0.244526
C52	C	0.849382	-0.376361	-0.373242
C53	C	1.182716	-0.043028	-0.039909
C54	C	1.516049	0.290306	0.293425
C55	C	0.771025	-0.373192	-0.370106
C56	C	1.104358	-0.039859	-0.036772
C57	C	1.437692	0.293474	0.296561
C58	C	1.032450	-0.576215	-0.380589
C59	C	1.365783	-0.242882	-0.047255
C60	C	1.699116	0.090451	0.286078
C61	C	1.032475	-0.658530	-0.380604
C62	C	1.365808	-0.325197	-0.047271
C63	C	1.699141	0.008137	0.286062
C64	C	0.736045	-0.417229	-0.413644
C65	C	1.069378	-0.083896	-0.080311
C66	C	1.402711	0.249437	0.253023
C67	C	0.662420	-0.414242	-0.410700
C68	C	0.995753	-0.080909	-0.077367
C69	C	1.329087	0.252425	0.255966
C70	C	0.623777	-0.367222	-0.364214
C71	C	0.957110	-0.033888	-0.030881
C72	C	1.290444	0.299445	0.302453
C73	C	0.658762	-0.323180	-0.320674
C74	C	0.992096	0.010153	0.012660
C75	C	1.325429	0.343487	0.345993
C76	C	0.732386	-0.326164	-0.323622
C77	C	1.065719	0.007170	0.009712
C78	C	1.399053	0.340503	0.343045
C79	C	0.403390	-0.353412	-0.350574
C80	C	0.736723	-0.020079	-0.017241
C81	C	1.070056	0.313254	0.316092
C82	C	0.329761	-0.350433	-0.347628
C83	C	0.663094	-0.017100	-0.014295
C84	C	0.996428	0.316233	0.319038
C85	C	0.333424	-0.441495	-0.437656
C86	C	0.666757	-0.108162	-0.104323
C87	C	1.000090	0.225172	0.229011
C88	C	0.407048	-0.444478	-0.440597
C89	C	0.740382	-0.111144	-0.107263
C90	C	1.073715	0.222189	0.226070
C91	C	0.442028	-0.400433	-0.397059
C92	C	0.775361	-0.067100	-0.063726
C93	C	1.108694	0.266233	0.269607
N94	N	0.548521	-0.364169	-0.361202
N95	N	0.881854	-0.030835	-0.027869
N96	N	1.215187	0.302498	0.305464
N97	N	0.517283	-0.403483	-0.400075
N98	N	0.850616	-0.070149	-0.066742
N99	N	1.183950	0.263184	0.266592
C100	C	1.032631	-0.957625	-0.380648
C101	C	1.365964	-0.624292	-0.047315
C102	C	1.699297	-0.290959	0.286018
C103	C	0.980510	-0.921808	-0.433089
C104	C	1.313843	-0.588475	-0.099755
C105	C	1.647176	-0.255142	0.233578
C106	C	0.980244	-0.836187	-0.432907
C107	C	1.313578	-0.502854	-0.099574
C108	C	1.646911	-0.169520	0.233759
C109	C	1.032553	-0.809241	-0.380627
C110	C	1.365887	-0.475907	-0.047294
C111	C	1.699220	-0.142574	0.286040
C112	C	1.009416	-0.842701	-0.305508
C113	C	1.342749	-0.509367	0.027825
C114	C	1.676083	-0.176034	0.361158
C115	C	1.009079	-0.928318	-0.305821
C116	C	1.342412	-0.594984	0.027512
C117	C	1.675746	-0.261651	0.360845
C118	C	1.107981	-0.928195	-0.402678
C119	C	1.441315	-0.594862	-0.069344
C120	C	1.774648	-0.261529	0.263989
C121	C	1.107609	-0.842458	-0.404290
C122	C	1.440942	-0.509125	-0.070957
C123	C	1.774276	-0.175791	0.262377
C124	C	1.032510	-0.725380	-0.380611
C125	C	1.365844	-0.392047	-0.047277
C126	C	1.699177	-0.058713	0.286056
C127	C	1.032672	-1.041486	-0.380660
C128	C	1.366005	-0.708153	-0.047327
C129	C	1.699338	-0.374819	0.286007
C130	C	1.216423	-0.391284	-0.388013
C131	C	1.549756	-0.057951	-0.054680
C132	C	1.883090	0.275383	0.278653
C133	C	1.294781	-0.394470	-0.391167
C134	C	1.628114	-0.061137	-0.057833
C135	C	1.961447	0.272197	0.275500
C136	C	1.040069	-0.376022	-0.564526
C137	C	1.373402	-0.042688	-0.231192
C138	C	1.706735	0.290645	0.102141
C139	C	1.043275	-0.372704	-0.642898
C140	C	1.376608	-0.039370	-0.309565
C141	C	1.709941	0.293963	0.023768
C142	C	1.032660	-0.190649	-0.380654
C143	C	1.365994	0.142684	-0.047321
C144	C	1.699327	0.476018	0.286013
C145	C	1.032709	-0.108336	-0.380671
C146	C	1.366043	0.224997	-0.047338
C147	C	1.699376	0.558330	0.285995
C148	C	1.025091	-0.391512	-0.197418
C149	C	1.358424	-0.058178	0.135916
C150	C	1.691758	0.275155	0.469249
C151	C	1.022022	-0.394627	-0.119051
C152	C	1.355355	-0.061293	0.214282
C153	C	1.688688	0.272040	0.547616
C154	C	1.065368	-0.350203	-0.084235
C155	C	1.398702	-0.016869	0.249098
C156	C	1.732035	0.316464	0.582432
C157	C	1.062485	-0.353140	-0.010601
C158	C	1.395818	-0.019807	0.322732
C159	C	1.729151	0.313527	0.656066
C160	C	1.016250	-0.400499	0.028215
C161	C	1.349584	-0.067165	0.361549
C162	C	1.682917	0.266168	0.694882
C163	C	0.972902	-0.444928	-0.006606
C164	C	1.306235	-0.111594	0.326727
C165	C	1.639568	0.221739	0.660061
C166	C	0.975789	-0.441993	-0.080238
C167	C	1.309123	-0.108660	0.253095
C168	C	1.642456	0.224673	0.586428
C169	C	1.002814	-0.414199	0.248648
C170	C	1.336147	-0.080865	0.581981
C171	C	1.669481	0.252468	0.915315
C172	C	0.999928	-0.417128	0.322286
C173	C	1.333261	-0.083795	0.655619
C174	C	1.666595	0.249539	0.988952
C175	C	1.089512	-0.325341	0.318285
C176	C	1.422846	0.007992	0.651619
C177	C	1.756179	0.341326	0.984952
C178	C	1.092393	-0.322408	0.244652
C179	C	1.425726	0.010926	0.577985
C180	C	1.759060	0.344259	0.911318
C181	C	1.049047	-0.366840	0.209837
C182	C	1.382381	-0.033506	0.543170
C183	C	1.715714	0.299827	0.876503
N184	N	1.013300	-0.403501	0.103481
N185	N	1.346633	-0.070167	0.436814
N186	N	1.679967	0.263166	0.770148
N187	N	1.052002	-0.363841	0.134572
N188	N	1.385335	-0.030508	0.467905
N189	N	1.718668	0.302826	0.801239
H190	H	0.767503	-0.455521	-0.451496
H191	H	1.100836	-0.122188	-0.118163
H192	H	1.434169	0.211146	0.215171
H193	H	0.760866	-0.290300	-0.288172
H194	H	1.094199	0.043033	0.045162
H195	H	1.427533	0.376367	0.378495
H196	H	0.995070	-0.813317	-0.488514
H197	H	1.328404	-0.479983	-0.155180
H198	H	1.661737	-0.146650	0.178153
H199	H	1.097784	-0.316967	0.017743
H200	H	1.431118	0.016366	0.351076
H201	H	1.764451	0.349699	0.684409
H202	H	1.125002	-0.820411	-0.459588
H203	H	1.458335	-0.487077	-0.126254
H204	H	1.791669	-0.153744	0.207079
H205	H	0.304936	-0.477352	-0.473103
H206	H	0.638269	-0.144019	-0.139770
H207	H	0.971602	0.189314	0.193564
H208	H	0.995218	-0.940537	-0.488868
H209	H	1.328551	-0.607204	-0.155535
H210	H	1.661885	-0.273870	0.177798
H211	H	0.962261	-0.455678	0.353889
H212	H	1.295594	-0.122345	0.687222
H213	H	1.628927	0.210989	1.020556
H214	H	0.954811	-0.819817	-0.286929
H215	H	1.288144	-0.486484	0.046404
H216	H	1.621478	-0.153150	0.379738
H217	H	1.124803	-0.289168	0.346640
H218	H	1.458136	0.044166	0.679973
H219	H	1.791469	0.377499	1.013306
H220	H	0.967518	-0.450377	0.220311
H221	H	1.300851	-0.117044	0.553644
H222	H	1.634184	0.216289	0.886977
H223	H	1.148739	-0.824326	-0.369117
H224	H	1.482072	-0.490993	-0.035784
H225	H	1.815406	-0.157660	0.297549
H226	H	0.953908	-0.946826	-0.287508
H227	H	1.287242	-0.613493	0.045826
H228	H	1.620575	-0.280160	0.379159
H229	H	0.935260	-0.483491	0.025004
H230	H	1.268593	-0.150158	0.358338
H231	H	1.601926	0.183175	0.691671
H232	H	0.940492	-0.478169	-0.108585
H233	H	1.273826	-0.144836	0.224749
H234	H	1.607159	0.188498	0.558082
H235	H	1.130045	-0.283847	0.213052
H236	H	1.463379	0.049487	0.546385
H237	H	1.796712	0.382820	0.879719
H238	H	1.103013	-0.311633	-0.115834
H239	H	1.436347	0.021700	0.217499
H240	H	1.769680	0.355033	0.550833
H241	H	1.128486	-0.948248	-0.456678
H242	H	1.461820	-0.614914	-0.123345
H243	H	1.795153	-0.281581	0.209989
H244	H	0.431861	-0.317554	-0.315118
H245	H	0.765194	0.015779	0.018216
H246	H	1.098527	0.349113	0.351549
H247	H	0.438507	-0.482769	-0.478449
H248	H	0.771840	-0.149435	-0.145116
H249	H	1.105174	0.183898	0.188217
H250	H	1.146850	-0.951761	-0.364520
H251	H	1.480184	-0.618428	-0.031187
H252	H	1.813517	-0.285095	0.302147
H253	H	0.627293	-0.284891	-0.282827
H254	H	0.960627	0.048442	0.050507
H255	H	1.293960	0.381775	0.383840
H256	H	0.633942	-0.450102	-0.446153
H257	H	0.967276	-0.116769	-0.112820
H258	H	1.300609	0.216564	0.220513
H259	H	1.046051	-0.825644	-0.265240
H260	H	1.379384	-0.492311	0.068093
H261	H	1.712718	-0.158977	0.401426
H262	H	0.298300	-0.312135	-0.309778
H263	H	0.631633	0.021198	0.023556
H264	H	0.964966	0.354532	0.356889
H265	H	0.924454	-0.814051	-0.418079
H266	H	1.257787	-0.480717	-0.084746
H267	H	1.591121	-0.147384	0.248587
H268	H	0.925062	-0.941689	-0.418433
H269	H	1.258395	-0.608355	-0.085099
H270	H	1.591728	-0.275022	0.248234
H271	H	1.045231	-0.952342	-0.265256
H272	H	1.378565	-0.619008	0.068077
H273	H	1.711898	-0.285675	0.401411
