data_functionalizedCrystal
_audit_creation_method	'MofGen! by Chris Wilmer'
_symmetry_space_group_name_H-M	'P1'
_symmetry_Int_Tables_number	1
_symmetry_cell_setting	triclinic
loop_
_symmetry_equiv_pos_as_xyz
  x,y,z
_cell_length_a	19.188929
_cell_length_b	17.019282
_cell_length_c	15.500346
_cell_angle_alpha	89.308724
_cell_angle_beta	86.799823
_cell_angle_gamma	96.731347
loop_
_atom_site_label
_atom_site_type_symbol
_atom_site_fract_x
_atom_site_fract_y
_atom_site_fract_z
O1	O	-0.088663	1.046103	-0.005978
O2	O	0.411337	1.546103	0.494022
O3	O	-0.100699	0.817172	0.011091
O4	O	0.399301	1.317172	0.511091
O5	O	0.006986	0.938242	0.002010
O6	O	0.506986	1.438242	0.502010
O7	O	-0.196347	0.925034	0.003102
O8	O	0.303653	1.425034	0.503102
O9	O	0.012726	0.931730	-0.141393
O10	O	0.512726	1.431730	0.358607
O11	O	-0.094959	0.810660	-0.132313
O12	O	0.405041	1.310660	0.367687
O13	O	-0.082922	1.039591	-0.149382
O14	O	0.417078	1.539591	0.350618
Cu15	Cu	-0.088416	0.924531	-0.153942
Cu16	Cu	0.411584	1.424531	0.346058
Cu17	Cu	-0.095205	0.932232	0.015650
Cu18	Cu	0.404795	1.432232	0.515650
O19	O	-0.190607	0.918522	-0.140302
O20	O	0.309393	1.418522	0.359698
C21	C	-0.097488	0.784628	-0.058428
C22	C	0.402512	1.284628	0.441572
C23	C	-0.096462	0.697357	-0.051924
C24	C	0.403538	1.197357	0.448076
C25	C	-0.092849	0.652812	-0.127040
C26	C	0.407151	1.152812	0.372960
C27	C	-0.091874	0.570813	-0.120931
C28	C	0.408126	1.070813	0.379069
C29	C	-0.094517	0.533360	-0.039706
C30	C	0.405483	1.033360	0.460294
C31	C	-0.098128	0.577911	0.035416
C32	C	0.401872	1.077911	0.535416
C33	C	-0.099098	0.659909	0.029306
C34	C	0.400902	1.159909	0.529306
C35	C	-0.091741	0.285957	-0.017348
C36	C	0.408259	0.785957	0.482652
C37	C	-0.090773	0.203952	-0.011244
C38	C	0.409227	0.703952	0.488756
C39	C	-0.084518	0.196860	-0.167591
C40	C	0.415482	0.696860	0.332409
C41	C	-0.085492	0.278859	-0.173694
C42	C	0.414508	0.778859	0.326306
C43	C	-0.089099	0.323404	-0.098573
C44	C	0.410901	0.823404	0.401427
C45	C	-0.093523	0.449543	-0.033460
C46	C	0.406477	0.949543	0.466540
C47	C	-0.090088	0.407219	-0.104820
C48	C	0.409912	0.907219	0.395180
C49	C	-0.219488	0.922206	-0.068618
C50	C	0.280512	1.422206	0.431382
C51	C	-0.296993	0.923492	-0.068673
C52	C	0.203007	1.423492	0.431327
C53	C	-0.342010	0.852451	-0.063393
C54	C	0.157990	1.352451	0.436607
C55	C	-0.414831	0.853657	-0.063503
C56	C	0.085169	1.353657	0.436497
C57	C	-0.442632	0.925907	-0.068909
C58	C	0.057368	1.425907	0.431091
C59	C	-0.397605	0.996959	-0.074184
C60	C	0.102395	1.496959	0.425816
C61	C	-0.324786	0.995751	-0.074066
C62	C	0.175214	1.495751	0.425934
N63	N	-0.548571	0.978916	-0.121885
N64	N	-0.048571	1.478916	0.378115
N65	N	-0.617747	0.980058	-0.121999
N66	N	-0.117747	1.480058	0.378001
C67	C	-0.662032	0.929550	-0.069264
C68	C	-0.162032	1.429550	0.430736
N69	N	-0.634529	0.877844	-0.016421
N70	N	-0.134529	1.377844	0.483579
N71	N	-0.565346	0.876699	-0.016311
N72	N	-0.065346	1.376699	0.483689
C73	C	-0.521591	0.927225	-0.069037
C74	C	-0.021591	1.427225	0.430963
C75	C	-0.786011	0.859811	-0.064102
C76	C	-0.286011	1.359811	0.435898
C77	C	-0.858834	0.861020	-0.064206
C78	C	-0.358834	1.361020	0.435794
C79	C	-0.841605	1.004324	-0.074896
C80	C	-0.341605	1.504324	0.425104
C81	C	-0.768785	1.003113	-0.074783
C82	C	-0.268785	1.503113	0.425217
C83	C	-0.740992	0.930854	-0.069390
C84	C	-0.240992	1.430854	0.430610
C85	C	0.035867	0.934557	-0.069671
C86	C	0.535867	1.434557	0.430329
C87	C	0.113371	0.933271	-0.069611
C88	C	0.613371	1.433271	0.430389
C89	C	-0.086134	1.072136	-0.079861
C90	C	0.413866	1.572136	0.420139
C91	C	-0.087160	1.159407	-0.086360
C92	C	0.412840	1.659407	0.413640
N93	N	-0.083641	0.919120	-0.273224
N94	N	0.416359	1.419120	0.226776
C95	C	-0.059614	0.892162	-0.816405
C96	C	0.440386	1.392162	-0.316405
C97	C	-0.063252	0.896249	-0.726137
C98	C	0.436748	1.396249	-0.226137
C99	C	-0.107256	0.945820	-0.684532
C100	C	0.392744	1.445820	-0.184532
C101	C	-0.147618	0.991312	-0.733202
C102	C	0.352382	1.491312	-0.233202
C103	C	-0.143976	0.987229	-0.823469
C104	C	0.356024	1.487229	-0.323469
C105	C	-0.120361	0.960530	-0.412161
C106	C	0.379639	1.460530	0.087839
C107	C	-0.124002	0.964608	-0.321887
C108	C	0.375998	1.464608	0.178113
C109	C	-0.039635	0.869545	-0.314827
C110	C	0.460365	1.369545	0.185173
C111	C	-0.035999	0.865462	-0.405096
C112	C	0.464001	1.365462	0.094904
C113	C	-0.076359	0.910958	-0.453758
C114	C	0.423641	1.410958	0.046242
C115	C	-0.110978	0.949996	-0.592263
C116	C	0.389022	1.449996	-0.092263
C117	C	-0.072633	0.906785	-0.546026
C118	C	0.427367	1.406785	-0.046026
N119	N	-0.099975	0.937649	0.134932
N120	N	0.400025	1.437649	0.634932
H121	H	-0.087933	0.437717	-0.170953
H122	H	0.412067	0.937717	0.329047
H123	H	-0.083337	0.309348	-0.239836
H124	H	0.416663	0.809348	0.260164
H125	H	-0.319386	0.793612	-0.058994
H126	H	0.180614	1.293612	0.441006
H127	H	-0.732130	1.060963	-0.079088
H128	H	-0.232130	1.560963	0.420912
O129	O	-0.095635	0.333996	0.063672
O130	O	0.404365	0.833996	0.563672
H131	H	-0.144541	0.312789	0.102884
H132	H	0.355459	0.812789	0.602884
O133	O	-0.907386	0.784387	-0.058514
O134	O	-0.407386	1.284387	0.441486
H135	H	-0.943344	0.784152	0.000143
H136	H	-0.443344	1.284152	0.500143
O137	O	-0.100981	0.537521	0.123027
O138	O	0.399019	1.037521	0.623027
H139	H	-0.099709	0.473017	0.114658
H140	H	0.400291	0.973017	0.614658
H141	H	-0.102041	0.696177	0.090474
H142	H	0.397959	1.196177	0.590474
H143	H	-0.006776	0.832506	-0.275197
H144	H	0.493224	1.332506	0.224803
H145	H	-0.183444	1.031678	-0.699321
H146	H	0.316556	1.531678	-0.199321
H147	H	-0.451491	0.795804	-0.059205
H148	H	0.048509	1.295804	0.440795
O149	O	-0.427583	1.074889	-0.080018
O150	O	0.072417	1.574889	0.419982
H151	H	-0.485782	1.063794	-0.079223
H152	H	0.014218	1.563794	0.420777
O153	O	-0.276223	1.072377	-0.079774
O154	O	0.223777	1.572377	0.420226
H155	H	-0.307785	1.122822	-0.083558
H156	H	0.192215	1.622822	0.416442
O157	O	-0.756026	0.781881	-0.058270
O158	O	-0.256026	1.281881	0.441730
H159	H	-0.799568	0.732682	-0.054602
H160	H	-0.299568	1.232682	0.445398
O161	O	-0.012139	0.838711	-0.861279
O162	O	0.487861	1.338711	-0.361279
H163	H	0.015325	0.807780	-0.812272
H164	H	0.515325	1.307780	-0.312272
H165	H	-0.095674	0.419040	0.032675
H166	H	0.404326	0.919040	0.532675
H167	H	-0.092927	0.173461	0.054903
H168	H	0.407073	0.673461	0.554903
O169	O	-0.019726	0.847182	-0.673646
O170	O	0.480274	1.347182	-0.173646
H171	H	0.011476	0.812017	-0.717740
H172	H	0.511476	1.312017	-0.217740
H173	H	-0.864242	1.063154	-0.079236
H174	H	-0.364242	1.563154	0.420764
H175	H	-0.000166	0.825098	-0.438964
H176	H	0.499834	1.325098	0.061036
H177	H	-0.159840	1.004973	-0.288015
H178	H	0.340160	1.504973	0.211985
H179	H	-0.146806	0.990356	-0.558379
H180	H	0.353194	1.490356	-0.058379
H181	H	-0.081580	0.160583	-0.228751
H182	H	0.418420	0.660583	0.271249
H183	H	-0.153226	0.997576	-0.451771
H184	H	0.346774	1.497576	0.048229
O185	O	-0.187510	1.036286	-0.875963
O186	O	0.312490	1.536286	-0.375963
H187	H	-0.218726	1.071436	-0.831869
H188	H	0.281274	1.571436	-0.331869
H189	H	-0.036803	0.866428	-0.579904
H190	H	0.463197	1.366428	-0.079904
H191	H	-0.090703	0.683299	-0.193183
H192	H	0.409297	1.183299	0.306817
H193	H	-0.088921	0.534549	-0.182099
H194	H	0.411079	1.034549	0.317901
