data_functionalizedCrystal
_audit_creation_method	'MofGen! by Chris Wilmer'
_symmetry_space_group_name_H-M	'P1'
_symmetry_Int_Tables_number	1
_symmetry_cell_setting	triclinic
loop_
_symmetry_equiv_pos_as_xyz
  x,y,z
_cell_length_a	21.295417
_cell_length_b	21.295418
_cell_length_c	12.759393
_cell_angle_alpha	89.955003
_cell_angle_beta	90.039170
_cell_angle_gamma	89.951286
loop_
_atom_site_label
_atom_site_type_symbol
_atom_site_fract_x
_atom_site_fract_y
_atom_site_fract_z
Zn1	Zn	-0.250266	-0.962338	0.594669
Zn2	Zn	-0.355550	-0.962246	0.418966
Zn3	Zn	-0.250332	-0.857067	0.418927
Zn4	Zn	-0.355535	-0.857031	0.594526
O5	O	-0.302921	-0.909670	0.506772
O6	O	-0.264211	-1.050415	0.571438
O7	O	-0.341627	-0.948270	0.271939
O8	O	-0.162234	-0.871085	0.442283
O9	O	-0.341563	-1.050347	0.442349
O10	O	-0.162185	-0.948427	0.571400
O11	O	-0.264324	-0.870995	0.271911
O12	O	-0.264309	-0.768972	0.442145
O13	O	-0.341537	-0.871024	0.741566
O14	O	-0.341601	-0.768946	0.571156
O15	O	-0.264196	-0.948393	0.741671
O16	O	-0.443637	-0.948235	0.442210
O17	O	-0.443626	-0.870934	0.571194
C18	C	-0.302961	-0.746119	0.506631
C19	C	-0.302993	-0.676151	0.506596
C20	C	-0.466472	-0.909588	0.506714
C21	C	-0.536441	-0.909610	0.506724
C22	C	-0.343294	-0.643287	0.573668
C23	C	-0.343281	-0.577544	0.573707
C24	C	-0.302974	-0.544668	0.506656
C25	C	-0.262666	-0.577540	0.439579
C26	C	-0.262675	-0.643281	0.439549
N27	N	-0.298068	-0.441395	0.414752
N28	N	-0.298063	-0.378943	0.414784
C29	C	-0.302942	-0.346593	0.506744
N30	N	-0.307839	-0.379054	0.598673
N31	N	-0.307848	-0.441511	0.598640
C32	C	-0.302959	-0.473383	0.506681
C33	C	-0.343231	-0.242444	0.573864
C34	C	-0.343214	-0.176700	0.573905
C35	C	-0.262602	-0.176697	0.439767
C36	C	-0.262616	-0.242440	0.439736
C37	C	-0.302934	-0.275309	0.506783
C38	C	-0.569292	-0.949897	0.439631
C39	C	-0.635035	-0.949926	0.439655
C40	C	-0.667923	-0.909658	0.506760
C41	C	-0.635063	-0.869369	0.573866
C42	C	-0.569322	-0.869345	0.573848
N43	N	-0.771206	-0.854591	0.514722
N44	N	-0.833657	-0.854615	0.514733
C45	C	-0.865998	-0.909728	0.506821
N46	N	-0.833528	-0.964818	0.498876
N47	N	-0.771070	-0.964792	0.498859
C48	C	-0.739208	-0.909680	0.506788
C49	C	-0.970135	-0.950050	0.439750
C50	C	-1.035878	-0.950081	0.439781
C51	C	-1.035906	-0.869518	0.573987
C52	C	-0.970164	-0.869493	0.573961
C53	C	-0.937282	-0.909758	0.506837
C54	C	-0.138730	-0.909770	0.506853
C55	C	-0.068762	-0.909813	0.506888
C56	C	-0.302857	-0.909714	0.780805
C57	C	-0.302830	-0.909733	0.897582
C58	C	-0.302892	-0.073861	0.506884
C59	C	-0.302906	-0.143829	0.506854
C60	C	-0.302939	-0.909663	0.233805
C61	C	-0.302788	-0.909766	0.117029
C62	C	-0.262555	-0.950025	0.952501
C63	C	-0.262532	-0.950040	1.062225
C64	C	-0.343065	-0.869470	1.062102
C65	C	-0.343084	-0.869452	0.952380
C66	C	-0.222301	-0.990306	0.897703
C67	C	-0.182023	-1.030601	0.952621
C68	C	-0.182000	-1.030616	1.062345
C69	C	-0.222256	-0.990336	1.117151
H70	H	-0.376123	-0.670045	0.628265
O71	O	-0.386697	-0.277910	0.646192
H72	H	-0.436092	-0.265235	0.628051
O73	O	-0.386773	-0.542085	0.646011
H74	H	-0.414820	-0.575986	0.692609
O75	O	-0.222224	-0.990351	1.235498
H76	H	-0.209500	-0.942885	1.264388
H77	H	-0.661845	-0.836583	0.628506
H78	H	-0.661788	-0.982734	0.385020
H79	H	-0.375870	-0.836634	0.907665
O80	O	-0.533832	-0.993333	0.367243
H81	H	-0.503944	-0.965167	0.313712
H82	H	-0.229802	-0.269198	0.385113
O83	O	-0.533883	-0.825880	0.646195
H84	H	-0.567794	-0.797878	0.692856
O85	O	-0.386483	-0.826031	1.121213
H86	H	-0.375697	-0.776630	1.100126
H87	H	-0.943361	-0.982839	0.385097
H88	H	-0.376030	-0.149944	0.628530
O89	O	-0.219204	-0.542087	0.367234
H90	H	-0.225977	-0.490851	0.378506
H91	H	-0.149245	-1.063392	0.907991
O92	O	-1.071317	-0.993533	0.367412
H93	H	-1.037404	-1.021521	0.320729
H94	H	-1.062683	-0.836733	0.628630
H95	H	-0.229781	-0.149930	0.385178
H96	H	-0.943414	-0.836685	0.628590
O97	O	-0.222331	-0.990287	0.779358
H98	H	-0.174862	-0.977589	0.750435
O99	O	-0.219218	-0.678734	0.367185
H100	H	-0.191192	-0.644831	0.320556
O101	O	-0.138561	-1.074074	1.121585
H102	H	-0.110579	-1.102082	1.065043
