data_functionalizedCrystal
_audit_creation_method	'MofGen! by Chris Wilmer'
_symmetry_space_group_name_H-M	'P1'
_symmetry_Int_Tables_number	1
_symmetry_cell_setting	triclinic
loop_
_symmetry_equiv_pos_as_xyz
  x,y,z
_cell_length_a	21.395362
_cell_length_b	18.215405
_cell_length_c	18.215399
_cell_angle_alpha	89.969449
_cell_angle_beta	89.960921
_cell_angle_gamma	90.040762
loop_
_atom_site_label
_atom_site_type_symbol
_atom_site_fract_x
_atom_site_fract_y
_atom_site_fract_z
Zn1	Zn	0.957855	-0.292680	-0.416481
Zn2	Zn	1.457855	0.207320	0.083519
Zn3	Zn	0.957777	-0.415751	-0.293409
Zn4	Zn	1.457777	0.084249	0.206591
Zn5	Zn	0.853079	-0.292737	-0.293387
Zn6	Zn	1.353079	0.207263	0.206613
Zn7	Zn	0.853050	-0.415743	-0.416392
Zn8	Zn	1.353050	0.084257	0.083608
O9	O	0.905440	-0.354228	-0.354917
O10	O	1.405440	0.145772	0.145083
O11	O	1.045522	-0.308985	-0.400201
O12	O	1.545522	0.191015	0.099799
O13	O	0.943868	-0.399460	-0.190421
O14	O	1.443868	0.100540	0.309579
O15	O	0.867022	-0.189745	-0.309743
O16	O	1.367022	0.310255	0.190257
O17	O	1.045465	-0.399405	-0.309781
O18	O	1.545465	0.100595	0.190219
O19	O	0.944001	-0.189703	-0.400180
O20	O	1.444001	0.310297	0.099820
O21	O	0.866947	-0.309082	-0.190405
O22	O	1.366947	0.190918	0.309595
O23	O	0.765397	-0.309075	-0.309657
O24	O	1.265397	0.190925	0.190343
O25	O	0.866973	-0.399391	-0.519388
O26	O	1.366973	0.100609	-0.019388
O27	O	0.765376	-0.399447	-0.400029
O28	O	1.265376	0.100553	0.099971
O29	O	0.943973	-0.308977	-0.519453
O30	O	1.443973	0.191023	-0.019453
O31	O	0.943840	-0.518734	-0.309695
O32	O	1.443840	-0.018734	0.190305
O33	O	0.866897	-0.518729	-0.400051
O34	O	1.366897	-0.018729	0.099949
C35	C	0.742652	-0.354267	-0.354832
C36	C	1.242652	0.145733	0.145168
C37	C	0.673011	-0.354301	-0.354813
C38	C	1.173011	0.145699	0.145187
C39	C	0.640303	-0.401420	-0.401799
C40	C	1.140303	0.098580	0.098201
C41	C	0.574868	-0.401402	-0.401832
C42	C	1.074868	0.098598	0.098168
C43	C	0.542143	-0.354273	-0.354865
C44	C	1.042143	0.145727	0.145135
C45	C	0.574858	-0.307145	-0.307876
C46	C	1.074858	0.192855	0.192124
C47	C	0.640293	-0.307159	-0.307850
C48	C	1.140293	0.192841	0.192150
C49	C	0.438422	-0.348357	-0.288613
C50	C	0.938422	0.151643	0.211387
C51	C	0.372989	-0.348348	-0.288638
C52	C	0.872989	0.151652	0.211362
C53	C	0.340322	-0.354225	-0.354946
C54	C	0.840322	0.145775	0.145054
C55	C	0.373096	-0.360127	-0.421232
C56	C	0.873096	0.139873	0.078768
C57	C	0.438530	-0.360141	-0.421206
C58	C	0.938530	0.139859	0.078794
C59	C	0.471190	-0.354252	-0.354889
C60	C	0.971190	0.145748	0.145111
C61	C	0.236662	-0.401327	-0.401972
C62	C	0.736662	0.098673	0.098028
C63	C	0.171225	-0.401304	-0.402006
C64	C	0.671225	0.098696	0.097994
C65	C	0.171217	-0.307050	-0.308044
C66	C	0.671217	0.192950	0.191956
C67	C	0.236652	-0.307069	-0.308016
C68	C	0.736652	0.192931	0.191984
C69	C	0.269371	-0.354212	-0.354979
C70	C	0.769371	0.145788	0.145021
C71	C	0.905374	-0.545434	-0.354882
C72	C	1.405374	-0.045434	0.145118
C73	C	0.905403	-0.627233	-0.354891
C74	C	1.405403	-0.127233	0.145109
C75	C	0.945561	-0.815405	-0.307930
C76	C	1.445561	-0.315405	0.192070
C77	C	0.945589	-0.892264	-0.307948
C78	C	1.445589	-0.392264	0.192052
C79	C	0.865399	-0.892298	-0.401957
C80	C	1.365399	-0.392298	0.098043
C81	C	0.865375	-0.815441	-0.401943
C82	C	1.365375	-0.315441	0.098057
C83	C	0.905455	-0.776996	-0.354925
C84	C	1.405455	-0.276996	0.145075
C85	C	0.905507	-0.930713	-0.354957
C86	C	1.405507	-0.430713	0.145043
C87	C	0.905537	-1.014046	-0.354977
C88	C	1.405537	-0.514046	0.145023
C89	C	0.905426	-0.693658	-0.354906
C90	C	1.405426	-0.193658	0.145094
C91	C	1.068863	-0.354189	-0.355003
C92	C	1.568863	0.145811	0.144997
C93	C	1.138505	-0.354173	-0.355040
C94	C	1.638505	0.145827	0.144960
C95	C	0.905478	-0.354177	-0.546870
C96	C	1.405478	0.145823	-0.046870
C97	C	0.905494	-0.354155	-0.628669
C98	C	1.405494	0.145845	-0.128669
C99	C	0.905523	-0.162275	-0.354969
C100	C	1.405523	0.337725	0.145031
C101	C	0.905559	-0.080476	-0.354991
C102	C	1.405559	0.419524	0.145009
C103	C	0.945603	-0.307033	-0.816898
C104	C	1.445603	0.192967	-0.316898
C105	C	0.945610	-0.307011	-0.893757
C106	C	1.445610	0.192989	-0.393757
C107	C	0.865430	-0.401164	-0.893678
C108	C	1.365430	0.098836	-0.393678
C109	C	0.865420	-0.401182	-0.816821
C110	C	1.365420	0.098818	-0.316821
C111	C	0.905510	-0.354117	-0.778433
C112	C	1.405510	0.145883	-0.278433
C113	C	0.905528	-0.354078	-0.932149
C114	C	1.405528	0.145922	-0.432149
C115	C	0.905535	-0.354055	-1.015483
C116	C	1.405535	0.145945	-0.515483
C117	C	0.905501	-0.354139	-0.695094
C118	C	1.405501	0.145861	-0.195094
C119	C	0.905438	-0.354225	-0.163711
C120	C	1.405438	0.145775	0.336289
C121	C	0.905543	-0.354040	-0.081912
C122	C	1.405543	0.145960	0.418088
H123	H	0.666938	-0.439806	-0.440041
H124	H	1.166938	0.060194	0.059959
H125	H	0.978248	-0.923533	-0.269680
H126	H	1.478248	-0.423533	0.230320
C127	C	0.538882	-0.453241	-0.453520
C128	C	1.038882	0.046759	0.046480
N129	N	0.511779	-0.492288	-0.492450
N130	N	1.011779	0.007712	0.007550
H131	H	0.832767	-0.923609	-0.440237
H132	H	1.332767	-0.423609	0.059763
C133	C	0.135223	-0.255206	-0.256380
C134	C	0.635223	0.244794	0.243620
N135	N	0.108110	-0.216155	-0.217467
N136	N	0.608110	0.283845	0.282533
C137	C	0.989653	-0.773119	-0.256213
C138	C	1.489653	-0.273119	0.243787
N139	N	1.022867	-0.741272	-0.217259
N140	N	1.522867	-0.241272	0.282741
C141	C	0.821265	-0.773188	-0.453659
C142	C	1.321265	-0.273188	0.046341
N143	N	0.788049	-0.741364	-0.492616
N144	N	1.288049	-0.241364	0.007384
C145	C	0.989697	-0.255254	-0.774674
C146	C	1.489697	0.244746	-0.274674
N147	N	1.022908	-0.216250	-0.742873
N148	N	1.522908	0.283750	-0.242873
C149	C	0.989717	-0.255217	-0.936065
C150	C	1.489717	0.244783	-0.436065
N151	N	1.022940	-0.216203	-0.967932
N152	N	1.522940	0.283797	-0.467932
H153	H	0.832792	-0.439484	-0.924943
H154	H	1.332792	0.060516	-0.424943
H155	H	0.666923	-0.268786	-0.269588
H156	H	1.166923	0.231214	0.230412
H157	H	0.346500	-0.364911	-0.475227
H158	H	0.846500	0.135089	0.024773
H159	H	0.832767	-0.439522	-0.785501
H160	H	1.332767	0.060478	-0.285501
H161	H	0.263283	-0.268703	-0.269751
H162	H	0.763283	0.231297	0.230249
H163	H	0.465212	-0.364944	-0.475177
H164	H	0.965212	0.135056	0.024823
H165	H	0.144595	-0.439672	-0.440272
H166	H	0.644595	0.060328	0.059728
C167	C	0.272654	-0.453176	-0.453640
C168	C	0.772654	0.046824	0.046360
N169	N	0.299762	-0.492227	-0.492559
N170	N	0.799762	0.007773	0.007441
H171	H	0.465015	-0.343567	-0.234613
H172	H	0.965015	0.156433	0.265387
C173	C	0.336945	-0.341850	-0.215724
C174	C	0.836945	0.158150	0.284276
N175	N	0.309797	-0.336953	-0.160803
N176	N	0.809797	0.163047	0.339197
H177	H	0.548210	-0.268770	-0.269637
H178	H	1.048210	0.231230	0.230363
