data_functionalizedCrystal
_audit_creation_method	'MofGen! by Chris Wilmer'
_symmetry_space_group_name_H-M	'P1'
_symmetry_Int_Tables_number	1
_symmetry_cell_setting	triclinic
loop_
_symmetry_equiv_pos_as_xyz
  x,y,z
_cell_length_a	14.519731
_cell_length_b	15.995292
_cell_length_c	13.596369
_cell_angle_alpha	89.997200
_cell_angle_beta	90.006024
_cell_angle_gamma	83.578735
loop_
_atom_site_label
_atom_site_type_symbol
_atom_site_fract_x
_atom_site_fract_y
_atom_site_fract_z
O1	O	1.223633	0.109841	0.081786
O2	O	0.955133	0.122748	0.081787
O3	O	1.096751	-0.005585	0.081788
O4	O	1.082015	0.238174	0.081785
O5	O	1.096733	-0.005578	-0.081795
O6	O	0.955115	0.122755	-0.081796
O7	O	1.223616	0.109848	-0.081797
Zn8	Zn	1.089363	0.116303	-0.107769
Zn9	Zn	1.089386	0.116293	0.107759
O10	O	1.081998	0.238181	-0.081798
C11	C	0.920766	0.122147	-0.000004
C12	C	0.818389	0.120335	-0.000004
C13	C	0.735248	0.118862	0.000000
C14	C	0.630943	0.117022	0.000001
C15	C	0.547807	0.115562	0.000001
C16	C	0.443495	0.113722	0.000003
C17	C	1.096142	-0.036778	-0.000001
C18	C	1.094344	-0.129734	0.000007
C19	C	1.087734	-0.467482	-0.000002
C20	C	1.189950	-0.444010	-0.000368
C21	C	1.191893	-0.347331	0.000004
C22	C	1.091014	-0.299921	0.000001
C23	C	1.039921	-0.329107	0.093412
C24	C	1.038690	-0.425899	0.093487
C25	C	1.036583	-0.425751	-0.092537
C26	C	1.040371	-0.329253	-0.093768
C27	C	1.092862	-0.205222	0.000007
C28	C	1.085883	-0.562181	-0.000001
C29	C	1.257983	0.110449	-0.000003
C30	C	1.360359	0.112261	0.000003
C31	C	1.082606	0.269374	-0.000007
C32	C	1.084404	0.362330	-0.000008
N33	N	1.089354	0.116309	-0.254860
C34	C	1.089358	0.116310	-0.343858
C35	C	1.089367	0.116305	-0.455510
C36	C	1.089379	0.116295	-0.544500
C37	C	1.089390	0.116290	-0.656159
N38	N	1.089402	0.116281	0.254851
H39	H	1.231908	-0.328241	-0.066955
C40	C	1.243172	-0.481751	-0.090864
N41	N	1.283260	-0.510184	-0.159029
H42	H	1.229137	-0.472969	0.066245
H43	H	0.961344	-0.439860	-0.093169
C44	C	0.939637	-0.286206	0.098110
N45	N	0.864104	-0.253891	0.101648
C46	C	1.246286	-0.322382	0.090627
N47	N	1.287255	-0.303591	0.158889
C48	C	1.087878	-0.301944	0.187330
N49	N	1.124005	-0.281489	0.258066
H50	H	1.068766	-0.453786	-0.163343
H51	H	1.074090	-0.452663	0.163315
C52	C	0.937446	-0.445717	0.099231
N53	N	0.861190	-0.460641	0.103567
C54	C	1.090609	-0.304060	-0.187129
N55	N	1.128443	-0.285071	-0.257447
C56	C	0.940894	-0.284872	-0.101391
N57	N	0.865963	-0.251445	-0.107125
