data_functionalizedCrystal
_audit_creation_method	'MofGen! by Chris Wilmer'
_symmetry_space_group_name_H-M	'P1'
_symmetry_Int_Tables_number	1
_symmetry_cell_setting	triclinic
loop_
_symmetry_equiv_pos_as_xyz
  x,y,z
_cell_length_a	19.077105
_cell_length_b	17.640280
_cell_length_c	19.076919
_cell_angle_alpha	98.508881
_cell_angle_beta	89.923776
_cell_angle_gamma	76.093206
loop_
_atom_site_label
_atom_site_type_symbol
_atom_site_fract_x
_atom_site_fract_y
_atom_site_fract_z
Zn1	Zn	1.129876	-0.382634	0.374495
Zn2	Zn	1.463209	-0.049300	0.707828
Zn3	Zn	1.796542	0.284033	1.041162
Zn4	Zn	1.158314	-0.509803	0.235079
Zn5	Zn	1.491647	-0.176470	0.568412
Zn6	Zn	1.824981	0.156863	0.901745
Zn7	Zn	1.015111	-0.372039	0.254114
Zn8	Zn	1.348444	-0.038705	0.587447
Zn9	Zn	1.681777	0.294628	0.920780
Zn10	Zn	1.036046	-0.509326	0.347913
Zn11	Zn	1.369380	-0.175993	0.681247
Zn12	Zn	1.702713	0.157340	1.014580
O13	O	1.084837	-0.443450	0.302900
O14	O	1.418170	-0.110117	0.636234
O15	O	1.751503	0.223216	0.969567
O16	O	1.232847	-0.404137	0.359159
O17	O	1.566180	-0.070804	0.692493
O18	O	1.899514	0.262530	1.025826
O19	O	1.142458	-0.487294	0.140002
O20	O	1.475791	-0.153961	0.473335
O21	O	1.809124	0.179373	0.806669
O22	O	1.009672	-0.262768	0.289173
O23	O	1.343005	0.070566	0.622507
O24	O	1.676338	0.403899	0.955840
O25	O	1.253740	-0.497568	0.256731
O26	O	1.587074	-0.164234	0.590064
O27	O	1.920407	0.169099	0.923397
O28	O	1.093989	-0.270552	0.377617
O29	O	1.427322	0.062781	0.710950
O30	O	1.760655	0.396115	1.044284
O31	O	1.037247	-0.386079	0.153987
O32	O	1.370580	-0.052745	0.487320
O33	O	1.703914	0.280588	0.820654
O34	O	0.918689	-0.385616	0.263398
O35	O	1.252022	-0.052283	0.596732
O36	O	1.585356	0.281050	0.930065
O37	O	1.045353	-0.496755	0.449041
O38	O	1.378687	-0.163421	0.782375
O39	O	1.712020	0.169912	1.115708
O40	O	0.934070	-0.486481	0.332312
O41	O	1.267404	-0.153148	0.665646
O42	O	1.600737	0.180186	0.998979
O43	O	1.114289	-0.403674	0.468571
O44	O	1.447623	-0.070341	0.801904
O45	O	1.780956	0.262992	1.135237
O46	O	1.162758	-0.620416	0.230956
O47	O	1.496091	-0.287083	0.564289
O48	O	1.829425	0.046250	0.897622
O49	O	1.072929	-0.620066	0.313855
O50	O	1.406262	-0.286733	0.647188
O51	O	1.739595	0.046601	0.980521
C52	C	0.900659	-0.434848	0.297037
C53	C	1.233992	-0.101514	0.630370
C54	C	1.567325	0.231819	0.963703
C55	C	0.821869	-0.431187	0.294542
C56	C	1.155203	-0.097854	0.627875
C57	C	1.488536	0.235479	0.961208
C58	C	1.123220	-0.648940	0.267471
C59	C	1.456553	-0.315606	0.600804
C60	C	1.789886	0.017727	0.934138
C61	C	1.139704	-0.736853	0.252340
C62	C	1.473038	-0.403520	0.585673
C63	C	1.806371	-0.070186	0.919006
C64	C	0.792897	-0.482056	0.329166
C65	C	1.126231	-0.148722	0.662499
C66	C	1.459564	0.184611	0.995833
C67	C	0.718864	-0.478606	0.326827
C68	C	1.052198	-0.145273	0.660160
C69	C	1.385531	0.188061	0.993493
C70	C	0.673806	-0.424291	0.289859
C71	C	1.007139	-0.090958	0.623192
C72	C	1.340472	0.242376	0.956525
C73	C	0.702782	-0.373417	0.255233
C74	C	1.036115	-0.040084	0.588567
C75	C	1.369449	0.293249	0.921900
C76	C	0.776813	-0.376864	0.257577
C77	C	1.110146	-0.043530	0.590910
C78	C	1.443480	0.289803	0.924244
C79	C	0.451534	-0.408341	0.279014
C80	C	0.784867	-0.075007	0.612347
C81	C	1.118200	0.258326	0.945681
C82	C	0.377499	-0.404900	0.276671
C83	C	0.710832	-0.071566	0.610004
C84	C	1.044165	0.261767	0.943338
C85	C	0.393586	-0.510088	0.348266
C86	C	0.726919	-0.176754	0.681599
C87	C	1.060252	0.156579	1.014933
C88	C	0.467618	-0.513532	0.350603
C89	C	0.800951	-0.180199	0.683936
C90	C	1.134285	0.153134	1.017270
C91	C	0.496587	-0.462656	0.315981
C92	C	0.829921	-0.129323	0.649314
C93	C	1.163254	0.204011	0.982647
N94	N	0.598132	-0.420765	0.287465
N95	N	0.931466	-0.087432	0.620798
N96	N	1.264799	0.245901	0.954131
N97	N	0.572258	-0.466178	0.318379
N98	N	0.905592	-0.132845	0.651713
N99	N	1.238925	0.200488	0.985046
C100	C	0.959888	-1.025193	0.418115
C101	C	1.293222	-0.691860	0.751448
C102	C	1.626555	-0.358527	1.084781
C103	C	0.975380	-1.107800	0.403874
C104	C	1.308713	-0.774467	0.737208
C105	C	1.642047	-0.441134	1.070541
C106	C	1.068973	-1.108106	0.317643
C107	C	1.402306	-0.774773	0.650977
C108	C	1.735640	-0.441440	0.984310
C109	C	1.053491	-1.025498	0.331879
C110	C	1.386825	-0.692165	0.665212
C111	C	1.720158	-0.358831	0.998546
C112	C	0.998948	-0.984048	0.382115
C113	C	1.332281	-0.650715	0.715448
C114	C	1.665614	-0.317381	1.048781
C115	C	1.092551	-0.984353	0.295879
C116	C	1.425884	-0.651019	0.629212
C117	C	1.759217	-0.317686	0.962546
C118	C	1.077068	-0.901751	0.310111
C119	C	1.410401	-0.568418	0.643444
C120	C	1.743734	-0.235084	0.976778
C121	C	1.022525	-0.860295	0.360343
C122	C	1.355858	-0.526962	0.693676
C123	C	1.689192	-0.193628	1.027010
C124	C	0.983465	-0.901447	0.396347
C125	C	1.316798	-0.568113	0.729680
C126	C	1.650131	-0.234780	1.063013
C127	C	1.147091	-1.025804	0.245640
C128	C	1.480424	-0.692470	0.578973
C129	C	1.813757	-0.359137	0.912306
C130	C	1.186150	-0.984658	0.209640
C131	C	1.519483	-0.651325	0.542973
C132	C	1.852817	-0.317992	0.876307
C133	C	1.170671	-0.902056	0.223875
C134	C	1.504004	-0.568722	0.557209
C135	C	1.837337	-0.235389	0.890542
C136	C	1.116128	-0.860600	0.274107
C137	C	1.449461	-0.527266	0.607441
C138	C	1.782795	-0.193933	0.940774
C139	C	1.209731	-0.860904	0.187872
C140	C	1.543064	-0.527571	0.521205
C141	C	1.876398	-0.194238	0.854538
C142	C	1.194248	-0.778303	0.202104
C143	C	1.527581	-0.444970	0.535437
C144	C	1.860914	-0.111636	0.868770
C145	C	1.100645	-0.777998	0.288339
C146	C	1.433978	-0.444665	0.621673
C147	C	1.767312	-0.111332	0.955006
C148	C	1.269734	-0.452087	0.308787
C149	C	1.603067	-0.118754	0.642120
C150	C	1.936401	0.214579	0.975453
C151	C	1.348526	-0.455768	0.311295
C152	C	1.681860	-0.122435	0.644629
C153	C	2.015193	0.210899	0.977962
C154	C	1.078984	-0.451343	0.484821
C155	C	1.412318	-0.118010	0.818154
C156	C	1.745651	0.215323	1.151487
C157	C	1.076490	-0.454707	0.562344
C158	C	1.409824	-0.121373	0.895677
C159	C	1.743157	0.211960	1.229011
C160	C	1.046323	-0.237160	0.338484
C161	C	1.379656	0.096173	0.671817
C162	C	1.712989	0.429506	1.005150
C163	C	1.029910	-0.149252	0.353647
C164	C	1.363244	0.184081	0.686981
C165	C	1.696577	0.517415	1.020314
C166	C	1.090696	-0.435533	0.121699
C167	C	1.424030	-0.102200	0.455032
C168	C	1.757363	0.231133	0.788365
C169	C	1.093286	-0.431953	0.044218
C170	C	1.426619	-0.098620	0.377552
C171	C	1.759953	0.234713	0.710885
C172	C	1.111208	-0.407827	0.608934
C173	C	1.444541	-0.074494	0.942267
C174	C	1.777875	0.258840	1.275600
C175	C	1.108856	-0.410984	0.681775
C176	C	1.442189	-0.077651	1.015109
C177	C	1.775522	0.255683	1.348442
C178	C	1.071789	-0.461025	0.708026
C179	C	1.405123	-0.127692	1.041359
C180	C	1.738456	0.205641	1.374693
C181	C	1.037067	-0.507907	0.661431
C182	C	1.370400	-0.174573	0.994764
C183	C	1.703734	0.158760	1.328098
C184	C	1.039416	-0.504745	0.588591
C185	C	1.372749	-0.171412	0.921924
C186	C	1.706082	0.161922	1.255258
C187	C	1.060912	-0.475673	0.924783
C188	C	1.394246	-0.142340	1.258117
C189	C	1.727579	0.190993	1.591450
C190	C	1.058568	-0.478833	0.997629
C191	C	1.391902	-0.145500	1.330962
C192	C	1.725235	0.187834	1.664296
C193	C	1.130356	-0.381909	1.017969
C194	C	1.463689	-0.048576	1.351302
C195	C	1.797023	0.284758	1.684635
C196	C	1.132705	-0.378755	0.945126
C197	C	1.466038	-0.045422	1.278459
C198	C	1.799372	0.287911	1.611792
C199	C	1.097980	-0.425634	0.898538
C200	C	1.431313	-0.092300	1.231871
C201	C	1.764646	0.241033	1.565204
N202	N	1.069386	-0.464255	0.782482
N203	N	1.402719	-0.130922	1.115815
N204	N	1.736052	0.202412	1.449148
N205	N	1.100379	-0.422399	0.824084
N206	N	1.433713	-0.089066	1.157417
N207	N	1.767046	0.244268	1.490751
H208	H	0.829580	-0.526287	0.359267
H209	H	1.162913	-0.192954	0.692600
H210	H	1.496247	0.140379	1.025934
H211	H	1.158626	-0.343742	1.055908
H212	H	1.491960	-0.010409	1.389241
H213	H	1.825293	0.322924	1.722575
H214	H	0.504301	-0.557763	0.380705
H215	H	0.837634	-0.224430	0.714038
H216	H	1.170968	0.108904	1.047371
H217	H	0.915478	-0.991444	0.459027
H218	H	1.248812	-0.658110	0.792361
H219	H	1.582145	-0.324777	1.125694
H220	H	1.009915	-0.793035	0.371925
H221	H	1.343248	-0.459702	0.705258
H222	H	1.676582	-0.126369	1.038591
H223	H	1.162891	-0.338009	0.923758
H224	H	1.496224	-0.004675	1.257092
H225	H	1.829557	0.328658	1.590425
H226	H	1.011136	-0.542911	0.550659
H227	H	1.344469	-0.209578	0.883992
H228	H	1.677803	0.123755	1.217326
H229	H	1.056235	-0.744249	0.329252
H230	H	1.389568	-0.410915	0.662585
H231	H	1.722902	-0.077582	0.995919
H232	H	0.695279	-0.520029	0.355021
H233	H	1.028613	-0.186696	0.688354
H234	H	1.361946	0.146638	1.021688
H235	H	1.028383	-0.519584	1.018998
H236	H	1.361716	-0.186251	1.352332
H237	H	1.695049	0.147082	1.685665
H238	H	1.113380	-1.141866	0.276739
H239	H	1.446714	-0.808533	0.610073
H240	H	1.780047	-0.475199	0.943406
H241	H	0.369990	-0.551507	0.376454
H242	H	0.703324	-0.218174	0.709788
H243	H	1.036657	0.115159	1.043121
H244	H	1.032649	-0.513857	0.886858
H245	H	1.365983	-0.180524	1.220191
H246	H	1.699316	0.152810	1.553524
H247	H	0.340811	-0.360661	0.246573
H248	H	0.674144	-0.027328	0.579906
H249	H	1.007478	0.306006	0.913239
H250	H	0.475112	-0.366919	0.250816
H251	H	0.808446	-0.033586	0.584149
H252	H	1.141779	0.299748	0.917482
H253	H	0.666089	-0.329190	0.225136
H254	H	0.999422	0.004144	0.558470
H255	H	1.332755	0.337477	0.891803
H256	H	1.006884	-0.548648	0.682810
H257	H	1.340217	-0.215315	1.016144
H258	H	1.673550	0.118018	1.349477
H259	H	0.939055	-0.867697	0.437259
H260	H	1.272388	-0.534363	0.770593
H261	H	1.605721	-0.201030	1.103926
H262	H	0.800399	-0.335437	0.229387
H263	H	1.133733	-0.002104	0.562720
H264	H	1.467066	0.331229	0.896053
H265	H	0.943577	-1.141299	0.433202
H266	H	1.276911	-0.807965	0.766536
H267	H	1.610244	-0.474632	1.099869
H268	H	1.159697	-1.093063	0.234056
H269	H	1.493030	-0.759730	0.567389
H270	H	1.826363	-0.426397	0.900722
H271	H	1.230557	-1.018418	0.168736
H272	H	1.563891	-0.685085	0.502069
H273	H	1.897224	-0.351751	0.835403
H274	H	1.254135	-0.894665	0.146965
H275	H	1.587469	-0.561332	0.480298
H276	H	1.920802	-0.227998	0.813631
H277	H	1.226054	-0.744802	0.172788
H278	H	1.559387	-0.411469	0.506121
H279	H	1.892720	-0.078135	0.839455
H280	H	1.137129	-0.372812	0.719706
H281	H	1.470462	-0.039478	1.053039
H282	H	1.803795	0.293855	1.386373
H283	H	1.141394	-0.367081	0.587566
H284	H	1.474728	-0.033747	0.920900
H285	H	1.808061	0.299586	1.254233
