data_functionalizedCrystal
_audit_creation_method	'MofGen! by Chris Wilmer'
_symmetry_space_group_name_H-M	'P1'
_symmetry_Int_Tables_number	1
_symmetry_cell_setting	triclinic
loop_
_symmetry_equiv_pos_as_xyz
  x,y,z
_cell_length_a	11.792241
_cell_length_b	19.288865
_cell_length_c	18.366186
_cell_angle_alpha	90.011479
_cell_angle_beta	90.004833
_cell_angle_gamma	83.664832
loop_
_atom_site_label
_atom_site_type_symbol
_atom_site_fract_x
_atom_site_fract_y
_atom_site_fract_z
O1	O	-1.505472	-0.095201	-0.060488
O2	O	-1.174982	-0.105012	-0.060506
O3	O	-1.349777	0.000970	-0.060482
O4	O	-1.330678	-0.201182	-0.060512
O5	O	-1.349747	0.000975	0.060617
O6	O	-1.174953	-0.105007	0.060593
O7	O	-1.505442	-0.095195	0.060611
Zn8	Zn	-1.340193	-0.100100	0.079829
Zn9	Zn	-1.340232	-0.100107	-0.079724
O10	O	-1.330648	-0.201177	0.060587
C11	C	-1.349147	0.026852	0.000070
C12	C	-1.347303	0.103966	0.000076
C13	C	-1.132686	-0.104393	0.000042
C14	C	-1.006700	-0.102548	0.000035
C15	C	-1.547739	-0.095814	0.000062
C16	C	-1.673725	-0.097659	0.000063
C17	C	-0.776039	-0.099156	0.000057
C18	C	-0.904396	-0.101041	0.000045
C19	C	-1.331277	-0.227060	0.000034
C20	C	-1.333122	-0.304174	0.000023
N21	N	-1.340174	-0.100095	0.188721
C22	C	-1.449864	0.148080	0.000085
C23	C	-1.448131	0.220537	0.000074
C24	C	-1.343830	0.248877	0.000067
C25	C	-1.241255	0.204754	0.000054
C26	C	-1.242992	0.132298	0.000058
C27	C	-1.261828	0.357632	0.042481
C28	C	-1.260096	0.430086	0.042482
C29	C	-1.338472	0.472353	0.000051
C30	C	-1.418598	0.442158	-0.042371
C31	C	-1.420334	0.369703	-0.042366
C32	C	-1.341936	0.327442	0.000062
C33	C	-1.439161	0.595033	0.000046
C34	C	-1.437423	0.667491	0.000030
C35	C	-1.230545	0.651706	0.000018
C36	C	-1.232285	0.579250	0.000027
C37	C	-1.336596	0.550918	0.000044
N38	N	-1.340259	-0.100107	-0.188615
C39	C	-1.417599	-0.053190	0.226832
C40	C	-1.417606	-0.053186	0.303059
C41	C	-1.340200	-0.100101	0.341173
C42	C	-1.262761	-0.147010	0.303053
C43	C	-1.262748	-0.147007	0.226827
C44	C	-1.325007	-0.163302	0.461924
C45	C	-1.325027	-0.163306	0.538149
C46	C	-1.340232	-0.100110	0.576281
C47	C	-1.355440	-0.036907	0.538179
C48	C	-1.355428	-0.036904	0.461952
C49	C	-1.340204	-0.100109	0.423828
C50	C	-1.417668	-0.053197	0.697047
C51	C	-1.417667	-0.053193	0.773276
C52	C	-1.262828	-0.147022	0.773268
C53	C	-1.262823	-0.147020	0.697041
C54	C	-1.340249	-0.100108	0.658934
H55	H	-1.534802	0.125017	0.000097
H56	H	-1.531651	0.256461	0.000078
Cl57	Cl	-1.570292	0.559413	0.000073
H58	H	-1.145622	0.674780	0.000010
H59	H	-1.194847	0.454665	0.077020
H60	H	-1.480641	-0.014990	0.195808
Cl61	Cl	-1.305996	-0.242760	0.413994
H62	H	-1.156333	0.227833	0.000048
Cl63	Cl	-1.515002	0.005783	0.821190
H64	H	-1.485574	0.345121	-0.076909
H65	H	-1.480656	-0.014989	0.334095
H66	H	-1.482419	0.476570	-0.076922
Cl67	Cl	-1.163291	0.304504	0.095831
Cl68	Cl	-1.514997	0.005781	0.649141
Cl69	Cl	-1.566371	0.722950	0.000037
Cl70	Cl	-1.114046	0.076838	0.000047
Cl71	Cl	-1.374533	0.042548	0.414055
H72	H	-1.148769	0.543331	0.000024
H73	H	-1.199798	-0.185218	0.804300
H74	H	-1.367821	0.014554	0.569224
H75	H	-1.199782	-0.185218	0.666008
H76	H	-1.312651	-0.214770	0.569166
Cl77	Cl	-1.165445	-0.205985	0.350966
H78	H	-1.199699	-0.185203	0.195796
