data_functionalizedCrystal
_audit_creation_method	'MofGen! by Chris Wilmer'
_symmetry_space_group_name_H-M	'P1'
_symmetry_Int_Tables_number	1
_symmetry_cell_setting	triclinic
loop_
_symmetry_equiv_pos_as_xyz
  x,y,z
_cell_length_a	23.532407
_cell_length_b	14.971482
_cell_length_c	22.010155
_cell_angle_alpha	89.984387
_cell_angle_beta	89.991245
_cell_angle_gamma	83.230643
loop_
_atom_site_label
_atom_site_type_symbol
_atom_site_fract_x
_atom_site_fract_y
_atom_site_fract_z
O1	O	0.074203	1.186178	-0.050524
O2	O	0.083093	0.925684	-0.050527
O3	O	-0.004250	1.063786	-0.050514
O4	O	0.161546	1.048076	-0.050537
O5	O	-0.004249	1.063743	0.050536
O6	O	0.083094	0.925641	0.050523
O7	O	0.074204	1.186135	0.050527
Cu8	Cu	0.078649	1.055884	0.059751
Cu9	Cu	0.078648	1.055935	-0.059752
O10	O	0.161547	1.048033	0.050514
C11	C	0.082696	0.892342	-0.000003
C12	C	0.081506	0.793057	-0.000003
C13	C	0.080946	0.746395	0.055080
C14	C	0.079818	0.653109	0.055081
C15	C	0.079255	0.606485	-0.000003
C16	C	0.079814	0.653154	-0.055090
C17	C	0.080937	0.746439	-0.055090
C18	C	0.077474	0.458716	-0.055086
C19	C	0.076351	0.365424	-0.055086
C20	C	0.076355	0.365386	0.055085
C21	C	0.077478	0.458671	0.055085
C22	C	0.078038	0.505334	-0.000003
C23	C	-0.025467	1.063365	0.000012
C24	C	-0.088689	1.062162	0.000017
C25	C	-0.487475	1.136344	-0.000015
C26	C	-0.546880	1.135226	-0.000020
O27	O	-0.583331	1.203994	-0.000041
N28	N	-0.569858	1.053125	-0.000021
C29	C	-0.533426	0.972135	-0.000023
O30	O	-0.558425	0.902198	-0.000024
C31	C	-0.474022	0.973253	-0.000023
C32	C	-0.451049	1.055360	-0.000016
C33	C	-0.464501	1.218444	-0.000009
C34	C	-0.405100	1.219561	-0.000003
C35	C	-0.368674	1.138578	-0.000004
C36	C	-0.391648	1.056477	-0.000010
C37	C	-0.437592	0.892264	-0.000029
C38	C	-0.378185	0.893390	-0.000029
C39	C	-0.355211	0.975497	-0.000022
C40	C	-0.295820	0.976611	-0.000005
N41	N	-0.272843	1.058713	-0.000004
C42	C	-0.309270	1.139696	-0.000003
C43	C	-0.658179	0.969792	-0.000024
C44	C	-0.717581	0.968673	-0.000020
C45	C	-0.731032	1.131765	-0.000019
C46	C	-0.671628	1.132884	-0.000018
C47	C	-0.635202	1.051894	-0.000024
C48	C	-0.184523	1.142036	0.000009
C49	C	-0.125116	1.143145	0.000018
C50	C	-0.111671	0.980054	0.000012
C51	C	-0.171073	0.978944	0.000007
C52	C	-0.207498	1.059942	0.000004
O53	O	-0.259335	0.907879	0.000014
O54	O	-0.284263	1.209621	-0.000010
C55	C	0.182764	1.048454	-0.000015
C56	C	0.245987	1.049657	-0.000023
C57	C	0.074601	1.219477	0.000000
C58	C	0.075791	1.318762	-0.000003
N59	N	0.078649	1.055855	0.143804
C60	C	0.113244	1.109867	0.563579
C61	C	0.113244	1.109877	0.627187
O62	O	0.142651	1.155772	0.660075
N63	N	0.078648	1.055943	0.659011
C64	C	0.044046	1.002002	0.627224
O65	O	0.014619	0.956128	0.660134
C66	C	0.044044	1.001998	0.563618
C67	C	0.078647	1.055929	0.531797
C68	C	0.147844	1.163795	0.531758
C69	C	0.147845	1.163784	0.468155
C70	C	0.113247	1.109845	0.436373
C71	C	0.078648	1.055918	0.468194
C72	C	0.009440	0.948063	0.531832
C73	C	0.009441	0.948063	0.468222
C74	C	0.044043	1.001994	0.436401
C75	C	0.044052	1.001968	0.372808
N76	N	0.078648	1.055902	0.340984
C77	C	0.113246	1.109841	0.372766
C78	C	0.044052	1.002016	0.760802
C79	C	0.044056	1.002015	0.824407
C80	C	0.113253	1.109892	0.824366
C81	C	0.113251	1.109887	0.760759
C82	C	0.078648	1.055951	0.728978
C83	C	0.113247	1.109813	0.239195
C84	C	0.113247	1.109794	0.175586
C85	C	0.044048	1.001921	0.175634
C86	C	0.044050	1.001936	0.239237
C87	C	0.078651	1.055889	0.271016
O88	O	0.014658	0.956099	0.339880
O89	O	0.142662	1.155716	0.339849
N90	N	0.078652	1.055958	0.856195
H91	H	0.081409	0.784348	0.099935
H92	H	0.015886	0.958088	0.850311
H93	H	-0.652927	1.199742	-0.000013
H94	H	0.081394	0.784430	-0.099945
F95	F	-0.027394	0.890661	0.434401
H96	H	-0.082002	0.914119	0.000014
H97	H	-0.348529	0.827437	-0.000035
H98	H	-0.494155	1.284395	-0.000011
F99	F	0.150073	1.167236	0.273008
H100	H	0.079351	0.615186	-0.099940
H101	H	0.015881	0.958003	0.149745
F102	F	0.184681	1.221174	0.434297
F103	F	0.150078	1.167290	0.726899
F104	F	0.078083	0.508289	0.113710
F105	F	0.007225	0.944596	0.726984
F106	F	-0.027389	0.890660	0.565685
H107	H	-0.106415	1.210010	0.000025
H108	H	0.075899	0.327389	0.099939
H109	H	0.079353	0.615123	0.099935
H110	H	0.141427	1.153711	0.149681
H111	H	-0.760701	1.197706	-0.000020
F112	F	-0.742025	0.881284	-0.000017
H113	H	0.176017	1.207723	0.557629
H114	H	0.075893	0.327465	-0.099939
F115	F	0.150073	1.167302	0.858202
H116	H	0.077930	0.496706	-0.099944
H117	H	-0.214174	1.207992	0.000004
H118	H	-0.386401	1.286421	-0.000000
F119	F	0.007228	0.944528	0.273104
F120	F	-0.619415	0.883587	-0.000025
H121	H	-0.456286	0.825404	-0.000038
H122	H	-0.189779	0.912085	0.000019
