data_functionalizedCrystal
_audit_creation_method	'MofGen! by Chris Wilmer'
_symmetry_space_group_name_H-M	'P1'
_symmetry_Int_Tables_number	1
_symmetry_cell_setting	triclinic
loop_
_symmetry_equiv_pos_as_xyz
  x,y,z
_cell_length_a	17.699083
_cell_length_b	17.699097
_cell_length_c	16.176319
_cell_angle_alpha	90.009574
_cell_angle_beta	90.004339
_cell_angle_gamma	83.285722
loop_
_atom_site_label
_atom_site_type_symbol
_atom_site_fract_x
_atom_site_fract_y
_atom_site_fract_z
O1	O	0.095757	1.004071	0.068817
O2	O	0.595757	1.504071	0.568817
O3	O	0.108199	0.783694	0.068804
O4	O	0.608199	1.283694	0.568804
O5	O	-0.008211	0.900109	0.068803
O6	O	0.491789	1.400109	0.568803
O7	O	0.212167	0.887657	0.068817
O8	O	0.712167	1.387657	0.568817
O9	O	-0.008211	0.900095	-0.068690
O10	O	0.491789	1.400095	0.431310
O11	O	0.108199	0.783681	-0.068690
O12	O	0.608199	1.283681	0.431310
O13	O	0.095757	1.004058	-0.068676
O14	O	0.595757	1.504058	0.431324
Cu15	Cu	0.101978	0.893868	-0.081237
Cu16	Cu	0.601978	1.393868	0.418763
Cu17	Cu	0.101978	0.893884	0.081364
Cu18	Cu	0.601978	1.393884	0.581364
O19	O	0.212167	0.887643	-0.068676
O20	O	0.712167	1.387643	0.431324
C21	C	0.107752	0.755491	0.000055
C22	C	0.607752	1.255491	0.500055
C23	C	0.106409	0.671473	0.000050
C24	C	0.606409	1.171473	0.500050
C25	C	-0.036408	0.899656	0.000057
C26	C	0.463592	1.399656	0.500057
C27	C	-0.120426	0.898317	0.000056
C28	C	0.379574	1.398317	0.500056
C29	C	0.098180	0.155762	0.075030
C30	C	0.598180	0.655762	0.575030
C31	C	0.099436	0.234706	0.075026
C32	C	0.599436	0.734706	0.575026
C33	C	0.100065	0.274165	0.000076
C34	C	0.600065	0.774165	0.500076
C35	C	0.099430	0.234676	-0.074876
C36	C	0.599430	0.734676	0.425124
C37	C	0.098169	0.155734	-0.074871
C38	C	0.598169	0.655734	0.425129
C39	C	0.104518	0.553040	-0.074898
C40	C	0.604518	1.053040	0.425102
C41	C	0.105782	0.631987	-0.074897
C42	C	0.605782	1.131987	0.425103
C43	C	0.105785	0.632012	0.075000
C44	C	0.605785	1.132012	0.575000
C45	C	0.104524	0.553070	0.075005
C46	C	0.604524	1.053070	0.575005
C47	C	0.103885	0.513589	0.000054
C48	C	0.603885	1.013589	0.500054
C49	C	0.102521	0.427989	0.000059
C50	C	0.602521	0.927989	0.500059
C51	C	0.101434	0.359763	0.000069
C52	C	0.601434	0.859763	0.500069
C53	C	-0.169044	0.966650	0.000059
C54	C	0.330956	1.466650	0.500059
C55	C	-0.247987	0.965388	0.000066
C56	C	0.252013	1.465388	0.500066
C57	C	-0.278311	0.895792	0.000065
C58	C	0.221689	1.395792	0.500065
C59	C	-0.229687	0.827454	0.000064
C60	C	0.270313	1.327454	0.500064
C61	C	-0.150745	0.828717	0.000063
C62	C	0.349255	1.328717	0.500063
C63	C	-0.548050	0.822359	0.000071
C64	C	-0.048050	1.322359	0.500071
C65	C	-0.626998	0.821101	0.000070
C66	C	-0.126998	1.321101	0.500070
C67	C	-0.645292	0.959030	0.000074
C68	C	-0.145292	1.459030	0.500074
C69	C	-0.566350	0.960293	0.000073
C70	C	-0.066350	1.460293	0.500073
C71	C	-0.517733	0.891955	0.000077
C72	C	-0.017733	1.391955	0.500077
C73	C	-0.432134	0.893325	0.000070
C74	C	0.067866	1.393325	0.500070
C75	C	-0.363909	0.894422	0.000065
C76	C	0.136091	1.394422	0.500065
C77	C	0.240364	0.888096	0.000073
C78	C	0.740364	1.388096	0.500073
C79	C	0.324382	0.889435	0.000078
C80	C	0.824382	1.389435	0.500078
C81	C	0.096205	1.032261	0.000074
C82	C	0.596205	1.532261	0.500074
C83	C	0.097547	1.116279	0.000084
C84	C	0.597547	1.616279	0.500084
N85	N	0.101977	0.893862	-0.195602
N86	N	0.601977	1.393862	0.304398
C87	C	0.147828	0.939677	-0.238857
C88	C	0.647828	1.439677	0.261143
C89	C	0.147825	0.939685	-0.325404
C90	C	0.647825	1.439685	0.174596
C91	C	0.101975	0.893874	-0.368695
C92	C	0.601975	1.393874	0.131305
C93	C	0.056119	0.848057	-0.325434
C94	C	0.556119	1.348057	0.174566
C95	C	0.056118	0.848054	-0.238889
C96	C	0.556118	1.348054	0.261111
C97	C	0.056120	0.848071	-0.674463
C98	C	0.556120	1.348071	-0.174463
C99	C	0.056126	0.848077	-0.761014
C100	C	0.556126	1.348077	-0.261014
C101	C	0.147827	0.939702	-0.760978
C102	C	0.647827	1.439702	-0.260978
C103	C	0.147826	0.939699	-0.674432
C104	C	0.647826	1.439699	-0.174432
C105	C	0.101967	0.893886	-0.631179
C106	C	0.601967	1.393886	-0.131179
C107	C	0.101970	0.893879	-0.537335
C108	C	0.601970	1.393879	-0.037335
C109	C	0.101976	0.893876	-0.462538
C110	C	0.601976	1.393876	0.037462
N111	N	0.101973	0.893896	0.195730
N112	N	0.601973	1.393896	0.695730
H113	H	0.097673	0.123640	0.136064
H114	H	0.597673	0.623640	0.636064
C115	C	0.097517	0.112293	-0.157309
C116	C	0.597517	0.612293	0.342691
H117	H	0.096681	0.059627	-0.146573
H118	H	0.596681	0.559627	0.353427
H119	H	0.141855	0.119384	-0.188076
H120	H	0.641855	0.619384	0.311924
H121	H	0.053611	0.131061	-0.188135
H122	H	0.553611	0.631061	0.311865
H123	H	0.185169	0.976977	-0.203616
H124	H	0.685169	1.476977	0.296384
H125	H	0.099938	0.266810	-0.135903
H126	H	0.599938	0.766810	0.364097
H127	H	-0.144360	1.023323	0.000055
H128	H	0.355640	1.523323	0.500055
C129	C	-0.698773	1.034201	0.000083
C130	C	-0.198773	1.534201	0.500083
H131	H	-0.750131	1.023485	0.000094
H132	H	-0.250131	1.523485	0.500094
H133	H	-0.689600	1.062741	-0.047862
H134	H	-0.189600	1.562741	0.452138
H135	H	-0.689586	1.062747	0.048037
H136	H	-0.189586	1.562747	0.548037
C137	C	0.106481	0.675441	0.157448
C138	C	0.606481	1.175441	0.657448
H139	H	0.105935	0.640632	0.202085
H140	H	0.605935	1.140632	0.702085
H141	H	0.062855	0.712090	0.160567
H142	H	0.562855	1.212090	0.660567
H143	H	0.151099	0.700382	0.160562
H144	H	0.651099	1.200382	0.660562
C145	C	0.198268	0.990103	-0.808555
C146	C	0.698268	1.490103	-0.308555
H147	H	0.225581	1.017377	-0.770376
H148	H	0.725581	1.517377	-0.270376
H149	H	0.167215	1.024997	-0.842311
H150	H	0.667215	1.524997	-0.342311
H151	H	0.233141	0.959017	-0.842318
H152	H	0.733141	1.459017	-0.342318
H153	H	0.103987	0.520906	-0.135928
H154	H	0.603987	1.020906	0.364072
C155	C	-0.660353	0.744542	0.000079
C156	C	-0.160353	1.244542	0.500079
H157	H	-0.620093	0.704023	0.000090
H158	H	-0.120093	1.204023	0.500090
H159	H	-0.690772	0.741172	-0.047867
H160	H	-0.190772	1.241172	0.452133
H161	H	-0.690765	0.741198	0.048033
H162	H	-0.190765	1.241198	0.548033
C163	C	0.100136	0.278134	0.157467
C164	C	0.600136	0.778134	0.657467
H165	H	0.099591	0.243327	0.202105
H166	H	0.599591	0.743327	0.702105
H167	H	0.056510	0.314782	0.160584
H168	H	0.556510	0.814782	0.660584
H169	H	0.144753	0.303077	0.160579
H170	H	0.644753	0.803077	0.660579
H171	H	-0.287569	1.021032	0.000067
H172	H	0.212431	1.521032	0.500067
C173	C	-0.494579	0.747192	0.000075
C174	C	0.005421	1.247192	0.500075
H175	H	-0.443220	0.757907	0.000086
H176	H	0.056780	1.257907	0.500086
H177	H	-0.503757	0.718639	-0.047870
H178	H	-0.003757	1.218639	0.452130
H179	H	-0.503761	0.718661	0.048030
H180	H	-0.003761	1.218661	0.548030
H181	H	-0.541665	1.016965	0.000070
H182	H	-0.041665	1.516965	0.500070
H183	H	-0.254383	0.770787	0.000068
H184	H	0.245617	1.270787	0.500068
C185	C	-0.097266	0.753551	0.000058
C186	C	0.402734	1.253551	0.500058
H187	H	-0.126631	0.711921	0.000050
H188	H	0.373369	1.211921	0.500050
H189	H	-0.066087	0.751182	0.048004
H190	H	0.433913	1.251182	0.548004
H191	H	-0.066094	0.751171	-0.047896
H192	H	0.433906	1.251171	0.452104
C193	C	0.198264	0.990078	-0.372981
C194	C	0.698264	1.490078	0.127019
H195	H	0.225578	1.017353	-0.334803
H196	H	0.725578	1.517353	0.165197
H197	H	0.167210	1.024972	-0.406736
H198	H	0.667210	1.524972	0.093264
H199	H	0.233136	0.958993	-0.406746
H200	H	0.733136	1.458993	0.093254
C201	C	0.106469	0.675395	-0.157344
C202	C	0.606469	1.175395	0.342656
H203	H	0.107320	0.728063	-0.146609
H204	H	0.607320	1.228063	0.353391
H205	H	0.062141	0.668309	-0.188140
H206	H	0.562141	1.168309	0.311860
H207	H	0.150384	0.656599	-0.188140
H208	H	0.650384	1.156599	0.311860
H209	H	0.185165	0.977000	-0.639189
H210	H	0.685165	1.477000	-0.139189
H211	H	0.018786	0.810770	-0.796259
H212	H	0.518786	1.310770	-0.296259
H213	H	0.018779	0.810768	-0.639256
H214	H	0.518779	1.310768	-0.139256
C215	C	0.005686	0.797665	-0.373052
C216	C	0.505686	1.297665	0.126948
H217	H	0.012259	0.804221	-0.430791
H218	H	0.512259	1.304221	0.069209
H219	H	-0.046118	0.811822	-0.358873
H220	H	0.453882	1.311822	0.141127
H221	H	0.019818	0.745853	-0.358876
H222	H	0.519818	1.245853	0.141124
C223	C	0.005688	0.797655	-0.191305
C224	C	0.505688	1.297655	0.308695
H225	H	0.012249	0.804218	-0.133562
H226	H	0.512249	1.304218	0.366438
H227	H	0.019813	0.745847	-0.205499
H228	H	0.519813	1.245847	0.294501
H229	H	-0.046118	0.811820	-0.205490
H230	H	0.453882	1.311820	0.294510
C231	C	0.103829	0.509670	0.157450
C232	C	0.603829	1.009670	0.657450
H233	H	0.104378	0.544493	0.202086
H234	H	0.604378	1.044493	0.702086
H235	H	0.147453	0.473021	0.160573
H236	H	0.647453	0.973021	0.660573
H237	H	0.059210	0.484732	0.160561
H238	H	0.559210	0.984732	0.660561
