data_functionalizedCrystal
_audit_creation_method	'MofGen! by Chris Wilmer'
_symmetry_space_group_name_H-M	'P1'
_symmetry_Int_Tables_number	1
_symmetry_cell_setting	triclinic
loop_
_symmetry_equiv_pos_as_xyz
  x,y,z
_cell_length_a	33.428889
_cell_length_b	33.428139
_cell_length_c	33.424847
_cell_angle_alpha	60.004234
_cell_angle_beta	60.008465
_cell_angle_gamma	59.994972
loop_
_atom_site_label
_atom_site_type_symbol
_atom_site_fract_x
_atom_site_fract_y
_atom_site_fract_z
O1	O	0.055565	-0.584504	0.488714
O2	O	0.020982	-0.455083	0.393778
O3	O	0.102943	-0.536959	0.393689
O4	O	-0.026396	-0.502628	0.488803
O5	O	0.130140	-0.509767	0.420792
O6	O	0.048179	-0.427891	0.420881
O7	O	0.082762	-0.557312	0.515817
Cu8	Cu	0.067954	-0.490119	0.470823
Cu9	Cu	0.035790	-0.522276	0.438771
O10	O	0.000801	-0.475436	0.515906
N11	N	0.090577	-0.467504	0.493370
N12	N	0.013171	-0.544895	0.416225
C13	C	0.143377	-0.280390	0.546067
C14	C	0.143515	-0.414755	0.680369
C15	C	0.143392	-0.414735	0.546069
C16	C	0.277766	-0.414702	0.545966
C17	C	0.158177	-0.324719	0.560828
C18	C	0.158255	-0.399967	0.636038
C19	C	0.233434	-0.399936	0.560773
C20	C	0.158186	-0.399955	0.560829
C21	C	0.124540	-0.223964	0.527278
C22	C	0.124565	-0.433545	0.527281
C23	C	0.177014	-0.381145	0.579617
C24	C	0.359814	-0.400540	0.502735
C25	C	0.411105	-0.417624	0.485606
C26	C	0.411136	-0.500620	0.517255
C27	C	0.359845	-0.483534	0.534385
C28	C	0.136887	-0.198305	0.476855
C29	C	0.119761	-0.147011	0.459777
C30	C	0.077945	-0.147038	0.543547
C31	C	0.095072	-0.198332	0.560625
C32	C	0.074134	-0.421169	0.539710
C33	C	0.057023	-0.438269	0.522625
C34	C	0.140770	-0.480120	0.480694
C35	C	0.157883	-0.463020	0.497773
C36	C	0.074339	-0.421208	0.762475
C37	C	0.057288	-0.438323	0.813768
C38	C	0.141075	-0.480183	0.813699
C39	C	0.158125	-0.463069	0.762404
C40	C	0.124756	-0.433580	0.736794
C41	C	0.334186	-0.433494	0.527123
C42	C	-0.173769	-0.597444	0.363037
C43	C	-0.039302	-0.597595	0.228856
C44	C	-0.039496	-0.597587	0.363300
C45	C	-0.039512	-0.731889	0.363237
C46	C	-0.129442	-0.612265	0.348329
C47	C	-0.054138	-0.612351	0.273187
C48	C	-0.054257	-0.687554	0.348440
C49	C	-0.054247	-0.612346	0.348477
C50	C	-0.230191	-0.578579	0.381758
C51	C	-0.020722	-0.578803	0.382168
C52	C	-0.073020	-0.631130	0.329609
C53	C	-0.053713	-0.813916	0.406386
C54	C	-0.036654	-0.865210	0.423504
C55	C	0.046338	-0.865293	0.391984
C56	C	0.029278	-0.813999	0.374865
C57	C	-0.255900	-0.590938	0.432169
C58	C	-0.307191	-0.573786	0.449185
C59	C	-0.307060	-0.531922	0.365377
C60	C	-0.255769	-0.549074	0.348360
C61	C	-0.033081	-0.528377	0.369764
C62	C	-0.016014	-0.511306	0.386922
C63	C	0.025770	-0.595083	0.428877
C64	C	0.008703	-0.612156	0.411725
C65	C	-0.032755	-0.528393	0.146761
C66	C	-0.015585	-0.511324	0.095468
C67	C	0.026262	-0.595106	0.095516
C68	C	0.009094	-0.612174	0.146811
C69	C	-0.020417	-0.578816	0.172432
C70	C	-0.020748	-0.788312	0.382068
N71	N	0.436037	-0.467415	0.493101
O72	O	0.592642	-0.471896	0.376066
O73	O	0.592838	-0.567146	0.505347
O74	O	0.592754	-0.566928	0.423360
O75	O	0.592727	-0.472113	0.458053
O76	O	0.511269	-0.539835	0.450606
O77	O	0.511353	-0.540052	0.532594
O78	O	0.511157	-0.444802	0.403312
Cu79	Cu	0.503815	-0.489954	0.470441
Cu80	Cu	0.600180	-0.521995	0.438219
O81	O	0.511242	-0.445020	0.485300
N82	N	0.667959	-0.544533	0.415554
N83	N	0.090544	-0.122107	0.493359
O84	O	-0.026406	0.034587	0.488773
O85	O	0.102877	0.034627	0.393499
O86	O	0.020848	0.034591	0.393771
O87	O	0.055623	0.034623	0.488500
O88	O	0.048051	-0.046899	0.420925
O89	O	0.130080	-0.046864	0.420653
O90	O	0.000796	-0.046903	0.515927
Cu91	Cu	0.067922	-0.054324	0.470769
Cu92	Cu	0.035752	0.042048	0.438656
O93	O	0.082825	-0.046867	0.515655
N94	N	0.013123	0.109830	0.416068
N95	N	0.090892	-0.467554	0.838649
O96	O	0.086330	-0.584488	0.995334
O97	O	-0.008902	-0.455160	0.995379
O98	O	-0.008679	-0.537172	0.995355
O99	O	0.086107	-0.502475	0.995358
O100	O	0.018452	-0.509990	0.913868
O101	O	0.018230	-0.427978	0.913891
O102	O	0.113461	-0.557306	0.913847
Cu103	Cu	0.068323	-0.490160	0.906429
Cu104	Cu	0.036237	-0.522306	1.002797
O105	O	0.113239	-0.475293	0.913870
N106	N	0.013667	-0.544916	1.070577
C107	C	0.031339	-0.425179	0.394250
C108	C	0.132837	-0.526572	0.394139
C109	C	0.072405	-0.587216	0.515344
C110	C	-0.029093	-0.485823	0.515455
C111	C	0.552119	-0.566716	0.535258
C112	C	0.552016	-0.566447	0.433726
C113	C	0.551873	-0.445232	0.373402
C114	C	0.551980	-0.445502	0.474933
C115	C	0.132731	-0.006013	0.393923
C116	C	0.031182	-0.006158	0.394293
C117	C	-0.029092	-0.006163	0.515469
C118	C	0.072491	-0.006119	0.515133
C119	C	-0.008451	-0.425276	0.954641
C120	C	-0.008170	-0.526833	0.954596
C121	C	0.113010	-0.587190	0.954585
C122	C	0.112735	-0.485627	0.954611
H123	H	0.047163	-0.397193	0.741627
O124	O	0.148742	-0.631464	0.954548
C125	C	0.190910	-0.631456	0.954558
H126	H	0.190321	-0.592151	0.939141
H127	H	0.191498	-0.648974	0.993649
C128	C	0.237696	-0.709152	0.941522
C129	C	0.236975	-0.660877	0.922583
H130	H	0.266112	-0.727302	0.921800
H131	H	0.209286	-0.709159	0.941517
H132	H	0.238184	-0.723744	0.974098
H133	H	0.236480	-0.646284	0.890010
H134	H	0.265386	-0.660868	0.922582
O135	O	-0.043665	-0.535751	0.954619
C136	C	-0.054931	-0.575427	0.996807
H137	H	-0.022553	-0.598893	1.010894
H138	H	-0.088600	-0.560904	1.026359
C139	C	-0.105258	-0.577862	0.966637
C140	C	-0.065490	-0.606686	0.983937
H141	H	-0.111774	-0.597143	0.958699
H142	H	-0.097670	-0.551131	0.938215
H143	H	-0.133311	-0.565762	0.991267
H144	H	-0.037436	-0.618780	0.959305
H145	H	-0.073074	-0.633420	1.012355
O146	O	-0.230721	-0.537099	0.299407
C147	C	-0.179965	-0.558573	0.291546
H148	H	-0.173012	-0.566313	0.325241
H149	H	-0.165413	-0.594356	0.284715
C150	C	-0.162110	-0.513730	0.205287
C151	C	-0.153570	-0.523232	0.246669
H152	H	-0.145827	-0.491932	0.177603
H153	H	-0.196305	-0.499264	0.210582
H154	H	-0.149983	-0.543552	0.199600
H155	H	-0.165702	-0.493411	0.252358
H156	H	-0.119376	-0.537693	0.241374
H157	H	0.551974	-0.415718	0.482355
O158	O	0.022316	-0.006265	0.358830
C159	C	0.010791	-0.048479	0.375734
H160	H	0.026624	-0.077962	0.406153
H161	H	-0.030700	-0.038953	0.390527
C162	C	0.013414	-0.031422	0.295766
C163	C	0.032864	-0.067635	0.333124
H164	H	0.027027	-0.043238	0.269482
H165	H	0.021177	-0.002981	0.284377
H166	H	-0.021161	-0.023487	0.308100
H167	H	0.067437	-0.075565	0.320791
H168	H	0.025107	-0.096079	0.344509
H169	H	0.142514	-0.478200	0.954606
O170	O	0.177149	-0.535375	0.358522
C171	C	0.185903	-0.575020	0.347201
H172	H	0.163014	-0.598566	0.379607
H173	H	0.175366	-0.560463	0.313603
C174	C	0.268733	-0.577264	0.296646
C175	C	0.240623	-0.606186	0.336449
H176	H	0.302486	-0.596487	0.290011
H177	H	0.262835	-0.550553	0.304271
H178	H	0.259946	-0.565134	0.268652
H179	H	0.249405	-0.618309	0.364444
H180	H	0.246523	-0.632899	0.328828
H181	H	0.079796	-0.624394	0.545162
O182	O	-0.073428	-0.477011	0.551042
C183	C	-0.103888	-0.428874	0.533335
H184	H	-0.080302	-0.405601	0.501862
H185	H	-0.128640	-0.429624	0.519742
C186	C	-0.164555	-0.435301	0.613528
C187	C	-0.135586	-0.406715	0.574874
H188	H	-0.184109	-0.421633	0.639152
H189	H	-0.144035	-0.467733	0.625458
H190	H	-0.185177	-0.435924	0.602194
H191	H	-0.114960	-0.406098	0.586207
H192	H	-0.156103	-0.374283	0.562948
O193	O	-0.044167	-0.380986	0.954634
C194	C	-0.086344	-0.381004	0.954650
H195	H	-0.075482	-0.410018	0.939214
H196	H	-0.112966	-0.389565	0.993746
C197	C	-0.124466	-0.294628	0.941664
C198	C	-0.111125	-0.330261	0.922702
H199	H	-0.139754	-0.263327	0.921959
H200	H	-0.096052	-0.294616	0.941655
H201	H	-0.146649	-0.301768	0.974244
H202	H	-0.088939	-0.323123	0.890125
H203	H	-0.139537	-0.330270	0.922705
O204	O	0.081285	-0.006091	0.550688
C205	C	0.039238	-0.006116	0.592989
H206	H	0.005536	0.009300	0.582312
H207	H	0.043218	-0.045214	0.619632
C208	C	0.074851	0.006913	0.630740
C209	C	0.033457	0.025851	0.617627
H210	H	0.071286	0.026630	0.645940
H211	H	0.103180	0.006928	0.602242
H212	H	0.078163	-0.025668	0.652941
H213	H	0.030150	0.058429	0.595422
H214	H	0.005128	0.025842	0.646122
H215	H	-0.066220	-0.006175	0.545378
H216	H	0.016234	-0.428240	0.834672
H217	H	0.169783	-0.005775	0.363939
O218	O	0.173557	-0.508839	0.838501
C219	C	0.221713	-0.516079	0.804836
H220	H	0.221587	-0.510335	0.768281
H221	H	0.236406	-0.488776	0.799375
C222	C	0.254795	-0.575683	0.869715
C223	C	0.254640	-0.568632	0.824819
H224	H	0.275107	-0.608099	0.882042
H225	H	0.222351	-0.570804	0.892397
H226	H	0.267038	-0.552927	0.865158
H227	H	0.242392	-0.591383	0.829378
H228	H	0.287082	-0.573516	0.802138
O229	O	0.061295	-0.789109	0.351163
C230	C	0.059351	-0.759440	0.303463
H231	H	0.044750	-0.774876	0.291804
H232	H	0.034046	-0.720550	0.303054
C233	C	0.129071	-0.739752	0.281981
C234	C	0.111141	-0.758713	0.267659
H235	H	0.161016	-0.739301	0.259896
H236	H	0.130379	-0.759739	0.314118
H237	H	0.107978	-0.707346	0.281640
H238	H	0.132230	-0.791121	0.268007
H239	H	0.109837	-0.738731	0.235521
O240	O	0.552205	-0.602345	0.579573
C241	C	0.552210	-0.584698	0.610063
H242	H	0.567596	-0.553223	0.586500
H243	H	0.513128	-0.571122	0.634837
C244	C	0.565327	-0.664935	0.670671
C245	C	0.584228	-0.626279	0.641730
H246	H	0.585076	-0.690584	0.690207
H247	H	0.565322	-0.676824	0.650131
H248	H	0.532759	-0.653615	0.691312
H249	H	0.616793	-0.637597	0.621086
H250	H	0.584239	-0.614392	0.662268
H251	H	0.047002	-0.397168	0.563734
O252	O	0.207098	-0.475147	0.737438
C253	C	0.219473	-0.500952	0.707757
H254	H	0.190565	-0.518319	0.723233
H255	H	0.221141	-0.474569	0.668892
C256	C	0.305292	-0.519989	0.687923
C257	C	0.269788	-0.541323	0.706933
H258	H	0.336329	-0.544890	0.687413
H259	H	0.296955	-0.502602	0.707918
H260	H	0.306676	-0.498003	0.655538
H261	H	0.268400	-0.563303	0.739320
H262	H	0.278126	-0.558714	0.686944
H263	H	0.015959	-0.428182	0.532734
H264	H	0.552029	-0.596233	0.426301
O265	O	0.173160	-0.508682	0.451961
C266	C	0.202789	-0.482768	0.408940
H267	H	0.182965	-0.441733	0.401826
H268	H	0.238837	-0.493680	0.413574
C269	C	0.237584	-0.545551	0.374032
C270	C	0.213234	-0.495151	0.365292
H271	H	0.244030	-0.553191	0.347108
H272	H	0.217624	-0.563011	0.403017
H273	H	0.267622	-0.554639	0.377895
H274	H	0.183195	-0.486066	0.361436
H275	H	0.233190	-0.477690	0.336306
O276	O	0.206856	-0.474977	0.485731
C277	C	0.214816	-0.453575	0.507146
H278	H	0.181154	-0.420656	0.514905
H279	H	0.221689	-0.481643	0.542911
C280	C	0.301045	-0.477181	0.462215
C281	C	0.259702	-0.436747	0.471741
H282	H	0.328734	-0.466802	0.440377
H283	H	0.295683	-0.491602	0.447789
H284	H	0.306766	-0.500567	0.492023
H285	H	0.253978	-0.413364	0.441935
H286	H	0.265064	-0.422321	0.486162
O287	O	0.335028	-0.515611	0.558048
C288	C	0.368679	-0.563442	0.560790
H289	H	0.405224	-0.561478	0.530477
H290	H	0.374170	-0.583023	0.597950
C291	C	0.303770	-0.594302	0.591770
C292	C	0.348653	-0.591890	0.554536
H293	H	0.291417	-0.611852	0.587914
H294	H	0.281098	-0.562079	0.589924
H295	H	0.308352	-0.610619	0.622732
H296	H	0.344070	-0.575568	0.523574
H297	H	0.371324	-0.624112	0.556376
H298	H	0.551811	-0.415327	0.336274
H299	H	0.432025	-0.541365	0.523165
H300	H	0.431972	-0.390789	0.465748
H301	H	0.160882	-0.219171	0.449698
O302	O	0.334963	-0.351917	0.495660
C303	C	0.368585	-0.326495	0.470450
H304	H	0.405162	-0.352816	0.476345
H305	H	0.374008	-0.310549	0.429646
C306	C	0.303653	-0.252383	0.482831
C307	C	0.348576	-0.284710	0.490074
H308	H	0.291310	-0.226606	0.494933
H309	H	0.281000	-0.269509	0.499813
H310	H	0.308178	-0.239100	0.448827
H311	H	0.344050	-0.297996	0.524077
H312	H	0.371228	-0.267585	0.473097
O313	O	0.131814	-0.122157	0.410778
C314	C	0.161486	-0.155781	0.385008
H315	H	0.180167	-0.192344	0.409450
H316	H	0.137808	-0.161244	0.373974
C317	C	0.177705	-0.090829	0.308727
C318	C	0.200652	-0.135736	0.338746
H319	H	0.201863	-0.078464	0.280189
H320	H	0.157712	-0.068175	0.326088
H321	H	0.157974	-0.095388	0.299537
H322	H	0.220377	-0.131175	0.347940
H323	H	0.220649	-0.158388	0.321385
H324	H	0.053957	-0.126168	0.570702
H325	H	0.085016	-0.219221	0.601683
O326	O	-0.068713	-0.890032	0.447063
C327	C	-0.092672	-0.877493	0.415610
H328	H	-0.091449	-0.840263	0.386411
H329	H	-0.073502	-0.906373	0.397250
C330	C	-0.147894	-0.920801	0.481357
C331	C	-0.146396	-0.875073	0.445497
H332	H	-0.181033	-0.919311	0.499792
H333	H	-0.131752	-0.929251	0.502548
H334	H	-0.131917	-0.944863	0.466052
H335	H	-0.162368	-0.851013	0.460802
H336	H	-0.162542	-0.866619	0.424309
H337	H	-0.025639	-0.470264	0.074572
H338	H	-0.056788	-0.501226	0.167618
H339	H	0.050281	-0.622271	0.074658
H340	H	-0.057039	-0.501216	0.345698
O341	O	0.021021	-0.661163	0.171725
C342	C	0.003510	-0.682437	0.159127
H343	H	-0.028085	-0.653206	0.144964
H344	H	0.034308	-0.698658	0.129384
C345	C	0.024265	-0.759153	0.222068
C346	C	-0.014544	-0.723251	0.204678
H347	H	0.013130	-0.784330	0.250166
H348	H	0.036064	-0.744821	0.230555
H349	H	0.049926	-0.772665	0.197279
H350	H	-0.040202	-0.709736	0.229465
H351	H	-0.026348	-0.737582	0.196196
O352	O	-0.028033	-0.462306	0.374800
C353	C	-0.057664	-0.436527	0.345033
H354	H	-0.051105	-0.460997	0.326384
H355	H	-0.097857	-0.425407	0.368630
C356	C	-0.052653	-0.360279	0.328741
C357	C	-0.044594	-0.390332	0.305832
H358	H	-0.044593	-0.331782	0.304561
H359	H	-0.032692	-0.377646	0.348797
H360	H	-0.086148	-0.351017	0.348404
H361	H	-0.011099	-0.399598	0.286175
H362	H	-0.064550	-0.372965	0.285772
H363	H	0.049734	-0.622248	0.452940
O364	O	0.020771	-0.661157	0.423800
C365	C	0.050392	-0.686933	0.453576
H366	H	0.069042	-0.662497	0.447074
H367	H	0.026678	-0.697962	0.493733
C368	C	0.066682	-0.763215	0.448625
C369	C	0.089592	-0.733203	0.440636
H370	H	0.090860	-0.791757	0.440646
H371	H	0.046724	-0.745849	0.428566
H372	H	0.046921	-0.772400	0.482090
H373	H	0.109347	-0.724014	0.407172
H374	H	0.109553	-0.750568	0.460690
H375	H	-0.094449	-0.793002	0.412253
O376	O	0.094948	-0.890224	0.384902
C377	C	0.121473	-0.877713	0.334274
H378	H	0.096311	-0.863591	0.313026
H379	H	0.136213	-0.847964	0.322844
C380	C	0.195428	-0.940653	0.349207
C381	C	0.164525	-0.923312	0.323112
H382	H	0.221986	-0.968780	0.342322
H383	H	0.177559	-0.949081	0.383317
H384	H	0.207707	-0.915858	0.339680
H385	H	0.152242	-0.948104	0.332644
H386	H	0.182393	-0.914889	0.289004
O387	O	-0.231130	-0.619575	0.464677
C388	C	-0.264822	-0.626810	0.512822
H389	H	-0.301362	-0.595856	0.512673
H390	H	-0.270304	-0.663332	0.527505
C391	C	-0.199980	-0.665211	0.545964
C392	C	-0.244858	-0.627190	0.545781
H393	H	-0.187666	-0.665447	0.566295
H394	H	-0.177281	-0.660338	0.513528
H395	H	-0.204555	-0.695641	0.558198
H396	H	-0.240282	-0.596760	0.533541
H397	H	-0.267557	-0.632057	0.578215
H398	H	-0.327887	-0.507903	0.338181
O399	O	0.022614	-0.380848	0.358628
C400	C	0.064699	-0.380728	0.316364
H401	H	0.098366	-0.409701	0.327102
H402	H	0.060737	-0.389260	0.289746
C403	C	0.029191	-0.294351	0.278459
C404	C	0.070543	-0.329933	0.291648
H405	H	0.032796	-0.263018	0.263211
H406	H	0.000837	-0.294432	0.306932
H407	H	0.025895	-0.301468	0.256280
H408	H	0.073835	-0.322820	0.313831
H409	H	0.098897	-0.329850	0.263178
H410	H	-0.328125	-0.583847	0.490235
