data_functionalizedCrystal
_audit_creation_method	'MofGen! by Chris Wilmer'
_symmetry_space_group_name_H-M	'P1'
_symmetry_Int_Tables_number	1
_symmetry_cell_setting	triclinic
loop_
_symmetry_equiv_pos_as_xyz
  x,y,z
_cell_length_a	21.395362
_cell_length_b	16.120484
_cell_length_c	21.395364
_cell_angle_alpha	87.117689
_cell_angle_beta	90.025888
_cell_angle_gamma	92.942400
loop_
_atom_site_label
_atom_site_type_symbol
_atom_site_fract_x
_atom_site_fract_y
_atom_site_fract_z
Zn1	Zn	0.945128	-0.331680	0.367216
Zn2	Zn	1.278461	0.001653	0.700549
Zn3	Zn	1.611795	0.334986	1.033882
Zn4	Zn	0.939760	-0.471073	0.267746
Zn5	Zn	1.273093	-0.137740	0.601080
Zn6	Zn	1.606426	0.195593	0.934413
Zn7	Zn	0.840375	-0.331713	0.262418
Zn8	Zn	1.173708	0.001620	0.595752
Zn9	Zn	1.507041	0.334954	0.929085
Zn10	Zn	0.835008	-0.471096	0.372452
Zn11	Zn	1.168341	-0.137763	0.705785
Zn12	Zn	1.501674	0.195570	1.039119
O13	O	0.890067	-0.401391	0.317458
O14	O	1.223401	-0.068057	0.650791
O15	O	1.556734	0.265276	0.984125
O16	O	1.032095	-0.350148	0.354059
O17	O	1.365428	-0.016814	0.687393
O18	O	1.698761	0.316519	1.020726
O19	O	0.926576	-0.452591	0.179362
O20	O	1.259909	-0.119257	0.512695
O21	O	1.593242	0.214076	0.846029
O22	O	0.858763	-0.215040	0.271899
O23	O	1.192096	0.118294	0.605232
O24	O	1.525430	0.451627	0.938565
O25	O	1.028151	-0.452559	0.280980
O26	O	1.361484	-0.119226	0.614313
O27	O	1.694817	0.214108	0.947646
O28	O	0.935725	-0.215016	0.348893
O29	O	1.269058	0.118318	0.682226
O30	O	1.602392	0.451651	1.015560
O31	O	0.853558	-0.350203	0.175447
O32	O	1.186891	-0.016870	0.508781
O33	O	1.520225	0.316463	0.842114
O34	O	0.751984	-0.350226	0.276976
O35	O	1.085317	-0.016893	0.610309
O36	O	1.418651	0.316441	0.943643
O37	O	0.849616	-0.452599	0.459435
O38	O	1.182949	-0.119265	0.792768
O39	O	1.516282	0.214068	1.126102
O40	O	0.748041	-0.452630	0.357817
O41	O	1.081374	-0.119297	0.691151
O42	O	1.414707	0.214036	1.024484
O43	O	0.930521	-0.350170	0.455588
O44	O	1.263854	-0.016837	0.788921
O45	O	1.597187	0.316496	1.122255
O46	O	0.921371	-0.587745	0.286057
O47	O	1.254705	-0.254412	0.619390
O48	O	1.588038	0.078921	0.952724
O49	O	0.844410	-0.587762	0.362984
O50	O	1.177744	-0.254429	0.696317
O51	O	1.511077	0.078904	1.029650
C52	C	0.727278	-0.401435	0.317387
C53	C	1.060611	-0.068101	0.650720
C54	C	1.393945	0.265232	0.984054
C55	C	0.657635	-0.401474	0.317372
C56	C	0.990969	-0.068140	0.650706
C57	C	1.324302	0.265193	0.984039
C58	C	0.622883	-0.454866	0.359409
C59	C	0.956216	-0.121533	0.692742
C60	C	1.289549	0.211800	1.026076
C61	C	0.557448	-0.454846	0.359436
C62	C	0.890781	-0.121513	0.692770
C63	C	1.224115	0.211821	1.026103
C64	C	0.526768	-0.401442	0.317416
C65	C	0.860102	-0.068108	0.650749
C66	C	1.193435	0.265225	0.984082
C67	C	0.561529	-0.348039	0.275376
C68	C	0.894863	-0.014705	0.608709
C69	C	1.228196	0.318628	0.942043
C70	C	0.626963	-0.348055	0.275354
C71	C	0.960296	-0.014721	0.608688
C72	C	1.293629	0.318612	0.942021
C73	C	0.423317	-0.394722	0.260755
C74	C	0.756650	-0.061389	0.594088
C75	C	1.089984	0.271945	0.927421
C76	C	0.357884	-0.394712	0.260776
C77	C	0.691218	-0.061378	0.594109
C78	C	1.024551	0.271955	0.927442
C79	C	0.324950	-0.401387	0.317483
C80	C	0.658283	-0.068054	0.650816
C81	C	0.991616	0.265279	0.984150
C82	C	0.357455	-0.408091	0.374172
C83	C	0.690788	-0.074757	0.707505
C84	C	1.024121	0.258576	1.040838
C85	C	0.422888	-0.408107	0.374150
C86	C	0.756222	-0.074773	0.707483
C87	C	1.089555	0.258560	1.040817
C88	C	0.455817	-0.401418	0.317435
C89	C	0.789150	-0.068085	0.650768
C90	C	1.122484	0.265249	0.984102
C91	C	0.219245	-0.454761	0.359553
C92	C	0.552579	-0.121427	0.692886
C93	C	0.885912	0.211906	1.026219
C94	C	0.153810	-0.454734	0.359581
C95	C	0.487143	-0.121401	0.692914
C96	C	0.820476	0.211932	1.026247
C97	C	0.157892	-0.347931	0.275515
C98	C	0.491225	-0.014598	0.608848
C99	C	0.824559	0.318735	0.942181
C100	C	0.223326	-0.347953	0.275492
C101	C	0.556660	-0.014620	0.608826
C102	C	0.889993	0.318713	0.942159
C103	C	0.253999	-0.401372	0.317510
C104	C	0.587332	-0.068039	0.650844
C105	C	0.920666	0.265294	0.984177
C106	C	0.881743	-0.618005	0.325680
C107	C	1.215076	-0.284671	0.659014
C108	C	1.548410	0.048662	0.992347
C109	C	0.878239	-0.710673	0.329219
C110	C	1.211572	-0.377340	0.662552
C111	C	1.544906	-0.044006	0.995886
C112	C	0.871845	-0.880339	0.335692
C113	C	1.205179	-0.547006	0.669026
C114	C	1.538512	-0.213673	1.002359
C115	C	0.908402	-0.921602	0.299234
C116	C	1.241735	-0.588268	0.632568
C117	C	1.575068	-0.254935	0.965901
C118	C	0.904844	-1.016010	0.302836
C119	C	1.238178	-0.682676	0.636170
C120	C	1.571511	-0.349343	0.969503
C121	C	0.875402	-0.785923	0.332091
C122	C	1.208735	-0.452589	0.665425
C123	C	1.542069	-0.119256	0.998758
C124	C	1.053492	-0.401347	0.317530
C125	C	1.386826	-0.068014	0.650863
C126	C	1.720159	0.265320	0.984196
C127	C	1.123134	-0.401328	0.317560
C128	C	1.456468	-0.067995	0.650894
C129	C	1.789801	0.265338	0.984227
C130	C	0.890068	-0.401383	0.480881
C131	C	1.223402	-0.068050	0.814214
C132	C	1.556735	0.265283	1.147548
C133	C	0.890069	-0.401380	0.550522
C134	C	1.223402	-0.068047	0.883856
C135	C	1.556735	0.265286	1.217189
C136	C	0.898442	-0.183931	0.309217
C137	C	1.231775	0.149402	0.642551
C138	C	1.565108	0.482736	0.975884
C139	C	0.902010	-0.091262	0.305706
C140	C	1.235343	0.242071	0.639039
C141	C	1.568677	0.575404	0.972372
C142	C	0.932167	-0.348055	1.050317
C143	C	1.265500	-0.014722	1.383650
C144	C	1.598833	0.318612	1.716983
C145	C	0.932173	-0.348056	0.984881
C146	C	1.265507	-0.014723	1.318215
C147	C	1.598840	0.318610	1.651548
C148	C	0.890052	-0.401383	0.954161
C149	C	1.223385	-0.068050	1.287494
C150	C	1.556718	0.265283	1.620827
C151	C	0.847931	-0.454728	0.988882
C152	C	1.181265	-0.121395	1.322215
C153	C	1.514598	0.211939	1.655548
C154	C	0.847930	-0.454731	1.054316
C155	C	1.181264	-0.121397	1.387649
C156	C	1.514597	0.211936	1.720983
C157	C	0.833350	-0.407977	0.850717
C158	C	1.166683	-0.074644	1.184050
C159	C	1.500017	0.258689	1.517383
C160	C	0.833350	-0.407969	0.785283
C161	C	1.166683	-0.074635	1.118617
C162	C	1.500017	0.258698	1.451950
C163	C	0.890055	-0.401380	0.752340
C164	C	1.223388	-0.068046	1.085673
C165	C	1.556722	0.265287	1.419006
C166	C	0.946762	-0.394782	0.784837
C167	C	1.280096	-0.061448	1.118170
C168	C	1.613429	0.271885	1.451504
C169	C	0.946761	-0.394784	0.850271
C170	C	1.280095	-0.061451	1.183604
C171	C	1.613428	0.271882	1.516938
C172	C	0.890048	-0.401387	0.883208
C173	C	1.223382	-0.068053	1.216542
C174	C	1.556715	0.265280	1.549875
C175	C	0.932183	-0.348044	0.646675
C176	C	1.265516	-0.014711	0.980008
C177	C	1.598849	0.318622	1.313341
C178	C	0.932190	-0.348052	0.581238
C179	C	1.265523	-0.014718	0.914572
C180	C	1.598856	0.318615	1.247905
C181	C	0.847943	-0.454719	0.585240
C182	C	1.181276	-0.121386	0.918573
C183	C	1.514609	0.211948	1.251906
C184	C	0.847941	-0.454716	0.650675
C185	C	1.181274	-0.121382	0.984008
C186	C	1.514607	0.211951	1.317342
C187	C	0.890060	-0.401374	0.681388
C188	C	1.223393	-0.068041	1.014722
C189	C	1.556727	0.265293	1.348055
C190	C	0.890058	-0.401409	1.154671
C191	C	1.223392	-0.068076	1.488005
C192	C	1.556725	0.265258	1.821338
C193	C	0.890050	-0.401389	1.085029
C194	C	1.223383	-0.068056	1.418363
C195	C	1.556716	0.265278	1.751696
H196	H	0.244220	-0.498253	0.393769
H197	H	0.577554	-0.164920	0.727103
H198	H	0.910887	0.168413	1.060436
N199	N	0.826843	-0.927453	0.380611
N200	N	1.160177	-0.594120	0.713944
N201	N	1.493510	-0.260786	1.047277
H202	H	0.837090	-0.912315	0.424826
H203	H	1.170424	-0.578981	0.758160
H204	H	1.503757	-0.245648	1.091493
H205	H	0.830668	-0.989178	0.376790
H206	H	1.164002	-0.655845	0.710124
H207	H	1.497335	-0.322511	1.043457
N208	N	0.977586	-0.290515	1.083443
N209	N	1.310920	0.042818	1.416776
N210	N	1.644253	0.376152	1.750109
H211	H	1.004266	-0.256725	1.051519
H212	H	1.337600	0.076609	1.384852
H213	H	1.670933	0.409942	1.718186
H214	H	1.005282	-0.324431	1.111893
H215	H	1.338615	0.008903	1.445226
H216	H	1.671948	0.342236	1.778560
H217	H	0.942370	-0.886024	0.265317
H218	H	1.275703	-0.552691	0.598650
H219	H	1.609036	-0.219358	0.931983
H220	H	0.966470	-0.304622	0.956613
H221	H	1.299803	0.028711	1.289946
H222	H	1.633137	0.362044	1.623279
N223	N	0.457949	-0.415334	0.435287
N224	N	0.791282	-0.082001	0.768620
N225	N	1.124615	0.251332	1.101953
H226	H	0.427161	-0.419562	0.471217
H227	H	0.760494	-0.086229	0.804550
H228	H	1.093827	0.247104	1.137883
H229	H	0.487073	-0.364554	0.439228
H230	H	0.820406	-0.031221	0.772562
H231	H	1.153739	0.302112	1.105895
N232	N	1.007918	-0.387677	0.885323
N233	N	1.341251	-0.054344	1.218656
N234	N	1.674584	0.278990	1.551990
H235	H	1.043843	-0.383503	0.854529
H236	H	1.377176	-0.050170	1.187863
H237	H	1.710510	0.283164	1.521196
H238	H	1.011775	-0.438477	0.914395
H239	H	1.345108	-0.105144	1.247729
H240	H	1.678442	0.228189	1.581062
H241	H	0.330641	-0.413525	0.420348
H242	H	0.663974	-0.080192	0.753682
H243	H	0.997307	0.253142	1.087015
N244	N	1.007928	-0.387670	0.749316
N245	N	1.341262	-0.054337	1.082649
N246	N	1.674595	0.278997	1.415982
H247	H	0.999327	-0.388673	0.702933
H248	H	1.332661	-0.055340	1.036266
H249	H	1.665994	0.277993	1.369599
H250	H	1.034085	-0.435873	0.762594
H251	H	1.367418	-0.102540	1.095927
H252	H	1.700751	0.230793	1.429261
H253	H	0.966478	-0.304610	0.671683
H254	H	1.299812	0.028723	1.005016
H255	H	1.633145	0.362057	1.338349
H256	H	0.251622	-0.304479	0.241258
H257	H	0.584956	0.028854	0.574592
H258	H	0.918289	0.362187	0.907925
N259	N	0.322828	-0.387489	0.199637
N260	N	0.656161	-0.054155	0.532970
N261	N	0.989494	0.279178	0.866303
H262	H	0.353619	-0.383252	0.163710
H263	H	0.686953	-0.049918	0.497043
H264	H	1.020286	0.283415	0.830376
H265	H	0.297671	-0.336115	0.198663
H266	H	0.631004	-0.002781	0.531997
H267	H	0.964338	0.330552	0.865330
N268	N	0.977623	-0.290531	0.543795
N269	N	1.310956	0.042803	0.877128
N270	N	1.644290	0.376136	1.210461
H271	H	1.004302	-0.256741	0.573183
H272	H	1.337636	0.076592	0.906517
H273	H	1.670969	0.409925	1.239850
H274	H	0.953603	-0.251959	0.515171
H275	H	1.286936	0.081374	0.848504
H276	H	1.620269	0.414707	1.181838
H277	H	0.813649	-0.498142	0.560228
H278	H	1.146982	-0.164809	0.893561
H279	H	1.480315	0.168525	1.226894
N280	N	0.802512	-0.512238	0.688120
N281	N	1.135845	-0.178904	1.021453
N282	N	1.469178	0.154429	1.354787
H283	H	0.775828	-0.546021	0.658731
H284	H	1.109161	-0.212688	0.992065
H285	H	1.442495	0.120646	1.325398
H286	H	0.774822	-0.478310	0.713971
H287	H	1.108155	-0.144977	1.047305
H288	H	1.441488	0.188357	1.380638
H289	H	0.132913	-0.304445	0.241304
H290	H	0.466247	0.028889	0.574637
H291	H	0.799580	0.362222	0.907970
N292	N	0.116323	-0.512328	0.404920
N293	N	0.449656	-0.178995	0.738254
N294	N	0.782989	0.154339	1.071587
H295	H	0.145685	-0.546172	0.431530
H296	H	0.479019	-0.212839	0.764864
H297	H	0.812352	0.120495	1.098197
H298	H	0.087660	-0.550845	0.380832
H299	H	0.420993	-0.217511	0.714166
H300	H	0.754327	0.115822	1.047499
H301	H	0.787176	-0.413341	0.758829
H302	H	1.120509	-0.080007	1.092163
H303	H	1.453843	0.253326	1.425496
H304	H	0.813637	-0.498148	0.963865
H305	H	1.146970	-0.164815	1.297198
H306	H	1.480304	0.168518	1.630531
H307	H	0.787171	-0.413344	0.877534
H308	H	1.120504	-0.080011	1.210867
H309	H	1.453837	0.253323	1.544201
N310	N	0.802503	-0.512258	1.091761
N311	N	1.135836	-0.178925	1.425094
N312	N	1.469169	0.154409	1.758427
H313	H	0.775820	-0.546045	1.062373
H314	H	1.109153	-0.212711	1.395706
H315	H	1.442487	0.120622	1.729040
H316	H	0.774811	-0.478330	1.117610
H317	H	1.108145	-0.144997	1.450944
H318	H	1.441478	0.188337	1.784277
H319	H	0.647852	-0.498363	0.393625
H320	H	0.981186	-0.165030	0.726958
H321	H	1.314519	0.168303	1.060291
H322	H	0.450127	-0.389282	0.214574
H323	H	0.783461	-0.055949	0.547907
H324	H	1.116794	0.277384	0.881240
H325	H	0.529147	-0.498324	0.393670
H326	H	0.862480	-0.164991	0.727003
H327	H	1.195814	0.168342	1.060337
H328	H	0.536546	-0.304555	0.241164
H329	H	0.869879	0.028778	0.574497
H330	H	1.203212	0.362112	0.907830
H331	H	0.655258	-0.304573	0.241123
H332	H	0.988592	0.028760	0.574456
H333	H	1.321925	0.362093	0.907789
