data_functionalizedCrystal
_audit_creation_method	'MofGen! by Chris Wilmer'
_symmetry_space_group_name_H-M	'P1'
_symmetry_Int_Tables_number	1
_symmetry_cell_setting	triclinic
loop_
_symmetry_equiv_pos_as_xyz
  x,y,z
_cell_length_a	12.827893
_cell_length_b	10.686285
_cell_length_c	10.686551
_cell_angle_alpha	80.915481
_cell_angle_beta	94.395101
_cell_angle_gamma	94.368299
loop_
_atom_site_label
_atom_site_type_symbol
_atom_site_fract_x
_atom_site_fract_y
_atom_site_fract_z
Zn1	Zn	1.669493	0.450170	0.678983
Zn2	Zn	2.002827	0.783503	1.012316
Zn3	Zn	2.336160	1.116836	1.345650
Zn4	Zn	1.669409	0.678749	0.450481
Zn5	Zn	2.002742	1.012083	0.783814
Zn6	Zn	2.336076	1.345416	1.117147
Zn7	Zn	1.482282	0.466523	0.466747
Zn8	Zn	1.815615	0.799856	0.800081
Zn9	Zn	2.148949	1.133189	1.133414
Zn10	Zn	1.507191	0.662366	0.662686
Zn11	Zn	1.840524	0.995699	0.996020
Zn12	Zn	2.173857	1.329033	1.329353
O13	O	1.582094	0.564452	0.564724
O14	O	1.915427	0.897785	0.898058
O15	O	2.248760	1.231119	1.231391
O16	O	1.815720	0.480504	0.648684
O17	O	2.149053	0.813837	0.982017
O18	O	2.482387	1.147170	1.315351
O19	O	1.634126	0.664297	0.275008
O20	O	1.967460	0.997631	0.608342
O21	O	2.300793	1.330964	0.941675
O22	O	1.496727	0.286731	0.508529
O23	O	1.830060	0.620064	0.841862
O24	O	2.163393	0.953397	1.175196
O25	O	1.815658	0.648440	0.480804
O26	O	2.148991	0.981774	0.814138
O27	O	2.482324	1.315107	1.147471
O28	O	1.634270	0.274716	0.664457
O29	O	1.967604	0.608049	0.997791
O30	O	2.300937	0.941383	1.331124
O31	O	1.496645	0.508375	0.286959
O32	O	1.829978	0.841709	0.620293
O33	O	2.163312	1.175042	0.953626
O34	O	1.339348	0.492489	0.492727
O35	O	1.672682	0.825822	0.826060
O36	O	2.006015	1.159156	1.159394
O37	O	1.539180	0.620517	0.842478
O38	O	1.872514	0.953851	1.175812
O39	O	2.205847	1.287184	1.509145
O40	O	1.357649	0.636374	0.636682
O41	O	1.690982	0.969708	0.970016
O42	O	2.024316	1.303041	1.303349
O43	O	1.658423	0.464618	0.854451
O44	O	1.991757	0.797951	1.187785
O45	O	2.325090	1.131284	1.521118
O46	O	1.658279	0.854199	0.465002
O47	O	1.991613	1.187532	0.798336
O48	O	2.324946	1.520865	1.131669
O49	O	1.539098	0.842162	0.620909
O50	O	1.872432	1.175495	0.954242
O51	O	2.205765	1.508829	1.287576
C52	C	1.310581	0.564429	0.564702
C53	C	1.643914	0.897763	0.898035
C54	C	1.977248	1.231096	1.231369
C55	C	1.194430	0.564448	0.564720
C56	C	1.527764	0.897781	0.898054
C57	C	1.861097	1.231115	1.231387
C58	C	1.601413	0.894234	0.539450
C59	C	1.934746	1.227567	0.872783
C60	C	2.268079	1.560901	1.206116
C61	C	1.609776	1.035313	0.528680
C62	C	1.943109	1.368646	0.862013
C63	C	2.276442	1.701979	1.195346
C64	C	1.601590	0.538916	0.895810
C65	C	1.934923	0.872249	1.229144
C66	C	2.268257	1.205583	1.562477
C67	C	1.609898	0.528034	1.036899
C68	C	1.943231	0.861367	1.370233
C69	C	2.276565	1.194701	1.703566
C70	C	1.151729	0.635777	0.635826
C71	C	1.485062	0.969110	0.969159
C72	C	1.818396	1.302443	1.302493
C73	C	1.031681	0.635797	0.635846
C74	C	1.365014	0.969131	0.969180
C75	C	1.698348	1.302464	1.302513
C76	C	1.854667	0.564476	0.564747
C77	C	2.188000	0.897809	0.898081
C78	C	2.521333	1.231142	1.231414
C79	C	1.970821	0.564486	0.564757
C80	C	2.304155	0.897819	0.898091
C81	C	2.637488	1.231152	1.231424
C82	C	1.562729	0.233380	0.590125
C83	C	1.896063	0.566713	0.923459
C84	C	2.229396	0.900047	1.256792
C85	C	1.554478	0.092297	0.600950
C86	C	1.887811	0.425630	0.934283
C87	C	2.221144	0.758964	1.267617
C88	C	1.562728	0.589797	0.234934
C89	C	1.896062	0.923130	0.568267
C90	C	2.229395	1.256464	0.901600
C91	C	1.554602	0.600321	0.093873
C92	C	1.887935	0.933655	0.427206
C93	C	2.221268	1.266988	0.760539
H94	H	1.204045	0.696823	0.696692
H95	H	1.537379	1.030157	1.030025
H96	H	1.870712	1.363490	1.363358
H97	H	1.500907	0.670539	1.034712
H98	H	1.834241	1.003872	1.368046
H99	H	2.167574	1.337205	1.701379
H100	H	1.500738	1.033155	0.671065
H101	H	1.834071	1.366489	1.004398
H102	H	2.167404	1.699822	1.337732
C103	C	1.020456	0.481978	0.482512
C104	C	1.353789	0.815312	0.815846
C105	C	1.687122	1.148645	1.149179
H106	H	0.966700	0.437247	0.437909
H107	H	1.300033	0.770580	0.771243
H108	H	1.633366	1.103914	1.104576
H109	H	1.062674	0.423036	0.535428
H110	H	1.396007	0.756369	0.868761
H111	H	1.729340	1.089702	1.202095
H112	H	1.062609	0.534762	0.423439
H113	H	1.395943	0.868095	0.756772
H114	H	1.729276	1.201429	1.090106
H115	H	1.663604	0.457821	1.096066
H116	H	1.996937	0.791154	1.429399
H117	H	2.330270	1.124488	1.762732
H118	H	1.663511	1.094463	0.458552
H119	H	1.996845	1.427796	0.791885
H120	H	2.330178	1.761130	1.125219
H121	H	0.994924	0.696868	0.696719
H122	H	1.328257	1.030202	1.030052
H123	H	1.661591	1.363535	1.363385
H124	H	1.142114	0.503391	0.503865
H125	H	1.475447	0.836724	0.837198
H126	H	1.808780	1.170057	1.170532
