data_functionalizedCrystal
_audit_creation_method	'MofGen! by Chris Wilmer'
_symmetry_space_group_name_H-M	'P1'
_symmetry_Int_Tables_number	1
_symmetry_cell_setting	triclinic
loop_
_symmetry_equiv_pos_as_xyz
  x,y,z
_cell_length_a	15.944499
_cell_length_b	15.944551
_cell_length_c	15.021413
_cell_angle_alpha	89.996935
_cell_angle_beta	89.990095
_cell_angle_gamma	96.511826
loop_
_atom_site_label
_atom_site_type_symbol
_atom_site_fract_x
_atom_site_fract_y
_atom_site_fract_z
O1	O	1.114556	-0.108114	-0.074087
O2	O	1.614556	0.391886	0.425913
O3	O	0.870000	-0.121516	-0.074078
O4	O	1.370000	0.378484	0.425922
O5	O	0.998956	0.007461	-0.074075
O6	O	1.498956	0.507461	0.425925
O7	O	0.985600	-0.237091	-0.074090
O8	O	1.485600	0.262909	0.425910
O9	O	0.998936	0.007443	0.073989
O10	O	1.498936	0.507443	0.573989
O11	O	0.869980	-0.121534	0.073987
O12	O	1.369980	0.378466	0.573987
O13	O	1.114535	-0.108132	0.073977
O14	O	1.614535	0.391868	0.573977
Zn15	Zn	0.992254	-0.114836	0.097490
Zn16	Zn	1.492254	0.385164	0.597490
Zn17	Zn	0.992281	-0.114812	-0.097591
Zn18	Zn	1.492281	0.385188	0.402409
O19	O	0.985579	-0.237109	0.073974
O20	O	1.485579	0.262891	0.573974
C21	C	0.838695	-0.120976	-0.000044
C22	C	1.338695	0.379024	0.499956
C23	C	0.745447	-0.119331	-0.000040
C24	C	1.245447	0.380669	0.499960
C25	C	0.453911	-0.194263	-0.000058
C26	C	0.953911	0.305737	0.499942
C27	C	0.514950	-0.155303	-0.073061
C28	C	1.014950	0.344697	0.426939
C29	C	0.409810	-0.113355	-0.000060
C30	C	0.909810	0.386645	0.499940
C31	C	0.514916	-0.155299	0.072919
C32	C	1.014916	0.344701	0.572919
C33	C	0.574719	-0.116296	-0.000049
C34	C	1.074719	0.383704	0.499951
C35	C	0.469622	-0.074372	-0.073123
C36	C	0.969622	0.425628	0.426877
C37	C	0.469581	-0.074380	0.072922
C38	C	0.969581	0.425620	0.572922
C39	C	0.530603	-0.035360	-0.000098
C40	C	1.030603	0.464640	0.499902
C41	C	0.314810	-0.111663	-0.000068
C42	C	0.814810	0.388337	0.499932
C43	C	0.669718	-0.117981	-0.000048
C44	C	1.169718	0.382019	0.499952
C45	C	0.998392	0.038746	-0.000042
C46	C	1.498392	0.538746	0.499958
C47	C	0.996729	0.131992	-0.000042
C48	C	1.496729	0.631992	0.499958
C49	C	1.145840	-0.108672	-0.000058
C50	C	1.645840	0.391328	0.499942
C51	C	1.239089	-0.110317	-0.000068
C52	C	1.739089	0.389683	0.499932
C53	C	0.986144	-0.268394	-0.000060
C54	C	1.486144	0.231606	0.499940
C55	C	0.987806	-0.361640	-0.000067
C56	C	1.487806	0.138360	0.499933
N57	N	0.992242	-0.114852	0.230628
N58	N	1.492242	0.385148	0.730628
C59	C	0.912823	0.346833	-0.000051
C60	C	1.412823	0.846833	0.499949
C61	C	0.951776	0.407848	0.072952
C62	C	1.451776	0.907848	0.572952
C63	C	0.993722	0.302717	-0.000049
C64	C	1.493722	0.802717	0.499951
C65	C	0.951815	0.407850	-0.073027
C66	C	1.451815	0.907850	0.426973
C67	C	0.990811	0.467629	-0.000059
C68	C	1.490811	0.967629	0.499941
C69	C	1.032697	0.362504	0.073015
C70	C	1.532697	0.862504	0.573015
C71	C	1.032725	0.362499	-0.073031
C72	C	1.532725	0.862499	0.426969
C73	C	1.071737	0.423497	-0.000010
C74	C	1.571737	0.923497	0.499990
C75	C	0.995397	0.207715	-0.000042
C76	C	1.495397	0.707715	0.499958
C77	C	0.989143	0.562630	-0.000059
C78	C	1.489143	1.062630	0.499941
N79	N	0.992300	-0.114789	-0.230728
N80	N	1.492300	0.385211	0.269272
C81	C	0.932604	-0.174463	0.470310
C82	C	1.432604	0.325537	0.970310
C83	C	1.008506	-0.190756	0.529640
C84	C	1.508506	0.309244	1.029640
C85	C	0.992264	-0.114831	0.412235
C86	C	1.492264	0.385169	0.912235
C87	C	0.916382	-0.098557	0.529646
C88	C	1.416382	0.401443	1.029646
C89	C	0.992277	-0.114813	0.587659
C90	C	1.492277	0.385187	1.087659
C91	C	1.068204	-0.131162	0.470258
C92	C	1.568204	0.368838	0.970258
C93	C	0.976030	-0.038930	0.470259
C94	C	1.476030	0.461070	0.970259
C95	C	1.051987	-0.055191	0.529563
C96	C	1.551987	0.444809	1.029563
C97	C	0.992254	-0.114844	0.311177
C98	C	1.492254	0.385156	0.811177
C99	C	0.992295	-0.114799	0.688714
C100	C	1.492295	0.385201	1.188714
H101	H	0.420581	-0.261409	-0.000133
H102	H	0.920581	0.238591	0.499867
H103	H	1.102501	-0.004751	0.555416
H104	H	1.602501	0.495249	1.055416
F105	F	0.541223	-0.200020	-0.153738
F106	F	1.041223	0.299980	0.346262
F107	F	0.443524	-0.029666	-0.153880
F108	F	0.943524	0.470334	0.346120
F109	F	0.866726	-0.240428	0.436299
F110	F	1.366726	0.259572	0.936299
F111	F	0.541148	-0.200055	0.153584
F112	F	1.041148	0.299945	0.653584
H113	H	1.022249	-0.254936	0.555722
H114	H	1.522249	0.245064	1.055722
F115	F	0.825053	0.303282	0.000043
F116	F	1.325053	0.803282	0.500043
F117	F	1.152109	-0.149241	0.436309
F118	F	1.652109	0.350759	0.936309
H119	H	0.852204	-0.084801	0.555735
H120	H	1.352204	0.415199	1.055735
H121	H	0.962263	0.025229	0.444156
H122	H	1.462263	0.525229	0.944156
H123	H	0.563780	0.031846	-0.000133
H124	H	1.063780	0.531846	0.499867
H125	H	0.917550	0.427942	0.134673
H126	H	1.417550	0.927942	0.634673
F127	F	0.443273	-0.029696	0.153600
F128	F	0.943273	0.470304	0.653600
H129	H	1.066922	0.342383	-0.134755
H130	H	1.566922	0.842383	0.365245
H131	H	1.066877	0.342512	0.134801
H132	H	1.566877	0.842512	0.634801
F133	F	0.907084	0.434112	-0.153692
F134	F	1.407084	0.934112	0.346308
F135	F	1.159583	0.466856	0.000038
F136	F	1.659583	0.966856	0.500038
