data_functionalizedCrystal
_audit_creation_method	'MofGen! by Chris Wilmer'
_symmetry_space_group_name_H-M	'P1'
_symmetry_Int_Tables_number	1
_symmetry_cell_setting	triclinic
loop_
_symmetry_equiv_pos_as_xyz
  x,y,z
_cell_length_a	19.121102
_cell_length_b	12.759400
_cell_length_c	12.759393
_cell_angle_alpha	90.031564
_cell_angle_beta	87.539308
_cell_angle_gamma	92.430863
loop_
_atom_site_label
_atom_site_type_symbol
_atom_site_fract_x
_atom_site_fract_y
_atom_site_fract_z
Zn1	Zn	1.073801	0.486830	-0.662514
Zn2	Zn	1.573801	0.986830	-0.162514
Zn3	Zn	1.073731	0.662544	-0.486829
Zn4	Zn	1.573731	1.162544	0.013171
Zn5	Zn	0.956345	0.479378	-0.479357
Zn6	Zn	1.456345	0.979378	0.020643
Zn7	Zn	0.956337	0.654961	-0.654979
Zn8	Zn	1.456337	1.154961	-0.154979
O9	O	1.015054	0.570928	-0.570920
O10	O	1.515054	1.070928	-0.070920
O11	O	1.172077	0.516432	-0.645490
O12	O	1.672077	1.016432	-0.145490
O13	O	1.058133	0.638302	-0.338815
O14	O	1.558133	1.138302	0.161185
O15	O	0.971958	0.333348	-0.503679
O16	O	1.471958	0.833348	-0.003679
O17	O	1.172025	0.645528	-0.516415
O18	O	1.672025	1.145528	-0.016415
O19	O	1.058253	0.338823	-0.638244
O20	O	1.558253	0.838823	-0.138244
O21	O	0.971890	0.503731	-0.333325
O22	O	1.471890	1.003731	0.166675
O23	O	0.858059	0.496377	-0.496373
O24	O	1.358059	0.996377	0.003627
O25	O	0.971946	0.632602	-0.803001
O26	O	1.471946	1.132602	-0.303001
O27	O	0.858053	0.625377	-0.625401
O28	O	1.358053	1.125377	-0.125401
O29	O	1.058246	0.509078	-0.808537
O30	O	1.558246	1.009078	-0.308537
O31	O	1.058125	0.808557	-0.509109
O32	O	1.558125	1.308557	-0.009109
O33	O	0.971877	0.802986	-0.632647
O34	O	1.471877	1.302986	-0.132647
C35	C	0.832572	0.559246	-0.559259
C36	C	1.332572	1.059246	-0.059259
C37	C	0.754505	0.554273	-0.554295
C38	C	1.254505	1.054273	-0.054295
C39	C	1.015012	0.843893	-0.570895
C40	C	1.515012	1.343893	-0.070895
C41	C	1.015058	0.960673	-0.570924
C42	C	1.515058	1.460673	-0.070924
C43	C	1.015103	0.570825	-0.844956
C44	C	1.515103	1.070825	-0.344956
C45	C	1.015124	0.570782	-0.961734
C46	C	1.515124	1.070782	-0.461734
C47	C	0.717845	0.619202	-0.619036
C48	C	1.217845	1.119202	-0.119036
C49	C	0.644493	0.614516	-0.614377
C50	C	1.144493	1.114516	-0.114377
C51	C	0.607803	0.544906	-0.544972
C52	C	1.107803	1.044906	-0.044972
C53	C	0.644468	0.479970	-0.480229
C54	C	1.144468	0.979970	0.019771
C55	C	0.717819	0.484652	-0.484893
C56	C	1.217819	0.984652	0.015107
C57	C	0.386331	0.527401	-0.527537
C58	C	0.886331	1.027401	-0.027537
C59	C	0.312975	0.522727	-0.522875
C60	C	0.812975	1.022727	-0.022875
C61	C	0.313005	0.657271	-0.657025
C62	C	0.813005	1.157271	-0.157025
C63	C	0.386357	0.661951	-0.661680
C64	C	0.886357	1.161951	-0.161680
C65	C	0.423016	0.597012	-0.596940
C66	C	0.923016	1.097012	-0.096940
C67	C	0.532825	0.540117	-0.540206
C68	C	1.032825	1.040117	-0.040206
C69	C	0.497992	0.601796	-0.601712
C70	C	0.997992	1.101796	-0.101712
C71	C	1.198248	0.582657	-0.582627
C72	C	1.698248	1.082657	-0.082627
C73	C	1.276315	0.587655	-0.587615
C74	C	1.776315	1.087655	-0.087615
C75	C	1.015114	0.296899	-0.570969
C76	C	1.515114	0.796899	-0.070969
C77	C	1.015140	0.180124	-0.570989
C78	C	1.515140	0.680124	-0.070989
C79	C	1.060018	1.018404	-0.506675
C80	C	1.560018	1.518404	-0.006675
C81	C	1.060061	1.128131	-0.506710
C82	C	1.560061	1.628131	-0.006710
C83	C	0.970179	1.122384	-0.635246
C84	C	1.470179	1.622384	-0.135246
C85	C	0.970140	1.012660	-0.635215
C86	C	1.470140	1.512660	-0.135215
C87	C	1.111908	1.021723	-0.432462
C88	C	1.611908	1.521723	0.067538
C89	C	1.111951	1.131449	-0.432497
C90	C	1.611951	1.631449	0.067503
C91	C	1.060066	0.506456	-1.019481
C92	C	1.560066	1.006456	-0.519481
C93	C	1.060083	0.506419	-1.129206
C94	C	1.560083	1.006419	-0.629206
C95	C	0.970212	0.635042	-1.123428
C96	C	1.470212	1.135042	-0.623428
C97	C	0.970193	0.635073	-1.013705
C98	C	1.470193	1.135073	-0.513705
C99	C	1.111955	0.432200	-1.022818
C100	C	1.611955	0.932200	-0.522818
C101	C	1.111971	0.432163	-1.132543
C102	C	1.611971	0.932163	-0.632543
C103	C	1.015045	0.570957	-0.297952
C104	C	1.515045	1.070957	0.202048
C105	C	1.015160	0.570714	-0.181183
C106	C	1.515160	1.070714	0.318817
H107	H	0.747712	0.675889	-0.675550
H108	H	1.247712	1.175889	-0.175550
H109	H	1.092437	0.986531	-0.353894
H110	H	1.592437	1.486531	0.146106
H111	H	0.502944	0.483442	-0.483694
H112	H	1.002944	0.983442	0.016306
H113	H	0.283149	0.710140	-0.709734
H114	H	0.783149	1.210140	-0.209734
N115	N	0.425851	0.457360	-0.457698
N116	N	0.925851	0.957360	0.042302
H117	H	0.456265	0.501931	-0.410866
H118	H	0.956265	1.001931	0.089134
H119	H	0.456261	0.410666	-0.502479
H120	H	0.956261	0.910666	-0.002479
H121	H	0.283104	0.466030	-0.466363
H122	H	0.783104	0.966030	0.033637
H123	H	0.614589	0.423288	-0.423722
H124	H	1.114589	0.923288	0.076278
H125	H	1.097419	1.160383	-0.350189
H126	H	1.597419	1.660383	0.149811
H127	H	0.933609	1.164726	-0.687590
H128	H	1.433609	1.664726	-0.187590
H129	H	1.092508	0.353610	-1.165349
H130	H	1.592508	0.853610	-0.665349
H131	H	0.747667	0.431774	-0.432180
H132	H	1.247667	0.931774	0.067820
H133	H	0.933594	0.687449	-0.966691
H134	H	1.433594	1.187449	-0.466691
H135	H	0.527868	0.658468	-0.658226
H136	H	1.027868	1.158468	-0.158226
N137	N	1.180411	1.180780	-0.475542
N138	N	1.680411	1.680780	0.024458
H139	H	1.171579	1.224738	-0.539054
H140	H	1.671579	1.724738	-0.039054
H141	H	1.213410	1.123845	-0.496248
H142	H	1.713410	1.623845	0.003752
N143	N	1.183931	0.986753	-0.466008
N144	N	1.683931	1.486753	0.033992
H145	H	1.219260	1.015374	-0.415566
H146	H	1.719260	1.515374	0.084434
H147	H	1.196796	1.013867	-0.538957
H148	H	1.696796	1.513867	-0.038957
N149	N	0.921655	0.950390	-0.704521
N150	N	1.421655	1.450390	-0.204521
H151	H	0.893206	0.999976	-0.745249
H152	H	1.393206	1.499976	-0.245249
H153	H	0.889148	0.902862	-0.659631
H154	H	1.389148	1.402862	-0.159631
H155	H	0.933630	0.687383	-1.165756
H156	H	1.433630	1.187383	-0.665756
N157	N	1.092687	0.323196	-0.982160
N158	N	1.592687	0.823196	-0.482160
H159	H	1.084096	0.274531	-1.043158
H160	H	1.584096	0.774531	-0.543158
H161	H	1.048809	0.325145	-0.935347
H162	H	1.548809	0.825145	-0.435347
N163	N	1.180312	0.475458	-0.982083
N164	N	1.680312	0.975458	-0.482083
H165	H	1.213365	0.496297	-1.043106
H166	H	1.713365	0.996297	-0.543106
H167	H	1.202001	0.420127	-0.938822
H168	H	1.702001	0.920127	-0.438822
H169	H	0.614647	0.667389	-0.667095
H170	H	1.114647	1.167389	-0.167095
N171	N	1.184018	0.465659	-1.176595
N172	N	1.684018	0.965659	-0.676595
H173	H	1.184059	0.465646	-1.255755
H174	H	1.684059	0.965646	-0.755755
H175	H	1.219294	0.415169	-1.152427
H176	H	1.719294	0.915169	-0.652427
N177	N	0.425928	0.737036	-0.736533
N178	N	0.925928	1.237036	-0.236533
H179	H	0.391573	0.777459	-0.776839
H180	H	0.891573	1.277459	-0.276839
H181	H	0.456385	0.696275	-0.787164
H182	H	0.956385	1.196275	-0.287164
