data_functionalizedCrystal
_audit_creation_method	'MofGen! by Chris Wilmer'
_symmetry_space_group_name_H-M	'P1'
_symmetry_Int_Tables_number	1
_symmetry_cell_setting	triclinic
loop_
_symmetry_equiv_pos_as_xyz
  x,y,z
_cell_length_a	16.992694
_cell_length_b	10.723024
_cell_length_c	16.053802
_cell_angle_alpha	92.591250
_cell_angle_beta	87.249047
_cell_angle_gamma	87.568046
loop_
_atom_site_label
_atom_site_type_symbol
_atom_site_fract_x
_atom_site_fract_y
_atom_site_fract_z
O1	O	1.045092	0.259813	-0.069321
O2	O	0.816792	0.256907	-0.069346
O3	O	0.936208	0.077238	-0.069330
O4	O	0.925676	0.439483	-0.069337
O5	O	0.929634	0.087084	0.069528
O6	O	0.810219	0.266753	0.069512
O7	O	1.038518	0.269659	0.069537
Zn8	Zn	0.923325	0.269769	0.091572
Zn9	Zn	0.931985	0.256797	-0.091380
O10	O	0.919103	0.449329	0.069521
C11	C	0.784273	0.258094	0.000080
C12	C	0.697169	0.246945	0.000071
C13	C	0.647507	0.354505	0.000069
C14	C	0.565664	0.344024	0.000081
C15	C	0.533484	0.225982	0.000088
C16	C	0.583152	0.118414	0.000092
C17	C	0.664994	0.128896	0.000087
C18	C	0.289651	0.182535	0.000112
C19	C	0.207803	0.172060	0.000115
C20	C	0.190321	0.397672	0.000105
C21	C	0.272165	0.408144	0.000094
C22	C	0.321826	0.300577	0.000103
N23	N	0.449827	0.215265	0.000098
N24	N	0.405481	0.311294	0.000099
C25	C	0.932155	0.035595	0.000098
C26	C	0.929862	-0.103157	0.000095
C27	C	0.996681	-0.172386	0.000101
C28	C	0.994312	-0.315793	0.000098
C29	C	1.071038	0.268472	0.000109
C30	C	1.158141	0.279620	0.000113
C31	C	0.923156	0.490971	0.000091
C32	C	0.925449	0.629723	0.000089
N33	N	0.917420	0.278623	0.216431
N34	N	0.937896	0.247934	-0.216239
C35	C	0.968250	0.202204	0.260132
C36	C	0.964127	0.208409	0.347538
C37	C	0.909177	0.291041	0.391242
C38	C	0.858341	0.367463	0.347535
C39	C	0.862461	0.361250	0.260130
C40	C	0.891180	0.318143	0.652649
C41	C	0.887066	0.324353	0.740060
C42	C	0.992852	0.165297	0.740057
C43	C	0.996970	0.159097	0.652650
C44	C	0.946131	0.235514	0.608951
N45	N	0.904963	0.297389	0.480585
N46	N	0.950342	0.229159	0.519610
H47	H	0.181606	0.075931	0.000120
H48	H	0.849787	0.380368	0.617076
H49	H	1.055640	-0.125486	0.000113
O50	O	0.517465	0.448537	-0.000072
C51	C	0.535553	0.514628	-0.071985
H52	H	0.565534	0.447932	-0.122247
H53	H	0.478905	0.557196	-0.096122
H54	H	0.576845	0.592197	-0.055736
O55	O	0.857152	-0.299444	-0.000029
C56	C	0.816588	-0.331564	-0.071963
H57	H	0.836382	-0.430156	-0.095939
H58	H	0.750439	-0.327655	-0.055797
H59	H	0.830140	-0.262857	-0.122317
O60	O	0.303290	0.522911	0.000129
C61	C	0.241907	0.615600	0.000110
H62	H	0.184889	0.576925	0.026403
H63	H	0.257538	0.700381	0.040420
H64	H	0.233658	0.644446	-0.066508
H65	H	1.051514	-0.375300	0.000107
O66	O	0.859454	-0.158897	0.000048
C67	C	0.797784	-0.066683	0.000066
H68	H	0.821417	0.022167	-0.026217
H69	H	0.749171	-0.101887	-0.040256
H70	H	0.772897	-0.045763	0.066681
H71	H	0.556944	0.022301	0.000110
H72	H	0.149878	0.485247	0.000100
H73	H	1.013000	0.134922	0.224554
H74	H	1.005517	0.146182	0.383119
H75	H	0.705428	0.041309	0.000087
H76	H	1.041715	0.091812	0.617068
O77	O	1.042147	0.091111	0.782636
C78	C	1.026744	0.114330	0.869153
H79	H	0.964062	0.155567	0.881097
H80	H	1.033399	0.023019	0.902378
H81	H	1.070315	0.183178	0.893945
H82	H	0.330076	0.094945	0.000119
O83	O	0.833606	0.404642	0.782386
C84	C	0.789627	0.470775	0.725075
H85	H	0.791408	0.415076	0.662772
H86	H	0.725888	0.485287	0.750339
H87	H	0.816019	0.565436	0.715770
H88	H	0.813595	0.434739	0.383124
O89	O	0.813163	0.435669	0.217714
C90	C	0.825555	0.562062	0.239072
H91	H	0.887234	0.570705	0.263090
H92	H	0.819575	0.619725	0.181585
H93	H	0.779877	0.597963	0.289808
O94	O	0.678807	0.469136	-0.000088
C95	C	0.729030	0.476841	-0.071998
H96	H	0.711702	0.406101	-0.122259
H97	H	0.723361	0.575015	-0.096141
H98	H	0.792640	0.455638	-0.055743
