data_functionalizedCrystal
_audit_creation_method	'MofGen! by Chris Wilmer'
_symmetry_space_group_name_H-M	'P1'
_symmetry_Int_Tables_number	1
_symmetry_cell_setting	triclinic
loop_
_symmetry_equiv_pos_as_xyz
  x,y,z
_cell_length_a	14.044191
_cell_length_b	19.188925
_cell_length_c	12.503572
_cell_angle_alpha	93.511621
_cell_angle_beta	86.162165
_cell_angle_gamma	88.167163
loop_
_atom_site_label
_atom_site_type_symbol
_atom_site_fract_x
_atom_site_fract_y
_atom_site_fract_z
O1	O	1.262484	0.164611	-0.089267
O2	O	0.986541	0.158533	-0.089280
O3	O	1.132478	0.060430	-0.089267
O4	O	1.116547	0.262713	-0.089280
O5	O	1.121503	0.067822	0.089374
O6	O	0.975565	0.165924	0.089361
O7	O	1.251509	0.172002	0.089374
Cu8	Cu	1.112535	0.169638	0.105679
Cu9	Cu	1.125515	0.160897	-0.105585
O10	O	1.105572	0.270105	0.089361
C11	C	0.945750	0.159570	0.000038
C12	C	0.840557	0.151638	0.000033
C13	C	1.126475	0.038082	0.000053
C14	C	1.124929	-0.039523	0.000050
C15	C	0.590096	0.193387	0.000041
C16	C	0.647960	0.137151	0.000043
C17	C	0.755131	0.145214	0.000038
C18	C	0.482915	0.185325	0.000047
C19	C	1.200209	-0.596435	0.000027
C20	C	1.201670	-0.523517	0.000037
C21	C	1.116038	-0.484110	0.000032
C22	C	1.028938	-0.517626	0.000045
C23	C	1.027480	-0.590542	0.000046
N24	N	1.057780	-0.369947	-0.060776
N25	N	1.059172	-0.300680	-0.060779
C26	C	1.120428	-0.264418	0.000032
N27	N	1.180255	-0.300040	0.060832
N28	N	1.178866	-0.369314	0.060830
C29	C	1.117610	-0.405045	0.000032
C30	C	1.209105	-0.151844	0.000037
C31	C	1.210562	-0.078925	0.000053
C32	C	1.037828	-0.073035	0.000051
C33	C	1.036374	-0.145953	0.000045
C34	C	1.122015	-0.185354	0.000033
C35	C	1.292300	0.170965	0.000053
C36	C	1.397493	0.178896	0.000051
C37	C	1.111575	0.292453	0.000039
C38	C	1.113121	0.370058	0.000034
N39	N	1.103413	0.175786	0.254270
N40	N	1.134645	0.154744	-0.254176
C41	C	1.089993	0.184836	0.473384
C42	C	1.148061	0.145696	0.526717
C43	C	1.140594	0.150732	0.648639
C44	C	1.097459	0.179801	0.351451
H45	H	0.617015	0.082947	-0.000029
O46	O	1.214109	0.101244	0.471965
C47	C	1.306331	0.119402	0.499166
H48	H	1.301389	0.149574	0.580887
H49	H	1.339335	0.153393	0.435891
C50	C	1.375235	0.015505	0.403591
C51	C	1.369165	0.052558	0.503967
H52	H	1.413997	-0.025727	0.406548
H53	H	1.313104	0.003272	0.385261
H54	H	1.402735	0.043839	0.350872
H55	H	1.341655	0.024227	0.556681
H56	H	1.431294	0.064784	0.522305
H57	H	1.278840	-0.183926	0.000027
O58	O	0.626953	0.258067	0.000215
C59	C	0.590158	0.298382	0.092713
H60	H	0.565693	0.262248	0.157393
H61	H	0.526939	0.332478	0.071791
C62	C	0.698460	0.389551	0.055204
C63	C	0.668419	0.345171	0.134648
H64	H	0.746733	0.418415	0.081070
H65	H	0.723247	0.362391	-0.007116
H66	H	0.645770	0.417957	0.037776
H67	H	0.721106	0.316759	0.152065
H68	H	0.643643	0.372326	0.196972
O69	O	1.283470	-0.634636	-0.000116
C70	C	1.342036	-0.622448	-0.092650
H71	H	1.320426	-0.569947	-0.123500
H72	H	1.333225	-0.665760	-0.157433
C73	C	1.473644	-0.686032	-0.026655
C74	C	1.447107	-0.621546	-0.064540
H75	H	1.538458	-0.685479	-0.009319
H76	H	1.434187	-0.694246	0.035685
H77	H	1.466295	-0.722119	-0.080648
H78	H	1.454446	-0.585463	-0.010544
H79	H	1.486568	-0.613327	-0.126871
H80	H	1.272589	-0.496230	0.000031
O81	O	1.023875	0.229243	0.528096
C82	C	0.931722	0.211035	0.500708
H83	H	0.933226	0.153864	0.469704
H84	H	0.907739	0.245366	0.435540
C85	C	0.859579	0.292215	0.638782
C86	C	0.861425	0.221995	0.600711
H87	H	0.816215	0.298979	0.700467
H88	H	0.921664	0.304485	0.657232
H89	H	0.839596	0.320817	0.584467
H90	H	0.881420	0.193396	0.655021
H91	H	0.799342	0.209721	0.582273
O92	O	0.945793	-0.479327	-0.000153
C93	C	0.947159	-0.440788	-0.092662
H94	H	0.999698	-0.467110	-0.157327
H95	H	0.970184	-0.385453	-0.071749
C96	C	0.782048	-0.405555	-0.055191
C97	C	0.846571	-0.437887	-0.134616
H98	H	0.720000	-0.403762	-0.081068
H99	H	0.781128	-0.431517	0.007137
H100	H	0.801247	-0.359445	-0.037770
H101	H	0.827378	-0.483999	-0.152026
H102	H	0.847486	-0.411933	-0.196948
H103	H	0.956560	-0.617823	0.000055
H104	H	1.281482	-0.051644	0.000054
H105	H	0.968105	-0.040951	0.000057
O106	O	0.951696	-0.178398	-0.000008
C107	C	0.876424	-0.127983	0.000018
H108	H	0.904858	-0.078267	-0.033802
H109	H	0.844762	-0.115779	0.085721
C110	C	0.763639	-0.217616	-0.028501
C111	C	0.798561	-0.156556	-0.070048
H112	H	0.715607	-0.235242	-0.071716
H113	H	0.814350	-0.251582	-0.028514
H114	H	0.737260	-0.207438	0.042918
H115	H	0.824949	-0.166737	-0.141459
H116	H	0.747853	-0.122592	-0.070048
