data_functionalizedCrystal
_audit_creation_method	'MofGen! by Chris Wilmer'
_symmetry_space_group_name_H-M	'P1'
_symmetry_Int_Tables_number	1
_symmetry_cell_setting	triclinic
loop_
_symmetry_equiv_pos_as_xyz
  x,y,z
_cell_length_a	20.875621
_cell_length_b	20.875641
_cell_length_c	20.875641
_cell_angle_alpha	60.089808
_cell_angle_beta	87.033849
_cell_angle_gamma	60.669978
loop_
_atom_site_label
_atom_site_type_symbol
_atom_site_fract_x
_atom_site_fract_y
_atom_site_fract_z
Zr1	Zr	0.648400	0.691973	-0.138155
O2	O	0.554238	0.818558	-0.236716
O3	O	0.673743	0.560625	-0.104489
O4	O	0.683205	0.684613	-0.238434
O5	O	0.541319	0.702035	-0.001039
O6	O	0.788944	0.684226	-0.243715
O7	O	0.544776	0.694569	-0.102771
O8	O	0.772017	0.462433	-0.004112
O9	O	0.558246	0.923828	-0.240642
O10	O	0.767719	0.616125	-0.098242
O11	O	0.686228	0.621986	-0.018379
O12	O	0.697369	0.767967	-0.176082
O13	O	0.615877	0.773828	-0.096220
Zr14	Zr	0.811528	0.703263	0.015673
Zr15	Zr	0.817041	0.691355	-0.146577
Zr16	Zr	0.642887	0.703880	0.024096
Zr17	Zr	0.654792	0.859867	-0.144416
Zr18	Zr	0.805137	0.535369	0.021935
O19	O	0.786186	0.834611	-0.017993
O20	O	0.794024	0.817680	-0.248692
O21	O	0.546400	0.835489	-0.006017
O22	O	0.905690	0.576678	0.114234
O23	O	0.913529	0.559747	-0.116465
O24	O	0.665904	0.577556	0.126210
O25	O	0.918609	0.693200	-0.121442
O26	O	0.776723	0.710622	0.115952
O27	O	0.670985	0.711009	0.121233
O28	O	0.915153	0.700666	-0.019710
O29	O	0.692293	0.923338	-0.247337
O30	O	0.767635	0.471898	0.124856
O31	O	0.901682	0.471407	0.118161
O32	O	0.906064	0.461942	-0.010807
O33	O	0.553864	0.933293	-0.111675
O34	O	0.687911	0.932802	-0.118369
O35	O	0.762560	0.627269	0.053601
O36	O	0.844051	0.621408	-0.026262
O37	O	0.773701	0.773250	-0.104102
O38	O	0.692210	0.779110	-0.024240
C39	C	0.721969	0.487608	-0.053408
C40	C	0.719256	0.416332	-0.050750
C41	C	0.519020	0.698390	-0.050705
C42	C	0.447427	0.698652	-0.047130
C43	C	0.760516	0.379788	-0.091188
C44	C	0.757969	0.312812	-0.088683
C45	C	0.714155	0.282387	-0.045744
C46	C	0.672893	0.318935	-0.005300
C47	C	0.675446	0.385905	-0.007802
C48	C	0.701963	0.082421	-0.033789
C49	C	0.699412	0.015448	-0.031293
C50	C	0.784489	0.009329	-0.114675
C51	C	0.787034	0.076304	-0.117176
C52	C	0.745775	0.112842	-0.076730
N53	N	0.711548	0.213930	-0.043184
N54	N	0.748387	0.181294	-0.079285
C55	C	0.415697	0.694665	-0.101496
C56	C	0.348430	0.694907	-0.098133
C57	C	0.312892	0.699143	-0.040405
C58	C	0.344628	0.703128	0.013967
C59	C	0.411897	0.702880	0.010606
C60	C	0.111506	0.700320	-0.024341
C61	C	0.044232	0.700571	-0.020985
C62	C	0.048039	0.692348	-0.133084
C63	C	0.115306	0.692106	-0.136443
C64	C	0.147039	0.696086	-0.082069
N65	N	0.244133	0.699393	-0.036967
N66	N	0.215799	0.695830	-0.085504
C67	C	0.940909	0.696845	-0.071776
C68	C	1.012501	0.696583	-0.075352
C69	C	0.736860	0.682723	-0.264191
C70	C	0.739200	0.677668	-0.333071
C71	C	0.737959	0.907628	-0.069073
C72	C	0.740673	0.978903	-0.071732
C73	C	0.703579	0.754551	-0.406062
C74	C	0.705788	0.749796	-0.470780
C75	C	0.743614	0.668157	-0.462504
C76	C	0.779240	0.591269	-0.389505
C77	C	0.777035	0.596025	-0.324789
C78	C	0.754150	0.645435	-0.651696
C79	C	0.756350	0.640685	-0.716419
C80	C	0.682898	0.799212	-0.797690
C81	C	0.680693	0.803961	-0.732969
C82	C	0.716323	0.727073	-0.659976
N83	N	0.745871	0.663295	-0.528654
N84	N	0.714070	0.731936	-0.593828
C85	C	0.723069	0.712512	0.141710
C86	C	0.720728	0.717567	0.210589
C87	C	0.932914	0.486835	-0.063944
C88	C	1.001793	0.415298	-0.064861
C89	C	0.715074	0.502502	0.149542
C90	C	0.710020	0.436282	0.221080
C91	C	0.926018	0.501730	0.139007
C92	C	0.992557	0.435247	0.206969
C93	C	0.533911	0.893506	-0.261488
C94	C	0.467372	0.959988	-0.329451
C95	C	0.527015	0.908400	-0.058538
C96	C	0.458136	0.979938	-0.057620
C97	C	0.744855	0.892733	-0.272024
C98	C	0.749909	0.958954	-0.343562
C99	C	0.994295	0.378945	-0.102872
C100	C	1.059008	0.311736	-0.103749
C101	C	1.131219	0.280877	-0.066610
C102	C	1.138716	0.317236	-0.028599
C103	C	1.074003	0.384448	-0.027727
C104	C	0.747491	0.407942	0.292255
C105	C	0.742739	0.345731	0.359478
C106	C	0.700521	0.311856	0.355525
C107	C	0.663045	0.340201	0.284343
C108	C	0.667793	0.402416	0.217121
C109	C	1.066349	0.400967	0.197197
C110	C	1.128876	0.338508	0.261048
C111	C	1.117609	0.310327	0.334670
C112	C	1.043810	0.344613	0.344441
C113	C	0.981284	0.407075	0.280591
C114	C	0.393580	0.994277	-0.319679
C115	C	0.331054	1.056756	-0.383530
C116	C	0.342320	1.084942	-0.457153
C117	C	0.416120	1.050650	-0.466923
C118	C	0.478645	0.988177	-0.403073
C119	C	0.465634	1.016297	-0.019617
C120	C	0.400922	1.083524	-0.018758
C121	C	0.328712	1.114385	-0.055899
C122	C	0.321215	1.078022	-0.093907
C123	C	0.385927	1.010802	-0.094770
C124	C	0.792134	0.992810	-0.339584
C125	C	0.796897	1.055022	-0.406796
C126	C	0.759431	1.083383	-0.477984
C127	C	0.717204	1.049521	-0.481960
C128	C	0.712446	0.987304	-0.414749
H129	H	0.791567	0.283057	-0.121611
H130	H	0.538728	0.960259	-0.411038
N131	N	1.082100	0.423650	0.013275
H132	H	1.059828	0.488303	-0.024272
H133	H	1.137680	0.393830	0.036663
N134	N	0.274882	1.152319	-0.526020
H135	H	0.244624	1.208003	-0.526498
H136	H	0.241678	1.129047	-0.523514
N137	N	0.630940	0.425320	0.035815
H138	H	0.593283	0.490031	-0.000968
H139	H	0.666974	0.416388	0.074242
N140	N	0.251465	1.093715	-0.372972
H141	H	0.222126	1.080334	-0.396140
H142	H	0.225186	1.159198	-0.399054
H143	H	1.183906	0.226147	-0.067326
N144	N	0.243326	1.111304	-0.133951
H145	H	0.248387	1.078073	-0.158159
H146	H	0.217534	1.175717	-0.174815
N147	N	0.454024	0.690094	-0.163760
H148	H	0.501452	0.690545	-0.157643
H149	H	0.418121	0.742245	-0.215279
H150	H	0.637281	0.425482	0.159171
N151	N	0.815456	0.513100	-0.246061
H152	H	0.808324	0.528500	-0.206320
H153	H	0.871494	0.477518	-0.241612
N154	N	0.005901	0.705121	0.041287
H155	H	-0.047066	0.759309	0.017550
H156	H	0.036264	0.707565	0.075210
N157	N	0.617522	0.303648	0.280091
H158	H	0.639048	0.273677	0.251467
H159	H	0.562820	0.352885	0.252496
N160	N	0.381414	0.963897	-0.240278
H161	H	0.432216	0.919117	-0.201303
H162	H	0.350401	0.936719	-0.231764
H163	H	0.425284	1.073607	-0.526874
H164	H	0.831280	1.082587	-0.403544
H165	H	1.197518	0.292101	0.001637
H166	H	0.796190	0.404559	-0.126158
N167	N	0.792566	0.562501	-0.572979
H168	H	0.753671	0.561086	-0.542343
H169	H	0.832914	0.560827	-0.546348
N170	N	0.832546	0.962230	-0.262808
H171	H	0.860018	0.993122	-0.270499
H172	H	0.870424	0.896947	-0.233791
H173	H	0.276025	1.169121	-0.055191
H174	H	0.781869	0.435517	0.295488
H175	H	0.524426	0.991176	0.010633
H176	H	0.822710	0.101074	-0.152141
N177	N	0.013820	0.688038	-0.191718
H178	H	0.046542	0.685315	-0.228796
H179	H	-0.038981	0.741863	-0.220401
N180	N	0.625632	0.286130	0.041011
H181	H	0.644298	0.262335	0.096409
H182	H	0.630287	0.238193	0.036398
H183	H	0.407041	1.113119	0.012195
N184	N	0.314207	0.690605	-0.156770
H185	H	0.346925	0.687889	-0.193852
H186	H	0.261405	0.744430	-0.185447
N187	N	1.078505	0.431367	0.117792
H188	H	1.052966	0.417704	0.090909
H189	H	1.134754	0.400161	0.121360
H190	H	0.379810	0.981199	-0.125715
H191	H	0.763311	1.134044	-0.532706
H192	H	0.676783	0.812402	-0.530211
N193	N	0.676796	1.080113	-0.558744
H194	H	0.686220	1.124667	-0.600712
H195	H	0.620449	1.107630	-0.562901
H196	H	0.678059	0.959746	-0.417998
H197	H	0.696662	0.261197	0.410267
H198	H	0.935504	0.404068	-0.133124
H199	H	0.818081	-0.020428	-0.147604
N200	N	0.783173	0.315151	0.436247
H201	H	0.744873	0.329050	0.466324
H202	H	0.810646	0.346056	0.428483
H203	H	0.663730	-0.009320	0.003674
H204	H	0.144240	0.688657	-0.183449
N205	N	0.657469	0.121822	0.009837
H206	H	0.629326	0.092385	0.037416
H207	H	0.619853	0.186532	-0.026986
N208	N	1.208468	0.301534	0.250500
H209	H	1.206111	0.328861	0.194171
H210	H	1.234764	0.236041	0.276651
N211	N	1.185051	0.242957	0.403534
H212	H	1.233506	0.225519	0.386165
H213	H	1.181848	0.189712	0.436729
H214	H	0.787152	0.574201	-0.709672
N215	N	0.820032	0.503216	-0.380577
H216	H	0.842265	0.455232	-0.324515
H217	H	0.862163	0.497643	-0.407636
N218	N	0.145737	0.704591	0.034315
H219	H	0.113017	0.707307	0.071395
H220	H	0.148604	0.758561	0.007748
H221	H	0.921201	0.434978	0.288558
N222	N	0.306299	0.707686	0.076233
H223	H	0.253332	0.761873	0.052496
H224	H	0.336665	0.710134	0.110149
N225	N	0.446128	0.707171	0.069248
H226	H	0.413408	0.709892	0.106329
H227	H	0.448986	0.761148	0.042668
N228	N	1.031660	0.314212	0.423848
H229	H	1.057208	0.327868	0.450729
H230	H	1.054203	0.248996	0.453601
N231	N	0.662776	0.842605	-0.414991
H232	H	0.640548	0.890587	-0.471054
H233	H	0.699879	0.847886	-0.391887
H234	H	0.653892	0.861811	-0.857126
N235	N	0.639904	0.892014	-0.741897
H236	H	0.617676	0.939999	-0.797959
H237	H	0.677014	0.897285	-0.718792
H238	H	1.052890	0.282139	-0.134702
