data_functionalizedCrystal
_audit_creation_method	'MofGen! by Chris Wilmer'
_symmetry_space_group_name_H-M	'P1'
_symmetry_Int_Tables_number	1
_symmetry_cell_setting	triclinic
loop_
_symmetry_equiv_pos_as_xyz
  x,y,z
_cell_length_a	25.639242
_cell_length_b	29.839131
_cell_length_c	25.639234
_cell_angle_alpha	90.033076
_cell_angle_beta	90.026995
_cell_angle_gamma	90.030754
loop_
_atom_site_label
_atom_site_type_symbol
_atom_site_fract_x
_atom_site_fract_y
_atom_site_fract_z
Zn1	Zn	0.799263	-0.178936	0.295711
Zn2	Zn	1.049263	0.071064	0.545711
Zn3	Zn	1.299263	0.321064	0.795711
Zn4	Zn	1.549263	0.571064	1.045711
Zn5	Zn	0.799184	-0.254058	0.208263
Zn6	Zn	1.049184	-0.004058	0.458263
Zn7	Zn	1.299184	0.245942	0.708263
Zn8	Zn	1.549184	0.495942	0.958263
Zn9	Zn	0.711831	-0.178937	0.208275
Zn10	Zn	0.961831	0.071063	0.458275
Zn11	Zn	1.211831	0.321063	0.708275
Zn12	Zn	1.461831	0.571063	0.958275
Zn13	Zn	0.711789	-0.254034	0.295653
Zn14	Zn	0.961789	-0.004034	0.545653
Zn15	Zn	1.211789	0.245966	0.795653
Zn16	Zn	1.461789	0.495966	1.045653
O17	O	0.755517	-0.216491	0.251976
O18	O	1.005517	0.033509	0.501976
O19	O	1.255517	0.283509	0.751976
O20	O	1.505517	0.533509	1.001976
O21	O	0.872417	-0.188911	0.284130
O22	O	1.122417	0.061089	0.534130
O23	O	1.372417	0.311089	0.784130
O24	O	1.622417	0.561089	1.034130
O25	O	0.787581	-0.244103	0.135099
O26	O	1.037581	0.005897	0.385099
O27	O	1.287581	0.255897	0.635099
O28	O	1.537581	0.505897	0.885099
O29	O	0.723480	-0.116070	0.219904
O30	O	0.973480	0.133930	0.469904
O31	O	1.223480	0.383930	0.719904
O32	O	1.473480	0.633930	0.969904
O33	O	0.872360	-0.244102	0.219882
O34	O	1.122360	0.005898	0.469882
O35	O	1.372360	0.255898	0.719882
O36	O	1.622360	0.505898	0.969882
O37	O	0.787715	-0.116069	0.284143
O38	O	1.037715	0.133931	0.534143
O39	O	1.287715	0.383931	0.784143
O40	O	1.537715	0.633931	1.034143
O41	O	0.723404	-0.188912	0.135109
O42	O	0.973404	0.061088	0.385109
O43	O	1.223404	0.311088	0.635109
O44	O	1.473404	0.561088	0.885109
O45	O	0.638661	-0.188889	0.219847
O46	O	0.888661	0.061111	0.469847
O47	O	1.138661	0.311111	0.719847
O48	O	1.388661	0.561111	0.969847
O49	O	0.723408	-0.244061	0.368826
O50	O	0.973408	0.005939	0.618826
O51	O	1.223408	0.255939	0.868826
O52	O	1.473408	0.505939	1.118826
O53	O	0.638630	-0.244062	0.284043
O54	O	0.888630	0.005938	0.534043
O55	O	1.138630	0.255938	0.784043
O56	O	1.388630	0.505938	1.034043
O57	O	0.787674	-0.188887	0.368869
O58	O	1.037674	0.061113	0.618869
O59	O	1.287674	0.311113	0.868869
O60	O	1.537674	0.561113	1.118869
O61	O	0.787540	-0.316922	0.219825
O62	O	1.037540	-0.066922	0.469825
O63	O	1.287540	0.183078	0.719825
O64	O	1.537540	0.433078	0.969825
O65	O	0.723332	-0.316904	0.284030
O66	O	0.973332	-0.066904	0.534030
O67	O	1.223332	0.183096	0.784030
O68	O	1.473332	0.433096	1.034030
C69	C	0.619674	-0.216473	0.251940
C70	C	0.869674	0.033527	0.501940
C71	C	1.119674	0.283527	0.751940
C72	C	1.369674	0.533527	1.001940
C73	C	0.561560	-0.216477	0.251937
C74	C	0.811560	0.033523	0.501937
C75	C	1.061560	0.283523	0.751937
C76	C	1.311560	0.533523	1.001937
C77	C	0.201190	-0.245268	0.285371
C78	C	0.451190	0.004732	0.535371
C79	C	0.701190	0.254732	0.785371
C80	C	0.951190	0.504732	1.035371
C81	C	0.146586	-0.245270	0.285379
C82	C	0.396586	0.004730	0.535379
C83	C	0.646586	0.254730	0.785379
C84	C	0.896586	0.504730	1.035379
O85	O	0.118343	-0.269728	0.313775
O86	O	0.368343	-0.019728	0.563775
O87	O	0.618343	0.230272	0.813775
O88	O	0.868343	0.480272	1.063775
N89	N	0.119278	-0.216503	0.252010
N90	N	0.369278	0.033497	0.502010
N91	N	0.619278	0.283497	0.752010
N92	N	0.869278	0.533497	1.002010
C93	C	0.146577	-0.187728	0.218634
C94	C	0.396577	0.062272	0.468634
C95	C	0.646577	0.312272	0.718634
C96	C	0.896577	0.562272	0.968634
O97	O	0.118336	-0.163260	0.190252
O98	O	0.368336	0.086740	0.440252
O99	O	0.618336	0.336740	0.690252
O100	O	0.868336	0.586740	0.940252
C101	C	0.201180	-0.187724	0.218629
C102	C	0.451180	0.062276	0.468629
C103	C	0.701180	0.312276	0.718629
C104	C	0.951180	0.562276	0.968629
C105	C	0.228485	-0.216496	0.251996
C106	C	0.478485	0.033504	0.501996
C107	C	0.728485	0.283504	0.751996
C108	C	0.978485	0.533504	1.001996
C109	C	0.228495	-0.274037	0.318736
C110	C	0.478495	-0.024037	0.568736
C111	C	0.728495	0.225963	0.818736
C112	C	0.978495	0.475963	1.068736
C113	C	0.283095	-0.274035	0.318727
C114	C	0.533095	-0.024035	0.568727
C115	C	0.783095	0.225965	0.818727
C116	C	1.033095	0.475965	1.068727
C117	C	0.310391	-0.245263	0.285352
C118	C	0.560391	0.004737	0.535352
C119	C	0.810391	0.254737	0.785352
C120	C	1.060391	0.504737	1.035352
C121	C	0.283086	-0.216494	0.251987
C122	C	0.533086	0.033506	0.501987
C123	C	0.783086	0.283506	0.751987
C124	C	1.033086	0.533506	1.001987
C125	C	0.228479	-0.158947	0.185256
C126	C	0.478479	0.091053	0.435256
C127	C	0.728479	0.341053	0.685256
C128	C	0.978479	0.591053	0.935256
C129	C	0.283086	-0.158944	0.185254
C130	C	0.533086	0.091056	0.435254
C131	C	0.783086	0.341056	0.685254
C132	C	1.033086	0.591056	0.935254
C133	C	0.310391	-0.187717	0.218621
C134	C	0.560391	0.062283	0.468621
C135	C	0.810391	0.312283	0.718621
C136	C	1.060391	0.562283	0.968621
C137	C	0.364982	-0.187720	0.218604
C138	C	0.614982	0.062280	0.468604
C139	C	0.864982	0.312280	0.718604
C140	C	1.114982	0.562280	0.968604
N141	N	0.392290	-0.216487	0.251973
N142	N	0.642290	0.033513	0.501973
N143	N	0.892290	0.283513	0.751973
N144	N	1.142290	0.533513	1.001973
C145	C	0.364994	-0.245258	0.285347
C146	C	0.614994	0.004742	0.535347
C147	C	0.864994	0.254742	0.785347
C148	C	1.114994	0.504742	1.035347
C149	C	0.031906	-0.187740	0.218648
C150	C	0.281906	0.062260	0.468648
C151	C	0.531906	0.312260	0.718648
C152	C	0.781906	0.562260	0.968648
C153	C	-0.022696	-0.187746	0.218650
C154	C	0.227304	0.062254	0.468650
C155	C	0.477304	0.312254	0.718650
C156	C	0.727304	0.562254	0.968650
C157	C	-0.022684	-0.245288	0.285396
C158	C	0.227316	0.004712	0.535396
C159	C	0.477316	0.254712	0.785396
C160	C	0.727316	0.504712	1.035396
C161	C	0.031920	-0.245283	0.285391
C162	C	0.281920	0.004717	0.535391
C163	C	0.531920	0.254717	0.785391
C164	C	0.781920	0.504717	1.035391
C165	C	0.059214	-0.216507	0.252017
C166	C	0.309214	0.033493	0.502017
C167	C	0.559214	0.283493	0.752017
C168	C	0.809214	0.533493	1.002017
C169	C	0.479659	-0.245252	0.285325
C170	C	0.729659	0.004748	0.535325
C171	C	0.979659	0.254748	0.785325
C172	C	1.229659	0.504748	1.035325
C173	C	0.534265	-0.245248	0.285312
C174	C	0.784265	0.004752	0.535312
C175	C	1.034265	0.254752	0.785312
C176	C	1.284265	0.504752	1.035312
C177	C	0.534248	-0.187705	0.218568
C178	C	0.784248	0.062295	0.468568
C179	C	1.034248	0.312295	0.718568
C180	C	1.284248	0.562295	0.968568
C181	C	0.479647	-0.187710	0.218580
C182	C	0.729647	0.062290	0.468580
C183	C	0.979647	0.312290	0.718580
C184	C	1.229647	0.562290	0.968580
C185	C	0.452354	-0.216485	0.251962
C186	C	0.702354	0.033515	0.501962
C187	C	0.952354	0.283515	0.751962
C188	C	1.202354	0.533515	1.001962
O189	O	0.393260	-0.163273	0.190224
O190	O	0.643260	0.086727	0.440224
O191	O	0.893260	0.336727	0.690224
O192	O	1.143260	0.586727	0.940224
O193	O	0.393242	-0.269719	0.313729
O194	O	0.643242	-0.019719	0.563729
O195	O	0.893242	0.230281	0.813729
O196	O	1.143242	0.480281	1.063729
C197	C	0.755437	-0.333214	0.251931
C198	C	1.005437	-0.083214	0.501931
C199	C	1.255437	0.166786	0.751931
C200	C	1.505437	0.416786	1.001931
C201	C	0.755451	-0.383148	0.251930
C202	C	1.005451	-0.133148	0.501930
C203	C	1.255451	0.116852	0.751930
C204	C	1.505451	0.366852	1.001930
C205	C	0.788957	-0.692756	0.285472
C206	C	1.038957	-0.442756	0.535472
C207	C	1.288957	-0.192756	0.785472
C208	C	1.538957	0.057244	1.035472
C209	C	0.789014	-0.880429	0.285504
C210	C	1.039014	-0.630429	0.535504
C211	C	1.289014	-0.380429	0.785504
C212	C	1.539014	-0.130429	1.035504
O213	O	0.817423	-0.904664	0.313990
O214	O	1.067423	-0.654664	0.563990
O215	O	1.317423	-0.404664	0.813990
O216	O	1.567423	-0.154664	1.063990
N217	N	0.755606	-0.903933	0.252034
N218	N	1.005606	-0.653933	0.502034
N219	N	1.255606	-0.403933	0.752034
N220	N	1.505606	-0.153933	1.002034
C221	C	0.722179	-0.880516	0.218556
C222	C	0.972179	-0.630516	0.468556
C223	C	1.222179	-0.380516	0.718556
C224	C	1.472179	-0.130516	0.968556
O225	O	0.693761	-0.904814	0.190092
O226	O	0.943761	-0.654814	0.440092
O227	O	1.193761	-0.404814	0.690092
O228	O	1.443761	-0.154814	0.940092
C229	C	0.722120	-0.692844	0.218527
C230	C	0.972120	-0.442844	0.468527
C231	C	1.222120	-0.192844	0.718527
C232	C	1.472120	0.057156	0.968527
C233	C	0.755534	-0.669342	0.251996
C234	C	1.005534	-0.419342	0.501996
C235	C	1.255534	-0.169342	0.751996
C236	C	1.505534	0.080658	1.001996
C237	C	0.822368	-0.669254	0.318939
C238	C	1.072368	-0.419254	0.568939
C239	C	1.322368	-0.169254	0.818939
C240	C	1.572368	0.080746	1.068939
C241	C	0.822355	-0.622339	0.318928
C242	C	1.072355	-0.372339	0.568928
C243	C	1.322355	-0.122339	0.818928
C244	C	1.572355	0.127661	1.068928
C245	C	0.788932	-0.598925	0.285452
C246	C	1.038932	-0.348925	0.535452
C247	C	1.288932	-0.098925	0.785452
C248	C	1.538932	0.151075	1.035452
C249	C	0.755521	-0.622427	0.251986
C250	C	1.005521	-0.372427	0.501986
C251	C	1.255521	-0.122427	0.751986
C252	C	1.505521	0.127573	1.001986
C253	C	0.688690	-0.669427	0.185052
C254	C	0.938690	-0.419427	0.435052
C255	C	1.188690	-0.169427	0.685052
C256	C	1.438690	0.080573	0.935052
C257	C	0.688678	-0.622506	0.185049
C258	C	0.938678	-0.372506	0.435049
C259	C	1.188678	-0.122506	0.685049
C260	C	1.438678	0.127494	0.935049
C261	C	0.722092	-0.599005	0.218518
C262	C	0.972092	-0.349005	0.468518
C263	C	1.222092	-0.099005	0.718518
C264	C	1.472092	0.150995	0.968518
C265	C	0.722085	-0.552097	0.218499
C266	C	0.972085	-0.302097	0.468499
C267	C	1.222085	-0.052097	0.718499
C268	C	1.472085	0.197903	0.968499
N269	N	0.755493	-0.528593	0.251969
N270	N	1.005493	-0.278593	0.501969
N271	N	1.255493	-0.028593	0.751969
N272	N	1.505493	0.221407	1.001969
C273	C	0.788916	-0.552007	0.285446
C274	C	1.038916	-0.302007	0.535446
C275	C	1.288916	-0.052007	0.785446
C276	C	1.538916	0.197993	1.035446
C277	C	0.722213	-0.979046	0.218572
C278	C	0.972213	-0.729046	0.468572
C279	C	1.222213	-0.479046	0.718572
C280	C	1.472213	-0.229046	0.968572
C281	C	0.722228	-1.025964	0.218578
C282	C	0.972228	-0.775964	0.468578
C283	C	1.222228	-0.525964	0.718578
C284	C	1.472228	-0.275964	0.968578
C285	C	0.789062	-1.025874	0.285527
C286	C	1.039062	-0.775874	0.535527
C287	C	1.289062	-0.525874	0.785527
C288	C	1.539062	-0.275874	1.035527
C289	C	0.789049	-0.978956	0.285518
C290	C	1.039049	-0.728956	0.535518
C291	C	1.289049	-0.478956	0.785518
C292	C	1.539049	-0.228956	1.035518
C293	C	0.755621	-0.955542	0.252042
C294	C	1.005621	-0.705542	0.502042
C295	C	1.255621	-0.455542	0.752042
C296	C	1.505621	-0.205542	1.002042
C297	C	0.788888	-0.453481	0.285421
C298	C	1.038888	-0.203481	0.535421
C299	C	1.288888	0.046519	0.785421
C300	C	1.538888	0.296519	1.035421
C301	C	0.788874	-0.406562	0.285407
C302	C	1.038874	-0.156562	0.535407
C303	C	1.288874	0.093438	0.785407
C304	C	1.538874	0.343438	1.035407
C305	C	0.722038	-0.406656	0.218460
C306	C	0.972038	-0.156656	0.468460
C307	C	1.222038	0.093344	0.718460
C308	C	1.472038	0.343344	0.968460
C309	C	0.722054	-0.453571	0.218472
C310	C	0.972054	-0.203571	0.468472
C311	C	1.222054	0.046429	0.718472
C312	C	1.472054	0.296429	0.968472
C313	C	0.755480	-0.476983	0.251957
C314	C	1.005480	-0.226983	0.501957
C315	C	1.255480	0.023017	0.751957
C316	C	1.505480	0.273017	1.001957
O317	O	0.693686	-0.527834	0.190032
O318	O	0.943686	-0.277834	0.440032
O319	O	1.193686	-0.027834	0.690032
O320	O	1.443686	0.222166	0.940032
O321	O	0.817322	-0.527701	0.313913
O322	O	1.067322	-0.277701	0.563913
O323	O	1.317322	-0.027701	0.813913
O324	O	1.567322	0.222299	1.063913
C325	C	0.788969	-0.739671	0.285483
C326	C	1.038969	-0.489671	0.535483
C327	C	1.288969	-0.239671	0.785483
C328	C	1.538969	0.010329	1.035483
C329	C	0.755559	-0.763173	0.252016
C330	C	1.005559	-0.513173	0.502016
C331	C	1.255559	-0.263173	0.752016
C332	C	1.505559	-0.013173	1.002016
C333	C	0.722135	-0.739759	0.218540
C334	C	0.972135	-0.489759	0.468540
C335	C	1.222135	-0.239759	0.718540
C336	C	1.472135	0.010241	0.968540
C337	C	0.755574	-0.810091	0.252023
C338	C	1.005574	-0.560091	0.502023
C339	C	1.255574	-0.310091	0.752023
C340	C	1.505574	-0.060091	1.002023
C341	C	0.788997	-0.833505	0.285499
C342	C	1.038997	-0.583505	0.535499
C343	C	1.288997	-0.333505	0.785499
C344	C	1.538997	-0.083505	1.035499
C345	C	0.822405	-0.810001	0.318969
C346	C	1.072405	-0.560001	0.568969
C347	C	1.322405	-0.310001	0.818969
C348	C	1.572405	-0.060001	1.068969
C349	C	0.822393	-0.763085	0.318959
C350	C	1.072393	-0.513085	0.568959
C351	C	1.322393	-0.263085	0.818959
C352	C	1.572393	-0.013085	1.068959
C353	C	0.688727	-0.763263	0.185070
C354	C	0.938727	-0.513263	0.435070
C355	C	1.188727	-0.263263	0.685070
C356	C	1.438727	-0.013263	0.935070
C357	C	0.688743	-0.810179	0.185082
C358	C	0.938743	-0.560179	0.435082
C359	C	1.188743	-0.310179	0.685082
C360	C	1.438743	-0.060179	0.935082
C361	C	0.722166	-0.833592	0.218559
C362	C	0.972166	-0.583592	0.468559
C363	C	1.222166	-0.333592	0.718559
C364	C	1.472166	-0.083592	0.968559
C365	C	0.891890	-0.216509	0.252011
C366	C	1.141890	0.033491	0.502011
C367	C	1.391890	0.283491	0.752011
C368	C	1.641890	0.533491	1.002011
C369	C	0.950004	-0.216517	0.252027
C370	C	1.200004	0.033483	0.502027
C371	C	1.450004	0.283483	0.752027
C372	C	1.700004	0.533483	1.002027
C373	C	0.755545	-0.216471	0.388349
C374	C	1.005545	0.033529	0.638349
C375	C	1.255545	0.283529	0.888349
C376	C	1.505545	0.533529	1.138349
C377	C	0.755557	-0.216463	0.446463
C378	C	1.005557	0.033537	0.696463
C379	C	1.255557	0.283537	0.946463
C380	C	1.505557	0.533537	1.196463
C381	C	0.755611	-0.099313	0.252031
C382	C	1.005611	0.150687	0.502031
C383	C	1.255611	0.400687	0.752031
C384	C	1.505611	0.650687	1.002031
C385	C	0.755651	-0.049378	0.252055
C386	C	1.005651	0.200622	0.502055
C387	C	1.255651	0.450622	0.752055
C388	C	1.505651	0.700622	1.002055
C389	C	0.755519	-0.216478	0.116133
C390	C	1.005519	0.033522	0.366133
C391	C	1.255519	0.283522	0.616133
C392	C	1.505519	0.533522	0.866133
C393	C	0.755608	-0.216360	0.058019
C394	C	1.005608	0.033640	0.308019
C395	C	1.255608	0.283640	0.558019
C396	C	1.505608	0.533640	0.808019
C397	C	0.788988	-0.245164	0.697644
C398	C	1.038988	0.004836	0.947644
C399	C	1.288988	0.254836	1.197644
C400	C	1.538988	0.504836	1.447644
C401	C	0.788983	-0.245173	0.643039
C402	C	1.038983	0.004827	0.893039
C403	C	1.288983	0.254827	1.143039
C404	C	1.538983	0.504827	1.393039
O405	O	0.817383	-0.269626	0.614792
O406	O	1.067383	-0.019626	0.864792
O407	O	1.317383	0.230374	1.114792
O408	O	1.567383	0.480374	1.364792
N409	N	0.755569	-0.216441	0.615737
N410	N	1.005569	0.033559	0.865737
N411	N	1.255569	0.283559	1.115737
N412	N	1.505569	0.533559	1.365737
C413	C	0.722154	-0.187701	0.643041
C414	C	0.972154	0.062299	0.893041
C415	C	1.222154	0.312299	1.143041
C416	C	1.472154	0.562299	1.393041
O417	O	0.693732	-0.163263	0.614804
O418	O	0.943732	0.086737	0.864804
O419	O	1.193732	0.336737	1.114804
O420	O	1.443732	0.586737	1.364804
C421	C	0.722157	-0.187694	0.697644
C422	C	0.972157	0.062306	0.947644
C423	C	1.222157	0.312306	1.197644
C424	C	1.472157	0.562306	1.447644
C425	C	0.755577	-0.216425	0.724944
C426	C	1.005577	0.033575	0.974944
C427	C	1.255577	0.283575	1.224944
C428	C	1.505577	0.533575	1.474944
C429	C	0.822405	-0.273893	0.724944
C430	C	1.072405	-0.023893	0.974944
C431	C	1.322405	0.226107	1.224944
C432	C	1.572405	0.476107	1.474944
C433	C	0.822411	-0.273883	0.779544
C434	C	1.072411	-0.023883	1.029544
C435	C	1.322411	0.226117	1.279544
C436	C	1.572411	0.476117	1.529544
C437	C	0.789000	-0.245144	0.806845
C438	C	1.039000	0.004856	1.056845
C439	C	1.289000	0.254856	1.306845
C440	C	1.539000	0.504856	1.556845
C441	C	0.755583	-0.216415	0.779545
C442	C	1.005583	0.033585	1.029545
C443	C	1.255583	0.283585	1.279545
C444	C	1.505583	0.533585	1.529545
C445	C	0.688741	-0.158956	0.724948
C446	C	0.938741	0.091044	0.974948
C447	C	1.188741	0.341044	1.224948
C448	C	1.438741	0.591044	1.474948
C449	C	0.688746	-0.158952	0.779555
C450	C	0.938746	0.091048	1.029555
C451	C	1.188746	0.341048	1.279555
C452	C	1.438746	0.591048	1.529555
C453	C	0.722166	-0.187683	0.806855
C454	C	0.972166	0.062317	1.056855
C455	C	1.222166	0.312317	1.306855
C456	C	1.472166	0.562317	1.556855
C457	C	0.722179	-0.187666	0.861446
C458	C	0.972179	0.062334	1.111446
C459	C	1.222179	0.312334	1.361446
C460	C	1.472179	0.562334	1.611446
N461	N	0.755593	-0.216398	0.888749
N462	N	1.005593	0.033602	1.138749
N463	N	1.255593	0.283602	1.388749
N464	N	1.505593	0.533602	1.638749
C465	C	0.789004	-0.245137	0.861448
C466	C	1.039004	0.004863	1.111448
C467	C	1.289004	0.254863	1.361448
C468	C	1.539004	0.504863	1.611448
C469	C	0.722149	-0.187718	0.528370
C470	C	0.972149	0.062282	0.778370
C471	C	1.222149	0.312282	1.028370
C472	C	1.472149	0.562282	1.278370
C473	C	0.722148	-0.187722	0.473768
C474	C	0.972148	0.062278	0.723768
C475	C	1.222148	0.312278	0.973768
C476	C	1.472148	0.562278	1.223768
C477	C	0.788976	-0.245195	0.473770
C478	C	1.038976	0.004805	0.723770
C479	C	1.288976	0.254805	0.973770
C480	C	1.538976	0.504805	1.223770
C481	C	0.788979	-0.245188	0.528374
C482	C	1.038979	0.004812	0.778374
C483	C	1.288979	0.254812	1.028374
C484	C	1.538979	0.504812	1.278374
C485	C	0.755563	-0.216450	0.555673
C486	C	1.005563	0.033550	0.805673
C487	C	1.255563	0.283550	1.055673
C488	C	1.505563	0.533550	1.305673
C489	C	0.789014	-0.245113	0.976113
C490	C	1.039014	0.004887	1.226113
C491	C	1.289014	0.254887	1.476113
C492	C	1.539014	0.504887	1.726113
C493	C	0.789019	-0.245099	1.030719
C494	C	1.039019	0.004901	1.280719
C495	C	1.289019	0.254901	1.530719
C496	C	1.539019	0.504901	1.780719
C497	C	0.722189	-0.187628	1.030712
C498	C	0.972189	0.062372	1.280712
C499	C	1.222189	0.312372	1.530712
C500	C	1.472189	0.562372	1.780712
C501	C	0.722186	-0.187640	0.976111
C502	C	0.972186	0.062360	1.226111
C503	C	1.222186	0.312360	1.476111
C504	C	1.472186	0.562360	1.726111
C505	C	0.755600	-0.216386	0.948813
C506	C	1.005600	0.033614	1.198813
C507	C	1.255600	0.283614	1.448813
C508	C	1.505600	0.533614	1.698813
O509	O	0.693792	-0.163227	0.889728
O510	O	0.943792	0.086773	1.139728
O511	O	1.193792	0.336773	1.389728
O512	O	1.443792	0.586773	1.639728
O513	O	0.817416	-0.269575	0.889692
O514	O	1.067416	-0.019575	1.139692
O515	O	1.317416	0.230425	1.389692
O516	O	1.567416	0.480425	1.639692
H517	H	0.556494	-0.268680	0.312484
H518	H	0.806494	-0.018680	0.562484
H519	H	1.056494	0.231320	0.812484
H520	H	1.306494	0.481320	1.062484
H521	H	0.849562	-0.603207	0.346183
H522	H	1.099562	-0.353207	0.596183
H523	H	1.349562	-0.103207	0.846183
H524	H	1.599562	0.146793	1.096183
H525	H	0.457444	-0.268682	0.312510
H526	H	0.707444	-0.018682	0.562510
H527	H	0.957444	0.231318	0.812510
H528	H	1.207444	0.481318	1.062510
H529	H	0.816257	-0.959823	0.312771
H530	H	1.066257	-0.709823	0.562771
H531	H	1.316257	-0.459823	0.812771
H532	H	1.566257	-0.209823	1.062771
H533	H	0.305322	-0.297463	0.345899
H534	H	0.555322	-0.047463	0.595899
H535	H	0.805322	0.202537	0.845899
H536	H	1.055322	0.452537	1.095899
H537	H	0.849624	-0.297280	0.801767
H538	H	1.099624	-0.047280	1.051767
H539	H	1.349624	0.202720	1.301767
H540	H	1.599624	0.452720	1.551767
H541	H	0.206277	-0.297467	0.345916
H542	H	0.456277	-0.047467	0.595916
H543	H	0.706277	0.202533	0.845916
H544	H	0.956277	0.452533	1.095916
H545	H	0.694980	-0.164239	0.953882
H546	H	0.944980	0.085761	1.203882
H547	H	1.194980	0.335761	1.453882
H548	H	1.444980	0.585761	1.703882
H549	H	0.694988	-0.164228	1.052950
H550	H	0.944988	0.085772	1.302950
H551	H	1.194988	0.335772	1.552950
H552	H	1.444988	0.585772	1.802950
H553	H	0.054148	-0.268712	0.312562
H554	H	0.304148	-0.018712	0.562562
H555	H	0.554148	0.231288	0.812562
H556	H	0.804148	0.481288	1.062562
H557	H	-0.044918	-0.268714	0.312573
H558	H	0.205082	-0.018714	0.562573
H559	H	0.455082	0.231286	0.812573
H560	H	0.705082	0.481286	1.062573
H561	H	0.305306	-0.135508	0.158079
H562	H	0.555306	0.114492	0.408079
H563	H	0.805306	0.364492	0.658079
H564	H	1.055306	0.614492	0.908079
H565	H	0.816181	-0.268597	0.451532
H566	H	1.066181	-0.018597	0.701532
H567	H	1.316181	0.231403	0.951532
H568	H	1.566181	0.481403	1.201532
H569	H	-0.044923	-0.164322	0.191474
H570	H	0.205077	0.085678	0.441474
H571	H	0.455077	0.335678	0.691474
H572	H	0.705077	0.585678	0.941474
H573	H	0.849585	-0.688313	0.346202
H574	H	1.099585	-0.438313	0.596202
H575	H	1.349585	-0.188313	0.846202
H576	H	1.599585	0.061687	1.096202
H577	H	0.054126	-0.164307	0.191467
H578	H	0.304126	0.085693	0.441467
H579	H	0.554126	0.335693	0.691467
H580	H	0.804126	0.585693	0.941467
H581	H	0.849613	-0.297298	0.702722
H582	H	1.099613	-0.047298	0.952722
H583	H	1.349613	0.202702	1.202722
H584	H	1.599613	0.452702	1.452722
H585	H	0.816236	-0.268496	1.052944
H586	H	1.066236	-0.018496	1.302944
H587	H	1.316236	0.231504	1.552944
H588	H	1.566236	0.481504	1.802944
H589	H	0.816278	-1.044946	0.312785
H590	H	1.066278	-0.794946	0.562785
H591	H	1.316278	-0.544946	0.812785
H592	H	1.566278	-0.294946	1.062785
H593	H	0.694990	-0.959987	0.191311
H594	H	0.944990	-0.709987	0.441311
H595	H	1.194990	-0.459987	0.691311
H596	H	1.444990	-0.209987	0.941311
H597	H	0.661454	-0.603446	0.157790
H598	H	0.911454	-0.353446	0.407790
H599	H	1.161454	-0.103446	0.657790
H600	H	1.411454	0.146554	0.907790
H601	H	0.816085	-0.387428	0.312661
H602	H	1.066085	-0.137428	0.562661
H603	H	1.316085	0.112572	0.812661
H604	H	1.566085	0.362572	1.062661
H605	H	0.206256	-0.135519	0.158083
H606	H	0.456256	0.114481	0.408083
H607	H	0.706256	0.364481	0.658083
H608	H	0.956256	0.614481	0.908083
H609	H	0.661509	-0.744203	0.157809
H610	H	0.911509	-0.494203	0.407809
H611	H	1.161509	-0.244203	0.657809
H612	H	1.411509	0.005797	0.907809
H613	H	0.457414	-0.164282	0.191408
H614	H	0.707414	0.085718	0.441408
H615	H	0.957414	0.335718	0.691408
H616	H	1.207414	0.585718	0.941408
H617	H	0.661525	-0.135561	0.702729
H618	H	0.911525	0.114439	0.952729
H619	H	1.161525	0.364439	1.202729
H620	H	1.411525	0.614439	1.452729
H621	H	0.661481	-0.688554	0.157798
H622	H	0.911481	-0.438554	0.407798
H623	H	1.161481	-0.188554	0.657798
H624	H	1.411481	0.061446	0.907798
H625	H	0.695025	-1.045095	0.191319
H626	H	0.945025	-0.795095	0.441319
H627	H	1.195025	-0.545095	0.691319
H628	H	1.445025	-0.295095	0.941319
H629	H	0.556482	-0.164281	0.191394
H630	H	0.806482	0.085719	0.441394
H631	H	1.056482	0.335719	0.691394
H632	H	1.306482	0.585719	0.941394
H633	H	0.849621	-0.829073	0.346225
H634	H	1.099621	-0.579073	0.596225
H635	H	1.349621	-0.329073	0.846225
H636	H	1.599621	-0.079073	1.096225
H637	H	0.694939	-0.164311	0.550594
H638	H	0.944939	0.085689	0.800594
H639	H	1.194939	0.335689	1.050594
H640	H	1.444939	0.585689	1.300594
H641	H	0.694827	-0.387585	0.191202
H642	H	0.944827	-0.137585	0.441202
H643	H	1.194827	0.112415	0.691202
H644	H	1.444827	0.362415	0.941202
H645	H	0.694850	-0.472707	0.191215
H646	H	0.944850	-0.222707	0.441215
H647	H	1.194850	0.027293	0.691215
H648	H	1.444850	0.277293	0.941215
H649	H	0.816104	-0.472538	0.312692
H650	H	1.066104	-0.222538	0.562692
H651	H	1.316104	0.027462	0.812692
H652	H	1.566104	0.277462	1.062692
H653	H	0.849601	-0.743954	0.346212
H654	H	1.099601	-0.493954	0.596212
H655	H	1.349601	-0.243954	0.846212
H656	H	1.599601	0.006046	1.096212
H657	H	0.661534	-0.829309	0.157823
H658	H	0.911534	-0.579309	0.407823
H659	H	1.161534	-0.329309	0.657823
H660	H	1.411534	-0.079309	0.907823
H661	H	0.816227	-0.268518	0.953894
H662	H	1.066227	-0.018518	1.203894
H663	H	1.316227	0.231482	1.453894
H664	H	1.566227	0.481482	1.703894
H665	H	0.661534	-0.135549	0.801779
H666	H	0.911534	0.114451	1.051779
H667	H	1.161534	0.364451	1.301779
H668	H	1.411534	0.614451	1.551779
H669	H	0.816193	-0.268584	0.550598
H670	H	1.066193	-0.018584	0.800598
H671	H	1.316193	0.231416	1.050598
H672	H	1.566193	0.481416	1.300598
H673	H	0.694940	-0.164321	0.451545
H674	H	0.944940	0.085679	0.701545
H675	H	1.194940	0.335679	0.951545
H676	H	1.444940	0.585679	1.201545
