data_functionalizedCrystal
_audit_creation_method	'MofGen! by Chris Wilmer'
_symmetry_space_group_name_H-M	'P1'
_symmetry_Int_Tables_number	1
_symmetry_cell_setting	triclinic
loop_
_symmetry_equiv_pos_as_xyz
  x,y,z
_cell_length_a	10.723023
_cell_length_b	10.540539
_cell_length_c	9.798715
_cell_angle_alpha	90.000999
_cell_angle_beta	90.003303
_cell_angle_gamma	84.496520
loop_
_atom_site_label
_atom_site_type_symbol
_atom_site_fract_x
_atom_site_fract_y
_atom_site_fract_z
O1	O	1.657276	0.178041	0.113480
O2	O	1.294132	0.195085	0.113483
O3	O	1.483989	0.001852	0.113480
O4	O	1.467419	0.371274	0.113483
O5	O	1.483975	0.001852	-0.113502
O6	O	1.294119	0.195084	-0.113499
O7	O	1.657263	0.178041	-0.113502
Zn8	Zn	1.475688	0.186562	-0.149539
Zn9	Zn	1.475706	0.186563	0.149520
O10	O	1.467406	0.371273	-0.113499
C11	C	1.247625	0.193844	-0.000007
C12	C	1.109069	0.190134	-0.000006
C13	C	1.482739	-0.045450	-0.000009
C14	C	1.479022	-0.186397	-0.000001
C15	C	0.904091	0.184645	-0.117585
C16	C	1.047296	0.188480	-0.117589
C17	C	1.336564	-0.369750	0.000509
C18	C	1.340333	-0.223134	-0.000002
C19	C	1.545758	-0.248089	-0.129620
C20	C	1.541024	-0.394631	-0.129729
C21	C	1.543860	-0.395150	0.128392
C22	C	1.545138	-0.248169	0.130106
C23	C	1.703769	0.179281	-0.000008
C24	C	1.842326	0.182991	-0.000001
C25	C	1.468655	0.418576	-0.000007
C26	C	1.472373	0.559522	-0.000005
N27	N	1.475686	0.186561	-0.353638
C28	C	1.402900	0.112948	-0.421448
C29	C	1.402917	0.112944	-0.578611
N30	N	1.475719	0.186554	0.353620
H31	H	0.850951	0.183229	-0.218250
H32	H	1.340606	0.049918	-0.636925
C33	C	1.483109	-0.190518	-0.259932
N34	N	1.435913	-0.147158	-0.358080
C35	C	1.318862	0.027638	-0.342696
N36	N	1.255625	-0.036683	-0.283383
H37	H	1.538006	0.249587	-0.411937
C38	C	1.675769	-0.459507	-0.137695
N39	N	1.777258	-0.508366	-0.143704
C40	C	1.683344	-0.217936	-0.136154
N41	N	1.786971	-0.195214	-0.141079
C42	C	1.119048	0.190422	-0.253592
N43	N	1.173094	0.191895	-0.356034
C44	C	1.262547	-0.408362	0.126073
N45	N	1.206795	-0.437457	0.220649
C46	C	1.559913	0.271698	-0.567613
N47	N	1.623328	0.335829	-0.508276
C48	C	1.474365	-0.432695	-0.260617
N49	N	1.424150	-0.461357	-0.359202
C50	C	1.268884	-0.166681	-0.125739
N51	N	1.215067	-0.124163	-0.220451
H52	H	1.496308	-0.207285	0.225994
C53	C	1.037322	0.188212	0.136003
N54	N	0.983273	0.186766	0.238445
C55	C	1.483223	-0.437738	0.261114
N56	N	1.437538	-0.469814	0.361074
H57	H	0.895464	0.184422	0.100664
H58	H	1.646253	-0.224000	0.137932
H59	H	1.644035	-0.442428	0.129263
H60	H	1.287821	-0.180503	0.092914
C61	C	1.262858	-0.410480	-0.124388
N62	N	1.207351	-0.441148	-0.218473
