data_functionalizedCrystal
_audit_creation_method	'MofGen! by Chris Wilmer'
_symmetry_space_group_name_H-M	'P1'
_symmetry_Int_Tables_number	1
_symmetry_cell_setting	triclinic
loop_
_symmetry_equiv_pos_as_xyz
  x,y,z
_cell_length_a	14.908571
_cell_length_b	12.759394
_cell_length_c	14.908308
_cell_angle_alpha	86.729849
_cell_angle_beta	89.824947
_cell_angle_gamma	86.710219
loop_
_atom_site_label
_atom_site_type_symbol
_atom_site_fract_x
_atom_site_fract_y
_atom_site_fract_z
Zn1	Zn	1.345348	-0.548283	0.587607
Zn2	Zn	1.845348	-0.048283	1.087607
Zn3	Zn	1.353944	-0.714463	0.437254
Zn4	Zn	1.853944	-0.214463	0.937254
Zn5	Zn	1.203661	-0.528103	0.428603
Zn6	Zn	1.703661	-0.028103	0.928603
Zn7	Zn	1.194972	-0.713215	0.578906
Zn8	Zn	1.694972	-0.213215	1.078906
O9	O	1.274481	-0.626016	0.508093
O10	O	1.774481	-0.126016	1.008093
O11	O	1.472315	-0.579295	0.574924
O12	O	1.972315	-0.079295	1.074924
O13	O	1.341243	-0.681819	0.310282
O14	O	1.841243	-0.181819	0.810282
O15	O	1.222495	-0.383763	0.449716
O16	O	1.722495	0.116237	0.949716
O17	O	1.478631	-0.701387	0.464460
O18	O	1.978631	-0.201387	0.964460
O19	O	1.326592	-0.398589	0.566535
O20	O	1.826592	0.101411	1.066535
O21	O	1.230831	-0.544901	0.303926
O22	O	1.730831	-0.044901	0.803926
O23	O	1.076682	-0.543691	0.441280
O24	O	1.576682	-0.043691	0.941280
O25	O	1.207686	-0.699260	0.705885
O26	O	1.707686	-0.199260	1.205885
O27	O	1.070298	-0.679692	0.551706
O28	O	1.570298	-0.179692	1.051706
O29	O	1.318166	-0.578085	0.712277
O30	O	1.818166	-0.078085	1.212277
O31	O	1.332817	-0.861315	0.456024
O32	O	1.832817	-0.361315	0.956024
O33	O	1.216021	-0.860398	0.560095
O34	O	1.716021	-0.360398	1.060095
C35	C	1.040864	-0.609367	0.494611
C36	C	1.540864	-0.109367	0.994611
C37	C	0.940921	-0.602271	0.488864
C38	C	1.440921	-0.102271	0.988864
C39	C	0.746525	-0.730754	0.592899
C40	C	1.246525	-0.230754	1.092899
C41	C	0.652619	-0.724090	0.587503
C42	C	1.152619	-0.224090	1.087503
C43	C	0.659200	-0.582275	0.472682
C44	C	1.159200	-0.082275	0.972682
C45	C	0.753106	-0.588939	0.478078
C46	C	1.253106	-0.088939	0.978078
C47	C	0.796766	-0.663182	0.538187
C48	C	1.296766	-0.163182	1.038187
C49	C	0.890674	-0.669850	0.543578
C50	C	1.390674	-0.169850	1.043578
C51	C	0.897253	-0.528031	0.428762
C52	C	1.397253	-0.028031	0.928762
C53	C	0.803346	-0.521367	0.423366
C54	C	1.303346	-0.021367	0.923366
C55	C	1.274432	-0.898979	0.508075
C56	C	1.774432	-0.398979	1.008075
C57	C	1.274492	-1.015762	0.508102
C58	C	1.774492	-0.515762	1.008102
C59	C	1.382797	-1.031041	0.629827
C60	C	1.882797	-0.531041	1.129827
C61	C	1.436977	-1.093544	0.690698
C62	C	1.936977	-0.593544	1.190698
C63	C	1.437029	-1.203271	0.690720
C64	C	1.937029	-0.703271	1.190720
C65	C	1.382893	-1.250496	0.629867
C66	C	1.882893	-0.750496	1.129867
C67	C	1.328713	-1.187993	0.568996
C68	C	1.828713	-0.687993	1.068996
C69	C	1.328669	-1.078265	0.568979
C70	C	1.828669	-0.578265	1.068979
C71	C	1.220405	-1.172714	0.447277
C72	C	1.720405	-0.672714	0.947277
C73	C	1.220356	-1.062987	0.447249
C74	C	1.720356	-0.562987	0.947249
C75	C	1.166269	-1.219939	0.386424
C76	C	1.666269	-0.719939	0.886424
C77	C	1.112092	-1.157436	0.325548
C78	C	1.612092	-0.657436	0.825548
C79	C	1.112043	-1.047703	0.325527
C80	C	1.612043	-0.547703	0.825527
C81	C	1.166176	-1.000484	0.386378
C82	C	1.666176	-0.500484	0.886378
C83	C	1.509011	-0.642731	0.521628
C84	C	2.009011	-0.142731	1.021628
C85	C	1.608953	-0.649854	0.527395
C86	C	2.108953	-0.149854	1.027395
C87	C	1.260998	-0.640784	0.742618
C88	C	1.760998	-0.140784	1.242618
C89	C	1.255252	-0.647077	0.842559
C90	C	1.755252	-0.147077	1.342559
C91	C	1.274554	-0.351990	0.508131
C92	C	1.774554	0.148010	1.008131
C93	C	1.274585	-0.235217	0.508148
C94	C	1.774585	0.264783	1.008148
C95	C	1.287964	-0.611234	0.274482
C96	C	1.787964	-0.111234	0.774482
C97	C	1.293885	-0.604657	0.174552
C98	C	1.793885	-0.104657	0.674552
C99	C	1.359495	-0.532698	1.037017
C100	C	1.859495	-0.032698	1.537017
C101	C	1.354099	-0.538608	1.130921
C102	C	1.854099	-0.038608	1.630921
C103	C	1.239060	-0.664799	1.124272
C104	C	1.739060	-0.164799	1.624272
C105	C	1.244456	-0.658890	1.030368
C106	C	1.744456	-0.158890	1.530368
C107	C	1.304677	-0.592838	0.986744
C108	C	1.804677	-0.092838	1.486744
C109	C	1.310077	-0.586935	0.892839
C110	C	1.810077	-0.086935	1.392839
C111	C	1.195033	-0.713120	0.886192
C112	C	1.695033	-0.213120	1.386192
C113	C	1.189637	-0.719030	0.980095
C114	C	1.689637	-0.219030	1.480095
H115	H	0.767786	-0.460919	0.374429
H116	H	1.267786	0.039081	0.874429
H117	H	1.382768	-0.941697	0.629807
H118	H	1.882768	-0.441697	1.129807
H119	H	1.408534	-0.478922	1.001498
H120	H	1.908534	0.021078	1.501498
H121	H	1.068015	-1.195896	0.276010
H122	H	1.568015	-0.695896	0.776010
H123	H	0.938168	-0.473011	0.384209
H124	H	1.438168	0.026989	0.884209
H125	H	1.481052	-1.055084	0.740246
H126	H	1.981052	-0.555084	1.240246
H127	H	1.398736	-0.489633	1.171849
H128	H	1.898736	0.010367	1.671849
H129	H	1.190031	-0.718575	1.159807
H130	H	1.690031	-0.218575	1.659807
H131	H	0.623636	-0.521825	0.423749
H132	H	1.123636	-0.021825	0.923749
H133	H	1.481137	-1.254161	0.740295
H134	H	1.981137	-0.754161	1.240295
H135	H	1.382933	-1.339842	0.629898
H136	H	1.882933	-0.839842	1.129898
H137	H	0.926220	-0.730304	0.592521
H138	H	1.426220	-0.230304	1.092521
H139	H	1.150398	-0.762094	0.845250
H140	H	1.650398	-0.262094	1.345250
H141	H	1.140605	-0.772805	1.015627
H142	H	1.640605	-0.272805	1.515627
H143	H	0.611717	-0.779112	0.632057
H144	H	1.111717	-0.279112	1.132057
H145	H	1.067919	-0.996818	0.275962
H146	H	1.567919	-0.496818	0.775962
H147	H	0.782074	-0.791210	0.641838
H148	H	1.282074	-0.291210	1.141838
H149	H	1.166145	-0.911140	0.386364
H150	H	1.666145	-0.411140	0.886364
H151	H	1.166312	-1.309285	0.386450
H152	H	1.666312	-0.809285	0.886450
H153	H	1.359113	-0.533154	0.857322
H154	H	1.859113	-0.033154	1.357322
