data_functionalizedCrystal
_audit_creation_method	'MofGen! by Chris Wilmer'
_symmetry_space_group_name_H-M	'P1'
_symmetry_Int_Tables_number	1
_symmetry_cell_setting	triclinic
loop_
_symmetry_equiv_pos_as_xyz
  x,y,z
_cell_length_a	21.395362
_cell_length_b	21.295417
_cell_length_c	21.395355
_cell_angle_alpha	90.020404
_cell_angle_beta	90.043940
_cell_angle_gamma	90.045579
loop_
_atom_site_label
_atom_site_type_symbol
_atom_site_fract_x
_atom_site_fract_y
_atom_site_fract_z
Zn1	Zn	0.957864	-0.250415	0.354577
Zn2	Zn	1.291197	0.082918	0.687911
Zn3	Zn	1.624531	0.416251	1.021244
Zn4	Zn	0.957768	-0.355667	0.249796
Zn5	Zn	1.291102	-0.022334	0.583130
Zn6	Zn	1.624435	0.311000	0.916463
Zn7	Zn	0.853079	-0.250445	0.249779
Zn8	Zn	1.186412	0.082889	0.583112
Zn9	Zn	1.519745	0.416222	0.916445
Zn10	Zn	0.853050	-0.355680	0.354501
Zn11	Zn	1.186383	-0.022346	0.687834
Zn12	Zn	1.519716	0.310987	1.021168
O13	O	0.905440	-0.303052	0.302163
O14	O	1.238774	0.030282	0.635497
O15	O	1.572107	0.363615	0.968830
O16	O	1.045529	-0.264359	0.340717
O17	O	1.378862	0.068974	0.674051
O18	O	1.712196	0.402307	1.007384
O19	O	0.943853	-0.341716	0.162116
O20	O	1.277186	-0.008382	0.495449
O21	O	1.610520	0.324951	0.828783
O22	O	0.867031	-0.162351	0.263705
O23	O	1.200364	0.170982	0.597038
O24	O	1.533698	0.504315	0.930372
O25	O	1.045459	-0.341687	0.263735
O26	O	1.378792	-0.008354	0.597069
O27	O	1.712125	0.324979	0.930402
O28	O	0.944016	-0.162330	0.340700
O29	O	1.277349	0.171004	0.674033
O30	O	1.610683	0.504337	1.007367
O31	O	0.866938	-0.264409	0.162103
O32	O	1.200272	0.068924	0.495436
O33	O	1.533605	0.402257	0.828770
O34	O	0.765397	-0.264422	0.263631
O35	O	1.098730	0.068911	0.596964
O36	O	1.432064	0.402245	0.930298
O37	O	0.866982	-0.341709	0.442189
O38	O	1.200315	-0.008376	0.775523
O39	O	1.533648	0.324957	1.108856
O40	O	0.765376	-0.341738	0.340570
O41	O	1.098709	-0.008404	0.673903
O42	O	1.432042	0.324929	1.007237
O43	O	0.943988	-0.264372	0.442245
O44	O	1.277321	0.068961	0.775579
O45	O	1.610655	0.402295	1.108912
O46	O	0.943825	-0.443758	0.263661
O47	O	1.277158	-0.110425	0.596995
O48	O	1.610492	0.222909	0.930328
O49	O	0.866889	-0.443767	0.340587
O50	O	1.200222	-0.110434	0.673921
O51	O	1.533555	0.222899	1.007254
C52	C	0.742652	-0.303085	0.302091
C53	C	1.075986	0.030248	0.635424
C54	C	1.409319	0.363582	0.968757
C55	C	0.673011	-0.303114	0.302074
C56	C	1.006345	0.030219	0.635408
C57	C	1.339678	0.363552	0.968741
C58	C	0.640303	-0.343426	0.342077
C59	C	0.973637	-0.010093	0.675410
C60	C	1.306970	0.323241	1.008743
C61	C	0.574868	-0.343411	0.342105
C62	C	0.908201	-0.010077	0.675438
C63	C	1.241535	0.323256	1.008771
C64	C	0.542143	-0.303090	0.302119
C65	C	0.875476	0.030243	0.635452
C66	C	1.208810	0.363577	0.968786
C67	C	0.574859	-0.262771	0.262114
C68	C	0.908192	0.070563	0.595447
C69	C	1.241525	0.403896	0.928781
C70	C	0.640293	-0.262783	0.262092
C71	C	0.973626	0.070551	0.595425
C72	C	1.306959	0.403884	0.928758
C73	C	0.438418	-0.298019	0.245714
C74	C	0.771751	0.035314	0.579047
C75	C	1.105085	0.368648	0.912381
C76	C	0.372985	-0.298011	0.245735
C77	C	0.706319	0.035322	0.579069
C78	C	1.039652	0.368655	0.912402
C79	C	0.340322	-0.303049	0.302188
C80	C	0.673656	0.030284	0.635522
C81	C	1.006989	0.363618	0.968855
C82	C	0.373100	-0.308108	0.358622
C83	C	0.706434	0.025226	0.691955
C84	C	1.039767	0.358559	1.025288
C85	C	0.438534	-0.308120	0.358599
C86	C	0.771868	0.025213	0.691933
C87	C	1.105201	0.358547	1.025266
C88	C	0.471191	-0.303072	0.302139
C89	C	0.804524	0.030261	0.635472
C90	C	1.137857	0.363595	0.968806
C91	C	0.236662	-0.343346	0.342224
C92	C	0.569995	-0.010013	0.675558
C93	C	0.903329	0.323321	1.008891
C94	C	0.171225	-0.343326	0.342253
C95	C	0.504559	-0.009993	0.675586
C96	C	0.837892	0.323340	1.008920
C97	C	0.171217	-0.262690	0.262257
C98	C	0.504551	0.070644	0.595590
C99	C	0.837884	0.403977	0.928924
C100	C	0.236653	-0.262706	0.262234
C101	C	0.569986	0.070627	0.595567
C102	C	0.903319	0.403961	0.928900
C103	C	0.269371	-0.303038	0.302216
C104	C	0.602704	0.030296	0.635550
C105	C	0.936038	0.363629	0.968883
C106	C	0.905360	-0.466603	0.302132
C107	C	1.238694	-0.133270	0.635465
C108	C	1.572027	0.200063	0.968798
C109	C	0.905383	-0.536571	0.302139
C110	C	1.238717	-0.203238	0.635472
C111	C	1.572050	0.130095	0.968806
C112	C	0.945447	-0.569370	0.342259
C113	C	1.278780	-0.236036	0.675592
C114	C	1.612113	0.097297	1.008926
C115	C	0.945469	-0.635112	0.342275
C116	C	1.278802	-0.301779	0.675608
C117	C	1.612135	0.031555	1.008941
C118	C	0.905434	-0.668054	0.302159
C119	C	1.238768	-0.334721	0.635492
C120	C	1.572101	-0.001387	0.968825
C121	C	0.865363	-0.635248	0.262036
C122	C	1.198697	-0.301914	0.595369
C123	C	1.532030	0.031419	0.928703
C124	C	0.865338	-0.569506	0.262026
C125	C	1.198671	-0.236173	0.595359
C126	C	1.532005	0.097160	0.928693
N127	N	0.900697	-0.771307	0.247324
N128	N	1.234030	-0.437974	0.580657
N129	N	1.567364	-0.104641	0.913990
N130	N	0.900725	-0.833759	0.247335
N131	N	1.234058	-0.500425	0.580668
N132	N	1.567392	-0.167092	0.914001
C133	C	0.905507	-0.866129	0.302187
C134	C	1.238841	-0.532795	0.635520
C135	C	1.572174	-0.199462	0.968854
N136	N	0.910273	-0.833688	0.357029
N137	N	1.243607	-0.500354	0.690363
N138	N	1.576940	-0.167021	1.023696
N139	N	0.910249	-0.771230	0.357017
N140	N	1.243582	-0.437897	0.690351
N141	N	1.576916	-0.104564	1.023684
C142	C	0.905457	-0.739339	0.302165
C143	C	1.238790	-0.406006	0.635499
C144	C	1.572124	-0.072673	0.968832
C145	C	0.945597	-0.970212	0.342327
C146	C	1.278930	-0.636879	0.675661
C147	C	1.612263	-0.303546	1.008994
C148	C	0.945615	-1.035956	0.342344
C149	C	1.278948	-0.702623	0.675677
C150	C	1.612281	-0.369289	1.009010
C151	C	0.865512	-1.036090	0.262100
C152	C	1.198846	-0.702757	0.595433
C153	C	1.532179	-0.369424	0.928766
C154	C	0.865491	-0.970348	0.262089
C155	C	1.198825	-0.637014	0.595422
C156	C	1.532158	-0.303681	0.928755
C157	C	0.905537	-0.937413	0.302202
C158	C	1.238870	-0.604079	0.635535
C159	C	1.572204	-0.270746	0.968868
C160	C	1.068864	-0.303019	0.302237
C161	C	1.402197	0.030315	0.635570
C162	C	1.735530	0.363648	0.968903
C163	C	1.138505	-0.303005	0.302268
C164	C	1.471838	0.030329	0.635601
C165	C	1.805171	0.363662	0.968935
C166	C	0.905492	-0.303039	0.465587
C167	C	1.238826	0.030294	0.798920
C168	C	1.572159	0.363628	1.132253
C169	C	0.905514	-0.303033	0.535228
C170	C	1.238848	0.030300	0.868561
C171	C	1.572181	0.363633	1.201895
C172	C	0.905537	-0.138861	0.302209
C173	C	1.238871	0.194472	0.635542
C174	C	1.572204	0.527805	0.968876
C175	C	0.905579	-0.068893	0.302228
C176	C	1.238912	0.264440	0.635562
C177	C	1.572246	0.597773	0.968895
C178	C	0.905424	-0.303019	0.139376
C179	C	1.238758	0.030314	0.472709
C180	C	1.572091	0.363648	0.806043
C181	C	0.905524	-0.302847	0.069735
C182	C	1.238857	0.030486	0.403068
C183	C	1.572190	0.363820	0.736402
C184	C	0.945610	-0.262762	0.567971
C185	C	1.278943	0.070571	0.901305
C186	C	1.612277	0.403904	1.234638
C187	C	0.945609	-0.262735	0.633407
C188	C	1.278942	0.070598	0.966740
C189	C	1.612276	0.403932	1.300073
C190	C	0.905519	-0.302991	0.666096
C191	C	1.238853	0.030343	0.999430
C192	C	1.572186	0.363676	1.332763
C193	C	0.865416	-0.343265	0.633345
C194	C	1.198749	-0.009931	0.966679
C195	C	1.532083	0.323402	1.300012
C196	C	0.865413	-0.343286	0.567911
C197	C	1.198747	-0.009953	0.901244
C198	C	1.532080	0.323381	1.234578
C199	C	0.900544	-0.359672	0.769758
C200	C	1.233878	-0.026339	1.103092
C201	C	1.567211	0.306995	1.436425
C202	C	0.900551	-0.359652	0.835191
C203	C	1.233884	-0.026318	1.168525
C204	C	1.567218	0.307015	1.501858
C205	C	0.905523	-0.302924	0.867917
C206	C	1.238856	0.030409	1.201251
C207	C	1.572190	0.363743	1.534584
C208	C	0.910501	-0.246215	0.835202
C209	C	1.243835	0.087118	1.168535
C210	C	1.577168	0.420452	1.501869
C211	C	0.910499	-0.246237	0.769768
C212	C	1.243832	0.087097	1.103101
C213	C	1.577166	0.420430	1.436435
C214	C	0.905517	-0.302971	0.737049
C215	C	1.238850	0.030362	1.070382
C216	C	1.572184	0.363695	1.403716
C217	C	0.945620	-0.262620	0.971613
C218	C	1.278953	0.070713	1.304947
C219	C	1.612287	0.404047	1.638280
C220	C	0.945615	-0.262592	1.037050
C221	C	1.278948	0.070741	1.370383
C222	C	1.612281	0.404075	1.703717
C223	C	0.865425	-0.343127	1.036987
C224	C	1.198758	-0.009794	1.370320
C225	C	1.532091	0.323540	1.703654
C226	C	0.865427	-0.343150	0.971552
C227	C	1.198760	-0.009816	1.304885
C228	C	1.532093	0.323517	1.638218
C229	C	0.905528	-0.302897	0.938869
C230	C	1.238861	0.030436	1.272202
C231	C	1.572194	0.363770	1.605535
H232	H	0.465220	-0.312237	0.404549
H233	H	0.798553	0.021096	0.737883
H234	H	1.131886	0.354430	1.071216
H235	H	0.978088	-0.661822	0.374952
H236	H	1.311421	-0.328488	0.708286
H237	H	1.644755	0.004845	1.041619
Br238	Br	0.811115	-0.925833	0.207639
Br239	Br	1.144448	-0.592499	0.540972
Br240	Br	1.477782	-0.259166	0.874305
H241	H	0.914551	-0.200062	0.743134
H242	H	1.247884	0.133271	1.076467
H243	H	1.581218	0.466604	1.409801
Br244	Br	0.126835	-0.398035	0.396552
Br245	Br	0.460168	-0.064701	0.729886
Br246	Br	0.793501	0.268632	1.063219
Br247	Br	0.893804	-0.436613	0.879584
Br248	Br	1.227137	-0.103280	1.212917
Br249	Br	1.560470	0.230054	1.546251
H250	H	0.978258	-0.229938	0.660072
H251	H	1.311592	0.103395	0.993405
H252	H	1.644925	0.436729	1.326738
Br253	Br	0.917255	-0.169222	0.879607
Br254	Br	1.250588	0.164111	1.212940
Br255	Br	1.583922	0.497445	1.546274
H256	H	0.832780	-0.375947	0.944892
H257	H	1.166114	-0.042613	1.278225
H258	H	1.499447	0.290720	1.611558
H259	H	0.346302	-0.293896	0.199784
H260	H	0.679636	0.039437	0.533117
H261	H	1.012969	0.372771	0.866450
H262	H	0.978269	-0.229840	0.945001
H263	H	1.311602	0.103493	1.278335
H264	H	1.644936	0.436826	1.611668
H265	H	0.896328	-0.405855	0.743119
H266	H	1.229661	-0.072521	1.076452
H267	H	1.562995	0.260812	1.409785
H268	H	0.832766	-0.662073	0.229375
H269	H	1.166099	-0.328740	0.562708
H270	H	1.499432	0.004594	0.896042
Br271	Br	0.810960	-0.524991	0.207575
Br272	Br	1.144293	-0.191658	0.540908
Br273	Br	1.477627	0.141676	0.874242
Br274	Br	1.000030	-0.208132	0.523619
Br275	Br	1.333363	0.125202	0.856952
Br276	Br	1.666696	0.458535	1.190285
H277	H	0.978202	-0.943396	0.374992
H278	H	1.311536	-0.610062	0.708325
H279	H	1.644869	-0.276729	1.041658
Br280	Br	0.811175	-1.080790	0.207659
Br281	Br	1.144508	-0.747456	0.540993
Br282	Br	1.477842	-0.414123	0.874326
H283	H	0.832773	-0.376039	0.659965
H284	H	1.166106	-0.042706	0.993299
H285	H	1.499439	0.290628	1.326632
H286	H	0.465007	-0.293914	0.199740
H287	H	0.798340	0.039419	0.533073
H288	H	1.131674	0.372753	0.866407
Br289	Br	0.328781	-0.314943	0.435243
Br290	Br	0.662114	0.018390	0.768576
Br291	Br	0.995448	0.351723	1.101909
Br292	Br	0.999981	-1.080470	0.396807
Br293	Br	1.333314	-0.747136	0.730141
Br294	Br	1.666648	-0.413803	1.063474
Br295	Br	0.126812	-0.207962	0.207996
Br296	Br	0.460145	0.125372	0.541329
Br297	Br	0.793479	0.458705	0.874662
Br298	Br	0.811008	-0.397753	1.081344
Br299	Br	1.144341	-0.064419	1.414678
Br300	Br	1.477675	0.268914	1.748011
Br301	Br	1.000044	-0.207943	1.081489
Br302	Br	1.333378	0.125391	1.414822
Br303	Br	1.666711	0.458724	1.748156
H304	H	0.666939	-0.376266	0.374635
H305	H	1.000272	-0.042933	0.707968
H306	H	1.333605	0.290400	1.041301
Br307	Br	0.530469	-0.398122	0.396398
Br308	Br	0.863802	-0.064789	0.729732
Br309	Br	1.197135	0.268545	1.063065
H310	H	0.832760	-0.376079	0.541252
H311	H	1.166093	-0.042746	0.874585
H312	H	1.499427	0.290588	1.207918
H313	H	0.978053	-0.542556	0.374923
H314	H	1.311386	-0.209223	0.708256
H315	H	1.644719	0.124111	1.041590
Br316	Br	0.281069	-0.398078	0.396487
Br317	Br	0.614403	-0.064744	0.729821
Br318	Br	0.947736	0.268589	1.063154
H319	H	0.263284	-0.229883	0.229656
H320	H	0.596617	0.103450	0.562990
H321	H	0.929950	0.436784	0.896323
Br322	Br	0.530448	-0.208044	0.207853
Br323	Br	0.863781	0.125289	0.541186
Br324	Br	1.197115	0.458622	0.874519
H325	H	0.666923	-0.229954	0.229517
H326	H	1.000256	0.103379	0.562850
H327	H	1.333590	0.436713	0.896184
