data_functionalizedCrystal
_audit_creation_method	'MofGen! by Chris Wilmer'
_symmetry_space_group_name_H-M	'P1'
_symmetry_Int_Tables_number	1
_symmetry_cell_setting	triclinic
loop_
_symmetry_equiv_pos_as_xyz
  x,y,z
_cell_length_a	16.959455
_cell_length_b	19.120786
_cell_length_c	19.120904
_cell_angle_alpha	89.866497
_cell_angle_beta	92.417981
_cell_angle_gamma	92.461932
loop_
_atom_site_label
_atom_site_type_symbol
_atom_site_fract_x
_atom_site_fract_y
_atom_site_fract_z
Zn1	Zn	1.175686	-0.296106	-0.384560
Zn2	Zn	1.675686	0.203894	0.115440
Zn3	Zn	1.176074	-0.408350	-0.262319
Zn4	Zn	1.676074	0.091650	0.237681
Zn5	Zn	1.049380	-0.291118	-0.267329
Zn6	Zn	1.549380	0.208882	0.232671
Zn7	Zn	1.038083	-0.413306	-0.379505
Zn8	Zn	1.538083	0.086694	0.120495
O9	O	1.109806	-0.352220	-0.323428
O10	O	1.609806	0.147780	0.176572
O11	O	1.286347	-0.311009	-0.368363
O12	O	1.786347	0.188991	0.131637
O13	O	1.164157	-0.388638	-0.164879
O14	O	1.664157	0.111362	0.335121
O15	O	1.070700	-0.193670	-0.287092
O16	O	1.570700	0.306330	0.212908
O17	O	1.286632	-0.393474	-0.278553
O18	O	1.786632	0.106526	0.221447
O19	O	1.163497	-0.197334	-0.373221
O20	O	1.663497	0.302666	0.126779
O21	O	1.071075	-0.302508	-0.168560
O22	O	1.571075	0.197492	0.331440
O23	O	0.937272	-0.307313	-0.282191
O24	O	1.437272	0.192687	0.217809
O25	O	1.051447	-0.401920	-0.478280
O26	O	1.551447	0.098080	0.021720
O27	O	0.928972	-0.397084	-0.364606
O28	O	1.428972	0.102916	0.135394
O29	O	1.152543	-0.315814	-0.481994
O30	O	1.652543	0.184186	0.018006
O31	O	1.153204	-0.507118	-0.273652
O32	O	1.653204	-0.007118	0.226348
O33	O	1.051823	-0.510759	-0.359748
O34	O	1.551823	-0.010759	0.140252
C35	C	0.904442	-0.352196	-0.323394
C36	C	1.404442	0.147804	0.176606
C37	C	0.816585	-0.352203	-0.323395
C38	C	1.316585	0.147797	0.176605
C39	C	0.445248	-0.395114	-0.276644
C40	C	0.945248	0.104886	0.223356
C41	C	0.444960	-0.309388	-0.370296
C42	C	0.944960	0.190612	0.129704
C43	C	0.527507	-0.309375	-0.370280
C44	C	1.027507	0.190625	0.129720
C45	C	0.568928	-0.352234	-0.323445
C46	C	1.068928	0.147766	0.176555
C47	C	0.527803	-0.395105	-0.276627
C48	C	1.027803	0.104895	0.223373
C49	C	0.568638	-0.266511	-0.417102
C50	C	1.068638	0.233489	0.082898
C51	C	0.651190	-0.266497	-0.417087
C52	C	1.151190	0.233503	0.082913
C53	C	0.692614	-0.309353	-0.370249
C54	C	1.192614	0.190647	0.129751
C55	C	0.651483	-0.352225	-0.323428
C56	C	1.151483	0.147775	0.176572
C57	C	0.692905	-0.395083	-0.276594
C58	C	1.192905	0.104917	0.223406
C59	C	0.651776	-0.437952	-0.229769
C60	C	1.151776	0.062048	0.270231
C61	C	0.569226	-0.437960	-0.229788
C62	C	1.069226	0.062040	0.270212
C63	C	0.775164	-0.309344	-0.370230
C64	C	1.275164	0.190656	0.129770
C65	C	0.775460	-0.395074	-0.276577
C66	C	1.275460	0.104926	0.223423
C67	C	1.101350	-0.534378	-0.315624
C68	C	1.601350	-0.034378	0.184376
C69	C	1.097804	-0.612307	-0.312308
C70	C	1.597804	-0.112307	0.187692
C71	C	1.144413	-0.650767	-0.355630
C72	C	1.644413	-0.150767	0.144370
C73	C	1.141078	-0.723989	-0.352516
C74	C	1.641078	-0.223989	0.147484
C75	C	1.091137	-0.758750	-0.306076
C76	C	1.591137	-0.258750	0.193924
C77	C	1.044523	-0.720285	-0.262753
C78	C	1.544523	-0.220285	0.237247
C79	C	1.047855	-0.647064	-0.265871
C80	C	1.547855	-0.147064	0.234129
C81	C	1.078659	-0.979738	-0.294419
C82	C	1.578659	-0.479738	0.205581
C83	C	1.075332	-1.052964	-0.291303
C84	C	1.575332	-0.552964	0.208697
C85	C	1.171886	-1.056663	-0.381067
C86	C	1.671886	-0.556663	0.118933
C87	C	1.175217	-0.983441	-0.384178
C88	C	1.675217	-0.483441	0.115822
C89	C	1.128600	-0.944982	-0.340858
C90	C	1.628600	-0.444982	0.159142
C91	C	1.087728	-0.833595	-0.302890
C92	C	1.587728	-0.333595	0.197110
C93	C	1.132005	-0.870138	-0.344047
C94	C	1.632005	-0.370138	0.155953
C95	C	1.315971	-0.352245	-0.323463
C96	C	1.815971	0.147755	0.176537
C97	C	1.403826	-0.352256	-0.323478
C98	C	1.903826	0.147744	0.176522
C99	C	1.100692	-0.359976	-0.506286
C100	C	1.600692	0.140024	-0.006286
C101	C	1.096808	-0.363281	-0.584208
C102	C	1.596808	0.136719	-0.084208
C103	C	1.118315	-0.169352	-0.331279
C104	C	1.618315	0.330648	0.168721
C105	C	1.121941	-0.091424	-0.334625
C106	C	1.621941	0.408576	0.165375
C107	C	1.147616	-0.320005	-0.622751
C108	C	1.647616	0.179995	-0.122751
C109	C	1.143957	-0.323108	-0.695968
C110	C	1.643957	0.176892	-0.195968
C111	C	1.089494	-0.369491	-0.730641
C112	C	1.589494	0.130509	-0.230641
C113	C	1.038680	-0.412769	-0.692093
C114	C	1.538680	0.087231	-0.192093
C115	C	1.042336	-0.409662	-0.618877
C116	C	1.542336	0.090338	-0.118877
C117	C	1.075820	-0.381112	-0.951607
C118	C	1.575820	0.118888	-0.451607
C119	C	1.072170	-0.384217	-1.024828
C120	C	1.572170	0.115783	-0.524828
C121	C	1.177447	-0.294555	-1.028698
C122	C	1.677447	0.205445	-0.528698
C123	C	1.181100	-0.291455	-0.955481
C124	C	1.681100	0.208545	-0.455481
C125	C	1.130284	-0.334730	-0.916940
C126	C	1.630284	0.165270	-0.416940
C127	C	1.085754	-0.372666	-0.805480
C128	C	1.585754	0.127334	-0.305480
C129	C	1.134020	-0.331552	-0.842102
C130	C	1.634020	0.168448	-0.342102
C131	C	1.118932	-0.344444	-0.141285
C132	C	1.618932	0.155556	0.358715
C133	C	1.122978	-0.340941	-0.063371
C134	C	1.622978	0.159059	0.436629
H135	H	0.411229	-0.274498	-0.408430
H136	H	0.911229	0.225502	0.091570
Br137	Br	0.513405	-0.496135	-0.166248
Br138	Br	1.013405	0.003865	0.333752
H139	H	1.041413	-0.410434	-0.833719
H140	H	1.541413	0.089566	-0.333719
Br141	Br	1.015382	-0.927553	-0.235635
Br142	Br	1.515382	-0.427553	0.264365
H143	H	1.179038	-0.755300	-0.387787
H144	H	1.679038	-0.255300	0.112213
Br145	Br	1.255021	-0.228507	-0.908430
Br146	Br	1.755021	0.271493	-0.408430
H147	H	1.172664	-0.841834	-0.381861
H148	H	1.672664	-0.341834	0.118139
H149	H	1.215883	-0.955140	-0.421993
H150	H	1.715883	-0.455140	0.078007
H151	H	0.534906	-0.231622	-0.455236
H152	H	1.034906	0.268378	0.044764
H153	H	1.218817	-0.259322	-1.060087
H154	H	1.718817	0.240678	-0.560087
H155	H	1.185333	-0.287870	-0.727347
H156	H	1.685333	0.212130	-0.227347
Br157	Br	0.831669	-0.453236	-0.213007
Br158	Br	1.331669	0.046764	0.286993
Br159	Br	0.976735	-0.767460	-0.199736
Br160	Br	1.476735	-0.267460	0.300264
Br161	Br	0.998247	-0.447167	-1.071884
Br162	Br	1.498247	0.052833	-0.571884
H163	H	0.684671	-0.231590	-0.455214
H164	H	1.184671	0.268410	0.044786
H165	H	0.685512	-0.472851	-0.191640
H166	H	1.185512	0.027149	0.308360
Br167	Br	0.973374	-0.468392	-0.566568
Br168	Br	1.473374	0.031608	-0.066568
Br169	Br	0.389435	-0.453286	-0.213094
Br170	Br	0.889435	0.046714	0.286906
H171	H	0.808647	-0.274443	-0.408355
H172	H	1.308647	0.225557	0.091645
H173	H	1.185083	-0.622469	-0.393443
H174	H	1.685083	-0.122469	0.106557
H175	H	1.209839	-1.087984	-0.416337
H176	H	1.709839	-0.587984	0.083663
H177	H	1.034453	-0.416360	-0.920235
H178	H	1.534453	0.083640	-0.420235
H179	H	0.994332	-0.450532	-0.720329
H180	H	1.494332	0.049468	-0.220329
H181	H	1.034661	-1.081264	-0.253486
H182	H	1.534661	-0.581264	0.246514
H183	H	1.009900	-0.615750	-0.230595
H184	H	1.509900	-0.115750	0.269405
H185	H	1.178361	-0.293784	-0.813869
H186	H	1.678361	0.206216	-0.313869
H187	H	1.047069	-0.861906	-0.265077
H188	H	1.547069	-0.361906	0.234923
H189	H	1.191969	-0.282238	-0.594526
H190	H	1.691969	0.217762	-0.094526
