data_functionalizedCrystal
_audit_creation_method	'MofGen! by Chris Wilmer'
_symmetry_space_group_name_H-M	'P1'
_symmetry_Int_Tables_number	1
_symmetry_cell_setting	triclinic
loop_
_symmetry_equiv_pos_as_xyz
  x,y,z
_cell_length_a	14.853569
_cell_length_b	14.853559
_cell_length_c	15.186229
_cell_angle_alpha	89.996359
_cell_angle_beta	89.998535
_cell_angle_gamma	96.366491
loop_
_atom_site_label
_atom_site_type_symbol
_atom_site_fract_x
_atom_site_fract_y
_atom_site_fract_z
O1	O	1.196355	-0.117713	0.073184
O2	O	0.933895	-0.131733	0.073194
O3	O	1.072140	0.006507	0.073188
O4	O	1.058110	-0.255954	0.073190
O5	O	1.072139	0.006515	-0.073270
O6	O	0.933894	-0.131725	-0.073263
O7	O	1.196354	-0.117705	-0.073273
Zn8	Zn	1.065124	-0.124714	-0.096522
Zn9	Zn	1.065125	-0.124725	0.096442
O10	O	1.058109	-0.255945	-0.073267
C11	C	0.900306	-0.131094	-0.000033
C12	C	0.800222	-0.129189	-0.000029
C13	C	0.763848	-0.046178	-0.000027
C14	C	0.742554	-0.210411	-0.000035
C15	C	0.648520	-0.208625	-0.000036
C16	C	0.612146	-0.125614	-0.000034
C17	C	0.669806	-0.044389	-0.000031
C18	C	0.590853	-0.289848	-0.000049
C19	C	0.496812	-0.288065	-0.000051
C20	C	0.460437	-0.205053	-0.000042
C21	C	0.518103	-0.123825	-0.000038
C22	C	0.481729	-0.040813	-0.000035
C23	C	0.539394	0.040416	-0.000025
C24	C	0.633430	0.038623	-0.000022
C25	C	0.366401	-0.203260	-0.000045
C26	C	0.387687	-0.039024	-0.000039
C27	C	1.071505	0.040100	-0.000039
C28	C	1.069604	0.140184	-0.000034
C29	C	1.229943	-0.118345	-0.000044
C30	C	1.330027	-0.120249	-0.000042
C31	C	1.058744	-0.289538	-0.000038
C32	C	1.060645	-0.389622	-0.000037
C33	C	1.061541	0.563355	0.079800
C34	C	1.061540	0.563358	-0.079873
C35	C	1.063333	0.469325	-0.079874
C36	C	1.064229	0.422302	-0.000037
C37	C	1.063332	0.469312	0.079802
C38	C	1.064221	0.422307	-0.159711
C39	C	1.066014	0.328267	-0.159715
C40	C	1.066916	0.281244	-0.079877
C41	C	1.066020	0.328260	-0.000035
C42	C	1.066916	0.281237	0.079802
C43	C	1.066026	0.328252	0.159645
C44	C	1.064234	0.422288	0.159640
C45	C	1.068708	0.187207	-0.079872
C46	C	1.068707	0.187194	0.079804
N47	N	1.065127	-0.124726	0.228135
N48	N	1.065129	-0.124706	-0.228214
C49	C	1.126460	-0.063631	0.453855
C50	C	1.126462	-0.063629	0.546045
C51	C	1.003793	-0.185806	0.546059
C52	C	1.003796	-0.185812	0.453871
C53	C	1.065128	-0.124720	0.407771
C54	C	1.065128	-0.124711	0.592149
C55	C	1.065130	-0.124709	0.692105
C56	C	1.065127	-0.124723	0.307809
H57	H	0.810803	0.019956	-0.000015
H58	H	1.063487	0.460599	-0.224710
H59	H	0.772176	-0.277995	-0.000043
H60	H	1.060804	0.601649	-0.144873
H61	H	1.069412	0.148929	-0.144878
H62	H	0.358079	0.028574	-0.000032
H63	H	0.509766	0.108003	-0.000017
H64	H	0.953857	-0.235545	0.583603
H65	H	1.066749	0.289953	0.224649
H66	H	0.620476	-0.357431	-0.000056
H67	H	0.680389	0.104755	-0.000015
H68	H	1.066742	0.289996	-0.224728
H69	H	1.063509	0.460576	0.224644
H70	H	1.060820	0.601639	0.144806
H71	H	1.176401	-0.013887	0.416323
H72	H	1.176405	-0.013886	0.583563
H73	H	0.449869	-0.354207	-0.000058
H74	H	0.319454	-0.269396	-0.000061
H75	H	1.069441	0.148915	0.144818
H76	H	0.953852	-0.235562	0.416347
