data_functionalizedCrystal
_audit_creation_method	'MofGen! by Chris Wilmer'
_symmetry_space_group_name_H-M	'P1'
_symmetry_Int_Tables_number	1
_symmetry_cell_setting	triclinic
loop_
_symmetry_equiv_pos_as_xyz
  x,y,z
_cell_length_a	12.784905
_cell_length_b	12.811415
_cell_length_c	7.681481
_cell_angle_alpha	78.833607
_cell_angle_beta	95.115984
_cell_angle_gamma	78.600455
loop_
_atom_site_label
_atom_site_type_symbol
_atom_site_fract_x
_atom_site_fract_y
_atom_site_fract_z
O1	O	1.400149	0.017633	-0.149255
O2	O	1.090397	0.063103	-0.156516
O3	O	1.254748	-0.114974	-0.128072
O4	O	1.235798	0.195709	-0.177699
O5	O	1.274977	-0.136937	0.168294
O6	O	1.110626	0.041139	0.139850
O7	O	1.420378	-0.004331	0.147111
Zn8	Zn	1.268714	0.014917	0.190535
Zn9	Zn	1.242061	0.043855	-0.199940
O10	O	1.256028	0.173745	0.118667
C11	C	1.060893	0.055078	-0.008805
C12	C	0.942842	0.063877	-0.010210
C13	C	0.747627	-0.115389	0.018393
C14	C	0.636708	-0.107127	0.017074
C15	C	0.610082	0.088664	-0.014181
C16	C	0.721001	0.080402	-0.012862
C17	C	0.789771	-0.021629	0.003429
C18	C	0.900692	-0.029891	0.004761
C19	C	0.874063	0.165900	-0.026507
C20	C	0.763144	0.174162	-0.027826
C21	C	1.264421	-0.165447	0.026415
C22	C	1.263092	-0.283119	0.045200
C23	C	1.238521	-0.480276	-0.242637
C24	C	1.237272	-0.590839	-0.224995
C25	C	1.259338	-0.614807	0.098123
C26	C	1.260587	-0.504244	0.080481
C27	C	1.250179	-0.436983	-0.089904
C28	C	1.251436	-0.326420	-0.107544
C29	C	1.273495	-0.350388	0.215572
C30	C	1.272246	-0.460951	0.233214
C31	C	1.449882	0.003694	-0.000604
C32	C	1.567933	-0.005104	0.000790
C33	C	1.246354	0.224219	-0.035824
C34	C	1.247682	0.341892	-0.054621
N35	N	1.286912	-0.004834	0.457024
N36	N	1.223872	0.063596	-0.466427
H37	H	0.956684	-0.112969	0.018028
H38	H	1.159522	0.133444	0.447219
H39	H	1.282992	-0.315129	0.339939
H40	H	1.351274	-0.074679	0.543386
C41	C	1.227083	-0.406284	-0.430042
H42	H	1.229504	-0.334238	-0.418672
H43	H	1.160316	-0.405663	-0.495747
H44	H	1.284392	-0.433298	-0.491315
C45	C	1.239989	-0.252430	-0.294952
H46	H	1.242413	-0.180383	-0.283590
H47	H	1.173218	-0.251810	-0.360642
H48	H	1.297292	-0.279444	-0.356237
H49	H	1.227774	-0.626082	-0.349366
C50	C	1.270790	-0.688806	0.285525
H51	H	1.268382	-0.760854	0.274149
H52	H	1.213501	-0.661801	0.346830
H53	H	1.337573	-0.689431	0.351205
H54	H	0.803622	-0.198467	0.031669
H55	H	1.280715	-0.515729	0.371937
C56	C	0.590355	-0.210264	0.033544
H57	H	0.647201	-0.272209	0.043447
H58	H	0.540582	-0.203450	-0.069668
H59	H	0.554698	-0.218773	0.137045
H60	H	0.554070	0.171733	-0.027467
H61	H	0.707137	0.257232	-0.041097
C62	C	0.920421	0.269041	-0.042980
H63	H	0.996329	0.249512	-0.039873
H64	H	0.903825	0.302960	0.053727
H65	H	0.889719	0.318277	-0.152984
