data_functionalizedCrystal
_audit_creation_method	'MofGen! by Chris Wilmer'
_symmetry_space_group_name_H-M	'P1'
_symmetry_Int_Tables_number	1
_symmetry_cell_setting	triclinic
loop_
_symmetry_equiv_pos_as_xyz
  x,y,z
_cell_length_a	6.817900
_cell_length_b	18.180566
_cell_length_c	7.190334
_cell_angle_alpha	84.971010
_cell_angle_beta	66.158908
_cell_angle_gamma	68.662121
loop_
_atom_site_label
_atom_site_type_symbol
_atom_site_fract_x
_atom_site_fract_y
_atom_site_fract_z
V1	V	-4.171833	0.094402	0.623857
O2	O	-4.117626	-0.019617	0.618520
O3	O	-4.159827	0.201687	0.613301
O4	O	-4.169608	0.086333	0.898812
O5	O	-4.107777	0.096536	0.331033
V6	V	-4.644762	0.081546	0.589597
O7	O	-4.456331	0.122603	0.699009
O8	O	-4.810461	0.053345	0.514445
O9	O	-4.433561	-0.025739	0.600153
O10	O	-4.816366	0.195564	0.594934
O11	O	-4.826215	0.079412	0.882421
O12	O	-4.423780	0.089615	0.314642
C13	C	-4.012187	0.228047	0.601837
C14	C	-4.083965	0.315711	0.595039
C15	C	-4.319445	0.370975	0.601336
C16	C	-4.334087	0.427739	0.758955
C17	C	-4.197215	0.415150	0.425347
C18	C	-4.097718	0.371326	0.752886
C19	C	-3.960808	0.358728	0.419130
C20	C	-3.975306	0.415467	0.576784
C21	C	-4.244558	-0.052096	0.611613
C22	C	-4.150296	-0.141406	0.618582
C23	C	-4.024674	0.080898	0.966031
C24	C	-4.105876	0.074899	1.194991
V25	V	-4.253346	-0.286260	0.611424
O26	O	-4.166410	-0.402164	0.601207
O27	O	-4.276273	-0.174782	0.611770
O28	O	-4.285434	-0.290105	0.897360
O29	O	-4.157185	-0.286042	0.313640
V30	V	-4.670811	-0.320165	0.522285
O31	O	-4.529050	-0.267891	0.660919
O32	O	-4.800875	-0.357607	0.423053
O33	O	-4.446705	-0.422186	0.546597
O34	O	-4.863558	-0.209234	0.519532
O35	O	-4.872782	-0.325356	0.807099
O36	O	-4.437544	-0.306863	0.261007
C37	C	-4.282504	0.558408	0.576173
C38	C	-4.210822	0.470746	0.582975
C39	C	-4.162004	-0.288514	0.982893
C40	C	-4.263818	-0.294490	1.211889
H41	H	-4.240044	0.434546	0.286871
C42	C	-4.512297	0.344694	0.615111
C43	C	-4.436043	0.293483	0.445396
C44	C	-4.613640	0.269266	0.458011
H45	H	-4.556274	0.317991	0.735988
H46	H	-4.640518	0.389714	0.617878
H47	H	-4.307863	0.248471	0.442649
H48	H	-4.392084	0.320169	0.324494
H49	H	-4.741860	0.314285	0.460778
H50	H	-4.657604	0.242566	0.578894
H51	H	-4.561933	0.234523	0.342855
C52	C	-4.545686	0.467757	0.950289
C53	C	-4.726166	0.445339	0.962336
C54	C	-4.921139	0.482192	1.138544
H55	H	-4.511862	0.452142	1.066789
H56	H	-4.589370	0.523585	0.945126
H57	H	-4.682489	0.389523	0.967517
H58	H	-4.760060	0.460954	0.845879
H59	H	-4.964823	0.538020	1.133381
H60	H	-4.887292	0.466575	1.255030
H61	H	-5.043624	0.466993	1.146732
C62	C	-4.041018	0.345461	0.937727
C63	C	-3.974163	0.263041	0.942096
C64	C	-3.921977	0.239186	1.112368
H65	H	-3.919113	0.360955	0.929717
H66	H	-4.172904	0.369686	1.058292
H67	H	-3.842291	0.238824	0.821561
H68	H	-4.096035	0.247526	0.950136
H69	H	-4.053864	0.263411	1.232933
H70	H	-3.800078	0.254685	1.104343
H71	H	-3.876631	0.183263	1.115365
H72	H	-3.830324	0.434986	0.566394
H73	H	-3.802372	0.328671	0.275520
