data_functionalizedCrystal
_audit_creation_method	'MofGen! by Chris Wilmer'
_symmetry_space_group_name_H-M	'P1'
_symmetry_Int_Tables_number	1
_symmetry_cell_setting	triclinic
loop_
_symmetry_equiv_pos_as_xyz
  x,y,z
_cell_length_a	16.120530
_cell_length_b	16.120444
_cell_length_c	16.959447
_cell_angle_alpha	92.867280
_cell_angle_beta	87.087433
_cell_angle_gamma	90.168401
loop_
_atom_site_label
_atom_site_type_symbol
_atom_site_fract_x
_atom_site_fract_y
_atom_site_fract_z
Zn1	Zn	1.254425	-0.395584	-0.526169
Zn2	Zn	1.754425	0.104416	-0.026169
Zn3	Zn	1.247276	-0.534650	-0.400328
Zn4	Zn	1.747276	-0.034650	0.099672
Zn5	Zn	1.115376	-0.388557	-0.386990
Zn6	Zn	1.615376	0.111443	0.113010
Zn7	Zn	1.108275	-0.527537	-0.525448
Zn8	Zn	1.608275	-0.027537	-0.025448
O9	O	1.181338	-0.461582	-0.459734
O10	O	1.681338	0.038418	0.040266
O11	O	1.369842	-0.419948	-0.515360
O12	O	1.869842	0.080052	-0.015360
O13	O	1.229759	-0.515306	-0.287948
O14	O	1.729759	-0.015306	0.212052
O15	O	1.139785	-0.273126	-0.400172
O16	O	1.639785	0.226874	0.099828
O17	O	1.364589	-0.522119	-0.422905
O18	O	1.864589	-0.022119	0.077095
O19	O	1.241944	-0.278288	-0.502427
O20	O	1.741944	0.221712	-0.002427
O21	O	1.132852	-0.407973	-0.278149
O22	O	1.632852	0.092027	0.221851
O23	O	0.998069	-0.401076	-0.399473
O24	O	1.498069	0.098924	0.100527
O25	O	1.127683	-0.509997	-0.636153
O26	O	1.627683	-0.009997	-0.136153
O27	O	0.992852	-0.503184	-0.501197
O28	O	1.492852	-0.003184	-0.001197
O29	O	1.235059	-0.413052	-0.636684
O30	O	1.735059	0.086948	-0.136684
O31	O	1.222873	-0.650070	-0.422205
O32	O	1.722873	-0.150070	0.077795
O33	O	1.120750	-0.644844	-0.514130
O34	O	1.620750	-0.144844	-0.014130
C35	C	0.965289	-0.450596	-0.448810
C36	C	1.465289	0.049404	0.051190
C37	C	0.872861	-0.445917	-0.444156
C38	C	1.372861	0.054083	0.055844
C39	C	1.170288	-0.677630	-0.469555
C40	C	1.670288	-0.177630	0.030445
C41	C	1.165637	-0.770060	-0.473787
C42	C	1.665637	-0.270060	0.026213
C43	C	1.205670	-0.983035	-0.437961
C44	C	1.705670	-0.483035	0.062039
C45	C	1.157160	-0.939286	-0.481522
C46	C	1.657160	-0.439286	0.018478
C47	C	1.161878	-0.845120	-0.477217
C48	C	1.661878	-0.345120	0.022783
C49	C	1.200953	-1.077209	-0.442265
C50	C	1.700953	-0.577209	0.057735
C51	C	0.703634	-0.437353	-0.435665
C52	C	1.203634	0.062647	0.064335
C53	C	0.659880	-0.485872	-0.483862
C54	C	1.159880	0.014128	0.016138
C55	C	0.565716	-0.481107	-0.479138
C56	C	1.065716	0.018893	0.020862
C57	C	0.797806	-0.442117	-0.440388
C58	C	1.297806	0.057883	0.059612
C59	C	1.398231	-0.472611	-0.470701
C60	C	1.898231	0.027389	0.029299
C61	C	1.490658	-0.477311	-0.475374
C62	C	1.990658	0.022689	0.024626
C63	C	1.181376	-0.461515	-0.665900
C64	C	1.681376	0.038485	-0.165900
C65	C	1.181393	-0.461486	-0.753757
C66	C	1.681393	0.038514	-0.253757
C67	C	1.192454	-0.244692	-0.449892
C68	C	1.692454	0.255308	0.050108
C69	C	1.197191	-0.152266	-0.445699
C70	C	1.697191	0.347734	0.054301
C71	C	1.125591	-0.511879	-1.124960
C72	C	1.625591	-0.011879	-0.624960
C73	C	1.237402	-0.410928	-1.125507
C74	C	1.737402	0.089072	-0.625507
C75	C	1.237379	-0.410945	-1.042961
C76	C	1.737379	0.089055	-0.542961
C77	C	1.181462	-0.461430	-1.001410
C78	C	1.681462	0.038570	-0.501410
C79	C	1.125568	-0.511899	-1.042406
C80	C	1.625568	-0.011899	-0.542406
C81	C	1.293278	-0.360484	-1.001959
C82	C	1.793278	0.139516	-0.501959
C83	C	1.293258	-0.360499	-0.919408
C84	C	1.793258	0.139501	-0.419408
C85	C	1.237336	-0.410980	-0.877856
C86	C	1.737336	0.089020	-0.377856
C87	C	1.181439	-0.461450	-0.918857
C88	C	1.681439	0.038550	-0.418857
C89	C	1.125521	-0.511935	-0.877306
C90	C	1.625521	-0.011935	-0.377306
C91	C	1.069620	-0.562401	-0.918305
C92	C	1.569620	-0.062401	-0.418305
C93	C	1.069646	-0.562380	-1.000854
C94	C	1.569646	-0.062380	-0.500854
C95	C	1.237310	-0.411001	-0.795307
C96	C	1.737310	0.088999	-0.295307
C97	C	1.125498	-0.511955	-0.794752
C98	C	1.625498	-0.011955	-0.294752
C99	C	1.181351	-0.461591	-0.254368
C100	C	1.681351	0.038409	0.245632
C101	C	1.181508	-0.461394	-0.166510
C102	C	1.681508	0.038606	0.333490
H103	H	1.250740	-0.949772	-0.397436
H104	H	1.750740	-0.449772	0.102564
H105	H	1.338808	-0.319387	-1.035796
H106	H	1.838808	0.180613	-0.535796
H107	H	1.112087	-0.972552	-0.522049
H108	H	1.612087	-0.472552	-0.022049
N109	N	0.701609	-0.542471	-0.540070
N110	N	1.201609	-0.042471	-0.040070
N111	N	0.779152	-0.546314	-0.543873
N112	N	1.279152	-0.046314	-0.043873
H113	H	0.808627	-0.586289	-0.583565
H114	H	1.308627	-0.086289	-0.083565
H115	H	0.670377	-0.392241	-0.390858
H116	H	1.170377	0.107759	0.109142
N117	N	1.068366	-0.563523	-0.752324
N118	N	1.568366	-0.063523	-0.252324
N119	N	1.018461	-0.608571	-0.788941
N120	N	1.518461	-0.108571	-0.288941
H121	H	0.978110	-0.644991	-0.758977
H122	H	1.478110	-0.144991	-0.258977
N123	N	1.012504	-0.613958	-0.875845
N124	N	1.512504	-0.113958	-0.375845
N125	N	0.961012	-0.582013	-0.825774
N126	N	1.461012	-0.082013	-0.325774
H127	H	0.920675	-0.618423	-0.795783
H128	H	1.420675	-0.118423	-0.295783
H129	H	1.024136	-0.603470	-1.034243
H130	H	1.524136	-0.103470	-0.534243
N131	N	1.068491	-0.563416	-1.166845
N132	N	1.568491	-0.063416	-0.666845
N133	N	1.068511	-0.563389	-1.240548
N134	N	1.568511	-0.063389	-0.740548
H135	H	1.028183	-0.599787	-1.270132
H136	H	1.528183	-0.099787	-0.770132
N137	N	1.294520	-0.359376	-1.167959
N138	N	1.794520	0.140624	-0.667959
N139	N	1.294536	-0.359372	-1.241664
N140	N	1.794536	0.140628	-0.741664
H141	H	1.334878	-0.322961	-1.271650
H142	H	1.834878	0.177039	-0.771650
H143	H	1.338776	-0.319406	-0.886034
H144	H	1.838776	0.180594	-0.386034
N145	N	1.294415	-0.359459	-0.753441
N146	N	1.794415	0.140541	-0.253441
N147	N	1.344341	-0.314392	-0.790549
N148	N	1.844341	0.185608	-0.290549
H149	H	1.384674	-0.277986	-0.760982
H150	H	1.884674	0.222014	-0.260982
