data_functionalizedCrystal
_audit_creation_method	'MofGen! by Chris Wilmer'
_symmetry_space_group_name_H-M	'P1'
_symmetry_Int_Tables_number	1
_symmetry_cell_setting	triclinic
loop_
_symmetry_equiv_pos_as_xyz
  x,y,z
_cell_length_a	19.077105
_cell_length_b	12.759394
_cell_length_c	19.076919
_cell_angle_alpha	87.725879
_cell_angle_beta	89.923776
_cell_angle_gamma	87.711291
loop_
_atom_site_label
_atom_site_type_symbol
_atom_site_fract_x
_atom_site_fract_y
_atom_site_fract_z
Zn1	Zn	1.058327	-0.508276	0.440432
Zn2	Zn	1.062986	-0.677203	0.322930
Zn3	Zn	0.945543	-0.494202	0.318225
Zn4	Zn	0.940807	-0.676569	0.435682
O5	O	1.001916	-0.589062	0.379317
O6	O	1.157277	-0.536840	0.428802
O7	O	1.051338	-0.647302	0.223974
O8	O	0.960536	-0.349050	0.334454
O9	O	1.160700	-0.660950	0.342473
O10	O	1.043398	-0.359391	0.424239
O11	O	0.965054	-0.512852	0.220517
O12	O	0.846582	-0.512238	0.329849
O13	O	0.952465	-0.659870	0.534644
O14	O	0.843103	-0.646222	0.416144
O15	O	1.038806	-0.536225	0.538133
O16	O	1.046746	-0.824137	0.337868
O17	O	0.956982	-0.823671	0.420707
C18	C	0.819346	-0.577635	0.371971
C19	C	0.741242	-0.572772	0.368845
C20	C	0.702757	-0.640344	0.412235
C21	C	0.629370	-0.635761	0.409302
C22	C	0.594467	-0.563612	0.362974
C23	C	0.632957	-0.496033	0.319582
C24	C	0.706343	-0.500611	0.322520
C25	C	0.375178	-0.542424	0.349381
C26	C	0.301786	-0.537853	0.346444
C27	C	0.298204	-0.677581	0.436166
C28	C	0.371592	-0.682157	0.439096
C29	C	0.410075	-0.614574	0.395707
N30	N	0.519453	-0.558928	0.359972
N31	N	0.485088	-0.619253	0.398713
C32	C	1.001874	-0.862026	0.379298
C33	C	1.001920	-0.978807	0.379316
C34	C	1.095456	-0.979246	0.293126
C35	C	1.142242	-1.034328	0.250040
C36	C	1.142282	-1.144054	0.250061
C37	C	1.095533	-1.198699	0.293174
C38	C	1.048747	-1.143617	0.336260
C39	C	1.048710	-1.033889	0.336233
C40	C	0.955216	-1.143178	0.422453
C41	C	0.955171	-1.033453	0.422429
C42	C	0.908467	-1.197824	0.465566
C43	C	0.861676	-1.142741	0.508649
C44	C	0.861637	-1.033009	0.508626
C45	C	0.908385	-0.978370	0.465515
C46	C	1.185198	-0.600535	0.386692
C47	C	1.263302	-0.605424	0.389835
C48	C	0.994587	-0.599547	0.562597
C49	C	0.991465	-0.604015	0.640701
C50	C	1.001976	-0.315035	0.379352
C51	C	1.002002	-0.198260	0.379367
C52	C	1.009256	-0.578545	0.196751
C53	C	1.012515	-0.573790	0.118654
C54	C	1.034948	-0.541742	0.679212
C55	C	1.032006	-0.545935	0.752598
C56	C	0.985582	-0.612408	0.787471
C57	C	0.942093	-0.674683	0.748955
C58	C	0.945033	-0.670484	0.675570
C59	C	0.971966	-0.631866	1.006753
C60	C	0.969031	-0.636063	1.080143
C61	C	1.058943	-0.507313	1.083780
C62	C	1.061881	-0.503124	1.010394
C63	C	1.018390	-0.565395	0.971884
N64	N	0.982574	-0.616698	0.862484
N65	N	1.021395	-0.561098	0.896873
H66	H	0.266864	-0.732601	0.471492
H67	H	1.180306	-0.989826	0.214939
H68	H	0.273371	-0.479088	0.308723
H69	H	0.823620	-1.187243	0.543752
H70	H	1.180383	-1.188902	0.214980
H71	H	0.908506	-1.287168	0.465583
C72	C	0.748005	-0.427201	0.275323
C73	C	0.701735	-0.363057	0.234106
C74	C	0.740088	-0.295425	0.190614
H75	H	0.775575	-0.384715	0.303322
H76	H	0.777833	-0.467328	0.245768
H77	H	0.671919	-0.322933	0.263658
H78	H	0.674164	-0.405514	0.206093
H79	H	0.769915	-0.335552	0.161059
H80	H	0.767656	-0.252947	0.218618
H81	H	0.708699	-0.251902	0.162639
H82	H	0.823541	-0.988168	0.543715
H83	H	0.406502	-0.487401	0.314044
C84	C	0.918572	-0.708061	1.118091
C85	C	0.871877	-0.648157	1.158428
C86	C	0.825392	-0.714441	1.193401
H87	H	0.893020	-0.744565	1.084721
H88	H	0.944269	-0.757150	1.147836
H89	H	0.846183	-0.599087	1.128686
H90	H	0.897409	-0.611655	1.191810
H91	H	0.851089	-0.763530	1.223145
H92	H	0.799846	-0.750941	1.160026
H93	H	0.793709	-0.673807	1.220778
H94	H	0.908353	-0.889026	0.465488
C95	C	0.891734	-0.747023	0.786729
C96	C	0.907715	-0.850903	0.769464
C97	C	0.861334	-0.917573	0.804239
H98	H	0.896167	-0.740748	0.835958
H99	H	0.844994	-0.728063	0.772787
H100	H	0.954443	-0.869857	0.783411
H101	H	0.903277	-0.857211	0.720241
H102	H	0.814594	-0.898614	0.790298
H103	H	0.865771	-0.911290	0.853468
H104	H	0.872166	-0.988062	0.792526
C105	C	0.924824	-0.699652	0.964997
C106	C	0.939390	-0.805583	0.983436
C107	C	0.895975	-0.868058	0.944979
H108	H	0.877114	-0.682130	0.975105
H109	H	0.933215	-0.687708	0.916288
H110	H	0.930993	-0.817522	1.032134
H111	H	0.987092	-0.823138	0.973325
H112	H	0.904366	-0.856114	0.896270
H113	H	0.848267	-0.850526	0.955090
H114	H	0.905856	-0.939939	0.957479
H115	H	1.095576	-1.288044	0.293193
C116	C	0.897738	-0.737922	0.633720
C117	C	0.854383	-0.673210	0.589796
C118	C	0.810796	-0.735296	0.551243
H119	H	0.925674	-0.783757	0.606109
H120	H	0.869632	-0.778089	0.664979
H121	H	0.882486	-0.633060	0.558541
H122	H	0.826433	-0.627376	0.617389
H123	H	0.782690	-0.775464	0.582502
H124	H	0.838737	-0.781129	0.523637
H125	H	0.781370	-0.691399	0.521441
H126	H	1.099686	-0.448998	0.982005
C127	C	0.587713	-0.709264	0.456434
C128	C	0.633987	-0.773458	0.497614
C129	C	0.595639	-0.841198	0.541033
H130	H	0.557863	-0.669250	0.486019
H131	H	0.560168	-0.751702	0.428362
H132	H	0.661520	-0.731025	0.525683
H133	H	0.663838	-0.813495	0.468047
H134	H	0.568094	-0.883636	0.512961
H135	H	0.565790	-0.801175	0.570613
H136	H	0.627030	-0.884768	0.568974
C137	C	1.085374	-0.469463	0.641480
C138	C	1.122811	-0.415804	0.690916
C139	C	1.169262	-0.349197	0.656186
H140	H	1.117193	-0.509815	0.614081
H141	H	1.059665	-0.420311	0.611791
H142	H	1.148518	-0.464949	0.720593
H143	H	1.091011	-0.375432	0.718318
H144	H	1.143553	-0.300045	0.626498
H145	H	1.201075	-0.389557	0.628788
H146	H	1.194663	-0.312774	0.689723
C147	C	1.079096	-0.478176	0.794435
C148	C	1.037633	-0.410731	0.834948
C149	C	1.080988	-0.348276	0.873488
H150	H	1.108572	-0.521789	0.824355
H151	H	1.107150	-0.437930	0.763172
H152	H	1.009592	-0.450973	0.866208
H153	H	1.008158	-0.367096	0.805046
H154	H	1.109041	-0.308030	0.842225
H155	H	1.110461	-0.391897	0.903403
H156	H	1.052861	-0.302501	0.900975
H157	H	1.095419	-0.889901	0.293096
H158	H	1.094350	-0.456614	1.115143
C159	C	0.409354	-0.760528	0.489469
C160	C	0.359943	-0.818708	0.526853
C161	C	0.394703	-0.890908	0.573266
H162	H	0.439046	-0.806582	0.463757
H163	H	0.436753	-0.723976	0.521316
H164	H	0.332556	-0.855257	0.495011
H165	H	0.330249	-0.772682	0.552579
H166	H	0.422101	-0.854357	0.605113
H167	H	0.424394	-0.936955	0.547549
H168	H	0.361182	-0.930385	0.598642
C169	C	0.594937	-0.417800	0.269307
C170	C	0.522432	-0.428269	0.276007
C171	C	0.487388	-0.356227	0.229698
H172	H	0.606479	-0.348528	0.280110
H173	H	0.608801	-0.431115	0.222540
H174	H	0.508574	-0.414946	0.322764
H175	H	0.510869	-0.497525	0.265198
H176	H	0.501252	-0.369542	0.182931
H177	H	0.498935	-0.286960	0.240506
H178	H	0.438190	-0.363327	0.234233
H179	H	0.731170	-0.699099	0.449959
