data_functionalizedCrystal
_audit_creation_method	'MofGen! by Chris Wilmer'
_symmetry_space_group_name_H-M	'P1'
_symmetry_Int_Tables_number	1
_symmetry_cell_setting	triclinic
loop_
_symmetry_equiv_pos_as_xyz
  x,y,z
_cell_length_a	18.215407
_cell_length_b	17.640280
_cell_length_c	18.215399
_cell_angle_alpha	78.775082
_cell_angle_beta	89.980650
_cell_angle_gamma	78.800709
loop_
_atom_site_label
_atom_site_type_symbol
_atom_site_fract_x
_atom_site_fract_y
_atom_site_fract_z
Zn1	Zn	1.184362	-0.314658	-0.356963
Zn2	Zn	1.209179	-0.446836	-0.209049
Zn3	Zn	1.061301	-0.314685	-0.233906
Zn4	Zn	1.086159	-0.446792	-0.332082
O5	O	1.135250	-0.380743	-0.283000
O6	O	1.290640	-0.332199	-0.337352
O7	O	1.189545	-0.429336	-0.109356
O8	O	1.056836	-0.204077	-0.271045
O9	O	1.308873	-0.429310	-0.228680
O10	O	1.147248	-0.204057	-0.361455
O11	O	1.080900	-0.332245	-0.127618
O12	O	0.961613	-0.332201	-0.246919
O13	O	1.099204	-0.429234	-0.438373
O14	O	0.979876	-0.429260	-0.319049
O15	O	1.171353	-0.332156	-0.456653
O16	O	1.213650	-0.557435	-0.204554
O17	O	1.123268	-0.557402	-0.294946
C18	C	0.944041	-0.380729	-0.282981
C19	C	0.862245	-0.380742	-0.282987
C20	C	0.683595	-0.431360	-0.320471
C21	C	0.606737	-0.431363	-0.320480
C22	C	0.587660	-0.330140	-0.245542
C23	C	0.664516	-0.330134	-0.245538
C24	C	0.712483	-0.380749	-0.283001
C25	C	0.558768	-0.380757	-0.283013
C26	C	0.475435	-0.380759	-0.283023
C27	C	0.795821	-0.380745	-0.282993
C28	C	1.173869	-0.586097	-0.244369
C29	C	1.190458	-0.673948	-0.227867
C30	C	1.009530	-0.962931	-0.408631
C31	C	1.025119	-1.045481	-0.393102
C32	C	1.119292	-1.045450	-0.299072
C33	C	1.103714	-0.962899	-0.314596
C34	C	1.048831	-0.921646	-0.369376
C35	C	1.143015	-0.921613	-0.275341
C36	C	1.127435	-0.839069	-0.290861
C37	C	1.072553	-0.797810	-0.345637
C38	C	1.033251	-0.839102	-0.384896
C39	C	1.197893	-0.962867	-0.220557
C40	C	1.237194	-0.921582	-0.181302
C41	C	1.221618	-0.839036	-0.196826
C42	C	1.166737	-0.797778	-0.251602
C43	C	1.260920	-0.797745	-0.157566
C44	C	1.245340	-0.715201	-0.173087
C45	C	1.151157	-0.715233	-0.267122
C46	C	1.327206	-0.380757	-0.283019
C47	C	1.409006	-0.380763	-0.283027
C48	C	1.135283	-0.380687	-0.474963
C49	C	1.135297	-0.380663	-0.556767
C50	C	1.096501	-0.174587	-0.321798
C51	C	1.079988	-0.086736	-0.338332
C52	C	1.172879	-0.330046	-0.831357
C53	C	1.172874	-0.330068	-0.754494
C54	C	1.097753	-0.431165	-0.735447
C55	C	1.097762	-0.431147	-0.812308
C56	C	1.135324	-0.380583	-0.860262
C57	C	1.135309	-0.380622	-0.706538
C58	C	1.135304	-0.380646	-0.623200
C59	C	1.135330	-0.380560	-0.943605
C60	C	1.135249	-0.380741	-0.091794
C61	C	1.135336	-0.380543	-0.010033
H62	H	0.688035	-0.288915	-0.215026
Br63	Br	1.298667	-0.659165	-0.119802
H64	H	1.106471	-0.681644	-0.311735
H65	H	1.203463	-0.288873	-0.870400
H66	H	1.067180	-0.472304	-0.835841
Br67	Br	0.935055	-0.906937	-0.482986
H68	H	0.988566	-0.805512	-0.429509
H69	H	1.203457	-0.288916	-0.730964
H70	H	1.067170	-0.472331	-0.696394
Br71	Br	0.522559	-0.261452	-0.194702
Br72	Br	0.567535	-0.500049	-0.371339
H73	H	0.722648	-0.472572	-0.350978
H74	H	1.059864	-0.730598	-0.358267
H75	H	0.993120	-1.079093	-0.425081
H76	H	1.163975	-1.079049	-0.254468
Br77	Br	1.219066	-1.074893	-0.199521
H78	H	1.281878	-0.955181	-0.136698
H79	H	1.305600	-0.831345	-0.112959
