data_functionalizedCrystal
_audit_creation_method	'MofGen! by Chris Wilmer'
_symmetry_space_group_name_H-M	'P1'
_symmetry_Int_Tables_number	1
_symmetry_cell_setting	triclinic
loop_
_symmetry_equiv_pos_as_xyz
  x,y,z
_cell_length_a	15.995343
_cell_length_b	17.699083
_cell_length_c	16.776229
_cell_angle_alpha	89.998886
_cell_angle_beta	90.011373
_cell_angle_gamma	96.613900
loop_
_atom_site_label
_atom_site_type_symbol
_atom_site_fract_x
_atom_site_fract_y
_atom_site_fract_z
O1	O	0.105886	-1.004252	0.066185
O2	O	0.605886	-0.504252	0.566185
O3	O	0.119661	-0.783896	0.066212
O4	O	0.619661	-0.283896	0.566212
O5	O	-0.009127	-0.900101	0.066183
O6	O	0.490873	-0.400101	0.566183
O7	O	0.234674	-0.888047	0.066214
O8	O	0.734674	-0.388047	0.566214
O9	O	-0.009135	-0.900085	-0.066394
O10	O	0.490865	-0.400085	0.433606
O11	O	0.119654	-0.783881	-0.066365
O12	O	0.619654	-0.283881	0.433635
O13	O	0.105878	-1.004236	-0.066392
O14	O	0.605878	-0.504236	0.433608
Zn15	Zn	0.112764	-0.894056	-0.087427
Zn16	Zn	0.612764	-0.394056	0.412573
Zn17	Zn	0.112775	-0.894076	0.087248
Zn18	Zn	0.612775	-0.394076	0.587248
O19	O	0.234666	-0.888032	-0.066363
O20	O	0.734666	-0.388032	0.433637
C21	C	0.119164	-0.755690	-0.000073
C22	C	0.619164	-0.255690	0.499927
C23	C	0.117683	-0.671670	-0.000063
C24	C	0.617683	-0.171670	0.499937
C25	C	-0.040325	-0.899596	-0.000107
C26	C	0.459675	-0.399596	0.499893
C27	C	-0.133272	-0.898105	-0.000114
C28	C	0.366728	-0.398105	0.499886
C29	C	0.106375	-1.032442	-0.000105
C30	C	0.606375	-0.532442	0.499895
C31	C	0.107856	-1.116462	-0.000109
C32	C	0.607856	-0.616462	0.499891
C33	C	-0.303453	-0.895399	-0.000095
C34	C	0.196547	-0.395399	0.499905
C35	C	-0.326628	-0.811517	-0.000083
C36	C	0.173372	-0.311517	0.499917
C37	C	-0.423303	-0.809939	0.000227
C38	C	0.076697	-0.309939	0.500227
C39	C	-0.471008	-0.892734	-0.000078
C40	C	0.028992	-0.392734	0.499922
C41	C	-0.441990	-0.934920	0.075472
C42	C	0.058010	-0.434920	0.575472
C43	C	-0.345200	-0.935915	0.075527
C44	C	0.154800	-0.435915	0.575527
C45	C	-0.345315	-0.937125	-0.075243
C46	C	0.154685	-0.437125	0.424757
C47	C	-0.441804	-0.934028	-0.076227
C48	C	0.058196	-0.434028	0.423773
C49	C	-0.565703	-0.891232	-0.000065
C50	C	-0.065703	-0.391232	0.499935
C51	C	-0.208758	-0.896903	-0.000102
C52	C	0.291242	-0.396903	0.499898
C53	C	0.265864	-0.888537	-0.000071
C54	C	0.765864	-0.388537	0.499929
C55	C	0.358811	-0.890028	-0.000059
C56	C	0.858811	-0.390028	0.499941
N57	N	0.112757	-0.894048	-0.206639
N58	N	0.612757	-0.394048	0.293361
C59	C	0.193279	-0.623173	-0.000054
C60	C	0.693279	-0.123173	0.499946
C61	C	0.191883	-0.544227	-0.000064
C62	C	0.691883	-0.044227	0.499936
C63	C	0.114889	-0.513780	-0.000079
C64	C	0.614889	-0.013780	0.499921
C65	C	0.039288	-0.562284	-0.000090
C66	C	0.539288	-0.062284	0.499910
C67	C	0.040685	-0.641228	-0.000086
C68	C	0.540685	-0.141228	0.499914
C69	C	0.033651	-0.243911	-0.000111
C70	C	0.533651	0.256089	0.499889
C71	C	0.032259	-0.164961	-0.000113
C72	C	0.532259	0.335039	0.499887
C73	C	0.184849	-0.146911	-0.000090
C74	C	0.684849	0.353089	0.499910
C75	C	0.186246	-0.225855	-0.000085
C76	C	0.686246	0.274145	0.499915
C77	C	0.110644	-0.274351	-0.000101
C78	C	0.610644	0.225649	0.499899
C79	C	0.112160	-0.359953	-0.000091
C80	C	0.612160	0.140047	0.499909
C81	C	0.113373	-0.428180	-0.000083
C82	C	0.613373	0.071820	0.499917
C83	C	0.055753	-0.945519	-0.248369
C84	C	0.555753	-0.445519	0.251631
C85	C	0.055752	-0.945523	-0.331821
C86	C	0.555752	-0.445523	0.168179
C87	C	0.112760	-0.894059	-0.373542
C88	C	0.612760	-0.394059	0.126458
C89	C	0.169767	-0.842583	-0.331806
C90	C	0.669767	-0.342583	0.168194
C91	C	0.169763	-0.842575	-0.248355
C92	C	0.669763	-0.342575	0.251645
C93	C	0.169783	-0.842610	-0.668353
C94	C	0.669783	-0.342610	-0.168353
C95	C	0.169785	-0.842623	-0.751810
C96	C	0.669785	-0.342623	-0.251810
C97	C	0.055772	-0.945558	-0.751819
C98	C	0.555772	-0.445558	-0.251819
C99	C	0.055768	-0.945550	-0.668368
C100	C	0.555768	-0.445550	-0.168368
C101	C	0.112772	-0.894072	-0.626640
C102	C	0.612772	-0.394072	-0.126640
C103	C	0.112771	-0.894067	-0.536151
C104	C	0.612771	-0.394067	-0.036151
C105	C	0.112766	-0.894067	-0.464028
C106	C	0.612766	-0.394067	0.035972
N107	N	0.112776	-0.894091	0.206459
N108	N	0.612776	-0.394091	0.706459
H109	H	-0.298562	-0.778997	-0.054254
H110	H	0.201438	-0.278997	0.445746
H111	H	-0.027909	-0.283388	-0.000124
H112	H	0.472091	0.216612	0.499876
H113	H	-0.297570	-0.779540	0.054022
H114	H	0.202430	-0.279540	0.554022
H115	H	-0.331421	-0.998865	-0.075984
H116	H	0.168579	-0.498865	0.424016
C117	C	0.257498	-0.415196	-0.000056
C118	C	0.757498	0.084804	0.499944
C119	C	0.274980	-0.490918	-0.000045
C120	C	0.774980	0.009082	0.499955
H121	H	0.308803	-0.382287	-0.000047
H122	H	0.808803	0.117713	0.499953
H123	H	0.225922	-0.405971	0.046164
H124	H	0.725922	0.094029	0.546164
H125	H	0.225926	-0.405976	-0.046301
H126	H	0.725926	0.094024	0.453699
H127	H	0.306547	-0.500140	0.046204
H128	H	0.806547	-0.000140	0.546204
H129	H	0.306570	-0.500147	-0.046269
H130	H	0.806570	-0.000147	0.453731
C131	C	0.250475	-0.017878	-0.000097
C132	C	0.750475	0.482122	0.499903
C133	C	0.267954	-0.093601	-0.000083
C134	C	0.767954	0.406399	0.499917
H135	H	0.301780	0.015030	-0.000096
H136	H	0.801780	0.515030	0.499904
H137	H	0.218905	-0.008649	0.046126
H138	H	0.718905	0.491351	0.546126
H139	H	0.218897	-0.008660	-0.046339
H140	H	0.718897	0.491340	0.453661
H141	H	0.299527	-0.102821	0.046163
H142	H	0.799527	0.397179	0.546163
H143	H	0.299537	-0.102834	-0.046310
H144	H	0.799537	0.397166	0.453690
C145	C	0.336940	-0.200081	-0.000072
C146	C	0.836940	0.299919	0.499928
C147	C	0.270879	-0.259321	-0.000073
C148	C	0.770879	0.240679	0.499927
H149	H	0.389188	-0.220742	-0.000072
H150	H	0.889188	0.279258	0.499928
H151	H	0.333228	-0.169666	0.046156
H152	H	0.833228	0.330334	0.546156
H153	H	0.333210	-0.169665	-0.046309
H154	H	0.833210	0.330335	0.453691
H155	H	0.274605	-0.289734	0.046167
H156	H	0.774605	0.210266	0.546167
H157	H	0.274593	-0.289748	-0.046306
H158	H	0.774593	0.210252	0.453694
C159	C	0.283732	-0.826134	-0.154476
C160	C	0.783732	-0.326134	0.345524
C161	C	0.232424	-0.785999	-0.202480
C162	C	0.732424	-0.285999	0.297520
H163	H	0.322412	-0.791202	-0.126152
H164	H	0.822412	-0.291202	0.373848
H165	H	0.313810	-0.857629	-0.187019
H166	H	0.813810	-0.357629	0.312981
H167	H	0.249769	-0.856780	-0.117691
H168	H	0.749769	-0.356780	0.382309
H169	H	0.266387	-0.755357	-0.239268
H170	H	0.766387	-0.255357	0.260732
H171	H	0.202344	-0.754491	-0.169933
H172	H	0.702344	-0.254491	0.330067
H173	H	-0.442263	-0.776909	-0.053914
H174	H	0.057737	-0.276909	0.446086
H175	H	-0.318346	-0.907053	0.132224
H176	H	0.181654	-0.407053	0.632224
H177	H	-0.030442	-0.140175	-0.000126
H178	H	0.469558	0.359825	0.499874
H179	H	-0.441665	-0.777087	0.054713
H180	H	0.058335	-0.277087	0.554713
C181	C	-0.401157	-1.067585	0.082432
C182	C	0.098843	-0.567585	0.582432
C183	C	-0.325686	-1.018951	0.079882
C184	C	0.174314	-0.518951	0.579882
H185	H	-0.389110	-1.118846	0.085133
H186	H	0.110890	-0.618846	0.585133
H187	H	-0.433052	-1.060661	0.035777
H188	H	0.066948	-0.560661	0.535777
H189	H	-0.432484	-1.056236	0.128126
H190	H	0.067516	-0.556236	0.628126
H191	H	-0.294362	-1.030297	0.034185
H192	H	0.205638	-0.530297	0.534185
H193	H	-0.293778	-1.025879	0.126543
H194	H	0.206222	-0.525879	0.626543
C195	C	0.220405	-0.796892	-0.459724
C196	C	0.720405	-0.296892	0.040276
C197	C	0.232434	-0.786013	-0.377664
C198	C	0.732434	-0.286013	0.122336
H199	H	0.259100	-0.761971	-0.488031
H200	H	0.759100	-0.261971	0.011969
H201	H	0.164543	-0.788675	-0.473412
H202	H	0.664543	-0.288675	0.026588
H203	H	0.229431	-0.847405	-0.473381
H204	H	0.729431	-0.347405	0.026619
H205	H	0.223403	-0.735501	-0.364005
H206	H	0.723403	-0.235501	0.135995
H207	H	0.288310	-0.794224	-0.363970
H208	H	0.788310	-0.294224	0.136030
C209	C	-0.030611	-0.449285	-0.000101
C210	C	0.469389	0.050715	0.499899
C211	C	-0.045346	-0.528818	-0.000104
C212	C	0.454654	-0.028818	0.499896
H213	H	-0.082862	-0.428628	-0.000103
H214	H	0.417138	0.071372	0.499897
H215	H	0.000500	-0.432643	-0.046327
H216	H	0.500500	0.067357	0.453673
H217	H	0.000513	-0.432645	0.046138
H218	H	0.500513	0.067355	0.546138
H219	H	-0.076465	-0.545458	-0.046347
H220	H	0.423535	-0.045458	0.453653
H221	H	-0.076470	-0.545467	0.046126
H222	H	0.423530	-0.045467	0.546126
C223	C	0.037381	-1.048485	-0.154471
C224	C	0.537381	-0.548485	0.345529
C225	C	-0.006934	-1.002055	-0.202492
C226	C	0.493066	-0.502055	0.297508
H227	H	-0.001329	-1.083379	-0.126149
H228	H	0.498671	-0.583379	0.373851
H229	H	0.071342	-1.017829	-0.117692
H230	H	0.571342	-0.517829	0.382308
H231	H	0.072173	-1.075743	-0.187008
H232	H	0.572173	-0.575743	0.312992
H233	H	-0.041721	-0.974792	-0.169954
H234	H	0.458279	-0.474792	0.330046
H235	H	-0.040910	-1.032715	-0.239275
H236	H	0.459090	-0.532715	0.260725
H237	H	0.216199	-0.800695	-0.634384
H238	H	0.716199	-0.300695	-0.134384
C239	C	-0.394383	-0.867207	-0.195398
C240	C	0.105617	-0.367207	0.304602
C241	C	-0.466779	-0.892567	-0.151691
C242	C	0.033221	-0.392567	0.348309
H243	H	-0.409804	-0.841608	-0.241984
H244	H	0.090196	-0.341608	0.258016
H245	H	-0.366277	-0.909520	-0.210191
H246	H	0.133723	-0.409520	0.289809
H247	H	-0.357976	-0.833284	-0.163663
H248	H	0.142024	-0.333284	0.336337
H249	H	-0.503183	-0.926494	-0.183424
H250	H	-0.003183	-0.426494	0.316576
H251	H	-0.494898	-0.850248	-0.136899
H252	H	0.005102	-0.350248	0.363101
C253	C	-0.397639	-0.870260	0.196748
C254	C	0.102361	-0.370260	0.696748
C255	C	-0.469008	-0.895861	0.151680
C256	C	0.030992	-0.395861	0.651680
H257	H	-0.414318	-0.846147	0.243795
H258	H	0.085682	-0.346147	0.743795
H259	H	-0.361525	-0.834993	0.166247
H260	H	0.138475	-0.334993	0.666247
H261	H	-0.368679	-0.912280	0.210777
H262	H	0.131321	-0.412280	0.710777
H263	H	-0.497964	-0.853840	0.137645
H264	H	0.002036	-0.353840	0.637645
H265	H	-0.505136	-0.931130	0.182187
H266	H	-0.005136	-0.431130	0.682187
C267	C	-0.089257	-0.990007	-0.357529
C268	C	0.410743	-0.490007	0.142471
C269	C	-0.006903	-1.002113	-0.377684
C270	C	0.493097	-0.502113	0.122316
H271	H	-0.127936	-1.024951	-0.385838
H272	H	0.372064	-0.524951	0.114162
H273	H	-0.098287	-0.939510	-0.371224
H274	H	0.401713	-0.439510	0.128776
H275	H	-0.097401	-0.997364	-0.301856
H276	H	0.402599	-0.497364	0.198144
H277	H	0.001244	-0.994751	-0.433357
H278	H	0.501244	-0.494751	0.066643
H279	H	0.002131	-1.052622	-0.363995
H280	H	0.502131	-0.552622	0.136005
H281	H	-0.473960	-0.995854	0.078063
H282	H	0.026040	-0.495854	0.578063
H283	H	0.255976	-0.647956	-0.000042
H284	H	0.755976	-0.147956	0.499958
C285	C	-0.088941	-0.680928	0.068057
C286	C	0.411059	-0.180928	0.568057
C287	C	-0.042411	-0.694542	-0.000090
C288	C	0.457589	-0.194542	0.499910
H289	H	-0.140240	-0.713846	0.068053
H290	H	0.359760	-0.213846	0.568053
H291	H	-0.100793	-0.629562	0.068047
H292	H	0.399207	-0.129562	0.568047
H293	H	-0.057351	-0.690157	0.114288
H294	H	0.442649	-0.190157	0.614288
H295	H	-0.073999	-0.685308	-0.046321
H296	H	0.426001	-0.185308	0.453679
H297	H	-0.030562	-0.745920	-0.000086
H298	H	0.469438	-0.245920	0.499914
C299	C	-0.058214	-0.962002	-0.845684
C300	C	0.441786	-0.462002	-0.345684
C301	C	-0.006898	-1.002137	-0.797690
C302	C	0.493102	-0.502137	-0.297690
H303	H	-0.096904	-0.996933	-0.873997
H304	H	0.403096	-0.496933	-0.373997
H305	H	-0.024264	-0.931360	-0.882470
H306	H	0.475736	-0.431360	-0.382470
H307	H	-0.088287	-0.930502	-0.813128
H308	H	0.411713	-0.430502	-0.313128
H309	H	0.023180	-1.033633	-0.830246
H310	H	0.523180	-0.533633	-0.330246
H311	H	-0.040853	-1.032792	-0.760899
H312	H	0.459147	-0.532792	-0.260899
C313	C	-0.056939	-1.047296	-0.676762
C314	C	0.443061	-0.547296	-0.176762
C315	C	-0.006899	-1.002118	-0.622510
C316	C	0.493101	-0.502118	-0.122510
H317	H	-0.095632	-1.082213	-0.648449
H318	H	0.404368	-0.582213	-0.148449
H319	H	-0.022123	-1.074521	-0.709295
H320	H	0.477877	-0.574521	-0.209295
H321	H	-0.087009	-1.015789	-0.709325
H322	H	0.412991	-0.515789	-0.209325
H323	H	0.023175	-1.033625	-0.589950
H324	H	0.523175	-0.533625	-0.089950
H325	H	-0.041720	-0.974891	-0.589962
H326	H	0.458280	-0.474891	-0.089962
C327	C	-0.541320	-1.030315	-0.018104
C328	C	-0.041320	-0.530315	0.481896
C329	C	-0.486468	-1.015579	-0.082723
C330	C	0.013532	-0.515579	0.417277
H331	H	-0.568898	-1.080662	-0.022115
H332	H	-0.068898	-0.580662	0.477885
H333	H	-0.582003	-0.995233	-0.018606
H334	H	-0.082003	-0.495233	0.481394
H335	H	-0.510254	-1.025057	0.030235
H336	H	-0.010254	-0.525057	0.530235
H337	H	-0.517536	-1.020832	-0.131062
H338	H	-0.017536	-0.520832	0.368938
H339	H	-0.445780	-1.050672	-0.082228
H340	H	0.054220	-0.550672	0.417772
H341	H	0.216209	-0.800712	-0.785777
H342	H	0.716209	-0.300712	-0.285777
H343	H	-0.317000	-0.910653	-0.132528
H344	H	0.183000	-0.410653	0.367472
