data_functionalizedCrystal
_audit_creation_method	'MofGen! by Chris Wilmer'
_symmetry_space_group_name_H-M	'P1'
_symmetry_Int_Tables_number	1
_symmetry_cell_setting	triclinic
loop_
_symmetry_equiv_pos_as_xyz
  x,y,z
_cell_length_a	9.065215
_cell_length_b	19.188924
_cell_length_c	8.140239
_cell_angle_alpha	89.994423
_cell_angle_beta	89.997810
_cell_angle_gamma	84.078331
loop_
_atom_site_label
_atom_site_type_symbol
_atom_site_fract_x
_atom_site_fract_y
_atom_site_fract_z
O1	O	1.956844	0.102360	-0.136603
O2	O	1.527267	0.110759	-0.136611
O3	O	1.754457	0.005000	-0.136588
O4	O	1.729653	0.208119	-0.136627
O5	O	1.754445	0.004999	0.136639
O6	O	1.527254	0.110758	0.136616
O7	O	1.956831	0.102359	0.136624
Zn8	Zn	1.742041	0.106558	0.180000
Zn9	Zn	1.742057	0.106560	-0.179988
O10	O	1.729641	0.208118	0.136600
C11	C	1.472302	0.109952	0.000001
C12	C	1.308542	0.107540	-0.000001
C13	C	1.753649	-0.021018	0.000027
C14	C	1.751243	-0.098542	0.000032
C15	C	1.750127	-0.134948	-0.148905
C16	C	1.747845	-0.207789	-0.148917
C17	C	1.746710	-0.244221	0.000015
C18	C	1.747818	-0.207805	0.148971
C19	C	1.750084	-0.134965	0.148979
N20	N	1.827096	-0.363261	0.110863
N21	N	1.824945	-0.432456	0.110845
C22	C	1.739876	-0.463683	-0.000001
N23	N	1.657057	-0.423103	-0.110854
N24	N	1.659214	-0.353902	-0.110840
C25	C	1.744251	-0.323204	0.000023
C26	C	1.736284	-0.579072	-0.148961
C27	C	1.733993	-0.651913	-0.148968
C28	C	1.733980	-0.651929	0.148925
C29	C	1.736256	-0.579088	0.148927
C30	C	1.737415	-0.542665	-0.000020
C31	C	2.011796	0.103166	0.000007
C32	C	2.175556	0.105578	-0.000001
C33	C	1.730449	0.234136	-0.000018
C34	C	1.732855	0.311659	-0.000034
N35	N	1.742040	0.106557	0.425683
N36	N	1.742069	0.106556	-0.425671
H37	H	1.746927	-0.237437	-0.270203
H38	H	1.737219	-0.549414	-0.270243
H39	H	1.746888	-0.237473	0.270233
C40	C	1.751397	-0.094883	-0.312736
H41	H	1.752921	-0.046287	-0.291405
H42	H	1.665028	-0.102035	-0.373949
H43	H	1.837055	-0.111601	-0.373917
C44	C	1.732719	-0.691995	0.312749
H45	H	1.731213	-0.740591	0.291415
H46	H	1.647078	-0.675276	0.373939
H47	H	1.819105	-0.684847	0.373953
C48	C	1.732758	-0.691961	-0.312806
H49	H	1.733785	-0.659834	-0.401506
H50	H	1.645863	-0.715591	-0.319011
H51	H	1.817890	-0.725160	-0.318991
C52	C	1.737509	-0.539040	0.312759
H53	H	1.736519	-0.571169	0.401459
H54	H	1.652389	-0.505841	0.318958
H55	H	1.824416	-0.515411	0.318949
H56	H	1.750987	-0.105323	0.270265
