data_functionalizedCrystal
_audit_creation_method	'MofGen! by Chris Wilmer'
_symmetry_space_group_name_H-M	'P1'
_symmetry_Int_Tables_number	1
_symmetry_cell_setting	triclinic
loop_
_symmetry_equiv_pos_as_xyz
  x,y,z
_cell_length_a	21.395363
_cell_length_b	21.395361
_cell_length_c	21.395355
_cell_angle_alpha	90.021511
_cell_angle_beta	89.979718
_cell_angle_gamma	89.949529
loop_
_atom_site_label
_atom_site_type_symbol
_atom_site_fract_x
_atom_site_fract_y
_atom_site_fract_z
Zn1	Zn	0.957859	0.249181	-0.354177
Zn2	Zn	0.957762	0.353941	-0.249394
Zn3	Zn	0.853074	0.249217	-0.249422
Zn4	Zn	0.853043	0.353961	-0.354142
O5	O	0.905435	0.301575	-0.301784
O6	O	1.045524	0.263054	-0.340281
O7	O	0.943847	0.340056	-0.161720
O8	O	0.867028	0.161534	-0.263344
O9	O	1.045453	0.340020	-0.263297
O10	O	0.944013	0.161508	-0.340307
O11	O	0.866933	0.263116	-0.161740
O12	O	0.765392	0.263135	-0.263310
O13	O	0.866975	0.340054	-0.441825
O14	O	0.765370	0.340090	-0.340248
O15	O	0.943983	0.263073	-0.441850
O16	O	0.943817	0.441621	-0.263263
O17	O	0.866881	0.441636	-0.340221
C18	C	0.742647	0.301619	-0.301778
C19	C	0.673006	0.301653	-0.301791
C20	C	0.905352	0.464362	-0.301749
C21	C	0.905374	0.534004	-0.301755
C22	C	0.905487	0.301562	-0.465207
C23	C	0.905509	0.301557	-0.534848
C24	C	1.068858	0.301531	-0.301790
C25	C	1.138499	0.301512	-0.301792
C26	C	1.171181	0.341581	-0.341851
C27	C	1.236616	0.341603	-0.341849
C28	C	1.269368	0.301544	-0.301794
C29	C	1.236678	0.261472	-0.261728
C30	C	1.171244	0.261456	-0.261726
C31	C	1.373097	0.245120	-0.296868
C32	C	1.438529	0.245135	-0.296873
C33	C	1.471188	0.301593	-0.301794
C34	C	1.438406	0.358039	-0.306723
C35	C	1.372972	0.358023	-0.306722
C36	C	1.340320	0.301557	-0.301791
C37	C	1.574822	0.341689	-0.341853
C38	C	1.640259	0.341711	-0.341847
C39	C	1.640320	0.261575	-0.261728
C40	C	1.574884	0.261558	-0.261732
C41	C	1.542140	0.301614	-0.301797
C42	C	0.905535	0.138151	-0.301832
C43	C	0.905577	0.068510	-0.301853
C44	C	0.945470	0.566688	-0.261724
C45	C	0.945499	0.632124	-0.261738
C46	C	0.905421	0.664872	-0.301776
C47	C	0.865322	0.632179	-0.341815
C48	C	0.865298	0.566745	-0.341804
C49	C	0.849006	0.768607	-0.306691
C50	C	0.849029	0.834039	-0.306697
C51	C	0.905494	0.866693	-0.301813
C52	C	0.961938	0.833905	-0.296910
C53	C	0.961915	0.768471	-0.296899
C54	C	0.905442	0.735824	-0.301793
C55	C	0.945625	0.970330	-0.261795
C56	C	0.945655	1.035766	-0.261814
C57	C	0.865473	1.035821	-0.341887
C58	C	0.865448	0.970385	-0.341872
C59	C	0.905523	0.937644	-0.301823
C60	C	0.945605	0.261471	-0.567576
C61	C	0.945604	0.261444	-0.633011
C62	C	0.905514	0.301514	-0.665717
C63	C	0.865410	0.341603	-0.632981
C64	C	0.865407	0.341624	-0.567547
C65	C	0.900538	0.357931	-0.769380
C66	C	0.900545	0.357911	-0.834813
C67	C	0.905518	0.301448	-0.867538
C68	C	0.910497	0.245003	-0.834821
C69	C	0.910494	0.245025	-0.769387
C70	C	0.905512	0.301495	-0.736669
C71	C	0.945615	0.261329	-0.971218
C72	C	0.945610	0.261301	-1.036654
C73	C	0.865419	0.341466	-1.036623
C74	C	0.865421	0.341488	-0.971188
C75	C	0.905522	0.301421	-0.938489
C76	C	0.905419	0.301542	-0.138996
C77	C	0.905518	0.301371	-0.069355
H78	H	1.144524	0.374201	-0.374474
N79	N	1.271995	0.218258	-0.218529
H80	H	1.260584	0.227989	-0.173758
H81	H	1.318396	0.224363	-0.224662
N82	N	0.822190	0.935130	-0.385040
H83	H	0.828256	0.888709	-0.378957
H84	H	0.831922	0.946530	-0.429798
H85	H	1.666986	0.228960	-0.229113
N86	N	1.539505	0.384900	-0.385059
H87	H	1.512313	0.413928	-0.359587
H88	H	1.512433	0.359386	-0.414098
N89	N	1.337615	0.418899	-0.312023
H90	H	1.291208	0.410320	-0.311274
H91	H	1.349038	0.440196	-0.352563
H92	H	0.832647	0.540133	-0.374403
N93	N	0.988863	0.218066	-1.071955
H94	H	0.982779	0.224130	-1.118369
H95	H	0.979145	0.173324	-1.060514
N96	N	1.675504	0.384933	-0.385059
H97	H	1.702694	0.359473	-0.414099
H98	H	1.702573	0.413975	-0.359548
N99	N	1.473883	0.184257	-0.291555
H100	H	1.520290	0.192833	-0.292306
H101	H	1.462487	0.156237	-0.327792
H102	H	0.832770	0.374085	-1.063251
H103	H	0.914547	0.199066	-0.742752
N104	N	1.539630	0.218338	-0.218527
H105	H	1.570305	0.192964	-0.193151
H106	H	1.512522	0.189334	-0.244039
N107	N	1.337874	0.184222	-0.291557
H108	H	1.368569	0.148468	-0.288440
H109	H	1.310745	0.178395	-0.329733
N110	N	0.822240	1.071135	-0.385067
H111	H	0.796831	1.040497	-0.410423
H112	H	0.847737	1.098237	-0.414090
H113	H	0.832774	0.374134	-0.944541
N114	N	0.895177	0.418785	-0.870099
H115	H	0.931384	0.446822	-0.858718
H116	H	0.854590	0.440064	-0.858685
N117	N	0.822094	0.667502	-0.384995
H118	H	0.777328	0.656173	-0.375224
H119	H	0.831851	0.656068	-0.429752
H120	H	0.803068	0.860730	-0.310683
H121	H	0.978152	0.658741	-0.229140
N122	N	0.988854	0.218256	-0.532308
H123	H	1.014255	0.192857	-0.562974
H124	H	0.963368	0.189275	-0.505153
H125	H	0.978254	0.228798	-0.659663
H126	H	0.832753	0.374266	-0.540901
H127	H	0.914547	0.199026	-0.861465
N128	N	0.895182	0.418835	-0.734086
H129	H	0.892038	0.454588	-0.764739
H130	H	0.933358	0.424642	-0.706954
N131	N	0.988863	0.218115	-0.935944
H132	H	1.014261	0.192712	-0.966609
H133	H	0.963376	0.189137	-0.908785
H134	H	1.007873	0.741776	-0.292909
N135	N	1.135990	0.218238	-0.218517
H136	H	1.166665	0.192864	-0.193139
H137	H	1.108884	0.189232	-0.244030
H138	H	0.832766	0.374226	-0.659614
H139	H	0.978259	0.943671	-0.229186
N140	N	1.271876	0.384822	-0.385056
H141	H	1.241203	0.410196	-0.410436
H142	H	1.299062	0.359317	-0.414056
N143	N	0.988701	0.531374	-0.218539
H144	H	1.014110	0.562013	-0.193184
H145	H	1.017673	0.504181	-0.244070
H146	H	1.464995	0.404012	-0.310734
H147	H	1.007918	0.860489	-0.292933
H148	H	0.803022	0.742027	-0.310670
N149	N	0.988907	1.071023	-0.218639
H150	H	1.014288	1.040349	-0.193267
H151	H	0.963425	1.098221	-0.189630
