data_functionalizedCrystal
_audit_creation_method	'MofGen! by Chris Wilmer'
_symmetry_space_group_name_H-M	'P1'
_symmetry_Int_Tables_number	1
_symmetry_cell_setting	triclinic
loop_
_symmetry_equiv_pos_as_xyz
  x,y,z
_cell_length_a	15.944545
_cell_length_b	15.944493
_cell_length_c	14.421503
_cell_angle_alpha	90.010165
_cell_angle_beta	89.995153
_cell_angle_gamma	83.485608
loop_
_atom_site_label
_atom_site_type_symbol
_atom_site_fract_x
_atom_site_fract_y
_atom_site_fract_z
O1	O	1.114510	0.108298	-0.077039
O2	O	0.869957	0.121660	-0.077053
O3	O	0.998937	-0.007299	-0.077053
O4	O	0.985530	0.237258	-0.077039
O5	O	0.998916	-0.007280	0.077170
O6	O	0.869935	0.121680	0.077171
O7	O	1.114489	0.108317	0.077184
Cu8	Cu	0.992210	0.115000	0.091259
Cu9	Cu	0.992235	0.114978	-0.091128
O10	O	0.985508	0.237277	0.077185
C11	C	0.838652	0.121116	0.000057
C12	C	0.745406	0.119456	0.000051
C13	C	0.474791	0.034560	0.000056
C14	C	0.525354	0.075499	0.076101
C15	C	0.409764	0.113535	0.000067
C16	C	0.525355	0.075502	-0.075951
C17	C	0.574677	0.116440	0.000057
C18	C	0.459098	0.154453	0.076174
C19	C	0.459096	0.154444	-0.075946
C20	C	0.509626	0.195442	0.000117
C21	C	0.314762	0.111860	0.000073
C22	C	0.669676	0.118122	0.000058
C23	C	0.998378	-0.038584	0.000054
C24	C	0.996735	-0.131833	0.000042
C25	C	1.072656	-0.367594	0.000064
C26	C	1.031726	-0.418171	-0.075978
C27	C	0.993691	-0.302554	0.000054
C28	C	1.031686	-0.418128	0.076074
C29	C	0.990757	-0.467463	0.000068
C30	C	0.952782	-0.351902	-0.076051
C31	C	0.952754	-0.351856	0.076069
C32	C	0.911766	-0.402400	0.000009
C33	C	0.995384	-0.207554	0.000044
C34	C	0.989058	-0.562460	0.000071
C35	C	1.145793	0.108862	0.000072
C36	C	1.239039	0.110522	0.000072
C37	C	0.986067	0.268562	0.000075
C38	C	0.987710	0.361811	0.000081
N39	N	0.992198	0.115016	0.219540
N40	N	0.992254	0.114956	-0.219409
C41	C	0.932548	0.174620	0.469194
C42	C	1.008444	0.190926	0.531003
C43	C	0.992219	0.114996	0.408702
C44	C	0.916342	0.098709	0.530987
C45	C	0.992232	0.114978	0.591423
C46	C	1.068154	0.131339	0.469149
C47	C	0.976001	0.039090	0.469129
C48	C	1.051953	0.055364	0.530909
C49	C	0.992210	0.115008	0.303441
C50	C	0.992249	0.114965	0.696682
H51	H	0.459152	-0.033454	0.000126
H52	H	1.132342	0.145184	0.442100
O53	O	1.112331	-0.004713	0.562999
C54	C	1.192180	0.012759	0.531300
H55	H	1.189766	0.082765	0.514062
H56	H	1.210049	-0.026206	0.466513
C57	C	1.261487	-0.096071	0.628647
C58	C	1.258525	-0.010087	0.607482
H59	H	1.302413	-0.110167	0.675637
H60	H	1.207692	-0.107845	0.650001
H61	H	1.276376	-0.128531	0.574651
H62	H	1.243626	0.022372	0.661474
H63	H	1.312319	0.001692	0.586138
H64	H	1.022174	0.255110	0.558180
H65	H	0.882137	0.225082	0.442097
O66	O	1.071376	-0.452738	-0.152739
C67	C	1.013997	-0.493880	-0.205750
H68	H	0.946741	-0.465980	-0.188757
H69	H	1.022059	-0.564149	-0.188701
C70	C	1.113881	-0.515855	-0.330511
C71	C	1.031277	-0.481583	-0.309646
H72	H	1.124542	-0.508274	-0.394600
H73	H	1.152541	-0.488140	-0.294796
H74	H	1.120590	-0.574410	-0.316297
H75	H	1.024573	-0.423027	-0.323849
H76	H	0.992617	-0.509288	-0.345366
H77	H	0.554283	0.042154	0.140387
H78	H	0.430273	0.187790	0.140533
H79	H	0.962248	-0.025074	0.441930
O80	O	0.839715	0.082378	0.563280
C81	C	0.776997	0.145418	0.531853
H82	H	0.800180	0.176194	0.466773
H83	H	0.763128	0.195240	0.588180
C84	C	0.667429	0.067604	0.589279
C85	C	0.695901	0.105399	0.509343
H86	H	0.617403	0.042921	0.575398
H87	H	0.709683	0.025134	0.610455
H88	H	0.655878	0.109130	0.636211
H89	H	0.707461	0.063872	0.462417
H90	H	0.653646	0.147862	0.488158
O91	O	0.830596	-0.420962	-0.000164
C92	C	0.816528	-0.468895	-0.079675
H93	H	0.879281	-0.501789	-0.105856
H94	H	0.786174	-0.425444	-0.136063
C95	C	0.680319	-0.495115	-0.022836
C96	C	0.757393	-0.535522	-0.054987
H97	H	0.643839	-0.536211	-0.007610
H98	H	0.689795	-0.462819	0.030731
H99	H	0.655036	-0.458907	-0.069832
H100	H	0.782680	-0.571721	-0.007988
H101	H	0.747919	-0.567826	-0.108546
H102	H	0.525104	0.263508	0.000166
O103	O	0.424613	0.194069	-0.152733
C104	C	0.458554	0.152201	-0.232754
H105	H	0.483146	0.084273	-0.214541
H106	H	0.512624	0.186027	-0.260494
C107	C	0.359165	0.235965	-0.329666
C108	C	0.389363	0.152532	-0.307297
H109	H	0.316487	0.236171	-0.375650
H110	H	0.336300	0.264175	-0.275755
H111	H	0.404230	0.264144	-0.352777
H112	H	0.344300	0.124358	-0.284176
H113	H	0.412219	0.124317	-0.361206
O114	O	0.913116	-0.317343	0.152856
C115	C	0.954959	-0.351268	0.232877
H116	H	1.022888	-0.375877	0.214662
H117	H	0.921116	-0.405323	0.260620
C118	C	0.871188	-0.251837	0.329788
C119	C	0.954623	-0.282056	0.307418
H120	H	0.870978	-0.209146	0.375771
H121	H	0.842995	-0.228983	0.275878
H122	H	0.842995	-0.296890	0.352902
H123	H	0.982811	-0.237006	0.284294
H124	H	0.982820	-0.304901	0.361327
O125	O	0.913118	-0.317652	-0.152934
C126	C	0.954583	-0.352282	-0.232876
H127	H	0.990775	-0.416064	-0.215151
H128	H	1.000512	-0.307819	-0.259095
C129	C	0.844492	-0.285672	-0.330497
C130	C	0.888939	-0.364014	-0.308728
H131	H	0.804001	-0.292906	-0.377289
H132	H	0.816558	-0.262338	-0.276640
H133	H	0.882775	-0.248627	-0.352341
H134	H	0.850657	-0.401053	-0.286874
H135	H	0.916865	-0.387354	-0.362584
O136	O	1.071589	-0.452546	0.152742
C137	C	1.156351	-0.435194	0.152440
H138	H	1.162465	-0.377125	0.107925
H139	H	1.198117	-0.491609	0.122761
C140	C	1.176752	-0.489794	0.307008
C141	C	1.184260	-0.418469	0.252340
H142	H	1.193970	-0.479481	0.368631
H143	H	1.119647	-0.501488	0.307211
H144	H	1.211557	-0.536800	0.282265
H145	H	1.149447	-0.371467	0.277077
H146	H	1.241360	-0.406767	0.252144
H147	H	1.140674	-0.351967	-0.000009
O148	O	0.559787	0.035575	-0.152621
C149	C	0.542419	-0.049181	-0.152322
H150	H	0.484336	-0.055274	-0.107807
H151	H	0.598819	-0.090951	-0.122646
C152	C	0.597056	-0.069628	-0.306892
C153	C	0.525713	-0.077110	-0.252224
H154	H	0.586755	-0.086858	-0.368515
H155	H	0.608760	-0.012527	-0.307092
H156	H	0.644050	-0.104436	-0.282150
H157	H	0.478724	-0.042294	-0.276959
H158	H	0.514000	-0.134206	-0.252030
