data_functionalizedCrystal
_audit_creation_method	'MofGen! by Chris Wilmer'
_symmetry_space_group_name_H-M	'P1'
_symmetry_Int_Tables_number	1
_symmetry_cell_setting	triclinic
loop_
_symmetry_equiv_pos_as_xyz
  x,y,z
_cell_length_a	23.532407
_cell_length_b	15.944551
_cell_length_c	15.021413
_cell_angle_alpha	90.006285
_cell_angle_beta	90.012176
_cell_angle_gamma	83.173707
loop_
_atom_site_label
_atom_site_type_symbol
_atom_site_fract_x
_atom_site_fract_y
_atom_site_fract_z
O1	O	0.755646	0.101958	-0.073912
O2	O	0.589839	0.116712	-0.073937
O3	O	0.677270	-0.012978	-0.073929
O4	O	0.668215	0.231648	-0.073920
O5	O	0.677281	-0.012970	0.074135
O6	O	0.589850	0.116720	0.074128
O7	O	0.755656	0.101966	0.074152
Zn8	Zn	0.672754	0.109344	0.097648
Zn9	Zn	0.672741	0.109334	-0.097433
O10	O	0.668225	0.231656	0.074144
C11	C	0.568627	0.116340	0.000092
C12	C	0.505406	0.115211	0.000082
C13	C	0.676899	-0.044265	0.000100
C14	C	0.675772	-0.137501	0.000090
N15	N	0.672768	0.109351	0.230786
C16	C	0.106572	0.184874	0.000125
C17	C	0.047168	0.183824	0.000130
O18	O	0.010674	0.248402	0.000165
N19	N	0.024243	0.106724	0.000126
C20	C	0.060726	0.030668	0.000125
O21	O	0.035772	-0.035009	0.000123
C22	C	0.120129	0.031718	0.000126
C23	C	0.143051	0.108823	0.000122
C24	C	0.129494	0.261973	0.000121
C25	C	0.188895	0.263022	0.000114
C26	C	0.225373	0.186971	0.000111
C27	C	0.202451	0.109872	0.000115
C28	C	0.156611	-0.044337	0.000132
C29	C	0.216018	-0.043281	0.000134
C30	C	0.238939	0.033825	0.000129
C31	C	0.298329	0.034871	0.000104
N32	N	0.321254	0.111971	0.000109
C33	C	0.284776	0.188022	0.000112
C34	C	-0.064025	0.028468	0.000125
C35	C	-0.123427	0.027417	0.000118
C36	C	-0.136981	0.180574	0.000124
C37	C	-0.077578	0.181624	0.000125
C38	C	-0.041100	0.105569	0.000129
C39	C	0.409521	0.190219	0.000096
C40	C	0.468927	0.191261	0.000085
C41	C	0.482476	0.038104	0.000084
C42	C	0.423075	0.037062	0.000090
C43	C	0.386599	0.113126	0.000099
O44	O	0.334859	-0.029673	0.000073
O45	O	0.309738	0.253687	0.000126
C46	C	0.776868	0.102338	0.000122
C47	C	0.840090	0.103468	0.000126
C48	C	0.668596	0.262943	0.000114
C49	C	0.669723	0.356179	0.000118
C50	C	0.726610	0.570557	0.000113
C51	C	0.700199	0.631799	0.073113
C52	C	0.671762	0.526888	0.000110
C53	C	0.700176	0.631777	-0.072867
C54	C	0.673735	0.691784	0.000099
C55	C	0.645335	0.586903	0.073171
C56	C	0.645320	0.586874	-0.072875
C57	C	0.618868	0.648100	0.000143
C58	C	0.670626	0.431895	0.000117
C59	C	0.674866	0.786776	0.000098
N60	N	0.672732	0.109321	-0.230570
C61	C	0.713204	0.049369	0.470449
C62	C	0.661743	0.033485	0.529769
C63	C	0.672754	0.109341	0.412393
C64	C	0.724202	0.125175	0.529814
C65	C	0.672746	0.109328	0.587817
C66	C	0.621268	0.093420	0.470407
C67	C	0.683761	0.185142	0.470446
C68	C	0.632263	0.169291	0.529740
C69	C	0.672760	0.109345	0.311336
C70	C	0.672735	0.109324	0.688872
H71	H	0.487586	0.254052	0.000081
C72	C	0.759365	-0.019182	0.435271
N73	N	0.794131	-0.070816	0.408772
H74	H	-0.166693	0.242498	0.000131
H75	H	0.099799	0.323906	0.000127
C76	C	-0.148633	-0.057405	0.000117
N77	N	-0.167616	-0.121296	0.000124
H78	H	0.577746	0.079949	0.444422
H79	H	0.598016	0.220005	0.555609
C80	C	0.369405	0.273893	0.000101
N81	N	0.339190	0.336917	0.000099
C82	C	-0.023904	-0.055205	0.000115
N83	N	0.006313	-0.118227	0.000107
C84	C	0.788114	0.525036	0.000221
N85	N	0.834436	0.490747	0.000308
C86	C	0.131412	-0.129161	0.000155
N87	N	0.112433	-0.193055	0.000179
C88	C	0.731543	0.658699	0.156502
N89	N	0.755154	0.678954	0.219310
C90	C	-0.052370	0.266445	0.000130
N91	N	-0.033387	0.330336	0.000137
H92	H	0.723381	0.651668	-0.134579
C93	C	0.696372	0.271720	0.435208
N94	N	0.705877	0.336931	0.408664
C95	C	0.256140	-0.126950	0.000134
N96	N	0.286359	-0.189970	0.000131
C97	C	0.782985	0.143279	0.565064
N98	N	0.827262	0.156909	0.591610
H99	H	0.622136	0.566938	-0.134601
H100	H	0.652426	-0.030623	0.555828
C101	C	0.397861	-0.047758	0.000083
N102	N	0.378874	-0.111645	0.000086
H103	H	0.512187	-0.023814	0.000077
H104	H	0.207551	0.325809	0.000110
H105	H	0.622158	0.567110	0.134953
C106	C	0.557312	0.693426	0.000193
N107	N	0.510950	0.727570	0.000237
