data_functionalizedCrystal
_audit_creation_method	'MofGen! by Chris Wilmer'
_symmetry_space_group_name_H-M	'P1'
_symmetry_Int_Tables_number	1
_symmetry_cell_setting	triclinic
loop_
_symmetry_equiv_pos_as_xyz
  x,y,z
_cell_length_a	14.044202
_cell_length_b	14.044220
_cell_length_c	22.010155
_cell_angle_alpha	89.984498
_cell_angle_beta	90.002181
_cell_angle_gamma	93.190789
loop_
_atom_site_label
_atom_site_type_symbol
_atom_site_fract_x
_atom_site_fract_y
_atom_site_fract_z
O1	O	-1.277167	-0.230223	0.050497
O2	O	-1.000495	-0.221909	0.050505
O3	O	-1.134678	-0.087730	0.050495
O4	O	-1.142984	-0.364402	0.050507
O5	O	-1.134675	-0.087698	-0.050555
O6	O	-1.000492	-0.221876	-0.050545
O7	O	-1.277164	-0.230191	-0.050553
Cu8	Cu	-1.138827	-0.226031	-0.059776
Cu9	Cu	-1.138831	-0.226069	0.059728
O10	O	-1.142981	-0.364370	-0.050543
C11	C	-0.964871	-0.218256	-0.000019
C12	C	-0.858728	-0.207407	-0.000016
C13	C	-1.131041	-0.052092	-0.000030
C14	C	-1.120196	0.054051	-0.000031
C15	C	-0.613270	-0.264506	-0.000020
C16	C	-0.664395	-0.187590	-0.000022
C17	C	-0.772532	-0.198619	-0.000019
C18	C	-0.505123	-0.253478	-0.000023
C19	C	-0.312788	-0.233842	-0.000027
C20	C	-0.418931	-0.244684	-0.000025
N21	N	-1.138834	-0.226089	0.143780
C22	C	-1.146618	-0.400008	-0.000017
C23	C	-1.157462	-0.506151	-0.000012
C24	C	-1.100370	0.248389	-0.000021
C25	C	-1.177284	0.299517	-0.000022
C26	C	-1.166253	0.407653	-0.000016
C27	C	-1.111400	0.140243	-0.000026
C28	C	-1.201529	-0.288999	0.436389
C29	C	-1.201531	-0.289004	0.372781
O30	O	-1.254862	-0.342515	0.339887
N31	N	-1.138844	-0.226063	0.340964
C32	C	-1.076157	-0.163107	0.372759
O33	O	-1.022838	-0.109571	0.339855
C34	C	-1.076161	-0.163098	0.436365
C35	C	-1.138846	-0.226050	0.468179
C36	C	-1.264209	-0.351945	0.468202
C37	C	-1.264206	-0.351941	0.531806
C38	C	-1.201523	-0.288991	0.563595
C39	C	-1.138842	-0.226046	0.531782
C40	C	-1.013480	-0.100138	0.468158
C41	C	-1.013490	-0.100134	0.531769
C42	C	-1.076174	-0.163085	0.563582
C43	C	-1.076156	-0.163092	0.627175
N44	N	-1.138843	-0.226033	0.658991
C45	C	-1.201526	-0.288982	0.627202
C46	C	-1.076156	-0.163129	0.239181
C47	C	-1.076146	-0.163142	0.175576
C48	C	-1.201521	-0.289038	0.175603
C49	C	-1.201525	-0.289029	0.239209
C50	C	-1.138843	-0.226070	0.270998
C51	C	-1.201514	-0.288970	0.760773
C52	C	-1.201503	-0.288963	0.824382
C53	C	-1.076132	-0.163064	0.824349
C54	C	-1.076139	-0.163073	0.760746
C55	C	-1.138838	-0.226030	0.728959
O56	O	-1.022855	-0.109605	0.660109
O57	O	-1.254845	-0.342501	0.660113
N58	N	-1.138819	-0.226013	0.856172
H59	H	-0.626952	-0.113457	0.000018
C60	C	-0.663852	-0.364650	-0.000009
N61	N	-0.701962	-0.440078	0.000001
C62	C	-1.277437	0.248937	-0.000033
N63	N	-1.352868	0.210836	-0.000045
H64	H	-1.026242	0.285829	-0.000018
H65	H	-1.252548	-0.340230	0.850282
H66	H	-1.315254	-0.403199	0.557703
C67	C	-1.270478	-0.358233	0.725817
N68	N	-1.322415	-0.410409	0.699489
H69	H	-0.962445	-0.048863	0.557648
H70	H	-1.315259	-0.403206	0.442326
C71	C	-1.270489	-0.358274	0.274198
N72	N	-1.322438	-0.410429	0.300548
C73	C	-1.270482	-0.358278	0.140622
N74	N	-1.322420	-0.410425	0.114272
H75	H	-1.025092	-0.111891	0.149678
H76	H	-1.025103	-0.111863	0.265059
H77	H	-0.962437	-0.048875	0.442266
C78	C	-1.007181	-0.093826	0.725750
N79	N	-0.955249	-0.041660	0.699396
H80	H	-1.025094	-0.111814	0.850244
