data_functionalizedCrystal
_audit_creation_method	'MofGen! by Chris Wilmer'
_symmetry_space_group_name_H-M	'P1'
_symmetry_Int_Tables_number	1
_symmetry_cell_setting	triclinic
loop_
_symmetry_equiv_pos_as_xyz
  x,y,z
_cell_length_a	10.967926
_cell_length_b	27.731996
_cell_length_c	10.065875
_cell_angle_alpha	98.708141
_cell_angle_beta	93.120479
_cell_angle_gamma	83.690973
loop_
_atom_site_label
_atom_site_type_symbol
_atom_site_fract_x
_atom_site_fract_y
_atom_site_fract_z
O1	O	1.611289	0.084261	0.265447
O2	O	1.261219	0.085641	0.183110
O3	O	1.447154	0.014784	0.226872
O4	O	1.425354	0.155119	0.221685
O5	O	1.411698	0.028352	0.445515
O6	O	1.225762	0.099209	0.401753
O7	O	1.575833	0.097830	0.484091
Zn8	Zn	1.395168	0.100674	0.477636
Zn9	Zn	1.441883	0.082797	0.189564
O10	O	1.389897	0.168687	0.440329
C11	C	1.198719	0.091300	0.281901
C12	C	1.065312	0.087940	0.250525
C13	C	0.987468	0.093471	0.349800
C14	C	0.849585	0.089998	0.317374
C15	C	1.428977	0.003552	0.336093
C16	C	1.427626	-0.050132	0.335789
C17	C	1.438473	-0.390427	0.214545
C18	C	1.433352	-0.592195	0.213316
O19	O	1.449075	-0.624571	0.111787
N20	N	1.413389	-0.610029	0.332348
C21	C	1.394696	-0.577418	0.451694
O22	O	1.377586	-0.597217	0.552906
C23	C	1.399808	-0.375651	0.452919
C24	C	1.419786	-0.357820	0.333882
C25	C	1.458447	-0.372596	0.095517
C26	C	1.459734	-0.322157	0.095827
C27	C	1.441046	-0.289550	0.215164
C28	C	1.421072	-0.307382	0.334192
C29	C	1.381107	-0.343041	0.572261
C30	C	1.382384	-0.292596	0.572556
C31	C	1.402361	-0.274765	0.453519
C32	C	1.403671	-0.224336	0.453839
N33	N	1.423635	-0.206501	0.334807
C34	C	1.442322	-0.239108	0.215470
C35	C	1.392016	-0.683349	0.451043
C36	C	1.390740	-0.733791	0.450737
C37	C	1.429394	-0.748564	0.212359
C38	C	1.430679	-0.698122	0.212668
C39	C	1.411980	-0.665515	0.332011
C40	C	1.445024	-0.133183	0.216130
C41	C	1.446313	-0.082739	0.216451
C42	C	1.407653	-0.067970	0.454827
C43	C	1.406369	-0.118410	0.454508
C44	C	1.425052	-0.151015	0.335148
O45	O	1.387944	-0.191932	0.555312
O46	O	1.459403	-0.219299	0.114266
C47	C	1.437187	-0.440866	0.214235
C48	C	1.417213	-0.458698	0.333262
C49	C	1.398525	-0.426091	0.452599
C50	C	1.415937	-0.509139	0.332957
C51	C	1.434624	-0.541746	0.213620
C52	C	1.454588	-0.523912	0.094588
C53	C	1.455874	-0.473473	0.094898
C54	C	1.378561	-0.443925	0.571631
C55	C	1.377278	-0.494365	0.571312
C56	C	1.395965	-0.526972	0.451975
C57	C	1.638333	0.092171	0.385296
C58	C	1.771741	0.095530	0.416664
C59	C	1.408075	0.179919	0.331105
C60	C	1.409428	0.233602	0.331400
N61	N	1.363295	0.112874	0.674240
N62	N	1.473766	0.070593	-0.007038
C63	C	1.430786	0.087039	0.757904
C64	C	1.406265	0.096432	0.909300
H65	H	0.814158	0.082691	0.208368
H66	H	0.807167	0.102835	0.525671
O67	O	1.023143	0.079139	0.120471
C68	C	1.079881	0.033836	0.058494
H69	H	1.113189	0.009970	0.138683
H70	H	1.010968	0.014456	-0.013713
H71	H	1.161363	0.040449	0.000398
O72	O	1.449877	-0.680743	0.097067
C73	C	1.347610	-0.648427	0.065603
H74	H	1.296326	-0.633247	0.160974
H75	H	1.380082	-0.616897	0.020839
H76	H	1.283729	-0.669003	-0.010446
H77	H	1.506718	0.057964	0.717451
H78	H	1.444611	-0.775121	0.115190
O79	O	1.272628	0.147500	0.722623
C80	C	1.185929	0.125267	0.784885
H81	H	1.230972	0.089548	0.816747
H82	H	1.151063	0.151082	0.877219
H83	H	1.105644	0.117195	0.711038
H84	H	1.361018	-0.508877	0.668256
H85	H	1.390114	-0.132929	0.551440
O86	O	1.371278	-0.751025	0.566478
C87	C	1.355087	-0.711424	0.671871
H88	H	1.323603	-0.676320	0.628183
H89	H	1.282824	-0.718809	0.741414
H90	H	1.445737	-0.707121	0.731240
O91	O	1.465680	-0.065499	0.100682
C92	C	1.481924	-0.105100	-0.004704
H93	H	1.437275	-0.137573	0.021071
H94	H	1.437440	-0.093676	-0.101705
H95	H	1.584188	-0.116074	-0.018696
H96	H	1.549703	0.041516	0.952514
H97	H	1.460231	-0.159725	0.118934
O98	O	1.029896	0.102120	0.479792
C99	C	1.115651	0.062800	0.507290
H100	H	1.155892	0.042985	0.409303
H101	H	1.192458	0.077494	0.577584
H102	H	1.067950	0.036127	0.557217
O103	O	1.479089	-0.304919	-0.019940
C104	C	1.495331	-0.344524	-0.125315
H105	H	1.450691	-0.376996	-0.099524
H106	H	1.450838	-0.333105	-0.222319
H107	H	1.597595	-0.355496	-0.139314
O108	O	1.472943	-0.555576	-0.021331
C109	C	1.589125	-0.551345	-0.069322
H110	H	1.650975	-0.535678	0.017602
H111	H	1.631978	-0.589079	-0.115378
H112	H	1.578371	-0.525858	-0.148996
H113	H	1.473662	-0.399140	-0.001668
H114	H	1.376794	-0.656804	0.548233
O115	O	1.361461	-0.360315	0.687885
C116	C	1.245891	-0.339869	0.735941
H117	H	1.184800	-0.327821	0.649135
H118	H	1.201300	-0.368468	0.781607
H119	H	1.258121	-0.306788	0.815941
H120	H	1.367139	-0.266049	0.669738
O121	O	1.389284	-0.036260	0.570654
C122	C	1.284757	-0.003038	0.553415
H123	H	1.222572	-0.019924	0.468568
H124	H	1.232707	0.005288	0.650599
H125	H	1.314466	0.032388	0.527139
H126	H	1.472141	-0.458960	-0.002035
H127	H	1.363345	-0.417381	0.668813
H128	H	1.330320	0.125505	0.949746
