data_functionalizedCrystal
_audit_creation_method	'MofGen! by Chris Wilmer'
_symmetry_space_group_name_H-M	'P1'
_symmetry_Int_Tables_number	1
_symmetry_cell_setting	triclinic
loop_
_symmetry_equiv_pos_as_xyz
  x,y,z
_cell_length_a	14.044220
_cell_length_b	14.044220
_cell_length_c	13.101039
_cell_angle_alpha	86.332523
_cell_angle_beta	86.340132
_cell_angle_gamma	86.811122
loop_
_atom_site_label
_atom_site_type_symbol
_atom_site_fract_x
_atom_site_fract_y
_atom_site_fract_z
O1	O	1.281968	-0.225348	-0.085109
O2	O	1.005298	-0.217041	-0.085135
O3	O	1.139480	-0.082860	-0.085112
O4	O	1.147787	-0.359530	-0.085132
O5	O	1.129854	-0.092504	0.085316
O6	O	0.995673	-0.226686	0.085293
O7	O	1.272343	-0.234993	0.085319
Zn8	Zn	1.132479	-0.232371	0.112365
Zn9	Zn	1.145162	-0.219663	-0.112181
O10	O	1.138161	-0.369175	0.085296
C11	C	0.964864	-0.218228	0.000076
C12	C	0.858722	-0.207383	0.000066
C13	C	1.131031	-0.052060	0.000102
C14	C	1.120187	0.054083	0.000102
N15	N	1.123831	-0.241043	0.265612
C16	C	0.664383	-0.187558	0.000088
C17	C	0.613253	-0.264472	0.000087
C18	C	0.505116	-0.253441	0.000099
C19	C	0.772529	-0.198587	0.000076
C20	C	1.312777	-0.233806	0.000106
C21	C	1.418920	-0.244651	0.000109
C22	C	1.146610	-0.399974	0.000080
C23	C	1.157455	-0.506116	0.000073
C24	C	1.100362	0.248421	0.000086
C25	C	1.177276	0.299551	0.000090
C26	C	1.166245	0.407688	0.000080
C27	C	1.111391	0.140275	0.000095
N28	N	1.153817	-0.210984	-0.265428
C29	C	1.112065	-0.252851	0.474653
C30	C	1.165580	-0.199179	0.525538
C31	C	1.159034	-0.205749	0.641855
C32	C	1.118610	-0.246282	0.358325
H33	H	0.650693	-0.338605	0.000077
H34	H	0.626945	-0.113431	0.000099
O35	O	1.265645	0.254739	0.000153
C36	C	1.257134	0.155182	0.000135
H37	H	1.182749	0.136395	0.032388
H38	H	1.268686	0.131677	-0.081624
C39	C	1.424077	0.126632	0.027379
C40	C	1.332718	0.103557	0.067000
H41	H	1.470703	0.094786	0.068620
H42	H	1.429813	0.193706	0.027387
H43	H	1.433690	0.107044	-0.040753
H44	H	1.323103	0.123156	0.135125
H45	H	1.326983	0.036485	0.067005
H46	H	1.216314	-0.148295	0.481744
H47	H	1.026235	0.285859	0.000076
H48	H	1.061336	-0.303733	0.518442
