data_functionalizedCrystal
_audit_creation_method	'MofGen! by Chris Wilmer'
_symmetry_space_group_name_H-M	'P1'
_symmetry_Int_Tables_number	1
_symmetry_cell_setting	triclinic
loop_
_symmetry_equiv_pos_as_xyz
  x,y,z
_cell_length_a	15.944545
_cell_length_b	27.731996
_cell_length_c	14.421503
_cell_angle_alpha	89.998301
_cell_angle_beta	89.995153
_cell_angle_gamma	83.058780
loop_
_atom_site_label
_atom_site_type_symbol
_atom_site_fract_x
_atom_site_fract_y
_atom_site_fract_z
O1	O	1.113697	0.062321	-0.077064
O2	O	0.869044	0.070010	-0.077081
O3	O	0.998992	-0.004200	-0.077052
O4	O	0.983749	0.136531	-0.077093
O5	O	0.998970	-0.004189	0.077172
O6	O	0.869022	0.070021	0.077143
O7	O	1.113676	0.062332	0.077159
Cu8	Cu	0.991347	0.066177	0.091233
Cu9	Cu	0.991373	0.066164	-0.091154
O10	O	0.983728	0.136542	0.077130
C11	C	0.837743	0.069697	0.000029
C12	C	0.744510	0.068742	0.000024
C13	C	0.474532	0.019888	0.000048
C14	C	0.524787	0.043447	0.076083
C15	C	0.408912	0.065334	0.000041
C16	C	0.524789	0.043448	-0.075969
C17	C	0.573803	0.067006	0.000031
C18	C	0.457939	0.088881	0.076139
C19	C	0.457937	0.088876	-0.075981
C20	C	0.508159	0.112468	0.000073
C21	C	0.313922	0.064370	0.000047
C22	C	0.668789	0.067974	0.000031
C23	C	0.998668	-0.022203	0.000063
C24	C	0.997725	-0.075864	0.000072
C25	C	0.991803	-0.408612	-0.084040
C26	C	0.988222	-0.610285	-0.084057
O27	O	0.987732	-0.636363	-0.155554
N28	N	0.987765	-0.635498	0.000009
C29	C	0.988198	-0.610290	0.084086
O30	O	0.987719	-0.636362	0.155589
C31	C	0.991774	-0.408616	0.084101
C32	C	0.992239	-0.383407	0.000030
C33	C	0.992267	-0.383402	-0.168105
C34	C	0.993167	-0.332987	-0.168100
C35	C	0.993603	-0.307782	-0.084030
C36	C	0.993139	-0.332991	0.000035
C37	C	0.992201	-0.383408	0.168177
C38	C	0.993093	-0.332986	0.168173
C39	C	0.993558	-0.307776	0.084101
C40	C	0.994474	-0.257371	0.084110
N41	N	0.994931	-0.232158	0.000043
C42	C	0.994495	-0.257363	-0.084027
C43	C	0.986323	-0.716171	0.084072
C44	C	0.985431	-0.766589	0.084068
C45	C	0.985452	-0.766581	-0.084075
C46	C	0.986351	-0.716163	-0.084071
C47	C	0.986779	-0.690958	0.000005
C48	C	0.996386	-0.151488	-0.084010
C49	C	0.997289	-0.101069	-0.083998
C50	C	0.997263	-0.101081	0.084145
C51	C	0.996364	-0.151496	0.084133
C52	C	0.995922	-0.176698	0.000048
O53	O	0.994954	-0.231262	0.155569
O54	O	0.994956	-0.231281	-0.155519
C55	C	0.990903	-0.459027	-0.084045
C56	C	0.990439	-0.484237	0.000020
C57	C	0.990875	-0.459031	0.084090
C58	C	0.989547	-0.534655	0.000016
C59	C	0.989111	-0.559860	-0.084054
C60	C	0.989567	-0.534647	-0.168120
C61	C	0.990467	-0.484232	-0.168115
C62	C	0.990418	-0.484245	0.168156
C63	C	0.989519	-0.534660	0.168144
C64	C	0.989083	-0.559865	0.084074
C65	C	1.144976	0.062645	0.000047
C66	C	1.238210	0.063600	0.000047
C67	C	0.984052	0.154545	0.000014
C68	C	0.984995	0.208206	-0.000002
N69	N	0.991335	0.066186	0.219514
N70	N	0.991391	0.066152	-0.219435
C71	C	0.931237	0.100486	0.469154
C72	C	1.007012	0.109869	0.530959
C73	C	0.991356	0.066175	0.408676
C74	C	0.915601	0.056803	0.530965
C75	C	0.991369	0.066165	0.591397
C76	C	1.067168	0.075580	0.469119
C77	C	0.975708	0.022495	0.469120
C78	C	1.051538	0.031859	0.530896
C79	C	0.991347	0.066182	0.303414
C80	C	0.991386	0.066157	0.696656
H81	H	0.997670	-0.080546	-0.152462
O82	O	0.870661	0.135089	0.436646
C83	C	0.802353	0.173616	0.302193
C84	C	0.870965	0.134402	0.338886
H85	H	0.802588	0.173081	0.223150
H86	H	0.737861	0.166002	0.328622
H87	H	0.815858	0.210824	0.327653
H88	H	0.857541	0.097178	0.313440
H89	H	0.935436	0.142059	0.312464
O90	O	0.990875	-0.459818	-0.249866
C91	C	0.990851	-0.465154	-0.416640
C92	C	0.990371	-0.492857	-0.324119
H93	H	0.990462	-0.491855	-0.476697
H94	H	0.932451	-0.437137	-0.420917
H95	H	1.050062	-0.445961	-0.420795
H96	H	0.931199	-0.512079	-0.319901
H97	H	1.048810	-0.520847	-0.319881
O98	O	1.022958	0.153894	0.563423
C99	C	1.115251	0.198053	0.653974
C100	C	1.097313	0.148166	0.617253
H101	H	1.175356	0.193438	0.697519
H102	H	1.123675	0.223243	0.593086
H103	H	1.059957	0.214409	0.698555
H104	H	1.152581	0.131767	0.572686
H105	H	1.088855	0.123010	0.678183
O106	O	0.559713	0.020513	0.152688
C107	C	0.658469	-0.044757	0.212319
C108	C	0.619005	-0.018819	0.125492
H109	H	0.706401	-0.076568	0.190362
H110	H	0.691462	-0.018136	0.255286
H111	H	0.606704	-0.058788	0.255595
H112	H	0.670718	-0.004788	0.082144
H113	H	0.585991	-0.045459	0.082594
H114	H	0.428863	0.108065	0.140490
H115	H	0.523126	0.151637	0.000106
O116	O	1.143670	0.085011	0.436875
C117	C	1.293641	0.059804	0.432486
C118	C	1.207067	0.049054	0.469066
H119	H	1.344923	0.030745	0.458514
H120	H	1.293032	0.059722	0.353438
H121	H	1.307065	0.096930	0.458480
H122	H	1.193590	0.011928	0.443141
H123	H	1.207720	0.049168	0.548113
O124	O	0.456331	-0.026775	0.000096
C125	C	0.347479	-0.079960	-0.000569
C126	C	0.367972	-0.027094	-0.000647
H127	H	0.276041	-0.080235	-0.001149
H128	H	0.376091	-0.099535	-0.064752
H129	H	0.375143	-0.099250	0.064328
H130	H	0.340311	-0.007763	-0.065499
H131	H	0.339375	-0.007556	0.063580
O132	O	0.423156	0.111678	-0.152777
C133	C	0.417964	0.113503	-0.319745
C134	C	0.457406	0.087632	-0.232842
H135	H	0.445651	0.094079	-0.384500
H136	H	0.346616	0.112850	-0.318701
H137	H	0.432467	0.152761	-0.320365
H138	H	0.442967	0.048365	-0.232166
H139	H	0.528743	0.088325	-0.233920
O140	O	0.559520	0.020472	-0.152629
C141	C	0.582259	-0.054286	-0.239195
C142	C	0.542871	-0.028318	-0.152358
H143	H	0.568828	-0.093740	-0.238995
H144	H	0.553716	-0.035345	-0.304035
H145	H	0.653453	-0.053003	-0.238811
H146	H	0.471678	-0.029594	-0.152652
H147	H	0.571480	-0.047267	-0.087557
O148	O	0.995981	-0.175892	-0.165772
C149	C	0.996018	-0.170544	-0.332544
C150	C	0.996501	-0.142849	-0.240018
H151	H	0.996419	-0.143839	-0.392596
H152	H	1.054410	-0.198567	-0.336831
H153	H	0.936799	-0.189729	-0.336697
H154	H	1.055680	-0.123634	-0.235803
H155	H	0.938069	-0.114853	-0.235770
H156	H	1.102439	0.002838	0.557835
H157	H	0.989216	-0.555178	-0.236573
H158	H	0.993542	-0.312465	-0.236561
O159	O	0.986758	-0.691747	-0.165820
C160	C	0.986739	-0.697079	-0.332594
C161	C	0.986260	-0.724784	-0.240076
H162	H	0.986354	-0.723779	-0.392654
H163	H	0.928336	-0.669064	-0.336870
H164	H	1.045947	-0.677883	-0.336745
H165	H	0.927091	-0.744009	-0.235862
H166	H	1.044702	-0.752772	-0.235839
H167	H	0.962437	-0.014429	0.441936
O168	O	0.984874	-0.791081	-0.165718
C169	C	0.911089	-0.842553	-0.263255
C170	C	0.911638	-0.814819	-0.170779
H171	H	0.851894	-0.861761	-0.267369
H172	H	0.911509	-0.815895	-0.323385
H173	H	0.969502	-0.870565	-0.267446
H174	H	0.853236	-0.786807	-0.166498
H175	H	0.911262	-0.841506	-0.110693
O176	O	0.984953	-0.790998	0.165818
C177	C	0.985071	-0.785674	0.332592
C178	C	0.985600	-0.757973	0.240074
H179	H	0.985612	-0.758986	0.392652
H180	H	0.925833	-0.804839	0.336857
H181	H	1.043443	-0.813716	0.336754
H182	H	0.927269	-0.729908	0.235850
H183	H	1.044876	-0.738841	0.235848
O184	O	0.839097	0.047405	0.563261
C185	C	0.689269	0.072989	0.568556
C186	C	0.775855	0.083678	0.531908
H187	H	0.638117	0.102315	0.543238
H188	H	0.675364	0.036052	0.542030
H189	H	0.690239	0.072702	0.647598
H190	H	0.774949	0.083991	0.452869
H191	H	0.789726	0.120607	0.558505
O192	O	0.986598	-0.691660	0.165726
C193	C	0.914834	-0.629252	0.263316
C194	C	0.914401	-0.656976	0.170819
H195	H	0.856478	-0.601198	0.267455
H196	H	0.914304	-0.655914	0.323426
H197	H	0.974085	-0.610098	0.267518
H198	H	0.855160	-0.676132	0.166527
H199	H	0.914976	-0.630292	0.110753
H200	H	0.991909	-0.403918	-0.236569
H201	H	0.997621	-0.080550	0.152593
O202	O	0.991586	-0.407848	0.249877
C203	C	0.918482	-0.417736	0.393596
C204	C	0.919071	-0.390034	0.301084
H205	H	0.859869	-0.403337	0.435032
H206	H	0.917708	-0.458106	0.379245
H207	H	0.977476	-0.412251	0.435030
H208	H	0.860089	-0.395479	0.259604
H209	H	0.919889	-0.349675	0.315501
O210	O	0.993360	-0.308468	0.249821
C211	C	0.921582	-0.246047	0.347371
C212	C	0.921163	-0.273783	0.254886
H213	H	0.863226	-0.217991	0.351488
H214	H	0.921041	-0.272701	0.407492
H215	H	0.980833	-0.226893	0.351573
H216	H	0.861922	-0.292939	0.250593
H217	H	0.921748	-0.247107	0.194808
H218	H	0.995993	-0.172023	0.152591
H219	H	0.989147	-0.555182	0.236611
H220	H	0.990774	-0.463728	0.236617
