data_functionalizedCrystal
_audit_creation_method	'MofGen! by Chris Wilmer'
_symmetry_space_group_name_H-M	'P1'
_symmetry_Int_Tables_number	1
_symmetry_cell_setting	triclinic
loop_
_symmetry_equiv_pos_as_xyz
  x,y,z
_cell_length_a	25.639242
_cell_length_b	12.645330
_cell_length_c	12.645323
_cell_angle_alpha	90.024870
_cell_angle_beta	89.968748
_cell_angle_gamma	89.986780
loop_
_atom_site_label
_atom_site_type_symbol
_atom_site_fract_x
_atom_site_fract_y
_atom_site_fract_z
Zn1	Zn	0.799348	0.422157	-0.599689
Zn2	Zn	0.799290	0.599445	-0.422429
Zn3	Zn	0.711911	0.422183	-0.422407
Zn4	Zn	0.711902	0.599365	-0.599618
O5	O	0.755613	0.510788	-0.511036
O6	O	0.872506	0.445698	-0.576214
O7	O	0.787678	0.575975	-0.274079
O8	O	0.723538	0.273832	-0.445944
O9	O	0.872463	0.575951	-0.445982
O10	O	0.787778	0.273813	-0.576192
O11	O	0.723481	0.445741	-0.274062
O12	O	0.638744	0.445663	-0.445875
O13	O	0.723522	0.575814	-0.747975
O14	O	0.638738	0.575839	-0.576071
O15	O	0.787769	0.445620	-0.748027
O16	O	0.787670	0.747782	-0.445913
O17	O	0.723466	0.747723	-0.576093
C18	C	0.755575	0.786217	-0.511021
C19	C	0.755606	0.904047	-0.511050
C20	C	0.619770	0.510746	-0.510964
C21	C	0.561656	0.510754	-0.510958
C22	C	0.755651	0.510706	-0.787541
C23	C	0.755668	0.510671	-0.905371
C24	C	0.201298	0.578683	-0.578764
C25	C	0.146694	0.578690	-0.578781
O26	O	0.118462	0.636394	-0.636372
N27	N	0.119374	0.510817	-0.511105
C28	C	0.146660	0.442925	-0.443415
O29	O	0.118408	0.385194	-0.385853
C30	C	0.201264	0.442914	-0.443404
C31	C	0.228581	0.510799	-0.511077
C32	C	0.228616	0.646562	-0.646433
C33	C	0.283217	0.646557	-0.646415
C34	C	0.310500	0.578673	-0.578728
C35	C	0.283182	0.510794	-0.511059
C36	C	0.228549	0.375018	-0.375720
C37	C	0.283156	0.375012	-0.375716
C38	C	0.310474	0.442898	-0.443389
C39	C	0.365065	0.442905	-0.443354
N40	N	0.392386	0.510778	-0.511030
C41	C	0.365103	0.578662	-0.578717
C42	C	0.031990	0.442952	-0.443443
C43	C	-0.022613	0.442968	-0.443448
C44	C	-0.022575	0.578731	-0.578816
C45	C	0.032028	0.578720	-0.578805
C46	C	0.059310	0.510825	-0.511120
C47	C	0.479768	0.578646	-0.578673
C48	C	0.534373	0.578638	-0.578645
C49	C	0.534331	0.442871	-0.443281
C50	C	0.479730	0.442882	-0.443304
C51	C	0.452450	0.510774	-0.511009
O52	O	0.393332	0.385227	-0.385795
O53	O	0.393362	0.636373	-0.636279
C54	C	0.891986	0.510830	-0.511108
C55	C	0.950100	0.510849	-0.511139
C56	C	0.755665	0.234282	-0.511074
C57	C	0.755688	0.116452	-0.511090
C58	C	0.715382	1.071619	-0.593199
C59	C	0.715176	0.949059	-0.592934
C60	C	0.740689	0.948639	-0.399323
C61	C	0.740443	1.071238	-0.399822
C62	C	0.810993	1.071145	-0.539722
C63	C	0.810654	0.948539	-0.542164
C64	C	0.715125	0.592190	-1.072902
C65	C	0.715231	0.592593	-0.950342
C66	C	0.810758	0.540998	-0.949908
C67	C	0.810536	0.541509	-1.072506
C68	C	0.741640	0.398369	-1.072565
C69	C	0.740411	0.399041	-0.949958
C70	C	0.755604	0.510793	-0.235606
C71	C	0.755689	0.510529	-0.117776
H72	H	0.556613	0.633922	-0.633754
N73	N	0.826804	0.648466	-0.909265
H74	H	0.800521	0.703123	-0.932736
H75	H	0.862310	0.667181	-0.938373
H76	H	0.841022	1.100138	-0.479919
N77	N	0.450262	0.369680	-0.370304
H78	H	0.475834	0.326679	-0.327419
H79	H	0.427629	0.320673	-0.413547
N80	N	0.777631	1.110556	-0.316018
H81	H	0.813936	1.083783	-0.331727
H82	H	0.766070	1.083791	-0.244513
N83	N	0.686712	0.368737	-0.911390
H84	H	0.688958	0.301149	-0.869105
H85	H	0.662906	0.357750	-0.974044
N86	N	0.776685	0.314180	-0.909416
H87	H	0.803644	0.347041	-0.861360
H88	H	0.794687	0.278888	-0.971110
N89	N	0.061413	0.369718	-0.370436
H90	H	0.035817	0.326726	-0.327571
H91	H	0.084051	0.412795	-0.321293
H92	H	0.457563	0.633927	-0.633806
H93	H	0.841784	0.484614	-1.102194
H94	H	0.841792	0.483402	-0.920782
H95	H	0.771185	0.337528	-1.101587
N96	N	0.199096	0.301772	-0.302752
H97	H	0.160363	0.312060	-0.313023
H98	H	0.208613	0.318154	-0.227005
N99	N	0.689351	0.361748	-1.113461
H100	H	0.693882	0.293560	-1.154061
H101	H	0.674266	0.417564	-1.161678
N102	N	0.312677	0.719774	-0.719407
H103	H	0.287101	0.762772	-0.762285
H104	H	0.335351	0.676683	-0.768538
H105	H	0.822444	0.623501	-1.101120
N106	N	0.727535	0.909108	-0.702668
H107	H	0.733166	0.971137	-0.751648
H108	H	0.697501	0.864894	-0.729388
N109	N	0.199195	0.719792	-0.719438
H110	H	0.224794	0.762786	-0.762295
H111	H	0.176527	0.768803	-0.676201
H112	H	0.054267	0.633997	-0.633913
H113	H	0.674380	0.573615	-0.920228
N114	N	0.660847	0.567283	-1.111895
H115	H	0.662023	0.502826	-1.159032
H116	H	0.646907	0.629496	-1.153209
H117	H	0.724506	0.675743	-0.921031
N118	N	-0.052007	0.651952	-0.651825
H119	H	-0.090742	0.641650	-0.641559
H120	H	-0.042438	0.635545	-0.727562
H121	H	-0.044850	0.387700	-0.388331
N122	N	0.312581	0.301775	-0.302717
H123	H	0.286987	0.258775	-0.259855
H124	H	0.335217	0.344853	-0.253572
N125	N	0.778339	0.910030	-0.316063
H126	H	0.805492	0.863147	-0.350049
H127	H	0.758682	0.868537	-0.260669
H128	H	0.724629	1.101032	-0.676314
N129	N	0.563762	0.369658	-0.370276
H130	H	0.602498	0.379957	-0.380544
H131	H	0.554231	0.293969	-0.386913
H132	H	0.674637	1.102513	-0.574471
N133	N	0.660869	0.910313	-0.567799
H134	H	0.636970	0.972874	-0.556842
H135	H	0.661800	0.866147	-0.501300
H136	H	0.700015	1.099922	-0.375569
N137	N	0.687696	0.908088	-0.366606
H138	H	0.673276	0.860844	-0.423986
H139	H	0.663344	0.969826	-0.355122
H140	H	0.824601	1.101991	-0.619809
H141	H	0.821903	0.919390	-0.624389
N142	N	0.852531	0.907945	-0.468729
H143	H	0.836340	0.859928	-0.414003
H144	H	0.869955	0.969617	-0.432303
H145	H	0.724309	0.674819	-1.103724
