data_functionalizedCrystal
_audit_creation_method	'MofGen! by Chris Wilmer'
_symmetry_space_group_name_H-M	'P1'
_symmetry_Int_Tables_number	1
_symmetry_cell_setting	triclinic
loop_
_symmetry_equiv_pos_as_xyz
  x,y,z
_cell_length_a	15.297475
_cell_length_b	13.897448
_cell_length_c	13.897449
_cell_angle_alpha	90.009266
_cell_angle_beta	99.667134
_cell_angle_gamma	80.320483
loop_
_atom_site_label
_atom_site_type_symbol
_atom_site_fract_x
_atom_site_fract_y
_atom_site_fract_z
Zn1	Zn	1.379089	-0.639836	0.800151
Zn2	Zn	1.712422	-0.306503	1.133485
Zn3	Zn	2.045755	0.026830	1.466818
Zn4	Zn	1.379034	-0.801088	0.638843
Zn5	Zn	1.712367	-0.467754	0.972176
Zn6	Zn	2.045701	-0.134421	1.305509
Zn7	Zn	1.228265	-0.611859	0.611007
Zn8	Zn	1.561598	-0.278526	0.944340
Zn9	Zn	1.894931	0.054807	1.277673
Zn10	Zn	1.228203	-0.773121	0.772231
Zn11	Zn	1.561536	-0.439787	1.105564
Zn12	Zn	1.894870	-0.106454	1.438898
O13	O	1.303648	-0.706476	0.705558
O14	O	1.636981	-0.373143	1.038891
O15	O	1.970314	-0.039809	1.372224
O16	O	1.505325	-0.684639	0.802087
O17	O	1.838658	-0.351306	1.135421
O18	O	2.171992	-0.017973	1.468754
O19	O	1.359037	-0.775982	0.500169
O20	O	1.692370	-0.442649	0.833502
O21	O	2.025704	-0.109316	1.166836
O22	O	1.248320	-0.480598	0.636132
O23	O	1.581654	-0.147265	0.969466
O24	O	1.914987	0.186069	1.302799
O25	O	1.505285	-0.803110	0.683575
O26	O	1.838618	-0.469777	1.016908
O27	O	2.171952	-0.136444	1.350241
O28	O	1.359130	-0.501153	0.775096
O29	O	1.692464	-0.167819	1.108429
O30	O	2.025797	0.165514	1.441763
O31	O	1.248267	-0.636957	0.479718
O32	O	1.581601	-0.303624	0.813051
O33	O	1.914934	0.029710	1.146385
O34	O	1.102013	-0.609838	0.609059
O35	O	1.435346	-0.276505	0.942393
O36	O	1.768679	0.056828	1.275726
O37	O	1.248216	-0.755444	0.910916
O38	O	1.581549	-0.422111	1.244249
O39	O	1.914882	-0.088777	1.577582
O40	O	1.101968	-0.728316	0.727510
O41	O	1.435301	-0.394983	1.060843
O42	O	1.768634	-0.061649	1.394177
O43	O	1.359071	-0.657521	0.931429
O44	O	1.692404	-0.324187	1.264762
O45	O	2.025737	0.009146	1.598095
O46	O	1.358977	-0.932350	0.656501
O47	O	1.692311	-0.599017	0.989835
O48	O	2.025644	-0.265684	1.323168
O49	O	1.248162	-0.911803	0.754501
O50	O	1.581496	-0.578470	1.087835
O51	O	1.914829	-0.245136	1.421168
C52	C	1.069257	-0.663007	0.662235
C53	C	1.402590	-0.329674	0.995568
C54	C	1.735923	0.003659	1.328902
C55	C	0.968983	-0.644434	0.643724
C56	C	1.302316	-0.311101	0.977057
C57	C	1.635650	0.022232	1.310391
C58	C	1.303582	-0.957078	0.705518
C59	C	1.636915	-0.623745	1.038851
C60	C	1.970248	-0.290412	1.372184
C61	C	1.303636	-1.064302	0.705548
C62	C	1.636969	-0.730969	1.038881
C63	C	1.970303	-0.397636	1.372215
C64	C	0.686335	-0.839226	0.837860
C65	C	1.019668	-0.505893	1.171194
C66	C	1.353001	-0.172560	1.504527
C67	C	0.780547	-0.856684	0.855249
C68	C	1.113880	-0.523350	1.188583
C69	C	1.447213	-0.190017	1.521916
C70	C	0.827660	-0.803623	0.802370
C71	C	1.160994	-0.470289	1.135703
C72	C	1.494327	-0.136956	1.469037
C73	C	0.780553	-0.733102	0.732098
C74	C	1.113886	-0.399768	1.065431
C75	C	1.447220	-0.066435	1.398764
C76	C	0.686332	-0.715648	0.714701
C77	C	1.019665	-0.382315	1.048035
C78	C	1.352998	-0.048981	1.381368
C79	C	0.827657	-0.680044	0.679211
C80	C	1.160991	-0.346711	1.012544
C81	C	1.494324	-0.013378	1.345878
C82	C	0.780550	-0.609523	0.608939
C83	C	1.113883	-0.276190	0.942272
C84	C	1.447217	0.057143	1.275605
C85	C	0.686338	-0.592072	0.591546
C86	C	1.019671	-0.258739	0.924879
C87	C	1.353005	0.074594	1.258213
C88	C	0.639224	-0.645133	0.644426
C89	C	0.972558	-0.311800	0.977759
C90	C	1.305891	0.021533	1.311092
C91	C	0.921879	-0.697498	0.696607
C92	C	1.255212	-0.364165	1.029941
C93	C	1.588545	-0.030831	1.363274
C94	C	0.921876	-0.573920	0.573448
C95	C	1.255209	-0.240586	0.906782
C96	C	1.588542	0.092747	1.240115
C97	C	0.827664	-0.556462	0.556059
C98	C	1.160997	-0.223129	0.889392
C99	C	1.494330	0.110204	1.222726
C100	C	1.303731	-1.260615	0.705626
C101	C	1.637064	-0.927281	1.038959
C102	C	1.970397	-0.593948	1.372293
C103	C	1.303676	-1.151372	0.705585
C104	C	1.637009	-0.818039	1.038919
C105	C	1.970342	-0.484705	1.372252
C106	C	1.538954	-0.750115	0.749051
C107	C	1.872287	-0.416782	1.082384
C108	C	2.205620	-0.083449	1.415717
C109	C	1.639227	-0.768712	0.767585
C110	C	1.972561	-0.435378	1.100918
C111	C	2.305894	-0.102045	1.434251
C112	C	1.303642	-0.706484	0.957150
C113	C	1.636976	-0.373150	1.290483
C114	C	1.970309	-0.039817	1.623816
C115	C	1.303640	-0.706487	1.064363
C116	C	1.636973	-0.373153	1.397697
C117	C	1.970307	-0.039820	1.731030
C118	C	1.303738	-0.454900	0.705624
C119	C	1.637072	-0.121567	1.038957
C120	C	1.970405	0.211767	1.372290
C121	C	1.303777	-0.347693	0.705652
C122	C	1.637110	-0.014360	1.038985
C123	C	1.970444	0.318974	1.372318
C124	C	1.303638	-0.706490	1.151433
C125	C	1.636971	-0.373157	1.484766
C126	C	1.970304	-0.039823	1.818099
C127	C	1.303637	-0.706485	1.260665
C128	C	1.636971	-0.373152	1.593998
C129	C	1.970304	-0.039819	1.927332
C130	C	1.303644	-0.706487	1.454943
C131	C	1.636978	-0.373153	1.788276
C132	C	1.970311	-0.039820	2.121610
C133	C	1.303641	-0.706477	1.347728
C134	C	1.636975	-0.373144	1.681062
C135	C	1.970308	-0.039810	2.014395
H136	H	0.960224	-0.754916	0.753824
H137	H	1.293558	-0.421583	1.087158
H138	H	1.626891	-0.088250	1.420491
H139	H	0.904372	-0.817840	0.816533
H140	H	1.237705	-0.484507	1.149866
H141	H	1.571039	-0.151174	1.483200
C142	C	0.832358	-0.934256	0.932545
C143	C	1.165691	-0.600923	1.265878
C144	C	1.499024	-0.267590	1.599211
N145	N	0.871383	-0.992688	0.990768
N146	N	1.204716	-0.659355	1.324101
N147	N	1.538049	-0.326022	1.657434
C148	C	0.634504	-0.897588	0.896016
C149	C	0.967837	-0.564255	1.229349
C150	C	1.301170	-0.230921	1.562682
N151	N	0.595463	-0.941550	0.939822
N152	N	0.928797	-0.608217	1.273155
N153	N	1.262130	-0.274884	1.606489
H154	H	0.960235	-0.530714	0.530388
H155	H	1.293569	-0.197381	0.863721
H156	H	1.626902	0.135952	1.197054
C157	C	0.535585	-0.625919	0.625315
C158	C	0.868918	-0.292586	0.958649
C159	C	1.202251	0.040747	1.291982
N160	N	0.457522	-0.611445	0.610929
N161	N	0.790855	-0.278112	0.944262
N162	N	1.124189	0.055222	1.277595
C163	C	0.634522	-0.514499	0.514243
C164	C	0.967856	-0.181166	0.847576
C165	C	1.301189	0.152168	1.180909
N166	N	0.595496	-0.456068	0.456020
N167	N	0.928830	-0.122734	0.789353
N168	N	1.262163	0.210599	1.122686
H169	H	0.789295	-0.499044	0.498842
H170	H	1.122629	-0.165710	0.832176
H171	H	1.455962	0.167623	1.165509
