data_functionalizedCrystal
_audit_creation_method	'MofGen! by Chris Wilmer'
_symmetry_space_group_name_H-M	'P1'
_symmetry_Int_Tables_number	1
_symmetry_cell_setting	triclinic
loop_
_symmetry_equiv_pos_as_xyz
  x,y,z
_cell_length_a	14.044220
_cell_length_b	14.519709
_cell_length_c	12.996460
_cell_angle_alpha	90.007090
_cell_angle_beta	90.000499
_cell_angle_gamma	88.434511
loop_
_atom_site_label
_atom_site_type_symbol
_atom_site_fract_x
_atom_site_fract_y
_atom_site_fract_z
O1	O	-1.258085	-0.222370	-0.085462
O2	O	-0.758085	0.277630	0.414538
O3	O	-0.982102	-0.214346	-0.085488
O4	O	-0.482102	0.285654	0.414512
O5	O	-1.127411	-0.084710	-0.085465
O6	O	-0.627411	0.415290	0.414535
O7	O	-1.112776	-0.352006	-0.085485
O8	O	-0.612776	0.147994	0.414515
O9	O	-1.127396	-0.084701	0.085669
O10	O	-0.627396	0.415299	0.585669
O11	O	-0.982087	-0.214337	0.085646
O12	O	-0.482087	0.285663	0.585646
O13	O	-1.258070	-0.222361	0.085672
O14	O	-0.758070	0.277639	0.585672
Cu15	Cu	-1.120077	-0.218348	0.101285
Cu16	Cu	-0.620077	0.281652	0.601285
Cu17	Cu	-1.120095	-0.218359	-0.101101
Cu18	Cu	-0.620095	0.281641	0.398899
O19	O	-1.112761	-0.351997	0.085649
O20	O	-0.612761	0.148003	0.585649
C21	C	-1.126721	-0.050290	0.000102
C22	C	-0.626721	0.449710	0.500102
C23	C	-1.124677	0.052256	0.000103
C24	C	-0.624677	0.552256	0.500103
C25	C	-0.946774	-0.210829	0.000076
C26	C	-0.446774	0.289171	0.500076
C27	C	-0.841531	-0.200352	0.000066
C28	C	-0.341531	0.299648	0.500066
C29	C	-1.293398	-0.225878	0.000106
C30	C	-0.793398	0.274122	0.500106
C31	C	-1.398641	-0.236355	0.000109
C32	C	-0.898641	0.263645	0.500109
C33	C	-0.648837	-0.181197	0.000088
C34	C	-0.148837	0.318803	0.500088
C35	C	-0.591329	-0.255505	0.000087
C36	C	-0.091329	0.244495	0.500087
C37	C	-0.484108	-0.244848	0.000099
C38	C	0.015892	0.255152	0.500099
C39	C	-0.756068	-0.191854	0.000076
C40	C	-0.256068	0.308146	0.500076
C41	C	-1.113451	-0.386416	0.000080
C42	C	-0.613451	0.113584	0.500080
C43	C	-1.115494	-0.488963	0.000073
C44	C	-0.615494	0.011037	0.500073
N45	N	-1.120071	-0.218341	0.243632
N46	N	-0.620071	0.281659	0.743632
C47	C	-1.117153	0.427758	0.000075
C48	C	-0.617153	0.927758	0.500075
C49	C	-1.119243	0.323282	0.000083
C50	C	-0.619243	0.823282	0.500083
C51	C	-1.120915	0.240010	0.000090
C52	C	-0.620915	0.740010	0.500090
C53	C	-1.123005	0.135527	0.000096
C54	C	-0.623005	0.635527	0.500096
N55	N	-1.120108	-0.218360	-0.243448
N56	N	-0.620108	0.281640	0.256552
C57	C	-1.120094	-0.218360	0.663446
C58	C	-0.620094	0.281640	1.163446
C59	C	-1.120085	-0.218357	0.546641
C60	C	-0.620085	0.281643	1.046641
C61	C	-1.120083	-0.218351	0.453543
C62	C	-0.620083	0.281649	0.953543
C63	C	-1.120073	-0.218347	0.336730
C64	C	-0.620073	0.281653	0.836730
H65	H	-0.622622	-0.327127	0.000077
H66	H	-0.122622	0.172873	0.500077
F67	F	-0.607938	-0.087589	0.000098
F68	F	-0.107938	0.412411	0.500098
