data_functionalizedCrystal
_audit_creation_method	'MofGen! by Chris Wilmer'
_symmetry_space_group_name_H-M	'P1'
_symmetry_Int_Tables_number	1
_symmetry_cell_setting	triclinic
loop_
_symmetry_equiv_pos_as_xyz
  x,y,z
_cell_length_a	13.897448
_cell_length_b	13.897449
_cell_length_c	13.897441
_cell_angle_alpha	89.979267
_cell_angle_beta	90.030599
_cell_angle_gamma	89.981028
loop_
_atom_site_label
_atom_site_type_symbol
_atom_site_fract_x
_atom_site_fract_y
_atom_site_fract_z
Zn1	Zn	-0.383951	-1.474703	0.545381
Zn2	Zn	0.116049	-0.974703	1.045381
Zn3	Zn	-0.545273	-1.474597	0.384083
Zn4	Zn	-0.045273	-0.974597	0.884083
Zn5	Zn	-0.383997	-1.313392	0.384100
Zn6	Zn	0.116003	-0.813392	0.884100
Zn7	Zn	-0.545210	-1.313373	0.545335
Zn8	Zn	-0.045210	-0.813373	1.045335
O9	O	-0.464608	-1.394016	0.464725
O10	O	0.035392	-0.894016	0.964725
O11	O	-0.405358	-1.609670	0.523997
O12	O	0.094642	-1.109670	1.023997
O13	O	-0.523925	-1.453176	0.249103
O14	O	-0.023925	-0.953176	0.749103
O15	O	-0.249009	-1.334842	0.405520
O16	O	0.250991	-0.834842	0.905520
O17	O	-0.523881	-1.609592	0.405491
O18	O	-0.023881	-1.109592	0.905491
O19	O	-0.248976	-1.453356	0.524013
O20	O	0.251024	-0.953356	1.024013
O21	O	-0.405436	-1.334739	0.249116
O22	O	0.094564	-0.834739	0.749116
O23	O	-0.405375	-1.178408	0.405476
O24	O	0.094625	-0.678408	0.905476
O25	O	-0.523773	-1.334811	0.680323
O26	O	-0.023773	-0.834811	1.180323
O27	O	-0.523817	-1.178394	0.523935
O28	O	-0.023817	-0.678394	1.023935
O29	O	-0.405297	-1.453339	0.680357
O30	O	0.094703	-0.953339	1.180357
O31	O	-0.680246	-1.453158	0.405447
O32	O	-0.180246	-0.953158	0.905447
O33	O	-0.680200	-1.334708	0.523918
O34	O	-0.180200	-0.834708	1.023918
C35	C	-0.464595	-1.143402	0.464703
C36	C	0.035405	-0.643402	0.964703
C37	C	-0.464613	-1.036188	0.464716
C38	C	0.035387	-0.536188	0.964716
C39	C	-0.464522	-1.394085	0.716318
C40	C	0.035478	-0.894085	1.216318
C41	C	-0.464486	-1.394114	0.823532
C42	C	0.035514	-0.894114	1.323532
C43	C	-0.715222	-1.393946	0.464697
C44	C	-0.215222	-0.893946	0.964697
C45	C	-0.822436	-1.394004	0.464717
C46	C	-0.322436	-0.894004	0.964717
C47	C	-1.018731	-1.394105	0.464778
C48	C	-0.518731	-0.894105	0.964778
C49	C	-0.909499	-1.394046	0.464747
C50	C	-0.409499	-0.894046	0.964747
C51	C	-0.213015	-1.394113	0.464774
C52	C	0.286985	-0.894113	0.964774
C53	C	-0.105801	-1.394154	0.464795
C54	C	0.394199	-0.894154	0.964795
C55	C	-0.464621	-1.645609	0.464747
C56	C	0.035379	-1.145609	0.964747
C57	C	-0.464627	-1.752823	0.464757
C58	C	0.035373	-1.252823	0.964757
C59	C	-0.464616	-0.839893	0.464741
C60	C	0.035384	-0.339893	0.964741
C61	C	-0.464611	-0.949125	0.464725
C62	C	0.035389	-0.449125	0.964725
C63	C	-0.464623	-1.394003	0.214110
C64	C	0.035377	-0.894003	0.714110
C65	C	-0.464388	-1.394161	0.106897
C66	C	0.035612	-0.894161	0.606897
C67	C	-0.464421	-1.394140	1.019827
C68	C	0.035579	-0.894140	1.519827
C69	C	-0.464460	-1.394122	0.910594
C70	C	0.035540	-0.894122	1.410594
