data_functionalizedCrystal
_audit_creation_method	'MofGen! by Chris Wilmer'
_symmetry_space_group_name_H-M	'P1'
_symmetry_Int_Tables_number	1
_symmetry_cell_setting	triclinic
loop_
_symmetry_equiv_pos_as_xyz
  x,y,z
_cell_length_a	13.032831
_cell_length_b	29.839131
_cell_length_c	13.033109
_cell_angle_alpha	97.151620
_cell_angle_beta	76.665514
_cell_angle_gamma	82.845366
loop_
_atom_site_label
_atom_site_type_symbol
_atom_site_fract_x
_atom_site_fract_y
_atom_site_fract_z
Zn1	Zn	1.699796	-0.315802	-0.806302
Zn2	Zn	1.677064	-0.379995	-0.628664
Zn3	Zn	1.499642	-0.293953	-0.606203
Zn4	Zn	1.522079	-0.379955	-0.783708
O5	O	1.599645	-0.342426	-0.706219
O6	O	1.845408	-0.333478	-0.801594
O7	O	1.634625	-0.359454	-0.477056
O8	O	1.526317	-0.233994	-0.632802
O9	O	1.828706	-0.380640	-0.671084
O10	O	1.673369	-0.250047	-0.779815
O11	O	1.504274	-0.296239	-0.460554
O12	O	1.353992	-0.296200	-0.610893
O13	O	1.564557	-0.380573	-0.935334
O14	O	1.370476	-0.359386	-0.741306
O15	O	1.695125	-0.333440	-0.951934
O16	O	1.656381	-0.442847	-0.649175
O17	O	1.542514	-0.442818	-0.763085
C18	C	1.323696	-0.325418	-0.671211
C19	C	1.205647	-0.318155	-0.656260
C20	C	1.161189	-0.346217	-0.714022
C21	C	1.039179	-0.338711	-0.698571
C22	C	1.599447	-0.459134	-0.706142
C23	C	1.599464	-0.509070	-0.706157
C24	C	1.659072	-0.818743	-0.647021
C25	C	1.659208	-1.006427	-0.647079
O26	O	1.709732	-1.030705	-0.596740
N27	N	1.599876	-1.029887	-0.706327
C28	C	1.540510	-1.006424	-0.765571
O29	O	1.490056	-1.030686	-0.815975
C30	C	1.540381	-0.818742	-0.765518
C31	C	1.599709	-0.795283	-0.706258
C32	C	1.718396	-0.795284	-0.587766
C33	C	1.718357	-0.748366	-0.587748
C34	C	1.658993	-0.724906	-0.646984
C35	C	1.599669	-0.748364	-0.706239
C36	C	1.481022	-0.795280	-0.824767
C37	C	1.480997	-0.748357	-0.824751
C38	C	1.540325	-0.724898	-0.765490
C39	C	1.540267	-0.677986	-0.765457
N40	N	1.599599	-0.654526	-0.706209
C41	C	1.658963	-0.677985	-0.646972
C42	C	1.540581	-1.104960	-0.765593
C43	C	1.540612	-1.151880	-0.765604
C44	C	1.659311	-1.151879	-0.647114
C45	C	1.659274	-1.104958	-0.647097
C46	C	1.599913	-1.081499	-0.706344
C47	C	1.658875	-0.579453	-0.646937
C48	C	1.658827	-0.532530	-0.646921
C49	C	1.540132	-0.532535	-0.765415
C50	C	1.540175	-0.579453	-0.765428
C51	C	1.599555	-0.602912	-0.706187
O52	O	1.489779	-0.653680	-0.815780
O53	O	1.709428	-0.653718	-0.596594
C54	C	1.659111	-0.865661	-0.647040
C55	C	1.599787	-0.889120	-0.706295
C56	C	1.540424	-0.865660	-0.765531
C57	C	1.599818	-0.936040	-0.706306
C58	C	1.659181	-0.959500	-0.647070
C59	C	1.718514	-0.936040	-0.587822
C60	C	1.718474	-0.889121	-0.587803
C61	C	1.481091	-0.889121	-0.824779
C62	C	1.481135	-0.936039	-0.824792
C63	C	1.540498	-0.959499	-0.765556
C64	C	1.876672	-0.359501	-0.741365
C65	C	1.994724	-0.366777	-0.756342
C66	C	1.634879	-0.359439	-0.983249
C67	C	1.649894	-0.366689	-1.101303
C68	C	1.599876	-0.225266	-0.706323
C69	C	1.599975	-0.175340	-0.706368
C70	C	1.592093	-0.338644	-1.145770
C71	C	1.607610	-0.346136	-1.267784
C72	C	1.564610	-0.325451	-0.430275
C73	C	1.549801	-0.318087	-0.312248
H74	H	1.153384	-0.288570	-0.595372
H75	H	1.213454	-0.375799	-0.774918
H76	H	1.710866	-0.396247	-1.153563
H77	H	1.766785	-0.870025	-0.539548
C78	C	1.723984	-1.177299	-0.582895
C79	C	1.831976	-1.173710	-0.619461
C80	C	1.891601	-1.197113	-0.560333
H81	H	1.715668	-1.208617	-0.591327
H82	H	1.699498	-1.164282	-0.509542
H83	H	1.856454	-1.186729	-0.692796
H84	H	1.840325	-1.142398	-0.611026
H85	H	1.867115	-1.184096	-0.486980
H86	H	1.883276	-1.228430	-0.568770
H87	H	1.964878	-1.194678	-0.585128
C88	C	0.969437	-0.299327	-0.617219
C89	C	0.897063	-0.316644	-0.541007
C90	C	0.832812	-0.280381	-0.466039
H91	H	0.931274	-0.279613	-0.652348
H92	H	1.013116	-0.282700	-0.582917
H93	H	0.853390	-0.333264	-0.575306
H94	H	0.935197	-0.336355	-0.505851
H95	H	0.876491	-0.263753	-0.431737
H96	H	0.794656	-0.260668	-0.501178
H97	H	0.783706	-0.292125	-0.414315
C98	C	1.416897	-0.961577	-0.889224
C99	C	1.485669	-0.996365	-0.964966
C100	C	1.426542	-1.019903	-1.024337
H101	H	1.381532	-0.940937	-0.924598
H102	H	1.365511	-0.974593	-0.842741
H103	H	1.537037	-0.983350	-1.011443
H104	H	1.521036	-1.017015	-0.929621
H105	H	1.375156	-1.032919	-0.977854
H106	H	1.391179	-0.999260	-1.059704
H107	H	1.473193	-1.043512	-1.075728
H108	H	1.707230	-0.598547	-0.598700
H109	H	1.766670	-0.729268	-0.539496
C110	C	1.064573	-0.406213	-0.837455
C111	C	1.171700	-0.405828	-0.836635
C112	C	1.236073	-0.442151	-0.911333
H113	H	1.055682	-0.403001	-0.906627
H114	H	1.044473	-0.434328	-0.819495
H115	H	1.191794	-0.377719	-0.854602
H116	H	1.180624	-0.409046	-0.767482
H117	H	1.215973	-0.470267	-0.893372
H118	H	1.227173	-0.438936	-0.980499
H119	H	1.308764	-0.441897	-0.910779
H120	H	1.707584	-1.085860	-0.598842
C121	C	1.782720	-0.820817	-0.523437
C122	C	1.714051	-0.839935	-0.447712
C123	C	1.773290	-0.863470	-0.388468
H124	H	1.818091	-0.800183	-0.488056
H125	H	1.834107	-0.844455	-0.570002
H126	H	1.662684	-0.816300	-0.401154
H127	H	1.678679	-0.860576	-0.483065
H128	H	1.824677	-0.887109	-0.435032
H129	H	1.808658	-0.842833	-0.353094
H130	H	1.726708	-0.876448	-0.337088
H131	H	1.668586	-0.375696	-1.320042
C132	C	1.723163	-0.507104	-0.582400
C133	C	1.686782	-0.510684	-0.474380
C134	C	1.746032	-0.487275	-0.414918
H135	H	1.714691	-0.475788	-0.590731
H136	H	1.796512	-0.520121	-0.606998
H137	H	1.613451	-0.497665	-0.449790
H138	H	1.695257	-0.541995	-0.466017
H139	H	1.819380	-0.500292	-0.439516
H140	H	1.737555	-0.455960	-0.423258
H141	H	1.721362	-0.489704	-0.341622
C142	C	1.476163	-1.177269	-0.830047
C143	C	1.424197	-1.146678	-0.881941
C144	C	1.364832	-1.170050	-0.941333
H145	H	1.424676	-1.190256	-0.783630
H146	H	1.522639	-1.200885	-0.881569
H147	H	1.377724	-1.123070	-0.830425
H148	H	1.475658	-1.133690	-0.928375
H149	H	1.411308	-1.193665	-0.992855
H150	H	1.313352	-1.183035	-0.894909
H151	H	1.329574	-1.149298	-0.976558
C152	C	1.782977	-0.961606	-0.523653
C153	C	1.770339	-1.007721	-0.536399
C154	C	1.829734	-1.031292	-0.477339
H155	H	1.758504	-0.948665	-0.450267
H156	H	1.856323	-0.959260	-0.548349
H157	H	1.697008	-1.010064	-0.511698
H158	H	1.794818	-1.020675	-0.609772
H159	H	1.903080	-1.028946	-0.502035
H160	H	1.805256	-1.018347	-0.403956
H161	H	1.821176	-1.062584	-0.485987
C162	C	1.476037	-1.079421	-0.829735
C163	C	1.400352	-1.044628	-0.760909
C164	C	1.340881	-1.021090	-0.819955
H165	H	1.440608	-1.100059	-0.865028
H166	H	1.522467	-1.066409	-0.881176
H167	H	1.353928	-1.057639	-0.709487
H168	H	1.435752	-1.023979	-0.725614
H169	H	1.387311	-1.008078	-0.871396
H170	H	1.305459	-1.041731	-0.855245
H171	H	1.289529	-0.997477	-0.773267
H172	H	1.432752	-0.870023	-0.873018
H173	H	1.432705	-0.814372	-0.873018
H174	H	1.432660	-0.729260	-0.873001
H175	H	1.488821	-0.288528	-1.259992
H176	H	1.491869	-0.598555	-0.813687
C177	C	1.475797	-0.506983	-0.829705
C178	C	1.488495	-0.460874	-0.817024
C179	C	1.429264	-0.437322	-0.876250
H180	H	1.402432	-0.509297	-0.805125
H181	H	1.500387	-0.519966	-0.903072
H182	H	1.463900	-0.447894	-0.743672
H183	H	1.561847	-0.458546	-0.841610
H184	H	1.453854	-0.450306	-0.949617
H185	H	1.355902	-0.439640	-0.851665
H186	H	1.437880	-0.406036	-0.867662
H187	H	1.531116	-0.309088	-1.093509
