data_functionalizedCrystal
_audit_creation_method	'MofGen! by Chris Wilmer'
_symmetry_space_group_name_H-M	'P1'
_symmetry_Int_Tables_number	1
_symmetry_cell_setting	triclinic
loop_
_symmetry_equiv_pos_as_xyz
  x,y,z
_cell_length_a	15.944551
_cell_length_b	12.837942
_cell_length_c	11.892095
_cell_angle_alpha	85.697431
_cell_angle_beta	86.096497
_cell_angle_gamma	90.836161
loop_
_atom_site_label
_atom_site_type_symbol
_atom_site_fract_x
_atom_site_fract_y
_atom_site_fract_z
O1	O	1.130065	-0.127061	-0.094114
O2	O	1.630065	0.372939	0.405886
O3	O	0.886833	-0.143546	-0.094092
O4	O	1.386833	0.356454	0.405908
O5	O	1.003055	0.015599	-0.094096
O6	O	1.503055	0.515599	0.405904
O7	O	1.013843	-0.286206	-0.094111
O8	O	1.513843	0.213794	0.405889
O9	O	0.993363	0.002350	0.093912
O10	O	1.493363	0.502350	0.593912
O11	O	0.877141	-0.156795	0.093915
O12	O	1.377141	0.343205	0.593915
O13	O	1.120373	-0.140310	0.093894
O14	O	1.620373	0.359690	0.593894
Zn15	Zn	0.997218	-0.150656	0.123755
Zn16	Zn	1.497218	0.349344	0.623755
Zn17	Zn	1.009988	-0.133200	-0.123954
Zn18	Zn	1.509988	0.366800	0.376046
O19	O	1.004151	-0.299455	0.093897
O20	O	1.504151	0.200545	0.593897
C21	C	0.994565	0.047595	-0.000092
C22	C	1.494565	0.547595	0.499908
C23	C	0.983697	0.162673	-0.000093
C24	C	1.483697	0.662673	0.499907
C25	C	0.850638	-0.149486	-0.000086
C26	C	1.350638	0.350514	0.499914
C27	C	0.757227	-0.147436	-0.000077
C28	C	1.257227	0.352564	0.499923
C29	C	1.156568	-0.134370	-0.000116
C30	C	1.656568	0.365630	0.499884
C31	C	1.249979	-0.136420	-0.000131
C32	C	1.749979	0.363580	0.499869
C33	C	1.473118	-0.239970	-0.000111
C34	C	1.973118	0.260030	0.499889
C35	C	1.535070	-0.185354	-0.092805
C36	C	2.035070	0.314646	0.407195
C37	C	1.421001	-0.140132	-0.000115
C38	C	1.921001	0.359868	0.499885
C39	C	1.525490	-0.198392	0.092556
C40	C	2.025490	0.301608	0.592556
C41	C	1.586200	-0.143726	-0.000095
C42	C	2.086200	0.356274	0.499905
C43	C	1.481727	-0.085483	-0.092886
C44	C	1.981727	0.414517	0.407114
C45	C	1.472137	-0.098541	0.092558
C46	C	1.972137	0.401459	0.592558
C47	C	1.534067	-0.043850	-0.000159
C48	C	2.034067	0.456150	0.499841
C49	C	1.325834	-0.138065	-0.000128
C50	C	1.825834	0.361935	0.499872
C51	C	1.681366	-0.145785	-0.000090
C52	C	2.181366	0.354215	0.499910
C53	C	1.012641	-0.331451	-0.000109
C54	C	1.512641	0.168549	0.499891
C55	C	1.023509	-0.446529	-0.000116
C56	C	1.523509	0.053471	0.499884
N57	N	0.988509	-0.162569	0.292809
N58	N	1.488509	0.337431	0.792809
C59	C	1.114352	0.403625	-0.000128
C60	C	1.614352	0.903625	0.499872
C61	C	1.104144	0.511752	-0.000129
C62	C	1.604144	1.011752	0.499871
C63	C	0.953076	0.487056	-0.000104
C64	C	1.453076	0.987056	0.499896
C65	C	0.963284	0.378929	-0.000103
C66	C	1.463284	0.878929	0.499897
C67	C	1.043924	0.337218	-0.000114
C68	C	1.543924	0.837218	0.499886
C69	C	1.054130	0.229089	-0.000105
C70	C	1.554130	0.729089	0.499895
C71	C	0.903063	0.204395	-0.000087
C72	C	1.403063	0.704395	0.499913
C73	C	0.892856	0.312522	-0.000088
C74	C	1.392856	0.812522	0.499912
N75	N	1.018703	-0.121279	-0.293008
N76	N	1.518703	0.378721	0.206992
C77	C	1.079298	-0.038327	0.529454
C78	C	1.579298	0.461673	1.029454
C79	C	1.073218	-0.046662	0.647796
C80	C	1.573218	0.453338	1.147796
C81	C	0.970263	-0.187566	0.647837
C82	C	1.470263	0.312434	1.147837
C83	C	0.976344	-0.179232	0.529495
C84	C	1.476344	0.320768	1.029495
C85	C	1.030864	-0.104611	0.470308
C86	C	1.530864	0.395389	0.970308
C87	C	1.036949	-0.096282	0.351964
C88	C	1.536949	0.403718	0.851964
C89	C	0.933990	-0.237181	0.352007
C90	C	1.433990	0.262819	0.852007
C91	C	0.927910	-0.245515	0.470349
C92	C	1.427910	0.254485	0.970349
H93	H	1.446446	-0.322834	-0.000207
H94	H	1.946446	0.177166	0.499793
Br95	Br	1.223786	0.347009	-0.000108
Br96	Br	1.723786	0.847009	0.499892
H97	H	1.161494	0.565818	-0.000145
H98	H	1.661494	1.065818	0.499855
H99	H	1.112656	0.007314	0.695950
H100	H	1.612656	0.507314	1.195950
Br101	Br	0.843647	0.543686	-0.000131
Br102	Br	1.343647	1.043686	0.499869
Br103	Br	1.580947	-0.246522	-0.223436
Br104	Br	2.080947	0.253478	0.276564
Br105	Br	0.853917	-0.346777	0.550682
Br106	Br	1.353917	0.153223	1.050682
Br107	Br	0.807475	0.114264	-0.000047
Br108	Br	1.307475	0.614264	0.499953
Br109	Br	1.449534	-0.005935	-0.223645
Br110	Br	1.949534	0.494065	0.276355
Br111	Br	1.153300	0.062927	0.449126
Br112	Br	1.653300	0.562927	0.949126
H113	H	0.827201	0.346499	-0.000084
H114	H	1.327201	0.846499	0.499916
H115	H	1.081344	-0.035525	0.303774
H116	H	1.581344	0.464475	0.803774
H117	H	1.119791	0.195129	-0.000109
H118	H	1.619791	0.695129	0.499891
H119	H	0.925868	-0.248313	0.696043
H120	H	1.425868	0.251687	1.196043
Br121	Br	1.578280	0.094397	-0.000228
Br122	Br	2.078280	0.594397	0.499772
H123	H	0.894555	-0.291156	0.303837
H124	H	1.394555	0.208844	0.803837
H125	H	1.444589	-0.061874	0.170933
H126	H	1.944589	0.438126	0.670933
H127	H	1.544915	-0.246160	0.170921
H128	H	2.044915	0.253840	0.670921
