data_functionalizedCrystal
_audit_creation_method	'MofGen! by Chris Wilmer'
_symmetry_space_group_name_H-M	'P1'
_symmetry_Int_Tables_number	1
_symmetry_cell_setting	triclinic
loop_
_symmetry_equiv_pos_as_xyz
  x,y,z
_cell_length_a	14.519731
_cell_length_b	15.995350
_cell_length_c	13.596369
_cell_angle_alpha	89.996243
_cell_angle_beta	89.994584
_cell_angle_gamma	83.590614
loop_
_atom_site_label
_atom_site_type_symbol
_atom_site_fract_x
_atom_site_fract_y
_atom_site_fract_z
O1	O	1.223657	0.109845	-0.081788
O2	O	0.955159	0.122752	-0.081789
O3	O	1.096748	-0.005578	-0.081788
O4	O	1.082068	0.238174	-0.081790
O5	O	1.096733	-0.005585	0.081795
O6	O	0.955145	0.122745	0.081794
O7	O	1.223643	0.109838	0.081794
Zn8	Zn	1.089392	0.116290	0.107766
Zn9	Zn	1.089410	0.116299	-0.107761
O10	O	1.082054	0.238168	0.081793
C11	C	0.920794	0.122144	0.000002
C12	C	0.818417	0.120331	0.000001
C13	C	0.735275	0.118859	-0.000003
C14	C	0.630970	0.117019	-0.000003
C15	C	0.547834	0.115559	-0.000003
C16	C	0.443521	0.113719	-0.000005
C17	C	1.096134	-0.036777	0.000002
C18	C	1.094314	-0.129730	-0.000004
C19	C	1.087781	-0.467488	-0.000001
C20	C	0.986944	-0.420212	-0.000368
C21	C	0.988764	-0.323519	0.000001
C22	C	1.091021	-0.299922	-0.000003
C23	C	1.140750	-0.340926	0.093409
C24	C	1.138216	-0.437565	0.093488
C25	C	1.140316	-0.437913	-0.092537
C26	C	1.140292	-0.340967	-0.093771
C27	C	1.092858	-0.205222	-0.000001
C28	C	1.085947	-0.562189	0.000004
C29	C	1.258008	0.110446	0.000001
C30	C	1.360385	0.112258	-0.000005
C31	C	1.082668	0.269367	0.000001
C32	C	1.084488	0.362320	0.000000
N33	N	1.089386	0.116284	0.254858
N34	N	1.089423	0.116299	-0.254853
C35	C	1.089409	0.116300	0.656149
C36	C	1.089400	0.116299	0.544498
C37	C	1.089398	0.116293	0.455507
C38	C	1.089388	0.116290	0.343849
H39	H	0.949673	-0.295155	-0.066961
C40	C	1.089202	-0.462371	0.187818
N41	N	1.052279	-0.481050	0.258868
H42	H	0.946646	-0.438804	-0.067356
C43	C	0.932739	-0.446744	0.089646
N44	N	0.891918	-0.466722	0.157453
H45	H	0.949399	-0.295718	0.067076
H46	H	1.107353	-0.458501	-0.163338
H47	H	1.212249	-0.469698	0.097723
H48	H	1.215875	-0.326682	0.096881
C49	C	1.241039	-0.320063	-0.101392
N50	N	1.316926	-0.304321	-0.107122
H51	H	1.106199	-0.312601	0.162926
C52	C	1.091221	-0.304181	-0.187132
N53	N	1.054251	-0.276475	-0.257449
C54	C	1.240752	-0.480667	-0.093393
N55	N	1.316396	-0.512876	-0.094032
