data_functionalizedCrystal
_audit_creation_method	'MofGen! by Chris Wilmer'
_symmetry_space_group_name_H-M	'P1'
_symmetry_Int_Tables_number	1
_symmetry_cell_setting	triclinic
loop_
_symmetry_equiv_pos_as_xyz
  x,y,z
_cell_length_a	8.559649
_cell_length_b	9.130313
_cell_length_c	8.559649
_cell_angle_alpha	89.999141
_cell_angle_beta	69.778664
_cell_angle_gamma	89.999671
loop_
_atom_site_label
_atom_site_type_symbol
_atom_site_fract_x
_atom_site_fract_y
_atom_site_fract_z
O1	O	2.126873	0.121776	-0.055041
O2	O	1.651388	0.121782	0.028740
O3	O	1.931021	0.121777	-0.250893
O4	O	1.847240	0.121781	0.224592
O5	O	1.931017	-0.121822	-0.250886
O6	O	1.651384	-0.121817	0.028747
O7	O	2.126869	-0.121822	-0.055034
Cu8	Cu	1.889126	-0.144062	-0.013143
Cu9	Cu	1.889131	0.144022	-0.013151
O10	O	1.847236	-0.121818	0.224599
C11	C	1.591077	-0.000017	0.035093
C12	C	1.411378	-0.000014	0.053992
N13	N	1.889135	-0.346685	-0.013139
C14	C	2.012980	-0.423339	-0.136927
C15	C	2.012978	-0.576676	-0.136946
C16	C	1.765279	-0.576691	0.110625
C17	C	1.765276	-0.423357	0.110636
C18	C	2.136839	-0.346667	-0.260703
C19	C	2.260695	-0.423321	-0.384499
C20	C	2.260693	-0.576658	-0.384518
C21	C	2.136836	-0.653341	-0.260740
C22	C	2.187180	-0.000021	-0.061387
C23	C	2.366879	-0.000013	-0.080286
C24	C	1.937369	-0.000020	-0.311198
C25	C	1.956268	-0.000012	-0.490898
N26	N	1.889137	0.346644	-0.013169
C27	C	1.840889	-0.000018	0.284904
C28	C	1.821990	-0.000016	0.464604
H29	H	1.466258	-0.000007	-0.209705
H30	H	2.136855	-0.221812	-0.260696
O31	O	1.650555	-0.000011	-0.403761
H32	H	1.581914	-0.099307	-0.418083
O33	O	2.127713	-0.000032	-0.622540
H34	H	2.223095	-0.000040	-0.561680
O35	O	1.279747	-0.000023	0.225444
H36	H	1.154523	-0.000034	0.213889
H37	H	2.361529	-0.360878	-0.485283
H38	H	2.361532	-0.639068	-0.485327
H39	H	1.664429	-0.360944	0.211434
O40	O	1.631710	-0.659388	0.244139
H41	H	1.652531	-0.778889	0.223346
O42	O	2.136826	-0.818727	-0.260751
H43	H	2.243757	-0.859152	-0.367620
