data_functionalizedCrystal
_audit_creation_method	'MofGen! by Chris Wilmer'
_symmetry_space_group_name_H-M	'P1'
_symmetry_Int_Tables_number	1
_symmetry_cell_setting	triclinic
loop_
_symmetry_equiv_pos_as_xyz
  x,y,z
_cell_length_a	12.837942
_cell_length_b	12.837943
_cell_length_c	11.892095
_cell_angle_alpha	85.689438
_cell_angle_beta	94.302569
_cell_angle_gamma	94.828940
loop_
_atom_site_label
_atom_site_type_symbol
_atom_site_fract_x
_atom_site_fract_y
_atom_site_fract_z
O1	O	0.266110	1.408367	-0.093982
O2	O	0.252667	1.105234	-0.093989
O3	O	0.107822	1.250078	-0.093979
O4	O	0.410955	1.263522	-0.093992
O5	O	0.119879	1.237999	0.094028
O6	O	0.264723	1.093155	0.094018
O7	O	0.278167	1.396288	0.094025
Zn8	Zn	0.273359	1.242803	0.123871
Zn9	Zn	0.257474	1.258718	-0.123836
O10	O	0.423011	1.251443	0.094014
C11	C	0.254153	1.060125	0.000014
C12	C	0.240609	0.943710	0.000011
C13	C	0.403439	0.718835	0.000020
C14	C	0.390717	0.609453	0.000019
C15	C	0.202446	0.615561	0.000015
C16	C	0.215167	0.724943	0.000017
C17	C	0.315667	0.776577	0.000017
C18	C	0.328387	0.885961	0.000011
C19	C	0.140117	0.892066	0.000015
C20	C	0.127395	0.782684	0.000014
C21	C	0.074781	1.239497	0.000024
C22	C	-0.041634	1.225953	0.000022
C23	C	-0.266509	1.388784	0.000002
C24	C	-0.375892	1.376062	-0.000000
C25	C	-0.369784	1.187791	0.000007
C26	C	-0.260402	1.200512	0.000009
C27	C	-0.208768	1.301011	0.000008
C28	C	-0.099383	1.313731	0.000019
C29	C	-0.093278	1.125461	0.000018
C30	C	-0.202660	1.112740	0.000016
C31	C	0.456052	1.262024	0.000009
C32	C	0.572467	1.275569	0.000004
C33	C	0.276680	1.441397	0.000020
C34	C	0.290224	1.557812	0.000015
N35	N	0.284200	1.231950	0.292925
N36	N	0.246626	1.269579	-0.292889
C37	C	0.171130	1.345098	0.529580
C38	C	0.178716	1.337519	0.647922
C39	C	0.306952	1.209210	0.647951
C40	C	0.299366	1.216788	0.529610
C41	C	0.231454	1.284736	0.470428
C42	C	0.223874	1.292319	0.352085
C43	C	0.352104	1.164005	0.352116
C44	C	0.359690	1.156426	0.470458
H45	H	0.485269	0.760876	0.000019
C46	C	-0.259458	1.002198	0.000012
H47	H	-0.209401	0.951747	0.000009
H48	H	-0.297807	0.989110	0.065569
H49	H	-0.306197	0.997535	-0.065563
C50	C	-0.439409	1.472608	-0.000009
H51	H	-0.511950	1.450642	-0.000020
H52	H	-0.418539	1.509167	0.065548
H53	H	-0.426937	1.517574	-0.065584
H54	H	0.120630	0.573495	0.000108
C55	C	-0.426590	1.077253	-0.000014
H56	H	-0.376538	1.026797	-0.000022
H57	H	-0.464945	1.064159	0.065537
H58	H	-0.473323	1.072605	-0.065595
H59	H	0.462191	0.562444	0.000024
H60	H	-0.046252	1.053990	0.000033
C61	C	0.149171	1.367052	0.286987
H62	H	0.114323	1.401907	0.339169
H63	H	0.188190	1.417309	0.240809
H64	H	0.098892	1.328035	0.240834
H65	H	0.401227	1.114857	0.303941
C66	C	0.096436	1.419837	0.464478
H67	H	0.061592	1.454700	0.516657
H68	H	0.135463	1.470087	0.418300
H69	H	0.046153	1.380825	0.418325
C70	C	0.112363	1.403920	0.712986
H71	H	0.070838	1.445475	0.660787
H72	H	0.068007	1.359003	0.759162
H73	H	0.157314	1.448267	0.759137
C74	C	0.381644	1.134474	0.713063
H75	H	0.377522	1.138612	0.792014
H76	H	0.362098	1.064726	0.693684
H77	H	0.451403	1.153994	0.693673
C78	C	0.434391	1.081696	0.535563
H79	H	0.430276	1.085831	0.614515
H80	H	0.414851	1.011947	0.516184
H81	H	0.504146	1.101223	0.516164
C82	C	0.016855	0.725882	0.000007
H83	H	0.021847	0.652468	-0.000001
H84	H	-0.015544	0.740852	0.065564
H85	H	-0.023932	0.749275	-0.065569
C86	C	0.043564	0.955584	0.000011
H87	H	0.065531	1.028123	0.000016
H88	H	-0.001399	0.943119	-0.065552
H89	H	0.007002	0.934704	0.065580
C90	C	-0.042587	1.424274	0.000014
H91	H	-0.092647	1.474726	-0.000002
H92	H	0.004158	1.428947	0.065575
H93	H	-0.004247	1.437356	-0.065557
H94	H	0.410219	0.928000	0.000013
H95	H	-0.224468	1.470613	0.000012
