data_functionalizedCrystal
_audit_creation_method	'MofGen! by Chris Wilmer'
_symmetry_space_group_name_H-M	'P1'
_symmetry_Int_Tables_number	1
_symmetry_cell_setting	triclinic
loop_
_symmetry_equiv_pos_as_xyz
  x,y,z
_cell_length_a	17.038272
_cell_length_b	19.188930
_cell_length_c	15.500227
_cell_angle_alpha	92.813384
_cell_angle_beta	86.956295
_cell_angle_gamma	87.128169
loop_
_atom_site_label
_atom_site_type_symbol
_atom_site_fract_x
_atom_site_fract_y
_atom_site_fract_z
O1	O	1.040536	0.148564	-0.071852
O2	O	1.373869	0.481898	0.261481
O3	O	1.707202	0.815231	0.594814
O4	O	0.812914	0.146156	-0.071877
O5	O	1.146247	0.479490	0.261456
O6	O	1.479580	0.812823	0.594789
O7	O	0.933292	0.046114	-0.071847
O8	O	1.266626	0.379447	0.261486
O9	O	1.599959	0.712780	0.594819
O10	O	0.920157	0.248607	-0.071882
O11	O	1.253490	0.581941	0.261451
O12	O	1.586823	0.915274	0.594784
O13	O	0.925988	0.052159	0.072040
O14	O	1.259321	0.385492	0.405373
O15	O	1.592654	0.718826	0.738706
O16	O	0.805609	0.152202	0.072009
O17	O	1.138942	0.485535	0.405343
O18	O	1.472275	0.818868	0.738676
O19	O	1.033231	0.154610	0.072035
O20	O	1.366564	0.487943	0.405368
O21	O	1.699897	0.821276	0.738701
Cu22	Cu	0.918753	0.153958	0.085160
Cu23	Cu	1.252086	0.487291	0.418493
Cu24	Cu	1.585419	0.820624	0.751827
Cu25	Cu	0.927392	0.146808	-0.085003
Cu26	Cu	1.260725	0.480142	0.248330
Cu27	Cu	1.594058	0.813475	0.581664
O28	O	0.912852	0.254653	0.072004
O29	O	1.246185	0.587986	0.405338
O30	O	1.579519	0.921319	0.738671
C31	C	0.780140	0.146990	0.000063
C32	C	1.113473	0.480323	0.333396
C33	C	1.446807	0.813656	0.666730
C34	C	0.693368	0.140458	0.000054
C35	C	1.026701	0.473791	0.333388
C36	C	1.360035	0.807125	0.666721
C37	C	0.643067	0.200424	0.000044
C38	C	0.976400	0.533757	0.333378
C39	C	1.309733	0.867091	0.666711
C40	C	0.561535	0.194283	0.000057
C41	C	0.894868	0.527617	0.333391
C42	C	1.228201	0.860950	0.666724
C43	C	0.530306	0.128176	0.000074
C44	C	0.863639	0.461509	0.333407
C45	C	1.196972	0.794842	0.666741
C46	C	0.580613	0.068205	0.000086
C47	C	0.913947	0.401539	0.333420
C48	C	1.247280	0.734872	0.666753
C49	C	0.662143	0.074347	0.000080
C50	C	0.995477	0.407680	0.333413
C51	C	1.328810	0.741014	0.666746
C52	C	0.284614	0.106479	0.000101
C53	C	0.617948	0.439812	0.333434
C54	C	0.951281	0.773146	0.666768
C55	C	0.203078	0.100342	0.000105
C56	C	0.536411	0.433675	0.333438
C57	C	0.869745	0.767009	0.666772
C58	C	0.184005	0.226421	0.000078
C59	C	0.517338	0.559754	0.333411
C60	C	0.850672	0.893087	0.666744
C61	C	0.265538	0.232556	0.000066
C62	C	0.598871	0.565889	0.333399
C63	C	0.932204	0.899223	0.666732
C64	C	0.315838	0.172586	0.000083
C65	C	0.649171	0.505919	0.333416
C66	C	0.982504	0.839253	0.666749
C67	C	0.446967	0.121897	0.000085
C68	C	0.780301	0.455231	0.333418
C69	C	1.113634	0.788564	0.666751
C70	C	0.399174	0.178865	0.000078
C71	C	0.732508	0.512198	0.333412
C72	C	1.065841	0.845532	0.666745
C73	C	0.929214	0.023099	0.000099
C74	C	1.262548	0.356432	0.333432
C75	C	1.595881	0.689766	0.666765
C76	C	0.927937	-0.054485	0.000106
C77	C	1.261270	0.278849	0.333439
C78	C	1.594604	0.612182	0.666773
C79	C	0.998572	-0.095020	0.000118
C80	C	1.331905	0.238314	0.333451
C81	C	1.665238	0.571647	0.666785
C82	C	0.997373	-0.167919	0.000104
C83	C	1.330706	0.165415	0.333437
C84	C	1.664039	0.498748	0.666771
C85	C	0.925534	-0.200279	0.000095
C86	C	1.258867	0.133055	0.333429
C87	C	1.592201	0.466388	0.666762
C88	C	0.854890	-0.159734	0.000079
C89	C	1.188224	0.173599	0.333412
C90	C	1.521557	0.506932	0.666745
C91	C	0.856092	-0.086837	0.000084
C92	C	1.189425	0.246496	0.333417
C93	C	1.522758	0.579829	0.666750
N94	N	0.868136	-0.309638	0.049057
N95	N	1.201469	0.023695	0.382390
N96	N	1.534802	0.357029	0.715723
N97	N	0.866999	-0.378887	0.049053
N98	N	1.200332	-0.045554	0.382387
N99	N	1.533666	0.287779	0.715720
C100	C	0.921909	-0.419913	0.000077
C101	C	1.255243	-0.086580	0.333411
C102	C	1.588576	0.246753	0.666744
N103	N	0.978011	-0.389074	-0.048884
N104	N	1.311344	-0.055741	0.284449
N105	N	1.644677	0.277593	0.617782
N106	N	0.979150	-0.319818	-0.048877
N107	N	1.312483	0.013515	0.284456
N108	N	1.645816	0.346848	0.617789
C109	C	0.924223	-0.279323	0.000089
C110	C	1.257556	0.054010	0.333422
C111	C	1.590890	0.387344	0.666756
C112	C	0.991249	-0.539494	0.000073
C113	C	1.324582	-0.206161	0.333406
C114	C	1.657915	0.127172	0.666740
C115	C	0.990047	-0.612395	0.000054
C116	C	1.323380	-0.279061	0.333387
C117	C	1.656714	0.054272	0.666720
C118	C	0.847562	-0.604208	0.000037
C119	C	1.180896	-0.270875	0.333370
C120	C	1.514229	0.062458	0.666704
C121	C	0.848767	-0.531310	0.000048
C122	C	1.182100	-0.197977	0.333381
C123	C	1.515433	0.135357	0.666714
C124	C	0.920612	-0.498957	0.000070
C125	C	1.253945	-0.165624	0.333403
C126	C	1.587278	0.167710	0.666736
C127	C	1.066004	0.153776	0.000092
C128	C	1.399338	0.487110	0.333426
C129	C	1.732671	0.820443	0.666759
C130	C	1.152777	0.160308	0.000095
C131	C	1.486110	0.493641	0.333429
C132	C	1.819444	0.826975	0.666762
C133	C	0.916930	0.277667	0.000057
C134	C	1.250263	0.611000	0.333390
C135	C	1.583597	0.944334	0.666723
C136	C	0.918208	0.355250	0.000044
C137	C	1.251541	0.688584	0.333377
C138	C	1.584874	1.021917	0.666710
N139	N	0.912682	0.158986	0.204843
N140	N	1.246016	0.492319	0.538177
N141	N	1.579349	0.825653	0.871510
N142	N	0.933468	0.141775	-0.204686
N143	N	1.266801	0.475108	0.128647
N144	N	1.600135	0.808442	0.461980
C145	C	0.963709	0.116612	0.250133
C146	C	1.297042	0.449946	0.583466
C147	C	1.630375	0.783279	0.916800
C148	C	0.959125	0.120422	0.340705
C149	C	1.292458	0.453755	0.674038
C150	C	1.625792	0.787089	1.007371
C151	C	0.903518	0.166610	0.385985
C152	C	1.236851	0.499943	0.719318
C153	C	1.570185	0.833276	1.052652
C154	C	0.852486	0.208985	0.340689
C155	C	1.185820	0.542318	0.674023
C156	C	1.519153	0.875652	1.007356
C157	C	0.857067	0.205171	0.250119
C158	C	1.190400	0.538505	0.583453
C159	C	1.523734	0.871838	0.916786
C160	C	0.887017	0.180337	0.659448
C161	C	1.220350	0.513670	0.992781
C162	C	1.553684	0.847003	1.326115
C163	C	0.882442	0.184149	0.750024
C164	C	1.215775	0.517482	1.083358
C165	C	1.549109	0.850815	1.416691
C166	C	0.989080	0.095584	0.750033
C167	C	1.322413	0.428918	1.083367
C168	C	1.655747	0.762251	1.416700
C169	C	0.993659	0.091778	0.659461
C170	C	1.326992	0.425111	0.992795
C171	C	1.660325	0.758444	1.326128
C172	C	0.942624	0.134150	0.614174
C173	C	1.275958	0.467484	0.947507
C174	C	1.609291	0.800817	1.280840
C175	C	0.898833	0.170506	0.478564
C176	C	1.232166	0.503840	0.811897
C177	C	1.565500	0.837173	1.145231
C178	C	0.947306	0.130250	0.521596
C179	C	1.280640	0.463583	0.854930
C180	C	1.613973	0.796916	1.188263
H181	H	0.325559	0.057647	0.000115
H182	H	0.658893	0.390980	0.333449
H183	H	0.992226	0.724313	0.666782
H184	H	0.555180	0.014379	0.000112
H185	H	0.888513	0.347713	0.333446
H186	H	1.221846	0.681046	0.666779
H187	H	0.143042	0.275245	0.000066
H188	H	0.476376	0.608578	0.333399
H189	H	0.809709	0.941911	0.666732
C190	C	0.717475	0.008384	0.000082
C191	C	1.050808	0.341717	0.333415
C192	C	1.384142	0.675051	0.666748
H193	H	0.687201	-0.031868	0.000083
H194	H	1.020535	0.301466	0.333416
H195	H	1.353868	0.634799	0.666750
H196	H	0.747139	0.010265	0.050254
H197	H	1.080472	0.343599	0.383588
H198	H	1.413806	0.676932	0.716921
H199	H	0.752214	0.006053	-0.050105
H200	H	1.085547	0.339386	0.283228
H201	H	1.418881	0.672720	0.616562
H202	H	1.054894	-0.200929	0.000110
H203	H	1.388227	0.132404	0.333443
H204	H	1.721560	0.465738	0.666777
H205	H	0.845464	0.214840	0.622582
H206	H	1.178797	0.548173	0.955915
H207	H	1.512131	0.881507	1.289248
C208	C	1.045207	0.048970	0.799847
C209	C	1.378540	0.382304	1.133181
C210	C	1.711874	0.715637	1.466514
H211	H	1.078982	0.020919	0.759908
H212	H	1.412315	0.354253	1.093241
H213	H	1.745649	0.687586	1.426574
H214	H	1.015401	0.019716	0.835192
H215	H	1.348735	0.353049	1.168525
H216	H	1.682068	0.686382	1.501858
H217	H	1.075877	0.077520	0.835165
H218	H	1.409210	0.410853	1.168499
H219	H	1.742543	0.744186	1.501832
C220	C	0.837642	0.221287	0.528372
C221	C	1.170975	0.554620	0.861705
C222	C	1.504309	0.887954	1.195039
H223	H	0.807894	0.245970	0.488431
H224	H	1.141228	0.579304	0.821764
H225	H	1.474561	0.912637	1.155097
H226	H	0.863844	0.253523	0.563711
H227	H	1.197177	0.586856	0.897045
H228	H	1.530511	0.920190	1.230378
H229	H	0.803415	0.195680	0.563695
H230	H	1.136749	0.529014	0.897028
H231	H	1.470082	0.862347	1.230361
H232	H	1.038938	0.054168	0.622596
H233	H	1.372272	0.387501	0.955929
H234	H	1.705605	0.720835	1.289262
C235	C	0.778392	-0.042244	0.000073
C236	C	1.111726	0.291090	0.333406
C237	C	1.445059	0.624423	0.666739
H238	H	0.789398	0.005805	0.000073
H239	H	1.122731	0.339138	0.333406
H240	H	1.456064	0.672471	0.666740
H241	H	0.746372	-0.050409	0.050241
H242	H	1.079706	0.282924	0.383575
H243	H	1.413039	0.616258	0.716908
H244	H	0.751477	-0.054608	-0.050118
H245	H	1.084810	0.278725	0.283215
H246	H	1.418144	0.612058	0.616549
H247	H	0.815515	0.239676	0.213246
H248	H	1.148848	0.573009	0.546579
H249	H	1.482182	0.906342	0.879912
H250	H	0.837158	0.221763	0.786888
H251	H	1.170491	0.555096	1.120221
H252	H	1.503824	0.888430	1.453554
C253	C	1.067749	-0.656984	0.000068
C254	C	1.401083	-0.323650	0.333402
C255	C	1.734416	0.009683	0.666735
H256	H	1.110706	-0.627272	0.000091
H257	H	1.444039	-0.293938	0.333424
H258	H	1.777372	0.039395	0.666757
H259	H	1.072797	-0.687691	-0.050110
H260	H	1.406130	-0.354358	0.283223
H261	H	1.739463	-0.021024	0.616557
H262	H	1.067687	-0.683490	0.050249
H263	H	1.401020	-0.350157	0.383583
H264	H	1.734354	-0.016823	0.716916
H265	H	0.992579	0.092641	0.484726
H266	H	1.325912	0.425974	0.818060
H267	H	1.659245	0.759307	1.151393
C268	C	0.677412	0.273143	0.000026
C269	C	1.010745	0.606476	0.333359
C270	C	1.344078	0.939810	0.666692
H271	H	0.635773	0.307976	0.000030
H272	H	0.969107	0.641310	0.333363
H273	H	1.302440	0.974643	0.666696
H274	H	0.711360	0.276053	-0.050153
H275	H	1.044693	0.609386	0.283180
H276	H	1.378027	0.942719	0.616513
H277	H	0.706278	0.280268	0.050206
H278	H	1.039612	0.613601	0.383539
H279	H	1.372945	0.946934	0.716873
H280	H	0.424604	0.232690	0.000070
H281	H	0.757938	0.566023	0.333403
H282	H	1.091271	0.899356	0.666736
H283	H	1.049750	-0.513151	0.000087
H284	H	1.383083	-0.179818	0.333420
H285	H	1.716416	0.153515	0.666754
H286	H	1.057074	-0.068683	0.000133
H287	H	1.390407	0.264650	0.333466
H288	H	1.723740	0.597984	0.666800
H289	H	0.421530	0.068073	0.000123
H290	H	0.754864	0.401407	0.333456
H291	H	1.088197	0.734740	0.666789
H292	H	0.807206	0.246590	0.377562
H293	H	1.140539	0.579923	0.710895
H294	H	1.473873	0.913256	1.044229
H295	H	0.796399	-0.186087	0.000070
H296	H	1.129732	0.147247	0.333403
H297	H	1.463065	0.480580	0.666736
H298	H	0.789070	-0.630555	0.000026
H299	H	1.122403	-0.297222	0.333359
H300	H	1.455737	0.036111	0.666692
H301	H	0.791248	-0.498305	0.000043
H302	H	1.124581	-0.164972	0.333376
H303	H	1.457914	0.168361	0.666709
H304	H	0.520582	0.243114	0.000048
H305	H	0.853916	0.576448	0.333382
H306	H	1.187249	0.909781	0.666715
H307	H	1.000674	0.085917	0.377579
H308	H	1.334007	0.419251	0.710912
H309	H	1.667341	0.752584	1.044245
C310	C	0.299883	0.305275	0.000060
C311	C	0.633217	0.638608	0.333393
C312	C	0.966550	0.971942	0.666727
H313	H	0.258247	0.340111	0.000066
H314	H	0.591581	0.673444	0.333399
H315	H	0.924914	1.006777	0.666732
H316	H	0.333834	0.308187	-0.050117
H317	H	0.667168	0.641520	0.283217
H318	H	1.000501	0.974853	0.616550
H319	H	0.328748	0.312395	0.050243
H320	H	0.662082	0.645728	0.383576
H321	H	0.995415	0.979061	0.716909
C322	C	0.168728	0.027621	0.000125
C323	C	0.502061	0.360954	0.333458
C324	C	0.835394	0.694287	0.666792
H325	H	0.210360	-0.007216	0.000141
H326	H	0.543694	0.326117	0.333474
H327	H	0.877027	0.659450	0.666808
H328	H	0.139862	0.020496	-0.050050
H329	H	0.473195	0.353829	0.283283
H330	H	0.806528	0.687162	0.616617
H331	H	0.134776	0.024718	0.050309
H332	H	0.468110	0.358051	0.383643
H333	H	0.801443	0.691385	0.716976
C334	C	1.024876	0.065804	0.200332
C335	C	1.358209	0.399138	0.533665
C336	C	1.691542	0.732471	0.866999
H337	H	1.054603	0.041109	0.240280
H338	H	1.387936	0.374443	0.573613
H339	H	1.721269	0.707776	0.906947
H340	H	1.059115	0.091374	0.164986
H341	H	1.392448	0.424707	0.498319
H342	H	1.725782	0.758041	0.831653
H343	H	0.998639	0.033571	0.165017
H344	H	1.331972	0.366904	0.498350
H345	H	1.665305	0.700238	0.831683
