data_functionalizedCrystal
_audit_creation_method	'MofGen! by Chris Wilmer'
_symmetry_space_group_name_H-M	'P1'
_symmetry_Int_Tables_number	1
_symmetry_cell_setting	triclinic
loop_
_symmetry_equiv_pos_as_xyz
  x,y,z
_cell_length_a	6.817900
_cell_length_b	18.024422
_cell_length_c	7.076105
_cell_angle_alpha	88.629979
_cell_angle_beta	117.701832
_cell_angle_gamma	76.965537
loop_
_atom_site_label
_atom_site_type_symbol
_atom_site_fract_x
_atom_site_fract_y
_atom_site_fract_z
V1	V	-4.197725	0.104221	-0.665911
O2	O	-4.183998	-0.006233	-0.652299
O3	O	-4.146136	0.207831	-0.662256
O4	O	-4.224771	0.102080	-0.955927
O5	O	-4.104818	0.100249	-0.356595
V6	V	-4.671990	0.091073	-0.628805
O7	O	-4.479292	0.133062	-0.747306
O8	O	-4.840621	0.062231	-0.547410
O9	O	-4.500373	-0.012537	-0.632459
O10	O	-4.803115	0.201527	-0.642417
O11	O	-4.882294	0.095044	-0.938120
O12	O	-4.421738	0.093214	-0.338789
C13	C	-3.987920	0.233106	-0.651983
C14	C	-4.027530	0.317805	-0.650929
C15	C	-4.455506	0.841563	-0.655007
C16	C	-4.418282	0.761980	-0.656007
C17	C	-4.214860	0.718330	-0.645834
C18	C	-4.048644	0.754267	-0.634637
C19	C	-4.085863	0.833848	-0.633621
C20	C	-3.898538	0.433325	-0.638731
C21	C	-3.861333	0.353738	-0.639754
C22	C	-4.230956	0.361456	-0.661117
C23	C	-4.268176	0.441038	-0.660101
C24	C	-4.101952	0.476967	-0.648894
C25	C	-4.142316	0.563260	-0.647805
C26	C	-4.174502	0.632039	-0.646938
C27	C	-4.328900	0.962192	-0.642732
C28	C	-4.289304	0.877495	-0.643817
C29	C	-4.095179	0.098205	-0.026586
C30	C	-4.221641	0.097100	-0.268128
H31	H	-4.621157	0.877098	-0.663304
H32	H	-4.553628	0.732729	-0.665128
Br33	Br	-3.860288	0.882613	-0.618423
H34	H	-3.763170	0.462567	-0.629579
Br35	Br	-4.456548	0.312691	-0.676323
Br36	Br	-3.772549	0.695027	-0.620787
Br37	Br	-3.585246	0.294499	-0.625949
H38	H	-4.433823	0.476574	-0.668396
