data_functionalizedCrystal
_audit_creation_method	'MofGen! by Chris Wilmer'
_symmetry_space_group_name_H-M	'P1'
_symmetry_Int_Tables_number	1
_symmetry_cell_setting	triclinic
loop_
_symmetry_equiv_pos_as_xyz
  x,y,z
_cell_length_a	14.519709
_cell_length_b	10.723024
_cell_length_c	9.198806
_cell_angle_alpha	90.003648
_cell_angle_beta	89.995869
_cell_angle_gamma	95.925993
loop_
_atom_site_label
_atom_site_type_symbol
_atom_site_fract_x
_atom_site_fract_y
_atom_site_fract_z
O1	O	0.129347	-1.655978	-0.120886
O2	O	0.462681	-1.322645	0.212447
O3	O	0.796014	-0.989312	0.545780
O4	O	0.141728	-1.292710	-0.120892
O5	O	0.475062	-0.959377	0.212442
O6	O	0.808395	-0.626043	0.545775
O7	O	0.001349	-1.483976	-0.120876
O8	O	0.334682	-1.150642	0.212457
O9	O	0.668015	-0.817309	0.545791
O10	O	0.269727	-1.464713	-0.120902
O11	O	0.603061	-1.131379	0.212431
O12	O	0.936394	-0.798046	0.545764
O13	O	0.001348	-1.483960	0.120909
O14	O	0.334682	-1.150627	0.454242
O15	O	0.668015	-0.817294	0.787576
O16	O	0.141728	-1.292695	0.120893
O17	O	0.475061	-0.959362	0.454227
O18	O	0.808395	-0.626028	0.787560
O19	O	0.129347	-1.655963	0.120899
O20	O	0.462680	-1.322630	0.454232
O21	O	0.796014	-0.989296	0.787565
Cu22	Cu	0.135538	-1.474328	0.142973
Cu23	Cu	0.468871	-1.140994	0.476306
Cu24	Cu	0.802204	-0.807661	0.809639
Cu25	Cu	0.135538	-1.474345	-0.142966
Cu26	Cu	0.468871	-1.141012	0.190367
Cu27	Cu	0.802205	-0.807679	0.523701
O28	O	0.269727	-1.464697	0.120883
O29	O	0.603060	-1.131364	0.454216
O30	O	0.936393	-0.798031	0.787549
C31	C	0.140827	-1.246211	0.000000
C32	C	0.474161	-0.912878	0.333334
C33	C	0.807494	-0.579545	0.666667
C34	C	0.138132	-1.107682	-0.000001
C35	C	0.471465	-0.774349	0.333332
C36	C	0.804798	-0.441016	0.666665
C37	C	-0.033016	-1.483070	0.000017
C38	C	0.300317	-1.149737	0.333350
C39	C	0.633651	-0.816404	0.666684
C40	C	-0.135411	-1.480380	0.000018
C41	C	0.197922	-1.147047	0.333351
C42	C	0.531256	-0.813713	0.666684
C43	C	0.130248	-1.702462	0.000003
C44	C	0.463582	-1.369128	0.333337
C45	C	0.796915	-1.035795	0.666670
C46	C	0.132944	-1.840991	-0.000005
C47	C	0.466277	-1.507657	0.333329
C48	C	0.799611	-1.174324	0.666662
C49	C	-0.510357	-1.470476	-0.000020
C50	C	-0.177024	-1.137143	0.333313
C51	C	0.156309	-0.803810	0.666646
C52	C	-0.406035	-1.473227	-0.000009
C53	C	-0.072702	-1.139893	0.333324
C54	C	0.260631	-0.806560	0.666657
C55	C	-0.322887	-1.475428	0.000000
C56	C	0.010446	-1.142095	0.333333
C57	C	0.343779	-0.808761	0.666667
C58	C	-0.218559	-1.478179	0.000008
C59	C	0.114775	-1.144845	0.333342
C60	C	0.448108	-0.811512	0.666675
C61	C	0.304091	-1.465603	-0.000013
C62	C	0.637425	-1.132269	0.333320
C63	C	0.970758	-0.798936	0.666653
C64	C	0.406486	-1.468293	-0.000024
C65	C	0.739820	-1.134960	0.333310
C66	C	1.073153	-0.801626	0.666643
N67	N	0.135537	-1.474324	0.344087
N68	N	0.468870	-1.140991	0.677420
N69	N	0.802203	-0.807657	1.010753
C70	C	0.216681	-1.031965	-0.000010
C71	C	0.550014	-0.698632	0.333323
C72	C	0.883347	-0.365298	0.666657
C73	C	0.213896	-0.888788	-0.000012
C74	C	0.547230	-0.555454	0.333322
C75	C	0.880563	-0.222121	0.666655
N76	N	0.135532	-1.474359	-0.344080
N77	N	0.468865	-1.141026	-0.010747
N78	N	0.802198	-0.807692	0.322587
C79	C	0.076335	-1.554633	0.416290
C80	C	0.409669	-1.221300	0.749624
C81	C	0.743002	-0.887967	1.082957
C82	C	0.076332	-1.554653	0.583703
C83	C	0.409665	-1.221319	0.917036
C84	C	0.742999	-0.887986	1.250369
H85	H	0.281141	-0.823726	-0.000025
H86	H	0.614474	-0.490393	0.333308
H87	H	0.947807	-0.157060	0.666642
H88	H	0.025651	-1.623414	0.645795
H89	H	0.358984	-1.290080	0.979128
H90	H	0.692317	-0.956747	1.312461
H91	H	0.025649	-1.623371	0.354170
H92	H	0.358982	-1.290038	0.687503
H93	H	0.692316	-0.956705	1.020837
H94	H	0.186222	-1.405604	0.593837
H95	H	0.519556	-1.072270	0.927171
H96	H	0.852889	-0.738937	1.260504
C97	C	0.310316	-1.087575	-0.000021
C98	C	0.643649	-0.754241	0.333312
C99	C	0.976983	-0.420908	0.666646
H100	H	0.299904	-1.176511	-0.000029
H101	H	0.633237	-0.843178	0.333304
H102	H	0.966570	-0.509844	0.666638
H103	H	0.344408	-1.060259	0.084288
H104	H	0.677741	-0.726926	0.417621
H105	H	1.011074	-0.393593	0.750954
H106	H	0.344401	-1.060272	-0.084354
H107	H	0.677734	-0.726939	0.248979
H108	H	1.011067	-0.393606	0.582312
C109	C	0.042093	-0.928861	-0.000002
C110	C	0.375426	-0.595528	0.333331
C111	C	0.708759	-0.262195	0.666665
H112	H	-0.009057	-0.880300	-0.000009
H113	H	0.324277	-0.546967	0.333324
H114	H	0.657610	-0.213633	0.666657
H115	H	0.039636	-0.980245	0.084310
H116	H	0.372970	-0.646912	0.417643
H117	H	0.706303	-0.313579	0.750977
H118	H	0.039643	-0.980243	-0.084332
H119	H	0.372977	-0.646910	0.249001
H120	H	0.706310	-0.313576	0.582334
C121	C	0.203995	-1.381437	0.427990
C122	C	0.537329	-1.048103	0.761323
C123	C	0.870662	-0.714770	1.094656
H124	H	0.241130	-1.331038	0.360981
H125	H	0.574463	-0.997705	0.694314
H126	H	0.907797	-0.664371	1.027647
H127	H	0.242552	-1.426601	0.487368
H128	H	0.575885	-1.093268	0.820702
H129	H	0.909219	-0.759935	1.154035
H130	H	0.170529	-1.329339	0.487366
H131	H	0.503862	-0.996005	0.820699
H132	H	0.837196	-0.662672	1.154032
H133	H	0.068822	-1.066508	-0.000032
H134	H	0.402155	-0.733175	0.333301
H135	H	0.735488	-0.399842	0.666635
