data_functionalizedCrystal
_audit_creation_method	'MofGen! by Chris Wilmer'
_symmetry_space_group_name_H-M	'P1'
_symmetry_Int_Tables_number	1
_symmetry_cell_setting	triclinic
loop_
_symmetry_equiv_pos_as_xyz
  x,y,z
_cell_length_a	13.032831
_cell_length_b	14.908579
_cell_length_c	13.033454
_cell_angle_alpha	94.346598
_cell_angle_beta	89.091650
_cell_angle_gamma	93.475351
loop_
_atom_site_label
_atom_site_type_symbol
_atom_site_fract_x
_atom_site_fract_y
_atom_site_fract_z
Zn1	Zn	1.466490	0.431763	-0.805662
Zn2	Zn	1.966490	0.931763	-0.305662
Zn3	Zn	1.475617	0.601444	-0.643412
Zn4	Zn	1.975617	1.101444	-0.143412
Zn5	Zn	1.315979	0.436504	-0.612164
Zn6	Zn	1.815979	0.936504	-0.112164
Zn7	Zn	1.284646	0.564179	-0.791407
Zn8	Zn	1.784646	1.064179	-0.291407
O9	O	1.385683	0.508472	-0.713161
O10	O	1.885683	1.008472	-0.213161
O11	O	1.610613	0.467884	-0.803182
O12	O	2.110613	0.967884	-0.303182
O13	O	1.471374	0.597144	-0.496352
O14	O	1.971374	1.097144	0.003648
O15	O	1.345238	0.311431	-0.630721
O16	O	1.845238	0.811431	-0.130721
O17	O	1.617318	0.592547	-0.683978
O18	O	2.117318	1.092547	-0.183978
O19	O	1.455818	0.307948	-0.772882
O20	O	1.955818	0.807948	-0.272882
O21	O	1.354088	0.475963	-0.473394
O22	O	1.854088	0.975963	0.026606
O23	O	1.168911	0.439829	-0.616898
O24	O	1.668911	0.939829	-0.116898
O25	O	1.291836	0.529034	-0.936213
O26	O	1.791836	1.029034	-0.436213
O27	O	1.145891	0.533631	-0.748587
O28	O	1.645891	1.033631	-0.248587
O29	O	1.425436	0.431749	-0.946686
O30	O	1.925436	0.931749	-0.446686
O31	O	1.440992	0.720944	-0.670156
O32	O	1.940992	1.220944	-0.170156
O33	O	1.300686	0.693566	-0.778886
O34	O	1.800686	1.193566	-0.278886
C35	C	1.120346	0.483201	-0.677805
C36	C	1.620346	0.983201	-0.177805
C37	C	1.006829	0.472408	-0.662705
C38	C	1.506829	0.972408	-0.162705
C39	C	0.944861	0.514106	-0.721042
C40	C	1.444861	1.014106	-0.221042
C41	C	0.827535	0.502952	-0.705437
C42	C	1.327535	1.002952	-0.205437
C43	C	1.368454	0.739522	-0.726391
C44	C	1.868454	1.239522	-0.226391
C45	C	1.361173	0.838371	-0.732097
C46	C	1.861173	1.338371	-0.232097
C47	C	1.493713	1.052566	-0.629722
C48	C	1.993713	1.552566	-0.129722
C49	C	1.486875	1.145444	-0.635081
C50	C	1.986875	1.645444	-0.135081
C51	C	1.340666	1.117006	-0.748179
C52	C	1.840666	1.617006	-0.248179
C53	C	1.347503	1.024128	-0.742820
C54	C	1.847503	1.524128	-0.242820
C55	C	1.424028	0.991912	-0.683588
C56	C	1.924028	1.491912	-0.183588
C57	C	1.430861	0.899032	-0.678224
C58	C	1.930861	1.399032	-0.178224
C59	C	1.284656	0.870596	-0.791328
C60	C	1.784656	1.370596	-0.291328
C61	C	1.277819	0.963474	-0.796687
C62	C	1.777819	1.463474	-0.296687
C63	C	1.652057	0.533843	-0.748656
C64	C	2.152057	1.033843	-0.248656
C65	C	1.765569	0.544655	-0.763782
C66	C	2.265569	1.044655	-0.263782
C67	C	1.402996	1.276518	-0.699918
C68	C	1.902996	1.776518	-0.199918
C69	C	1.410353	1.177668	-0.694306
C70	C	1.910353	1.677668	-0.194306
C71	C	1.354123	0.475706	-0.979542
C72	C	1.854123	0.975706	-0.479542
C73	C	1.340673	0.461743	-1.093058
C74	C	1.840673	0.961743	-0.593058
C75	C	1.392708	0.515475	-1.155026
C76	C	1.892708	1.015475	-0.655026
C77	C	1.378809	0.501045	-1.272351
C78	C	1.878809	1.001045	-0.772351
C79	C	1.417185	0.541053	-0.447821
C80	C	1.917185	1.041053	0.052179
C81	C	1.430850	0.554785	-0.334317
C82	C	1.930850	1.054785	0.165683
H83	H	1.556016	1.026336	-0.581485
H84	H	2.056016	1.526336	-0.081485
N85	N	0.962058	0.414186	-0.581237
N86	N	1.462058	0.914186	-0.081237
H87	H	0.988187	0.438629	-0.511472
H88	H	1.488187	0.938629	-0.011472
H89	H	0.983420	0.350465	-0.596112
H90	H	1.483420	0.850465	-0.096112
N91	N	1.268022	0.386660	-1.137825
N92	N	1.768022	0.886660	-0.637825
H93	H	1.290799	0.326888	-1.117800
H94	H	1.790799	0.826888	-0.617800
H95	H	1.268420	0.387080	-1.215283
H96	H	1.768420	0.887080	-0.715283
H97	H	1.485698	0.611471	-1.300518
H98	H	1.985698	1.111471	-0.800518
H99	H	0.978669	0.558058	-0.782543
H100	H	1.478669	1.058058	-0.282543
H101	H	0.793732	0.458988	-0.643939
H102	H	1.293732	0.958988	-0.143939
H103	H	1.323971	0.444352	-1.306152
H104	H	1.823971	0.944352	-0.806152
H105	H	1.493169	0.872804	-0.629992
H106	H	1.993169	1.372804	-0.129992
N107	N	0.810330	0.602880	-0.845257
N108	N	1.310330	1.102880	-0.345257
H109	H	0.887798	0.602594	-0.844860
H110	H	1.387798	1.102594	-0.344860
H111	H	0.788904	0.666586	-0.830424
H112	H	1.288904	1.166586	-0.330424
H113	H	1.543621	1.194826	-0.591219
H114	H	2.043621	1.694826	-0.091219
N115	N	1.258135	1.151762	-0.812060
N116	N	1.758135	1.651762	-0.312060
H117	H	1.266478	1.128091	-0.886215
H118	H	1.766478	1.628091	-0.386215
H119	H	1.264429	1.219801	-0.807197
H120	H	1.764429	1.719801	-0.307197
H121	H	1.215517	0.989718	-0.844914
H122	H	1.715517	1.489718	-0.344914
H123	H	1.227912	0.821200	-0.835186
H124	H	1.727912	1.321200	-0.335186
H125	H	1.447550	0.572157	-1.121221
H126	H	1.947550	1.072157	-0.621221
