data_functionalizedCrystal
_audit_creation_method	'MofGen! by Chris Wilmer'
_symmetry_space_group_name_H-M	'P1'
_symmetry_Int_Tables_number	1
_symmetry_cell_setting	triclinic
loop_
_symmetry_equiv_pos_as_xyz
  x,y,z
_cell_length_a	9.065215
_cell_length_b	14.519709
_cell_length_c	12.996460
_cell_angle_alpha	90.007090
_cell_angle_beta	90.005021
_cell_angle_gamma	84.347421
loop_
_atom_site_label
_atom_site_type_symbol
_atom_site_fract_x
_atom_site_fract_y
_atom_site_fract_z
O1	O	1.957872	0.135216	0.085558
O2	O	2.457872	0.635216	0.585558
O3	O	1.528379	0.146310	0.085562
O4	O	2.028379	0.646310	0.585562
O5	O	1.754513	0.006608	0.085551
O6	O	2.254513	0.506608	0.585551
O7	O	1.731738	0.274918	0.085569
O8	O	2.231738	0.774918	0.585569
O9	O	1.754489	0.006600	-0.085583
O10	O	2.254489	0.506600	0.414417
O11	O	1.528355	0.146302	-0.085571
O12	O	2.028355	0.646302	0.414429
O13	O	1.957848	0.135208	-0.085576
O14	O	2.457848	0.635208	0.414424
Cu15	Cu	1.743100	0.140754	-0.101200
Cu16	Cu	2.243100	0.640754	0.398800
Cu17	Cu	1.743127	0.140764	0.101186
Cu18	Cu	2.243127	0.640764	0.601186
O19	O	1.731714	0.274910	-0.085564
O20	O	2.231714	0.774910	0.414436
C21	C	1.473400	0.145241	-0.000004
C22	C	1.973400	0.645241	0.499996
C23	C	1.309617	0.142054	-0.000002
C24	C	1.809617	0.642054	0.499998
C25	C	1.753439	-0.027764	-0.000016
C26	C	2.253439	0.472236	0.499984
C27	C	1.750259	-0.130168	-0.000017
C28	C	2.250259	0.369832	0.499983
C29	C	1.738550	-0.505150	0.000010
C30	C	2.238550	-0.005150	0.500010
C31	C	1.741801	-0.400818	0.000002
C32	C	2.241801	0.099182	0.500002
C33	C	1.744404	-0.317662	-0.000005
C34	C	2.244404	0.182338	0.499995
C35	C	1.747656	-0.213324	-0.000010
C36	C	2.247656	0.286676	0.499990
C37	C	2.012827	0.136277	-0.000008
C38	C	2.512827	0.636277	0.499992
C39	C	2.176610	0.139464	-0.000002
C40	C	2.676610	0.639464	0.499998
C41	C	1.732788	0.309282	0.000005
C42	C	2.232788	0.809282	0.500005
C43	C	1.735968	0.411686	0.000012
C44	C	2.235968	0.911686	0.500012
N45	N	1.743091	0.140747	-0.243547
N46	N	2.243091	0.640747	0.256453
C47	C	1.743125	0.140765	-0.663361
C48	C	2.243125	0.640765	-0.163361
C49	C	1.743111	0.140763	-0.546556
C50	C	2.243111	0.640763	-0.046556
C51	C	1.743109	0.140757	-0.453458
C52	C	2.243109	0.640757	0.046542
C53	C	1.743093	0.140753	-0.336645
C54	C	2.243093	0.640753	0.163355
N55	N	1.743148	0.140764	0.243533
N56	N	2.243148	0.640764	0.743533
