data_functionalizedCrystal
_audit_creation_method	'MofGen! by Chris Wilmer'
_symmetry_space_group_name_H-M	'P1'
_symmetry_Int_Tables_number	1
_symmetry_cell_setting	triclinic
loop_
_symmetry_equiv_pos_as_xyz
  x,y,z
_cell_length_a	6.817900
_cell_length_b	17.253917
_cell_length_c	10.943624
_cell_angle_alpha	97.444049
_cell_angle_beta	108.838799
_cell_angle_gamma	102.659311
loop_
_atom_site_label
_atom_site_type_symbol
_atom_site_fract_x
_atom_site_fract_y
_atom_site_fract_z
V1	V	-4.091005	-0.111272	-0.414803
O2	O	-4.074386	0.005369	-0.394297
O3	O	-4.044882	-0.220655	-0.424093
O4	O	-4.069347	-0.109551	-0.590180
O5	O	-4.049751	-0.106504	-0.227061
V6	V	-4.570873	-0.097322	-0.390874
O7	O	-4.360282	-0.141874	-0.467292
O8	O	-4.751794	-0.066720	-0.338385
O9	O	-4.393790	0.012061	-0.381584
O10	O	-4.704890	-0.213963	-0.411380
O11	O	-4.729524	-0.102090	-0.578616
O12	O	-4.369325	-0.099043	-0.215497
C13	C	-3.889571	-0.247321	-0.420679
C14	C	-3.933325	-0.336743	-0.429444
C15	C	-3.895303	-0.367272	-0.314064
C16	C	-3.936434	-0.451294	-0.322304
C17	C	-4.015574	-0.504785	-0.445925
C18	C	-4.053604	-0.474251	-0.561314
C19	C	-4.012487	-0.390231	-0.553073
C20	C	-4.144841	-0.757302	-0.483386
C21	C	-4.185951	-0.841327	-0.491618
C22	C	-4.068782	-0.818365	-0.252608
C23	C	-4.027657	-0.734343	-0.244377
C24	C	-4.065701	-0.703817	-0.359766
N25	N	-4.057612	-0.590669	-0.454351
N26	N	-4.023677	-0.617934	-0.351340
C27	C	-3.920777	-0.105595	-0.632537
C28	C	-3.984368	-0.104912	-0.775988
C29	C	-3.830211	-0.100310	-0.852629
C30	C	-4.004534	-0.168622	-0.966141
C31	C	-3.923376	-0.035390	-0.918084
C32	C	-4.157888	-0.173289	-0.887630
C33	C	-4.076662	-0.039995	-0.839544
C34	C	-4.251118	-0.108327	-0.953028
C35	C	-4.212442	0.038722	-0.384995
C36	C	-4.147928	0.128143	-0.376238
C37	C	-4.181236	-0.103001	-0.173133
C38	C	-4.096884	-0.103681	-0.029681
H39	H	-3.905475	-0.476146	-0.228350
C40	C	-3.941811	-0.676403	-0.110037
C41	C	-3.917351	-0.721124	-0.010754
C42	C	-3.838276	-0.667777	0.113017
H43	H	-3.806075	-0.640517	-0.097276
H44	H	-4.040534	-0.645772	-0.106181
H45	H	-3.818632	-0.751741	-0.014607
H46	H	-4.053058	-0.757007	-0.023471
H47	H	-3.936999	-0.637147	0.116873
H48	H	-3.702545	-0.631894	0.125764
H49	H	-3.821688	-0.698113	0.180394
H50	H	-4.118058	-0.517811	-0.661969
C51	C	-4.027961	-0.851565	-0.127395
C52	C	-4.221066	-0.902976	-0.131637
C53	C	-4.183558	-0.933565	-0.016301
H54	H	-3.924473	-0.881302	-0.121108
H55	H	-3.975047	-0.807697	-0.052561
H56	H	-4.273950	-0.946837	-0.206450
H57	H	-4.324581	-0.873258	-0.137904
H58	H	-4.130644	-0.889698	0.058533
H59	H	-4.080065	-0.963299	-0.010024
H60	H	-4.314575	-0.968445	-0.019158
C61	C	-3.809501	-0.309334	-0.179724
C62	C	-3.785073	-0.354060	-0.080447
C63	C	-3.706078	-0.300718	0.043324
H64	H	-3.673764	-0.273437	-0.166934
H65	H	-3.908256	-0.278714	-0.175892
H66	H	-3.686321	-0.384665	-0.084277
H67	H	-3.920781	-0.389953	-0.093193
H68	H	-3.804834	-0.270099	0.047156
H69	H	-3.570347	-0.264824	0.056100
H70	H	-3.689513	-0.331057	0.110697
H71	H	-3.824850	0.022877	-0.932431
C72	C	-4.489098	-0.112695	-1.011208
C73	C	-4.511752	-0.043191	-1.061373
C74	C	-4.730943	-0.047185	-1.114967
H75	H	-4.562266	-0.159772	-1.080513
H76	H	-4.549245	-0.115459	-0.944214
H77	H	-4.451633	-0.040435	-1.128361
H78	H	-4.438633	0.003896	-0.992093
H79	H	-4.791090	-0.049949	-1.047972
H80	H	-4.804092	-0.094264	-1.184267
H81	H	-4.746341	-0.000025	-1.148999
H82	H	-4.175796	-0.732458	-0.577343
C83	C	-4.272006	-0.899278	-0.625972
C84	C	-4.296588	-0.854563	-0.725265
C85	C	-4.375884	-0.907919	-0.849041
H86	H	-4.173414	-0.929935	-0.629943
H87	H	-4.407747	-0.935139	-0.638618
H88	H	-4.160867	-0.818716	-0.712624
H89	H	-4.395193	-0.823908	-0.721337
H90	H	-4.511625	-0.943781	-0.861686
H91	H	-4.277282	-0.938574	-0.852998
H92	H	-4.392591	-0.877589	-0.916426
H93	H	-4.043472	-0.365376	-0.647028
H94	H	-3.974704	-0.223001	-1.021077
C95	C	-3.592245	-0.095873	-0.793930
C96	C	-3.534809	-0.095849	-0.658992
C97	C	-3.315617	-0.091757	-0.604871
H98	H	-3.566210	-0.141624	-0.837685
H99	H	-3.508545	-0.047348	-0.804977
H100	H	-3.618482	-0.144369	-0.647954
H101	H	-3.560791	-0.050101	-0.615202
H102	H	-3.231917	-0.043232	-0.615918
H103	H	-3.289602	-0.137509	-0.648635
H104	H	-3.276613	-0.091733	-0.513308
H105	H	-4.106409	0.014386	-0.784572
C106	C	-4.288912	-0.251150	-0.868755
C107	C	-4.149482	-0.294331	-0.805190
C108	C	-4.270093	-0.366065	-0.787794
H109	H	-4.369044	-0.238045	-0.816293
H110	H	-4.385159	-0.283632	-0.952547
H111	H	-4.053273	-0.261855	-0.721412
H112	H	-4.069348	-0.307457	-0.857631
H113	H	-4.366341	-0.398548	-0.871586
H114	H	-4.350221	-0.352952	-0.735335
H115	H	-4.175510	-0.395376	-0.744675
