data_functionalizedCrystal
_audit_creation_method	'MofGen! by Chris Wilmer'
_symmetry_space_group_name_H-M	'P1'
_symmetry_Int_Tables_number	1
_symmetry_cell_setting	triclinic
loop_
_symmetry_equiv_pos_as_xyz
  x,y,z
_cell_length_a	12.759401
_cell_length_b	16.120484
_cell_length_c	12.759393
_cell_angle_alpha	92.864619
_cell_angle_beta	89.979541
_cell_angle_gamma	92.926992
loop_
_atom_site_label
_atom_site_type_symbol
_atom_site_fract_x
_atom_site_fract_y
_atom_site_fract_z
Zn1	Zn	1.584979	-0.331838	-0.615183
Zn2	Zn	1.918312	0.001496	-0.281850
Zn3	Zn	2.251646	0.334829	0.051484
Zn4	Zn	1.575929	-0.471272	-0.448396
Zn5	Zn	1.909262	-0.137938	-0.115062
Zn6	Zn	2.242596	0.195395	0.218271
Zn7	Zn	1.409276	-0.331880	-0.439521
Zn8	Zn	1.742610	0.001453	-0.106188
Zn9	Zn	2.075943	0.334786	0.227146
Zn10	Zn	1.400331	-0.471215	-0.624029
Zn11	Zn	1.733664	-0.137882	-0.290696
Zn12	Zn	2.066997	0.195452	0.042638
O13	O	1.492629	-0.401551	-0.531782
O14	O	1.825962	-0.068218	-0.198449
O15	O	2.159295	0.265116	0.134885
O16	O	1.730799	-0.350340	-0.593070
O17	O	2.064132	-0.017006	-0.259737
O18	O	2.397466	0.316327	0.073596
O19	O	1.553779	-0.452823	-0.300200
O20	O	1.887112	-0.119489	0.033134
O21	O	2.220445	0.213844	0.366467
O22	O	1.440115	-0.215209	-0.455407
O23	O	1.773448	0.118124	-0.122073
O24	O	2.106782	0.451457	0.211260
O25	O	1.724150	-0.452781	-0.470532
O26	O	2.057483	-0.119448	-0.137199
O27	O	2.390817	0.213886	0.196134
O28	O	1.569203	-0.215178	-0.584465
O29	O	1.902536	0.118156	-0.251132
O30	O	2.235870	0.451489	0.082202
O31	O	1.431340	-0.350413	-0.293680
O32	O	1.764673	-0.017079	0.039654
O33	O	2.098006	0.316254	0.372987
O34	O	1.261069	-0.350358	-0.463984
O35	O	1.594402	-0.017024	-0.130651
O36	O	1.927736	0.316309	0.202682
O37	O	1.424868	-0.452685	-0.769874
O38	O	1.758202	-0.119351	-0.436541
O39	O	2.091535	0.213982	-0.103207
O40	O	1.254497	-0.452726	-0.599542
O41	O	1.587830	-0.119393	-0.266208
O42	O	1.921163	0.213941	0.067125
O43	O	1.560529	-0.350285	-0.763375
O44	O	1.893862	-0.016951	-0.430042
O45	O	2.227195	0.316382	-0.096708
O46	O	1.545104	-0.587930	-0.479110
O47	O	1.878438	-0.254596	-0.145777
O48	O	2.211771	0.078737	0.187557
O49	O	1.416093	-0.587888	-0.608147
O50	O	1.749426	-0.254555	-0.274814
O51	O	2.082760	0.078779	0.058520
C52	C	1.219662	-0.401541	-0.531761
C53	C	1.552995	-0.068208	-0.198427
C54	C	1.886329	0.265126	0.134906
C55	C	1.102884	-0.401557	-0.531778
C56	C	1.436218	-0.068223	-0.198444
C57	C	1.769551	0.265110	0.134889
C58	C	1.044623	-0.454941	-0.602262
C59	C	1.377956	-0.121608	-0.268928
C60	C	1.711289	0.211726	0.064405
C61	C	0.934898	-0.454944	-0.602283
C62	C	1.268232	-0.121611	-0.268950
C63	C	1.601565	0.211723	0.064384
C64	C	0.941708	-0.348176	-0.461326
C65	C	1.275041	-0.014843	-0.127993
C66	C	1.608374	0.318490	0.205340
C67	C	1.051430	-0.348170	-0.461311
C68	C	1.384763	-0.014836	-0.127978
C69	C	1.718097	0.318497	0.205355
C70	C	1.478674	-0.618159	-0.545574
C71	C	1.812008	-0.284825	-0.212241
C72	C	2.145341	0.048508	0.121092
C73	C	1.472801	-0.710824	-0.551510
C74	C	1.806134	-0.377491	-0.218176
C75	C	2.139467	-0.044158	0.115157
C76	C	1.462083	-0.880486	-0.562368
C77	C	1.795416	-0.547152	-0.229035
C78	C	2.128750	-0.213819	0.104299
C79	C	1.523363	-0.921776	-0.501214
C80	C	1.856696	-0.588443	-0.167880
C81	C	2.190030	-0.255109	0.165453
C82	C	1.517400	-1.016181	-0.507255
C83	C	1.850733	-0.682848	-0.173922
C84	C	2.184066	-0.349515	0.159412
C85	C	1.468045	-0.786072	-0.556328
C86	C	1.801378	-0.452738	-0.222994
C87	C	2.134712	-0.119405	0.110339
C88	C	1.766661	-0.401562	-0.531804
C89	C	2.099995	-0.068229	-0.198471
C90	C	2.433328	0.265105	0.134862
C91	C	1.883438	-0.401567	-0.531814
C92	C	2.216771	-0.068233	-0.198481
C93	C	2.550104	0.265100	0.134853
C94	C	1.492710	-0.401473	-0.805811
C95	C	1.826043	-0.068140	-0.472477
C96	C	2.159377	0.265193	-0.139144
C97	C	1.492745	-0.401440	-0.922585
C98	C	1.826078	-0.068107	-0.589252
C99	C	2.159411	0.265226	-0.255919
C100	C	1.506666	-0.184098	-0.517959
C101	C	1.840000	0.149236	-0.184626
C102	C	2.173333	0.482569	0.148708
C103	C	1.512648	-0.091432	-0.512069
C104	C	1.845982	0.241901	-0.178735
C105	C	2.179315	0.575235	0.154598
C106	C	1.556530	-0.454703	-1.090574
C107	C	1.889864	-0.121370	-0.757241
C108	C	2.223197	0.211963	-0.423907
C109	C	1.556502	-0.454743	-0.980852
C110	C	1.889836	-0.121409	-0.647519
C111	C	2.223169	0.211924	-0.314186
C112	C	1.429003	-0.348101	-0.974046
C113	C	1.762337	-0.014768	-0.640712
C114	C	2.095670	0.318566	-0.307379
C115	C	1.429026	-0.348067	-1.083766
C116	C	1.762360	-0.014733	-0.750432
C117	C	2.095693	0.318600	-0.417099
C118	C	1.492612	-0.401568	-0.258816
C119	C	1.825945	-0.068235	0.074517
C120	C	2.159279	0.265098	0.407851
C121	C	1.492796	-0.401366	-0.142027
C122	C	1.826129	-0.068033	0.191306
C123	C	2.159463	0.265300	0.524640
H124	H	1.086513	-0.498410	-0.659643
H125	H	1.419847	-0.165077	-0.326309
H126	H	1.753180	0.168257	0.007024
H127	H	0.887466	-0.498414	-0.659680
H128	H	1.220799	-0.165081	-0.326346
H129	H	1.554133	0.168253	0.006987
H130	H	0.899800	-0.304712	-0.403954
H131	H	1.233133	0.028622	-0.070620
H132	H	1.566467	0.361955	0.262713
H133	H	1.377086	-0.304705	-0.926596
H134	H	1.710419	0.028628	-0.593263
H135	H	2.043752	0.361961	-0.259930
H136	H	1.608454	-0.498105	-1.138007
H137	H	1.941788	-0.164771	-0.804674
H138	H	2.275121	0.168562	-0.471340
H139	H	1.377121	-0.304632	-1.125659
H140	H	1.710454	0.028701	-0.792326
H141	H	2.043788	0.362035	-0.458993
O142	O	1.114282	-0.290601	-0.385271
O143	O	1.447615	0.042732	-0.051938
O144	O	1.780948	0.376066	0.281396
H145	H	1.060070	-0.253492	-0.336258
H146	H	1.393403	0.079842	-0.002925
H147	H	1.726737	0.413175	0.330409
O148	O	1.598792	-0.874694	-0.425848
O149	O	1.932126	-0.541361	-0.092514
O150	O	2.265459	-0.208027	0.240819
H151	H	1.554246	-0.835095	-0.369865
H152	H	1.887579	-0.501762	-0.036531
H153	H	2.220912	-0.168429	0.296802
O154	O	1.386639	-0.927566	-0.637710
O155	O	1.719972	-0.594233	-0.304376
O156	O	2.053306	-0.260899	0.028957
H157	H	1.393726	-0.995401	-0.630672
H158	H	1.727059	-0.662068	-0.297339
H159	H	2.060393	-0.328735	0.035995
O160	O	1.625259	-0.512258	-0.925351
O161	O	1.958592	-0.178925	-0.592018
O162	O	2.291925	0.154408	-0.258685
H163	H	1.669612	-0.549305	-0.984300
H164	H	2.002945	-0.215972	-0.650967
H165	H	2.336278	0.117361	-0.317634
