data_functionalizedCrystal
_audit_creation_method	'MofGen! by Chris Wilmer'
_symmetry_space_group_name_H-M	'P1'
_symmetry_Int_Tables_number	1
_symmetry_cell_setting	triclinic
loop_
_symmetry_equiv_pos_as_xyz
  x,y,z
_cell_length_a	16.992694
_cell_length_b	23.532407
_cell_length_c	16.053802
_cell_angle_alpha	92.544672
_cell_angle_beta	87.249047
_cell_angle_gamma	86.758451
loop_
_atom_site_label
_atom_site_type_symbol
_atom_site_fract_x
_atom_site_fract_y
_atom_site_fract_z
O1	O	1.042772	0.118472	-0.069339
O2	O	0.814498	0.117146	-0.069363
O3	O	0.935518	0.035219	-0.069335
O4	O	0.921752	0.200399	-0.069367
O5	O	0.928857	0.039709	0.069523
O6	O	0.807837	0.121636	0.069494
O7	O	1.036111	0.122961	0.069519
Zn8	Zn	0.920917	0.123011	0.091553
Zn9	Zn	0.929693	0.117096	-0.091397
O10	O	0.915091	0.204888	0.069490
C11	C	0.781969	0.117687	0.000063
C12	C	0.694964	0.112604	0.000054
C13	C	0.644342	0.161650	0.000045
C14	C	0.562592	0.156871	0.000058
C15	C	0.531466	0.103045	0.000073
C16	C	0.582095	0.053995	0.000084
C17	C	0.663843	0.058775	0.000078
C18	C	0.288022	0.083234	0.000099
C19	C	0.206267	0.078457	0.000103
C20	C	0.186770	0.181334	0.000078
C21	C	0.268521	0.186109	0.000066
C22	C	0.319142	0.137059	0.000082
N23	N	0.447905	0.098158	0.000083
N24	N	0.402702	0.141946	0.000078
C25	C	0.931837	0.016231	0.000096
C26	C	0.930783	-0.047038	0.000102
C27	C	0.995791	-0.442917	0.000063
C28	C	0.994812	-0.502366	0.000057
O29	O	1.055075	-0.536121	0.000033
N30	N	0.922865	-0.528562	0.000050
C31	C	0.851893	-0.495307	0.000041
O32	O	0.790607	-0.523048	0.000033
C33	C	0.852873	-0.435859	0.000041
C34	C	0.924824	-0.409666	0.000057
C35	C	1.067736	-0.416723	0.000078
C36	C	1.068715	-0.357278	0.000086
C37	C	0.997748	-0.324027	0.000079
C38	C	0.925803	-0.350221	0.000065
C39	C	0.781902	-0.402605	0.000026
C40	C	0.782889	-0.343154	0.000026
C41	C	0.854840	-0.316960	0.000042
C42	C	0.855814	-0.257525	0.000066
N43	N	0.927761	-0.231328	0.000073
C44	C	0.998728	-0.264579	0.000080
C45	C	0.849841	-0.620151	0.000038
C46	C	0.848860	-0.679598	0.000044
C47	C	0.991779	-0.686653	0.000058
C48	C	0.992759	-0.627205	0.000059
C49	C	0.921788	-0.593955	0.000045
C50	C	1.000777	-0.139740	0.000097
C51	C	1.001749	-0.080289	0.000109
C52	C	0.858831	-0.073240	0.000090
C53	C	0.857858	-0.132685	0.000083
C54	C	0.928838	-0.165934	0.000084
O55	O	0.795583	-0.223734	0.000087
O56	O	1.060004	-0.236831	0.000076
C57	C	1.068641	0.122420	0.000091
C58	C	1.155645	0.127503	0.000094
C59	C	0.918773	0.223877	0.000058
C60	C	0.919827	0.287146	0.000046
N61	N	0.914933	0.127048	0.216412
N62	N	0.935683	0.113055	-0.216256
C63	C	0.966445	0.092202	0.260118
C64	C	0.962267	0.095032	0.347524
C65	C	0.906579	0.132711	0.391222
C66	C	0.855061	0.167558	0.347510
C67	C	0.859236	0.164725	0.260106
C68	C	0.888340	0.145069	0.652627
C69	C	0.884170	0.147901	0.740038
C70	C	0.991376	0.075374	0.740045
C71	C	0.995550	0.072546	0.652640
C72	C	0.944029	0.107392	0.608935
N73	N	0.902308	0.135606	0.480565
N74	N	0.948296	0.104494	0.519594
H75	H	0.669678	0.205481	0.000032
H76	H	0.521379	0.196809	0.000049
N77	N	0.710397	-0.309182	0.000025
N78	N	0.711274	-0.256104	0.000034
H79	H	0.660078	-0.232111	0.000035
N80	N	0.786334	-0.039279	0.000084
N81	N	0.735560	-0.041666	0.058601
H82	H	0.684358	-0.017681	0.058590
H83	H	0.838820	0.178586	0.775613
H84	H	0.723313	-0.423922	0.000008
H85	H	0.293858	0.229939	0.000044
H86	H	1.060343	-0.058966	0.000124
N87	N	0.784356	-0.159435	0.000093
N88	N	0.720998	-0.129736	0.000099
H89	H	0.669085	-0.148624	0.000104
N90	N	0.550290	-0.000983	0.000109
N91	N	0.477300	-0.005244	0.000114
H92	H	0.454838	-0.044074	0.000129
N93	N	1.014889	0.059431	0.392155
N94	N	1.064609	0.025794	0.353129
H95	H	1.101775	0.000648	0.384649
N96	N	0.775370	-0.706359	0.000046
N97	N	0.756069	-0.736859	0.058573
H98	H	0.704165	-0.755758	0.058572
H99	H	1.049564	-0.713737	0.000061
N100	N	0.835736	0.180669	0.607979
N101	N	0.839469	0.178141	0.529940
H102	H	0.802318	0.203287	0.498403
N103	N	0.777333	-0.586198	0.000027
N104	N	0.713105	-0.609601	0.000020
H105	H	0.661895	-0.585624	0.000010
H106	H	1.040895	0.041865	0.617062
N107	N	0.174482	0.023469	0.000133
N108	N	0.187335	-0.008542	0.058677
H109	H	0.164886	-0.047375	0.058697
H110	H	0.809714	0.198235	0.383094
H111	H	1.011796	0.061523	0.224545
H112	H	0.145546	0.221267	0.000067
H113	H	0.705059	0.018836	0.000085
H114	H	0.817288	0.193100	0.224521
N115	N	0.339711	0.033127	0.000112
N116	N	0.311907	-0.014928	0.000121
H117	H	0.348416	-0.050319	0.000128
N118	N	1.073287	-0.173688	0.000113
N119	N	1.118426	-0.167517	0.058657
H120	H	1.169637	-0.191492	0.058674
N121	N	1.142218	-0.330536	0.000099
N122	N	1.205570	-0.360241	0.000101
H123	H	1.257487	-0.341358	0.000107
N124	N	1.043994	0.039786	0.784702
N125	N	1.040262	0.042319	0.862740
H126	H	1.077424	0.017183	0.894280
H127	H	1.125529	-0.443790	0.000080
H128	H	1.051348	-0.605882	0.000071
