data_functionalizedCrystal
_audit_creation_method	'MofGen! by Chris Wilmer'
_symmetry_space_group_name_H-M	'P1'
_symmetry_Int_Tables_number	1
_symmetry_cell_setting	triclinic
loop_
_symmetry_equiv_pos_as_xyz
  x,y,z
_cell_length_a	19.188930
_cell_length_b	14.184957
_cell_length_c	15.538191
_cell_angle_alpha	82.120726
_cell_angle_beta	65.208439
_cell_angle_gamma	103.128415
loop_
_atom_site_label
_atom_site_type_symbol
_atom_site_fract_x
_atom_site_fract_y
_atom_site_fract_z
O1	O	0.917930	0.083736	0.096188
O2	O	0.710620	0.083665	0.112055
O3	O	0.854631	0.083719	-0.033179
O4	O	0.773919	0.083682	0.241422
O5	O	0.812068	-0.083148	0.009741
O6	O	0.668057	-0.083203	0.154975
O7	O	0.875367	-0.083131	0.139108
Cu8	Cu	0.767826	-0.098403	0.150960
Cu9	Cu	0.818162	0.098937	0.100203
O10	O	0.731356	-0.083186	0.284342
C11	C	0.663454	0.000222	0.133004
C12	C	0.586330	0.000196	0.131470
N13	N	0.732427	-0.237202	0.186660
C14	C	0.957531	-0.604676	-0.040293
C15	C	0.930726	-0.709719	-0.013279
C16	C	0.803184	-0.709779	0.115291
C17	C	0.829980	-0.604735	0.088291
C18	C	0.907153	-0.552191	0.010497
C19	C	0.779602	-0.552250	0.139081
C20	C	0.806394	-0.447215	0.112079
C21	C	0.883564	-0.394664	0.034287
C22	C	0.933945	-0.447156	-0.016505
C23	C	0.702427	-0.604795	0.216870
C24	C	0.652049	-0.552310	0.267660
C25	C	0.678843	-0.447273	0.240663
C26	C	0.756013	-0.394722	0.162871
C27	C	0.628462	-0.394781	0.291455
C28	C	0.655254	-0.289745	0.264453
C29	C	0.782805	-0.289687	0.135869
C30	C	0.520005	0.000200	0.216679
C31	C	0.447548	0.000212	0.215229
C32	C	0.441425	0.000239	0.128559
C33	C	0.507761	0.000229	0.043340
C34	C	0.580213	0.000208	0.044796
N35	N	0.364581	0.057081	0.047697
N36	N	0.295753	0.057103	0.046319
C37	C	0.223130	0.000301	0.124170
N38	N	0.221935	-0.056512	0.203461
N39	N	0.290770	-0.056530	0.204840
C40	C	0.362865	0.000261	0.126972
C41	C	0.078237	0.000316	0.207813
C42	C	0.005778	0.000321	0.206361
C43	C	0.065995	0.000348	0.034467
C44	C	0.138450	0.000333	0.035925
C45	C	0.144566	0.000322	0.122599
C46	C	0.922534	0.000314	0.118159
C47	C	0.999659	0.000346	0.119691
N48	N	0.853567	0.237736	0.064496
C49	C	0.841795	0.000292	-0.046851
C50	C	0.866950	0.000310	-0.151533
C51	C	0.617058	0.000203	-0.438266
C52	C	0.640710	0.000209	-0.536631
C53	C	0.773750	0.000255	-0.559634
C54	C	0.750110	0.000254	-0.461271
C55	C	0.671763	0.000227	-0.400594
C56	C	0.804815	0.000278	-0.423598
C57	C	0.781176	0.000272	-0.325242
C58	C	0.702832	0.000241	-0.264558
C59	C	0.648124	0.000220	-0.302237
C60	C	0.883161	0.000298	-0.484275
C61	C	0.937866	0.000322	-0.446602
C62	C	0.914229	0.000323	-0.348246
C63	C	0.835884	0.000293	-0.287562
C64	C	0.968937	0.000344	-0.310566
C65	C	0.945297	0.000338	-0.212210
C66	C	0.812245	0.000286	-0.189206
C67	C	0.744193	0.000244	0.298013
C68	C	0.719039	0.000232	0.402694
H69	H	0.845651	-0.246904	0.072528
H70	H	-0.048229	0.000318	0.275753
H71	H	0.740347	-0.752572	0.178629
F72	F	0.376948	0.000213	0.305924
F73	F	1.003517	0.000348	-0.172110
F74	F	0.673914	-0.716585	0.245600
F75	F	0.526509	0.000185	0.308927
F76	F	0.569916	-0.608239	0.350449
F77	F	0.912076	-0.282874	0.005546
H78	H	0.083213	0.000292	0.278392
F79	F	0.984353	-0.765570	-0.067348
H80	H	0.565623	-0.437575	0.354789
F81	F	1.016088	-0.391233	-0.099294
H82	H	0.502775	0.000265	-0.027230
F83	F	1.021244	0.000343	-0.511186
H84	H	0.192456	0.000335	-0.033464
F85	F	1.039673	-0.548753	-0.123083
F86	F	0.582477	0.000178	-0.576719
H87	H	0.584327	0.000206	-0.252832
H88	H	0.061027	0.000432	-0.036117
F89	F	0.601634	-0.233887	0.318509
H90	H	0.553262	0.000188	-0.388861
F91	F	0.650806	0.000203	-0.045900
F92	F	0.728861	0.000267	-0.124626
H93	H	0.683584	0.000231	-0.184469
F94	F	0.857128	0.000276	-0.624218
F95	F	0.908316	0.000298	-0.588954
F96	F	1.052312	0.000356	-0.375150
