data_functionalizedCrystal
_audit_creation_method	'MofGen! by Chris Wilmer'
_symmetry_space_group_name_H-M	'P1'
_symmetry_Int_Tables_number	1
_symmetry_cell_setting	triclinic
loop_
_symmetry_equiv_pos_as_xyz
  x,y,z
_cell_length_a	10.489741
_cell_length_b	10.723024
_cell_length_c	9.198806
_cell_angle_alpha	90.001420
_cell_angle_beta	89.998149
_cell_angle_gamma	95.496478
loop_
_atom_site_label
_atom_site_type_symbol
_atom_site_fract_x
_atom_site_fract_y
_atom_site_fract_z
O1	O	1.693942	-0.176059	-0.120798
O2	O	1.322735	-0.192586	-0.120821
O3	O	1.516901	-0.002751	-0.120804
O4	O	1.499776	-0.365893	-0.120816
O5	O	1.516883	-0.002753	0.120981
O6	O	1.322718	-0.192587	0.120964
O7	O	1.693924	-0.176061	0.120987
Cu8	Cu	1.508319	-0.184324	0.143052
Cu9	Cu	1.508340	-0.184322	-0.142887
O10	O	1.499758	-0.365895	0.120970
C11	C	1.275196	-0.191338	0.000069
C12	C	1.133569	-0.187604	0.000060
C13	C	1.515646	0.043748	0.000087
C14	C	1.511917	0.182305	0.000082
N15	N	1.508313	-0.184325	0.344166
C16	C	1.065506	-0.066818	0.000078
C17	C	0.973351	-0.123875	-0.119133
C18	C	0.973367	-0.123906	0.119248
C19	C	1.043279	-0.244711	-0.119250
C20	C	1.043305	-0.244725	0.119239
C21	C	0.951178	-0.301869	-0.000002
C22	C	1.741464	-0.177308	0.000094
C23	C	1.883091	-0.181043	0.000093
C24	C	1.501013	-0.412395	0.000076
C25	C	1.504742	-0.550951	0.000071
C26	C	1.620562	0.257221	0.000086
C27	C	1.616711	0.400426	0.000081
C28	C	1.589837	-0.104268	0.416370
C29	C	1.589855	-0.104266	0.583783
N30	N	1.508346	-0.184321	0.656000
H31	H	0.942377	-0.072767	-0.219917
C32	C	1.684151	-0.011667	0.667654
C33	C	1.684076	-0.011836	0.835059
C34	C	1.778375	0.080767	0.918934
C35	C	1.872750	0.173538	0.835403
C36	C	1.872829	0.173711	0.667988
C37	C	1.778529	0.081108	0.584114
H38	H	1.614211	-0.080514	0.896903
H39	H	1.778316	0.080638	1.042866
H40	H	1.942556	0.242088	0.897492
H41	H	1.942694	0.242389	0.606145
H42	H	1.778588	0.081237	0.460182
C43	C	1.414046	-0.276924	0.572138
C44	C	1.316662	-0.227445	0.466604
C45	C	1.222362	-0.320047	0.382729
C46	C	1.225448	-0.462129	0.404389
C47	C	1.322836	-0.511615	0.509927
C48	C	1.417136	-0.419013	0.593802
H49	H	1.314374	-0.122261	0.450566
H50	H	1.150269	-0.283414	0.304602
H51	H	1.155642	-0.530679	0.342300
H52	H	1.325124	-0.616799	0.525965
H53	H	1.489229	-0.455646	0.671929
C54	C	1.379079	0.362099	0.000066
C55	C	1.349689	0.268765	-0.125485
C56	C	1.224027	0.181805	-0.125490
C57	C	1.127754	0.188180	0.000056
C58	C	1.157142	0.281518	0.125616
C59	C	1.282804	0.368478	0.125621
H60	H	1.420958	0.264043	-0.218429
H61	H	1.202273	0.112710	-0.218438
H62	H	1.034731	0.123807	0.000052
H63	H	1.085873	0.286240	0.218561
H64	H	1.304558	0.437573	0.218570
H65	H	0.901691	-0.401268	-0.000070
H66	H	1.416051	0.224185	0.000066
H67	H	1.115259	0.032476	-0.000068
H68	H	1.074082	-0.295777	-0.220147
H69	H	1.438526	-0.252859	0.406288
H70	H	0.942415	-0.072777	0.220032
H71	H	1.074311	-0.295791	0.220027
H72	H	1.716428	0.215340	0.000101
H73	H	1.709719	0.464802	0.000091
H74	H	1.659616	-0.035725	0.354250
