data_functionalizedCrystal
_audit_creation_method	'MofGen! by Chris Wilmer'
_symmetry_space_group_name_H-M	'P1'
_symmetry_Int_Tables_number	1
_symmetry_cell_setting	triclinic
loop_
_symmetry_equiv_pos_as_xyz
  x,y,z
_cell_length_a	19.288864
_cell_length_b	8.559649
_cell_length_c	18.366186
_cell_angle_alpha	89.994914
_cell_angle_beta	89.977106
_cell_angle_gamma	76.457456
loop_
_atom_site_label
_atom_site_type_symbol
_atom_site_fract_x
_atom_site_fract_y
_atom_site_fract_z
O1	O	0.910987	0.199404	-0.060777
O2	O	0.707328	0.226304	-0.060726
O3	O	0.827100	-0.019877	-0.060756
O4	O	0.791215	0.445585	-0.060748
O5	O	0.827083	-0.019889	0.060344
O6	O	0.707311	0.226292	0.060373
O7	O	0.910970	0.199392	0.060322
Zn8	Zn	0.809137	0.212840	0.079575
Zn9	Zn	0.809160	0.212856	-0.079979
O10	O	0.791198	0.445573	0.060351
C11	C	0.681488	0.225432	-0.000170
C12	C	0.604519	0.222834	-0.000151
C13	C	0.829811	-0.079432	-0.000208
C14	C	0.837906	-0.256871	-0.000214
C15	C	0.552314	0.367282	-0.000161
C16	C	0.479994	0.364841	-0.000169
C17	C	0.459883	0.217944	-0.000182
C18	C	0.512099	0.073477	-0.000169
C19	C	0.584417	0.075922	-0.000154
C20	C	0.357630	0.102471	-0.042635
C21	C	0.285312	0.100032	-0.042655
C22	C	0.236829	0.210396	-0.000226
C23	C	0.260670	0.323227	0.042213
C24	C	0.332989	0.325672	0.042228
C25	C	0.381467	0.215276	-0.000198
C26	C	0.106205	0.352207	-0.000243
C27	C	0.033884	0.349760	-0.000247
C28	C	0.065991	0.058393	-0.000254
C29	C	0.138310	0.060844	-0.000244
C30	C	0.158412	0.207756	-0.000241
C31	C	0.936810	0.200264	-0.000235
C32	C	1.013778	0.202862	-0.000259
C33	C	0.788487	0.505129	-0.000198
C34	C	0.780392	0.682567	-0.000197
N35	N	0.809127	0.212828	0.188466
N36	N	0.809177	0.212855	-0.188870
C37	C	0.862174	0.103873	0.226553
C38	C	0.862179	0.103866	0.302781
C39	C	0.809141	0.212842	0.340919
C40	C	0.756084	0.321805	0.302822
C41	C	0.756077	0.321799	0.226596
C42	C	0.792272	0.358486	0.461683
C43	C	0.792284	0.358494	0.537908
C44	C	0.809160	0.212862	0.576026
C45	C	0.826039	0.067214	0.537910
C46	C	0.826032	0.067207	0.461684
C47	C	0.809143	0.212860	0.423573
C48	C	0.862216	0.103889	0.696769
C49	C	0.862216	0.103880	0.772998
C50	C	0.756124	0.321833	0.773037
C51	C	0.756121	0.321829	0.696809
C52	C	0.809171	0.212858	0.658680
H53	H	0.437481	0.482471	-0.000174
H54	H	0.626924	-0.041708	-0.000147
H55	H	0.397100	0.012595	-0.077190
O56	O	0.698937	0.439420	0.814164
H57	H	0.662053	0.515201	0.774869
H58	H	0.905369	0.015139	0.195510
H59	H	0.905378	0.015138	0.333798
H60	H	0.712878	0.410525	0.195584
H61	H	0.724959	-0.233537	-0.000181
O62	O	0.919441	-0.013647	0.814074
H63	H	0.894352	-0.091191	0.848814
H64	H	0.893342	-0.340776	-0.000222
H65	H	0.839773	-0.051384	0.430653
O66	O	0.844237	-0.089882	0.579010
H67	H	0.841397	-0.065417	0.638418
O68	O	0.127890	0.510658	-0.000231
H69	H	0.186949	0.488093	-0.000229
H70	H	0.495719	-0.046127	-0.000190
O71	O	0.919422	-0.013654	0.655634
H72	H	0.956304	-0.089442	0.694929
O73	O	0.698912	0.439364	0.655721
H74	H	0.662035	0.515153	0.695044
O75	O	0.774094	0.515576	0.579017
H76	H	0.762349	0.616842	0.539707
H77	H	0.265906	0.008165	-0.077214
O78	O	0.774074	0.515570	0.420570
H79	H	0.762352	0.616845	0.459878
O80	O	0.698880	0.439356	0.343949
H81	H	0.707802	0.421071	0.403353
H82	H	0.352397	0.417538	0.076786
H83	H	0.049617	-0.061214	-0.000311
O84	O	0.573991	0.525737	-0.000138
H85	H	0.552436	0.595144	-0.049492
O86	O	0.208389	0.442264	0.087985
H87	H	0.167150	0.516497	0.052204
O88	O	-0.022429	0.505564	-0.000254
H89	H	0.003703	0.608124	-0.000256
H90	H	0.180818	-0.056781	-0.000240
