data_functionalizedCrystal
_audit_creation_method	'MofGen! by Chris Wilmer'
_symmetry_space_group_name_H-M	'P1'
_symmetry_Int_Tables_number	1
_symmetry_cell_setting	triclinic
loop_
_symmetry_equiv_pos_as_xyz
  x,y,z
_cell_length_a	21.295411
_cell_length_b	10.686220
_cell_length_c	10.686285
_cell_angle_alpha	89.654569
_cell_angle_beta	85.619252
_cell_angle_gamma	85.654531
loop_
_atom_site_label
_atom_site_type_symbol
_atom_site_fract_x
_atom_site_fract_y
_atom_site_fract_z
Zn1	Zn	-0.267715	-1.956210	-0.352189
Zn2	Zn	-0.153833	-1.972189	-0.561935
Zn3	Zn	-0.169864	-1.746425	-0.368307
Zn4	Zn	-0.266465	-1.762535	-0.578009
O5	O	-0.214469	-1.859340	-0.465110
O6	O	-0.246422	-2.133867	-0.366539
O7	O	-0.067871	-1.942186	-0.536268
O8	O	-0.190076	-1.760823	-0.190628
O9	O	-0.162754	-2.145607	-0.520639
O10	O	-0.261967	-1.914952	-0.178786
O11	O	-0.079649	-1.776318	-0.394011
O12	O	-0.188864	-1.573025	-0.409597
O13	O	-0.354719	-1.788281	-0.548035
O14	O	-0.259837	-1.584861	-0.563665
O15	O	-0.355637	-1.930573	-0.382126
O16	O	-0.161542	-1.957808	-0.739608
O17	O	-0.244292	-1.803776	-0.751418
C18	C	-0.225955	-1.533428	-0.490125
C19	C	-0.230882	-1.394004	-0.500857
C20	C	-0.378657	-1.859442	-0.465076
C21	C	-0.448624	-1.859485	-0.465061
C22	C	-0.201054	-1.884308	-0.791026
C23	C	-0.195332	-1.895105	-0.930446
C24	C	-0.481970	-1.933573	-0.378668
C25	C	-0.547715	-1.933567	-0.378614
C26	C	-0.580110	-1.859488	-0.464974
C27	C	-0.546756	-1.785385	-0.551373
C28	C	-0.481013	-1.785384	-0.551417
N29	N	-0.679160	-1.858273	-0.575449
N30	N	-0.741613	-1.858281	-0.575403
C31	C	-0.778189	-1.859486	-0.464846
N32	N	-0.749953	-1.860707	-0.354331
N33	N	-0.687495	-1.860705	-0.354378
C34	C	-0.651397	-1.859481	-0.464936
C35	C	-0.882824	-1.933572	-0.378388
C36	C	-0.948570	-1.933557	-0.378332
C37	C	-0.947609	-1.785382	-0.551102
C38	C	-0.881865	-1.785390	-0.551147
C39	C	-0.849476	-1.859491	-0.464791
C40	C	-0.050921	-1.859303	-0.465048
C41	C	0.019039	-1.859476	-0.464691
C42	C	-0.202939	-2.186524	-0.439998
C43	C	-0.198026	-2.325950	-0.429297
C44	C	-0.227949	-1.834308	-0.137919
C45	C	-0.233693	-1.823641	0.001511
H46	H	-0.574871	-1.993895	-0.308256
O47	O	-0.155765	-1.390058	-0.337274
H48	H	-0.132467	-1.318282	-0.286556
H49	H	-0.270914	-1.754199	-0.950085
O50	O	-0.273132	-1.329962	-0.592947
H51	H	-0.309616	-1.265997	-0.541495
H52	H	-0.158105	-1.964542	-0.978858
H53	H	-0.455603	-1.993911	-0.308349
O54	O	-0.445046	-1.705471	-0.644607
H55	H	-0.393889	-1.717912	-0.630124
O56	O	-0.581690	-1.705480	-0.644519
H57	H	-0.633008	-1.717935	-0.629982
H58	H	-0.856452	-1.993902	-0.308065
H59	H	-0.975720	-1.993885	-0.307974
H60	H	-0.973986	-1.725052	-0.621406
H61	H	-0.854714	-1.725068	-0.621504
