data_functionalizedCrystal
_audit_creation_method	'MofGen! by Chris Wilmer'
_symmetry_space_group_name_H-M	'P1'
_symmetry_Int_Tables_number	1
_symmetry_cell_setting	triclinic
loop_
_symmetry_equiv_pos_as_xyz
  x,y,z
_cell_length_a	25.639242
_cell_length_b	25.639240
_cell_length_c	16.625539
_cell_angle_alpha	90.038438
_cell_angle_beta	90.028772
_cell_angle_gamma	90.027658
loop_
_atom_site_label
_atom_site_type_symbol
_atom_site_fract_x
_atom_site_fract_y
_atom_site_fract_z
Zn1	Zn	0.799284	-0.208221	0.456029
Zn2	Zn	1.299284	0.291779	0.956029
Zn3	Zn	0.799205	-0.295659	0.321172
Zn4	Zn	1.299205	0.204341	0.821172
Zn5	Zn	0.711849	-0.208231	0.321190
Zn6	Zn	1.211849	0.291769	0.821190
Zn7	Zn	0.711814	-0.295619	0.455943
Zn8	Zn	1.211814	0.204381	0.955943
O9	O	0.755538	-0.251933	0.388584
O10	O	1.255538	0.248067	0.888584
O11	O	0.872439	-0.219832	0.438168
O12	O	1.372439	0.280168	0.938168
O13	O	0.787599	-0.284082	0.208342
O14	O	1.287599	0.215918	0.708342
O15	O	0.723495	-0.135065	0.339120
O16	O	1.223495	0.364935	0.839120
O17	O	0.872381	-0.284072	0.339090
O18	O	1.372381	0.215928	0.839090
O19	O	0.787733	-0.135057	0.438186
O20	O	1.287733	0.364943	0.938186
O21	O	0.723419	-0.219850	0.208355
O22	O	1.223419	0.280150	0.708355
O23	O	0.638679	-0.219812	0.339037
O24	O	1.138679	0.280188	0.839037
O25	O	0.723435	-0.284005	0.568787
O26	O	1.223435	0.215995	1.068787
O27	O	0.638654	-0.284015	0.438039
O28	O	1.138654	0.215985	0.938039
O29	O	0.787699	-0.219794	0.568850
O30	O	1.287699	0.280206	1.068850
O31	O	0.787565	-0.368819	0.339006
O32	O	1.287565	0.131181	0.839006
O33	O	0.723359	-0.368790	0.438022
O34	O	1.223359	0.131210	0.938022
C35	C	0.619696	-0.251911	0.388531
C36	C	1.119696	0.248089	0.888531
C37	C	0.561581	-0.251914	0.388528
C38	C	1.061581	0.248086	0.888528
C39	C	0.755464	-0.387775	0.388520
C40	C	1.255464	0.112225	0.888520
C41	C	0.755480	-0.445889	0.388520
C42	C	1.255480	0.054111	0.888520
C43	C	0.310393	-0.218446	0.337122
C44	C	0.810393	0.281554	0.837122
C45	C	0.364997	-0.218441	0.337112
C46	C	0.864997	0.281559	0.837112
O47	O	0.393237	-0.189955	0.293360
O48	O	0.893237	0.310045	0.793360
N49	N	0.392308	-0.251920	0.388568
N50	N	0.892308	0.248080	0.888568
C51	C	0.365011	-0.285402	0.440044
C52	C	0.865011	0.214598	0.940044
O53	O	0.393255	-0.313878	0.483811
O54	O	0.893255	0.186122	0.983811
C55	C	0.310408	-0.285404	0.440058
C56	C	0.810408	0.214596	0.940058
C57	C	0.283100	-0.251927	0.388592
C58	C	0.783100	0.248073	0.888592
C59	C	0.283085	-0.184971	0.285662
C60	C	0.783085	0.315029	0.785662
C61	C	0.228484	-0.184977	0.285671
C62	C	0.728484	0.315023	0.785671
C63	C	0.201191	-0.218457	0.337141
C64	C	0.701191	0.281543	0.837141
C65	C	0.228499	-0.251932	0.388602
C66	C	0.728499	0.248068	0.888602
C67	C	0.283112	-0.318883	0.491537
C68	C	0.783112	0.181117	0.991537
C69	C	0.228505	-0.318882	0.491547
C70	C	0.728505	0.181118	0.991547
C71	C	0.201197	-0.285405	0.440081
C72	C	0.701197	0.214595	0.940081
C73	C	0.146606	-0.285419	0.440081
C74	C	0.646606	0.214581	0.940081
N75	N	0.119296	-0.251940	0.388625
N76	N	0.619296	0.248060	0.888625
C77	C	0.146588	-0.218459	0.337155
C78	C	0.646588	0.281541	0.837155
C79	C	0.479682	-0.285395	0.440012
C80	C	0.979682	0.214605	0.940012
C81	C	0.534284	-0.285397	0.439995
C82	C	1.034284	0.214603	0.939995
C83	C	0.534266	-0.218435	0.337064
C84	C	1.034266	0.281565	0.837064
C85	C	0.479663	-0.218436	0.337078
C86	C	0.979663	0.281564	0.837078
C87	C	0.452371	-0.251916	0.388556
C88	C	0.952371	0.248084	0.888556
C89	C	0.031923	-0.218474	0.337178
C90	C	0.531923	0.281526	0.837178
C91	C	-0.022682	-0.218484	0.337189
C92	C	0.477318	0.281516	0.837189
C93	C	-0.022660	-0.285444	0.440123
C94	C	0.477340	0.214556	0.940123
C95	C	0.031941	-0.285436	0.440109
C96	C	0.531941	0.214564	0.940109
C97	C	0.059231	-0.251947	0.388634
C98	C	0.559231	0.248053	0.888634
O99	O	0.118331	-0.313889	0.483813
O100	O	0.618331	0.186111	0.983813
O101	O	0.118338	-0.189983	0.293402
O102	O	0.618338	0.310017	0.793402
C103	C	0.789003	-0.806210	0.440260
C104	C	1.289003	-0.306210	0.940260
C105	C	0.789019	-0.860814	0.440276
C106	C	1.289019	-0.360814	0.940276
O107	O	0.817433	-0.889015	0.484202
O108	O	1.317433	-0.389015	0.984202
N109	N	0.755611	-0.888172	0.388662
N110	N	1.255611	-0.388172	0.888662
C111	C	0.722181	-0.860922	0.337033
C112	C	1.222181	-0.360922	0.837033
O113	O	0.693766	-0.889206	0.293132
O114	O	1.193766	-0.389206	0.793132
C115	C	0.722163	-0.806319	0.337021
C116	C	1.222163	-0.306319	0.837021
C117	C	0.755578	-0.778964	0.388633
C118	C	1.255578	-0.278964	0.888633
C119	C	0.822414	-0.778855	0.491869
C120	C	1.322414	-0.278855	0.991869
C121	C	0.822399	-0.724254	0.491851
C122	C	1.322399	-0.224254	0.991851
C123	C	0.788974	-0.697009	0.440225
C124	C	1.288974	-0.197009	0.940225
C125	C	0.755563	-0.724364	0.388616
C126	C	1.255563	-0.224364	0.888616
C127	C	0.688732	-0.779070	0.285397
C128	C	1.188732	-0.279070	0.785397
C129	C	0.688717	-0.724463	0.285390
C130	C	1.188717	-0.224463	0.785390
C131	C	0.722131	-0.697108	0.337002
C132	C	1.222131	-0.197108	0.837002
C133	C	0.722122	-0.642517	0.336972
C134	C	1.222122	-0.142517	0.836972
N135	N	0.755530	-0.615160	0.388586
N136	N	1.255530	-0.115160	0.888586
C137	C	0.788956	-0.642405	0.440213
C138	C	1.288956	-0.142405	0.940213
C139	C	0.722220	-0.975593	0.337062
C140	C	1.222220	-0.475593	0.837062
C141	C	0.722240	-1.030195	0.337069
C142	C	1.222240	-0.530195	0.837069
C143	C	0.789077	-1.030083	0.440314
C144	C	1.289077	-0.530083	0.940314
C145	C	0.789059	-0.975480	0.440303
C146	C	1.289059	-0.475480	0.940303
C147	C	0.755628	-0.948235	0.388677
C148	C	1.255628	-0.448235	0.888677
C149	C	0.788923	-0.527740	0.440172
C150	C	1.288923	-0.027740	0.940172
C151	C	0.788906	-0.473135	0.440147
C152	C	1.288906	0.026865	0.940147
C153	C	0.722067	-0.473252	0.336905
C154	C	1.222067	0.026748	0.836905
C155	C	0.722085	-0.527852	0.336927
C156	C	1.222085	-0.027852	0.836927
C157	C	0.755515	-0.555095	0.388566
C158	C	1.255515	-0.055095	0.888566
O159	O	0.693720	-0.614282	0.293070
O160	O	1.193720	-0.114282	0.793070
O161	O	0.817361	-0.614115	0.484114
O162	O	1.317361	-0.114115	0.984114
C163	C	0.891911	-0.251955	0.388637
C164	C	1.391911	0.248045	0.888637
C165	C	0.950025	-0.251965	0.388659
C166	C	1.450025	0.248035	0.888659
C167	C	0.755572	-0.251894	0.598893
C168	C	1.255572	0.248106	1.098893
C169	C	0.755587	-0.251877	0.688514
C170	C	1.255587	0.248123	1.188514
C171	C	0.755626	-0.115560	0.388665
C172	C	1.255626	0.384440	0.888665
C173	C	0.755664	-0.057446	0.388699
C174	C	1.255664	0.442554	0.888699
C175	C	0.755534	-0.251934	0.179093
C176	C	1.255534	0.248066	0.679093
C177	C	0.755621	-0.251803	0.089472
C178	C	1.255621	0.248197	0.589472
C179	C	0.755611	-0.251819	1.016690
C180	C	1.255611	0.248181	1.516690
C181	C	0.755603	-0.251837	0.925381
C182	C	1.255603	0.248163	1.425381
C183	C	0.755599	-0.251848	0.852605
C184	C	1.255599	0.248152	1.352605
C185	C	0.755590	-0.251865	0.761290
C186	C	1.255590	0.248135	1.261290
H187	H	-0.044914	-0.191222	0.295278
H188	H	0.455086	0.308778	0.795278
H189	H	0.206287	-0.346144	0.533470
H190	H	0.706287	0.153856	1.033470
C191	C	0.061934	-0.181637	0.280548
C192	C	0.561934	0.318363	0.780548
N193	N	0.084538	-0.153894	0.237890
N194	N	0.584538	0.346106	0.737890
C195	C	0.313098	-0.148138	0.229033
C196	C	0.813098	0.351862	0.729033
N197	N	0.335700	-0.120396	0.186371
N198	N	0.835700	0.379604	0.686371
C199	C	0.685299	-0.443271	0.280122
C200	C	1.185299	0.056729	0.780122
N201	N	0.657601	-0.420688	0.237358
N202	N	1.157601	0.079312	0.737358
H203	H	0.816293	-1.052277	0.482353
H204	H	1.316293	-0.552277	0.982353
C205	C	0.825815	-0.945395	0.497083
C206	C	1.325815	-0.445395	0.997083
N207	N	0.853500	-0.922737	0.539854
N208	N	1.353500	-0.422737	1.039854
H209	H	0.695037	-1.052463	0.295033
H210	H	1.195037	-0.552463	0.795033
H211	H	0.556498	-0.191172	0.295156
H212	H	1.056498	0.308828	0.795156
C213	C	0.825667	-0.443048	0.496925
C214	C	1.325667	0.056952	0.996925
N215	N	0.853355	-0.420388	0.539689
N216	N	1.353355	0.079612	1.039689
C217	C	0.685443	-0.945628	0.280263
C218	C	1.185443	-0.445628	0.780263
N219	N	0.657741	-0.923062	0.237484
N220	N	1.157741	-0.423062	0.737484
C221	C	0.685331	-0.557943	0.280146
C222	C	1.185331	-0.057943	0.780146
N223	N	0.657644	-0.580604	0.237384
N224	N	1.157644	-0.080604	0.737384
H225	H	0.661523	-0.801333	0.243368
H226	H	1.161523	-0.301333	0.743368
H227	H	0.816140	-0.549915	0.482227
H228	H	1.316140	-0.049915	0.982227
H229	H	0.661491	-0.702283	0.243351
H230	H	1.161491	-0.202283	0.743351
H231	H	0.206255	-0.157716	0.243763
H232	H	0.706255	0.342284	0.743763
H233	H	0.457432	-0.191174	0.295173
H234	H	0.957432	0.308826	0.795173
C235	C	0.061981	-0.322264	0.496721
C236	C	0.561981	0.177736	0.996721
N237	N	0.084603	-0.349999	0.539369
N238	N	0.584603	0.150001	1.039369
C239	C	0.564317	-0.322230	0.496603
C240	C	1.064317	0.177770	0.996603
N241	N	0.586935	-0.349972	0.539245
N242	N	1.086935	0.150028	1.039245
C243	C	0.449666	-0.322238	0.496632
C244	C	0.949666	0.177762	0.996632
N245	N	0.427060	-0.349988	0.539277
N246	N	0.927060	0.150012	1.039277
H247	H	0.305337	-0.346145	0.533445
H248	H	0.805337	0.153855	1.033445
C249	C	-0.052692	-0.322270	0.496739
C250	C	0.447308	0.177730	0.996739
N251	N	-0.075314	-0.350004	0.539388
N252	N	0.424686	0.149996	1.039388
C253	C	0.859160	-0.694171	0.548627
C254	C	1.359160	-0.194171	1.048627
N255	N	0.886850	-0.671516	0.591393
N256	N	1.386850	-0.171516	1.091393
H257	H	0.849633	-0.801033	0.533914
H258	H	1.349633	-0.301033	1.033914
