data_functionalizedCrystal
_audit_creation_method	'MofGen! by Chris Wilmer'
_symmetry_space_group_name_H-M	'P1'
_symmetry_Int_Tables_number	1
_symmetry_cell_setting	triclinic
loop_
_symmetry_equiv_pos_as_xyz
  x,y,z
_cell_length_a	13.897449
_cell_length_b	14.908968
_cell_length_c	14.908308
_cell_angle_alpha	89.835775
_cell_angle_beta	93.276458
_cell_angle_gamma	93.278502
loop_
_atom_site_label
_atom_site_type_symbol
_atom_site_fract_x
_atom_site_fract_y
_atom_site_fract_z
Zn1	Zn	1.468455	0.387267	-0.487822
Zn2	Zn	1.801788	0.720601	-0.154489
Zn3	Zn	2.135121	1.053934	0.178845
Zn4	Zn	1.486910	0.528964	-0.328806
Zn5	Zn	1.820243	0.862298	0.004528
Zn6	Zn	2.153576	1.195631	0.337861
Zn7	Zn	1.315898	0.378629	-0.337474
Zn8	Zn	1.649231	0.711963	-0.004141
Zn9	Zn	1.982564	1.045296	0.329192
Zn10	Zn	1.316934	0.537582	-0.479113
Zn11	Zn	1.650267	0.870915	-0.145780
Zn12	Zn	1.983600	1.204248	0.187553
O13	O	1.397049	0.458111	-0.408304
O14	O	1.730382	0.791444	-0.074971
O15	O	2.063716	1.124777	0.258363
O16	O	1.605884	0.406073	-0.466745
O17	O	1.939217	0.739406	-0.133412
O18	O	2.272551	1.072739	0.199922
O19	O	1.471514	0.501801	-0.204130
O20	O	1.804848	0.835134	0.129203
O21	O	2.138181	1.168467	0.462536
O22	O	1.327978	0.253952	-0.364691
O23	O	1.661311	0.587286	-0.031358
O24	O	1.994644	0.920619	0.301976
O25	O	1.619443	0.510177	-0.349916
O26	O	1.952776	0.843510	-0.016583
O27	O	2.286109	1.176844	0.316750
O28	O	1.440061	0.260299	-0.475151
O29	O	1.773394	0.593632	-0.141817
O30	O	2.106727	0.926965	0.191516
O31	O	1.345873	0.391350	-0.210499
O32	O	1.679206	0.724684	0.122834
O33	O	2.012539	1.058017	0.456167
O34	O	1.181054	0.399706	-0.356246
O35	O	1.514387	0.733039	-0.022913
O36	O	1.847721	1.066373	0.310420
O37	O	1.329744	0.524864	-0.606094
O38	O	1.663077	0.858197	-0.272760
O39	O	1.996410	1.191530	0.060573
O40	O	1.181815	0.516487	-0.460308
O41	O	1.515149	0.849821	-0.126975
O42	O	1.848482	1.183154	0.206359
O43	O	1.441065	0.414428	-0.612492
O44	O	1.774399	0.747762	-0.279159
O45	O	2.107732	1.081095	0.054175
O46	O	1.472519	0.655930	-0.341472
O47	O	1.805852	0.989264	-0.008139
O48	O	2.139186	1.322597	0.325195
O49	O	1.347638	0.662261	-0.451902
O50	O	1.680972	0.995595	-0.118569
O51	O	2.014305	1.328928	0.214764
C52	C	1.146436	0.458095	-0.408273
C53	C	1.479769	0.791428	-0.074940
C54	C	1.813102	1.124762	0.258393
C55	C	1.039222	0.458111	-0.408280
C56	C	1.372556	0.791445	-0.074947
C57	C	1.705889	1.124778	0.258386
C58	C	1.412219	0.691721	-0.394821
C59	C	1.745552	1.025055	-0.061488
C60	C	2.078885	1.358388	0.271846
C61	C	1.418795	0.791663	-0.389083
C62	C	1.752128	1.124996	-0.055750
C63	C	2.085462	1.458329	0.277584
C64	C	0.952152	0.458115	-0.408295
C65	C	1.285485	0.791448	-0.074962
C66	C	1.618818	1.124782	0.258372
C67	C	0.842918	0.458123	-0.408322
C68	C	1.176251	0.791456	-0.074989
C69	C	1.509585	1.124790	0.258345
C70	C	1.493119	0.929202	-0.323554
C71	C	1.826452	1.262536	0.009779
C72	C	2.159785	1.595869	0.343113
C73	C	1.486945	0.835298	-0.328942
C74	C	1.820278	1.168632	0.004391
C75	C	2.153612	1.501965	0.337725
C76	C	1.356812	0.841938	-0.443838
C77	C	1.690145	1.175271	-0.110505
C78	C	2.023479	1.508605	0.222828
C79	C	1.362985	0.935842	-0.438450
C80	C	1.696319	1.269175	-0.105117
C81	C	2.029652	1.602509	0.228216
C82	C	1.431142	0.979471	-0.378307
C83	C	1.764475	1.312804	-0.044974
C84	C	2.097809	1.646138	0.288359
C85	C	1.437320	1.073377	-0.372924
C86	C	1.770653	1.406710	-0.039591
C87	C	2.103986	1.740044	0.293742
C88	C	1.307183	1.080015	-0.487816
C89	C	1.640516	1.413348	-0.154482
C90	C	1.973849	1.746681	0.178851
C91	C	1.301009	0.986111	-0.493204
C92	C	1.634342	1.319444	-0.159870
C93	C	1.967676	1.652777	0.173463
C94	C	1.648641	0.458127	-0.408335
C95	C	1.981974	0.791460	-0.075002
C96	C	2.315308	1.124794	0.258332
C97	C	1.755855	0.458134	-0.408348
C98	C	2.089188	0.791467	-0.075015
C99	C	2.422521	1.124801	0.258318
C100	C	1.383461	0.471571	-0.642830
C101	C	1.716795	0.804904	-0.309497
C102	C	2.050128	1.138237	0.023837
C103	C	1.377671	0.477307	-0.742771
C104	C	1.711005	0.810640	-0.409438
C105	C	2.044338	1.143973	-0.076105
C106	C	1.381838	1.223590	-0.421870
C107	C	1.715171	1.556923	-0.088537
C108	C	2.048504	1.890256	0.244796
C109	C	1.375337	1.123652	-0.427680
C110	C	1.708670	1.456986	-0.094346
C111	C	2.042003	1.790319	0.238987
C112	C	1.482706	0.373068	-0.937237
C113	C	1.816039	0.706401	-0.603903
C114	C	2.149373	1.039734	-0.270570
C115	C	1.477268	0.378454	-1.031140
C116	C	1.810602	0.711787	-0.697807
C117	C	2.143935	1.045121	-0.364474
C118	C	1.361354	0.493460	-1.024485
C119	C	1.694687	0.826793	-0.691151
C120	C	2.028021	1.160127	-0.357818
C121	C	1.366791	0.488074	-0.930581
C122	C	1.700125	0.821407	-0.597247
C123	C	2.033458	1.154741	-0.263914
C124	C	1.427471	0.427877	-0.886960
C125	C	1.760804	0.761210	-0.553627
C126	C	2.094137	1.094543	-0.220294
C127	C	1.432913	0.422496	-0.793054
C128	C	1.766246	0.755829	-0.459721
C129	C	2.099580	1.089162	-0.126388
C130	C	1.316994	0.537497	-0.786401
C131	C	1.650327	0.870830	-0.453067
C132	C	1.983660	1.204163	-0.119734
C133	C	1.311556	0.542883	-0.880304
C134	C	1.644889	0.876216	-0.546971
C135	C	1.978223	1.209549	-0.213638
C136	C	1.410635	0.444638	-0.174694
C137	C	1.743968	0.777972	0.158640
C138	C	2.077302	1.111305	0.491973
C139	C	1.416596	0.438649	-0.074768
C140	C	1.749929	0.771982	0.258566
C141	C	2.083262	1.105316	0.591899
H142	H	1.492820	1.108898	-0.323956
H143	H	1.826153	1.442231	0.009377
H144	H	2.159486	1.775565	0.342711
F145	F	1.547294	0.309011	-0.890810
F146	F	1.880627	0.642344	-0.557476
F147	F	2.213961	0.975678	-0.224143
F148	F	1.296774	0.557515	-1.070924
F149	F	1.630107	0.890848	-0.737591
F150	F	1.963440	1.224182	-0.404258
F151	F	1.497495	0.358432	-0.746631
F152	F	1.830828	0.691765	-0.413298
F153	F	2.164162	1.025098	-0.079965
H154	H	1.301314	0.806403	-0.492799
H155	H	1.634648	1.139736	-0.159466
H156	H	1.967981	1.473070	0.173868
F157	F	1.228477	0.939668	-0.557210
F158	F	1.561810	1.273001	-0.223876
F159	F	1.895144	1.606335	0.109457
H160	H	1.272019	0.582128	-0.745455
H161	H	1.605353	0.915462	-0.412122
H162	H	1.938686	1.248795	-0.078789
H163	H	1.256720	1.120954	-0.532403
H164	H	1.590053	1.454287	-0.199070
H165	H	1.923386	1.787620	0.134264
H166	H	1.548622	0.964726	-0.274591
H167	H	1.881955	1.298059	0.058743
H168	H	2.215289	1.631393	0.392076
H169	H	1.522244	0.333820	-1.072072
H170	H	1.855578	0.667154	-0.738739
H171	H	2.188911	1.000487	-0.405406
H172	H	1.262151	0.591892	-0.915833
H173	H	1.595484	0.925225	-0.582500
H174	H	1.928818	1.258558	-0.249167
H175	H	1.537411	0.794372	-0.284355
H176	H	1.870745	1.127705	0.048978
H177	H	2.204078	1.461039	0.382311
