data_functionalizedCrystal
_audit_creation_method	'MofGen! by Chris Wilmer'
_symmetry_space_group_name_H-M	'P1'
_symmetry_Int_Tables_number	1
_symmetry_cell_setting	triclinic
loop_
_symmetry_equiv_pos_as_xyz
  x,y,z
_cell_length_a	12.759401
_cell_length_b	16.959454
_cell_length_c	16.959447
_cell_angle_alpha	89.973264
_cell_angle_beta	89.987743
_cell_angle_gamma	90.020236
loop_
_atom_site_label
_atom_site_type_symbol
_atom_site_fract_x
_atom_site_fract_y
_atom_site_fract_z
Zn1	Zn	1.606151	-0.314663	-0.446885
Zn2	Zn	2.106151	0.185337	0.053115
Zn3	Zn	1.606048	-0.446855	-0.314715
Zn4	Zn	2.106048	0.053145	0.185285
Zn5	Zn	1.430473	-0.314695	-0.314727
Zn6	Zn	1.930473	0.185305	0.185273
Zn7	Zn	1.430426	-0.446803	-0.446858
Zn8	Zn	1.930426	0.053197	0.053142
O9	O	1.518275	-0.380754	-0.380796
O10	O	2.018275	0.119246	0.119204
O11	O	1.753159	-0.332206	-0.429358
O12	O	2.253159	0.167794	0.070642
O13	O	1.582734	-0.429359	-0.204105
O14	O	2.082734	0.070641	0.295895
O15	O	1.453839	-0.204080	-0.332275
O16	O	1.953839	0.295920	0.167725
O17	O	1.753083	-0.429328	-0.332253
O18	O	2.253083	0.070672	0.167747
O19	O	1.582910	-0.204056	-0.429370
O20	O	2.082910	0.295944	0.070630
O21	O	1.453740	-0.332261	-0.204115
O22	O	1.953740	0.167739	0.295885
O23	O	1.283445	-0.332211	-0.332249
O24	O	1.783445	0.167789	0.167751
O25	O	1.453759	-0.429239	-0.557472
O26	O	1.953759	0.070761	-0.057472
O27	O	1.283411	-0.429271	-0.429324
O28	O	1.783411	0.070729	0.070676
O29	O	1.582864	-0.332156	-0.557492
O30	O	2.082864	0.167844	-0.057492
O31	O	1.582689	-0.557459	-0.332227
O32	O	2.082689	-0.057459	0.167773
O33	O	1.453660	-0.557421	-0.429312
O34	O	1.953660	-0.057421	0.070688
C35	C	1.245307	-0.380739	-0.380785
C36	C	1.745307	0.119261	0.119215
C37	C	1.128531	-0.380752	-0.380800
C38	C	1.628531	0.119248	0.119200
C39	C	1.073678	-0.431372	-0.431263
C40	C	1.573678	0.068628	0.068737
C41	C	0.963954	-0.431382	-0.431272
C42	C	1.463954	0.068618	0.068728
C43	C	0.963945	-0.330150	-0.330346
C44	C	1.463945	0.169850	0.169654
C45	C	1.073667	-0.330137	-0.330342
C46	C	1.573667	0.169863	0.169658
C47	C	1.073683	-0.489820	-0.489530
C48	C	1.573683	0.010180	0.010470
C49	C	0.963958	-0.489830	-0.489538
C50	C	1.463958	0.010170	0.010462
C51	C	1.518186	-0.586120	-0.380783
C52	C	2.018186	-0.086120	0.119217
C53	C	1.518245	-0.673977	-0.380803
C54	C	2.018245	-0.173977	0.119197
C55	C	1.451186	-1.045463	-0.431343
C56	C	1.951186	-0.545463	0.068657
C57	C	1.585655	-1.045442	-0.330330
C58	C	2.085655	-0.545442	0.169670
C59	C	1.585619	-0.962896	-0.330323
C60	C	2.085619	-0.462896	0.169677
C61	C	1.518364	-0.921630	-0.380825
C62	C	2.018364	-0.421630	0.119175
C63	C	1.451145	-0.962909	-0.431336
C64	C	1.951145	-0.462909	0.068664
C65	C	1.652828	-0.921611	-0.279808
C66	C	2.152828	-0.421611	0.220192
C67	C	1.652793	-0.839060	-0.279798
C68	C	2.152793	-0.339060	0.220202
C69	C	1.585543	-0.797792	-0.330305
C70	C	2.085543	-0.297792	0.169695
C71	C	1.518323	-0.839076	-0.380818
C72	C	2.018323	-0.339076	0.119182
C73	C	1.451068	-0.797810	-0.431321
C74	C	1.951068	-0.297810	0.068679
C75	C	1.383852	-0.839093	-0.481838
C76	C	1.883852	-0.339093	0.018162
C77	C	1.383895	-0.921641	-0.481843
C78	C	1.883895	-0.421641	0.018157
C79	C	1.585500	-0.715243	-0.330300
C80	C	2.085500	-0.215243	0.169700
C81	C	1.451027	-0.715256	-0.431314
C82	C	1.951027	-0.215256	0.068686
C83	C	1.792308	-0.380769	-0.380807
C84	C	2.292308	0.119231	0.119193
C85	C	1.909084	-0.380776	-0.380812
C86	C	2.409084	0.119224	0.119188
C87	C	1.518318	-0.380689	-0.586964
C88	C	2.018318	0.119311	-0.086964
C89	C	1.518337	-0.380661	-0.674821
C90	C	2.018337	0.119339	-0.174821
C91	C	1.518391	-0.174586	-0.380827
C92	C	2.018391	0.325414	0.119173
C93	C	1.518441	-0.086729	-0.380840
C94	C	2.018441	0.413271	0.119160
C95	C	1.451243	-0.431124	-1.046289
C96	C	1.951243	0.068876	-0.546289
C97	C	1.585682	-0.330031	-1.046305
C98	C	2.085682	0.169969	-0.546305
C99	C	1.585654	-0.330047	-0.963759
C100	C	2.085654	0.169953	-0.463759
C101	C	1.518421	-0.380604	-0.922474
C102	C	2.018421	0.119396	-0.422474
C103	C	1.451215	-0.431144	-0.963735
C104	C	1.951215	0.068856	-0.463735
C105	C	1.652865	-0.279514	-0.922491
C106	C	2.152865	0.220486	-0.422491
C107	C	1.652840	-0.279529	-0.839940
C108	C	2.152840	0.220471	-0.339940
C109	C	1.585601	-0.330083	-0.798654
C110	C	2.085601	0.169917	-0.298654
C111	C	1.518393	-0.380624	-0.839921
C112	C	2.018393	0.119376	-0.339921
C113	C	1.451160	-0.431181	-0.798636
C114	C	1.951160	0.068819	-0.298636
C115	C	1.383945	-0.481719	-0.839901
C116	C	1.883945	0.018281	-0.339901
C117	C	1.383976	-0.481697	-0.922449
C118	C	1.883976	0.018303	-0.422449
C119	C	1.585570	-0.330104	-0.716106
C120	C	2.085570	0.169896	-0.216106
C121	C	1.451132	-0.431201	-0.716082
C122	C	1.951132	0.068799	-0.216082
C123	C	1.518291	-0.380762	-0.175430
C124	C	2.018291	0.119238	0.324570
C125	C	1.518476	-0.380567	-0.087574
C126	C	2.018476	0.119433	0.412426
H127	H	1.396263	-0.681662	-0.472442
H128	H	1.896263	-0.181662	0.027558
Br129	Br	1.148107	-0.261418	-0.261871
Br130	Br	1.648107	0.238582	0.238129
Br131	Br	1.744020	-0.783040	-0.211246
Br132	Br	2.244020	-0.283040	0.288754
H133	H	1.396372	-0.472364	-0.682474
H134	H	1.896372	0.027636	-0.182474
Br135	Br	0.907272	-0.453415	-0.586529
Br136	Br	1.407272	0.046585	-0.086529
Br137	Br	1.130379	-0.586717	-0.452891
Br138	Br	1.630379	-0.086717	0.047109
Br139	Br	1.123364	-0.462621	-0.591607
Br140	Br	1.623364	0.037379	-0.091607
Br141	Br	1.292769	-0.550281	-0.978456
Br142	Br	1.792769	-0.050281	-0.478456
Br143	Br	1.292573	-0.783078	-0.550369
Br144	Br	1.792573	-0.283078	-0.050369
Br145	Br	1.292682	-0.977672	-0.550396
Br146	Br	1.792682	-0.477672	-0.050396
Br147	Br	0.914278	-0.591825	-0.462011
Br148	Br	1.414278	-0.091825	0.037989
Br149	Br	1.359977	-1.101485	-0.499905
Br150	Br	1.859977	-0.601485	0.000095
H151	H	1.329208	-0.522885	-0.806276
H152	H	1.829208	-0.022885	-0.306276
H153	H	1.707576	-0.955216	-0.238685
H154	H	2.207576	-0.455216	0.261315
Br155	Br	1.676698	-0.659220	-0.261736
Br156	Br	2.176698	-0.159220	0.238264
Br157	Br	1.676924	-1.101447	-0.261792
Br158	Br	2.176924	-0.601447	0.238208
H159	H	1.640425	-0.288874	-1.079924
H160	H	2.140425	0.211126	-0.579924
Br161	Br	0.889480	-0.261459	-0.261874
Br162	Br	1.389480	0.238541	0.238126
H163	H	1.396516	-0.472269	-1.079891
H164	H	1.896516	0.027731	-0.579891
Br165	Br	1.744115	-0.210914	-0.978523
Br166	Br	2.244115	0.289086	-0.478523
Br167	Br	1.744056	-0.210942	-0.783945
Br168	Br	2.244056	0.289058	-0.283945
H169	H	1.640298	-0.288959	-0.682512
H170	H	2.140298	0.211041	-0.182512
