data_functionalizedCrystal
_audit_creation_method	'MofGen! by Chris Wilmer'
_symmetry_space_group_name_H-M	'P1'
_symmetry_Int_Tables_number	1
_symmetry_cell_setting	triclinic
loop_
_symmetry_equiv_pos_as_xyz
  x,y,z
_cell_length_a	6.817900
_cell_length_b	19.453103
_cell_length_c	11.168136
_cell_angle_alpha	94.532538
_cell_angle_beta	108.508683
_cell_angle_gamma	101.709178
loop_
_atom_site_label
_atom_site_type_symbol
_atom_site_fract_x
_atom_site_fract_y
_atom_site_fract_z
V1	V	-4.075605	-0.097192	-0.394286
O2	O	-4.071110	0.004660	-0.386177
O3	O	-4.018208	-0.192705	-0.392170
O4	O	-4.052421	-0.095702	-0.565983
O5	O	-4.036660	-0.093015	-0.211161
V6	V	-4.557131	-0.085009	-0.372312
O7	O	-4.341243	-0.123917	-0.442488
O8	O	-4.741690	-0.058284	-0.324111
O9	O	-4.391322	0.010504	-0.374428
O10	O	-4.679024	-0.186860	-0.380422
O11	O	-4.713474	-0.089186	-0.555438
O12	O	-4.357109	-0.086499	-0.200616
C13	C	-3.860204	-0.215988	-0.386100
C14	C	-3.894730	-0.294071	-0.385515
C15	C	-3.903845	-0.092250	-0.607814
C16	C	-3.966114	-0.091664	-0.748181
C17	C	-3.884570	-0.087465	-0.949699
C18	C	-3.820208	-0.088071	-0.804623
C19	C	-4.093652	-0.334327	-0.391554
C20	C	-4.126100	-0.407695	-0.391017
C21	C	-3.959602	-0.440803	-0.384414
C22	C	-3.760655	-0.400539	-0.378382
C23	C	-3.728220	-0.327173	-0.378932
N24	N	-3.839406	-0.547065	-0.306600
N25	N	-3.870229	-0.616760	-0.306075
C26	C	-4.057318	-0.661850	-0.382759
N27	N	-4.212442	-0.634612	-0.459973
N28	N	-4.181619	-0.564911	-0.460493
C29	C	-3.994752	-0.520356	-0.383818
C30	C	-4.291437	-0.781661	-0.388218
C31	C	-4.323881	-0.855031	-0.387689
C32	C	-3.958425	-0.847871	-0.375041
C33	C	-3.925992	-0.774504	-0.375583
C34	C	-4.092503	-0.741402	-0.382166
C35	C	-4.212667	0.033784	-0.380495
C36	C	-4.157380	0.111867	-0.381088
C37	C	-4.169026	-0.089952	-0.158778
C38	C	-4.085996	-0.090535	-0.018410
H39	H	-3.759769	-0.084385	-0.998277
Cl40	Cl	-3.553791	-0.084020	-0.713438
Cl41	Cl	-4.232541	-0.095726	-0.839361
Cl42	Cl	-4.278690	-0.095280	-0.943418
H43	H	-4.229246	-0.307381	-0.396923
Cl44	Cl	-3.478125	-0.276563	-0.371336
H45	H	-4.288091	-0.440478	-0.395934
Cl46	Cl	-4.500771	-0.740046	-0.396522
Cl47	Cl	-3.551346	-0.442159	-0.370089
Cl48	Cl	-4.573981	-0.905640	-0.395291
Cl49	Cl	-3.749114	-0.889487	-0.366756
Cl50	Cl	-3.675899	-0.723893	-0.367979
