data_functionalizedCrystal
_audit_creation_method	'MofGen! by Chris Wilmer'
_symmetry_space_group_name_H-M	'P1'
_symmetry_Int_Tables_number	1
_symmetry_cell_setting	triclinic
loop_
_symmetry_equiv_pos_as_xyz
  x,y,z
_cell_length_a	26.210047
_cell_length_b	14.519709
_cell_length_c	14.519709
_cell_angle_alpha	83.680145
_cell_angle_beta	90.003565
_cell_angle_gamma	89.996562
loop_
_atom_site_label
_atom_site_type_symbol
_atom_site_fract_x
_atom_site_fract_y
_atom_site_fract_z
O1	O	0.042364	-1.223875	-0.120878
O2	O	0.375697	-0.890542	0.212455
O3	O	0.709030	-0.557208	0.545789
O4	O	0.042379	-0.955398	-0.135115
O5	O	0.375713	-0.622065	0.198219
O6	O	0.709046	-0.288731	0.531552
O7	O	0.042367	-1.096755	0.006242
O8	O	0.375700	-0.763422	0.339576
O9	O	0.709033	-0.430088	0.672909
O10	O	0.042377	-1.082518	-0.262235
O11	O	0.375710	-0.749185	0.071099
O12	O	0.709043	-0.415852	0.404432
O13	O	-0.042492	-1.096728	0.006220
O14	O	0.290842	-0.763394	0.339553
O15	O	0.624175	-0.430061	0.672887
O16	O	-0.042479	-0.955371	-0.135137
O17	O	0.290855	-0.622037	0.198197
O18	O	0.624188	-0.288704	0.531530
O19	O	-0.042494	-1.223848	-0.120900
O20	O	0.290839	-0.890514	0.212433
O21	O	0.624172	-0.557181	0.545767
Cu22	Cu	-0.050235	-1.089607	-0.128020
Cu23	Cu	0.283099	-0.756273	0.205313
Cu24	Cu	0.616432	-0.422940	0.538646
Cu25	Cu	0.050120	-1.089639	-0.127994
Cu26	Cu	0.383453	-0.756306	0.205339
Cu27	Cu	0.716786	-0.422972	0.538672
O28	O	-0.042482	-1.082491	-0.262257
O29	O	0.290852	-0.749158	0.071077
O30	O	0.624185	-0.415824	0.404410
C31	C	-0.000048	-0.921025	-0.134462
C32	C	0.333286	-0.587691	0.198871
C33	C	0.666619	-0.254358	0.532205
C34	C	-0.000042	-0.818643	-0.132474
C35	C	0.333292	-0.485310	0.200859
C36	C	0.666625	-0.151977	0.534193
C37	C	-0.000063	-1.096078	0.040591
C38	C	0.333271	-0.762744	0.373924
C39	C	0.666604	-0.429411	0.707258
C40	C	-0.000063	-1.094089	0.142972
C41	C	0.333271	-0.760756	0.476306
C42	C	0.666604	-0.427423	0.809639
N43	N	-0.120819	-1.089591	-0.128038
N44	N	0.212515	-0.756257	0.205295
N45	N	0.545848	-0.422924	0.538629
C46	C	-0.473338	-1.152225	-0.065416
C47	C	-0.140005	-0.818892	0.267918
C48	C	0.193328	-0.485559	0.601251
C49	C	-0.686997	-1.152246	-0.065403
C50	C	-0.353664	-0.818912	0.267930
C51	C	-0.020330	-0.485579	0.601264
O52	O	-0.714624	-1.205464	-0.012163
O53	O	-0.381290	-0.872131	0.321170
O54	O	-0.047957	-0.538798	0.654504
N55	N	-0.713713	-1.089644	-0.127974
N56	N	-0.380379	-0.756311	0.205359
N57	N	-0.047046	-0.422977	0.538693
C58	C	-0.687010	-1.027029	-0.190549
C59	C	-0.353677	-0.693695	0.142785
C60	C	-0.020344	-0.360362	0.476118
O61	O	-0.714636	-0.973776	-0.243763
O62	O	-0.381303	-0.640443	0.089571
O63	O	-0.047969	-0.307109	0.422904
C64	C	-0.473353	-1.027005	-0.190556
C65	C	-0.140019	-0.693671	0.142777
C66	C	0.193314	-0.360338	0.476110
C67	C	-0.446640	-1.089617	-0.127987
C68	C	-0.113306	-0.756283	0.205346
C69	C	0.220027	-0.422950	0.538679
C70	C	-0.446626	-1.214832	-0.002851
C71	C	-0.113292	-0.881499	0.330482
C72	C	0.220041	-0.548165	0.663816
C73	C	-0.393214	-1.214830	-0.002858
C74	C	-0.059881	-0.881496	0.330475
C75	C	0.273453	-0.548163	0.663808
C76	C	-0.366515	-1.152221	-0.065430
C77	C	-0.033182	-0.818887	0.267903
C78	C	0.300151	-0.485554	0.601237
C79	C	-0.393228	-1.089614	-0.127995
C80	C	-0.059895	-0.756281	0.205339
C81	C	0.273438	-0.422948	0.538672
C82	C	-0.446651	-0.964385	-0.253126
C83	C	-0.113318	-0.631052	0.080207
C84	C	0.220015	-0.297719	0.413541
C85	C	-0.393233	-0.964383	-0.253121
C86	C	-0.059900	-0.631050	0.080213
C87	C	0.273433	-0.297717	0.413546
C88	C	-0.366521	-1.026996	-0.190552
C89	C	-0.033187	-0.693662	0.142782
C90	C	0.300146	-0.360329	0.476115
C91	C	-0.313118	-1.027003	-0.190574
C92	C	0.020215	-0.693670	0.142760
C93	C	0.353548	-0.360337	0.476093
N94	N	-0.286403	-1.089605	-0.128002
N95	N	0.046931	-0.756272	0.205331
N96	N	0.380264	-0.422939	0.538664
C97	C	-0.313101	-1.152214	-0.065431
C98	C	0.020232	-0.818881	0.267903
C99	C	0.353565	-0.485547	0.601236
C100	C	-0.799184	-1.027047	-0.190542
C101	C	-0.465850	-0.693713	0.142792
C102	C	-0.132517	-0.360380	0.476125
C103	C	-0.852598	-1.027054	-0.190541
C104	C	-0.519264	-0.693720	0.142792
C105	C	-0.185931	-0.360387	0.476126
C106	C	-0.852581	-1.152270	-0.065394
C107	C	-0.519247	-0.818937	0.267940
C108	C	-0.185914	-0.485603	0.601273
C109	C	-0.799166	-1.152267	-0.065399
C110	C	-0.465832	-0.818933	0.267934
C111	C	-0.132499	-0.485600	0.601267
C112	C	-0.772468	-1.089649	-0.127970
C113	C	-0.439135	-0.756315	0.205363
C114	C	-0.105801	-0.422982	0.538696
C115	C	-0.200933	-1.152205	-0.065451
C116	C	0.132400	-0.818871	0.267882
C117	C	0.465733	-0.485538	0.601216
C118	C	-0.147517	-1.152199	-0.065466
C119	C	0.185816	-0.818866	0.267867
C120	C	0.519149	-0.485533	0.601200
C121	C	-0.147539	-1.026980	-0.190610
C122	C	0.185794	-0.693647	0.142723
C123	C	0.519128	-0.360314	0.476057
C124	C	-0.200950	-1.026989	-0.190598
C125	C	0.132383	-0.693655	0.142735
C126	C	0.465716	-0.360322	0.476068
C127	C	-0.227646	-1.089604	-0.128011
C128	C	0.105687	-0.756271	0.205322
C129	C	0.439020	-0.422938	0.538656
O130	O	-0.285459	-0.973806	-0.243779
O131	O	0.047875	-0.640472	0.089555
O132	O	0.381208	-0.307139	0.422888
O133	O	-0.285466	-1.205445	-0.012211
O134	O	0.047867	-0.872111	0.321122
O135	O	0.381200	-0.538778	0.654456
C136	C	-0.526750	-1.152228	-0.065408
C137	C	-0.193417	-0.818894	0.267925
C138	C	0.139917	-0.485561	0.601258
C139	C	-0.553463	-1.089621	-0.127973
C140	C	-0.220129	-0.756288	0.205360
C141	C	0.113204	-0.422955	0.538694
C142	C	-0.526764	-1.027013	-0.190545
C143	C	-0.193431	-0.693679	0.142789
C144	C	0.139903	-0.360346	0.476122
C145	C	-0.606877	-1.089628	-0.127972
C146	C	-0.273544	-0.756295	0.205361
C147	C	0.059790	-0.422962	0.538694
C148	C	-0.633575	-1.152237	-0.065401
C149	C	-0.300242	-0.818904	0.267933
C150	C	0.033091	-0.485570	0.601266
C151	C	-0.606860	-1.214839	-0.002830
C152	C	-0.273527	-0.881505	0.330504
C153	C	0.059807	-0.548172	0.663837
C154	C	-0.553448	-1.214836	-0.002837
C155	C	-0.220115	-0.881503	0.330497
C156	C	0.113218	-0.548170	0.663830
C157	C	-0.553480	-0.964411	-0.253116
C158	C	-0.220146	-0.631078	0.080217
C159	C	0.113187	-0.297744	0.413551
C160	C	-0.606891	-0.964419	-0.253104
C161	C	-0.273558	-0.631086	0.080229
C162	C	0.059775	-0.297752	0.413562
C163	C	-0.633590	-1.027028	-0.190533
C164	C	-0.300256	-0.693694	0.142801
C165	C	0.033077	-0.360361	0.476134
N166	N	0.120704	-1.089662	-0.127969
N167	N	0.454037	-0.756329	0.205364
N168	N	0.787370	-0.422996	0.538697
C169	C	-0.000066	-1.258221	-0.121553
C170	C	0.333267	-0.924888	0.211781
C171	C	0.666600	-0.591554	0.545114
C172	C	-0.000069	-1.360602	-0.123541
C173	C	0.333265	-1.027269	0.209793
C174	C	0.666598	-0.693936	0.543126
C175	C	-0.000065	-0.443748	-0.125154
C176	C	0.333268	-0.110414	0.208179
C177	C	0.666601	0.222919	0.541512
C178	C	-0.000059	-0.548056	-0.127187
C179	C	0.333275	-0.214722	0.206146
C180	C	0.666608	0.118611	0.539480
C181	C	-0.000053	-0.631192	-0.128814
C182	C	0.333280	-0.297859	0.204519
C183	C	0.666614	0.035474	0.537853
C184	C	-0.000047	-0.735507	-0.130847
C185	C	0.333286	-0.402173	0.202486
C186	C	0.666619	-0.068840	0.535820
C187	C	-0.000051	-1.083168	-0.296606
C188	C	0.333282	-0.749835	0.036728
C189	C	0.666615	-0.416501	0.370061
C190	C	-0.000048	-1.085156	-0.398987
C191	C	0.333286	-0.751823	-0.065653
C192	C	0.666619	-0.418490	0.267680
C193	C	-0.000049	-1.086770	0.517868
C194	C	0.333284	-0.753437	0.851201
C195	C	0.666618	-0.420103	1.184535
C196	C	-0.000053	-1.088803	0.413560
C197	C	0.333280	-0.755469	0.746893
C198	C	0.666614	-0.422136	1.080227
C199	C	-0.000056	-1.090430	0.330423
C200	C	0.333277	-0.757096	0.663757
C201	C	0.666610	-0.423763	0.997090
C202	C	-0.000059	-1.092463	0.226109
C203	C	0.333274	-0.759129	0.559442
C204	C	0.666607	-0.425796	0.892776
H205	H	-0.125769	-1.203189	-0.014515
H206	H	0.207564	-0.869856	0.318818
H207	H	0.540897	-0.536522	0.652152
H208	H	-0.874344	-0.976079	-0.241500
H209	H	-0.541010	-0.642745	0.091833
H210	H	-0.207677	-0.309412	0.425167
Br211	Br	-0.237155	-1.237184	0.019490
Br212	Br	0.096178	-0.903851	0.352823
Br213	Br	0.429512	-0.570517	0.686157
H214	H	-0.531746	-0.913426	-0.304068
H215	H	-0.198412	-0.580093	0.029265
H216	H	0.134921	-0.246759	0.362598
Br217	Br	-0.643138	-0.879443	-0.338033
Br218	Br	-0.309805	-0.546110	-0.004699
Br219	Br	0.023528	-0.212776	0.328634
H220	H	-0.371468	-1.265811	0.048093
H221	H	-0.038134	-0.932478	0.381426
H222	H	0.295199	-0.599144	0.714760
H223	H	-0.777450	-0.976054	-0.241497
H224	H	-0.444117	-0.642721	0.091837
H225	H	-0.110783	-0.309387	0.425170
H226	H	-0.531703	-1.265821	0.048113
H227	H	-0.198369	-0.932488	0.381446
H228	H	0.134964	-0.599154	0.714780
Br229	Br	-0.357005	-0.879392	-0.338040
Br230	Br	-0.023671	-0.546059	-0.004707
Br231	Br	0.309662	-0.212726	0.328626
Br232	Br	-0.888826	-1.237238	0.019524
Br233	Br	-0.555492	-0.903905	0.352857
Br234	Br	-0.222159	-0.570572	0.686191
H235	H	-0.468359	-1.265815	0.048107
H236	H	-0.135026	-0.932482	0.381440
H237	H	0.198308	-0.599149	0.714773
Br238	Br	-0.762918	-1.237243	0.019519
Br239	Br	-0.429585	-0.903910	0.352852
Br240	Br	-0.096252	-0.570576	0.686185
Br241	Br	-0.237202	-0.942025	-0.275528
Br242	Br	0.096131	-0.608691	0.057805
Br243	Br	0.429465	-0.275358	0.391139
H244	H	-0.468393	-0.913401	-0.304075
H245	H	-0.135060	-0.580067	0.029259
H246	H	0.198273	-0.246734	0.362592
Br247	Br	-0.111297	-0.942017	-0.275528
Br248	Br	0.222037	-0.608683	0.057805
Br249	Br	0.555370	-0.275350	0.391138
Br250	Br	-0.643104	-1.299812	0.082084
Br251	Br	-0.309771	-0.966478	0.415418
Br252	Br	0.023563	-0.633145	0.748751
