data_functionalizedCrystal
_audit_creation_method	'MofGen! by Chris Wilmer'
_symmetry_space_group_name_H-M	'P1'
_symmetry_Int_Tables_number	1
_symmetry_cell_setting	triclinic
loop_
_symmetry_equiv_pos_as_xyz
  x,y,z
_cell_length_a	10.654554
_cell_length_b	10.654551
_cell_length_c	14.048226
_cell_angle_alpha	89.996418
_cell_angle_beta	89.994920
_cell_angle_gamma	84.486053
loop_
_atom_site_label
_atom_site_type_symbol
_atom_site_fract_x
_atom_site_fract_y
_atom_site_fract_z
O1	O	1.667842	0.176428	-0.079125
O2	O	1.302364	0.193228	-0.079132
O3	O	1.493505	0.002089	-0.079129
O4	O	1.476701	0.367567	-0.079128
O5	O	1.493482	0.002078	0.079193
O6	O	1.302341	0.193217	0.079189
O7	O	1.667819	0.176417	0.079197
Zn8	Zn	1.485076	0.184815	0.104330
Zn9	Zn	1.485107	0.184830	-0.104265
O10	O	1.476677	0.367556	0.079193
C11	C	1.255555	0.191988	0.000027
C12	C	1.116112	0.188294	0.000024
C13	C	0.905604	0.297367	0.000033
C14	C	1.036625	0.300839	0.000026
C15	C	1.064571	0.072269	0.000020
C16	C	0.933552	0.068799	0.000021
C17	C	0.826123	0.409919	0.000044
C18	C	0.877654	0.525944	0.000046
C19	C	1.008676	0.529416	0.000039
C20	C	1.088166	0.416863	0.000029
C21	C	1.492260	-0.044714	0.000030
C22	C	1.488567	-0.184158	0.000023
C23	C	1.486848	-0.249663	-0.086276
C24	C	1.483367	-0.380684	-0.086272
C25	C	1.483332	-0.380682	0.086339
C26	C	1.486803	-0.249663	0.086334
C27	C	1.488612	-0.184158	-0.172586
C28	C	1.486894	-0.249664	-0.258893
C29	C	1.483414	-0.380685	-0.258888
C30	C	1.481651	-0.446199	-0.172578
C31	C	1.714628	0.177657	0.000035
C32	C	1.854071	0.181351	0.000032
C33	C	1.477923	0.414360	0.000033
C34	C	1.481616	0.553803	0.000033
N35	N	1.485064	0.184804	0.246690
N36	N	1.485128	0.184831	-0.246626
C37	C	1.569729	0.100203	0.296510
C38	C	1.569737	0.100202	0.396168
C39	C	1.485086	0.184810	0.446004
C40	C	1.400413	0.269415	0.396177
C41	C	1.400399	0.269408	0.296522
C42	C	1.400449	0.269424	0.603892
C43	C	1.400464	0.269432	0.703554
C44	C	1.569787	0.100218	0.703538
C45	C	1.569774	0.100212	0.603882
C46	C	1.485101	0.184819	0.554062
H47	H	1.491449	-0.077475	-0.172600
O48	O	1.318177	0.351434	0.752077
C49	C	1.240127	0.283431	0.809724
H50	H	1.289314	0.185624	0.824641
H51	H	1.220729	0.335658	0.879807
H52	H	1.147227	0.274023	0.771341
H53	H	1.331496	0.338316	0.563332
O54	O	1.478423	-0.573492	-0.172463
C55	C	1.585842	-0.630574	-0.125147
H56	H	1.624049	-0.559519	-0.074744
H57	H	1.559077	-0.715247	-0.082730
H58	H	1.661260	-0.663116	-0.179704
H59	H	1.481898	-0.434034	0.156609
H60	H	1.488176	-0.196323	0.156606
O61	O	0.800573	0.635356	0.000177
C62	C	0.824064	0.705709	0.082183
H63	H	0.923165	0.675732	0.109516
H64	H	0.815766	0.810377	0.063740
H65	H	0.752260	0.687911	0.139603
O66	O	1.058890	0.642035	0.000154
C67	C	1.133820	0.650893	0.082154
H68	H	1.165576	0.552188	0.109494
H69	H	1.220042	0.701695	0.063701
H70	H	1.076437	0.705957	0.139572
O71	O	1.488370	-0.186066	-0.342758
C72	C	1.378964	-0.204836	-0.395268
H73	H	1.302113	-0.231563	-0.344765
H74	H	1.344808	-0.114222	-0.434427
H75	H	1.401500	-0.283898	-0.449070
O76	O	1.481903	-0.444476	-0.342660
C77	C	1.588487	-0.533522	-0.347827
H78	H	1.624147	-0.557580	-0.272892
H79	H	1.561630	-0.622666	-0.384354
H80	H	1.665868	-0.492326	-0.390412
H81	H	0.891594	-0.025671	0.000019
H82	H	0.719437	0.407105	0.000054
O83	O	1.652007	0.017893	0.248251
C84	C	1.726754	-0.056757	0.313598
H85	H	1.675261	-0.058648	0.384644
H86	H	1.745041	-0.156881	0.284813
H87	H	1.820402	-0.015108	0.324180
H88	H	1.638729	0.031328	0.744107
H89	H	1.331482	0.338299	0.436760
O90	O	1.141732	-0.037090	-0.000151
C91	C	1.118208	-0.107473	-0.082135
H92	H	1.074020	-0.041557	-0.139446
H93	H	1.210715	-0.157023	-0.109657
H94	H	1.050871	-0.180751	-0.063597
O95	O	1.318286	0.351767	0.248166
C96	C	1.339757	0.476287	0.272519
H97	H	1.440313	0.477843	0.299898
H98	H	1.325846	0.539178	0.206976
H99	H	1.270475	0.512532	0.330372
H100	H	1.638708	0.031324	0.563306
O101	O	1.215421	0.420393	-0.000110
C102	C	1.251534	0.484214	-0.082122
H103	H	1.167872	0.548948	-0.109455
H104	H	1.332319	0.542716	-0.063688
H105	H	1.283611	0.412590	-0.139539
O106	O	1.652037	0.018202	0.444672
C107	C	1.730112	0.086200	0.502283
H108	H	1.680936	0.184010	0.517207
H109	H	1.749534	0.033972	0.572366
H110	H	1.822999	0.095603	0.463866
