data_functionalizedCrystal
_audit_creation_method	'MofGen! by Chris Wilmer'
_symmetry_space_group_name_H-M	'P1'
_symmetry_Int_Tables_number	1
_symmetry_cell_setting	triclinic
loop_
_symmetry_equiv_pos_as_xyz
  x,y,z
_cell_length_a	11.792241
_cell_length_b	16.992695
_cell_length_c	16.053802
_cell_angle_alpha	92.741074
_cell_angle_beta	87.405349
_cell_angle_gamma	87.430819
loop_
_atom_site_label
_atom_site_type_symbol
_atom_site_fract_x
_atom_site_fract_y
_atom_site_fract_z
O1	O	1.520188	0.104234	-0.069348
O2	O	2.020188	0.604234	0.430652
O3	O	1.190755	0.115313	-0.069368
O4	O	1.690755	0.615313	0.430632
O5	O	1.354150	-0.004375	-0.069352
O6	O	1.854150	0.495625	0.430648
O7	O	1.356793	0.223921	-0.069365
O8	O	1.856793	0.723921	0.430635
O9	O	1.345154	0.002186	0.069506
O10	O	1.845154	0.502186	0.569506
O11	O	1.181759	0.121873	0.069490
O12	O	1.681759	0.621873	0.569490
O13	O	1.511192	0.110794	0.069510
O14	O	2.011192	0.610794	0.569510
Zn15	Zn	1.345047	0.117375	0.091547
Zn16	Zn	1.845047	0.617375	0.591547
Zn17	Zn	1.356900	0.108732	-0.091405
Zn18	Zn	1.856900	0.608732	0.408595
O19	O	1.347796	0.230482	0.069493
O20	O	1.847796	0.730482	0.569493
C21	C	1.346255	-0.030321	0.000077
C22	C	1.846255	0.469679	0.500077
C23	C	1.336117	-0.117409	0.000076
C24	C	1.836117	0.382591	0.500076
C25	C	1.143909	0.117897	0.000059
C26	C	1.643909	0.617897	0.500059
C27	C	1.017725	0.115813	0.000051
C28	C	1.517725	0.615813	0.500051
C29	C	1.433934	-0.167233	0.000083
C30	C	1.933934	0.332767	0.500083
C31	C	1.424402	-0.249061	0.000074
C32	C	1.924402	0.250939	0.500074
C33	C	1.317051	-0.281062	0.000065
C34	C	1.817051	0.218938	0.500065
C35	C	1.219227	-0.231231	0.000056
C36	C	1.719227	0.268769	0.500056
C37	C	1.228760	-0.149406	0.000059
C38	C	1.728760	0.350594	0.500059
C39	C	1.277540	-0.524828	0.000051
C40	C	1.777540	-0.024828	0.500051
C41	C	1.268013	-0.606660	0.000051
C42	C	1.768013	-0.106660	0.500051
C43	C	1.473190	-0.624484	0.000068
C44	C	1.973190	-0.124484	0.500068
C45	C	1.482713	-0.542656	0.000076
C46	C	1.982713	-0.042656	0.500076
C47	C	1.384889	-0.492833	0.000062
C48	C	1.884889	0.007167	0.500062
N49	N	1.307305	-0.364703	0.000059
N50	N	1.807305	0.135297	0.500059
N51	N	1.394636	-0.409194	0.000062
N52	N	1.894636	0.090806	0.500062
C53	C	0.786698	0.111984	0.000076
C54	C	1.286698	0.611984	0.500076
C55	C	0.915258	0.114112	0.000062
C56	C	1.415258	0.614112	0.500062
C57	C	1.558038	0.108210	0.000081
C58	C	2.058038	0.608210	0.500081
C59	C	1.684222	0.110293	0.000083
C60	C	2.184222	0.610293	0.500083
C61	C	1.355692	0.256428	0.000063
C62	C	1.855692	0.756428	0.500063
C63	C	1.365831	0.343515	0.000058
C64	C	1.865831	0.843515	0.500058
N65	N	1.336966	0.123274	0.216406
N66	N	1.836966	0.623274	0.716406
N67	N	1.364989	0.102827	-0.216264
N68	N	1.864989	0.602827	0.283736
C69	C	1.406520	0.072365	0.260107
C70	C	1.906520	0.572365	0.760107
C71	C	1.400878	0.076499	0.347513
C72	C	1.900878	0.576499	0.847513
C73	C	1.325688	0.131546	0.391217
C74	C	1.825688	0.631546	0.891217
C75	C	1.256126	0.182457	0.347510
C76	C	1.756126	0.682457	0.847510
C77	C	1.261763	0.178319	0.260105
C78	C	1.761763	0.678319	0.760105
C79	C	1.301064	0.149600	0.652624
C80	C	1.801064	0.649600	1.152624
C81	C	1.295435	0.153735	0.740035
C82	C	1.795435	0.653735	1.240035
C83	C	1.440186	0.047776	0.740032
C84	C	1.940186	0.547776	1.240032
C85	C	1.445821	0.043646	0.652626
C86	C	1.945821	0.543646	1.152626
C87	C	1.376256	0.094554	0.608926
C88	C	1.876256	0.594554	1.108926
N89	N	1.319922	0.135774	0.480560
N90	N	1.819922	0.635774	0.980560
N91	N	1.382016	0.090321	0.519585
N92	N	1.882016	0.590321	1.019585
H93	H	1.521350	-0.141184	0.000096
H94	H	2.021350	0.358816	0.500096
C95	C	1.253136	0.280301	0.161788
C96	C	1.753136	0.780301	0.661788
C97	C	1.185312	0.234280	0.212063
C98	C	1.685312	0.734280	0.712063
H99	H	1.205932	0.314844	0.132126
H100	H	1.705932	0.814844	0.632126
H101	H	1.300744	0.310352	0.195874
H102	H	1.800744	0.810352	0.695874
H103	H	1.298719	0.246915	0.123256
H104	H	1.798719	0.746915	0.623256
H105	H	1.139735	0.267666	0.250599
H106	H	1.639735	0.767666	0.750599
H107	H	1.137685	0.204227	0.177974
H108	H	1.637685	0.704227	0.677974
C109	C	1.549022	-0.031960	0.268893
C110	C	2.049022	0.468040	0.768893
C111	C	1.489170	0.011853	0.212072
C112	C	1.989170	0.511853	0.712072
H113	H	1.600040	-0.069323	0.239238
H114	H	2.100040	0.430677	0.739238
H115	H	1.590624	0.002495	0.302970
H116	H	2.090624	0.502495	0.802970
H117	H	1.496990	-0.058778	0.302996
H118	H	1.996990	0.441222	0.802996
H119	H	1.541202	0.038676	0.177972
H120	H	2.041202	0.538676	0.677972
H121	H	1.447566	-0.022606	0.177980
H122	H	1.947566	0.477394	0.677980
C123	C	1.409528	-0.025497	0.445810
C124	C	1.909528	0.474503	0.945810
C125	C	1.477342	0.020538	0.395543
C126	C	1.977342	0.520538	0.895543
H127	H	1.456740	-0.060050	0.475454
H128	H	1.956740	0.439950	0.975454
H129	H	1.363953	0.007873	0.484347
H130	H	1.863953	0.507873	0.984347
H131	H	1.361914	-0.055545	0.411712
H132	H	1.861914	0.444455	0.911712
H133	H	1.524951	0.050591	0.429641
H134	H	2.024951	0.550591	0.929641
H135	H	1.522937	-0.012836	0.357000
H136	H	2.022937	0.487164	0.857000
C137	C	1.448802	-0.054211	0.838336
C138	C	1.948802	0.445789	1.338336
C139	C	1.516636	-0.008188	0.788069
C140	C	2.016636	0.491812	1.288069
H141	H	1.496000	-0.088766	0.867988
H142	H	1.996000	0.411234	1.367988
H143	H	1.403230	-0.020833	0.876868
H144	H	1.903230	0.479167	1.376868
H145	H	1.401185	-0.084255	0.804238
H146	H	1.901185	0.415745	1.304238
H147	H	1.564248	0.021861	0.822168
H148	H	2.064248	0.521861	1.322168
H149	H	1.562228	-0.041570	0.749533
H150	H	2.062228	0.458430	1.249533
C151	C	1.162301	-0.724181	0.000052
C152	C	1.662301	-0.224181	0.500052
C153	C	1.150005	-0.641839	0.000042
C154	C	1.650005	-0.141839	0.500042
H155	H	1.089451	-0.745897	0.000054
H156	H	1.589451	-0.245897	0.500054
H157	H	1.206022	-0.743534	-0.048364
H158	H	1.706022	-0.243534	0.451636
H159	H	1.199755	-0.738954	0.048482
H160	H	1.699755	-0.238954	0.548482
H161	H	1.112559	-0.627065	-0.048392
H162	H	1.612559	-0.127065	0.451608
H163	H	1.106267	-0.622478	0.048463
H164	H	1.606267	-0.122478	0.548463
H165	H	1.244423	0.191053	0.617051
H166	H	1.744423	0.691053	1.117051
H167	H	1.234203	0.198565	0.775614
H168	H	1.734203	0.698565	1.275614
C169	C	1.588323	-0.060684	0.661406
C170	C	2.088323	0.439316	1.161406
C171	C	1.528466	-0.016868	0.604589
C172	C	2.028466	0.483132	1.104589
H173	H	1.639341	-0.098044	0.631748
H174	H	2.139341	0.401956	1.131748
H175	H	1.629925	-0.026229	0.695484
H176	H	2.129925	0.473771	1.195484
H177	H	1.536294	-0.087503	0.695510
H178	H	2.036294	0.412497	1.195510
H179	H	1.580495	0.009956	0.570489
H180	H	2.080495	0.509956	1.070489
H181	H	1.486862	-0.051328	0.570497
H182	H	1.986862	0.448672	1.070497
H183	H	1.149107	-0.108839	0.000053
H184	H	1.649107	0.391161	0.500053
H185	H	1.194899	0.227275	0.383098
H186	H	1.694899	0.727275	0.883098
H187	H	1.504056	-0.289625	0.000082
H188	H	2.004056	0.210375	0.500082
C189	C	1.684564	-0.568496	0.000091
C190	C	2.184564	-0.068496	0.500091
C191	C	1.600717	-0.507483	0.000087
C192	C	2.100717	-0.007483	0.500087
H193	H	1.757414	-0.546780	0.000097
H194	H	2.257414	-0.046780	0.500097
H195	H	1.673437	-0.597757	0.048508
H196	H	2.173437	-0.097757	0.548508
H197	H	1.679716	-0.602324	-0.048339
H198	H	2.179716	-0.102324	0.451661
H199	H	1.605560	-0.473658	0.048520
H200	H	2.105560	0.026342	0.548520
H201	H	1.611848	-0.478209	-0.048334
H202	H	2.111848	0.021791	0.451666
H203	H	1.197883	-0.484272	0.000041
H204	H	1.697883	0.015728	0.500041
H205	H	1.131820	-0.257293	0.000043
H206	H	1.631820	0.242707	0.500043
C207	C	1.549684	-0.757832	0.000063
C208	C	2.049684	-0.257832	0.500063
C209	C	1.580714	-0.679252	0.000071
C210	C	2.080714	-0.179252	0.500071
H211	H	1.616070	-0.791641	0.000057
H212	H	2.116070	-0.291641	0.500057
H213	H	1.502847	-0.765293	0.048482
H214	H	2.002847	-0.265293	0.548482
H215	H	1.509105	-0.769854	-0.048365
H216	H	2.009105	-0.269854	0.451635
H217	H	1.621286	-0.667227	0.048502
H218	H	2.121286	-0.167227	0.548502
H219	H	1.627570	-0.671787	-0.048352
H220	H	2.127570	-0.171787	0.451648
