data_functionalizedCrystal
_audit_creation_method	'MofGen! by Chris Wilmer'
_symmetry_space_group_name_H-M	'P1'
_symmetry_Int_Tables_number	1
_symmetry_cell_setting	triclinic
loop_
_symmetry_equiv_pos_as_xyz
  x,y,z
_cell_length_a	33.359624
_cell_length_b	33.359674
_cell_length_c	33.359725
_cell_angle_alpha	90.002336
_cell_angle_beta	59.997158
_cell_angle_gamma	119.999922
loop_
_atom_site_label
_atom_site_type_symbol
_atom_site_fract_x
_atom_site_fract_y
_atom_site_fract_z
O1	O	0.353591	-0.274988	-0.011932
O2	O	0.271505	-0.216696	0.011863
O3	O	0.353588	-0.216696	-0.070223
O4	O	0.271508	-0.274989	0.070154
O5	O	0.286916	-0.283367	-0.070222
O6	O	0.204832	-0.283368	0.011864
O7	O	0.286919	-0.341660	-0.011931
Cu8	Cu	0.239788	-0.318602	-0.000033
Cu9	Cu	0.318636	-0.239755	-0.000035
O10	O	0.204835	-0.341661	0.070155
C11	C	0.117513	-0.073731	0.028807
C12	C	0.068931	-0.098076	0.029146
C13	C	0.117510	-0.146321	0.028812
C14	C	0.068928	-0.170557	0.029150
C15	C	0.044923	-0.146320	0.028808
C16	C	0.141408	-0.098078	0.029149
C17	C	0.196157	0.004724	0.022916
C18	C	0.222883	0.054298	0.019196
C19	C	0.199946	0.079163	0.017328
C20	C	0.228923	0.132915	0.013293
C21	C	0.150279	0.054457	0.019184
C22	C	0.123553	0.004884	0.022906
C23	C	0.146494	-0.019980	0.024770
C24	C	-0.027638	-0.146130	0.022914
C25	C	-0.073494	-0.168980	0.019195
C26	C	-0.096493	-0.216783	0.017332
C27	C	-0.146211	-0.241559	0.013297
C28	C	-0.073645	-0.241745	0.019191
C29	C	-0.027794	-0.218897	0.022912
C30	C	-0.004790	-0.171090	0.024772
C31	C	0.196151	-0.146134	0.022925
C32	C	0.222879	-0.168983	0.019203
C33	C	0.199939	-0.216786	0.017339
C34	C	0.228913	-0.241564	0.013308
C35	C	0.150276	-0.241744	0.019193
C36	C	0.123549	-0.218898	0.022913
C37	C	0.146488	-0.171093	0.024779
O38	O	-0.162486	-0.283361	0.011846
O39	O	-0.279059	-0.341649	-0.011959
O40	O	-0.279077	-0.341653	0.070131
O41	O	-0.162468	-0.283357	-0.070244
O42	O	-0.279076	-0.274981	0.070129
O43	O	-0.279058	-0.274977	-0.011961
O44	O	-0.162484	-0.216689	0.011844
Cu45	Cu	-0.220771	-0.239745	-0.000059
Cu46	Cu	-0.220773	-0.318593	-0.000056
O47	O	-0.162466	-0.216685	-0.070246
C48	C	0.440919	-0.146326	-0.367184
C49	C	0.489501	-0.098083	-0.391420
C50	C	0.440919	-0.146326	-0.294594
C51	C	0.489501	-0.098083	-0.318941
C52	C	0.513508	-0.073737	-0.367184
C53	C	0.417022	-0.170562	-0.318940
C54	C	0.362275	-0.219078	-0.366994
C55	C	0.335550	-0.242085	-0.389844
C56	C	0.358489	-0.217281	-0.437646
C57	C	0.329513	-0.242223	-0.462422
C58	C	0.408157	-0.169470	-0.462607
C59	C	0.434882	-0.146466	-0.439760
C60	C	0.411938	-0.171270	-0.391953
C61	C	0.586072	0.004718	-0.439936
C62	C	0.631929	0.054292	-0.462943
C63	C	0.654927	0.079155	-0.438139
C64	C	0.704646	0.132907	-0.463081
C65	C	0.632077	0.054449	-0.390328
C66	C	0.586225	0.004877	-0.367324
C67	C	0.563223	-0.019987	-0.392128
C68	C	0.362275	-0.219078	-0.216139
C69	C	0.335546	-0.242083	-0.166563
C70	C	0.358485	-0.217279	-0.141699
C71	C	0.329509	-0.242221	-0.087947
C72	C	0.408148	-0.169470	-0.166404
C73	C	0.434877	-0.146464	-0.215979
C74	C	0.411938	-0.171270	-0.240844
C75	C	0.513523	-0.412023	-0.028909
C76	C	0.489517	-0.460266	-0.029249
C77	C	0.440930	-0.412025	-0.028904
C78	C	0.417034	-0.460268	-0.029244
C79	C	0.440933	-0.484613	-0.028908
C80	C	0.489514	-0.387788	-0.029246
C81	C	0.586088	-0.339270	-0.023020
C82	C	0.631946	-0.316262	-0.019305
C83	C	0.654946	-0.341065	-0.017442
C84	C	0.704666	-0.316122	-0.013411
C85	C	0.632097	-0.388876	-0.019300
C86	C	0.586243	-0.411881	-0.023018
C87	C	0.563239	-0.387078	-0.024876
C88	C	0.435234	-0.563066	-0.023021
C89	C	0.408667	-0.612640	-0.019304
C90	C	0.358998	-0.637504	-0.017436
C91	C	0.330189	-0.691256	-0.013404
C92	C	0.335892	-0.612799	-0.019290
C93	C	0.362459	-0.563227	-0.023010
C94	C	0.412128	-0.538363	-0.024873
C95	C	0.435225	-0.339274	-0.023010
C96	C	0.408651	-0.316270	-0.019283
C97	C	0.358982	-0.341075	-0.017415
C98	C	0.330170	-0.316135	-0.013378
C99	C	0.335879	-0.388884	-0.019271
C100	C	0.362449	-0.411889	-0.022996
C101	C	0.412122	-0.387082	-0.024865
O102	O	0.286936	0.291018	-0.011953
O103	O	0.204850	0.150643	0.011838
O104	O	0.286938	0.232720	-0.070246
O105	O	0.204849	0.208941	0.070131
O106	O	0.353607	0.232719	-0.070243
O107	O	0.271519	0.150641	0.011842
O108	O	0.353606	0.291017	-0.011950
Cu109	Cu	0.318650	0.220829	-0.000054
Cu110	Cu	0.239806	0.220831	-0.000058
O111	O	0.271518	0.208939	0.070135
O112	O	0.837508	0.291008	-0.495844
O113	O	0.720920	0.150633	-0.437553
O114	O	0.720917	0.232712	-0.437547
O115	O	0.837511	0.208928	-0.495850
O116	O	0.720918	0.232714	-0.504219
O117	O	0.720921	0.150634	-0.504225
O118	O	0.837510	0.291009	-0.562516
Cu119	Cu	0.779216	0.220822	-0.539458
Cu120	Cu	0.779214	0.220820	-0.460611
O121	O	0.837513	0.208930	-0.562522
O122	O	0.271503	-0.274994	-0.562514
O123	O	0.353588	-0.216696	-0.504224
O124	O	0.271502	-0.216699	-0.504218
O125	O	0.353588	-0.274991	-0.562520
O126	O	0.204831	-0.283369	-0.437545
O127	O	0.286917	-0.283367	-0.437552
O128	O	0.204832	-0.341664	-0.495842
Cu129	Cu	0.239787	-0.318603	-0.460609
Cu130	Cu	0.318633	-0.239757	-0.539457
O131	O	0.286918	-0.341662	-0.495848
C132	C	0.044913	-0.484622	0.367116
C133	C	0.068920	-0.460276	0.391352
C134	C	0.117503	-0.412032	0.294527
C135	C	0.141400	-0.387797	0.318873
C136	C	0.117503	-0.412033	0.367116
C137	C	0.068921	-0.460275	0.318873
C138	C	-0.027650	-0.563076	0.366926
C139	C	-0.073507	-0.612650	0.389776
C140	C	-0.096505	-0.637514	0.437578
C141	C	-0.146224	-0.691266	0.462354
C142	C	-0.073656	-0.612808	0.462539
C143	C	-0.027804	-0.563236	0.439692
C144	C	-0.004801	-0.538372	0.391886
C145	C	0.123204	-0.412222	0.439869
C146	C	0.149772	-0.389373	0.462875
C147	C	0.199439	-0.341571	0.438072
C148	C	0.228249	-0.316795	0.463013
C149	C	0.222544	-0.316610	0.390261
C150	C	0.195976	-0.339457	0.367256
C151	C	0.146309	-0.387263	0.392060
C152	C	0.123206	-0.412220	0.216072
C153	C	0.149779	-0.389372	0.166495
C154	C	0.199447	-0.341570	0.141632
C155	C	0.228258	-0.316793	0.087879
C156	C	0.222551	-0.316612	0.166336
C157	C	0.195982	-0.339457	0.215911
C158	C	0.146310	-0.387262	0.240776
C159	C	-0.559119	-0.412031	0.367086
C160	C	-0.583018	-0.460274	0.391321
C161	C	-0.486519	-0.412029	0.294498
C162	C	-0.510530	-0.460272	0.318844
C163	C	-0.559118	-0.484620	0.367086
C164	C	-0.510530	-0.387793	0.318844
C165	C	-0.564820	-0.339278	0.366896
C166	C	-0.591391	-0.316272	0.389745
C167	C	-0.641065	-0.341077	0.437546
C168	C	-0.669878	-0.316136	0.462321
C169	C	-0.664172	-0.388888	0.462506
C170	C	-0.637601	-0.411892	0.439660
C171	C	-0.587928	-0.387087	0.391855
C172	C	-0.637770	-0.563076	0.439836
C173	C	-0.664497	-0.612650	0.462842
C174	C	-0.641555	-0.637513	0.438038
C175	C	-0.670533	-0.691265	0.462979
C176	C	-0.591881	-0.612805	0.390229
C177	C	-0.565154	-0.563233	0.367225
C178	C	-0.588101	-0.538370	0.392029
C179	C	-0.413945	-0.339274	0.216045
C180	C	-0.368086	-0.316268	0.166469
C181	C	-0.345084	-0.341072	0.141606
C182	C	-0.295358	-0.316129	0.087855
C183	C	-0.367937	-0.388881	0.166310
C184	C	-0.413796	-0.411889	0.215884
C185	C	-0.436798	-0.387083	0.240749
C186	C	0.117575	-0.073721	-0.367201
C187	C	0.141475	-0.098066	-0.391436
C188	C	0.044976	-0.146311	-0.294613
C189	C	0.068986	-0.170547	-0.318958
C190	C	0.117575	-0.146310	-0.367200
C191	C	0.068986	-0.098068	-0.318959
C192	C	0.123276	0.004734	-0.367013
C193	C	0.149847	0.054308	-0.389862
C194	C	0.199521	0.079172	-0.437663
C195	C	0.228334	0.132925	-0.462439
C196	C	0.222628	0.054466	-0.462623
C197	C	0.196058	0.004894	-0.439776
C198	C	0.146384	-0.019970	-0.391971
C199	C	0.196227	-0.146121	-0.439950
C200	C	0.222954	-0.168970	-0.462955
C201	C	0.200011	-0.216773	-0.438151
C202	C	0.228990	-0.241549	-0.463091
C203	C	0.150338	-0.241735	-0.390341
C204	C	0.123611	-0.218887	-0.367338
C205	C	0.146557	-0.171080	-0.392143
C206	C	-0.027599	-0.146124	-0.216160
C207	C	-0.073458	-0.168972	-0.166584
C208	C	-0.096460	-0.216775	-0.141721
C209	C	-0.146186	-0.241553	-0.087969
C210	C	-0.073607	-0.241734	-0.166424
C211	C	-0.027748	-0.218887	-0.215998
C212	C	-0.004746	-0.171082	-0.240864
C213	C	0.513520	0.249629	-0.367197
C214	C	0.489514	0.249964	-0.391434
C215	C	0.440934	0.249642	-0.294612
C216	C	0.417037	0.249977	-0.318959
C217	C	0.440933	0.249630	-0.367200
C218	C	0.489514	0.249976	-0.318955
C219	C	0.586081	0.243737	-0.367004
C220	C	0.631936	0.240014	-0.389851
C221	C	0.654932	0.238141	-0.437652
C222	C	0.704649	0.234102	-0.462425
C223	C	0.632083	0.239994	-0.462614
C224	C	0.586233	0.243719	-0.439769
C225	C	0.563232	0.245588	-0.391964
C226	C	0.435230	0.243728	-0.439952
C227	C	0.408662	0.240006	-0.462959
C228	C	0.358996	0.238146	-0.438157
C229	C	0.330186	0.234108	-0.463099
C230	C	0.335894	0.240011	-0.390348
C231	C	0.362461	0.243734	-0.367343
C232	C	0.412127	0.245590	-0.392145
C233	C	0.435232	0.243763	-0.216157
C234	C	0.408661	0.240047	-0.166581
C235	C	0.358995	0.238187	-0.141720
C236	C	0.330186	0.234162	-0.087969
C237	C	0.335891	0.240038	-0.166426
C238	C	0.362458	0.243752	-0.215999
C239	C	0.412129	0.245615	-0.240863
O240	O	-0.728544	-0.849368	0.495746
O241	O	-0.646455	-0.708992	0.437453
O242	O	-0.728530	-0.791070	0.437444
O243	O	-0.646469	-0.767290	0.495756
O244	O	-0.795209	-0.791070	0.504113
O245	O	-0.713134	-0.708992	0.504122
O246	O	-0.795223	-0.849368	0.562415
Cu247	Cu	-0.760267	-0.779180	0.539356
Cu248	Cu	-0.681411	-0.779180	0.460512
O249	O	-0.713148	-0.767290	0.562425
C250	C	0.117522	0.192029	0.367089
C251	C	0.068942	0.191695	0.391322
C252	C	0.117522	0.192018	0.294500
C253	C	0.068942	0.191684	0.318844
C254	C	0.044936	0.192031	0.367085
C255	C	0.141418	0.191682	0.318847
C256	C	0.196163	0.197918	0.366903
C257	C	0.222887	0.201638	0.389753
C258	C	0.199950	0.203512	0.437554
C259	C	0.228925	0.207549	0.462331
C260	C	0.150284	0.201660	0.462513
C261	C	0.123560	0.197937	0.439664
C262	C	0.146502	0.196068	0.391860
C263	C	-0.027624	0.197935	0.439833
C264	C	-0.073478	0.201658	0.462837
C265	C	-0.096476	0.203520	0.438031
C266	C	-0.146191	0.207560	0.462970
C267	C	-0.073627	0.201656	0.390222
C268	C	-0.027777	0.197930	0.367221
C269	C	-0.004776	0.196072	0.392026
C270	C	0.196162	0.197894	0.216049
C271	C	0.222890	0.201610	0.166473
C272	C	0.199952	0.203473	0.141608
C273	C	0.228927	0.207497	0.087857
C274	C	0.150291	0.201623	0.166311
C275	C	0.123563	0.197909	0.215884
C276	C	0.146501	0.196045	0.240751
H277	H	-0.092093	-0.148651	0.017684
H278	H	0.343596	-0.239281	-0.236384
H279	H	0.567358	0.245262	-0.328080
H280	H	0.180499	-0.078530	0.029698
H281	H	0.509605	-0.348151	-0.029787
H282	H	0.263080	0.074719	-0.501548
H283	H	-0.656456	-0.542834	0.460037
H284	H	-0.432669	-0.319072	0.236289
Br285	Br	0.118411	-0.423247	0.527760
Br286	Br	0.035440	-0.065501	0.030058
Br287	Br	0.118422	-0.423246	0.132970
Br288	Br	-0.104866	-0.306627	0.016666
Br289	Br	0.227293	0.195363	0.249796
Br290	Br	-0.104486	0.204185	0.527718
H291	H	0.295112	-0.281011	-0.369517
Br292	Br	0.502282	-0.081582	-0.473630
Br293	Br	0.003565	-0.529333	0.302047
Br294	Br	0.118484	0.087833	-0.355991
H295	H	0.509610	0.250509	-0.431073
Br296	Br	0.522993	0.250880	-0.286371
Br297	Br	-0.104874	-0.646555	0.527420
Br298	Br	0.227431	-0.028629	-0.473636
H299	H	-0.009140	-0.239211	-0.236110
H300	H	0.263324	0.203114	0.146365
H301	H	0.295450	0.238496	-0.370156
H302	H	0.083108	-0.239224	0.024427
H303	H	0.082760	-0.451144	0.236316
Br304	Br	0.206554	-0.321730	0.286299
H305	H	0.343592	-0.239279	-0.328069
H306	H	0.048820	-0.479822	0.430994
Br307	Br	-0.477016	-0.492840	0.286281
H308	H	0.262989	-0.277682	0.370068
Br309	Br	0.663318	-0.422537	-0.016774
H310	H	0.131611	0.203186	0.501438
H311	H	0.214786	-0.319130	0.328331
H312	H	-0.704940	-0.632761	0.501769
H313	H	0.650811	0.074700	-0.370135
H314	H	0.083120	0.196426	0.459988
Br315	Br	0.056149	-0.028647	0.025429
H316	H	0.131606	0.074709	0.017663
H317	H	0.427468	-0.277344	-0.017773
H318	H	0.475673	0.245243	-0.460151
Br319	Br	0.555214	0.246222	-0.473637
Br320	Br	0.440029	-0.646163	-0.016792
H321	H	0.475679	-0.542823	-0.024541
H322	H	0.263324	0.203145	0.369429
H323	H	0.509587	-0.078536	-0.299390
Br324	Br	0.206637	-0.065491	-0.457502
Br325	Br	0.003188	-0.529698	0.473573
H326	H	0.082760	-0.451148	0.460070
Br327	Br	0.662951	-0.251382	-0.016783
H328	H	-0.524370	-0.319075	0.327973
H329	H	-0.573202	-0.633056	0.370036
Br330	Br	0.522998	-0.065507	-0.457489
H331	H	0.048853	0.191137	0.299294
H332	H	0.263398	-0.148641	-0.501881
Br333	Br	0.268478	0.237507	-0.132682
H334	H	0.426831	-0.149276	-0.501533
Br335	Br	-0.104845	0.204179	0.356558
H336	H	0.214797	-0.319134	0.236025
Br337	Br	-0.104468	-0.135098	-0.133060
H338	H	-0.656421	-0.450823	0.459981
H339	H	-0.008874	-0.107199	-0.236404
H340	H	0.180518	0.191144	0.299301
Br341	Br	0.502643	0.246294	-0.249900
H342	H	0.262998	-0.277686	0.146088
Br343	Br	0.035441	-0.492854	0.286290
H344	H	0.567641	-0.450808	-0.024531
H345	H	-0.009175	0.196412	0.328295
H346	H	0.048838	-0.210196	0.029696
H347	H	-0.008914	-0.107205	0.024432
H348	H	0.048850	0.191152	0.430961
H349	H	0.048884	-0.210188	-0.299412
H350	H	0.650528	0.238497	-0.369520
H351	H	0.295442	-0.633052	-0.017765
H352	H	0.214912	-0.107195	-0.460151
Br353	Br	0.440018	0.237536	-0.133055
H354	H	0.475673	-0.319071	-0.024535
H355	H	0.214838	-0.015520	0.024437
Br356	Br	0.003590	0.195412	0.473500
Br357	Br	-0.497736	-0.529697	0.302350
Br358	Br	0.119199	-0.306616	-0.356679
Br359	Br	0.555218	-0.028656	-0.302444
H360	H	0.377943	0.250523	-0.299411
H361	H	0.377918	-0.210196	-0.299391
Br362	Br	-0.104515	-0.646175	0.355902
H363	H	-0.572573	-0.277345	0.369419
Br364	Br	0.227297	0.195375	0.302027
Br365	Br	0.119144	-0.306623	0.016657
Br366	Br	-0.648180	-0.492854	0.457387
H367	H	0.295430	-0.409083	-0.017746
H368	H	-0.009195	-0.239223	0.024430
H369	H	0.567348	-0.015525	-0.460137
H370	H	0.295111	-0.281011	-0.146453
H371	H	-0.490463	-0.348167	0.299286
H372	H	0.343643	-0.543114	-0.024516
Br373	Br	0.663299	0.237453	-0.527492
H374	H	-0.349479	-0.277340	0.146360
H375	H	0.343633	-0.450818	-0.024504
H376	H	0.083126	0.196403	0.235996
Br377	Br	-0.104821	-0.306612	-0.132678
Br378	Br	-0.731590	-0.422552	0.527385
Br379	Br	0.440018	0.237477	-0.527839
Br380	Br	0.662938	0.087816	-0.527827
H381	H	0.263314	-0.148657	0.017694
Br382	Br	0.227283	-0.081257	0.025459
Br383	Br	-0.444817	-0.476776	0.249410
Br384	Br	-0.336720	-0.422547	0.132565
H385	H	0.048894	-0.078519	-0.299415
H386	H	0.475314	-0.107535	-0.236092
Br387	Br	0.056192	-0.252764	-0.302462
H388	H	0.343647	0.245248	-0.328415
Br389	Br	0.119159	0.204154	0.132563
H390	H	0.426823	-0.149271	-0.146155
Br391	Br	0.351873	-0.492850	-0.030147
H392	H	0.082827	-0.015510	-0.328089
H393	H	0.263320	0.074409	0.017687
Br394	Br	0.331101	0.246260	-0.249528
H395	H	0.509612	-0.479810	-0.029797
H396	H	0.567362	-0.319069	-0.024537
