data_functionalizedCrystal
_audit_creation_method	'MofGen! by Chris Wilmer'
_symmetry_space_group_name_H-M	'P1'
_symmetry_Int_Tables_number	1
_symmetry_cell_setting	triclinic
loop_
_symmetry_equiv_pos_as_xyz
  x,y,z
_cell_length_a	17.699083
_cell_length_b	8.965430
_cell_length_c	17.699083
_cell_angle_alpha	89.998442
_cell_angle_beta	96.716985
_cell_angle_gamma	89.991054
loop_
_atom_site_label
_atom_site_type_symbol
_atom_site_fract_x
_atom_site_fract_y
_atom_site_fract_z
O1	O	1.004068	0.123833	-0.095708
O2	O	0.783690	0.123882	-0.108160
O3	O	0.900105	0.123843	0.008255
O4	O	0.887653	0.123872	-0.212123
O5	O	0.900111	-0.124236	0.008252
O6	O	0.783695	-0.124196	-0.108164
O7	O	1.004074	-0.124246	-0.095711
Cu8	Cu	0.893885	-0.146873	-0.101938
Cu9	Cu	0.893878	0.146509	-0.101934
O10	O	0.887658	-0.124207	-0.212127
C11	C	0.755495	-0.000151	-0.107716
C12	C	0.671477	-0.000132	-0.106377
N13	N	0.893895	-0.353222	-0.101940
C14	C	0.622856	-0.000124	-0.174710
C15	C	0.543913	-0.000143	-0.173448
C16	C	0.513592	-0.000161	-0.103852
C17	C	0.562219	-0.000174	-0.035513
C18	C	0.641161	-0.000165	-0.036776
C19	C	0.243856	-0.000211	-0.030418
C20	C	0.164908	-0.000216	-0.029160
C21	C	0.146608	-0.000190	-0.167090
C22	C	0.225550	-0.000181	-0.168353
C23	C	0.274170	-0.000202	-0.100015
C24	C	0.359769	-0.000183	-0.101384
C25	C	0.427995	-0.000168	-0.102481
C26	C	0.947750	-0.450506	-0.048106
C27	C	0.879384	-0.549897	-0.033531
C28	C	0.962235	-0.549958	-0.116466
C29	C	0.825494	-0.450424	-0.087332
C30	C	0.908390	-0.450476	-0.170297
C31	C	0.839974	-0.549823	-0.155751
C32	C	1.032268	-0.000209	-0.096156
C33	C	1.116286	-0.000218	-0.097494
C34	C	0.899662	-0.000196	0.036451
C35	C	0.898323	-0.000197	0.120469
N36	N	0.893874	0.352858	-0.101925
C37	C	0.888102	-0.000164	-0.240322
C38	C	0.889440	-0.000154	-0.324340
C39	C	0.966656	-0.000214	0.169090
C40	C	0.965394	-0.000200	0.248033
C41	C	0.895798	-0.000180	0.278354
C42	C	0.827459	-0.000158	0.229727
C43	C	0.828722	-0.000161	0.150785
C44	C	0.822364	-0.000145	0.548090
C45	C	0.821106	-0.000147	0.627038
C46	C	0.959036	-0.000184	0.645338
C47	C	0.960299	-0.000187	0.566396
C48	C	0.891961	-0.000157	0.517776
C49	C	0.893330	-0.000169	0.432177
C50	C	0.894427	-0.000179	0.363951
H51	H	0.647537	-0.000109	-0.231384
H52	H	0.767679	-0.406888	-0.074973
H53	H	1.014680	-0.000201	0.684934
H54	H	0.250232	-0.000160	-0.225025
H55	H	0.766718	-0.000121	0.508512
Cl56	Cl	0.085481	-0.000170	-0.253002
H57	H	0.794372	-0.593156	-0.201274
Cl58	Cl	0.927374	-0.382987	-0.259528
H59	H	0.993251	-0.406896	-0.002556
Cl60	Cl	0.733606	-0.000118	0.665153
H61	H	0.867110	-0.593569	0.024283
H62	H	1.021038	-0.000218	0.287618
H63	H	0.140225	-0.000232	0.027517
H64	H	0.283434	-0.000230	0.025228
Cl65	Cl	1.047795	-0.000208	0.528283
Cl66	Cl	1.054154	-0.000255	0.130980
Cl67	Cl	0.524102	-0.000205	0.051980
H68	H	0.680748	-0.000171	0.018868
Cl69	Cl	0.482792	-0.000123	-0.259357
H70	H	1.020037	-0.593678	-0.128759
H71	H	0.770792	-0.000133	0.254420
Cl72	Cl	0.742814	-0.000134	0.089661
