data_functionalizedCrystal
_audit_creation_method	'MofGen! by Chris Wilmer'
_symmetry_space_group_name_H-M	'P1'
_symmetry_Int_Tables_number	1
_symmetry_cell_setting	triclinic
loop_
_symmetry_equiv_pos_as_xyz
  x,y,z
_cell_length_a	10.686220
_cell_length_b	12.759400
_cell_length_c	10.686551
_cell_angle_alpha	94.404840
_cell_angle_beta	89.691918
_cell_angle_gamma	94.394725
loop_
_atom_site_label
_atom_site_type_symbol
_atom_site_fract_x
_atom_site_fract_y
_atom_site_fract_z
Zn1	Zn	1.972298	-0.256137	0.562391
Zn2	Zn	1.956076	-0.446297	0.352635
Zn3	Zn	1.746417	-0.283013	0.368709
Zn4	Zn	1.762506	-0.444167	0.578413
O5	O	1.859324	-0.357404	0.465537
O6	O	2.145687	-0.271006	0.521134
O7	O	1.914742	-0.436775	0.179222
O8	O	1.776436	-0.132422	0.394422
O9	O	2.133769	-0.410715	0.367028
O10	O	1.942390	-0.112676	0.536719
O11	O	1.760707	-0.316812	0.191031
O12	O	1.573010	-0.314747	0.409958
O13	O	1.803857	-0.407086	0.751833
O14	O	1.584830	-0.433147	0.564027
O15	O	1.957990	-0.268941	0.740061
O16	O	1.930343	-0.593040	0.382564
O17	O	1.788128	-0.591476	0.548442
C18	C	1.533404	-0.376633	0.490476
C19	C	1.393976	-0.384883	0.501175
C20	C	1.859257	-0.630376	0.465522
C21	C	1.859346	-0.747145	0.465549
C22	C	1.945723	-0.791644	0.539712
C23	C	1.945783	-0.901362	0.539738
C24	C	1.773086	-0.922075	0.391428
C25	C	1.773021	-0.812358	0.391409
C26	C	2.032048	-0.726431	0.613852
C27	C	2.118433	-0.770929	0.688020
C28	C	2.118494	-0.880647	0.688046
C29	C	2.032169	-0.945868	0.613904
C30	C	2.186517	-0.338100	0.440501
C31	C	2.325947	-0.329874	0.429832
C32	C	1.884528	-0.334778	0.792737
C33	C	1.895268	-0.325137	0.932170
C34	C	1.859428	-0.083361	0.465576
C35	C	1.859472	0.033419	0.465593
C36	C	1.834290	-0.379861	0.139604
C37	C	1.823793	-0.389192	0.000153
H38	H	1.345547	-0.438299	0.570438
C39	C	1.795090	-0.541621	0.853959
C40	C	1.730091	-0.473185	0.934727
H41	H	1.737239	-0.593470	0.813556
H42	H	1.853605	-0.575091	0.900893
H43	H	1.838490	-0.502712	0.792639
H44	H	1.686698	-0.512092	0.996053
H45	H	1.671553	-0.439712	0.887790
H46	H	2.032011	-0.637092	0.613836
C47	C	1.460419	-0.318099	0.249946
C48	C	1.391312	-0.257771	0.336326
H49	H	1.500783	-0.273582	0.192225
H50	H	1.405585	-0.370115	0.205747
H51	H	1.521771	-0.351501	0.293286
H52	H	1.329953	-0.224375	0.292987
H53	H	1.446150	-0.205736	0.380529
H54	H	1.964688	-0.262920	0.980642
C55	C	1.555918	-0.795496	0.346388
C56	C	1.678073	-0.763435	0.309893
H57	H	1.497299	-0.765295	0.296061
H58	H	1.543990	-0.772765	0.432058
H59	H	1.543616	-0.870172	0.335774
H60	H	1.690378	-0.688758	0.320515
H61	H	1.690006	-0.786159	0.224202
C62	C	1.695799	-0.974239	0.183631
C63	C	1.678209	-0.993760	0.309925
H64	H	1.637221	-1.018490	0.133315
H65	H	1.778690	-0.988464	0.158903
H66	H	1.683394	-0.902524	0.173023
H67	H	1.690623	-1.065473	0.320535
H68	H	1.595298	-0.979543	0.334661
H69	H	2.188823	-0.916874	0.748447
C70	C	2.195028	-0.593543	0.753829
C71	C	2.213315	-0.699243	0.769515
H72	H	2.253612	-0.549291	0.804139
H73	H	2.112140	-0.579323	0.778571
H74	H	2.206953	-0.580329	0.668139
H75	H	2.201381	-0.712460	0.855204
H76	H	2.296224	-0.713469	0.744780
H77	H	2.032212	-1.035207	0.613947
