data_functionalizedCrystal
_audit_creation_method	'MofGen! by Chris Wilmer'
_symmetry_space_group_name_H-M	'P1'
_symmetry_Int_Tables_number	1
_symmetry_cell_setting	triclinic
loop_
_symmetry_equiv_pos_as_xyz
  x,y,z
_cell_length_a	14.908782
_cell_length_b	15.299816
_cell_length_c	14.908308
_cell_angle_alpha	103.454544
_cell_angle_beta	96.759680
_cell_angle_gamma	76.552498
loop_
_atom_site_label
_atom_site_type_symbol
_atom_site_fract_x
_atom_site_fract_y
_atom_site_fract_z
Zn1	Zn	1.431230	-0.470911	-0.508927
Zn2	Zn	1.463637	-0.616255	-0.381379
Zn3	Zn	1.285870	-0.454183	-0.363591
Zn4	Zn	1.303602	-0.616204	-0.541431
O5	O	1.371085	-0.539388	-0.448832
O6	O	1.563338	-0.497214	-0.485848
O7	O	1.446197	-0.587776	-0.251214
O8	O	1.284170	-0.327768	-0.361823
O9	O	1.587147	-0.603997	-0.392139
O10	O	1.390965	-0.340059	-0.468600
O11	O	1.315593	-0.468702	-0.238145
O12	O	1.160413	-0.468653	-0.393341
O13	O	1.314390	-0.603911	-0.664925
O14	O	1.173440	-0.587690	-0.523999
O15	O	1.408159	-0.497164	-0.641044
O16	O	1.463390	-0.744882	-0.423657
O17	O	1.345813	-0.744845	-0.541247
C18	C	1.133787	-0.526351	-0.460268
C19	C	1.032273	-0.520797	-0.465186
C20	C	0.866290	-0.621383	-0.376643
C21	C	0.770909	-0.616168	-0.381261
C22	C	0.746129	-0.505156	-0.479045
C23	C	0.841510	-0.510371	-0.474427
C24	C	0.901588	-0.568486	-0.423223
C25	C	0.996970	-0.573696	-0.418600
C26	C	0.972189	-0.462690	-0.516389
C27	C	0.876808	-0.457474	-0.521007
C28	C	1.410066	-0.778219	-0.487928
C29	C	1.426825	-0.880398	-0.504680
C30	C	1.251892	-1.143132	-0.329384
C31	C	1.236142	-1.047129	-0.313647
C32	C	1.283811	-1.005442	-0.361404
C33	C	1.347234	-1.059766	-0.424901
C34	C	1.362980	-1.155778	-0.440644
C35	C	1.394900	-1.018088	-0.472664
C36	C	1.458322	-1.072412	-0.536161
C37	C	1.474066	-1.168414	-0.551901
C38	C	1.426396	-1.210102	-0.504145
C39	C	1.379153	-0.922076	-0.456920
C40	C	1.490241	-0.934722	-0.568180
C41	C	1.505991	-1.030724	-0.583917
C42	C	1.609309	-0.552477	-0.437352
C43	C	1.710825	-0.558055	-0.432460
C44	C	1.359638	-0.552398	-0.687050
C45	C	1.354760	-0.557942	-0.788564
C46	C	1.331975	-0.299628	-0.409602
C47	C	1.315308	-0.197456	-0.392884
C48	C	1.443228	-0.457183	-0.954451
C49	C	1.438647	-0.462389	-1.049832
C50	C	1.341012	-0.573554	-1.074708
C51	C	1.345593	-0.568348	-0.979327
C52	C	1.396704	-0.510161	-0.919201
C53	C	1.401290	-0.504961	-0.823819
C54	C	1.303649	-0.616121	-0.848696
C55	C	1.299068	-0.621327	-0.944077
C56	C	1.382529	-0.526366	-0.211528
C57	C	1.387542	-0.520573	-0.109963
H58	H	0.915206	-0.668697	-0.334944
Br59	Br	0.664584	-0.426314	-0.548554
H60	H	1.476529	-0.419245	-1.078527
H61	H	0.827880	-0.410162	-0.562699
Br62	Br	1.271642	-0.652505	-1.156319
Br63	Br	1.560116	-1.242139	-0.638098
H64	H	1.529056	-0.900781	-0.607070
Br65	Br	1.020095	-0.390883	-0.579594
Br66	Br	1.447995	-1.340396	-0.525275
Br67	Br	1.229703	-0.700287	-1.025682
H68	H	1.557630	-1.074969	-0.635617
Br69	Br	1.078503	-0.652563	-0.349108
H70	H	1.327514	-0.877854	-0.405221
H71	H	0.742175	-0.659244	-0.343333
H72	H	1.265768	-0.659263	-0.819987
H73	H	1.270985	-0.927272	-0.348586
Br74	Br	1.150059	-0.973410	-0.227491
H75	H	1.213082	-1.177083	-0.290512
H76	H	1.442908	-0.457584	-0.774866
H77	H	1.484850	-0.409810	-0.905496
