data_functionalizedCrystal
_audit_creation_method	'MofGen! by Chris Wilmer'
_symmetry_space_group_name_H-M	'P1'
_symmetry_Int_Tables_number	1
_symmetry_cell_setting	triclinic
loop_
_symmetry_equiv_pos_as_xyz
  x,y,z
_cell_length_a	15.995350
_cell_length_b	15.995350
_cell_length_c	15.072220
_cell_angle_alpha	90.008851
_cell_angle_beta	90.001101
_cell_angle_gamma	96.507625
loop_
_atom_site_label
_atom_site_type_symbol
_atom_site_fract_x
_atom_site_fract_y
_atom_site_fract_z
O1	O	0.107921	-1.110996	-0.073703
O2	O	0.607921	-0.610996	0.426297
O3	O	0.121249	-0.867221	-0.073721
O4	O	0.621249	-0.367221	0.426279
O5	O	-0.007303	-0.995772	-0.073710
O6	O	0.492697	-0.495772	0.426290
O7	O	0.236472	-0.982444	-0.073713
O8	O	0.736472	-0.482444	0.426287
O9	O	-0.007296	-0.995740	0.073855
O10	O	0.492704	-0.495740	0.573855
O11	O	0.121256	-0.867189	0.073844
O12	O	0.621256	-0.367189	0.573844
O13	O	0.107928	-1.110964	0.073862
O14	O	0.607928	-0.610964	0.573862
Zn15	Zn	0.114593	-0.989071	0.097283
Zn16	Zn	0.614593	-0.489071	0.597283
Zn17	Zn	0.114584	-0.989113	-0.097141
Zn18	Zn	0.614584	-0.489113	0.402859
O19	O	0.236480	-0.982413	0.073852
O20	O	0.736480	-0.482413	0.573852
C21	C	0.120701	-0.836010	0.000060
C22	C	0.620701	-0.336010	0.500060
C23	C	0.119049	-0.743060	0.000053
C24	C	0.619049	-0.243060	0.500053
C25	C	-0.038494	-0.995205	0.000070
C26	C	0.461506	-0.495205	0.500070
C27	C	-0.131444	-0.993553	0.000065
C28	C	0.368556	-0.493553	0.500065
C29	C	0.108476	-1.142175	0.000080
C30	C	0.608476	-0.642175	0.500080
C31	C	0.110127	-1.235125	0.000081
C32	C	0.610127	-0.735125	0.500081
C33	C	-0.469192	-0.987621	0.000068
C34	C	0.030808	-0.487621	0.500068
C35	C	-0.421758	-0.896069	-0.000270
C36	C	0.078242	-0.396069	0.499730
C37	C	-0.325068	-0.897721	0.000063
C38	C	0.174932	-0.397721	0.500063
C39	C	-0.301631	-0.990564	0.000066
C40	C	0.198369	-0.490564	0.500066
C41	C	-0.342705	-1.035702	0.084335
C42	C	0.157295	-0.535702	0.584335
C43	C	-0.439341	-1.033402	0.084405
C44	C	0.060659	-0.533402	0.584405
C45	C	-0.439707	-1.035330	-0.083404
C46	C	0.060293	-0.535330	0.416596
C47	C	-0.342761	-1.035308	-0.084518
C48	C	0.157239	-0.535308	0.415482
C49	C	-0.206934	-0.992231	0.000068
C50	C	0.293066	-0.492231	0.500068
C51	C	-0.563890	-0.985956	0.000072
C52	C	-0.063890	-0.485956	0.500072
C53	C	0.267671	-0.982980	0.000069
C54	C	0.767671	-0.482980	0.500069
C55	C	0.360621	-0.984631	0.000069
C56	C	0.860621	-0.484631	0.500069
N57	N	0.114599	-0.989049	0.229971
N58	N	0.614599	-0.489049	0.729971
C59	C	0.113117	-0.405312	0.000071
C60	C	0.613117	0.094688	0.500071
C61	C	0.021565	-0.452746	0.000401
C62	C	0.521565	0.047254	0.500401
C63	C	0.023217	-0.549436	0.000063
C64	C	0.523217	-0.049436	0.500063
C65	C	0.116060	-0.572873	0.000063
C66	C	0.616060	-0.072873	0.500063
C67	C	0.161212	-0.531804	-0.084201
C68	C	0.661212	-0.031804	0.415799
C69	C	0.158912	-0.435168	-0.084266
C70	C	0.658912	0.064832	0.415734
C71	C	0.160812	-0.434793	0.083543
C72	C	0.660812	0.065207	0.583543
C73	C	0.160790	-0.531738	0.084651
C74	C	0.660790	-0.031738	0.584651
C75	C	0.117727	-0.667570	0.000055
C76	C	0.617727	-0.167570	0.500055
C77	C	0.111452	-0.310614	0.000073
C78	C	0.611452	0.189386	0.500073
N79	N	0.114571	-0.989142	-0.229830
N80	N	0.614571	-0.489142	0.270170
C81	C	0.114580	-0.989112	0.589173
C82	C	0.614580	-0.489112	1.089173
C83	C	0.183135	-0.920095	0.551560
C84	C	0.683135	-0.420095	1.051560
C85	C	0.183385	-0.920254	0.448735
C86	C	0.683385	-0.420254	0.948735
C87	C	0.114590	-0.989080	0.410969
C88	C	0.614590	-0.489080	0.910969
C89	C	0.133671	-1.076445	0.448266
C90	C	0.633671	-0.576445	0.948266
C91	C	0.134159	-1.076058	0.551124
C92	C	0.634159	-0.576058	1.051124
C93	C	0.026741	-0.971542	0.551272
C94	C	0.526741	-0.471542	1.051272
C95	C	0.027327	-0.969537	0.448409
C96	C	0.527327	-0.469537	0.948409
C97	C	0.114593	-0.989067	0.310255
C98	C	0.614593	-0.489067	0.810255
C99	C	0.114579	-0.989130	0.689886
C100	C	0.614579	-0.489130	1.189886
H101	H	-0.440293	-0.859490	-0.060701
H102	H	0.059707	-0.359490	0.439299
C103	C	0.249709	-0.391600	-0.089455
C104	C	0.749709	0.108400	0.410545
H105	H	0.287835	-0.432984	-0.091521
H106	H	0.787835	0.067016	0.408479
H107	H	0.261269	-0.357073	-0.038646
H108	H	0.761269	0.142927	0.461354
H109	H	0.256038	-0.357876	-0.141423
H110	H	0.756038	0.142124	0.358577
H111	H	-0.327400	-1.103014	-0.089603
H112	H	0.172600	-0.603014	0.410397
C113	C	0.068022	-1.147488	0.415218
C114	C	0.568022	-0.647488	0.915218
H115	H	0.080747	-1.199747	0.438558
H116	H	0.580747	-0.699747	0.938558
H117	H	0.069205	-1.149488	0.352246
H118	H	0.569205	-0.649488	0.852246
H119	H	0.013609	-1.137062	0.434479
H120	H	0.513609	-0.637062	0.934479
H121	H	-0.328579	-1.103910	0.087471
H122	H	0.171421	-0.603910	0.587471
C123	C	-0.448222	-0.846828	0.080896
C124	C	0.051778	-0.346828	0.580896
H125	H	-0.419280	-0.791583	0.080178
H126	H	0.080720	-0.291583	0.580178
H127	H	-0.434565	-0.874762	0.133673
H128	H	0.065435	-0.374762	0.633673
H129	H	-0.507157	-0.843747	0.078899
H130	H	-0.007157	-0.343747	0.578899
H131	H	0.171953	-0.854945	0.576317
H132	H	0.671953	-0.354945	1.076317
H133	H	0.172016	-0.855314	0.423519
H134	H	0.672016	-0.355314	0.923519
C135	C	0.270705	-0.935056	0.586428
C136	C	0.770705	-0.435056	1.086428
H137	H	0.311754	-0.893089	0.563381
H138	H	0.811754	-0.393089	1.063381
H139	H	0.283392	-0.989003	0.568022
H140	H	0.783392	-0.489003	1.068022
H141	H	0.270998	-0.932296	0.649391
H142	H	0.770998	-0.432296	1.149391
H143	H	-0.457639	-1.000460	0.147395
H144	H	0.042361	-0.500460	0.647395
H145	H	-0.297200	-0.861974	0.060568
H146	H	0.202800	-0.361974	0.560568
H147	H	-0.314320	-1.004325	0.147042
H148	H	0.185680	-0.504325	0.647042
C149	C	-0.467450	-0.994911	-0.169688
C150	C	0.032550	-0.494911	0.330312
H151	H	-0.497278	-0.948556	-0.155609
H152	H	0.002722	-0.448556	0.344391
H153	H	-0.502926	-1.035315	-0.202590
H154	H	-0.002926	-0.535315	0.297410
H155	H	-0.419253	-0.975904	-0.204087
H156	H	0.080747	-0.475904	0.295913
H157	H	0.125979	-0.416873	-0.147255
H158	H	0.625979	0.083127	0.352745
H159	H	-0.315516	-1.002306	-0.146857
H160	H	0.184484	-0.502306	0.353143
H161	H	0.248570	-0.931473	0.424121
H162	H	0.748570	-0.431473	0.924121
C163	C	-0.025046	-0.587096	-0.081684
C164	C	0.474954	-0.087096	0.418316
H165	H	-0.024205	-0.646388	-0.082168
H166	H	0.475795	-0.146388	0.417832
H167	H	0.000922	-0.563616	-0.134096
H168	H	0.500922	-0.063616	0.365904
H169	H	-0.081640	-0.574528	-0.079215
H170	H	0.418360	-0.074528	0.420785
H171	H	0.198219	-1.091540	0.575106
H172	H	0.698219	-0.591540	1.075106
C173	C	-0.027658	-0.426299	-0.080775
C174	C	0.472342	0.073701	0.419225
H175	H	-0.082901	-0.455245	-0.080064
H176	H	0.417099	0.044755	0.419936
H177	H	0.000294	-0.439965	-0.133544
H178	H	0.500294	0.060035	0.366456
H179	H	-0.030743	-0.367364	-0.078788
H180	H	0.469257	0.132636	0.421212
C181	C	0.001970	-0.887331	0.586338
C182	C	0.501970	-0.387331	1.086338
H183	H	0.044974	-0.862097	0.624425
H184	H	0.544974	-0.362097	1.124425
H185	H	-0.049349	-0.897112	0.618374
H186	H	0.450651	-0.397112	1.118374
H187	H	-0.004973	-0.850819	0.537843
H188	H	0.495027	-0.350819	1.037843
H189	H	0.229421	-0.545929	-0.087335
H190	H	0.729421	-0.045929	0.412665
H191	H	0.129845	-0.560191	-0.146912
H192	H	0.629845	-0.060191	0.353088
C193	C	0.069272	-1.147515	0.584739
C194	C	0.569272	-0.647515	1.084739
H195	H	0.042737	-1.176657	0.535530
H196	H	0.542737	-0.676657	1.035530
H197	H	0.028127	-1.124493	0.619768
H198	H	0.528127	-0.624493	1.119768
H199	H	0.096931	-1.185491	0.619645
H200	H	0.596931	-0.685491	1.119645
H201	H	0.012846	-0.905271	0.424032
H202	H	0.512846	-0.405271	0.924032
H203	H	-0.471468	-1.102831	-0.083968
H204	H	0.028532	-0.602831	0.416032
C205	C	-0.286670	-0.849776	-0.081532
C206	C	0.213330	-0.349776	0.418468
H207	H	-0.330160	-0.829108	-0.115180
H208	H	0.169840	-0.329108	0.384820
H209	H	-0.258380	-0.886677	-0.117185
H210	H	0.241620	-0.386677	0.382815
H211	H	-0.247790	-0.803945	-0.062562
H212	H	0.252210	-0.303945	0.437438
C213	C	0.219224	-1.097867	0.413463
C214	C	0.719224	-0.597867	0.913463
H215	H	0.230207	-1.150855	0.436401
H216	H	0.730207	-0.650855	0.936401
H217	H	0.262311	-1.055718	0.432019
H218	H	0.762311	-0.555718	0.932019
H219	H	0.217926	-1.100258	0.350493
H220	H	0.717926	-0.600258	0.850493
C221	C	0.252256	-0.552480	0.091530
C222	C	0.752256	-0.052480	0.591530
H223	H	0.277710	-0.526843	0.143204
H224	H	0.777710	-0.026843	0.643204
H225	H	0.282788	-0.531672	0.040575
H226	H	0.782788	-0.031672	0.540575
H227	H	0.252697	-0.611727	0.095068
H228	H	0.752697	-0.111727	0.595068
C229	C	-0.044821	-1.033038	0.413698
C230	C	0.455179	-0.533038	0.913698
H231	H	-0.022569	-1.072479	0.375752
H232	H	0.477431	-0.572479	0.875752
H233	H	-0.083693	-1.003985	0.381585
H234	H	0.416307	-0.503985	0.881585
H235	H	-0.072703	-1.061846	0.462350
H236	H	0.427297	-0.561846	0.962350
C237	C	-0.042180	-1.039525	0.584135
C238	C	0.457820	-0.539525	1.084135
H239	H	-0.017589	-1.078431	0.620776
H240	H	0.482411	-0.578431	1.120776
H241	H	-0.068619	-1.068308	0.534672
H242	H	0.431381	-0.568308	1.034672
H243	H	-0.082841	-1.013774	0.617253
H244	H	0.417159	-0.513774	1.117253
C245	C	-0.024729	-0.587828	0.081660
C246	C	0.475271	-0.087828	0.581660
H247	H	-0.045399	-0.544336	0.115313
H248	H	0.454601	-0.044336	0.615313
H249	H	0.012175	-0.616111	0.117308
H250	H	0.512175	-0.116111	0.617308
H251	H	-0.070559	-0.626713	0.062698
H252	H	0.429441	-0.126713	0.562698
C253	C	-0.027871	-0.427703	0.082032
C254	C	0.472129	0.072297	0.582032
H255	H	0.006876	-0.388090	0.116643
H256	H	0.506876	0.111910	0.616643
H257	H	-0.044703	-0.476278	0.116728
H258	H	0.455297	0.023722	0.616728
H259	H	-0.076280	-0.403269	0.063085
H260	H	0.423720	0.096731	0.563085
C261	C	0.120386	-0.407035	0.169827
C262	C	0.620386	0.092965	0.669827
H263	H	0.074035	-0.377206	0.155748
H264	H	0.574035	0.122794	0.655748
H265	H	0.160790	-0.371557	0.202726
H266	H	0.660790	0.128443	0.702726
H267	H	0.101372	-0.455225	0.204230
H268	H	0.601372	0.044775	0.704230
H269	H	0.127829	-0.559041	0.146989
H270	H	0.627829	-0.059041	0.646989
C271	C	0.251999	-0.391891	0.084315
C272	C	0.751999	0.108109	0.584315
H273	H	0.260994	-0.356181	0.034045
H274	H	0.760994	0.143819	0.534045
H275	H	0.289819	-0.433561	0.082462
H276	H	0.789819	0.066439	0.582462
H277	H	0.261432	-0.359449	0.136907
H278	H	0.761432	0.140551	0.636907
H279	H	-0.471588	-1.100617	0.088231
H280	H	0.028412	-0.600617	0.588231
