data_functionalizedCrystal
_audit_creation_method	'MofGen! by Chris Wilmer'
_symmetry_space_group_name_H-M	'P1'
_symmetry_Int_Tables_number	1
_symmetry_cell_setting	triclinic
loop_
_symmetry_equiv_pos_as_xyz
  x,y,z
_cell_length_a	19.805407
_cell_length_b	16.625546
_cell_length_c	19.805398
_cell_angle_alpha	89.973797
_cell_angle_beta	89.984135
_cell_angle_gamma	90.022468
loop_
_atom_site_label
_atom_site_type_symbol
_atom_site_fract_x
_atom_site_fract_y
_atom_site_fract_z
Zn1	Zn	1.034729	-0.321034	-0.382718
Zn2	Zn	1.368063	0.012300	-0.049385
Zn3	Zn	1.701396	0.345633	0.283948
Zn4	Zn	1.034659	-0.455867	-0.269529
Zn5	Zn	1.367993	-0.122533	0.063804
Zn6	Zn	1.701326	0.210800	0.397137
Zn7	Zn	0.921551	-0.321052	-0.269543
Zn8	Zn	1.254885	0.012281	0.063790
Zn9	Zn	1.588218	0.345615	0.397124
Zn10	Zn	0.921515	-0.455828	-0.382676
Zn11	Zn	1.254849	-0.122495	-0.049343
Zn12	Zn	1.588182	0.210839	0.283990
O13	O	0.978114	-0.388445	-0.326117
O14	O	1.311447	-0.055112	0.007217
O15	O	1.644781	0.278222	0.340550
O16	O	1.129437	-0.338928	-0.367716
O17	O	1.462770	-0.005595	-0.034382
O18	O	1.796103	0.327739	0.298951
O19	O	1.019641	-0.438007	-0.174815
O20	O	1.352974	-0.104674	0.158519
O21	O	1.686308	0.228659	0.491852
O22	O	0.936609	-0.208217	-0.284579
O23	O	1.269942	0.125116	0.048754
O24	O	1.603276	0.458450	0.382088
O25	O	1.129385	-0.437990	-0.284556
O26	O	1.462719	-0.104656	0.048777
O27	O	1.796052	0.228677	0.382110
O28	O	1.019761	-0.208204	-0.367729
O29	O	1.353094	0.125130	-0.034395
O30	O	1.686427	0.458463	0.298938
O31	O	0.936541	-0.338959	-0.174825
O32	O	1.269875	-0.005626	0.158509
O33	O	1.603208	0.327707	0.491842
O34	O	0.826830	-0.338922	-0.284538
O35	O	1.160163	-0.005588	0.048795
O36	O	1.493497	0.327745	0.382128
O37	O	0.936548	-0.437923	-0.477398
O38	O	1.269881	-0.104590	-0.144065
O39	O	1.603214	0.228744	0.189268
O40	O	0.826804	-0.437941	-0.367657
O41	O	1.160137	-0.104608	-0.034324
O42	O	1.493470	0.228726	0.299010
O43	O	1.019726	-0.338890	-0.477429
O44	O	1.353059	-0.005557	-0.144096
O45	O	1.686392	0.327776	0.189237
O46	O	1.019606	-0.568694	-0.284515
O47	O	1.352940	-0.235361	0.048818
O48	O	1.686273	0.097973	0.382151
O49	O	0.936480	-0.568665	-0.367644
O50	O	1.269813	-0.235332	-0.034311
O51	O	1.603146	0.098001	0.299023
C52	C	0.802258	-0.388430	-0.326095
C53	C	1.135591	-0.055096	0.007238
C54	C	1.468925	0.278237	0.340572
C55	C	0.727026	-0.388442	-0.326102
C56	C	1.060359	-0.055109	0.007232
C57	C	1.393693	0.278224	0.340565
C58	C	0.691686	-0.440079	-0.369311
C59	C	1.025019	-0.106746	-0.035978
C60	C	1.358352	0.226587	0.297355
C61	C	0.620997	-0.440081	-0.369321
C62	C	0.954331	-0.106747	-0.035988
C63	C	1.287664	0.226586	0.297346
C64	C	0.585650	-0.388449	-0.326117
C65	C	0.918984	-0.055115	0.007217
C66	C	1.252317	0.278218	0.340550
C67	C	0.620995	-0.336806	-0.282905
C68	C	0.954329	-0.003473	0.050428
C69	C	1.287662	0.329861	0.383762
C70	C	0.691683	-0.336801	-0.282899
C71	C	1.025016	-0.003468	0.050434
C72	C	1.358349	0.329866	0.383767
C73	C	0.335922	-0.336824	-0.282927
C74	C	0.669256	-0.003491	0.050406
C75	C	1.002589	0.329843	0.383739
C76	C	0.265230	-0.336834	-0.282935
C77	C	0.598563	-0.003501	0.050398
C78	C	0.931897	0.329832	0.383732
C79	C	0.265237	-0.440104	-0.369349
C80	C	0.598570	-0.106770	-0.036016
C81	C	0.931903	0.226563	0.297318
C82	C	0.335924	-0.440099	-0.369343
C83	C	0.669257	-0.106765	-0.036010
C84	C	1.002591	0.226568	0.297323
C85	C	0.371263	-0.388453	-0.326134
C86	C	0.704596	-0.055120	0.007199
C87	C	1.037930	0.278213	0.340532
C88	C	0.447911	-0.388451	-0.326125
C89	C	0.781245	-0.055118	0.007208
C90	C	1.114578	0.278215	0.340541
C91	C	0.509003	-0.388454	-0.326122
C92	C	0.842337	-0.055121	0.007212
C93	C	1.175670	0.278212	0.340545
C94	C	0.978050	-0.597936	-0.326088
C95	C	1.311383	-0.264603	0.007245
C96	C	1.644717	0.068731	0.340578
C97	C	0.978084	-0.687557	-0.326099
C98	C	1.311418	-0.354224	0.007234
C99	C	1.644751	-0.020890	0.340568
C100	C	0.978202	-1.015733	-0.326169
C101	C	1.311536	-0.682399	0.007164
C102	C	1.644869	-0.349066	0.340497
C103	C	0.978167	-0.924424	-0.326152
C104	C	1.311501	-0.591091	0.007182
C105	C	1.644834	-0.257757	0.340515
C106	C	0.978143	-0.851648	-0.326134
C107	C	1.311476	-0.518314	0.007200
C108	C	1.644810	-0.184981	0.340533
C109	C	0.978109	-0.760333	-0.326117
C110	C	1.311442	-0.427000	0.007217
C111	C	1.644776	-0.093667	0.340550
C112	C	1.154657	-0.388461	-0.326139
C113	C	1.487990	-0.055128	0.007194
C114	C	1.821323	0.278206	0.340528
C115	C	1.229889	-0.388468	-0.326149
C116	C	1.563222	-0.055135	0.007185
C117	C	1.896555	0.278199	0.340518
C118	C	0.978140	-0.388400	-0.502660
C119	C	1.311474	-0.055067	-0.169326
C120	C	1.644807	0.278266	0.164007
C121	C	0.978152	-0.388381	-0.577892
C122	C	1.311485	-0.055048	-0.244558
C123	C	1.644818	0.278285	0.088775
C124	C	0.978197	-0.178136	-0.326160
C125	C	1.311530	0.155197	0.007173
C126	C	1.644863	0.488531	0.340507
C127	C	0.978232	-0.088515	-0.326178
C128	C	1.311565	0.244818	0.007155
C129	C	1.644899	0.578152	0.340488
C130	C	1.021544	-0.336672	-1.039700
C131	C	1.354877	-0.003339	-0.706367
C132	C	1.688211	0.329994	-0.373033
C133	C	1.021533	-0.336697	-0.969012
C134	C	1.354867	-0.003364	-0.635678
C135	C	1.688200	0.329970	-0.302345
C136	C	0.978221	-0.388269	-0.933653
C137	C	1.311554	-0.054936	-0.600320
C138	C	1.644888	0.278398	-0.266987
C139	C	0.934921	-0.439826	-0.968988
C140	C	1.268255	-0.106493	-0.635654
C141	C	1.601588	0.226841	-0.302321
C142	C	0.934936	-0.439805	-1.039675
C143	C	1.268269	-0.106471	-0.706341
C144	C	1.601603	0.226862	-0.373008
C145	C	0.934863	-0.439913	-0.683914
C146	C	1.268196	-0.106580	-0.350581
C147	C	1.601529	0.226753	-0.017247
C148	C	0.934850	-0.439929	-0.613222
C149	C	1.268183	-0.106596	-0.279889
C150	C	1.601517	0.226738	0.053445
C151	C	1.021460	-0.336806	-0.613251
C152	C	1.354793	-0.003472	-0.279918
C153	C	1.688127	0.329861	0.053416
C154	C	1.021475	-0.336784	-0.683938
C155	C	1.354808	-0.003451	-0.350605
C156	C	1.688141	0.329882	-0.017271
C157	C	0.978178	-0.388344	-0.719266
C158	C	1.311511	-0.055010	-0.385933
C159	C	1.644844	0.278323	-0.052599
C160	C	0.978191	-0.388317	-0.795914
C161	C	1.311524	-0.054984	-0.462581
C162	C	1.644857	0.278349	-0.129248
C163	C	0.978204	-0.388292	-0.857006
C164	C	1.311538	-0.054959	-0.523673
C165	C	1.644871	0.278375	-0.190340
C166	C	0.978126	-0.388431	-0.150261
C167	C	1.311460	-0.055098	0.183073
C168	C	1.644793	0.278235	0.516406
C169	C	0.978246	-0.388223	-0.075029
C170	C	1.311580	-0.054890	0.258304
C171	C	1.644913	0.278443	0.591638
H172	H	0.592210	-0.294763	-0.247730
H173	H	0.925544	0.038571	0.085603
H174	H	1.258877	0.371904	0.418936
H175	H	1.056741	-0.294786	-0.712723
H176	H	1.390075	0.038547	-0.379390
H177	H	1.723408	0.371881	-0.046056
H178	H	0.720456	-0.294749	-0.247717
H179	H	1.053789	0.038585	0.085616
H180	H	1.387122	0.371918	0.418950
H181	H	1.056810	-0.294671	-1.068483
H182	H	1.390143	0.038663	-0.735150
H183	H	1.723476	0.371996	-0.401817
H184	H	1.056716	-0.294826	-0.584478
H185	H	1.390050	0.038508	-0.251145
H186	H	1.723383	0.371841	0.082188
H187	H	0.720460	-0.482127	-0.404491
H188	H	1.053793	-0.148794	-0.071158
H189	H	1.387127	0.184540	0.262176
H190	H	0.364700	-0.482146	-0.404522
H191	H	0.698033	-0.148812	-0.071189
H192	H	1.031367	0.184521	0.262144
H193	H	0.592226	-0.482130	-0.404506
H194	H	0.925560	-0.148796	-0.071173
H195	H	1.258893	0.184537	0.262161
H196	H	1.056793	-0.294721	-0.940250
H197	H	1.390126	0.038612	-0.606916
H198	H	1.723459	0.371946	-0.273583
H199	H	0.899659	-0.481821	-0.940193
H200	H	1.232992	-0.148487	-0.606860
H201	H	1.566326	0.184846	-0.273527
H202	H	0.899575	-0.481925	-0.584435
H203	H	1.232909	-0.148592	-0.251102
H204	H	1.566242	0.184742	0.082231
H205	H	0.899679	-0.481784	-1.068439
H206	H	1.233012	-0.148450	-0.735106
H207	H	1.566346	0.184883	-0.401772
H208	H	0.236455	-0.482153	-0.404534
H209	H	0.569789	-0.148819	-0.071201
H210	H	0.903122	0.184514	0.262133
H211	H	0.899607	-0.481895	-0.712670
H212	H	1.232940	-0.148562	-0.379336
H213	H	1.566274	0.184772	-0.046003
H214	H	0.236453	-0.294784	-0.247753
H215	H	0.569786	0.038549	0.085581
H216	H	0.903119	0.371882	0.418914
H217	H	0.364687	-0.294777	-0.247739
H218	H	0.698020	0.038556	0.085594
H219	H	1.031353	0.371889	0.418928
