data_functionalizedCrystal
_audit_creation_method	'MofGen! by Chris Wilmer'
_symmetry_space_group_name_H-M	'P1'
_symmetry_Int_Tables_number	1
_symmetry_cell_setting	triclinic
loop_
_symmetry_equiv_pos_as_xyz
  x,y,z
_cell_length_a	14.519731
_cell_length_b	15.500215
_cell_length_c	14.519709
_cell_angle_alpha	86.820847
_cell_angle_beta	96.315501
_cell_angle_gamma	93.178262
loop_
_atom_site_label
_atom_site_type_symbol
_atom_site_fract_x
_atom_site_fract_y
_atom_site_fract_z
O1	O	1.227686	0.071949	-0.124815
O2	O	1.727686	0.571949	0.375185
O3	O	0.959212	0.071950	-0.139031
O4	O	1.459212	0.571950	0.360969
O5	O	1.100567	0.071941	0.002315
O6	O	1.600567	0.571941	0.502315
O7	O	1.086331	0.071957	-0.266162
O8	O	1.586331	0.571957	0.233838
O9	O	1.092893	-0.071948	0.009980
O10	O	1.592893	0.428052	0.509980
O11	O	0.951539	-0.071940	-0.131366
O12	O	1.451539	0.428060	0.368634
O13	O	1.220013	-0.071941	-0.117150
O14	O	1.720013	0.428059	0.382850
Cu15	Cu	1.085075	-0.085079	-0.123558
Cu16	Cu	1.585075	0.414921	0.376442
Cu17	Cu	1.094150	0.085088	-0.132623
Cu18	Cu	1.594150	0.585088	0.367377
O19	O	1.078658	-0.071933	-0.258497
O20	O	1.578658	0.428067	0.241503
C21	C	0.921016	0.000005	-0.134533
C22	C	1.421016	0.500005	0.365467
C23	C	0.818636	0.000006	-0.132537
C24	C	1.318636	0.500006	0.367463
C25	C	0.735492	0.000009	-0.130915
C26	C	1.235492	0.500009	0.369085
C27	C	0.631183	0.000009	-0.128888
C28	C	1.131183	0.500009	0.371112
C29	C	0.548044	0.000009	-0.127280
C30	C	1.048044	0.500009	0.372720
C31	C	0.443729	0.000011	-0.125254
C32	C	0.943729	0.500011	0.374746
N33	N	1.078699	-0.204764	-0.117182
N34	N	1.578699	0.295236	0.382818
C35	C	1.132309	-0.250034	-0.170836
C36	C	1.632309	0.249966	0.329164
C37	C	1.127499	-0.340608	-0.166008
C38	C	1.627499	0.159392	0.333992
C39	C	1.069074	-0.385910	-0.107530
C40	C	1.569074	0.114090	0.392470
C41	C	1.015461	-0.340633	-0.053870
C42	C	1.515461	0.159367	0.446130
C43	C	1.020277	-0.250061	-0.058694
C44	C	1.520277	0.249939	0.441306
C45	C	1.051736	-0.659379	-0.090156
C46	C	1.551736	-0.159379	0.409844
C47	C	1.046923	-0.749957	-0.085338
C48	C	1.546923	-0.249957	0.414662
C49	C	1.158963	-0.749925	-0.197475
C50	C	1.658963	-0.249925	0.302525
C51	C	1.163769	-0.659352	-0.202298
C52	C	1.663769	-0.159352	0.297702
C53	C	1.110160	-0.614083	-0.148634
C54	C	1.610160	-0.114083	0.351366
C55	C	1.064154	-0.478490	-0.102596
C56	C	1.564154	0.021510	0.397404
C57	C	1.115086	-0.521504	-0.153564
C58	C	1.615086	-0.021504	0.346436
C59	C	1.258209	0.000005	-0.121649
C60	C	1.758209	0.500005	0.378351
C61	C	1.360590	0.000011	-0.123645
C62	C	1.860590	0.500011	0.376355
C63	C	1.096067	-0.000004	0.040507
C64	C	1.596067	0.499996	0.540507
C65	C	1.094078	-0.000004	0.142889
C66	C	1.594078	0.499996	0.642889
N67	N	1.100533	0.204773	-0.138992
N68	N	1.600533	0.704773	0.361008
C69	C	1.083158	0.000014	-0.296689
C70	C	1.583158	0.500014	0.203311
C71	C	1.085147	0.000021	-0.399071
C72	C	1.585147	0.500021	0.100929
C73	C	1.086760	0.000019	0.517784
C74	C	1.586760	0.500019	1.017784
C75	C	1.088793	0.000012	0.413476
C76	C	1.588793	0.500012	0.913476
C77	C	1.090419	0.000006	0.330340
C78	C	1.590419	0.500006	0.830340
C79	C	1.092452	0.000002	0.226025
C80	C	1.592452	0.500002	0.726025
H81	H	1.171157	-0.377463	-0.209697
H82	H	1.671157	0.122537	0.290303
C83	C	0.992760	-0.609594	-0.031138
C84	C	1.492760	-0.109594	0.468862
H85	H	0.957267	-0.649549	0.004370
H86	H	1.457267	-0.149549	0.504370
H87	H	1.032355	-0.574260	0.009341
H88	H	1.532355	-0.074260	0.509341
H89	H	0.952253	-0.574267	-0.070720
H90	H	1.452253	-0.074267	0.429280
C91	C	1.179355	-0.471679	-0.217884
C92	C	1.679355	0.028321	0.282116
H93	H	1.210602	-0.511609	-0.249147
H94	H	1.710602	-0.011609	0.250853
H95	H	1.143511	-0.436345	-0.262117
H96	H	1.643511	0.063655	0.237883
H97	H	1.223617	-0.436348	-0.182061
H98	H	1.723617	0.063652	0.317939
H99	H	1.211348	-0.622473	-0.249914
H100	H	1.711348	-0.122473	0.250086
C101	C	1.217935	-0.799722	-0.256491
C102	C	1.717935	-0.299722	0.243509
H103	H	1.206708	-0.860151	-0.245240
H104	H	1.706708	-0.360151	0.254760
H105	H	1.201695	-0.784876	-0.320344
H106	H	1.701695	-0.284876	0.179656
H107	H	1.281796	-0.784869	-0.240282
H108	H	1.781796	-0.284869	0.259718
C109	C	0.982630	-0.799787	-0.021032
C110	C	1.482630	-0.299787	0.478968
H111	H	0.951391	-0.759856	0.010237
H112	H	1.451391	-0.259856	0.510237
H113	H	0.938377	-0.835109	-0.056866
H114	H	1.438377	-0.335109	0.443134
H115	H	1.018461	-0.835131	0.023212
H116	H	1.518461	-0.335131	0.523212
H117	H	0.967894	-0.377525	-0.006252
H118	H	1.467894	0.122475	0.493748
C119	C	0.961302	-0.200264	0.000321
C120	C	1.461302	0.299736	0.500321
H121	H	0.925809	-0.240215	0.035833
H122	H	1.425809	0.259785	0.535833
H123	H	1.000901	-0.164930	0.040796
H124	H	1.500901	0.335070	0.540796
H125	H	0.920795	-0.164936	-0.039261
H126	H	1.420795	0.335064	0.460739
H127	H	1.179880	-0.213156	-0.218460
H128	H	1.679880	0.286844	0.281540
H129	H	1.016583	-0.515385	-0.054983
H130	H	1.516583	-0.015385	0.445017
