data_functionalizedCrystal
_audit_creation_method	'MofGen! by Chris Wilmer'
_symmetry_space_group_name_H-M	'P1'
_symmetry_Int_Tables_number	1
_symmetry_cell_setting	triclinic
loop_
_symmetry_equiv_pos_as_xyz
  x,y,z
_cell_length_a	14.908780
_cell_length_b	14.908520
_cell_length_c	14.908803
_cell_angle_alpha	96.379389
_cell_angle_beta	89.799140
_cell_angle_gamma	96.789949
loop_
_atom_site_label
_atom_site_type_symbol
_atom_site_fract_x
_atom_site_fract_y
_atom_site_fract_z
Zn1	Zn	-1.325825	0.317903	0.605071
Zn2	Zn	-0.992492	0.651236	0.938404
Zn3	Zn	-0.659158	0.984570	1.271738
Zn4	Zn	-1.325758	0.460503	0.462435
Zn5	Zn	-0.992425	0.793836	0.795768
Zn6	Zn	-0.659091	1.127169	1.129102
Zn7	Zn	-1.184238	0.316859	0.445984
Zn8	Zn	-0.850905	0.650192	0.779318
Zn9	Zn	-0.517571	0.983525	1.112651
Zn10	Zn	-1.165690	0.477939	0.604995
Zn11	Zn	-0.832357	0.811272	0.938328
Zn12	Zn	-0.499023	1.144606	1.271661
O13	O	-1.250378	0.393301	0.529621
O14	O	-0.917044	0.726634	0.862955
O15	O	-0.583711	1.059968	1.196288
O16	O	-1.452060	0.329959	0.593067
O17	O	-1.118726	0.663292	0.926400
O18	O	-0.785393	0.996626	1.259734
O19	O	-1.314719	0.433714	0.334013
O20	O	-0.981386	0.767047	0.667346
O21	O	-0.648053	1.100381	1.000679
O22	O	-1.210810	0.189906	0.460235
O23	O	-0.877477	0.523239	0.793568
O24	O	-0.544144	0.856573	1.126902
O25	O	-1.452010	0.434727	0.488273
O26	O	-1.118677	0.768060	0.821606
O27	O	-0.785344	1.101393	1.154939
O28	O	-1.314834	0.190673	0.577115
O29	O	-0.981500	0.524007	0.910449
O30	O	-0.648167	0.857340	1.243782
O31	O	-1.210745	0.328179	0.321927
O32	O	-0.877412	0.661513	0.655260
O33	O	-0.544079	0.994846	0.988593
O34	O	-1.055534	0.345087	0.460161
O35	O	-0.722201	0.678420	0.793494
O36	O	-0.388867	1.011753	1.126827
O37	O	-1.179198	0.464444	0.731245
O38	O	-0.845865	0.797777	1.064578
O39	O	-0.512531	1.131110	1.397912
O40	O	-1.041907	0.463431	0.576985
O41	O	-0.708574	0.796765	0.910318
O42	O	-0.375240	1.130098	1.243652
O43	O	-1.296848	0.346866	0.731301
O44	O	-0.963515	0.680199	1.064634
O45	O	-0.630182	1.013533	1.397968
O46	O	-1.296734	0.589907	0.488199
O47	O	-0.963401	0.923240	0.821532
O48	O	-0.630067	1.256574	1.154865
O49	O	-1.179133	0.602717	0.592937
O50	O	-0.845800	0.936050	0.926270
O51	O	-0.512466	1.269384	1.259603
C52	C	-1.015987	0.406038	0.516780
C53	C	-0.682654	0.739372	0.850113
C54	C	-0.349320	1.072705	1.183447
C55	C	-0.915711	0.411511	0.511309
C56	C	-0.582377	0.744844	0.844642
C57	C	-0.249044	1.078177	1.177976
C58	C	-0.727310	0.312869	0.610336
C59	C	-0.393977	0.646203	0.943669
C60	C	-0.060643	0.979536	1.277002
C61	C	-0.633092	0.318008	0.605198
C62	C	-0.299759	0.651341	0.938531
C63	C	0.033575	0.984675	1.271865
C64	C	-0.633055	0.426922	0.495892
C65	C	-0.299721	0.760255	0.829225
C66	C	0.033612	1.093588	1.162558
C67	C	-0.727273	0.421783	0.501029
C68	C	-0.393940	0.755116	0.834363
C69	C	-0.060606	1.088450	1.167696
C70	C	-0.774397	0.364756	0.558254
C71	C	-0.441064	0.698089	0.891588
C72	C	-0.107731	1.031423	1.224921
C73	C	-0.868617	0.359622	0.563396
C74	C	-0.535283	0.692956	0.896730
C75	C	-0.201950	1.026289	1.230063
C76	C	-0.868578	0.468531	0.454086
C77	C	-0.535245	0.801864	0.787419
C78	C	-0.201912	1.135197	1.120753
C79	C	-0.774360	0.473669	0.448948
C80	C	-0.441027	0.807003	0.782282
C81	C	-0.107693	1.140336	1.115615
C82	C	-1.235937	0.629265	0.542366
C83	C	-0.902604	0.962599	0.875699
C84	C	-0.569270	1.295932	1.209032
C85	C	-1.229840	0.730209	0.547852
C86	C	-0.896506	1.063542	0.881186
C87	C	-0.563173	1.396876	1.214519
C88	C	-1.235962	0.407716	0.764921
C89	C	-0.902628	0.741050	1.098254
C90	C	-0.569295	1.074383	1.431588
C91	C	-1.229818	0.413859	0.865192
C92	C	-0.896485	0.747193	1.198525
C93	C	-0.563152	1.080526	1.531858
C94	C	-0.485685	0.380506	0.542506
C95	C	-0.152351	0.713840	0.875840
C96	C	0.180982	1.047173	1.209173
C97	C	-0.585961	0.375033	0.547979
C98	C	-0.252627	0.708367	0.881312
C99	C	0.080706	1.041700	1.214646
C100	C	-1.264898	0.156415	0.516849
C101	C	-0.931565	0.489748	0.850182
C102	C	-0.598232	0.823082	1.183515
C103	C	-1.271086	0.055468	0.511406
C104	C	-0.937753	0.388802	0.844739
C105	C	-0.604420	0.722135	1.178072
C106	C	-1.340953	0.906492	0.449198
C107	C	-1.007620	1.239826	0.782531
C108	C	-0.674287	1.573159	1.115865
C109	C	-1.335228	1.001338	0.454351
C110	C	-1.001894	1.334671	0.787684
C111	C	-0.668561	1.668005	1.121017
C112	C	-1.212668	1.014747	0.563314
C113	C	-0.879334	1.348081	0.896647
C114	C	-0.546001	1.681414	1.229981
C115	C	-1.218393	0.919902	0.558161
C116	C	-0.885060	1.253235	0.891495
C117	C	-0.551727	1.586568	1.224828
C118	C	-1.282537	0.865777	0.501101
C119	C	-0.949204	1.199111	0.834434
C120	C	-0.615871	1.532444	1.167767
C121	C	-1.288258	0.770930	0.495944
C122	C	-0.954925	1.104264	0.829277
C123	C	-0.621592	1.437597	1.162611
C124	C	-1.165703	0.784341	0.604911
C125	C	-0.832370	1.117675	0.938245
C126	C	-0.499036	1.451008	1.271578
C127	C	-1.159977	0.879187	0.610064
C128	C	-0.826644	1.212520	0.943397
C129	C	-0.493311	1.545853	1.276730
C130	C	-1.340782	0.302948	1.053670
C131	C	-1.007449	0.636281	1.387003
C132	C	-0.674116	0.969615	1.720336
C133	C	-1.335013	0.308717	1.147883
C134	C	-1.001680	0.642050	1.481216
C135	C	-0.668347	0.975383	1.814549
C136	C	-1.212507	0.431160	1.147832
C137	C	-0.879174	0.764494	1.481166
C138	C	-0.545841	1.097827	1.814499
C139	C	-1.218276	0.425392	1.053619
C140	C	-0.884943	0.758725	1.386952
C141	C	-0.551610	1.092058	1.720286
C142	C	-1.282417	0.361284	1.006541
C143	C	-0.949084	0.694618	1.339875
C144	C	-0.615750	1.027951	1.673208
C145	C	-1.288190	0.355521	0.912327
C146	C	-0.954857	0.688854	1.245660
C147	C	-0.621523	1.022187	1.578993
C148	C	-1.165680	0.477959	0.912278
C149	C	-0.832347	0.811293	1.245611
C150	C	-0.499013	1.144626	1.578944
C151	C	-1.159911	0.483728	1.006491
C152	C	-0.826578	0.817061	1.339824
C153	C	-0.493244	1.150395	1.673157
C154	C	-1.264731	0.378963	1.295238
C155	C	-0.931398	0.712296	1.628571
C156	C	-0.598065	1.045629	1.961905
C157	C	-1.270879	0.372821	1.194968
C158	C	-0.937545	0.706155	1.528301
C159	C	-0.604212	1.039488	1.861634
H160	H	-0.594671	0.473340	0.449292
H161	H	-0.261338	0.806673	0.782625
H162	H	0.071996	1.140006	1.115958
H163	H	-1.340418	0.303322	0.873997
H164	H	-1.007084	0.636656	1.207331
H165	H	-0.673751	0.969989	1.540664
F166	F	-0.582982	0.262781	0.660628
F167	F	-0.249648	0.596115	0.993961
F168	F	0.083685	0.929448	1.327295
F169	F	-1.356522	0.713328	0.435212
F170	F	-1.023188	1.046662	0.768545
F171	F	-0.689855	1.379995	1.101879
F172	F	-1.144245	0.499376	1.197950
F173	F	-0.810911	0.832710	1.531284
F174	F	-0.477578	1.166043	1.864617
F175	F	-1.103519	0.741003	0.660143
F176	F	-0.770186	1.074337	0.993477
F177	F	-0.436853	1.407670	1.326810
F178	F	-0.918698	0.523761	0.398659
F179	F	-0.585365	0.857095	0.731992
F180	F	-0.252031	1.190428	1.065326
H181	H	-1.393013	0.250754	1.015338
H182	H	-1.059679	0.584087	1.348672
H183	H	-0.726346	0.917420	1.682005
F184	F	-1.397404	1.044666	0.399111
F185	F	-1.064071	1.378000	0.732444
F186	F	-0.730737	1.711333	1.065778
H187	H	-1.382538	0.261211	1.186251
H188	H	-1.049205	0.594544	1.519584
H189	H	-0.715872	0.927878	1.852918
F190	F	-1.144416	1.072365	0.624047
F191	F	-0.811083	1.405698	0.957381
F192	F	-0.477750	1.739031	1.290714
F193	F	-1.091717	0.936799	0.670792
F194	F	-0.758384	1.270132	1.004125
F195	F	-0.425051	1.603466	1.337458
H196	H	-1.107688	0.535920	1.044834
H197	H	-0.774355	0.869254	1.378168
H198	H	-0.441021	1.202587	1.711501
H199	H	-1.118157	0.525463	0.873896
H200	H	-0.784823	0.858797	1.207229
H201	H	-0.451490	1.192130	1.540563
H202	H	-0.735979	0.520096	0.402355
H203	H	-0.402646	0.853430	0.735688
H204	H	-0.069312	1.186763	1.069021
H205	H	-1.393176	0.862423	0.402730
H206	H	-1.059843	1.195757	0.736064
H207	H	-0.726510	1.529090	1.069397
H208	H	-0.765679	0.266440	0.656934
H209	H	-0.432346	0.599773	0.990268
H210	H	-0.099012	0.933106	1.323601
F211	F	-0.918768	0.298932	0.624301
F212	F	-0.585435	0.632266	0.957635
F213	F	-0.252102	0.965599	1.290968
