data_functionalizedCrystal
_audit_creation_method	'MofGen! by Chris Wilmer'
_symmetry_space_group_name_H-M	'P1'
_symmetry_Int_Tables_number	1
_symmetry_cell_setting	triclinic
loop_
_symmetry_equiv_pos_as_xyz
  x,y,z
_cell_length_a	15.944499
_cell_length_b	15.944493
_cell_length_c	10.268362
_cell_angle_alpha	90.000590
_cell_angle_beta	89.992825
_cell_angle_gamma	83.476327
loop_
_atom_site_label
_atom_site_type_symbol
_atom_site_fract_x
_atom_site_fract_y
_atom_site_fract_z
O1	O	1.114529	0.108129	-0.108361
O2	O	1.364529	0.358129	0.141639
O3	O	1.614529	0.608129	0.391639
O4	O	1.864529	0.858129	0.641639
O5	O	0.869970	0.121531	-0.108344
O6	O	1.119970	0.371531	0.141656
O7	O	1.369970	0.621531	0.391656
O8	O	1.619970	0.871531	0.641656
O9	O	0.998953	-0.007450	-0.108364
O10	O	1.248953	0.242550	0.141636
O11	O	1.498953	0.492550	0.391636
O12	O	1.748953	0.742550	0.641636
O13	O	0.985546	0.237109	-0.108341
O14	O	1.235546	0.487109	0.141659
O15	O	1.485546	0.737109	0.391659
O16	O	1.735546	0.987109	0.641659
O17	O	0.998942	-0.007455	0.108237
O18	O	1.248942	0.242545	0.358237
O19	O	1.498942	0.492545	0.608237
O20	O	1.748942	0.742545	0.858237
O21	O	0.869959	0.121526	0.108256
O22	O	1.119959	0.371526	0.358256
O23	O	1.369959	0.621526	0.608256
O24	O	1.619959	0.871526	0.858256
O25	O	1.114518	0.108124	0.108240
O26	O	1.364518	0.358124	0.358240
O27	O	1.614518	0.608124	0.608240
O28	O	1.864518	0.858124	0.858240
Cu29	Cu	0.992237	0.114824	0.128025
Cu30	Cu	1.242237	0.364824	0.378025
Cu31	Cu	1.492237	0.614824	0.628025
Cu32	Cu	1.742237	0.864824	0.878025
Cu33	Cu	0.992251	0.114830	-0.128130
Cu34	Cu	1.242251	0.364830	0.121870
Cu35	Cu	1.492251	0.614830	0.371870
Cu36	Cu	1.742251	0.864830	0.621870
O37	O	0.985535	0.237104	0.108259
O38	O	1.235535	0.487104	0.358259
O39	O	1.485535	0.737104	0.608259
O40	O	1.735535	0.987104	0.858259
C41	C	0.838670	0.120979	-0.000042
C42	C	1.088670	0.370979	0.249958
C43	C	1.338670	0.620979	0.499958
C44	C	1.588670	0.870979	0.749958
C45	C	0.745422	0.119334	-0.000037
C46	C	0.995422	0.369334	0.249963
C47	C	1.245422	0.619334	0.499963
C48	C	1.495422	0.869334	0.749963
C49	C	0.453871	0.194269	-0.000049
C50	C	0.703871	0.444269	0.249951
C51	C	0.953871	0.694269	0.499951
C52	C	1.203871	0.944269	0.749951
C53	C	0.514913	0.155319	-0.106851
C54	C	0.764913	0.405319	0.143149
C55	C	1.014913	0.655319	0.393149
C56	C	1.264913	0.905319	0.643149
C57	C	0.409787	0.113358	-0.000068
C58	C	0.659787	0.363358	0.249932
C59	C	0.909787	0.613358	0.499932
C60	C	1.159787	0.863358	0.749932
C61	C	0.514888	0.155292	0.106701
C62	C	0.764888	0.405292	0.356701
C63	C	1.014888	0.655292	0.606701
C64	C	1.264888	0.905292	0.856701
C65	C	0.574695	0.116299	-0.000050
C66	C	0.824695	0.366299	0.249950
C67	C	1.074695	0.616299	0.499950
C68	C	1.324695	0.866299	0.749950
C69	C	0.469602	0.074386	-0.106957
C70	C	0.719602	0.324386	0.143043
C71	C	0.969602	0.574386	0.393043
C72	C	1.219602	0.824386	0.643043
C73	C	0.469570	0.074370	0.106690
C74	C	0.719570	0.324370	0.356690
C75	C	0.969570	0.574370	0.606690
C76	C	1.219570	0.824370	0.856690
C77	C	0.530595	0.035361	-0.000137
C78	C	0.780595	0.285361	0.249863
C79	C	1.030595	0.535361	0.499863
C80	C	1.280595	0.785361	0.749863
C81	C	0.314787	0.111666	-0.000079
C82	C	0.564787	0.361666	0.249921
C83	C	0.814787	0.611666	0.499921
C84	C	1.064787	0.861666	0.749921
C85	C	0.669694	0.117984	-0.000049
C86	C	0.919694	0.367984	0.249951
C87	C	1.169694	0.617984	0.499951
C88	C	1.419694	0.867984	0.749951
C89	C	0.998400	-0.038747	-0.000069
C90	C	1.248400	0.211253	0.249931
C91	C	1.498400	0.461253	0.499931
C92	C	1.748400	0.711253	0.749931
C93	C	0.996757	-0.131995	-0.000086
C94	C	1.246757	0.118005	0.249914
C95	C	1.496757	0.368005	0.499914
C96	C	1.746757	0.618005	0.749914
C97	C	1.072679	-0.367769	-0.000066
C98	C	1.322679	-0.117769	0.249934
C99	C	1.572679	0.132231	0.499934
C100	C	1.822679	0.382231	0.749934
C101	C	1.031743	-0.418327	-0.106858
C102	C	1.281743	-0.168327	0.143142
C103	C	1.531743	0.081673	0.393142
C104	C	1.781743	0.331673	0.643142
C105	C	0.993713	-0.302716	-0.000070
C106	C	1.243713	-0.052716	0.249930
C107	C	1.493713	0.197284	0.499930
C108	C	1.743713	0.447284	0.749930
C109	C	1.031713	-0.418308	0.106693
C110	C	1.281713	-0.168308	0.356693
C111	C	1.531713	0.081692	0.606693
C112	C	1.781713	0.331692	0.856693
C113	C	0.990778	-0.467625	-0.000048
C114	C	1.240778	-0.217625	0.249952
C115	C	1.490778	0.032375	0.499952
C116	C	1.740778	0.282375	0.749952
C117	C	0.952797	-0.352045	-0.106950
C118	C	1.202797	-0.102045	0.143050
C119	C	1.452797	0.147955	0.393050
C120	C	1.702797	0.397955	0.643050
C121	C	0.952780	-0.352023	0.106698
C122	C	1.202780	-0.102023	0.356698
C123	C	1.452780	0.147977	0.606698
C124	C	1.702780	0.397977	0.856698
C125	C	0.911785	-0.402548	-0.000120
C126	C	1.161785	-0.152548	0.249880
C127	C	1.411785	0.097452	0.499880
C128	C	1.661785	0.347452	0.749880
C129	C	0.995405	-0.207716	-0.000083
C130	C	1.245405	0.042284	0.249917
C131	C	1.495405	0.292284	0.499917
C132	C	1.745405	0.542284	0.749917
C133	C	0.989079	-0.562622	-0.000044
C134	C	1.239079	-0.312622	0.249956
C135	C	1.489079	-0.062622	0.499956
C136	C	1.739079	0.187378	0.749956
C137	C	1.145818	0.108675	-0.000065
C138	C	1.395818	0.358675	0.249935
C139	C	1.645818	0.608675	0.499935
C140	C	1.895818	0.858675	0.749935
C141	C	1.239066	0.110320	-0.000079
C142	C	1.489066	0.360320	0.249921
C143	C	1.739066	0.610320	0.499921
C144	C	1.989066	0.860320	0.749921
C145	C	0.986088	0.268401	-0.000039
C146	C	1.236088	0.518401	0.249961
C147	C	1.486088	0.768401	0.499961
C148	C	1.736088	1.018401	0.749961
C149	C	0.987731	0.361650	-0.000031
C150	C	1.237731	0.611650	0.249969
C151	C	1.487731	0.861650	0.499969
C152	C	1.737731	1.111650	0.749969
N153	N	0.992234	0.114819	0.308191
N154	N	1.242234	0.364819	0.558191
N155	N	1.492234	0.614819	0.808191
N156	N	1.742234	0.864819	1.058191
N157	N	0.992260	0.114829	-0.308296
N158	N	1.242260	0.364829	-0.058296
N159	N	1.492260	0.614829	0.191704
N160	N	1.742260	0.864829	0.441704
C161	C	0.992246	0.114829	0.573862
C162	C	1.242246	0.364829	0.823862
C163	C	1.492246	0.614829	1.073862
C164	C	1.742246	0.864829	1.323862
C165	C	0.992237	0.114826	0.426024
C166	C	1.242237	0.364826	0.676024
C167	C	1.492237	0.614826	0.926024
C168	C	1.742237	0.864826	1.176024
H169	H	0.534952	0.189525	0.196989
H170	H	0.784952	0.439525	0.446989
H171	H	1.034952	0.689525	0.696989
H172	H	1.284952	0.939525	0.946989
H173	H	0.420527	0.261416	-0.000146
H174	H	0.670527	0.511416	0.249854
H175	H	0.920527	0.761416	0.499854
H176	H	1.170527	1.011416	0.749854
H177	H	0.843713	-0.418002	-0.000174
H178	H	1.093713	-0.168002	0.249826
H179	H	1.343713	0.081998	0.499826
H180	H	1.593713	0.331998	0.749826
H181	H	1.065074	-0.447248	0.196972
H182	H	1.315074	-0.197248	0.446972
H183	H	1.565074	0.052752	0.696972
H184	H	1.815074	0.302752	0.946972
H185	H	1.140699	-0.352153	-0.000178
H186	H	1.390699	-0.102153	0.249822
H187	H	1.640699	0.147847	0.499822
H188	H	1.890699	0.397847	0.749822
H189	H	0.919455	-0.323059	0.196991
H190	H	1.169455	-0.073059	0.446991
H191	H	1.419455	0.176941	0.696991
H192	H	1.669455	0.426941	0.946991
H193	H	0.449456	0.040174	0.196979
H194	H	0.699456	0.290174	0.446979
H195	H	0.949456	0.540174	0.696979
H196	H	1.199456	0.790174	0.946979
H197	H	0.563787	-0.031847	-0.000200
H198	H	0.813787	0.218153	0.249800
H199	H	1.063787	0.468153	0.499800
H200	H	1.313787	0.718153	0.749800
H201	H	1.065096	-0.447277	-0.197149
H202	H	1.315096	-0.197277	0.052851
H203	H	1.565096	0.052723	0.302851
H204	H	1.815096	0.302723	0.552851
H205	H	0.535009	0.189546	-0.197131
H206	H	0.785009	0.439546	0.052869
H207	H	1.035009	0.689546	0.302869
H208	H	1.285009	0.939546	0.552869
H209	H	0.449635	0.040198	-0.197351
H210	H	0.699635	0.290198	0.052649
H211	H	0.949635	0.540198	0.302649
H212	H	1.199635	0.790198	0.552649
H213	H	0.919473	-0.323217	-0.197331
H214	H	1.169473	-0.073217	0.052669
H215	H	1.419473	0.176783	0.302669
H216	H	1.669473	0.426783	0.552669
