data_functionalizedCrystal
_audit_creation_method	'MofGen! by Chris Wilmer'
_symmetry_space_group_name_H-M	'P1'
_symmetry_Int_Tables_number	1
_symmetry_cell_setting	triclinic
loop_
_symmetry_equiv_pos_as_xyz
  x,y,z
_cell_length_a	19.188930
_cell_length_b	23.532407
_cell_length_c	17.666332
_cell_angle_alpha	89.988854
_cell_angle_beta	89.976766
_cell_angle_gamma	82.996728
loop_
_atom_site_label
_atom_site_type_symbol
_atom_site_fract_x
_atom_site_fract_y
_atom_site_fract_z
O1	O	0.925923	0.071102	-0.063199
O2	O	1.425923	0.571102	0.436801
O3	O	0.722581	0.080673	-0.063148
O4	O	1.222581	0.580673	0.436852
O5	O	0.830384	-0.007031	-0.063161
O6	O	1.330384	0.492969	0.436839
O7	O	0.818120	0.158806	-0.063186
O8	O	1.318120	0.658806	0.436814
O9	O	0.830365	-0.007036	0.062735
O10	O	1.330365	0.492964	0.562735
O11	O	0.722562	0.080669	0.062748
O12	O	1.222562	0.580669	0.562748
O13	O	0.925904	0.071097	0.062697
O14	O	1.425904	0.571097	0.562697
Cu15	Cu	0.824231	0.075883	0.074218
Cu16	Cu	1.324231	0.575883	0.574218
Cu17	Cu	0.824253	0.075888	-0.074669
Cu18	Cu	1.324253	0.575888	0.425331
O19	O	0.818101	0.158802	0.062711
O20	O	1.318101	0.658802	0.562711
C21	C	0.696561	0.080361	-0.000193
C22	C	1.196561	0.580361	0.499807
C23	C	0.619060	0.079431	-0.000173
C24	C	1.119060	0.579431	0.499827
C25	C	0.573972	0.130893	-0.000193
C26	C	1.073972	0.630893	0.499807
C27	C	0.501151	0.130019	-0.000201
C28	C	1.001151	0.630019	0.499799
C29	C	0.473421	0.077680	-0.000205
C30	C	0.973421	0.577680	0.499795
C31	C	0.518519	0.026211	-0.000181
C32	C	1.018519	0.526211	0.499819
C33	C	0.591339	0.027086	-0.000165
C34	C	1.091339	0.527086	0.499835
N35	N	0.365575	0.037674	-0.043078
N36	N	0.865575	0.537674	0.456922
N37	N	0.296399	0.036846	-0.043094
N38	N	0.796399	0.536846	0.456906
C39	C	0.254021	0.075038	-0.000251
C40	C	0.754021	0.575038	0.499749
N41	N	0.283431	0.114099	0.042600
N42	N	0.783431	0.614099	0.542600
N43	N	0.352613	0.114929	0.042614
N44	N	0.852613	0.614929	0.542614
C45	C	0.394462	0.076724	-0.000222
C46	C	0.894462	0.576724	0.499778
C47	C	0.129971	0.125556	-0.000278
C48	C	0.629971	0.625556	0.499722
C49	C	0.057149	0.124680	-0.000282
C50	C	0.557149	0.624680	0.499718
C51	C	0.074520	0.020870	-0.000269
C52	C	0.574520	0.520870	0.499731
C53	C	0.147340	0.021748	-0.000258
C54	C	0.647340	0.521748	0.499742
C55	C	0.175061	0.074092	-0.000266
C56	C	0.675061	0.574092	0.499734
C57	C	0.830062	-0.028250	-0.000211
C58	C	1.330062	0.471750	0.499789
C59	C	0.829123	-0.091469	-0.000205
C60	C	1.329123	0.408531	0.499795
C61	C	0.887029	-0.490449	-0.000261
C62	C	1.387029	0.009551	0.499739
C63	C	0.886157	-0.549851	-0.000267
C64	C	1.386157	-0.049851	0.499733
O65	O	0.939837	-0.586482	-0.000308
O66	O	1.439837	-0.086482	0.499692
N67	N	0.822068	-0.572613	-0.000250
N68	N	1.322068	-0.072613	0.499750
C69	C	0.758848	-0.535970	-0.000236
C70	C	1.258848	-0.035970	0.499764
O71	O	0.704255	-0.560786	-0.000223
O72	O	1.204255	-0.060786	0.499777
C73	C	0.759721	-0.476569	-0.000235
C74	C	1.259721	0.023431	0.499765
C75	C	0.823814	-0.453810	-0.000244
C76	C	1.323814	0.046190	0.499756
C77	C	0.951117	-0.467690	-0.000271
C78	C	1.451117	0.032310	0.499729
C79	C	0.951989	-0.408292	-0.000264
C80	C	1.451989	0.091708	0.499736
C81	C	0.888773	-0.371653	-0.000247
C82	C	1.388773	0.128347	0.499753
C83	C	0.824685	-0.394412	-0.000237
C84	C	1.324685	0.105588	0.499763
C85	C	0.696501	-0.439927	-0.000226
C86	C	1.196501	0.060073	0.499774
C87	C	0.697379	-0.380523	-0.000227
C88	C	1.197379	0.119477	0.499773
C89	C	0.761472	-0.357764	-0.000236
C90	C	1.261472	0.142236	0.499764
C91	C	0.762342	-0.298376	-0.000214
C92	C	1.262342	0.201624	0.499786
N93	N	0.826430	-0.275614	-0.000230
N94	N	1.326430	0.224386	0.499770
C95	C	0.889646	-0.312252	-0.000247
C96	C	1.389646	0.187748	0.499753
C97	C	0.757019	-0.660717	-0.000237
C98	C	1.257019	-0.160717	0.499763
C99	C	0.756146	-0.720116	-0.000232
C100	C	1.256146	-0.220116	0.499768
C101	C	0.883455	-0.733993	-0.000264
C102	C	1.383455	-0.233993	0.499736
C103	C	0.884328	-0.674592	-0.000264
C104	C	1.384328	-0.174592	0.499736
C105	C	0.821108	-0.637954	-0.000254
C106	C	1.321108	-0.137954	0.499746
C107	C	0.891472	-0.187512	-0.000232
C108	C	1.391472	0.312488	0.499768
C109	C	0.892339	-0.128108	-0.000222
C110	C	1.392339	0.371892	0.499778
C111	C	0.765029	-0.114236	-0.000193
C112	C	1.265029	0.385764	0.499807
C113	C	0.764163	-0.173634	-0.000199
C114	C	1.264163	0.326366	0.499801
C115	C	0.827390	-0.210272	-0.000221
C116	C	1.327390	0.289728	0.499779
O117	O	0.708690	-0.261710	-0.000176
O118	O	1.208690	0.238290	0.499824
O119	O	0.944230	-0.287428	-0.000270
O120	O	1.444230	0.212572	0.499730
C121	C	0.951923	0.071410	-0.000259
C122	C	1.451923	0.571410	0.499741
C123	C	1.029425	0.072340	-0.000284
C124	C	1.529425	0.572340	0.499716
C125	C	0.818423	0.180021	-0.000241
C126	C	1.318423	0.680021	0.499759
C127	C	0.819362	0.243240	-0.000252
C128	C	1.319362	0.743240	0.499748
N129	N	0.824221	0.075878	0.178938
N130	N	1.324221	0.575878	0.678938
N131	N	0.824270	0.075888	-0.179389
N132	N	1.324270	0.575888	0.320611
C133	C	0.871971	0.037062	0.218542
C134	C	1.371971	0.537062	0.718542
C135	C	0.871975	0.037059	0.297789
C136	C	1.371975	0.537059	0.797789
C137	C	0.824236	0.075883	0.337430
C138	C	1.324236	0.575883	0.837430
C139	C	0.776476	0.114702	0.297816
C140	C	1.276476	0.614702	0.797816
C141	C	0.776469	0.114700	0.218570
C142	C	1.276469	0.614700	0.718570
N143	N	0.814998	0.126298	0.461842
N144	N	1.314998	0.626298	0.961842
N145	N	0.815010	0.126298	0.537123
N146	N	1.315010	0.626298	1.037123
C147	C	0.824254	0.075891	0.576194
C148	C	1.324254	0.575891	1.076194
N149	N	0.833500	0.025481	0.537141
N150	N	1.333500	0.525481	1.037141
N151	N	0.833493	0.025482	0.461853
N152	N	1.333493	0.525482	0.961853
C153	C	0.824238	0.075889	0.423359
C154	C	1.324238	0.575889	0.923359
C155	C	0.872011	0.037068	0.701727
C156	C	1.372011	0.537068	1.201727
C157	C	0.872010	0.037064	0.780976
C158	C	1.372010	0.537064	1.280976
C159	C	0.776515	0.114713	0.781002
C160	C	1.276515	0.614713	1.281002
C161	C	0.776512	0.114711	0.701754
C162	C	1.276512	0.614711	1.201754
C163	C	0.824264	0.075889	0.662122
C164	C	1.324264	0.575889	1.162122
H165	H	0.051943	-0.021745	-0.000319
H166	H	0.551943	0.478255	0.499681
H167	H	0.934929	-0.763836	-0.000281
H168	H	1.434929	-0.263836	0.499719
C169	C	0.959179	-0.615839	-0.065002
C170	C	1.459179	-0.115839	0.434998
C171	C	0.954779	-0.649577	-0.000282
C172	C	1.454779	-0.149577	0.499718
H173	H	1.002673	-0.600395	-0.065010
H174	H	1.502673	-0.100395	0.434990
H175	H	0.956200	-0.638719	-0.108894
H176	H	1.456200	-0.138719	0.391106
H177	H	0.921655	-0.585515	-0.064986
H178	H	1.421655	-0.085515	0.435014
H179	H	0.992301	-0.679903	-0.000301
H180	H	1.492301	-0.179903	0.499699
H181	H	0.957765	-0.626695	0.043622
H182	H	1.457765	-0.126695	0.543622
C183	C	0.966372	-0.039690	0.289812
C184	C	1.466372	0.460310	0.789812
C185	C	0.924464	-0.005613	0.341334
C186	C	1.424464	0.494387	0.841334
H187	H	0.998776	-0.066031	0.316695
H188	H	1.498776	0.433969	0.816695
H189	H	0.937453	-0.060118	0.258926
H190	H	1.437453	0.439882	0.758926
H191	H	0.991317	-0.016029	0.258882
H192	H	1.491317	0.483971	0.758882
H193	H	0.899514	-0.029274	0.372261
H194	H	1.399514	0.470726	0.872261
H195	H	0.953386	0.014817	0.372233
H196	H	1.453386	0.514817	0.872233
H197	H	0.464433	0.171927	-0.000215
H198	H	0.964433	0.671927	0.499785
C199	C	0.734095	0.149188	0.419308
C200	C	1.234095	0.649188	0.919308
C201	C	0.724002	0.157380	0.341386
C202	C	1.224002	0.657380	0.841386
H203	H	0.701699	0.175538	0.446204
H204	H	1.201699	0.675538	0.946204
H205	H	0.726779	0.111198	0.432309
H206	H	1.226779	0.611198	0.932309
H207	H	0.780651	0.155281	0.432257
H208	H	1.280651	0.655281	0.932257
H209	H	0.677447	0.151282	0.328436
H210	H	1.177447	0.651282	0.828436
H211	H	0.731312	0.195378	0.328380
H212	H	1.231312	0.695378	0.828380
C213	C	0.966417	-0.039674	0.772986
C214	C	1.466417	0.460326	1.272986
C215	C	0.924505	-0.005604	0.824512
C216	C	1.424505	0.494396	1.324512
H217	H	0.998828	-0.066012	0.799866
H218	H	1.498828	0.433988	1.299866
H219	H	0.937501	-0.060106	0.742101
H220	H	1.437501	0.439894	1.242101
H221	H	0.991354	-0.016008	0.742055
H222	H	1.491354	0.483992	1.242055
H223	H	0.899563	-0.029270	0.855440
H224	H	1.399563	0.470730	1.355440
H225	H	0.953424	0.014829	0.855410
H226	H	1.453424	0.514829	1.355410
C227	C	0.684134	-0.585860	-0.064933
C228	C	1.184134	-0.085860	0.435067
C229	C	0.687520	-0.620447	-0.000215
C230	C	1.187520	-0.120447	0.499785
H231	H	0.641226	-0.561004	-0.064921
H232	H	1.141226	-0.061004	0.435079
H233	H	0.722417	-0.563799	-0.064937
H234	H	1.222417	-0.063799	0.435063
H235	H	0.686450	-0.609321	-0.108832
H236	H	1.186450	-0.109321	0.391168
H237	H	0.685210	-0.596985	0.043684
H238	H	1.185210	-0.096985	0.543684
H239	H	0.649226	-0.642509	-0.000204
H240	H	1.149226	-0.142509	0.499796
C241	C	0.266678	-0.023000	-0.000233
C242	C	0.766678	0.477000	0.499767
C243	C	0.196907	-0.034821	-0.000248
C244	C	0.696907	0.465179	0.499752
H245	H	0.297277	-0.057926	-0.000220
H246	H	0.797277	0.442074	0.499780
H247	H	0.275063	-0.001532	-0.044132
H248	H	0.775063	0.498468	0.455868
H249	H	0.275013	-0.001533	0.043674
H250	H	0.775013	0.498467	0.543674
H251	H	0.188570	-0.056284	-0.044158
H252	H	0.688570	0.443716	0.455842
H253	H	0.188519	-0.056299	0.043656
H254	H	0.688519	0.443701	0.543656
C255	C	0.760820	0.192249	0.612622
C256	C	1.260820	0.692249	1.112622
C257	C	0.724032	0.157388	0.658216
C258	C	1.224032	0.657388	1.158216
H259	H	0.728418	0.218594	0.585741
H260	H	1.228418	0.718594	1.085741
H261	H	0.789736	0.212673	0.643516
H262	H	1.289736	0.712673	1.143516
H263	H	0.789248	0.169120	0.577676
H264	H	1.289248	0.669120	1.077676
H265	H	0.695608	0.180516	0.693166
H266	H	1.195608	0.680516	1.193166
H267	H	0.695104	0.136962	0.627319
H268	H	1.195104	0.636962	1.127319
H269	H	0.644310	-0.458446	-0.000224
H270	H	1.144310	0.041554	0.499776
C271	C	1.018094	-0.147801	-0.000260
C272	C	1.518094	0.352199	0.499740
C273	C	0.962794	-0.103093	-0.000238
C274	C	1.462794	0.396907	0.499762
H275	H	1.061588	-0.132357	-0.000276
H276	H	1.561588	0.367643	0.499724
H277	H	1.015100	-0.170687	0.043639
H278	H	1.515100	0.329313	0.543639
H279	H	1.015103	-0.170673	-0.044167
H280	H	1.515103	0.329327	0.455833
H281	H	0.965782	-0.080223	0.043672
H282	H	1.465782	0.419777	0.543672
H283	H	0.965790	-0.080197	-0.044142
H284	H	1.465790	0.419803	0.455858
H285	H	0.737584	0.146310	0.186324
H286	H	1.237584	0.646310	0.686324
H287	H	0.910892	0.005455	0.669457
H288	H	1.410892	0.505455	1.169457
H289	H	0.495937	-0.016404	-0.000195
H290	H	0.995937	0.483596	0.499805
C291	C	1.023989	-0.542546	0.064430
C292	C	1.523989	-0.042546	0.564430
C293	C	1.020610	-0.507960	-0.000288
C294	C	1.520610	-0.007960	0.499712
H295	H	1.066893	-0.567407	0.064419
H296	H	1.566893	-0.067407	0.564419
H297	H	1.021672	-0.519089	0.108324
H298	H	1.521672	-0.019089	0.608324
H299	H	0.985698	-0.564607	0.064429
H300	H	1.485698	-0.064607	0.564429
H301	H	1.058899	-0.485896	-0.000284
H302	H	1.558899	0.014104	0.499716
H303	H	1.022934	-0.531420	-0.044193
H304	H	1.522934	-0.031420	0.455807
C305	C	0.571450	-0.372777	-0.000203
C306	C	1.071450	0.127223	0.499797
C307	C	0.627884	-0.340251	-0.000212
C308	C	1.127884	0.159749	0.499788
H309	H	0.528548	-0.347914	-0.000189
H310	H	1.028548	0.152086	0.499811
H311	H	0.573768	-0.396225	-0.044106
H312	H	1.073768	0.103775	0.455894
H313	H	0.573756	-0.396244	0.043700
H314	H	1.073756	0.103756	0.543700
H315	H	0.625580	-0.316787	-0.044119
H316	H	1.125580	0.183213	0.455881
H317	H	0.625564	-0.316793	0.043695
H318	H	1.125564	0.183207	0.543695
C319	C	0.964381	-0.262343	-0.064975
C320	C	1.464381	0.237657	0.435025
C321	C	0.960972	-0.227777	-0.000253
C322	C	1.460972	0.272223	0.499747
H323	H	1.007289	-0.287197	-0.064985
H324	H	1.507289	0.212803	0.435015
H325	H	0.926098	-0.284404	-0.064965
H326	H	1.426098	0.215596	0.435035
H327	H	0.962079	-0.238867	-0.108871
H328	H	1.462079	0.261133	0.391129
H329	H	0.963269	-0.251252	0.043643
H330	H	1.463269	0.248748	0.543643
H331	H	0.999265	-0.205713	-0.000256
H332	H	1.499265	0.294287	0.499744
C333	C	0.682122	0.191461	0.773062
C334	C	1.182122	0.691461	1.273062
C335	C	0.724035	0.157388	0.824565
C336	C	1.224035	0.657388	1.324565
H337	H	0.649719	0.217804	0.799960
H338	H	1.149719	0.717804	1.299960
H339	H	0.711038	0.211888	0.742135
H340	H	1.211038	0.711888	1.242135
H341	H	0.657175	0.167798	0.742172
H342	H	1.157175	0.667798	1.242172
H343	H	0.748987	0.181051	0.855452
H344	H	1.248987	0.681051	1.355452
H345	H	0.695116	0.136960	0.855505
H346	H	1.195116	0.636960	1.355505
C347	C	0.630396	-0.700418	-0.000201
C348	C	1.130396	-0.200418	0.499799
C349	C	0.685693	-0.745128	-0.000216
C350	C	1.185693	-0.245128	0.499784
H351	H	0.586901	-0.715859	-0.000200
H352	H	1.086901	-0.215859	0.499800
H353	H	0.633380	-0.677550	0.043701
H354	H	1.133380	-0.177550	0.543701
H355	H	0.633401	-0.677529	-0.044105
H356	H	1.133401	-0.177529	0.455895
H357	H	0.682691	-0.768015	0.043691
H358	H	1.182691	-0.268015	0.543691
H359	H	0.682708	-0.768007	-0.044123
H360	H	1.182708	-0.268007	0.455877
C361	C	0.638411	-0.153948	-0.000175
C362	C	1.138411	0.346052	0.499825
C363	C	0.693712	-0.198654	-0.000191
C364	C	1.193712	0.301346	0.499809
H365	H	0.594918	-0.169392	-0.000181
H366	H	1.094918	0.330608	0.499819
H367	H	0.641388	-0.131083	0.043732
H368	H	1.141388	0.368917	0.543732
H369	H	0.641416	-0.131055	-0.044074
H370	H	1.141416	0.368945	0.455926
H371	H	0.690709	-0.221545	0.043712
H372	H	1.190709	0.278455	0.543712
H373	H	0.690733	-0.221529	-0.044102
H374	H	1.190733	0.278471	0.455898
H375	H	0.910852	0.005450	0.186275
H376	H	1.410852	0.505450	0.686275
C377	C	0.581598	0.219646	-0.064925
C378	C	1.081598	0.719646	0.435075
C379	C	0.604432	0.188434	-0.000197
C380	C	1.104432	0.688434	0.499803
H381	H	0.600399	0.255171	-0.064923
H382	H	1.100399	0.755171	0.435077
H383	H	0.597134	0.198466	-0.108812
H384	H	1.097134	0.698466	0.391188
H385	H	0.531775	0.226476	-0.064929
H386	H	1.031775	0.726476	0.435071
H387	H	0.654255	0.181600	-0.000196
H388	H	1.154255	0.681600	0.499804
H389	H	0.588900	0.209618	0.043702
H390	H	1.088900	0.709618	0.543702
H391	H	0.152543	0.168178	-0.000274
H392	H	0.652543	0.668178	0.499726
C393	C	0.683271	-0.032155	0.064576
C394	C	1.183271	0.467845	0.564576
C395	C	0.640904	-0.029485	-0.000150
C396	C	1.140904	0.470515	0.499850
H397	H	0.713868	-0.067082	0.064585
H398	H	1.213868	0.432918	0.564585
H399	H	0.710202	-0.000861	0.064571
H400	H	1.210202	0.499139	0.564571
H401	H	0.654473	-0.030341	0.108470
H402	H	1.154473	0.469659	0.608470
H403	H	0.669702	-0.031295	-0.044043
H404	H	1.169702	0.468705	0.455957
H405	H	0.613971	-0.060787	-0.000151
H406	H	1.113971	0.439213	0.499849
C407	C	0.047299	0.227377	-0.000311
C408	C	0.547299	0.727377	0.499689
C409	C	0.007585	0.181252	-0.000304
C410	C	0.507585	0.681252	0.499696
H411	H	0.016698	0.262302	-0.000330
H412	H	0.516698	0.762302	0.499670
H413	H	0.076038	0.225562	0.043594
H414	H	0.576038	0.725562	0.543594
H415	H	0.076087	0.225553	-0.044212
H416	H	0.576087	0.725553	0.455788
H417	H	-0.021200	0.183073	0.043600
H418	H	0.478800	0.683073	0.543600
H419	H	-0.021166	0.183068	-0.044213
H420	H	0.478834	0.683068	0.455787
C421	C	1.077737	-0.427993	-0.000304
C422	C	1.577737	0.072007	0.499696
C423	C	1.022442	-0.383281	-0.000284
C424	C	1.522442	0.116719	0.499716
H425	H	1.121233	-0.412554	-0.000323
H426	H	1.621233	0.087446	0.499677
H427	H	1.074740	-0.450877	0.043597
H428	H	1.574740	0.049123	0.543597
H429	H	1.074742	-0.450867	-0.044209
H430	H	1.574742	0.049133	0.455791
H431	H	1.025434	-0.360410	0.043625
H432	H	1.525434	0.139590	0.543625
H433	H	1.025440	-0.360388	-0.044189
H434	H	1.525440	0.139612	0.455811
H435	H	0.713561	-0.084394	-0.000177
H436	H	1.213561	0.415606	0.499823
