data_functionalizedCrystal
_audit_creation_method	'MofGen! by Chris Wilmer'
_symmetry_space_group_name_H-M	'P1'
_symmetry_Int_Tables_number	1
_symmetry_cell_setting	triclinic
loop_
_symmetry_equiv_pos_as_xyz
  x,y,z
_cell_length_a	19.188933
_cell_length_b	19.188930
_cell_length_c	15.455313
_cell_angle_alpha	92.650876
_cell_angle_beta	87.329187
_cell_angle_gamma	83.145175
loop_
_atom_site_label
_atom_site_type_symbol
_atom_site_fract_x
_atom_site_fract_y
_atom_site_fract_z
O1	O	0.929213	0.084112	-0.072111
O2	O	1.429213	0.584112	0.427889
O3	O	0.725902	0.095844	-0.072121
O4	O	1.225902	0.595844	0.427879
O5	O	0.833424	-0.011677	-0.072099
O6	O	1.333424	0.488323	0.427901
O7	O	0.821691	0.191633	-0.072133
O8	O	1.321691	0.691633	0.427867
O9	O	0.827275	-0.005554	0.072162
O10	O	1.327275	0.494446	0.572162
O11	O	0.719754	0.101967	0.072140
O12	O	1.219754	0.601967	0.572140
O13	O	0.923064	0.090235	0.072150
O14	O	1.423064	0.590235	0.572150
Cu15	Cu	0.820847	0.096660	0.085317
Cu16	Cu	1.320847	0.596660	0.585317
Cu17	Cu	0.828119	0.089419	-0.085288
Cu18	Cu	1.328119	0.589419	0.414712
O19	O	0.815542	0.197756	0.072128
O20	O	1.315542	0.697756	0.572128
C21	C	0.696817	0.098525	0.000009
C22	C	1.196817	0.598525	0.500009
C23	C	0.619312	0.097384	0.000006
C24	C	1.119312	0.597384	0.500006
C25	C	0.069408	0.085901	-0.078620
C26	C	0.569408	0.585901	0.421380
C27	C	0.142233	0.086969	-0.078623
C28	C	0.642233	0.586969	0.421377
C29	C	0.175298	0.090845	0.000013
C30	C	0.675298	0.590845	0.500013
C31	C	0.135535	0.093634	0.078659
C32	C	0.635535	0.593634	0.578659
C33	C	0.062713	0.092559	0.078660
C34	C	0.562713	0.592559	0.578660
N35	N	0.281824	0.134747	0.058538
N36	N	0.781824	0.634747	0.558538
N37	N	0.351002	0.135770	0.058532
N38	N	0.851002	0.635770	0.558532
C39	C	0.394707	0.094082	0.000014
C40	C	0.894707	0.594082	0.500014
N41	N	0.366620	0.051342	-0.058511
N42	N	0.866620	0.551342	0.441489
N43	N	0.297435	0.050323	-0.058507
N44	N	0.797435	0.550323	0.441493
C45	C	0.254261	0.092010	0.000020
C46	C	0.754261	0.592010	0.500020
C47	C	0.513426	0.092446	-0.078631
C48	C	1.013426	0.592446	0.421369
C49	C	0.586252	0.093510	-0.078631
C50	C	1.086252	0.593510	0.421369
C51	C	0.579552	0.100182	0.078653
C52	C	1.079552	0.600182	0.578653
C53	C	0.506728	0.099111	0.078651
C54	C	1.006728	0.599111	0.578651
C55	C	0.473669	0.095246	0.000007
C56	C	0.973669	0.595246	0.500007
C57	C	0.829969	-0.034626	0.000034
C58	C	1.329969	0.465374	0.500034
C59	C	0.828828	-0.112131	0.000042
C60	C	1.328828	0.387869	0.500042
C61	C	0.891919	-0.157054	0.000049
C62	C	1.391919	0.342946	0.500049
C63	C	0.890848	-0.229878	0.000035
C64	C	1.390848	0.270122	0.500035
C65	C	0.826682	-0.257775	0.000031
C66	C	1.326682	0.242225	0.500031
C67	C	0.763583	-0.212842	0.000019
C68	C	1.263583	0.287158	0.500019
C69	C	0.764657	-0.140020	0.000024
C70	C	1.264657	0.359980	0.500024
N71	N	0.775542	-0.363697	0.049124
N72	N	1.275542	0.136303	0.549124
N73	N	0.774527	-0.432876	0.049121
N74	N	1.274527	0.067124	0.549121
C75	C	0.823445	-0.477185	0.000013
C76	C	1.323445	0.022815	0.500013
N77	N	0.873426	-0.449703	-0.049079
N78	N	1.373426	0.050297	0.450921
N79	N	0.874443	-0.380518	-0.049072
N80	N	1.374443	0.119482	0.450928
C81	C	0.825511	-0.336738	0.000025
C82	C	1.325511	0.163262	0.500025
C83	C	0.885378	-0.601073	0.000004
C84	C	1.385378	-0.101073	0.500004
C85	C	0.884305	-0.673899	-0.000015
C86	C	1.384305	-0.173899	0.499985
C87	C	0.757038	-0.656861	-0.000022
C88	C	1.257038	-0.156861	0.499978
C89	C	0.758114	-0.584037	-0.000011
C90	C	1.258114	-0.084037	0.499989
C91	C	0.822285	-0.556148	0.000006
C92	C	1.322285	-0.056148	0.500006
C93	C	0.952149	0.087553	0.000018
C94	C	1.452149	0.587553	0.500018
C95	C	1.029654	0.088694	0.000015
C96	C	1.529654	0.588694	0.500015
C97	C	0.818997	0.220705	-0.000007
C98	C	1.318997	0.720705	0.499993
C99	C	0.820138	0.298209	-0.000020
C100	C	1.320138	0.798209	0.499980
N101	N	0.815738	0.101753	0.205312
N102	N	1.315738	0.601753	0.705312
N103	N	0.833233	0.084320	-0.205283
N104	N	1.333233	0.584320	0.294717
C105	C	0.861433	0.056091	0.250715
C106	C	1.361433	0.556091	0.750715
C107	C	0.857576	0.059949	0.341522
C108	C	1.357576	0.559949	0.841522
C109	C	0.808026	0.109473	0.386924
C110	C	1.308026	0.609473	0.886924
C111	C	0.762327	0.155137	0.341514
C112	C	1.262327	0.655137	0.841514
C113	C	0.766181	0.151275	0.250709
C114	C	1.266181	0.651275	0.750709
C115	C	0.791388	0.126123	0.658502
C116	C	1.291388	0.626123	1.158502
C117	C	0.787539	0.129982	0.749314
C118	C	1.287539	0.629982	1.249314
C119	C	0.882787	0.034793	0.749316
C120	C	1.382787	0.534793	1.249316
C121	C	0.886640	0.030939	0.658508
C122	C	1.386640	0.530939	1.158508
C123	C	0.840938	0.076600	0.613107
C124	C	1.340938	0.576600	1.113107
N125	N	0.804084	0.113419	0.479744
N126	N	1.304084	0.613419	0.979744
N127	N	0.844878	0.072650	0.520289
N128	N	1.344878	0.572650	1.020289
H129	H	0.162462	0.096788	0.142685
H130	H	0.662462	0.596788	0.642685
C131	C	0.018981	0.095638	0.165162
C132	C	0.518981	0.595638	0.665162
H133	H	0.049100	0.098103	0.211997
H134	H	0.549100	0.598103	0.711997
H135	H	-0.004121	0.054655	0.168438
H136	H	0.495879	0.554655	0.668438
H137	H	-0.015012	0.136072	0.168424
H138	H	0.484988	0.636072	0.668424
H139	H	0.486508	0.089297	-0.142668
H140	H	0.986508	0.589297	0.357332
H141	H	0.894783	0.022767	0.378489
H142	H	1.394783	0.522767	0.878489
C143	C	0.615912	0.104443	0.165154
C144	C	1.115912	0.604443	0.665154
H145	H	0.581803	0.105950	0.211988
H146	H	1.081803	0.605950	0.711988
H147	H	0.638734	0.145705	0.168420
H148	H	1.138734	0.645705	0.668420
H149	H	0.649628	0.064288	0.168426
H150	H	1.149628	0.564288	0.668426
C151	C	0.733032	0.184458	0.799259
C152	C	1.233032	0.684458	1.299259
H153	H	0.737290	0.180222	0.859842
H154	H	1.237290	0.680222	1.359842
H155	H	0.687090	0.176357	0.784398
H156	H	1.187090	0.676357	1.284398
H157	H	0.741103	0.230408	0.784359
H158	H	1.241103	0.730408	1.284359
H159	H	0.706738	-0.547459	-0.000012
H160	H	1.206738	-0.047459	0.499988
H161	H	0.728971	0.188457	0.213742
H162	H	1.228971	0.688457	0.713742
C163	C	0.707825	0.209613	0.391454
C164	C	1.207825	0.709613	0.891454
H165	H	0.712078	0.205379	0.452038
H166	H	1.212078	0.705379	0.952038
H167	H	0.661883	0.201515	0.376589
H168	H	1.161883	0.701515	0.876589
H169	H	0.715900	0.255561	0.376553
H170	H	1.215900	0.755561	0.876553
C171	C	0.033044	0.081644	-0.165123
C172	C	0.533044	0.581644	0.334877
H173	H	-0.016021	0.081409	-0.153862
H174	H	0.483979	0.581409	0.346138
H175	H	0.051806	0.039746	-0.197432
H176	H	0.551806	0.539746	0.302568
H177	H	0.040904	0.121163	-0.197434
H178	H	0.540904	0.621163	0.302566
H179	H	0.174606	0.084699	-0.142660
H180	H	0.674606	0.584699	0.357340
C181	C	0.741124	0.176354	0.608571
C182	C	1.241124	0.676354	1.108571
H183	H	0.711069	0.206406	0.648619
H184	H	1.211069	0.706406	1.148619
H185	H	0.713640	0.149807	0.573163
H186	H	1.213640	0.649807	1.073163
H187	H	0.767657	0.203853	0.573134
H188	H	1.267657	0.703853	1.073134
C189	C	0.960249	-0.279302	0.000049
C190	C	1.460249	0.220698	0.500049
H191	H	0.998620	-0.252262	0.000065
H192	H	1.498620	0.247738	0.500065
H193	H	0.964625	-0.310195	-0.050257
H194	H	1.464625	0.189805	0.449743
H195	H	0.960323	-0.305932	0.050363
H196	H	1.460323	0.194068	0.550363
C197	C	0.462995	0.102195	0.165151
C198	C	0.962995	0.602195	0.665151
H199	H	0.493115	0.104662	0.211985
H200	H	0.993115	0.604662	0.711985
H201	H	0.439895	0.061210	0.168429
H202	H	0.939895	0.561210	0.668429
H203	H	0.429001	0.142626	0.168412
H204	H	0.929001	0.642626	0.668412
H205	H	0.618620	0.091230	-0.142668
H206	H	1.118620	0.591230	0.357332
H207	H	0.944173	-0.134351	0.000060
H208	H	1.444173	0.365649	0.500060
H209	H	0.935683	-0.710475	-0.000014
H210	H	1.435683	-0.210475	0.499986
C211	C	0.693003	-0.243526	0.000018
C212	C	1.193003	0.256474	0.500018
H213	H	0.701399	-0.293331	0.000025
H214	H	1.201399	0.206669	0.500025
H215	H	0.669177	-0.230222	-0.050289
H216	H	1.169177	0.269778	0.449711
H217	H	0.664891	-0.225963	0.050331
H218	H	1.164891	0.274037	0.550331
C219	C	0.933048	-0.015436	0.799259
C220	C	1.433048	0.484564	1.299259
H221	H	0.923654	-0.006050	0.859842
H222	H	1.423654	0.493950	1.359842
H223	H	0.980253	-0.008605	0.784364
H224	H	1.480253	0.491395	1.284364
H225	H	0.926234	-0.062649	0.784391
H226	H	1.426234	0.437351	1.284391
C227	C	0.915937	0.001613	0.200781
C228	C	1.415937	0.501613	0.700781
H229	H	0.942593	-0.025033	0.240830
H230	H	1.442593	0.474967	0.740830
H231	H	0.946427	0.025148	0.165341
H232	H	1.446427	0.525148	0.665341
H233	H	0.892410	-0.028898	0.165375
H234	H	1.392410	0.471102	0.665375
C235	C	0.695254	-0.090602	0.000025
C236	C	1.195254	0.409398	0.500025
H237	H	0.656883	-0.117644	0.000025
H238	H	1.156883	0.382356	0.500025
H239	H	0.695171	-0.063963	-0.050277
H240	H	1.195171	0.436037	0.449723
H241	H	0.690885	-0.059717	0.050344
H242	H	1.190885	0.440283	0.550344
H243	H	0.704793	-0.679574	-0.000029
H244	H	1.204793	-0.179574	0.499971
H245	H	0.937631	-0.578365	0.000014
H246	H	1.437631	-0.078365	0.500014
H247	H	0.926987	-0.009388	0.621544
H248	H	1.426987	0.490612	1.121544
