data_functionalizedCrystal
_audit_creation_method	'MofGen! by Chris Wilmer'
_symmetry_space_group_name_H-M	'P1'
_symmetry_Int_Tables_number	1
_symmetry_cell_setting	triclinic
loop_
_symmetry_equiv_pos_as_xyz
  x,y,z
_cell_length_a	16.109301
_cell_length_b	19.188930
_cell_length_c	15.186229
_cell_angle_alpha	89.991143
_cell_angle_beta	89.999362
_cell_angle_gamma	83.303131
loop_
_atom_site_label
_atom_site_type_symbol
_atom_site_fract_x
_atom_site_fract_y
_atom_site_fract_z
O1	O	1.102833	0.089744	-0.073183
O2	O	1.602833	0.589744	0.426817
O3	O	0.860734	0.100912	-0.073198
O4	O	1.360734	0.600912	0.426802
O5	O	0.988770	-0.006311	-0.073173
O6	O	1.488770	0.493689	0.426827
O7	O	0.974797	0.196967	-0.073208
O8	O	1.474797	0.696967	0.426792
O9	O	0.988762	-0.006313	0.073284
O10	O	1.488762	0.493687	0.573284
O11	O	0.860726	0.100911	0.073259
O12	O	1.360726	0.600911	0.573259
O13	O	1.102825	0.089742	0.073274
O14	O	1.602825	0.589742	0.573274
Zn15	Zn	0.981774	0.095326	0.096520
Zn16	Zn	1.481774	0.595326	0.596520
Zn17	Zn	0.981785	0.095328	-0.096444
Zn18	Zn	1.481785	0.595328	0.403556
O19	O	0.974789	0.196966	0.073249
O20	O	1.474789	0.696966	0.573249
C21	C	0.829757	0.100459	0.000029
C22	C	1.329757	0.600459	0.500029
C23	C	0.737466	0.099103	0.000024
C24	C	1.237466	0.599103	0.500024
C25	C	0.514993	0.159573	0.000023
C26	C	1.014993	0.659573	0.500023
C27	C	0.428277	0.158294	0.000029
C28	C	0.928277	0.658294	0.500029
C29	C	0.448573	0.031076	0.000048
C30	C	0.948573	0.531076	0.500048
C31	C	0.535287	0.032357	0.000048
C32	C	1.035287	0.532357	0.500048
C33	C	0.568495	0.096608	0.000031
C34	C	1.068495	0.596608	0.500031
C35	C	0.395064	0.094047	0.000037
C36	C	0.895064	0.594047	0.500037
C37	C	0.301043	0.092659	0.000043
C38	C	0.801043	0.592659	0.500043
C39	C	0.662522	0.097996	0.000027
C40	C	1.162522	0.597996	0.500027
C41	C	0.988313	-0.032324	0.000058
C42	C	1.488313	0.467676	0.500058
C43	C	0.986955	-0.109832	0.000066
C44	C	1.486955	0.390168	0.500066
C45	C	1.062082	-0.154580	0.000075
C46	C	1.562082	0.345420	0.500075
C47	C	1.060806	-0.227407	0.000060
C48	C	1.560806	0.272593	0.500060
C49	C	0.984399	-0.255482	0.000055
C50	C	1.484399	0.244518	0.500055
C51	C	0.909261	-0.210724	0.000041
C52	C	1.409261	0.289276	0.500041
C53	C	0.910540	-0.137899	0.000046
C54	C	1.410540	0.362101	0.500046
N55	N	0.925991	-0.363624	0.049893
N56	N	1.425991	0.136376	0.549893
N57	N	0.924782	-0.432805	0.049890
N58	N	1.424782	0.067195	0.549890
C59	C	0.980543	-0.474900	0.000037
C60	C	1.480543	0.025100	0.500037
N61	N	1.037571	-0.445200	-0.049802
N62	N	1.537571	0.054800	0.450198
N63	N	1.038783	-0.376013	-0.049795
N64	N	1.538783	0.123987	0.450205
C65	C	0.983004	-0.334448	0.000049
C66	C	1.483004	0.165552	0.500049
C67	C	1.054292	-0.598616	0.000029
C68	C	1.554292	-0.098616	0.500029
C69	C	1.053012	-0.671443	0.000010
C70	C	1.553012	-0.171443	0.500010
C71	C	0.901465	-0.654759	-0.000001
C72	C	1.401465	-0.154759	0.499999
C73	C	0.902747	-0.581933	0.000010
C74	C	1.402747	-0.081933	0.500010
C75	C	0.979162	-0.553866	0.000029
C76	C	1.479162	-0.053866	0.500029
C77	C	1.133802	0.090196	0.000045
C78	C	1.633802	0.590196	0.500045
C79	C	1.226093	0.091552	0.000045
C80	C	1.726093	0.591552	0.500045
C81	C	0.975246	0.222979	0.000016
C82	C	1.475246	0.722979	0.500016
C83	C	0.976604	0.300486	0.000003
C84	C	1.476604	0.800486	0.500003
N85	N	0.981772	0.095325	0.228213
N86	N	1.481772	0.595325	0.728213
N87	N	0.981793	0.095325	-0.228137
N88	N	1.481793	0.595325	0.271863
C89	C	1.038486	0.047862	0.453947
C90	C	1.538486	0.547862	0.953947
C91	C	1.038488	0.047860	0.546136
C92	C	1.538488	0.547860	1.046136
C93	C	0.925074	0.142790	0.546123
C94	C	1.425074	0.642790	1.046123
C95	C	0.925068	0.142787	0.453935
C96	C	1.425068	0.642787	0.953935
C97	C	0.981779	0.095324	0.407849
C98	C	1.481779	0.595324	0.907849
C99	C	0.981787	0.095325	0.592227
C100	C	1.481787	0.595325	1.092227
C101	C	0.981790	0.095323	0.692183
C102	C	1.481790	0.595323	1.192183
C103	C	0.981775	0.095325	0.307887
C104	C	1.481775	0.595325	0.807887
H105	H	1.121986	-0.263848	0.000064
H106	H	1.621986	0.236152	0.500064
C107	C	0.384281	0.266329	-0.075284
C108	C	0.884281	0.766329	0.424716
C109	C	0.369467	0.227507	0.000014
C110	C	0.869467	0.727507	0.500014
H111	H	0.347969	0.309058	-0.075294
H112	H	0.847969	0.809058	0.424706
H113	H	0.440671	0.276283	-0.075281
H114	H	0.940671	0.776283	0.424719
H115	H	0.374234	0.239976	-0.126345
H116	H	0.874234	0.739976	0.373655
H117	H	0.379520	0.253858	0.051075
H118	H	0.879520	0.753858	0.551075
H119	H	0.313063	0.217555	0.000019
H120	H	0.813063	0.717555	0.500019
H121	H	0.847050	-0.233587	0.000035
H122	H	1.347050	0.266413	0.500035
C123	C	0.477345	-0.094543	0.000066
C124	C	0.977345	0.405457	0.500066
C125	C	0.412069	-0.039546	0.000055
C126	C	0.912069	0.460454	0.500055
H127	H	0.454808	-0.138142	0.000073
H128	H	0.954808	0.361858	0.500073
H129	H	0.510745	-0.091394	-0.051002
H130	H	1.010745	0.408606	0.448998
H131	H	0.510743	-0.091396	0.051144
H132	H	1.010743	0.408604	0.551144
H133	H	0.378674	-0.042690	-0.051026
H134	H	0.878674	0.457310	0.448974
H135	H	0.378655	-0.042696	0.051129
H136	H	0.878655	0.457304	0.551129
C137	C	1.088852	0.005707	0.687457
C138	C	1.588852	0.505707	1.187457
C139	C	1.100823	-0.004311	0.596808
C140	C	1.600823	0.495689	1.096808
H141	H	1.127333	-0.026507	0.718737
H142	H	1.627333	0.473493	1.218737
H143	H	1.097712	0.052301	0.702552
H144	H	1.597712	0.552301	1.202552
H145	H	1.033393	-0.001891	0.702560
H146	H	1.533393	0.498109	1.202560
H147	H	1.156280	0.003292	0.581703
H148	H	1.656280	0.503292	1.081703
H149	H	1.091969	-0.050917	0.581707
H150	H	1.591969	0.449083	1.081707
C151	C	0.816272	-0.490349	-0.075279
C152	C	1.316272	0.009651	0.424721
C153	C	0.820162	-0.532742	0.000008
C154	C	1.320162	-0.032742	0.500008
H155	H	0.765282	-0.459985	-0.075283
H156	H	1.265282	0.040015	0.424717
H157	H	0.861954	-0.463210	-0.075266
H158	H	1.361954	0.036790	0.424734
H159	H	0.818929	-0.519106	-0.126347
H160	H	1.318929	-0.019106	0.373653
H161	H	0.817511	-0.503985	0.051077
H162	H	1.317511	-0.003985	0.551077
H163	H	0.774467	-0.559884	0.000003
H164	H	1.274467	-0.059884	0.500003
C165	C	1.139477	-0.763040	0.075293
C166	C	1.639477	-0.263040	0.575293
C167	C	1.135596	-0.720638	0.000014
C168	C	1.635596	-0.220638	0.500014
H169	H	1.190459	-0.793414	0.075290
H170	H	1.690459	-0.293414	0.575290
H171	H	1.136826	-0.734295	0.126361
H172	H	1.636826	-0.234295	0.626361
H173	H	1.093781	-0.790175	0.075271
H174	H	1.593781	-0.290175	0.575271
H175	H	1.181288	-0.693499	0.000039
H176	H	1.681288	-0.193499	0.500039
H177	H	1.138255	-0.749387	-0.051067
H178	H	1.638255	-0.249387	0.448933
C179	C	1.150584	-0.045977	0.463223
C180	C	1.650584	0.454023	0.963223
C181	C	1.100813	-0.004315	0.403288
C182	C	1.600813	0.495685	0.903288
H183	H	1.189057	-0.078193	0.431948
H184	H	1.689057	0.421807	0.931948
H185	H	1.180385	-0.016907	0.499167
H186	H	1.680385	0.483093	0.999167
H187	H	1.116060	-0.071094	0.499191
H188	H	1.616060	0.428906	0.999191
H189	H	1.135337	0.020807	0.367324
H190	H	1.635337	0.520807	0.867324
H191	H	1.071010	-0.033389	0.367329
H192	H	1.571010	0.466611	0.867329
H193	H	0.878902	0.181434	0.583655
H194	H	1.378902	0.681434	1.083655
H195	H	0.849360	-0.101464	0.000039
H196	H	1.349360	0.398536	0.500039
C197	C	0.644588	-0.040001	-0.075230
C198	C	1.144588	0.459999	0.424770
C199	C	0.594106	-0.036860	0.000055
C200	C	1.094106	0.463140	0.500055
H201	H	0.680903	-0.082729	-0.075219
H202	H	1.180903	0.417271	0.424781
H203	H	0.610339	-0.037860	-0.126294
H204	H	1.110339	0.462140	0.373706
H205	H	0.676770	-0.001549	-0.075224
H206	H	1.176770	0.498451	0.424776
H207	H	0.561919	-0.075309	0.000046
H208	H	1.061919	0.424691	0.500046
H209	H	0.628359	-0.039008	0.051132
H210	H	1.128359	0.460992	0.551132
H211	H	0.878886	0.181437	0.416400
H212	H	1.378886	0.681437	0.916400
C213	C	0.600728	0.234825	-0.075281
C214	C	1.100728	0.734825	0.424719
C215	C	0.551493	0.230197	0.000010
C216	C	1.051493	0.730197	0.500010
H217	H	0.623254	0.278429	-0.075289
H218	H	1.123254	0.778429	0.424711
H219	H	0.645002	0.197515	-0.075271
H220	H	1.145002	0.697515	0.424729
H221	H	0.567312	0.231681	-0.126346
H222	H	1.067312	0.731681	0.373654
H223	H	0.584911	0.233337	0.051076
H224	H	1.084911	0.733337	0.551076
H225	H	0.507214	0.267518	0.000007
H226	H	1.007214	0.767518	0.500007
H227	H	1.124306	-0.131733	0.000087
H228	H	1.624306	0.368267	0.500087
H229	H	1.116514	-0.575763	0.000041
H230	H	1.616514	-0.075763	0.500041
H231	H	0.839253	-0.677617	-0.000010
H232	H	1.339253	-0.177617	0.499990
