data_functionalizedCrystal
_audit_creation_method	'MofGen! by Chris Wilmer'
_symmetry_space_group_name_H-M	'P1'
_symmetry_Int_Tables_number	1
_symmetry_cell_setting	triclinic
loop_
_symmetry_equiv_pos_as_xyz
  x,y,z
_cell_length_a	14.044220
_cell_length_b	14.044190
_cell_length_c	17.766277
_cell_angle_alpha	89.989261
_cell_angle_beta	89.995720
_cell_angle_gamma	93.190328
loop_
_atom_site_label
_atom_site_type_symbol
_atom_site_fract_x
_atom_site_fract_y
_atom_site_fract_z
O1	O	1.277180	0.230170	-0.062529
O2	O	1.777180	0.730170	0.437471
O3	O	1.000509	0.221865	-0.062548
O4	O	1.500509	0.721865	0.437452
O5	O	1.134688	0.087681	-0.062524
O6	O	1.634688	0.587681	0.437476
O7	O	1.143001	0.364354	-0.062553
O8	O	1.643001	0.864354	0.437447
O9	O	1.134662	0.087672	0.062664
O10	O	1.634662	0.587672	0.562664
O11	O	1.000482	0.221855	0.062641
O12	O	1.500482	0.721855	0.562641
O13	O	1.277154	0.230161	0.062659
O14	O	1.777154	0.730161	0.562659
Cu15	Cu	1.138816	0.226007	0.074081
Cu16	Cu	1.638816	0.726007	0.574081
Cu17	Cu	1.138847	0.226018	-0.073969
Cu18	Cu	1.638847	0.726018	0.426031
O19	O	1.142975	0.364344	0.062635
O20	O	1.642975	0.864344	0.562635
C21	C	0.964874	0.218224	0.000044
C22	C	1.464874	0.718224	0.500044
C23	C	0.858731	0.207380	0.000038
C24	C	1.358731	0.707380	0.500038
C25	C	1.131039	0.052054	0.000072
C26	C	1.631039	0.552054	0.500072
C27	C	1.120191	-0.054089	0.000078
C28	C	1.620191	0.445911	0.500078
C29	C	0.664392	0.187553	0.000055
C30	C	1.164392	0.687553	0.500055
C31	C	0.613264	0.264468	0.000050
C32	C	1.113264	0.764468	0.500050
C33	C	0.505128	0.253436	0.000059
C34	C	1.005128	0.753436	0.500059
C35	C	0.772539	0.198583	0.000045
C36	C	1.272539	0.698583	0.500045
C37	C	1.177292	-0.299547	0.000052
C38	C	1.677292	0.200453	0.500052
C39	C	1.100375	-0.248422	0.000052
C40	C	1.600375	0.251578	0.500052
C41	C	1.111404	-0.140285	0.000067
C42	C	1.611404	0.359715	0.500067
C43	C	1.166265	-0.407694	0.000038
C44	C	1.666265	0.092306	0.500038
C45	C	1.312789	0.233801	0.000065
C46	C	1.812789	0.733801	0.500065
C47	C	1.418932	0.244646	0.000067
C48	C	1.918932	0.744646	0.500067
C49	C	1.146624	0.399971	0.000037
C50	C	1.646624	0.899971	0.500037
C51	C	1.157472	0.506114	0.000027
C52	C	1.657472	1.006114	0.500027
N53	N	1.138801	0.225999	0.178211
N54	N	1.638801	0.725999	0.678211
N55	N	1.138869	0.226020	-0.178100
N56	N	1.638869	0.726020	0.321900
C57	C	1.198239	0.166616	0.217608
C58	C	1.698239	0.666616	0.717608
C59	C	1.198244	0.166612	0.296410
C60	C	1.698244	0.666612	0.796410
C61	C	1.138822	0.226008	0.335811
C62	C	1.638822	0.726008	0.835811
C63	C	1.079371	0.285395	0.296404
C64	C	1.579371	0.785395	0.796404
C65	C	1.079361	0.285390	0.217604
C66	C	1.579361	0.785390	0.717604
C67	C	1.133667	0.311900	0.460640
C68	C	1.633667	0.811900	0.960640
C69	C	1.133684	0.311906	0.539439
C70	C	1.633684	0.811906	1.039439
C71	C	1.138848	0.226022	0.578858
C72	C	1.638848	0.726022	1.078858
C73	C	1.144015	0.140129	0.539468
C74	C	1.644015	0.640129	1.039468
C75	C	1.144005	0.140125	0.460668
C76	C	1.644005	0.640125	0.960668
C77	C	1.138826	0.226019	0.421257
C78	C	1.638826	0.726019	0.921257
C79	C	1.198295	0.166630	0.703701
C80	C	1.698295	0.666630	1.203701
C81	C	1.198294	0.166624	0.782504
C82	C	1.698294	0.666624	1.282504
C83	C	1.079426	0.285415	0.782497
C84	C	1.579426	0.785415	1.282497
C85	C	1.079422	0.285413	0.703696
C86	C	1.579422	0.785413	1.203696
C87	C	1.138862	0.226021	0.664302
C88	C	1.638862	0.726021	1.164302
H89	H	0.650706	0.338602	0.000038
H90	H	1.150706	0.838602	0.500038
O91	O	1.262372	0.102559	0.661193
O92	O	1.762372	0.602559	1.161193
H93	H	1.337834	0.121037	0.676298
H94	H	1.837834	0.621037	1.176298
O95	O	1.149320	0.047459	0.418187
O96	O	1.649320	0.547459	0.918187
H97	H	1.148360	0.061880	0.356771
H98	H	1.648360	0.561880	0.856771
O99	O	1.015240	0.349437	0.175110
O100	O	1.515240	0.849437	0.675110
H101	H	1.025210	0.339448	0.113696
H102	H	1.525210	0.839448	0.613696
O103	O	0.614810	0.089357	0.000065
O104	O	1.114810	0.589357	0.500065
H105	H	0.536425	0.095994	0.000063
H106	H	1.036425	0.595994	0.500063
O107	O	1.015338	0.349499	0.824971
O108	O	1.515338	0.849499	1.324971
H109	H	0.965537	0.305380	0.860895
H110	H	1.465537	0.805380	1.360895
O111	O	1.015325	0.349473	0.661194
O112	O	1.515325	0.849473	1.161194
H113	H	0.974011	0.390782	0.701829
H114	H	1.474011	0.890782	1.201829
H115	H	1.251418	-0.262106	0.000065
H116	H	1.751418	0.237894	0.500065
H117	H	1.026243	-0.285865	0.000043
H118	H	1.526243	0.214135	0.500043
H119	H	1.246636	0.118254	0.185537
H120	H	1.746636	0.618254	0.685537
H121	H	1.246648	0.118254	0.328493
H122	H	1.746648	0.618254	0.828493
H123	H	1.148220	0.070194	0.571562
H124	H	1.648220	0.570194	1.071562
O125	O	1.262416	0.102584	0.825004
O126	O	1.762416	0.602584	1.325004
H127	H	1.303753	0.061298	0.784369
H128	H	1.803753	0.561298	1.284369
O129	O	1.128130	0.404543	0.581922
O130	O	1.628130	0.904543	1.081922
H131	H	1.124524	0.464261	0.541275
H132	H	1.624524	0.964261	1.041275
O133	O	1.128103	0.404538	0.418125
O134	O	1.628103	0.904538	0.918125
H135	H	1.124530	0.464264	0.458751
H136	H	1.624530	0.964264	0.958751
O137	O	1.015283	0.349466	0.338895
O138	O	1.515283	0.849466	0.838895
H139	H	1.025284	0.339502	0.400309
H140	H	1.525284	0.839502	0.900309
