data_functionalizedCrystal
_audit_creation_method	'MofGen! by Chris Wilmer'
_symmetry_space_group_name_H-M	'P1'
_symmetry_Int_Tables_number	1
_symmetry_cell_setting	triclinic
loop_
_symmetry_equiv_pos_as_xyz
  x,y,z
_cell_length_a	17.699097
_cell_length_b	19.188925
_cell_length_c	16.176319
_cell_angle_alpha	89.993545
_cell_angle_beta	89.988988
_cell_angle_gamma	83.215490
loop_
_atom_site_label
_atom_site_type_symbol
_atom_site_fract_x
_atom_site_fract_y
_atom_site_fract_z
O1	O	1.003954	0.088339	-0.068815
O2	O	1.503954	0.588339	0.431185
O3	O	0.783562	0.099816	-0.068801
O4	O	1.283562	0.599816	0.431199
O5	O	0.900120	-0.007571	-0.068804
O6	O	1.400120	0.492429	0.431196
O7	O	0.887396	0.195726	-0.068812
O8	O	1.387396	0.695726	0.431188
O9	O	0.900104	-0.007578	0.068690
O10	O	1.400104	0.492422	0.568690
O11	O	0.783546	0.099810	0.068692
O12	O	1.283546	0.599810	0.568692
O13	O	1.003938	0.088332	0.068679
O14	O	1.503938	0.588332	0.568679
Cu15	Cu	0.893741	0.094070	0.081240
Cu16	Cu	1.393741	0.594070	0.581240
Cu17	Cu	0.893760	0.094078	-0.081362
Cu18	Cu	1.393760	0.594078	0.418638
O19	O	0.887380	0.195719	0.068681
O20	O	1.387380	0.695719	0.568681
C21	C	0.755358	0.099400	-0.000053
C22	C	1.255358	0.599400	0.499947
C23	C	0.671342	0.098162	-0.000047
C24	C	1.171342	0.598162	0.499953
C25	C	0.155642	0.090574	-0.075028
C26	C	0.655642	0.590574	0.424972
C27	C	0.234585	0.091733	-0.075024
C28	C	0.734585	0.591733	0.424976
C29	C	0.274041	0.092310	-0.000073
C30	C	0.774041	0.592310	0.499927
C31	C	0.234552	0.091720	0.074879
C32	C	0.734552	0.591720	0.574879
C33	C	0.155612	0.090556	0.074874
C34	C	0.655612	0.590556	0.574874
C35	C	0.552910	0.096413	0.074900
C36	C	1.052910	0.596413	0.574900
C37	C	0.631856	0.097580	0.074899
C38	C	1.131856	0.597580	0.574899
C39	C	0.631883	0.097590	-0.074997
C40	C	1.131883	0.597590	0.425003
C41	C	0.552943	0.096426	-0.075002
C42	C	1.052943	0.596426	0.424998
C43	C	0.513461	0.095833	-0.000051
C44	C	1.013461	0.595833	0.499949
C45	C	0.427863	0.094575	-0.000057
C46	C	0.927863	0.594575	0.499943
C47	C	0.359637	0.093573	-0.000067
C48	C	0.859637	0.593573	0.499933
C49	C	0.899701	-0.033586	-0.000057
C50	C	1.399701	0.466414	0.499943
C51	C	0.898466	-0.111092	-0.000059
C52	C	1.398466	0.388908	0.499941
C53	C	0.958590	-0.672792	-0.000084
C54	C	1.458590	-0.172792	0.499916
C55	C	0.959757	-0.599968	-0.000076
C56	C	1.459757	-0.099968	0.499924
C57	C	0.891364	-0.555113	-0.000072
C58	C	1.391364	-0.055113	0.499928
C59	C	0.821799	-0.583088	-0.000055
C60	C	1.321799	-0.083088	0.499945
C61	C	0.820634	-0.655911	-0.000054
C62	C	1.320634	-0.155911	0.499946
N63	N	0.841856	-0.434488	-0.046868
N64	N	1.341856	0.065512	0.453132
N65	N	0.842967	-0.365309	-0.046871
N66	N	1.342967	0.134691	0.453129
C67	C	0.894870	-0.335700	-0.000073
C68	C	1.394870	0.164300	0.499927
N69	N	0.945630	-0.377884	0.046717
N70	N	1.445630	0.122116	0.546717
N71	N	0.944521	-0.447069	0.046716
N72	N	1.444521	0.052931	0.546716
C73	C	0.892619	-0.476147	-0.000073
C74	C	1.392619	0.023853	0.499927
C75	C	0.965695	-0.228768	-0.000077
C76	C	1.465695	0.271232	0.499923
C77	C	0.966859	-0.155942	-0.000064
C78	C	1.466859	0.344058	0.499936
C79	C	0.828900	-0.139063	-0.000051
C80	C	1.328900	0.360937	0.499949
C81	C	0.827738	-0.211888	-0.000055
C82	C	1.327738	0.288112	0.499945
C83	C	0.896138	-0.256737	-0.000072
C84	C	1.396138	0.243263	0.499928
C85	C	1.032143	0.088748	-0.000072
C86	C	1.532143	0.588748	0.499928
C87	C	1.116158	0.089987	-0.000082
C88	C	1.616158	0.589987	0.499918
C89	C	0.887799	0.221734	-0.000067
C90	C	1.387799	0.721734	0.499933
C91	C	0.889034	0.299240	-0.000071
C92	C	1.389034	0.799240	0.499929
N93	N	0.893733	0.094064	0.195605
N94	N	1.393733	0.594064	0.695605
N95	N	0.893773	0.094079	-0.195727
N96	N	1.393773	0.594079	0.304273
C97	C	0.945360	0.046532	0.238868
C98	C	1.445360	0.546532	0.738868
C99	C	0.945364	0.046532	0.325415
C100	C	1.445364	0.546532	0.825415
C101	C	0.893744	0.094066	0.368697
C102	C	1.393744	0.594066	0.868697
C103	C	0.842111	0.141600	0.325428
C104	C	1.342111	0.641600	0.825428
C105	C	0.842104	0.141597	0.238883
C106	C	1.342104	0.641597	0.738883
C107	C	0.842136	0.141614	0.674457
C108	C	1.342136	0.641614	1.174457
C109	C	0.842149	0.141614	0.761008
C110	C	1.342149	0.641614	1.261008
C111	C	0.945397	0.046548	0.760989
C112	C	1.445397	0.546548	1.260989
C113	C	0.945390	0.046545	0.674443
C114	C	1.445390	0.546545	1.174443
C115	C	0.893755	0.094076	0.631182
C116	C	1.393755	0.594076	1.131182
C117	C	0.893750	0.094075	0.537338
C118	C	1.393750	0.594075	1.037338
C119	C	0.893751	0.094071	0.462540
C120	C	1.393751	0.594071	0.962540
H121	H	0.266730	0.092206	-0.136053
H122	H	0.766730	0.592206	0.363947
H123	H	1.014286	-0.709304	-0.000093
H124	H	1.514286	-0.209304	0.499907
F125	F	0.113656	0.089965	-0.154803
F126	F	0.613656	0.589965	0.345197
H127	H	1.021391	-0.265286	-0.000090
H128	H	1.521391	0.234714	0.499910
H129	H	0.266685	0.092186	0.135905
H130	H	0.766685	0.592186	0.635905
F131	F	0.510954	0.095815	-0.154775
F132	F	1.010954	0.595815	0.345225
H133	H	0.664039	0.098070	-0.136026
H134	H	1.164039	0.598070	0.363974
F135	F	0.746600	-0.685677	-0.000041
F136	F	1.246600	-0.185677	0.499959
H137	H	0.800076	0.180302	0.360674
H138	H	1.300076	0.680302	0.860674
F139	F	0.787204	0.192209	0.807071
F140	F	1.287204	0.692209	1.307071
F141	F	1.033790	-0.570196	-0.000082
F142	F	1.533790	-0.070196	0.499918
F143	F	1.040894	-0.126178	-0.000080
F144	F	1.540894	0.373822	0.499920
H145	H	0.123464	0.090086	0.135902
H146	H	0.623464	0.590086	0.635902
F147	F	0.749011	-0.535349	-0.000047
F148	F	1.249011	-0.035349	0.499953
H149	H	0.773213	-0.102543	-0.000041
H150	H	1.273213	0.397457	0.499959
F151	F	0.753706	-0.241654	-0.000048
F152	F	1.253706	0.258346	0.499952
H153	H	0.987399	0.007827	0.203633
H154	H	1.487399	0.507827	0.703633
F155	F	1.000350	-0.004042	0.807037
F156	F	1.500350	0.495958	1.307037
F157	F	1.000311	-0.004058	0.371459
F158	F	1.500311	0.495942	0.871459
H159	H	0.987427	0.007840	0.639205
H160	H	1.487427	0.507840	1.139205
H161	H	0.800095	0.180316	0.639240
H162	H	1.300095	0.680316	1.139240
H163	H	0.663979	0.098049	0.135937
H164	H	1.163979	0.598049	0.635937
F165	F	0.510899	0.095797	0.154670
F166	F	1.010899	0.595797	0.654670
F167	F	0.787152	0.192185	0.192840
F168	F	1.287152	0.692185	0.692840
