data_functionalizedCrystal
_audit_creation_method	'MofGen! by Chris Wilmer'
_symmetry_space_group_name_H-M	'P1'
_symmetry_Int_Tables_number	1
_symmetry_cell_setting	triclinic
loop_
_symmetry_equiv_pos_as_xyz
  x,y,z
_cell_length_a	8.597213
_cell_length_b	15.538191
_cell_length_c	7.681481
_cell_angle_alpha	86.544245
_cell_angle_beta	88.167023
_cell_angle_gamma	66.484382
loop_
_atom_site_label
_atom_site_type_symbol
_atom_site_fract_x
_atom_site_fract_y
_atom_site_fract_z
O1	O	1.943086	0.166190	-0.441189
O2	O	1.489348	0.172813	-0.372356
O3	O	1.804540	0.034002	-0.420180
O4	O	1.627894	0.305001	-0.393365
O5	O	1.843357	0.016877	-0.133212
O6	O	1.528165	0.155688	-0.085388
O7	O	1.981903	0.149065	-0.154221
Zn8	Zn	1.761197	0.149657	-0.074242
Zn9	Zn	1.710054	0.172220	-0.452335
O10	O	1.666711	0.287876	-0.106397
C11	C	1.452103	0.162585	-0.220278
C12	C	1.283302	0.157612	-0.194671
C13	C	1.842429	-0.009315	-0.279505
C14	C	1.897479	-0.112872	-0.287874
C15	C	1.350559	-0.410755	-0.204867
C16	C	1.402327	-0.508066	-0.212716
C17	C	1.693511	-0.525137	-0.256890
C18	C	1.641765	-0.427825	-0.249053
C19	C	1.470287	-0.370642	-0.223039
C20	C	1.761494	-0.387711	-0.267225
C21	C	1.709754	-0.290408	-0.259379
C22	C	1.538284	-0.233219	-0.233361
C23	C	1.418547	-0.273339	-0.215193
C24	C	1.932973	-0.444897	-0.293227
C25	C	2.052702	-0.404783	-0.311399
C26	C	2.000961	-0.307478	-0.303566
C27	C	1.829491	-0.250288	-0.277548
C28	C	2.120698	-0.267358	-0.321734
C29	C	2.068957	-0.170055	-0.313888
C30	C	1.777750	-0.152986	-0.269702
C31	C	2.019147	0.159293	-0.306303
C32	C	2.187947	0.164266	-0.331922
C33	C	1.628821	0.331193	-0.247076
C34	C	1.573770	0.434750	-0.238718
N35	N	1.796113	0.134258	0.183794
N36	N	1.675154	0.187612	-0.710374
H37	H	1.235444	0.173774	-0.469011
C38	C	1.508342	0.261180	0.213349
N39	N	1.382695	0.316591	0.155886
H40	H	1.235790	0.148114	-0.057571
H41	H	1.919599	0.079803	0.240264
H42	H	1.638114	-0.106422	-0.248531
C43	C	1.161923	-0.347848	-0.176251
N44	N	1.019850	-0.300466	-0.154692
C45	C	2.200664	-0.125927	-0.333888
N46	N	2.299870	-0.092690	-0.348949
H47	H	1.278911	-0.226775	-0.194022
C48	C	1.481368	-0.126182	-0.224733
N49	N	1.438498	-0.045561	-0.218239
C50	C	1.989884	-0.551933	-0.301862
N51	N	2.032747	-0.632553	-0.308370
C52	C	1.270600	-0.552186	-0.192733
N53	N	1.171384	-0.585417	-0.177682
H54	H	2.192321	-0.451355	-0.332573
C55	C	2.309320	-0.330273	-0.350334
N56	N	2.451393	-0.377661	-0.371876
H57	H	1.833130	-0.571709	-0.278064
