data_functionalizedCrystal
_audit_creation_method	'MofGen! by Chris Wilmer'
_symmetry_space_group_name_H-M	'P1'
_symmetry_Int_Tables_number	1
_symmetry_cell_setting	triclinic
loop_
_symmetry_equiv_pos_as_xyz
  x,y,z
_cell_length_a	17.699104
_cell_length_b	17.699083
_cell_length_c	15.186229
_cell_angle_alpha	89.995368
_cell_angle_beta	89.995758
_cell_angle_gamma	83.287266
loop_
_atom_site_label
_atom_site_type_symbol
_atom_site_fract_x
_atom_site_fract_y
_atom_site_fract_z
O1	O	1.004065	0.095785	-0.073248
O2	O	1.504065	0.595785	0.426752
O3	O	0.783689	0.108221	-0.073246
O4	O	1.283689	0.608221	0.426754
O5	O	0.900103	-0.008185	-0.073239
O6	O	1.400103	0.491815	0.426761
O7	O	0.887650	0.212192	-0.073255
O8	O	1.387650	0.712192	0.426745
O9	O	0.900095	-0.008187	0.073218
O10	O	1.400095	0.491813	0.573218
O11	O	0.783681	0.108220	0.073211
O12	O	1.283681	0.608220	0.573211
O13	O	1.004057	0.095784	0.073209
O14	O	1.504057	0.595784	0.573209
Zn15	Zn	0.893868	0.102001	0.096463
Zn16	Zn	1.393868	0.602001	0.596463
Zn17	Zn	0.893878	0.102004	-0.096500
Zn18	Zn	1.393878	0.602004	0.403500
O19	O	0.887643	0.212190	0.073202
O20	O	1.387643	0.712190	0.573202
C21	C	0.755488	0.107772	-0.000017
C22	C	1.255488	0.607772	0.499983
C23	C	0.671471	0.106427	-0.000016
C24	C	1.171471	0.606427	0.499984
C25	C	0.146600	0.167171	-0.000030
C26	C	0.646600	0.667171	0.499970
C27	C	0.225543	0.168430	-0.000032
C28	C	0.725543	0.668430	0.499968
C29	C	0.274161	0.100095	-0.000027
C30	C	0.774161	0.600095	0.499973
C31	C	0.243831	0.030496	-0.000029
C32	C	0.743831	0.530496	0.499971
C33	C	0.164889	0.029238	-0.000032
C34	C	0.664889	0.529238	0.499968
C35	C	0.562197	0.035569	-0.000015
C36	C	1.062197	0.535569	0.499985
C37	C	0.641144	0.036833	-0.000009
C38	C	1.141144	0.536833	0.499991
C39	C	0.622852	0.174762	-0.000015
C40	C	1.122852	0.674762	0.499985
C41	C	0.543909	0.173503	-0.000019
C42	C	1.043909	0.673503	0.499981
C43	C	0.513587	0.103905	-0.000025
C44	C	1.013587	0.603905	0.499975
C45	C	0.427987	0.102541	-0.000024
C46	C	0.927987	0.602541	0.499976
C47	C	0.359759	0.101459	-0.000022
C48	C	0.859759	0.601459	0.499978
C49	C	0.899653	-0.036383	-0.000011
C50	C	1.399653	0.463617	0.499989
C51	C	0.898314	-0.120402	-0.000010
C52	C	1.398314	0.379598	0.499990
C53	C	0.966647	-0.169017	-0.000010
C54	C	1.466647	0.330983	0.499990
C55	C	0.965385	-0.247961	-0.000017
C56	C	1.465385	0.252039	0.499983
C57	C	0.895789	-0.278287	-0.000020
C58	C	1.395789	0.221713	0.499980
C59	C	0.827451	-0.229665	-0.000023
C60	C	1.327451	0.270335	0.499977
C61	C	0.828714	-0.150723	-0.000021
C62	C	1.328714	0.349277	0.499979
C63	C	0.822356	-0.548028	-0.000030
C64	C	1.322356	-0.048028	0.499970
C65	C	0.821098	-0.626976	-0.000029
C66	C	1.321098	-0.126976	0.499971
C67	C	0.959026	-0.645266	-0.000026
C68	C	1.459026	-0.145266	0.499974
C69	C	0.960289	-0.566324	-0.000025
C70	C	1.460289	-0.066324	0.499975
C71	C	0.891952	-0.517709	-0.000032
C72	C	1.391952	-0.017709	0.499968
C73	C	0.893321	-0.432110	-0.000026
C74	C	1.393321	0.067890	0.499974
C75	C	0.894419	-0.363885	-0.000020
C76	C	1.394419	0.136115	0.499980
C77	C	1.032258	0.096233	-0.000022
C78	C	1.532258	0.596233	0.499978
C79	C	1.116275	0.097578	-0.000028
C80	C	1.616275	0.597578	0.499972
C81	C	0.888093	0.240388	-0.000028
C82	C	1.388093	0.740388	0.499972
C83	C	0.889431	0.324406	-0.000034
C84	C	1.389431	0.824406	0.499966
N85	N	0.893866	0.101999	0.228156
N86	N	1.393866	0.601999	0.728156
N87	N	0.893885	0.101999	-0.228193
N88	N	1.393885	0.601999	0.271807
C89	C	0.945432	0.050472	0.453882
C90	C	1.445432	0.550472	0.953882
C91	C	0.945434	0.050470	0.546072
C92	C	1.445434	0.550470	1.046072
C93	C	0.842314	0.153529	0.546075
C94	C	1.342314	0.653529	1.046075
C95	C	0.842309	0.153527	0.453887
C96	C	1.342309	0.653527	0.953887
C97	C	0.893872	0.101999	0.407793
C98	C	1.393872	0.601999	0.907793
C99	C	0.893880	0.102000	0.592170
C100	C	1.393880	0.602000	1.092170
C101	C	0.893882	0.101998	0.692126
C102	C	1.393882	0.601998	1.192126
C103	C	0.893869	0.101999	0.307830
C104	C	1.393869	0.601999	0.807830
H105	H	0.537518	-0.021102	-0.000017
H106	H	1.037518	0.478898	0.499983
H107	H	0.107020	0.222818	-0.000027
H108	H	0.607020	0.722818	0.499973
H109	H	0.764421	-0.651664	-0.000029
H110	H	1.264421	-0.151664	0.499971
O111	O	1.025482	-0.692385	0.000009
O112	O	1.525482	-0.192385	0.500009
C113	C	1.087177	-0.648688	-0.000007
C114	C	1.587177	-0.148688	0.499993
H115	H	1.067855	-0.589738	0.027724
H116	H	1.567855	-0.089738	0.527724
H117	H	1.135045	-0.677898	0.042512
H118	H	1.635045	-0.177898	0.542512
H119	H	1.108522	-0.643096	-0.070269
H120	H	1.608522	-0.143096	0.429731
O121	O	0.995449	0.000447	0.590979
O122	O	1.495449	0.500447	1.090979
C123	C	0.984411	0.011505	0.682231
C124	C	1.484411	0.511505	1.182231
H125	H	0.924188	0.039864	0.694829
H126	H	1.424188	0.539864	1.194829
H127	H	0.992942	-0.045823	0.717271
H128	H	1.492942	0.454177	1.217271
H129	H	1.027177	0.049416	0.708383
H130	H	1.527177	0.549416	1.208383
H131	H	0.766711	-0.508455	-0.000036
H132	H	1.266711	-0.008455	0.499964
H133	H	0.283422	-0.025143	-0.000030
H134	H	0.783422	0.474857	0.499970
O135	O	0.792306	0.203557	0.590989
O136	O	1.292306	0.703557	1.090989
C137	C	0.803355	0.192501	0.682240
C138	C	1.303355	0.692501	1.182240
H139	H	0.863578	0.164139	0.694824
H140	H	1.363578	0.664139	1.194824
H141	H	0.794832	0.249831	0.717268
H142	H	1.294832	0.749831	1.217268
H143	H	0.760589	0.154594	0.708416
H144	H	1.260589	0.654594	1.208416
O145	O	0.792192	0.203658	0.409246
O146	O	1.292192	0.703658	0.909246
C147	C	0.746674	0.249130	0.469696
C148	C	1.246674	0.749130	0.969696
H149	H	0.777703	0.249953	0.535406
H150	H	1.277703	0.749953	1.035406
H151	H	0.735014	0.309586	0.443049
H152	H	1.235014	0.809586	0.943049
H153	H	0.690499	0.224622	0.479513
H154	H	1.190499	0.724622	0.979513
H155	H	0.250230	0.225100	-0.000042
H156	H	0.750230	0.725100	0.499958
H157	H	0.504328	0.229149	-0.000018
H158	H	1.004328	0.729149	0.499982
O159	O	0.652434	0.242306	-0.000061
O160	O	1.152434	0.742306	0.499939
C161	C	0.732536	0.228769	-0.000040
C162	C	1.232536	0.728769	0.499960
H163	H	0.751180	0.169672	-0.027764
H164	H	1.251180	0.669672	0.472236
H165	H	0.756697	0.273295	-0.042564
H166	H	1.256697	0.773295	0.457436
H167	H	0.754501	0.232395	0.070223
H168	H	1.254501	0.732395	0.570223
H169	H	0.770785	-0.254362	-0.000030
H170	H	1.270785	0.245638	0.499970
H171	H	1.016961	-0.541638	-0.000019
H172	H	1.516961	-0.041638	0.499981
H173	H	0.680728	-0.018817	-0.000007
H174	H	1.180728	0.481183	0.499993
O175	O	1.034235	-0.139527	0.000147
O176	O	1.534235	0.360473	0.500147
C177	C	1.039085	-0.094402	0.075988
C178	C	1.539085	0.405598	0.575988
H179	H	0.999567	-0.113002	0.129006
H180	H	1.499567	0.386998	0.629006
H181	H	1.100096	-0.101601	0.101445
H182	H	1.600096	0.398399	0.601445
H183	H	1.021517	-0.032114	0.058840
H184	H	1.521517	0.467886	0.558840
O185	O	0.762266	-0.103603	0.000017
O186	O	1.262266	0.396397	0.500017
C187	C	0.700567	-0.147295	-0.000008
C188	C	1.200567	0.352705	0.499992
H189	H	0.719881	-0.206250	0.027724
H190	H	1.219881	0.293750	0.527724
H191	H	0.652693	-0.118089	0.042508
H192	H	1.152693	0.381911	0.542508
H193	H	0.679235	-0.152876	-0.070272
H194	H	1.179235	0.347124	0.429728
H195	H	0.140200	-0.027432	-0.000033
H196	H	0.640200	0.472568	0.499967
H197	H	0.987417	0.008514	0.416354
H198	H	1.487417	0.508514	0.916354
H199	H	1.021028	-0.287541	-0.000015
H200	H	1.521028	0.212459	0.499985
