data_functionalizedCrystal
_audit_creation_method	'MofGen! by Chris Wilmer'
_symmetry_space_group_name_H-M	'P1'
_symmetry_Int_Tables_number	1
_symmetry_cell_setting	triclinic
loop_
_symmetry_equiv_pos_as_xyz
  x,y,z
_cell_length_a	16.959455
_cell_length_b	17.637651
_cell_length_c	16.959447
_cell_angle_alpha	78.752498
_cell_angle_beta	89.985678
_cell_angle_gamma	101.215983
loop_
_atom_site_label
_atom_site_type_symbol
_atom_site_fract_x
_atom_site_fract_y
_atom_site_fract_z
Zn1	Zn	1.144780	-0.314810	-0.383201
Zn2	Zn	1.117987	-0.447037	-0.224264
Zn3	Zn	1.012603	-0.314835	-0.251033
Zn4	Zn	0.985870	-0.446977	-0.356414
O5	O	1.065310	-0.380915	-0.303728
O6	O	1.251833	-0.332365	-0.362125
O7	O	1.103983	-0.429535	-0.117197
O8	O	1.052537	-0.204193	-0.290979
O9	O	1.232149	-0.429511	-0.245354
O10	O	1.149647	-0.204175	-0.388082
O11	O	1.026558	-0.332407	-0.136864
O12	O	0.898449	-0.332350	-0.265005
O13	O	1.006974	-0.429410	-0.470586
O14	O	0.878808	-0.429434	-0.342428
O15	O	1.123725	-0.332308	-0.490266
O16	O	1.078061	-0.557668	-0.219381
O17	O	0.980995	-0.557624	-0.316471
C18	C	0.859949	-0.380889	-0.303715
C19	C	0.772091	-0.380897	-0.303725
C20	C	0.410822	-0.330322	-0.263528
C21	C	0.390387	-0.431573	-0.343960
C22	C	0.472935	-0.431562	-0.343958
C23	C	0.524431	-0.380931	-0.303739
C24	C	0.493378	-0.330311	-0.263522
C25	C	0.503993	-0.482187	-0.384167
C26	C	0.586546	-0.482178	-0.384165
C27	C	0.638044	-0.431542	-0.343950
C28	C	0.606987	-0.380919	-0.303733
C29	C	0.658482	-0.330288	-0.263514
C30	C	0.627427	-0.279661	-0.223301
C31	C	0.544876	-0.279675	-0.223307
C32	C	0.720595	-0.431528	-0.343944
C33	C	0.741038	-0.330277	-0.263508
C34	C	1.023741	-0.586334	-0.262131
C35	C	1.006030	-0.674212	-0.244363
C36	C	1.200372	-0.962893	-0.438965
C37	C	1.183705	-1.045469	-0.422254
C38	C	1.082652	-1.045595	-0.321043
C39	C	1.099314	-0.963018	-0.337742
C40	C	1.158174	-0.921674	-0.396704
C41	C	1.057116	-0.921798	-0.295482
C42	C	1.073773	-0.839228	-0.312183
C43	C	1.132629	-0.797878	-0.371144
C44	C	1.174832	-0.839103	-0.413405
C45	C	0.998251	-0.963144	-0.236525
C46	C	0.956053	-0.921924	-0.194264
C47	C	0.972715	-0.839353	-0.210961
C48	C	1.031570	-0.798002	-0.269922
C49	C	0.930512	-0.798127	-0.168700
C50	C	0.947169	-0.715557	-0.185401
C51	C	1.048228	-0.715432	-0.286623
C52	C	1.271473	-0.380942	-0.303741
C53	C	1.359327	-0.380953	-0.303747
C54	C	1.065356	-0.380850	-0.509910
C55	C	1.065376	-0.380822	-0.597772
C56	C	1.107063	-0.174694	-0.345504
C57	C	1.124855	-0.086815	-0.363307
C58	C	1.004700	-0.431295	-0.959021
C59	C	1.126273	-0.330181	-0.979509
C60	C	1.126249	-0.330198	-0.896959
C61	C	1.065450	-0.380765	-0.845437
C62	C	1.004675	-0.431315	-0.876463
C63	C	1.187027	-0.279655	-0.865925
C64	C	1.187006	-0.279670	-0.783371
C65	C	1.126203	-0.330234	-0.731848
C66	C	1.065425	-0.380785	-0.762879
C67	C	1.004626	-0.431352	-0.711356
C68	C	0.943844	-0.481900	-0.742387
C69	C	0.943872	-0.481878	-0.824939
C70	C	1.126175	-0.330255	-0.649295
C71	C	1.004601	-0.431372	-0.628798
C72	C	1.065321	-0.380923	-0.098360
C73	C	1.065499	-0.380728	-0.010543
H74	H	0.782962	-0.289041	-0.230762
H75	H	0.519583	-0.238458	-0.190567
H76	H	0.385534	-0.289100	-0.230790
Cl77	Cl	0.882055	-0.973908	-0.120149
Cl78	Cl	1.248839	-0.787121	-0.487521
H79	H	1.236497	-0.238510	-0.758114
H80	H	0.348454	-0.472800	-0.376699
Cl81	Cl	0.928291	-0.494836	-0.998029
H82	H	1.175664	-0.289102	-0.624033
H83	H	0.669365	-0.238440	-0.190550
H84	H	0.462059	-0.523414	-0.416904
Cl85	Cl	0.928159	-0.494941	-0.564034
H86	H	1.175777	-0.289017	-1.021462
H87	H	0.894345	-0.523075	-0.700425
Cl88	Cl	0.856507	-0.850113	-0.094591
H89	H	0.611824	-0.523401	-0.416910
H90	H	0.745876	-0.472750	-0.376682
H91	H	0.912806	-0.681995	-0.150989
Cl92	Cl	1.008654	-1.097579	-0.246928
H93	H	0.894389	-0.523034	-0.850212
Cl94	Cl	1.122235	-0.663450	-0.360738
H95	H	1.236530	-0.238491	-0.907880
Cl96	Cl	1.274379	-0.910911	-0.513080
Cl97	Cl	1.153323	-0.694075	-0.392390
Cl98	Cl	1.236767	-1.097286	-0.475383
H99	H	0.984684	-1.030378	-0.222936
