data_functionalizedCrystal
_audit_creation_method	'MofGen! by Chris Wilmer'
_symmetry_space_group_name_H-M	'P1'
_symmetry_Int_Tables_number	1
_symmetry_cell_setting	triclinic
loop_
_symmetry_equiv_pos_as_xyz
  x,y,z
_cell_length_a	19.805407
_cell_length_b	13.031981
_cell_length_c	19.805399
_cell_angle_alpha	97.209878
_cell_angle_beta	90.024201
_cell_angle_gamma	97.190128
loop_
_atom_site_label
_atom_site_type_symbol
_atom_site_fract_x
_atom_site_fract_y
_atom_site_fract_z
Zn1	Zn	1.000569	-0.416154	0.348552
Zn2	Zn	0.986133	-0.590941	0.220978
Zn3	Zn	0.887381	-0.416181	0.235365
Zn4	Zn	0.873001	-0.590884	0.334120
O5	O	0.936771	-0.503540	0.284754
O6	O	1.093369	-0.439353	0.331647
O7	O	0.973010	-0.567794	0.128167
O8	O	0.914455	-0.269914	0.262440
O9	O	1.082764	-0.567769	0.237919
O10	O	0.997613	-0.269895	0.345598
O11	O	0.900458	-0.439398	0.138737
O12	O	0.790758	-0.439342	0.248446
O13	O	0.889947	-0.567670	0.430754
O14	O	0.780193	-0.567696	0.321001
O15	O	0.983670	-0.439297	0.441357
O16	O	0.959067	-0.737196	0.223925
O17	O	0.875949	-0.737154	0.307050
C18	C	0.760917	-0.503516	0.284719
C19	C	0.685684	-0.503531	0.284719
C20	C	0.218398	-0.570499	0.322498
C21	C	0.289087	-0.570497	0.322484
C22	C	0.329919	-0.503565	0.284778
C23	C	0.300059	-0.436638	0.247078
C24	C	0.229371	-0.436646	0.247089
C25	C	0.585135	-0.436606	0.247033
C26	C	0.655828	-0.436601	0.247027
C27	C	0.644851	-0.570458	0.322428
C28	C	0.574163	-0.570466	0.322439
C29	C	0.544309	-0.503542	0.284737
C30	C	0.467660	-0.503547	0.284751
C31	C	0.406567	-0.503555	0.284767
C32	C	0.914399	-0.775099	0.262375
C33	C	0.904891	-0.891274	0.252825
C34	C	0.941770	-0.942975	0.289752
C35	C	0.931943	-1.063047	0.279881
C36	C	1.113312	-0.503564	0.284788
C37	C	1.188543	-0.503575	0.284803
C38	C	0.936814	-0.503474	0.461302
C39	C	0.936833	-0.503446	0.536536
C40	C	0.959249	-0.230920	0.307234
C41	C	0.968827	-0.114746	0.316814
C42	C	0.936773	-0.503530	0.108898
C43	C	0.936910	-0.503264	0.033689
C44	C	0.985636	-0.436599	0.577403
C45	C	0.985645	-0.436569	0.648094
C46	C	0.936854	-0.503391	0.677916
C47	C	0.888046	-0.570242	0.637045
C48	C	0.888034	-0.570266	0.566355
C49	C	0.888093	-0.570144	0.922126
C50	C	0.888109	-0.570117	0.992820
C51	C	0.985703	-0.436447	1.003864
C52	C	0.985692	-0.436471	0.933175
C53	C	0.936882	-0.503317	0.892310
C54	C	0.936871	-0.503348	0.815659
C55	C	0.936867	-0.503367	0.754565
H56	H	0.669166	-0.624953	0.353125
H57	H	0.205065	-0.382146	0.216396
H58	H	0.689072	-0.382092	0.216322
H59	H	0.866039	-0.935903	0.213906
H60	H	0.893088	-1.107673	0.240960
Cl61	Cl	1.047063	-0.352407	1.055242
Cl62	Cl	1.028812	-1.045857	0.376912
Cl63	Cl	0.547614	-0.352462	0.199645
H64	H	1.025369	-0.382187	0.553126
H65	H	1.025387	-0.382138	0.681364
H66	H	0.980616	-0.898348	0.328677
H67	H	0.540920	-0.624965	0.353145
Cl68	Cl	1.047033	-0.352465	0.895687
Cl69	Cl	0.826767	-0.654128	1.030311
H70	H	0.333310	-0.382145	0.216374
Cl71	Cl	0.826732	-0.654180	0.870762
Cl72	Cl	0.826706	-0.654244	0.674536
H73	H	0.848288	-0.624689	0.533083
H74	H	0.313391	-0.624996	0.353177
Cl75	Cl	0.167073	-0.654643	0.369906
