data_functionalizedCrystal
_audit_creation_method	'MofGen! by Chris Wilmer'
_symmetry_space_group_name_H-M	'P1'
_symmetry_Int_Tables_number	1
_symmetry_cell_setting	triclinic
loop_
_symmetry_equiv_pos_as_xyz
  x,y,z
_cell_length_a	14.044220
_cell_length_b	14.044191
_cell_length_c	12.503572
_cell_angle_alpha	86.162165
_cell_angle_beta	86.154684
_cell_angle_gamma	86.809673
loop_
_atom_site_label
_atom_site_type_symbol
_atom_site_fract_x
_atom_site_fract_y
_atom_site_fract_z
O1	O	-0.225146	1.282208	-0.089264
O2	O	0.024854	1.532208	0.160736
O3	O	0.274854	1.782208	0.410736
O4	O	0.524854	2.032208	0.660736
O5	O	-0.216832	1.005536	-0.089277
O6	O	0.033168	1.255536	0.160723
O7	O	0.283168	1.505536	0.410723
O8	O	0.533168	1.755536	0.660723
O9	O	-0.082653	1.139719	-0.089266
O10	O	0.167347	1.389719	0.160734
O11	O	0.417347	1.639719	0.410734
O12	O	0.667347	1.889719	0.660734
O13	O	-0.359324	1.148025	-0.089275
O14	O	-0.109324	1.398025	0.160725
O15	O	0.140676	1.648025	0.410725
O16	O	0.390676	1.898025	0.660725
O17	O	-0.092763	1.129629	0.089375
O18	O	0.157237	1.379629	0.339375
O19	O	0.407237	1.629629	0.589375
O20	O	0.657237	1.879629	0.839375
O21	O	-0.226941	0.995446	0.089364
O22	O	0.023059	1.245446	0.339364
O23	O	0.273059	1.495446	0.589364
O24	O	0.523059	1.745446	0.839364
O25	O	-0.235255	1.272118	0.089378
O26	O	0.014745	1.522118	0.339378
O27	O	0.264745	1.772118	0.589378
O28	O	0.514745	2.022118	0.839378
Cu29	Cu	-0.232021	1.132861	0.105682
Cu30	Cu	0.017979	1.382861	0.355682
Cu31	Cu	0.267979	1.632861	0.605682
Cu32	Cu	0.517979	1.882861	0.855682
Cu33	Cu	-0.220066	1.144793	-0.105582
Cu34	Cu	0.029934	1.394793	0.144418
Cu35	Cu	0.279934	1.644793	0.394418
Cu36	Cu	0.529934	1.894793	0.644418
O37	O	-0.369434	1.137935	0.089366
O38	O	-0.119434	1.387935	0.339366
O39	O	0.130566	1.637935	0.589366
O40	O	0.380566	1.887935	0.839366
C41	C	-0.218250	0.964869	0.000041
C42	C	0.031750	1.214869	0.250041
C43	C	0.281750	1.464869	0.500041
C44	C	0.531750	1.714869	0.750041
C45	C	-0.207403	0.858726	0.000036
C46	C	0.042597	1.108726	0.250036
C47	C	0.292597	1.358726	0.500036
C48	C	0.542597	1.608726	0.750036
C49	C	-0.264504	0.613267	0.000045
C50	C	-0.014504	0.863267	0.250045
C51	C	0.235496	1.113267	0.500045
C52	C	0.485496	1.363267	0.750045
C53	C	-0.187587	0.664393	0.000046
C54	C	0.062413	0.914393	0.250046
C55	C	0.312413	1.164393	0.500046
C56	C	0.562413	1.414393	0.750046
C57	C	-0.198615	0.772530	0.000040
C58	C	0.051385	1.022530	0.250040
C59	C	0.301385	1.272530	0.500040
C60	C	0.551385	1.522530	0.750040
C61	C	-0.253477	0.505120	0.000050
C62	C	-0.003477	0.755120	0.250050
C63	C	0.246523	1.005120	0.500050
C64	C	0.496523	1.255120	0.750050
C65	C	-0.400001	1.146616	0.000044
C66	C	-0.150001	1.396616	0.250044
C67	C	0.099999	1.646616	0.500044
C68	C	0.349999	1.896616	0.750044
C69	C	-0.506144	1.157461	0.000041
C70	C	-0.256144	1.407461	0.250041
C71	C	-0.006144	1.657461	0.500041
C72	C	0.243856	1.907461	0.750041
C73	C	-0.700482	1.177287	0.000047
C74	C	-0.450482	1.427287	0.250047
C75	C	-0.200482	1.677287	0.500047
C76	C	0.049518	1.927287	0.750047
C77	C	-0.751610	1.100372	0.000044
C78	C	-0.501610	1.350372	0.250044
C79	C	-0.251610	1.600372	0.500044
C80	C	-0.001610	1.850372	0.750044
C81	C	-0.859747	1.111404	0.000047
C82	C	-0.609747	1.361404	0.250047
C83	C	-0.359747	1.611404	0.500047
C84	C	-0.109747	1.861404	0.750047
C85	C	-0.592336	1.166257	0.000044
C86	C	-0.342336	1.416257	0.250044
C87	C	-0.092336	1.666257	0.500044
C88	C	0.157664	1.916257	0.750044
C89	C	-0.052086	1.131038	0.000053
C90	C	0.197914	1.381038	0.250053
C91	C	0.447914	1.631038	0.500053
C92	C	0.697914	1.881038	0.750053
C93	C	0.054057	1.120194	0.000050
C94	C	0.304057	1.370194	0.250050
C95	C	0.554057	1.620194	0.500050
C96	C	0.804057	1.870194	0.750050
C97	C	-0.233837	1.312785	0.000056
C98	C	0.016163	1.562785	0.250056
C99	C	0.266163	1.812785	0.500056
C100	C	0.516163	2.062785	0.750056
C101	C	-0.244684	1.418928	0.000055
C102	C	0.005316	1.668928	0.250055
C103	C	0.255316	1.918928	0.500055
C104	C	0.505316	2.168928	0.750055
N105	N	-0.240430	1.124475	0.254274
N106	N	0.009570	1.374475	0.504274
N107	N	0.259570	1.624475	0.754274
N108	N	0.509570	1.874475	1.004274
N109	N	-0.211650	1.153186	-0.254173
N110	N	0.038350	1.403186	-0.004173
N111	N	0.288350	1.653186	0.245827
N112	N	0.538350	1.903186	0.495827
C113	C	-0.252808	1.112140	0.473388
C114	C	-0.002808	1.362140	0.723388
C115	C	0.247192	1.612140	0.973388
C116	C	0.497192	1.862140	1.223388
C117	C	-0.199275	1.165518	0.526719
C118	C	0.050725	1.415518	0.776719
C119	C	0.300725	1.665518	1.026719
C120	C	0.550725	1.915518	1.276719
C121	C	-0.206162	1.158654	0.648642
C122	C	0.043838	1.408654	0.898642
C123	C	0.293838	1.658654	1.148642
C124	C	0.543838	1.908654	1.398642
C125	C	-0.245922	1.119002	0.351454
C126	C	0.004078	1.369002	0.601454
C127	C	0.254078	1.619002	0.851454
C128	C	0.504078	1.869002	1.101454
H129	H	-0.338630	0.650709	0.000039
H130	H	-0.088630	0.900709	0.250039
H131	H	0.161370	1.150709	0.500039
H132	H	0.411370	1.400709	0.750039
H133	H	-0.737922	1.251414	0.000055
H134	H	-0.487922	1.501414	0.250055
H135	H	-0.237922	1.751414	0.500055
H136	H	0.012078	2.001414	0.750055
H137	H	-0.148273	1.216371	0.480811
H138	H	0.101727	1.466371	0.730811
H139	H	0.351727	1.716371	0.980811
H140	H	0.601727	1.966371	1.230811
C141	C	-0.315250	1.049913	0.645889
C142	C	-0.065250	1.299913	0.895889
C143	C	0.184750	1.549913	1.145889
C144	C	0.434750	1.799913	1.395889
C145	C	-0.321666	1.043503	0.535354
C146	C	-0.071666	1.293503	0.785354
C147	C	0.178334	1.543503	1.035354
C148	C	0.428334	1.793503	1.285354
H149	H	-0.357767	1.007546	0.684151
H150	H	-0.107767	1.257546	0.934151
H151	H	0.142233	1.507546	1.184151
H152	H	0.392233	1.757546	1.434151
H153	H	-0.251701	1.033023	0.664250
H154	H	-0.001701	1.283023	0.914250
H155	H	0.248299	1.533023	1.164250
H156	H	0.498299	1.783023	1.414250
H157	H	-0.331948	1.113516	0.664231
H158	H	-0.081948	1.363516	0.914231
H159	H	0.168052	1.613516	1.164231
H160	H	0.418052	1.863516	1.414231
H161	H	-0.304962	0.979900	0.517010
H162	H	-0.054962	1.229900	0.767010
H163	H	0.195038	1.479900	1.017010
H164	H	0.445038	1.729900	1.267010
H165	H	-0.385230	1.060386	0.516985
H166	H	-0.135230	1.310386	0.766985
H167	H	0.114770	1.560386	1.016985
H168	H	0.364770	1.810386	1.266985
H169	H	-0.113451	0.626954	-0.000027
H170	H	0.136549	0.876954	0.249973
H171	H	0.386549	1.126954	0.499973
H172	H	0.636549	1.376954	0.749973
H173	H	-0.714169	1.026238	0.000041
H174	H	-0.464169	1.276238	0.250041
H175	H	-0.214169	1.526238	0.500041
H176	H	0.035831	1.776238	0.750041
