data_functionalizedCrystal
_audit_creation_method	'MofGen! by Chris Wilmer'
_symmetry_space_group_name_H-M	'P1'
_symmetry_Int_Tables_number	1
_symmetry_cell_setting	triclinic
loop_
_symmetry_equiv_pos_as_xyz
  x,y,z
_cell_length_a	16.109301
_cell_length_b	17.000371
_cell_length_c	14.586319
_cell_angle_alpha	89.995789
_cell_angle_beta	89.998857
_cell_angle_gamma	79.530416
loop_
_atom_site_label
_atom_site_type_symbol
_atom_site_fract_x
_atom_site_fract_y
_atom_site_fract_z
O1	O	1.095680	0.102310	-0.076191
O2	O	1.595680	0.602310	0.423809
O3	O	0.852691	0.115042	-0.076204
O4	O	1.352691	0.615042	0.423796
O5	O	0.989273	-0.007194	-0.076190
O6	O	1.489273	0.492806	0.423810
O7	O	0.959098	0.224547	-0.076205
O8	O	1.459098	0.724547	0.423795
O9	O	0.989265	-0.007196	0.076291
O10	O	1.489265	0.492804	0.576291
O11	O	0.852682	0.115041	0.076277
O12	O	1.352682	0.615041	0.576277
O13	O	1.095671	0.102309	0.076290
O14	O	1.595671	0.602309	0.576290
Cu15	Cu	0.974176	0.108674	0.090206
Cu16	Cu	1.474176	0.608674	0.590206
Cu17	Cu	0.974186	0.108676	-0.090120
Cu18	Cu	1.474186	0.608676	0.409880
O19	O	0.959089	0.224545	0.076276
O20	O	1.459089	0.724545	0.576276
C21	C	0.821749	0.114526	0.000035
C22	C	1.321749	0.614526	0.500035
C23	C	0.729567	0.112979	0.000030
C24	C	1.229567	0.612979	0.500030
C25	C	0.415654	0.180457	0.000042
C26	C	0.915654	0.680457	0.500042
C27	C	0.502268	0.181917	0.000037
C28	C	1.002268	0.681917	0.500037
C29	C	0.532703	0.036888	0.000033
C30	C	1.032703	0.536888	0.500033
C31	C	0.446091	0.035429	0.000032
C32	C	0.946091	0.535429	0.500032
C33	C	0.387568	0.107216	0.000041
C34	C	0.887568	0.607216	0.500041
C35	C	0.560794	0.110135	0.000037
C36	C	1.060794	0.610135	0.500037
C37	C	0.654705	0.111718	0.000031
C38	C	1.154705	0.611718	0.500031
C39	C	0.293651	0.105633	0.000045
C40	C	0.793651	0.605633	0.500045
C41	C	0.990890	-0.036849	0.000050
C42	C	1.490890	0.463151	0.500050
C43	C	0.995709	-0.125209	0.000050
C44	C	1.495709	0.374791	0.500050
C45	C	0.921543	-0.157215	0.000042
C46	C	1.421543	0.342785	0.500042
C47	C	0.926076	-0.240239	0.000044
C48	C	1.426076	0.259761	0.500044
C49	C	1.004777	-0.291256	0.000049
C50	C	1.504777	0.208744	0.500049
C51	C	1.078949	-0.259244	0.000059
C52	C	1.578949	0.240756	0.500059
C53	C	1.074415	-0.176222	0.000063
C54	C	1.574415	0.323778	0.500063
C55	C	1.022291	-0.542406	0.000043
C56	C	1.522291	-0.042406	0.500043
C57	C	1.026820	-0.625434	0.000037
C58	C	1.526820	-0.125434	0.500037
C59	C	0.873946	-0.606423	0.000023
C60	C	1.373946	-0.106423	0.500023
C61	C	0.869419	-0.523400	0.000022
C62	C	1.369419	-0.023400	0.500022
C63	C	0.943591	-0.491396	0.000037
C64	C	1.443591	0.008604	0.500037
C65	C	1.009413	-0.376120	0.000048
C66	C	1.509413	0.123880	0.500048
C67	C	0.938954	-0.406533	0.000044
C68	C	1.438954	0.093467	0.500044
C69	C	1.126613	0.102825	0.000049
C70	C	1.626613	0.602825	0.500049
C71	C	1.218796	0.104372	0.000048
C72	C	1.718796	0.604372	0.500048
C73	C	0.957473	0.254200	0.000034
C74	C	1.457473	0.754200	0.500034
C75	C	0.952653	0.342560	0.000029
C76	C	1.452653	0.842560	0.500029
N77	N	0.974175	0.108672	0.217038
N78	N	1.474175	0.608672	0.717038
N79	N	0.974195	0.108672	-0.216952
N80	N	1.474195	0.608672	0.283048
C81	C	1.034671	0.054564	0.452051
C82	C	1.534671	0.554564	0.952051
C83	C	1.034673	0.054562	0.548032
C84	C	1.534673	0.554562	1.048032
C85	C	0.913692	0.162783	0.548029
C86	C	1.413692	0.662783	1.048029
C87	C	0.913687	0.162780	0.452050
C88	C	1.413687	0.662780	0.952050
C89	C	0.974181	0.108672	0.404063
C90	C	1.474181	0.608672	0.904063
C91	C	0.974189	0.108673	0.596024
C92	C	1.474189	0.608673	1.096024
C93	C	0.974191	0.108671	0.700091
C94	C	1.474191	0.608671	1.200091
C95	C	0.974178	0.108672	0.299989
C96	C	1.474178	0.608672	0.799989
H97	H	0.525131	0.241558	0.000036
H98	H	1.025131	0.741558	0.500036
H99	H	0.857456	-0.115682	0.000034
H100	H	1.357456	0.384318	0.500034
N101	N	1.154409	-0.141697	0.000073
N102	N	1.654409	0.358303	0.500073
H103	H	1.155927	-0.107684	0.056604
H104	H	1.655927	0.392316	0.556604
H105	H	1.204907	-0.186657	0.000041
H106	H	1.704907	0.313343	0.500041
N107	N	0.595826	-0.040534	0.000043
N108	N	1.095826	0.459466	0.500043
H109	H	0.564888	-0.087154	0.000041
H110	H	1.064888	0.412846	0.500041
H111	H	0.632429	-0.043087	-0.056481
H112	H	1.132429	0.456913	0.443519
N113	N	0.848433	0.221141	0.400291
N114	N	1.348433	0.721141	0.900291
H115	H	0.853874	0.277638	0.416982
H116	H	1.353874	0.777638	0.916982
H117	H	0.857639	0.212857	0.332223
H118	H	1.357639	0.712857	0.832223
N119	N	1.099927	-0.003785	0.599791
N120	N	1.599927	0.496215	1.099791
H121	H	1.138249	-0.038057	0.554825
H122	H	1.638249	0.461943	1.054825
H123	H	1.134444	0.026712	0.639600
H124	H	1.634444	0.526712	1.139600
N125	N	0.415790	-0.043571	0.000027
N126	N	0.915790	0.456429	0.500027
H127	H	0.466005	-0.088827	0.000028
H128	H	0.966005	0.411173	0.500028
H129	H	0.380515	-0.047338	0.056551
H130	H	0.880515	0.452662	0.556551
N131	N	0.846082	-0.274762	0.000053
N132	N	1.346082	0.225238	0.500053
H133	H	0.795538	-0.229845	0.000051
H134	H	1.295538	0.270155	0.500051
H135	H	0.844630	-0.308796	-0.056468
H136	H	1.344630	0.191204	0.443532
N137	N	0.848448	0.221141	0.599786
N138	N	1.348448	0.721141	1.099786
H139	H	0.857631	0.212934	0.667871
H140	H	1.357631	0.712934	1.167871
H141	H	0.853921	0.277609	0.583000
H142	H	1.353921	0.777609	1.083000
H143	H	0.368007	0.238911	0.000049
H144	H	0.868007	0.738911	0.500049
H145	H	0.805332	-0.481867	0.000016
H146	H	1.305332	0.018133	0.500016
H147	H	0.813559	-0.632491	0.000012
H148	H	1.313559	-0.132491	0.500012
N149	N	1.099894	-0.003805	0.400281
N150	N	1.599894	0.496195	0.900281
H151	H	1.134481	0.026612	0.360447
H152	H	1.634481	0.526612	0.860447
H153	H	1.138157	-0.038077	0.445299
H154	H	1.638157	0.461923	0.945299
H155	H	1.090911	-0.666971	0.000034
H156	H	1.590911	-0.166971	0.500034
N157	N	1.102287	-0.507893	0.000060
N158	N	1.602287	-0.007893	0.500060
H159	H	1.152829	-0.552811	0.000059
H160	H	1.652829	-0.052811	0.500059
H161	H	1.103742	-0.473853	-0.056463
H162	H	1.603742	0.026147	0.443537
N163	N	1.163835	-0.314265	0.000076
N164	N	1.663835	0.185735	0.500076
H165	H	1.155455	-0.371717	0.000071
H166	H	1.655455	0.128283	0.500071
H167	H	1.196428	-0.303898	-0.056445
H168	H	1.696428	0.196102	0.443555
N169	N	0.854078	-0.351503	0.000039
N170	N	1.354078	0.148497	0.500039
H171	H	0.821453	-0.361784	-0.056491
H172	H	1.321453	0.138216	0.443509
H173	H	0.821509	-0.361820	0.056596
H174	H	1.321509	0.138180	0.556596
H175	H	1.073491	-0.417667	0.000050
H176	H	1.573491	0.082333	0.500050
