data_functionalizedCrystal
_audit_creation_method	'MofGen! by Chris Wilmer'
_symmetry_space_group_name_H-M	'P1'
_symmetry_Int_Tables_number	1
_symmetry_cell_setting	triclinic
loop_
_symmetry_equiv_pos_as_xyz
  x,y,z
_cell_length_a	16.109318
_cell_length_b	14.586319
_cell_length_c	16.109301
_cell_angle_alpha	90.003802
_cell_angle_beta	96.534927
_cell_angle_gamma	90.000075
loop_
_atom_site_label
_atom_site_type_symbol
_atom_site_fract_x
_atom_site_fract_y
_atom_site_fract_z
O1	O	1.103122	-0.076164	-0.106935
O2	O	1.603122	0.423836	0.393065
O3	O	0.861062	-0.076183	-0.120219
O4	O	1.361062	0.423817	0.379781
O5	O	0.988741	-0.076167	0.007454
O6	O	1.488741	0.423833	0.507454
O7	O	0.975442	-0.076180	-0.234607
O8	O	1.475442	0.423820	0.265393
O9	O	0.988733	0.076314	0.007456
O10	O	1.488733	0.576314	0.507456
O11	O	0.861053	0.076298	-0.120217
O12	O	1.361053	0.576298	0.379783
O13	O	1.103113	0.076317	-0.106933
O14	O	1.603113	0.576317	0.393067
Cu15	Cu	0.982082	0.090230	-0.113575
Cu16	Cu	1.482082	0.590230	0.386425
Cu17	Cu	0.982093	-0.090096	-0.113577
Cu18	Cu	1.482093	0.409904	0.386423
O19	O	0.975434	0.076301	-0.234606
O20	O	1.475434	0.576301	0.265394
C21	C	0.830083	0.000055	-0.119677
C22	C	1.330083	0.500055	0.380323
C23	C	0.737788	0.000048	-0.118057
C24	C	1.237788	0.500048	0.381943
C25	C	0.438719	-0.083052	-0.112823
C26	C	0.938719	0.416948	0.387177
C27	C	0.525441	-0.083058	-0.114340
C28	C	1.025441	0.416942	0.385660
C29	C	0.525450	0.083185	-0.114327
C30	C	1.025450	0.583185	0.385673
C31	C	0.438731	0.083190	-0.112803
C32	C	0.938731	0.583190	0.387197
C33	C	0.395367	0.000068	-0.112056
C34	C	0.895367	0.500068	0.387944
C35	C	0.568808	0.000058	-0.115096
C36	C	1.068808	0.500058	0.384904
C37	C	0.662835	0.000052	-0.116742
C38	C	1.162835	0.500052	0.383258
C39	C	0.301335	0.000073	-0.110409
C40	C	0.801335	0.500073	0.389591
C41	C	0.988198	0.000073	0.038430
C42	C	1.488198	0.500073	0.538430
C43	C	0.986583	0.000072	0.130725
C44	C	1.486583	0.500072	0.630725
C45	C	1.134092	0.000077	-0.107474
C46	C	1.634092	0.500077	0.392526
C47	C	1.226387	0.000078	-0.109095
C48	C	1.726387	0.500078	0.390905
N49	N	0.982081	0.217062	-0.113573
N50	N	1.482081	0.717062	0.386427
N51	N	0.982101	-0.216928	-0.113572
N52	N	1.482101	0.283072	0.386428
C53	C	1.038636	0.452075	-0.057058
C54	C	1.538636	0.952075	0.442942
C55	C	1.038638	0.548057	-0.057056
C56	C	1.538638	1.048057	0.442944
C57	C	0.925539	0.548052	-0.170090
C58	C	1.425539	1.048052	0.329910
C59	C	0.925534	0.452072	-0.170087
C60	C	1.425534	0.952072	0.329913
C61	C	0.982087	0.404087	-0.113572
C62	C	1.482087	0.904087	0.386428
C63	C	0.982095	0.596047	-0.113573
C64	C	1.482095	1.096047	0.386427
C65	C	0.982097	0.700115	-0.113571
C66	C	1.482097	1.200115	0.386429
C67	C	0.982084	0.300013	-0.113573
C68	C	1.482084	0.800013	0.386427
C69	C	0.975977	0.000059	-0.265581
C70	C	1.475977	0.500059	0.234419
C71	C	0.977592	0.000054	-0.357877
C72	C	1.477592	0.500054	0.142123
C73	C	1.057066	0.000061	0.439719
C74	C	1.557066	0.500061	0.939719
C75	C	1.058591	0.000067	0.352999
C76	C	1.558591	0.500067	0.852999
C77	C	0.907103	0.000067	0.333135
C78	C	1.407103	0.500067	0.833135
C79	C	0.905579	0.000069	0.419854
C80	C	1.405579	0.500069	0.919854
C81	C	0.980563	0.000061	0.473144
C82	C	1.480563	0.500061	0.973144
C83	C	0.983612	0.000065	0.299705
C84	C	1.483612	0.500065	0.799705
C85	C	0.985266	0.000071	0.205678
C86	C	1.485266	0.500071	0.705678
C87	C	0.978909	0.000057	0.567176
C88	C	1.478909	0.500057	1.067176
H89	H	0.403416	-0.150735	-0.112213
H90	H	0.903416	0.349265	0.387787
C91	C	0.813737	0.538406	-0.281809
C92	C	1.313737	1.038406	0.218191
C93	C	0.863378	0.600800	-0.232210
C94	C	1.363378	1.100800	0.267790
H95	H	0.775358	0.570971	-0.320156
H96	H	1.275358	1.070971	0.179844
H97	H	0.848330	0.500969	-0.311729
H98	H	1.348330	1.000969	0.188271
H99	H	0.783846	0.500974	-0.247178
H100	H	1.283846	1.000974	0.252822
H101	H	0.893274	0.638229	-0.266840
H102	H	1.393274	1.138229	0.233160
H103	H	0.828781	0.638254	-0.202288
H104	H	1.328781	1.138254	0.297712
C105	C	1.088861	0.695186	-0.006863
C106	C	1.588861	1.195186	0.493137
C107	C	1.100799	0.600807	0.005065
C108	C	1.600799	1.100807	0.505065
H109	H	1.127235	0.727749	0.031495
H110	H	1.627235	1.227749	0.531495
H111	H	1.097876	0.710907	-0.062348
H112	H	1.597876	1.210907	0.437652
H113	H	1.033378	0.710908	0.002188
H114	H	1.533378	1.210908	0.502188
H115	H	1.156281	0.585083	-0.003992
H116	H	1.656281	1.085083	0.496008
H117	H	1.091791	0.585080	0.060563
H118	H	1.591791	1.085080	0.560563
C119	C	1.056652	0.344200	0.056122
C120	C	1.556652	0.844200	0.556122
C121	C	1.100771	0.399350	0.005107
C122	C	1.600771	0.899350	0.505107
H123	H	1.095007	0.311656	0.094510
H124	H	1.595007	0.811656	0.594510
H125	H	1.022041	0.381666	0.085995
H126	H	1.522041	0.881666	0.585995
H127	H	1.022998	0.301865	0.022457
H128	H	1.522998	0.801865	0.522457
H129	H	1.134420	0.441691	0.038771
H130	H	1.634420	0.941691	0.538771
H131	H	1.135396	0.361881	-0.024769
H132	H	1.635396	0.861881	0.475231
C133	C	0.516714	-0.247379	-0.114213
C134	C	1.016714	0.252621	0.385787
C135	C	0.573092	-0.174427	-0.115189
C136	C	1.073092	0.325573	0.384811
H137	H	0.546133	-0.303788	-0.114742
H138	H	1.046133	0.196212	0.385258
H139	H	0.489244	-0.243923	-0.065169
H140	H	0.989244	0.256077	0.434831
H141	H	0.476536	-0.243907	-0.162077
H142	H	0.976536	0.256093	0.337923
H143	H	0.613266	-0.177895	-0.067322
H144	H	1.113266	0.322105	0.432678
H145	H	0.600576	-0.177885	-0.164239
H146	H	1.100576	0.322115	0.335761
H147	H	0.879480	0.412997	-0.216108
H148	H	1.379480	0.912997	0.283892
C149	C	0.447442	0.247520	-0.112952
C150	C	0.947442	0.747520	0.387048
C151	C	0.391071	0.174563	-0.111963
C152	C	0.891071	0.674563	0.388037
H153	H	0.418017	0.303926	-0.112436
H154	H	0.918017	0.803926	0.387564
H155	H	0.487617	0.244063	-0.065096
H156	H	0.987617	0.744063	0.434904
H157	H	0.474914	0.244057	-0.162004
H158	H	0.974914	0.744057	0.337996
H159	H	0.363604	0.178023	-0.062908
H160	H	0.863604	0.678023	0.437092
H161	H	0.350882	0.178022	-0.159824
H162	H	0.850882	0.678022	0.340176
H163	H	0.560767	0.150859	-0.114937
H164	H	1.060767	0.650859	0.385063
C165	C	0.815980	0.078454	0.505856
C166	C	1.315980	0.578454	1.005856
C167	C	0.821480	0.000067	0.456600
C168	C	1.321480	0.500067	0.956600
H169	H	0.764061	0.078456	0.528537
H170	H	1.264061	0.578456	1.028537
H171	H	0.860413	0.078449	0.549998
H172	H	1.360413	0.578449	1.049998
H173	H	0.819722	0.131620	0.472431
H174	H	1.319722	0.631620	0.972431
H175	H	0.817744	-0.053099	0.490026
H176	H	1.317744	0.446901	0.990026
H177	H	0.777034	0.000064	0.412451
H178	H	1.277034	0.500064	0.912451
H179	H	1.118122	0.000055	0.483106
H180	H	1.618122	0.500055	0.983106
C181	C	1.208174	0.000052	0.381349
C182	C	1.708174	0.500052	0.881349
C183	C	1.142686	0.000061	0.316258
C184	C	1.642686	0.500061	0.816258
H185	H	1.260092	0.000043	0.358666
H186	H	1.760092	0.500043	0.858666
H187	H	1.204432	0.053222	0.414762
H188	H	1.704432	0.553222	0.914762
H189	H	1.204418	-0.053126	0.414756
H190	H	1.704418	0.446874	0.914756
H191	H	1.146438	0.053242	0.282855
H192	H	1.646438	0.553242	0.782855
H193	H	1.146430	-0.053115	0.282832
H194	H	1.646430	0.446885	0.782832
H195	H	0.846055	0.000071	0.289736
H196	H	1.346055	0.500071	0.789736
