data_functionalizedCrystal
_audit_creation_method	'MofGen! by Chris Wilmer'
_symmetry_space_group_name_H-M	'P1'
_symmetry_Int_Tables_number	1
_symmetry_cell_setting	triclinic
loop_
_symmetry_equiv_pos_as_xyz
  x,y,z
_cell_length_a	12.827892
_cell_length_b	12.759401
_cell_length_c	12.759393
_cell_angle_alpha	89.981504
_cell_angle_beta	90.030856
_cell_angle_gamma	89.984447
loop_
_atom_site_label
_atom_site_type_symbol
_atom_site_fract_x
_atom_site_fract_y
_atom_site_fract_z
Zn1	Zn	-0.415967	-1.606250	0.593987
Zn2	Zn	-0.590748	-1.606143	0.418309
Zn3	Zn	-0.416022	-1.430552	0.418326
Zn4	Zn	-0.590667	-1.430539	0.593950
O5	O	-0.503351	-1.518371	0.506143
O6	O	-0.439163	-1.753257	0.570691
O7	O	-0.567626	-1.582811	0.271290
O8	O	-0.269778	-1.453910	0.441650
O9	O	-0.567573	-1.753178	0.441621
O10	O	-0.269738	-1.582994	0.570707
O11	O	-0.439256	-1.453805	0.271303
O12	O	-0.439178	-1.283530	0.441615
O13	O	-0.567436	-1.453887	0.740976
O14	O	-0.567489	-1.283520	0.570645
O15	O	-0.439085	-1.582981	0.741003
O16	O	-0.736973	-1.582798	0.441586
O17	O	-0.736914	-1.453782	0.570629
C18	C	-0.503332	-1.245404	0.506129
C19	C	-0.503349	-1.128627	0.506147
C20	C	-0.774861	-1.518305	0.506124
C21	C	-0.891014	-1.518373	0.506152
C22	C	-0.503245	-1.518445	0.780176
C23	C	-0.503200	-1.518476	0.896953
C24	C	-0.942793	-1.582290	0.442368
C25	C	-1.062843	-1.582362	0.442395
C26	C	-0.230781	-1.518466	0.506184
C27	C	-0.114628	-1.518506	0.506202
C28	C	-0.503371	-1.792404	0.506158
C29	C	-0.503379	-1.909181	0.506164
C30	C	-0.570267	-1.073787	0.573222
C31	C	-0.570280	-0.964063	0.573234
C32	C	-0.436453	-0.964028	0.439086
C33	C	-0.436436	-1.073750	0.439081
C34	C	-0.647534	-1.073807	0.650668
C35	C	-0.647548	-0.964083	0.650680
C36	C	-0.503380	-1.518358	0.233176
C37	C	-0.503131	-1.518530	0.116399
C38	C	-0.436361	-1.585705	0.951831
C39	C	-0.436324	-1.585730	1.061555
C40	C	-0.569973	-1.451294	1.061514
C41	C	-0.570005	-1.451265	0.951792
C42	C	-0.359203	-1.663323	0.951855
C43	C	-0.359165	-1.663348	1.061579
H44	H	-0.898249	-1.636963	0.387744
O45	O	-0.371460	-1.127185	0.374029
C46	C	-0.312161	-1.296200	0.314524
C47	C	-0.385785	-1.235818	0.388269
H48	H	-0.323733	-1.384041	0.325996
H49	H	-0.227901	-1.274722	0.333131
H50	H	-0.330397	-1.274530	0.229787
H51	H	-0.367643	-1.257456	0.473030
H52	H	-0.470023	-1.257302	0.369572
H53	H	-0.618659	-0.930085	0.728031
O54	O	-0.385143	-1.760337	1.097247
C55	C	-0.505633	-1.863564	1.198849
C56	C	-0.476326	-1.753671	1.158542
H57	H	-0.579369	-1.858215	1.248396
H58	H	-0.439194	-1.896058	1.248564
H59	H	-0.520067	-1.917794	1.129353
H60	H	-0.461909	-1.699361	1.227975
H61	H	-0.542782	-1.721263	1.108795
H62	H	-1.107373	-1.637080	0.387784
H63	H	-1.070106	-1.463777	0.560809
H64	H	-0.381975	-0.919334	0.384484
H65	H	-0.935560	-1.463709	0.560783
O66	O	-0.621722	-1.109201	0.747828
C67	C	-0.574843	-1.063454	0.924901
C68	C	-0.604040	-1.023228	0.814916
H69	H	-0.560561	-0.993966	0.979178
H70	H	-0.501091	-1.113058	0.919786
H71	H	-0.641344	-1.113133	0.957181
H72	H	-0.537607	-0.973506	0.782572
H73	H	-0.677824	-0.973681	0.820097
O74	O	-0.739283	-1.114221	0.615757
C75	C	-0.911655	-1.077764	0.550011
C76	C	-0.807815	-1.031855	0.589555
H77	H	-0.967083	-1.011193	0.528795
H78	H	-0.948102	-1.128034	0.614135
H79	H	-0.896620	-1.128064	0.477753
H80	H	-0.822760	-0.981507	0.661794
H81	H	-0.771399	-0.981643	0.525367
O82	O	-0.635013	-1.386065	1.114670
C83	C	-0.812759	-1.335049	1.148245
C84	C	-0.739215	-1.408970	1.087966
H85	H	-0.897023	-1.353556	1.126694
H86	H	-0.794492	-1.250317	1.126647
H87	H	-0.801201	-1.346596	1.236088
H88	H	-0.750732	-1.397517	1.000109
H89	H	-0.757500	-1.493675	1.109651
H90	H	-0.728463	-0.934286	0.628749
H91	H	-0.624428	-1.396517	0.907115
H92	H	-0.278273	-1.641556	0.922098
O93	O	-0.393784	-1.755590	0.911414
C94	C	-0.458881	-1.928948	0.947821
C95	C	-0.419714	-1.824521	0.993761
H96	H	-0.479876	-1.984699	1.014376
H97	H	-0.395049	-1.965530	0.897590
H98	H	-0.530790	-1.913891	0.897475
H99	H	-0.347824	-1.839488	1.044154
H100	H	-0.483609	-1.787970	1.043932
H101	H	-0.282269	-1.634235	1.095626
