data_functionalizedCrystal
_audit_creation_method	'MofGen! by Chris Wilmer'
_symmetry_space_group_name_H-M	'P1'
_symmetry_Int_Tables_number	1
_symmetry_cell_setting	triclinic
loop_
_symmetry_equiv_pos_as_xyz
  x,y,z
_cell_length_a	15.944545
_cell_length_b	15.944551
_cell_length_c	13.101039
_cell_angle_alpha	93.361595
_cell_angle_beta	86.644973
_cell_angle_gamma	83.497455
loop_
_atom_site_label
_atom_site_type_symbol
_atom_site_fract_x
_atom_site_fract_y
_atom_site_fract_z
O1	O	1.119144	0.103675	-0.085150
O2	O	1.619144	0.603675	0.414850
O3	O	0.874595	0.117035	-0.085167
O4	O	1.374595	0.617035	0.414833
O5	O	1.003547	-0.011919	-0.085149
O6	O	1.503547	0.488081	0.414851
O7	O	0.990192	0.232629	-0.085168
O8	O	1.490192	0.732629	0.414832
O9	O	0.994295	-0.002652	0.085280
O10	O	1.494295	0.497348	0.585280
O11	O	0.865343	0.126303	0.085262
O12	O	1.365343	0.626303	0.585262
O13	O	1.109892	0.112942	0.085278
O14	O	1.609892	0.612942	0.585278
Zn15	Zn	0.986149	0.121094	0.112329
Zn16	Zn	1.486149	0.621094	0.612329
Zn17	Zn	0.998339	0.108884	-0.112218
Zn18	Zn	1.498339	0.608884	0.387782
O19	O	0.980940	0.241897	0.085260
O20	O	1.480940	0.741897	0.585260
C21	C	0.838675	0.121115	0.000045
C22	C	1.338675	0.621115	0.500045
C23	C	0.745429	0.119455	0.000039
C24	C	1.245429	0.619455	0.500039
C25	C	0.474795	0.034562	0.000057
C26	C	0.974795	0.534562	0.500057
C27	C	0.520815	0.080060	0.084086
C28	C	1.020815	0.580060	0.584086
C29	C	0.409784	0.113535	0.000057
C30	C	0.909784	0.613535	0.500057
C31	C	0.529918	0.070944	-0.083943
C32	C	1.029918	0.570944	0.416057
C33	C	0.574698	0.116439	0.000047
C34	C	1.074698	0.616439	0.500047
C35	C	0.454572	0.159016	0.084156
C36	C	0.954572	0.659016	0.584156
C37	C	0.463675	0.149884	-0.083949
C38	C	0.963675	0.649884	0.416051
C39	C	0.509661	0.195442	0.000101
C40	C	1.009661	0.695442	0.500101
C41	C	0.314782	0.111860	0.000064
C42	C	0.814782	0.611860	0.500064
C43	C	0.669698	0.118121	0.000047
C44	C	1.169698	0.618121	0.500047
C45	C	0.998367	-0.038580	0.000066
C46	C	1.498367	0.461420	0.500066
C47	C	0.996704	-0.131826	0.000066
C48	C	1.496704	0.368174	0.500066
C49	C	0.912801	-0.346681	0.000046
C50	C	1.412801	0.153319	0.500046
C51	C	0.947201	-0.403130	0.084080
C52	C	1.447201	0.096870	0.584080
C53	C	0.993698	-0.302552	0.000058
C54	C	1.493698	0.197448	0.500058
C55	C	0.956342	-0.412251	-0.083949
C56	C	1.456342	0.087749	0.416051
C57	C	0.990787	-0.467465	0.000046
C58	C	1.490787	0.032535	0.500046
C59	C	1.028117	-0.357768	0.084162
C60	C	1.528117	0.142232	0.584162
C61	C	1.037250	-0.366887	-0.083943
C62	C	1.537250	0.133113	0.416057
C63	C	1.071709	-0.423316	0.000112
C64	C	1.571709	0.076684	0.500112
C65	C	0.995372	-0.207549	0.000066
C66	C	1.495372	0.292451	0.500066
C67	C	0.989119	-0.562466	0.000045
C68	C	1.489119	-0.062466	0.500045
C69	C	1.145812	0.108862	0.000064
C70	C	1.645812	0.608862	0.500064
C71	C	1.239059	0.110522	0.000063
C72	C	1.739059	0.610522	0.500063
C73	C	0.986121	0.268557	0.000044
C74	C	1.486121	0.768557	0.500044
C75	C	0.987783	0.361803	0.000036
C76	C	1.487783	0.861803	0.500036
N77	N	0.977835	0.129427	0.265577
N78	N	1.477835	0.629427	0.765577
N79	N	1.006659	0.100544	-0.265465
N80	N	1.506659	0.600544	0.234535
C81	C	0.966525	0.140772	0.474618
C82	C	1.466525	0.640772	0.974618
C83	C	1.017967	0.089202	0.525500
C84	C	1.517967	0.589202	1.025500
C85	C	1.011673	0.095514	0.641818
C86	C	1.511673	0.595514	1.141818
C87	C	0.972817	0.134460	0.358289
C88	C	1.472817	0.634460	0.858289
H89	H	0.545889	0.050571	0.155132
H90	H	1.045889	0.550571	0.655132
Br91	Br	0.584547	0.008896	-0.202339
Br92	Br	1.084547	0.508896	0.297661
Br93	Br	1.099604	0.008068	0.452512
Br94	Br	1.599604	0.508068	0.952512
H95	H	0.845648	-0.313368	0.000125
H96	H	1.345648	0.186632	0.500125
Br97	Br	0.535477	0.308891	0.000163
Br98	Br	1.035477	0.808891	0.500163
H99	H	0.909128	-0.419374	0.155120
H100	H	1.409128	0.080626	0.655120
H101	H	0.925973	-0.436190	-0.154998
H102	H	1.425973	0.063810	0.345002
H103	H	0.459137	-0.033445	0.000144
H104	H	0.959137	0.466555	0.500144
Br105	Br	0.400126	0.221012	0.202689
Br106	Br	0.900126	0.721012	0.702689
H107	H	1.058443	-0.333911	0.155284
H108	H	1.558443	0.166089	0.655284
Br109	Br	1.100662	-0.339773	-0.202354
Br110	Br	1.600662	0.160227	0.297646
H111	H	1.138913	-0.456474	0.000164
H112	H	1.638913	0.043526	0.500164
H113	H	0.438586	0.179344	-0.154997
H114	H	0.938586	0.679344	0.345003
Br115	Br	0.885247	0.222258	0.547606
Br116	Br	1.385247	0.722258	1.047606
