data_functionalizedCrystal
_audit_creation_method	'MofGen! by Chris Wilmer'
_symmetry_space_group_name_H-M	'P1'
_symmetry_Int_Tables_number	1
_symmetry_cell_setting	triclinic
loop_
_symmetry_equiv_pos_as_xyz
  x,y,z
_cell_length_a	12.759401
_cell_length_b	12.759399
_cell_length_c	12.759393
_cell_angle_alpha	89.973195
_cell_angle_beta	90.020938
_cell_angle_gamma	89.984225
loop_
_atom_site_label
_atom_site_type_symbol
_atom_site_fract_x
_atom_site_fract_y
_atom_site_fract_z
Zn1	Zn	1.606270	0.418173	0.594047
Zn2	Zn	1.939603	0.751506	0.927380
Zn3	Zn	2.272936	1.084839	1.260714
Zn4	Zn	1.606162	0.593888	0.418379
Zn5	Zn	1.939495	0.927222	0.751712
Zn6	Zn	2.272829	1.260555	1.085045
Zn7	Zn	1.430568	0.418229	0.418382
Zn8	Zn	1.763902	0.751562	0.751716
Zn9	Zn	2.097235	1.084895	1.085049
Zn10	Zn	1.430562	0.593815	0.594016
Zn11	Zn	1.763895	0.927148	0.927349
Zn12	Zn	2.097228	1.260482	1.260682
O13	O	1.518390	0.506026	0.506206
O14	O	1.851724	0.839359	0.839539
O15	O	2.185057	1.172693	1.172873
O16	O	1.753276	0.441489	0.570756
O17	O	2.086610	0.774822	0.904089
O18	O	2.419943	1.108156	1.237422
O19	O	1.582827	0.570641	0.271358
O20	O	1.916160	0.903974	0.604691
O21	O	2.249494	1.237307	0.938025
O22	O	1.453923	0.271200	0.441699
O23	O	1.787257	0.604533	0.775033
O24	O	2.120590	0.937867	1.108366
O25	O	1.753197	0.570587	0.441693
O26	O	2.086531	0.903920	0.775026
O27	O	2.419864	1.237253	1.108360
O28	O	1.583010	0.271159	0.570759
O29	O	1.916344	0.604492	0.904093
O30	O	2.249677	0.937826	1.237426
O31	O	1.453819	0.441584	0.271361
O32	O	1.787152	0.774918	0.604694
O33	O	2.120486	1.108251	0.938027
O34	O	1.283546	0.441513	0.441669
O35	O	1.616880	0.774847	0.775002
O36	O	1.950213	1.108180	1.108336
O37	O	1.453912	0.570461	0.741041
O38	O	1.787245	0.903795	1.074374
O39	O	2.120579	1.237128	1.407708
O40	O	1.283542	0.570516	0.570706
O41	O	1.616875	0.903849	0.904039
O42	O	1.950208	1.237182	1.237373
O43	O	1.583004	0.441418	0.741064
O44	O	1.916337	0.774751	1.074397
O45	O	2.249670	1.108085	1.407731
O46	O	1.582821	0.740900	0.441662
O47	O	1.916154	1.074233	0.774996
O48	O	2.249487	1.407566	1.108329
O49	O	1.453808	0.740846	0.570702
O50	O	1.787141	1.074179	0.904036
O51	O	2.120474	1.407512	1.237369
C52	C	1.245423	0.506013	0.506185
C53	C	1.578756	0.839347	0.839518
C54	C	1.912090	1.172680	1.172852
C55	C	1.128646	0.506033	0.506201
C56	C	1.461980	0.839366	0.839534
C57	C	1.795313	1.172700	1.172868
C58	C	1.073809	0.573307	0.573285
C59	C	1.407143	0.906640	0.906618
C60	C	1.740476	1.239974	1.239952
C61	C	0.964085	0.573311	0.573306
C62	C	1.297419	0.906644	0.906639
C63	C	1.630752	1.239978	1.239972
C64	C	0.964045	0.438764	0.439150
C65	C	1.297378	0.772098	0.772483
C66	C	1.630712	1.105431	1.105816
C67	C	1.073767	0.438756	0.439135
C68	C	1.407100	0.772089	0.772468
C69	C	1.740434	1.105423	1.105802
C70	C	1.518330	0.778994	0.506202
C71	C	1.851664	1.112327	0.839535
C72	C	2.184997	1.445660	1.172868
C73	C	1.518401	0.895770	0.506235
C74	C	1.851734	1.229103	0.839568
C75	C	2.185067	1.562437	1.172901
C76	C	1.585655	0.950625	0.439124
C77	C	1.918988	1.283959	0.772457
C78	C	2.252322	1.617292	1.105791
C79	C	1.585724	1.060349	0.439167
C80	C	1.919058	1.393683	0.772500
C81	C	2.252391	1.727016	1.105834
C82	C	1.451275	1.060353	0.573435
C83	C	1.784609	1.393687	0.906768
C84	C	2.117942	1.727020	1.240101
C85	C	1.451212	0.950631	0.573396
C86	C	1.784546	1.283965	0.906729
C87	C	2.117879	1.617298	1.240063
C88	C	1.792424	0.506040	0.506227
C89	C	2.125757	0.839373	0.839561
C90	C	2.459090	1.172706	1.172894
C91	C	1.909200	0.506046	0.506237
C92	C	2.242534	0.839379	0.839570
C93	C	2.575867	1.172712	1.172903
C94	C	1.518483	1.231993	0.506251
C95	C	1.851817	1.565326	0.839585
C96	C	2.185150	1.898659	1.172918
C97	C	1.518533	1.115216	0.506317
C98	C	1.851866	1.448549	0.839650
C99	C	2.185199	1.781883	1.172983
C100	C	1.518469	0.505925	0.780239
C101	C	1.851802	0.839259	1.113573
C102	C	2.185136	1.172592	1.446906
C103	C	1.518503	0.505882	0.897016
C104	C	1.851836	0.839216	1.230349
C105	C	2.185169	1.172549	1.563683
C106	C	1.518373	0.506051	0.233239
C107	C	1.851706	0.839384	0.566572
C108	C	2.185039	1.172717	0.899905
C109	C	1.518543	0.505798	0.116462
C110	C	1.851876	0.839131	0.449796
C111	C	2.185209	1.172464	0.783129
C112	C	1.585726	0.438679	0.951892
C113	C	1.919059	0.772012	1.285225
C114	C	2.252392	1.105345	1.618558
C115	C	1.585743	0.438633	1.061616
C116	C	1.919077	0.771967	1.394949
C117	C	2.252410	1.105300	1.728283
C118	C	1.451312	0.573004	1.061579
C119	C	1.784645	0.906338	1.394912
C120	C	2.117979	1.239671	1.728246
C121	C	1.451290	0.573044	0.951857
C122	C	1.784623	0.906377	1.285190
C123	C	2.117956	1.239710	1.618524
H124	H	0.919349	0.383991	0.384545
H125	H	1.252682	0.717325	0.717879
H126	H	1.586016	1.050658	1.051212
F127	F	1.132132	0.367144	0.367737
F128	F	1.465465	0.700478	0.701070
F129	F	1.798799	1.033811	1.034403
F130	F	1.657164	0.892241	0.367647
F131	F	1.990498	1.225575	0.700980
F132	F	2.323831	1.558908	1.034313
H133	H	1.640491	1.105007	0.384520
H134	H	1.973824	1.438341	0.717854
H135	H	2.307158	1.771674	1.051187
H136	H	1.640452	0.383989	0.907244
H137	H	1.973785	0.717322	1.240577
H138	H	2.307119	1.050655	1.573910
H139	H	1.396445	0.905965	0.628051
H140	H	1.729779	1.239299	0.961384
H141	H	2.063112	1.572632	1.294717
F142	F	1.379787	0.644482	1.119954
F143	F	1.713121	0.977816	1.453287
F144	F	2.046454	1.311149	1.786620
H145	H	1.396541	0.627768	0.907176
H146	H	1.729874	0.961102	1.240509
H147	H	2.063208	1.294435	1.573843
F148	F	1.379771	1.118750	0.644906
F149	F	1.713104	1.452083	0.978240
F150	F	2.046437	1.785416	1.311573
H151	H	1.640482	0.383908	1.106291
H152	H	1.973815	0.717241	1.439624
H153	H	2.307148	1.050574	1.772957
H154	H	1.118489	0.628086	0.627897
H155	H	1.451822	0.961419	0.961230
H156	H	1.785156	1.294752	1.294564
H157	H	0.919442	0.628090	0.627934
H158	H	1.252775	0.961424	0.961267
H159	H	1.586109	1.294757	1.294600
