data_functionalizedCrystal
_audit_creation_method	'MofGen! by Chris Wilmer'
_symmetry_space_group_name_H-M	'P1'
_symmetry_Int_Tables_number	1
_symmetry_cell_setting	triclinic
loop_
_symmetry_equiv_pos_as_xyz
  x,y,z
_cell_length_a	14.044220
_cell_length_b	23.532407
_cell_length_c	12.503572
_cell_angle_alpha	93.496478
_cell_angle_beta	86.164750
_cell_angle_gamma	88.018778
loop_
_atom_site_label
_atom_site_type_symbol
_atom_site_fract_x
_atom_site_fract_y
_atom_site_fract_z
O1	O	1.261903	0.134222	-0.089227
O2	O	0.985982	0.129269	-0.089253
O3	O	1.132262	0.049265	-0.089219
O4	O	1.115623	0.214225	-0.089260
O5	O	1.121261	0.055293	0.089420
O6	O	0.974981	0.135296	0.089386
O7	O	1.250902	0.140249	0.089413
Cu8	Cu	1.111937	0.138323	0.105711
Cu9	Cu	1.124947	0.131195	-0.105551
O10	O	1.104622	0.220253	0.089379
C11	C	0.945188	0.130115	0.000063
C12	C	0.840023	0.123648	0.000054
C13	C	0.647472	0.111828	0.000078
C14	C	0.589407	0.157687	0.000072
C15	C	0.482265	0.151110	0.000085
C16	C	0.754624	0.118404	0.000065
C17	C	1.126337	0.031040	0.000103
C18	C	1.125063	-0.032246	0.000111
C19	C	1.203641	-0.427092	0.000060
C20	C	1.202458	-0.486556	0.000051
O21	O	1.275300	-0.519354	0.000019
N22	N	1.115494	-0.513896	0.000044
C23	C	1.029708	-0.481769	0.000034
O24	O	0.955630	-0.510484	0.000026
C25	C	1.030893	-0.422305	0.000034
C26	C	1.117862	-0.394968	0.000053
C27	C	1.290603	-0.399754	0.000077
C28	C	1.291786	-0.340294	0.000087
C29	C	1.206006	-0.308170	0.000080
C30	C	1.119044	-0.335508	0.000063
C31	C	0.945109	-0.390179	0.000016
C32	C	0.946301	-0.330712	0.000016
C33	C	1.033270	-0.303375	0.000035
C34	C	1.034447	-0.243924	0.000066
N35	N	1.121411	-0.216584	0.000074
C36	C	1.207191	-0.248707	0.000081
C37	C	1.027228	-0.606646	0.000031
C38	C	1.026042	-0.666108	0.000038
C39	C	1.198792	-0.670891	0.000053
C40	C	1.199976	-0.611428	0.000054
C41	C	1.114192	-0.579306	0.000038
C42	C	1.209668	-0.123835	0.000103
C43	C	1.210842	-0.064369	0.000118
C44	C	1.038093	-0.059591	0.000097
C45	C	1.036917	-0.119052	0.000088
C46	C	1.122713	-0.151173	0.000087
O47	O	0.961644	-0.211090	0.000095
O48	O	1.281258	-0.219985	0.000075
C49	C	1.291696	0.139403	0.000094
C50	C	1.396861	0.145869	0.000096
C51	C	1.110547	0.238478	0.000054
C52	C	1.111822	0.301763	0.000039
N53	N	1.102793	0.143337	0.254301
N54	N	1.134098	0.126177	-0.254141
C55	C	1.089342	0.150717	0.473413
C56	C	1.147546	0.118799	0.526753
C57	C	1.140062	0.122905	0.648675
C58	C	1.096825	0.146611	0.351480
H59	H	1.281666	-0.042114	0.000136
C60	C	0.605930	0.052121	0.000087
H61	H	0.538324	0.055478	0.000082
H62	H	0.623082	0.034122	0.062380
H63	H	0.630739	0.029929	-0.062219
H64	H	1.279531	-0.149982	0.000099
H65	H	0.957366	-0.580495	0.000027
C66	C	1.014417	0.191785	0.535407
H67	H	0.978870	0.211266	0.485909
H68	H	1.045676	0.218644	0.579286
H69	H	0.972463	0.170770	0.579268
H70	H	1.202998	0.088389	0.480853
H71	H	1.362605	-0.318041	0.000098
H72	H	0.968253	-0.033425	0.000095
H73	H	0.955222	-0.688360	0.000041
H74	H	0.620163	0.201888	0.000055
C75	C	0.849442	-0.420238	-0.000013
H76	H	0.798534	-0.392582	-0.000031
H77	H	0.841535	-0.441240	0.062276
H78	H	0.849228	-0.445428	-0.062323
C79	C	1.295641	-0.581363	0.000064
H80	H	1.346554	-0.609016	0.000063
H81	H	1.295864	-0.556166	0.062357
H82	H	1.303535	-0.560367	-0.062242
H83	H	1.360460	-0.425903	0.000079
H84	H	1.268638	-0.697057	0.000055
C85	C	0.851934	-0.295381	0.000003
H86	H	0.799975	-0.320182	-0.000001
H87	H	0.852640	-0.274179	-0.062288
H88	H	0.844964	-0.269991	0.062310
C89	C	0.941255	-0.149124	0.000065
H90	H	0.890338	-0.121474	0.000055
H91	H	0.933357	-0.170132	0.062347
H92	H	0.941048	-0.174310	-0.062251
