data_functionalizedCrystal
_audit_creation_method	'MofGen! by Chris Wilmer'
_symmetry_space_group_name_H-M	'P1'
_symmetry_Int_Tables_number	1
_symmetry_cell_setting	triclinic
loop_
_symmetry_equiv_pos_as_xyz
  x,y,z
_cell_length_a	11.792254
_cell_length_b	14.519709
_cell_length_c	10.268362
_cell_angle_alpha	89.993769
_cell_angle_beta	89.995475
_cell_angle_gamma	83.939371
loop_
_atom_site_label
_atom_site_type_symbol
_atom_site_fract_x
_atom_site_fract_y
_atom_site_fract_z
O1	O	1.506199	0.126460	-0.108302
O2	O	1.756199	0.376460	0.141698
O3	O	2.006199	0.626460	0.391698
O4	O	2.256199	0.876460	0.641698
O5	O	1.175788	0.139475	-0.108305
O6	O	1.425788	0.389475	0.141695
O7	O	1.675788	0.639475	0.391695
O8	O	1.925788	0.889475	0.641695
O9	O	1.349754	-0.001238	-0.108292
O10	O	1.599754	0.248762	0.141708
O11	O	1.849754	0.498762	0.391708
O12	O	2.099754	0.748762	0.641708
O13	O	1.332233	0.267174	-0.108316
O14	O	1.582233	0.517174	0.141684
O15	O	1.832233	0.767174	0.391684
O16	O	2.082233	1.017174	0.641684
O17	O	1.349739	-0.001244	0.108309
O18	O	1.599739	0.248756	0.358309
O19	O	1.849739	0.498756	0.608309
O20	O	2.099739	0.748756	0.858309
O21	O	1.175773	0.139469	0.108295
O22	O	1.425773	0.389469	0.358295
O23	O	1.675773	0.639469	0.608295
O24	O	1.925773	0.889469	0.858295
O25	O	1.506184	0.126454	0.108298
O26	O	1.756184	0.376454	0.358298
O27	O	2.006184	0.626454	0.608298
O28	O	2.256184	0.876454	0.858298
Cu29	Cu	1.340977	0.132961	0.128074
Cu30	Cu	1.590977	0.382961	0.378074
Cu31	Cu	1.840977	0.632961	0.628074
Cu32	Cu	2.090977	0.882961	0.878074
Cu33	Cu	1.340995	0.132968	-0.128081
Cu34	Cu	1.590995	0.382968	0.121919
Cu35	Cu	1.840995	0.632968	0.371919
Cu36	Cu	2.090995	0.882968	0.621919
O37	O	1.332218	0.267168	0.108285
O38	O	1.582218	0.517168	0.358285
O39	O	1.832218	0.767168	0.608285
O40	O	2.082218	1.017168	0.858285
C41	C	1.133494	0.138652	-0.000005
C42	C	1.383494	0.388652	0.249995
C43	C	1.633494	0.638652	0.499995
C44	C	1.883494	0.888652	0.749995
C45	C	1.007495	0.136199	-0.000006
C46	C	1.257495	0.386199	0.249994
C47	C	1.507495	0.636199	0.499994
C48	C	1.757495	0.886199	0.749994
C49	C	1.348930	-0.035604	0.000009
C50	C	1.598930	0.214396	0.250009
C51	C	1.848930	0.464396	0.500009
C52	C	2.098930	0.714396	0.750009
C53	C	1.346483	-0.137994	0.000009
C54	C	1.596483	0.112006	0.250009
C55	C	1.846483	0.362006	0.500009
C56	C	2.096483	0.612006	0.750009
C57	C	0.905169	0.134205	-0.000012
C58	C	1.155169	0.384205	0.249988
C59	C	1.405169	0.634205	0.499988
C60	C	1.655169	0.884205	0.749988
C61	C	0.776796	0.131711	-0.000012
C62	C	1.026796	0.381711	0.249988
C63	C	1.276796	0.631711	0.499988
C64	C	1.526796	0.881711	0.749988
C65	C	1.337475	-0.512923	-0.000025
C66	C	1.587475	-0.262923	0.249975
C67	C	1.837475	-0.012923	0.499975
C68	C	2.087475	0.237077	0.749975
C69	C	1.339976	-0.408606	-0.000015
C70	C	1.589976	-0.158606	0.249985
C71	C	1.839976	0.091394	0.499985
C72	C	2.089976	0.341394	0.749985
C73	C	1.341979	-0.325462	-0.000006
C74	C	1.591979	-0.075462	0.249994
C75	C	1.841979	0.174538	0.499994
C76	C	2.091979	0.424538	0.749994
C77	C	1.344481	-0.221138	0.000001
C78	C	1.594481	0.028862	0.250001
C79	C	1.844481	0.278862	0.500001
C80	C	2.094481	0.528862	0.750001
C81	C	1.548478	0.127277	-0.000004
C82	C	1.798478	0.377277	0.249996
C83	C	2.048478	0.627277	0.499996
C84	C	2.298478	0.877277	0.749996
C85	C	1.674477	0.129731	-0.000012
C86	C	1.924477	0.379731	0.249988
C87	C	2.174477	0.629731	0.499988
C88	C	2.424477	0.879731	0.749988
C89	C	1.333042	0.301534	-0.000018
C90	C	1.583042	0.551534	0.249982
C91	C	1.833042	0.801534	0.499982
C92	C	2.083042	1.051534	0.749982
C93	C	1.335489	0.403924	-0.000028
C94	C	1.585489	0.653924	0.249972
C95	C	1.835489	0.903924	0.499972
C96	C	2.085489	1.153924	0.749972
N97	N	1.340973	0.132956	0.308240
N98	N	1.590973	0.382956	0.558240
N99	N	1.840973	0.632956	0.808240
N100	N	2.090973	0.882956	1.058240
N101	N	1.341008	0.132966	-0.308247
N102	N	1.591008	0.382966	-0.058247
N103	N	1.841008	0.632966	0.191753
N104	N	2.091008	0.882966	0.441753
C105	C	1.340989	0.132966	0.573911
C106	C	1.590989	0.382966	0.823911
C107	C	1.840989	0.632966	1.073911
C108	C	2.090989	0.882966	1.323911
C109	C	1.340976	0.132963	0.426073
C110	C	1.590976	0.382963	0.676073
C111	C	1.840976	0.632963	0.926073
C112	C	2.090976	0.882963	1.176073
