data_functionalizedCrystal
_audit_creation_method	'MofGen! by Chris Wilmer'
_symmetry_space_group_name_H-M	'P1'
_symmetry_Int_Tables_number	1
_symmetry_cell_setting	triclinic
loop_
_symmetry_equiv_pos_as_xyz
  x,y,z
_cell_length_a	29.839131
_cell_length_b	16.120530
_cell_length_c	16.120256
_cell_angle_alpha	89.871735
_cell_angle_beta	92.869474
_cell_angle_gamma	92.863258
loop_
_atom_site_label
_atom_site_type_symbol
_atom_site_fract_x
_atom_site_fract_y
_atom_site_fract_z
Zn1	Zn	-0.227608	-1.247310	-0.534531
Zn2	Zn	-0.299123	-1.254220	-0.395461
Zn3	Zn	-0.220015	-1.115304	-0.388450
Zn4	Zn	-0.298711	-1.108176	-0.527431
O5	O	-0.261364	-1.181252	-0.461468
O6	O	-0.240445	-1.364591	-0.521989
O7	O	-0.285623	-1.241667	-0.278166
O8	O	-0.158158	-1.132907	-0.407864
O9	O	-0.292986	-1.369667	-0.419815
O10	O	-0.163737	-1.229890	-0.515190
O11	O	-0.227503	-1.139607	-0.273014
O12	O	-0.227104	-0.997995	-0.400980
O13	O	-0.292285	-1.120757	-0.644739
O14	O	-0.284921	-0.992757	-0.503089
O15	O	-0.240046	-1.222978	-0.649955
O16	O	-0.361932	-1.234755	-0.412931
O17	O	-0.361629	-1.127458	-0.509889
C18	C	-0.378081	-1.181104	-0.461419
C19	C	-0.428016	-1.181116	-0.461430
C20	C	-0.255144	-0.965204	-0.450504
C21	C	-0.252495	-0.872776	-0.445833
C22	C	-0.266967	-1.170302	-0.678362
C23	C	-0.269354	-1.165635	-0.770790
C24	C	-0.737814	-1.237215	-0.411065
C25	C	-0.925491	-1.237316	-0.411102
O26	O	-0.949883	-1.284896	-0.368242
N27	N	-0.948813	-1.181422	-0.461540
C28	C	-0.925213	-1.125502	-0.511975
O29	O	-0.949356	-1.077968	-0.554882
C30	C	-0.737537	-1.125405	-0.511942
C31	C	-0.714217	-1.181298	-0.461495
C32	C	-0.714494	-1.293103	-0.360623
C33	C	-0.667578	-1.293075	-0.360611
C34	C	-0.643981	-1.237157	-0.411041
C35	C	-0.667301	-1.181269	-0.461483
C36	C	-0.713938	-1.069490	-0.562381
C37	C	-0.667016	-1.069472	-0.562370
C38	C	-0.643696	-1.125365	-0.511923
C39	C	-0.596787	-1.125323	-0.511900
N40	N	-0.573465	-1.181217	-0.461463
C41	C	-0.597062	-1.237134	-0.411033
C42	C	-1.023745	-1.125555	-0.511988
C43	C	-1.070664	-1.125578	-0.511996
C44	C	-1.070939	-1.237394	-0.411124
C45	C	-1.024019	-1.237366	-0.411112
C46	C	-1.000423	-1.181450	-0.461551
C47	C	-0.498534	-1.237069	-0.411011
C48	C	-0.451613	-1.237033	-0.411000
C49	C	-0.451342	-1.125221	-0.511875
C50	C	-0.498259	-1.125254	-0.511883
C51	C	-0.521854	-1.181185	-0.461448
O52	O	-0.572367	-1.077774	-0.554745
O53	O	-0.572912	-1.284673	-0.368146
C54	C	-0.784731	-1.237244	-0.411077
C55	C	-0.808050	-1.181355	-0.461519
C56	C	-0.784454	-1.125438	-0.511949
C57	C	-0.854969	-1.181378	-0.461527
C58	C	-0.878566	-1.237296	-0.411097
C59	C	-0.855244	-1.293190	-0.360660
C60	C	-0.808327	-1.293161	-0.360647
C61	C	-0.807775	-1.069544	-0.562386
C62	C	-0.854692	-1.069577	-0.562394
C63	C	-0.878289	-1.125494	-0.511964
C64	C	-0.144192	-1.181423	-0.461537
C65	C	-0.094261	-1.181495	-0.461566
C66	C	-0.267609	-1.398145	-0.472476
C67	C	-0.270270	-1.490571	-0.477167
C68	C	-0.247647	-0.703550	-0.437312
C69	C	-0.275116	-0.659793	-0.485685
C70	C	-0.272419	-0.565629	-0.480944
C71	C	-0.250343	-0.797722	-0.442052
C72	C	-0.248902	-1.205586	-0.983777
C73	C	-0.273694	-1.157088	-0.940009
C74	C	-0.271278	-1.161845	-0.845847
C75	C	-0.251317	-1.200830	-1.077948
C76	C	-0.255752	-1.192208	-0.245420
C77	C	-0.253243	-1.197036	-0.153002
H78	H	-0.432628	-1.282547	-0.369918
H79	H	-0.300658	-0.693050	-0.530660
H80	H	-0.432122	-1.079691	-0.552932
O81	O	-0.221449	-1.259496	-0.944219
C82	C	-0.203070	-1.402310	-0.924604
C83	C	-0.234183	-1.341345	-0.969486
H84	H	-0.213360	-1.468499	-0.945001
H85	H	-0.166847	-1.386995	-0.940899
H86	H	-0.205988	-1.396566	-0.854629
H87	H	-0.231305	-1.347056	-1.039469
H88	H	-0.270393	-1.356678	-0.953122
O89	O	-0.521379	-1.291427	-0.361939
C90	C	-0.516689	-1.402352	-0.261915
C91	C	-0.490761	-1.340830	-0.317438
H92	H	-0.491946	-1.442323	-0.225935
H93	H	-0.536451	-1.366464	-0.216416
H94	H	-0.540870	-1.443857	-0.302342
H95	H	-0.466556	-1.299311	-0.277078
H96	H	-0.471029	-1.376770	-0.362942
O97	O	-0.645000	-1.347457	-0.311593
C98	C	-0.650241	-1.458342	-0.211520
C99	C	-0.675862	-1.396804	-0.267005
H100	H	-0.675181	-1.498243	-0.175443
H101	H	-0.630495	-1.499910	-0.251900
H102	H	-0.626070	-1.422383	-0.166096
H103	H	-0.700056	-1.432695	-0.312438
H104	H	-0.695579	-1.355236	-0.226574
O105	O	-0.737425	-1.347554	-0.311782
C106	C	-0.793249	-1.460478	-0.306455
C107	C	-0.767318	-1.398843	-0.361857
H108	H	-0.817430	-1.501949	-0.346917
H109	H	-0.768521	-1.500468	-0.270461
H110	H	-0.813015	-1.424598	-0.260957
H111	H	-0.747550	-1.434655	-0.407402
H112	H	-0.792068	-1.358852	-0.397793
O113	O	-0.217216	-0.663752	-0.383679
C114	C	-0.186724	-0.532237	-0.330057
C115	C	-0.221213	-0.577216	-0.390820
H116	H	-0.189937	-0.462265	-0.335823
H117	H	-0.193302	-0.552549	-0.263796
H118	H	-0.151375	-0.548606	-0.345612
H119	H	-0.256575	-0.560868	-0.375342
H120	H	-0.214596	-0.556901	-0.457064
O121	O	-0.878191	-1.347611	-0.311807
C122	C	-0.934055	-1.460467	-0.306477
C123	C	-0.908092	-1.398884	-0.361883
H124	H	-0.958242	-1.501926	-0.346939
H125	H	-0.909348	-1.500475	-0.270451
H126	H	-0.953818	-1.424544	-0.261007
H127	H	-0.888328	-1.434740	-0.407399
H128	H	-0.932821	-1.358876	-0.397850
O129	O	-1.001439	-1.291742	-0.362089
C130	C	-1.006675	-1.402609	-0.261997
C131	C	-1.032299	-1.341084	-0.317491
H132	H	-1.031613	-1.442507	-0.225912
H133	H	-0.986928	-1.444182	-0.302370
H134	H	-0.982505	-1.366640	-0.216580
H135	H	-1.056492	-1.376985	-0.362917
H136	H	-1.052016	-1.299511	-0.277066
O137	O	-1.093938	-1.291730	-0.362265
C138	C	-1.166352	-1.341387	-0.317674
C139	C	-1.140357	-1.279790	-0.373018
H140	H	-1.203886	-1.331743	-0.326335
H141	H	-1.159412	-1.407672	-0.335807
H142	H	-1.154996	-1.330307	-0.249856
H143	H	-1.151698	-1.290794	-0.440851
H144	H	-1.147299	-1.213526	-0.354815
O145	O	-0.301238	-1.103416	-0.979706
C146	C	-0.364029	-1.087305	-1.077339
C147	C	-0.332871	-1.148171	-1.032424
H148	H	-0.389605	-1.123464	-1.119985
H149	H	-0.382351	-1.051559	-1.029564
H150	H	-0.343173	-1.041818	-1.115764
H151	H	-0.353694	-1.193709	-0.994000
H152	H	-0.314547	-1.183857	-1.080241
O153	O	-1.093245	-1.071248	-0.561070
C154	C	-1.088006	-0.960311	-0.661086
C155	C	-1.062379	-1.021806	-0.605558
H156	H	-1.063061	-0.920310	-0.697056
H157	H	-1.112151	-0.996222	-0.706594
H158	H	-1.107780	-0.918835	-0.620665
H159	H	-1.042580	-1.063298	-0.645913
H160	H	-1.038261	-0.985844	-0.560045
H161	H	-0.732917	-1.023973	-0.603456
O162	O	-1.000813	-1.071343	-0.561078
C163	C	-0.950389	-1.054344	-0.672735
C164	C	-0.976340	-1.115834	-0.617215
H165	H	-0.930588	-1.090291	-0.718124
H166	H	-0.975104	-1.014415	-0.708838
H167	H	-0.926237	-1.012794	-0.632296
H168	H	-1.000492	-1.157438	-0.657592
H169	H	-0.951599	-1.155705	-0.581106
H170	H	-0.517247	-1.079744	-0.552963
O171	O	-0.644164	-1.015075	-0.611392
C172	C	-0.648850	-0.904222	-0.711497
C173	C	-0.674783	-0.965767	-0.656006
H174	H	-0.673595	-0.864352	-0.747595
H175	H	-0.624691	-0.862625	-0.671120
H176	H	-0.629062	-0.940175	-0.756903
H177	H	-0.694597	-0.929881	-0.610592
H178	H	-0.698916	-1.007364	-0.696435
H179	H	-0.873675	-1.024055	-0.603472
O180	O	-0.785724	-1.347424	-0.311529
C181	C	-0.768876	-1.395011	-0.172159
C182	C	-0.794502	-1.333519	-0.227691
H183	H	-0.775956	-1.383779	-0.104364
H184	H	-0.780379	-1.461330	-0.190157
H185	H	-0.731291	-1.385410	-0.180849
H186	H	-0.832092	-1.343044	-0.219031
H187	H	-0.782962	-1.267223	-0.209681
H188	H	-0.788566	-1.024010	-0.603453
