data_functionalizedCrystal
_audit_creation_method	'MofGen! by Chris Wilmer'
_symmetry_space_group_name_H-M	'P1'
_symmetry_Int_Tables_number	1
_symmetry_cell_setting	triclinic
loop_
_symmetry_equiv_pos_as_xyz
  x,y,z
_cell_length_a	15.995350
_cell_length_b	10.654550
_cell_length_c	9.130313
_cell_angle_alpha	90.003780
_cell_angle_beta	90.000982
_cell_angle_gamma	96.011361
loop_
_atom_site_label
_atom_site_type_symbol
_atom_site_fract_x
_atom_site_fract_y
_atom_site_fract_z
O1	O	0.117599	-1.666298	-0.121912
O2	O	0.128803	-1.300673	-0.121888
O3	O	0.001371	-1.493480	-0.121899
O4	O	0.245030	-1.473491	-0.121900
O5	O	0.001375	-1.493478	0.121700
O6	O	0.128807	-1.300671	0.121711
O7	O	0.117602	-1.666295	0.121687
Cu8	Cu	0.123205	-1.483483	0.143942
Cu9	Cu	0.123201	-1.483486	-0.144142
O10	O	0.245034	-1.473488	0.121698
C11	C	-0.029827	-1.492652	-0.000102
C12	C	-0.122791	-1.490175	-0.000110
C13	C	0.127982	-1.253885	-0.000085
C14	C	0.125521	-1.114473	-0.000076
C15	C	0.118423	-1.713084	-0.000119
C16	C	0.120884	-1.852495	-0.000137
C17	C	-0.460591	-1.481278	-0.000105
C18	C	-0.413954	-1.343964	-0.000642
C19	C	-0.317249	-1.346442	-0.000093
C20	C	-0.293004	-1.485691	-0.000108
C21	C	-0.333687	-1.553417	0.138991
C22	C	-0.430342	-1.549968	0.139108
C23	C	-0.430688	-1.552807	-0.137910
C24	C	-0.333743	-1.552775	-0.139748
C25	C	-0.198292	-1.488192	-0.000106
C26	C	-0.555303	-1.478780	-0.000098
C27	C	0.276232	-1.474316	-0.000101
C28	C	0.369197	-1.476793	-0.000103
N29	N	0.123207	-1.483490	0.346564
C30	C	0.200551	-1.034008	-0.000098
C31	C	0.198233	-0.903017	-0.000123
C32	C	0.045849	-0.932971	-0.000111
C33	C	0.048168	-1.063959	-0.000075
C34	C	0.277904	-1.084522	-0.000099
C35	C	0.352940	-1.004055	-0.000122
C36	C	0.350622	-0.873064	-0.000147
C37	C	0.273268	-0.822541	-0.000149
N38	N	0.123192	-1.483488	-0.346765
C39	C	0.066800	-1.568887	0.423211
C40	C	0.066789	-1.568883	0.576548
C41	C	0.179602	-1.398083	0.576578
C42	C	0.179607	-1.398081	0.423244
C43	C	0.010399	-1.654296	0.346532
C44	C	-0.046012	-1.739700	0.423179
C45	C	-0.046022	-1.739697	0.576516
C46	C	0.010379	-1.654289	0.653206
H47	H	-0.289138	-1.293204	-0.099805
H48	H	-0.017129	-0.891824	-0.000137
H49	H	-0.306783	-1.503258	-0.242650
N50	N	-0.472300	-1.683493	0.147477
H51	H	-0.455218	-1.732978	0.060040
H52	H	-0.454420	-1.724568	0.240441
H53	H	-0.091960	-1.809228	0.638920
H54	H	0.271387	-0.715878	-0.000147
H55	H	0.010361	-1.654285	0.778063
H56	H	-0.318967	-1.655720	0.144153
H57	H	0.225538	-1.328542	0.360837
H58	H	-0.012928	-1.129477	-0.000061
N59	N	-0.438930	-1.271253	-0.132761
H60	H	-0.408300	-1.183416	-0.130984
H61	H	-0.423665	-1.316084	-0.224910
H62	H	0.010404	-1.654308	0.221678
H63	H	0.279800	-1.191179	-0.000085
H64	H	-0.091937	-1.809230	0.360730
N65	N	0.436363	-1.058552	-0.000121
H66	H	0.469265	-1.029226	-0.090430
H67	H	0.469206	-1.029180	0.090234
H68	H	-0.317791	-1.654321	-0.148158
H69	H	-0.461861	-1.654048	-0.138855
N70	N	0.240431	-1.305970	0.659285
H71	H	0.231869	-1.318931	0.768052
H72	H	0.299923	-1.320468	0.632491
H73	H	-0.289694	-1.292844	0.099796
N74	N	-0.440318	-1.271576	0.130759
H75	H	-0.482340	-1.327343	0.190633
H76	H	-0.389366	-1.244193	0.192766
H77	H	-0.305577	-1.506376	0.242515
N78	N	-0.454972	-1.484550	0.276849
H79	H	-0.403063	-1.458219	0.336919
H80	H	-0.483372	-1.407472	0.249784
N81	N	-0.458242	-1.493353	-0.277569
H82	H	-0.490393	-1.419440	-0.252919
H83	H	-0.407163	-1.463103	-0.337930
H84	H	0.411720	-0.807551	-0.000152
