data_functionalizedCrystal
_audit_creation_method	'MofGen! by Chris Wilmer'
_symmetry_space_group_name_H-M	'P1'
_symmetry_Int_Tables_number	1
_symmetry_cell_setting	triclinic
loop_
_symmetry_equiv_pos_as_xyz
  x,y,z
_cell_length_a	14.971486
_cell_length_b	14.971486
_cell_length_c	13.448316
_cell_angle_alpha	89.988024
_cell_angle_beta	90.006165
_cell_angle_gamma	83.614129
loop_
_atom_site_label
_atom_site_type_symbol
_atom_site_fract_x
_atom_site_fract_y
_atom_site_fract_z
O1	O	-1.186936	-0.116573	0.082578
O2	O	-0.926536	-0.130532	0.082605
O3	O	-1.063716	0.006648	0.082584
O4	O	-1.049757	-0.253752	0.082599
O5	O	-1.063721	0.006672	-0.082800
O6	O	-0.926541	-0.130507	-0.082779
O7	O	-1.186941	-0.116548	-0.082806
Cu8	Cu	-1.056742	-0.123526	-0.097893
Cu9	Cu	-1.056736	-0.123554	0.097692
O10	O	-1.049762	-0.253728	-0.082784
C11	C	-0.893214	-0.129895	-0.000083
C12	C	-0.793917	-0.128024	-0.000073
C13	C	-1.063094	0.039985	-0.000108
C14	C	-1.061223	0.139282	-0.000107
C15	C	-1.220263	-0.117185	-0.000115
C16	C	-1.319561	-0.119056	-0.000119
C17	C	-0.736692	-0.208614	-0.000070
C18	C	-0.643392	-0.206850	-0.000085
C19	C	-0.607320	-0.124497	-0.000096
C20	C	-0.664552	-0.043902	-0.000102
C21	C	-0.757850	-0.045666	-0.000095
C22	C	-0.470090	-0.040231	-0.000116
C23	C	-0.376786	-0.038466	-0.000122
C24	C	-0.355632	-0.201415	-0.000106
C25	C	-0.448930	-0.203179	-0.000099
C26	C	-0.506156	-0.122584	-0.000103
C27	C	-1.050384	-0.287065	-0.000091
C28	C	-1.052254	-0.386362	-0.000085
N29	N	-1.056753	-0.123505	-0.235457
C30	C	-1.141812	0.196507	-0.000116
C31	C	-1.140049	0.289807	-0.000106
C32	C	-1.057696	0.325879	-0.000093
C33	C	-0.977101	0.268646	-0.000081
C34	C	-0.978865	0.175349	-0.000084
C35	C	-0.973430	0.463109	-0.000077
C36	C	-0.971665	0.556413	-0.000076
C37	C	-1.134614	0.577567	-0.000099
C38	C	-1.136378	0.484269	-0.000102
C39	C	-1.055782	0.427043	-0.000091
N40	N	-1.056732	-0.123568	0.235257
C41	C	-1.002546	-0.069110	0.287292
C42	C	-1.002553	-0.069093	0.391395
C43	C	-1.056743	-0.123539	0.443461
C44	C	-1.110935	-0.178000	0.391419
C45	C	-1.110932	-0.178012	0.287318
C46	C	-1.110936	-0.177973	0.608399
C47	C	-1.110939	-0.177963	0.712508
C48	C	-1.002558	-0.069054	0.712476
C49	C	-1.002555	-0.069066	0.608375
C50	C	-1.056746	-0.123528	0.556340
H51	H	-0.766054	-0.275675	-0.000060
Cl52	Cl	-0.934402	-0.000656	0.456806
H53	H	-0.596802	-0.272474	-0.000081
H54	H	-0.958432	-0.024711	0.754848
H55	H	-1.155061	-0.222301	0.754897
Cl56	Cl	-1.245348	0.151169	-0.000141
Cl57	Cl	-0.934423	-0.000625	0.542921
Cl58	Cl	-1.179058	-0.246472	0.221902
H59	H	-1.200238	0.624165	-0.000104
H60	H	-0.904606	0.585780	-0.000082
Cl61	Cl	-0.872107	0.391168	-0.000064
Cl62	Cl	-0.934414	-0.000663	0.221847
Cl63	Cl	-1.241366	0.361744	-0.000120
Cl64	Cl	-1.239910	0.438922	-0.000112
Cl65	Cl	-0.873570	0.313995	-0.000054
H66	H	-0.478296	-0.270239	-0.000080
H67	H	-1.155067	-0.222320	0.566036
Cl68	Cl	-0.283691	-0.302736	-0.000103
Cl69	Cl	-0.331439	0.065065	-0.000170
Cl70	Cl	-1.179064	-0.246443	0.456874
H71	H	-0.913240	0.128756	-0.000077
H72	H	-0.516682	0.025399	-0.000121
Cl73	Cl	-0.829791	0.055651	-0.000103
Cl74	Cl	-0.619204	0.059629	-0.000123
