data_functionalizedCrystal
_audit_creation_method	'MofGen! by Chris Wilmer'
_symmetry_space_group_name_H-M	'P1'
_symmetry_Int_Tables_number	1
_symmetry_cell_setting	triclinic
loop_
_symmetry_equiv_pos_as_xyz
  x,y,z
_cell_length_a	11.026607
_cell_length_b	10.908878
_cell_length_c	9.482944
_cell_angle_alpha	102.129163
_cell_angle_beta	98.185432
_cell_angle_gamma	84.335404
loop_
_atom_site_label
_atom_site_type_symbol
_atom_site_fract_x
_atom_site_fract_y
_atom_site_fract_z
O1	O	1.519249	0.534560	0.120895
O2	O	1.177749	0.476059	0.120897
O3	O	1.393768	0.328841	0.120890
O4	O	1.303229	0.681778	0.120902
O5	O	1.368223	0.287231	-0.120903
O6	O	1.152204	0.434449	-0.120896
O7	O	1.493704	0.492950	-0.120898
Cu8	Cu	1.320621	0.459900	-0.142975
Cu9	Cu	1.350831	0.509109	0.142973
O10	O	1.277684	0.640168	-0.120891
C11	C	1.121943	0.444462	0.000001
C12	C	0.993722	0.412289	0.000001
C13	C	1.389457	0.262151	-0.000005
C14	C	1.414656	0.125424	0.000000
C15	C	1.322712	0.055162	0.000003
C16	C	1.348754	-0.086152	0.000008
C17	C	0.901989	0.501124	0.000005
C18	C	0.769465	0.467874	0.000006
C19	C	1.549509	0.524548	0.000001
C20	C	1.677731	0.556723	0.000010
C21	C	1.281995	0.706859	0.000007
C22	C	1.256797	0.843587	0.000011
N23	N	1.299382	0.425291	-0.344095
C24	C	1.344558	0.498898	-0.416294
C25	C	1.326899	0.470093	-0.583711
N26	N	1.372082	0.543711	0.344094
H27	H	1.446757	-0.130614	0.000003
H28	H	0.921564	0.601794	0.000000
H29	H	0.974150	0.311624	0.000035
O30	O	1.413102	0.610632	-0.334014
H31	H	1.416205	0.615731	-0.215429
H32	H	1.275148	0.385742	-0.645838
O33	O	1.440633	0.655449	-0.573635
H34	H	1.443738	0.660550	-0.455049
O35	O	0.743563	0.334510	0.000002
H36	H	0.643540	0.329323	0.000012
O37	O	1.230835	0.313554	-0.426359
H38	H	1.149473	0.346240	-0.495716
O39	O	1.192897	0.114041	-0.000002
H40	H	1.192814	0.215797	0.000002
O41	O	0.703648	0.690081	0.000006
H42	H	0.652732	0.719420	-0.098552
O43	O	1.126975	-0.097540	0.000014
H44	H	1.126890	0.004217	0.000021
O45	O	1.544471	0.066544	-0.000002
H46	H	1.544555	-0.035209	0.000010
