data_functionalizedCrystal
_audit_creation_method	'MofGen! by Chris Wilmer'
_symmetry_space_group_name_H-M	'P1'
_symmetry_Int_Tables_number	1
_symmetry_cell_setting	triclinic
loop_
_symmetry_equiv_pos_as_xyz
  x,y,z
_cell_length_a	12.827893
_cell_length_b	19.121063
_cell_length_c	12.827885
_cell_angle_alpha	92.403967
_cell_angle_beta	89.980728
_cell_angle_gamma	92.468878
loop_
_atom_site_label
_atom_site_type_symbol
_atom_site_fract_x
_atom_site_fract_y
_atom_site_fract_z
Zn1	Zn	1.579835	-0.279579	-0.608539
Zn2	Zn	1.572236	-0.397046	-0.441232
Zn3	Zn	1.405075	-0.279614	-0.433815
Zn4	Zn	1.397572	-0.396994	-0.615928
O5	O	1.488680	-0.338308	-0.524878
O6	O	1.725063	-0.295169	-0.586357
O7	O	1.550022	-0.381505	-0.294014
O8	O	1.434577	-0.181325	-0.450796
O9	O	1.719480	-0.381471	-0.463437
O10	O	1.562973	-0.181300	-0.579165
O11	O	1.427209	-0.295227	-0.288565
O12	O	1.257844	-0.295177	-0.457961
O13	O	1.421790	-0.381382	-0.761182
O14	O	1.252332	-0.381415	-0.591759
O15	O	1.555698	-0.295118	-0.755753
O16	O	1.542747	-0.495323	-0.470602
O17	O	1.414422	-0.495285	-0.598951
C18	C	1.217171	-0.338295	-0.524858
C19	C	1.101017	-0.338306	-0.524875
C20	C	1.046528	-0.381046	-0.590989
C21	C	0.926477	-0.381059	-0.591008
C22	C	1.476974	-0.520788	-0.536406
C23	C	1.472062	-0.598854	-0.541373
C24	C	1.536618	-0.635526	-0.476937
C25	C	1.532005	-0.708877	-0.481615
C26	C	1.462829	-0.745554	-0.550723
C27	C	1.398270	-0.708877	-0.615166
C28	C	1.402890	-0.635528	-0.610493
C29	C	1.445540	-0.967023	-0.568177
C30	C	1.440923	-1.040378	-0.572842
C31	C	1.574660	-1.040373	-0.439292
C32	C	1.579269	-0.967021	-0.434621
C33	C	1.514714	-0.930351	-0.499067
C34	C	1.458109	-0.820531	-0.555503
C35	C	1.519440	-0.855375	-0.494292
C36	C	1.761249	-0.338322	-0.524900
C37	C	1.877402	-0.338328	-0.524909
C38	C	1.488755	-0.338241	-0.797445
C39	C	1.488787	-0.338212	-0.913596
C40	C	1.500460	-0.155116	-0.513328
C41	C	1.505479	-0.077050	-0.508407
C42	C	1.555057	-0.295518	-0.962694
C43	C	1.555091	-0.295487	-1.082742
C44	C	1.488668	-0.338325	-0.253370
C45	C	1.488851	-0.338156	-0.137206
H46	H	1.592944	-0.605668	-0.420657
H47	H	1.584572	-0.738732	-0.429143
H48	H	0.924244	-0.301737	-0.468300
H49	H	1.635597	-0.937160	-0.378347
O50	O	0.870438	-0.424648	-0.658501
C51	C	0.763049	-0.414966	-0.643482
H52	H	0.751699	-0.360729	-0.605950
H53	H	0.729387	-0.456566	-0.590336
C54	C	0.720489	-0.488071	-0.795665
C55	C	0.706547	-0.421455	-0.749576
H56	H	0.685634	-0.492077	-0.861108
H57	H	0.792838	-0.494597	-0.805782
H58	H	0.692437	-0.522731	-0.751367
H59	H	0.734611	-0.386797	-0.793868
H60	H	0.634201	-0.414923	-0.739469
O61	O	1.421029	-0.381817	-0.969307
C62	C	1.359425	-0.421534	-0.900348
H63	H	1.357560	-0.392834	-0.820706
H64	H	1.394251	-0.474887	-0.892147
C65	C	1.249897	-0.466866	-1.041503
C66	C	1.247599	-0.431613	-0.943687
H67	H	1.180919	-0.473086	-1.068237
H68	H	1.291403	-0.440110	-1.087963
H69	H	1.278924	-0.511323	-1.034655
H70	H	1.218586	-0.387154	-0.950537
H71	H	1.206086	-0.458362	-0.897229
H72	H	1.401784	-0.850402	-0.611769
O73	O	1.586780	-0.819783	-0.427272
C74	C	1.689800	-0.837645	-0.451308
H75	H	1.693776	-0.857764	-0.536076
H76	H	1.714462	-0.880233	-0.398011
C77	C	1.758761	-0.747740	-0.330941
C78	C	1.763647	-0.772445	-0.435056
H79	H	1.804316	-0.707524	-0.320911
H80	H	1.689356	-0.735707	-0.314743
H81	H	1.779311	-0.783237	-0.286538
H82	H	1.743085	-0.736953	-0.479456
H83	H	1.833052	-0.784471	-0.451261
O84	O	1.096854	-0.424615	-0.658648
C85	C	1.071264	-0.409379	-0.761902
H86	H	1.044778	-0.353297	-0.763803
H87	H	1.005594	-0.447103	-0.791576
C88	C	1.200331	-0.486417	-0.829703
C89	C	1.167808	-0.417534	-0.832039
H90	H	1.259881	-0.491450	-0.872970
H91	H	1.217569	-0.496684	-0.760139
H92	H	1.145597	-0.517846	-0.854430
H93	H	1.222537	-0.386107	-0.807301
H94	H	1.150581	-0.407262	-0.901601
O95	O	1.050768	-0.294695	-0.457213
C96	C	1.076322	-0.309960	-0.353961
H97	H	1.153870	-0.336904	-0.353356
H98	H	1.012587	-0.346084	-0.321021
C99	C	0.990332	-0.208345	-0.287231
C100	C	1.085582	-0.241433	-0.286487
H101	H	0.996040	-0.166076	-0.245608
H102	H	0.973112	-0.198062	-0.356793
H103	H	0.937230	-0.238455	-0.259784
H104	H	1.138680	-0.211327	-0.313946
H105	H	1.102811	-0.251710	-0.216927
H106	H	1.432116	-0.374712	-1.094980
O107	O	1.637337	-1.076104	-0.376811
C108	C	1.618416	-1.148709	-0.395735
H109	H	1.583505	-1.158702	-0.476983
H110	H	1.561498	-1.169592	-0.335023
C111	C	1.764672	-1.174035	-0.288877
C112	C	1.721802	-1.186309	-0.388671
H113	H	1.828444	-1.197230	-0.284515
H114	H	1.777418	-1.125119	-0.276124
H115	H	1.717230	-1.191438	-0.238294
H116	H	1.769238	-1.168898	-0.439250
H117	H	1.709067	-1.235223	-0.401432
O118	O	1.373866	-1.076087	-0.640036
C119	C	1.430665	-1.118438	-0.710286
H120	H	1.509189	-1.129397	-0.674192
H121	H	1.443889	-1.090129	-0.785942
C122	C	1.272331	-1.174678	-0.777916
C123	C	1.368772	-1.188143	-0.733580
H124	H	1.234151	-1.217674	-0.792289
H125	H	1.234063	-1.146144	-0.730590
H126	H	1.283365	-1.151086	-0.840957
H127	H	1.357737	-1.211727	-0.670535
H128	H	1.407036	-1.216683	-0.780896
H129	H	1.611763	-0.258986	-0.915852
H130	H	1.392975	-0.937171	-0.620650
H131	H	1.341950	-0.738746	-0.671440
H132	H	1.350322	-0.605670	-0.662965
H133	H	1.611830	-0.258937	-1.124975
