data_functionalizedCrystal
_audit_creation_method	'MofGen! by Chris Wilmer'
_symmetry_space_group_name_H-M	'P1'
_symmetry_Int_Tables_number	1
_symmetry_cell_setting	triclinic
loop_
_symmetry_equiv_pos_as_xyz
  x,y,z
_cell_length_a	12.811438
_cell_length_b	11.892095
_cell_length_c	16.109301
_cell_angle_alpha	93.886619
_cell_angle_beta	96.244781
_cell_angle_gamma	88.501043
loop_
_atom_site_label
_atom_site_type_symbol
_atom_site_fract_x
_atom_site_fract_y
_atom_site_fract_z
O1	O	1.389162	-0.048423	-0.114724
O2	O	1.085799	-0.017317	-0.125146
O3	O	1.245814	-0.033736	0.001016
O4	O	1.229148	-0.032004	-0.240887
O5	O	1.232472	-0.220374	-0.009487
O6	O	1.072457	-0.203955	-0.135649
O7	O	1.375821	-0.235062	-0.125227
Zn8	Zn	1.222021	-0.249141	-0.132106
Zn9	Zn	1.239599	-0.003237	-0.118268
O10	O	1.215806	-0.218643	-0.251389
C11	C	1.040309	-0.106656	-0.129491
C12	C	0.924640	-0.094796	-0.126779
C13	C	0.768879	0.023645	-0.117232
C14	C	0.877561	0.012510	-0.119779
C15	C	0.863030	-0.190975	-0.131229
C16	C	0.754347	-0.179840	-0.128682
C17	C	0.707276	-0.072527	-0.121685
C18	C	0.598591	-0.061394	-0.119143
C19	C	0.584063	-0.264878	-0.130588
C20	C	0.692745	-0.276012	-0.133135
N21	N	1.210032	-0.416965	-0.141549
C22	C	1.335022	-0.666438	-0.043057
C23	C	1.326649	-0.783921	-0.049664
C24	C	1.184909	-0.769415	-0.161366
C25	C	1.193282	-0.651932	-0.154759
C26	C	1.268342	-0.600449	-0.095603
C27	C	1.276719	-0.482964	-0.089001
C28	C	1.134974	-0.468460	-0.200698
C29	C	1.126602	-0.585943	-0.207305
C30	C	1.421311	-0.145720	-0.120882
C31	C	1.536980	-0.157573	-0.123594
C32	C	1.238468	-0.126987	0.026746
C33	C	1.236443	-0.126781	0.119060
N34	N	1.251596	0.164586	-0.108818
C35	C	1.223152	-0.125390	-0.277119
C36	C	1.225177	-0.125588	-0.369433
C37	C	1.326688	-0.136016	0.340478
C38	C	1.324779	-0.135811	0.427217
C39	C	1.134925	-0.116348	0.409143
C40	C	1.136836	-0.116546	0.322406
C41	C	1.232720	-0.126385	0.288076
C42	C	1.228900	-0.125983	0.461552
C43	C	1.226829	-0.125761	0.555598
C44	C	1.234792	-0.126606	0.194024
H45	H	0.927714	0.090824	-0.116153
F46	F	0.913145	-0.305175	-0.138675
F47	F	0.742853	-0.390216	-0.140583
H48	H	1.401297	-0.143651	0.469880
F49	F	0.718777	0.137853	-0.109795
H50	H	0.533893	-0.343189	-0.134218
H51	H	1.056860	-0.108339	0.437105
H52	H	0.560267	0.025986	-0.113449
F53	F	1.356606	-0.428174	-0.026046
H54	H	1.396146	-0.624520	0.005104
F55	F	1.397618	-0.854149	0.006264
H56	H	1.080682	-0.414717	-0.243487
F57	F	1.105020	-0.824220	-0.224312
F58	F	1.046718	-0.640745	-0.270257
F59	F	1.036818	-0.106286	0.266632
H60	H	1.404763	-0.144026	0.312529
