data_functionalizedCrystal
_audit_creation_method	'MofGen! by Chris Wilmer'
_symmetry_space_group_name_H-M	'P1'
_symmetry_Int_Tables_number	1
_symmetry_cell_setting	triclinic
loop_
_symmetry_equiv_pos_as_xyz
  x,y,z
_cell_length_a	14.908520
_cell_length_b	14.908779
_cell_length_c	19.076919
_cell_angle_alpha	95.707932
_cell_angle_beta	84.570994
_cell_angle_gamma	90.163414
loop_
_atom_site_label
_atom_site_type_symbol
_atom_site_fract_x
_atom_site_fract_y
_atom_site_fract_z
Zn1	Zn	-0.454603	-1.334431	0.358242
Zn2	Zn	-0.599592	-1.331684	0.247196
Zn3	Zn	-0.440548	-1.190150	0.246434
Zn4	Zn	-0.596901	-1.174629	0.371812
O5	O	-0.522911	-1.257723	0.305921
O6	O	-0.480844	-1.460177	0.338152
O7	O	-0.573738	-1.318255	0.148151
O8	O	-0.316299	-1.216934	0.255267
O9	O	-0.587367	-1.458159	0.256567
O10	O	-0.326625	-1.322937	0.337412
O11	O	-0.456889	-1.214271	0.147591
O12	O	-0.454280	-1.061981	0.268425
O13	O	-0.582781	-1.190481	0.468956
O14	O	-0.569153	-1.050577	0.360540
O15	O	-0.478235	-1.307887	0.458986
O16	O	-0.725348	-1.303205	0.269725
O17	O	-0.723371	-1.187817	0.361280
C18	C	-0.509900	-1.023580	0.315873
C19	C	-0.504356	-0.923410	0.320148
C20	C	-0.604697	-0.733094	0.243082
C21	C	-0.599491	-0.638975	0.247097
C22	C	-0.488744	-0.641052	0.332196
C23	C	-0.493950	-0.735171	0.328181
C24	C	-0.551927	-0.781188	0.283622
C25	C	-0.557128	-0.875309	0.279604
C26	C	-0.446386	-0.877384	0.364706
C27	C	-0.441180	-0.783265	0.368721
C28	C	-0.757062	-1.243552	0.317072
C29	C	-0.857238	-1.237571	0.321863
C30	C	-1.047487	-1.346599	0.235597
C31	C	-1.141612	-1.340982	0.240096
C32	C	-1.139614	-1.220725	0.335362
C33	C	-1.045489	-1.226342	0.330863
C34	C	-0.999429	-1.289280	0.280979
C35	C	-0.905302	-1.294892	0.276477
C36	C	-0.903307	-1.174640	0.371746
C37	C	-0.997431	-1.169023	0.376245
C38	C	-0.287848	-1.271974	0.294741
C39	C	-0.187678	-1.278046	0.289976
C40	C	-0.531776	-1.247759	0.490343
C41	C	-0.535554	-1.243513	0.568933
C42	C	-0.535967	-0.492782	0.295925
C43	C	-0.541515	-0.592951	0.291652
C44	C	-0.514018	-1.267705	0.122211
C45	C	-0.509997	-1.272141	0.043602
C46	C	-0.482899	-1.302642	0.600666
C47	C	-0.486445	-1.298641	0.674509
C48	C	-0.542650	-1.235515	0.716620
C49	C	-0.595306	-1.176380	0.684882
C50	C	-0.591755	-1.180377	0.611040
C51	C	-0.559102	-1.217003	0.938022
C52	C	-0.562651	-1.213012	1.011869
C53	C	-0.453788	-1.335273	1.001491
C54	C	-0.450246	-1.339268	0.927648
C55	C	-0.502898	-1.280129	0.895917
N56	N	-0.546278	-1.231426	0.792100
N57	N	-0.499266	-1.284214	0.820438
H58	H	-0.441549	-0.603567	0.368480
H59	H	-0.608422	-1.161604	1.046154
O60	O	-0.429660	-1.362420	0.708738
H61	H	-0.389991	-1.406996	0.667050
H62	H	-0.393979	-0.745784	0.405002
H63	H	-0.601990	-1.168860	0.912196
O64	O	-0.655921	-1.108287	0.730301
H65	H	-0.726829	-1.120212	0.718833
O66	O	-0.619657	-0.924949	0.231547
H67	H	-0.655483	-0.875689	0.204037
O68	O	-0.667221	-0.782738	0.195022
H69	H	-0.703043	-0.733481	0.167507
H70	H	-0.404480	-1.390674	0.893366
H71	H	-0.642463	-0.599820	0.214086
O72	O	-0.855628	-1.362785	0.222680
H73	H	-0.816757	-1.409442	0.250367
H74	H	-0.634623	-1.132219	0.585205
H75	H	-1.034946	-1.117783	0.416861
O76	O	-0.389466	-0.929254	0.408438
H77	H	-0.402828	-1.002432	0.398165
H78	H	-1.009984	-1.397840	0.194974
H79	H	-1.180737	-1.387659	0.203143
H80	H	-1.177133	-1.169490	0.375980
O81	O	-0.396971	-1.399031	1.035713
H82	H	-0.408867	-1.385638	1.094134
O83	O	-0.851483	-1.112802	0.420698
H84	H	-0.812515	-1.153702	0.452943
O85	O	-0.422278	-1.370728	0.555247
H86	H	-0.386254	-1.411166	0.589722
