data_functionalizedCrystal
_audit_creation_method	'MofGen! by Chris Wilmer'
_symmetry_space_group_name_H-M	'P1'
_symmetry_Int_Tables_number	1
_symmetry_cell_setting	triclinic
loop_
_symmetry_equiv_pos_as_xyz
  x,y,z
_cell_length_a	18.050590
_cell_length_b	18.050589
_cell_length_c	18.050583
_cell_angle_alpha	90.031910
_cell_angle_beta	89.997484
_cell_angle_gamma	90.015041
loop_
_atom_site_label
_atom_site_type_symbol
_atom_site_fract_x
_atom_site_fract_y
_atom_site_fract_z
Zn1	Zn	-1.135301	0.295868	-0.419568
Zn2	Zn	-0.801967	0.629201	-0.086234
Zn3	Zn	-0.468634	0.962534	0.247099
Zn4	Zn	-1.135209	0.420081	-0.295387
Zn5	Zn	-0.801875	0.753414	0.037946
Zn6	Zn	-0.468542	1.086747	0.371280
Zn7	Zn	-1.011117	0.295880	-0.295432
Zn8	Zn	-0.677784	0.629214	0.037901
Zn9	Zn	-0.344451	0.962547	0.371235
Zn10	Zn	-1.011068	0.419992	-0.419576
Zn11	Zn	-0.677734	0.753325	-0.086242
Zn12	Zn	-0.344401	1.086658	0.247091
O13	O	-1.073174	0.357955	-0.357491
O14	O	-0.739840	0.691288	-0.024157
O15	O	-0.406507	1.024622	0.309176
O16	O	-1.239213	0.312377	-0.403073
O17	O	-0.905880	0.645710	-0.069739
O18	O	-0.572546	0.979043	0.263594
O19	O	-1.118730	0.403648	-0.191468
O20	O	-0.785397	0.736981	0.141865
O21	O	-0.452064	1.070314	0.475198
O22	O	-1.027650	0.191954	-0.311914
O23	O	-0.694316	0.525287	0.021419
O24	O	-0.360983	0.858621	0.354753
O25	O	-1.239146	0.403635	-0.311838
O26	O	-0.905812	0.736969	0.021496
O27	O	-0.572479	1.070302	0.354829
O28	O	-1.118886	0.191945	-0.403116
O29	O	-0.785553	0.525278	-0.069783
O30	O	-0.452220	0.858611	0.263551
O31	O	-1.027561	0.312398	-0.191501
O32	O	-0.694227	0.645732	0.141832
O33	O	-0.360894	0.979065	0.475165
O34	O	-0.907186	0.312312	-0.311922
O35	O	-0.573853	0.645645	0.021411
O36	O	-0.240520	0.978979	0.354745
O37	O	-1.027565	0.403484	-0.523499
O38	O	-0.694232	0.736817	-0.190166
O39	O	-0.360898	1.070150	0.143167
O40	O	-0.907150	0.403496	-0.403130
O41	O	-0.573816	0.736829	-0.069797
O42	O	-0.240483	1.070163	0.263537
O43	O	-1.118838	0.312290	-0.523493
O44	O	-0.785505	0.645624	-0.190160
O45	O	-0.452172	0.978957	0.143173
O46	O	-1.118682	0.523993	-0.311846
O47	O	-0.785349	0.857327	0.021488
O48	O	-0.452015	1.190660	0.354821
O49	O	-1.027476	0.523928	-0.403087
O50	O	-0.694143	0.857261	-0.069753
O51	O	-0.360809	1.190595	0.263580
C52	C	-0.880221	0.357896	-0.357532
C53	C	-0.546888	0.691230	-0.024199
C54	C	-0.213555	1.024563	0.309134
C55	C	-0.797676	0.357889	-0.357568
C56	C	-0.464342	0.691223	-0.024234
C57	C	-0.131009	1.024556	0.309099
C58	C	-0.598227	0.407609	-0.407059
C59	C	-0.264893	0.740942	-0.073725
C60	C	0.068440	1.074276	0.259608
C61	C	-0.548834	0.339888	-0.425331
C62	C	-0.215501	0.673221	-0.091998
C63	C	0.117833	1.006554	0.241336
C64	C	-0.646545	0.357924	-0.357539
C65	C	-0.313212	0.691258	-0.024206
C66	C	0.020121	1.024591	0.309128
C67	C	-0.548856	0.425679	-0.339273
C68	C	-0.215523	0.759012	-0.005940
C69	C	0.117810	1.092345	0.327394
C70	C	-0.500560	0.357965	-0.357513
C71	C	-0.167227	0.691298	-0.024179
C72	C	0.166106	1.024631	0.309154
C73	C	-0.598240	0.290167	-0.375847
C74	C	-0.264906	0.623500	-0.042513
C75	C	0.068427	0.956834	0.290820
C76	C	-0.598267	0.376004	-0.289757
C77	C	-0.264933	0.709337	0.043576
C78	C	0.068400	1.042670	0.376910
C79	C	-0.548896	0.308236	-0.308004
C80	C	-0.215563	0.641569	0.025330
C81	C	0.117771	0.974902	0.358663
C82	C	-0.730644	0.357902	-0.357556
C83	C	-0.397310	0.691236	-0.024223
C84	C	-0.063977	1.024569	0.309111
C85	C	-0.416464	0.357979	-0.357495
C86	C	-0.083130	0.691312	-0.024162
C87	C	0.250203	1.024646	0.309171
C88	C	-1.073084	0.550907	-0.357478
C89	C	-0.739751	0.884240	-0.024145
C90	C	-0.406417	1.217574	0.309188
C91	C	-1.073114	0.633453	-0.357498
C92	C	-0.739780	0.966786	-0.024165
C93	C	-0.406447	1.300120	0.309169
C94	C	-1.073206	0.357876	-0.551196
C95	C	-0.739873	0.691209	-0.217863
C96	C	-0.406540	1.024542	0.115470
C97	C	-1.073220	0.357842	-0.633742
C98	C	-0.739887	0.691175	-0.300409
C99	C	-0.406554	1.024509	0.032925
C100	C	-0.266879	0.358004	-0.357462
C101	C	0.066454	0.691337	-0.024128
C102	C	0.399788	1.024671	0.309205
C103	C	-0.349425	0.357999	-0.357481
C104	C	-0.016092	0.691332	-0.024148
C105	C	0.317242	1.024665	0.309185
C106	C	-1.073284	0.164249	-0.357519
C107	C	-0.739950	0.497583	-0.024186
C108	C	-0.406617	0.830916	0.309147
C109	C	-1.073331	0.081704	-0.357531
C110	C	-0.739997	0.415037	-0.024198
C111	C	-0.406664	0.748370	0.309135
C112	C	-1.023565	0.832895	-0.407097
C113	C	-0.690231	1.166228	-0.073764
C114	C	-0.356898	1.499562	0.259569
C115	C	-1.005465	0.882341	-0.339336
C116	C	-0.672132	1.215674	-0.006003
C117	C	-0.338799	1.549008	0.327331
C118	C	-1.073186	0.784583	-0.357508
C119	C	-0.739853	1.117917	-0.024174
C120	C	-0.406520	1.451250	0.309159
C121	C	-1.091322	0.882219	-0.425277
C122	C	-0.757989	1.215552	-0.091943
C123	C	-0.424655	1.548886	0.241390
C124	C	-1.073256	0.930568	-0.357523
C125	C	-0.739922	1.263902	-0.024190
C126	C	-0.406589	1.597235	0.309144
C127	C	-1.055052	0.832942	-0.289710
C128	C	-0.721718	1.166275	0.043623
C129	C	-0.388385	1.499609	0.376956
C130	C	-1.140940	0.832816	-0.375697
C131	C	-0.807607	1.166149	-0.042363
C132	C	-0.474273	1.499482	0.290970
C133	C	-1.122867	0.882239	-0.307889
C134	C	-0.789533	1.215573	0.025445
C135	C	-0.456200	1.548906	0.358778
C136	C	-1.073145	0.700485	-0.357500
C137	C	-0.739811	1.033818	-0.024166
C138	C	-0.406478	1.367152	0.309167
C139	C	-1.073297	1.014665	-0.357523
C140	C	-0.739964	1.347998	-0.024190
C141	C	-0.406631	1.681332	0.309144
C142	C	-1.122904	0.308227	-0.833190
C143	C	-0.789571	0.641560	-0.499856
C144	C	-0.456238	0.974894	-0.166523
C145	C	-1.055171	0.290035	-0.882605
C146	C	-0.721838	0.623369	-0.549272
C147	C	-0.388504	0.956702	-0.215938
C148	C	-1.073250	0.357829	-0.784873
C149	C	-0.739917	0.691163	-0.451539
C150	C	-0.406584	1.024496	-0.118206
C151	C	-1.141011	0.375974	-0.882539
C152	C	-0.807678	0.709307	-0.549206
C153	C	-0.474344	1.042641	-0.215872
C154	C	-1.073285	0.357815	-0.930858
C155	C	-0.739952	0.691149	-0.597524
C156	C	-0.406618	1.024482	-0.264191
C157	C	-1.005481	0.339602	-0.833201
C158	C	-0.672147	0.672936	-0.499867
C159	C	-0.338814	1.006269	-0.166534
C160	C	-1.091366	0.425573	-0.833130
C161	C	-0.758033	0.758906	-0.499797
C162	C	-0.424700	1.092239	-0.166464
C163	C	-1.023586	0.407407	-0.882523
C164	C	-0.690253	0.740740	-0.549190
C165	C	-0.356919	1.074073	-0.215857
C166	C	-1.073231	0.357835	-0.700774
C167	C	-0.739898	0.691169	-0.367441
C168	C	-0.406564	1.024502	-0.034108
C169	C	-1.073296	0.357810	-1.014954
C170	C	-0.739963	0.691143	-0.681621
C171	C	-0.406630	1.024476	-0.348288
C172	C	-1.073184	0.357980	-0.164539
C173	C	-0.739850	0.691314	0.168795
C174	C	-0.406517	1.024647	0.502128
C175	C	-1.073314	0.357805	-0.081993
C176	C	-0.739980	0.691138	0.251340
C177	C	-0.406647	1.024472	0.584674
H178	H	-0.527372	0.266188	-0.266116
H179	H	-0.194039	0.599521	0.067218
H180	H	0.139294	0.932854	0.400551
H181	H	-0.619889	0.449554	-0.448980
H182	H	-0.286556	0.782888	-0.115646
H183	H	0.046777	1.116221	0.217687
Br184	Br	-1.029424	0.797020	-0.194168
Br185	Br	-0.696091	1.130353	0.139165
Br186	Br	-0.362758	1.463686	0.472498
H187	H	-0.527121	0.324608	-0.482642
H188	H	-0.193788	0.657941	-0.149308
H189	H	0.139546	0.991275	0.184025
Br190	Br	-1.192862	0.918124	-0.237927
Br191	Br	-0.859529	1.251457	0.095406
Br192	Br	-0.526196	1.584791	0.428740
Br193	Br	-0.953525	0.796781	-0.476898
Br194	Br	-0.620191	1.130114	-0.143565
Br195	Br	-0.286858	1.463447	0.189769
H196	H	-1.198192	0.811047	-0.391100
H197	H	-0.864858	1.144380	-0.057767
H198	H	-0.531525	1.477714	0.275567
H199	H	-0.981562	0.449348	-0.904048
H200	H	-0.648228	0.782681	-0.570715
H201	H	-0.314895	1.116014	-0.237382
H202	H	-0.619841	0.232868	-0.391350
H203	H	-0.286508	0.566202	-0.058016
H204	H	0.046826	0.899535	0.275317
H205	H	-1.198301	0.391325	-0.904215
H206	H	-0.864967	0.724659	-0.570881
H207	H	-0.531634	1.057992	-0.237548
Br208	Br	-0.634456	0.401488	-0.194246
Br209	Br	-0.301122	0.734821	0.139088
Br210	Br	0.032211	1.068155	0.472421
H211	H	-1.106634	0.903865	-0.482582
H212	H	-0.773300	1.237198	-0.149249
H213	H	-0.439967	1.570531	0.184084
H214	H	-0.527161	0.482960	-0.323837
H215	H	-0.193827	0.816293	0.009497
H216	H	0.139506	1.149627	0.342830
H217	H	-0.948201	0.904112	-0.323965
H218	H	-0.614867	1.237445	0.009368
H219	H	-0.281534	1.570778	0.342701
H220	H	-1.164827	0.266254	-0.811526
H221	H	-0.831493	0.599587	-0.478192
H222	H	-0.498160	0.932920	-0.144859
H223	H	-0.948174	0.324183	-0.811619
H224	H	-0.614841	0.657517	-0.478285
H225	H	-0.281508	0.990850	-0.144952
Br226	Br	-1.029647	0.194542	-0.918829
Br227	Br	-0.696314	0.527875	-0.585495
Br228	Br	-0.362981	0.861209	-0.252162
H229	H	-1.106699	0.482852	-0.811384
H230	H	-0.773366	0.816185	-0.478051
H231	H	-0.440033	1.149518	-0.144717
