data_functionalizedCrystal
_audit_creation_method	'MofGen! by Chris Wilmer'
_symmetry_space_group_name_H-M	'P1'
_symmetry_Int_Tables_number	1
_symmetry_cell_setting	triclinic
loop_
_symmetry_equiv_pos_as_xyz
  x,y,z
_cell_length_a	17.077404
_cell_length_b	18.101395
_cell_length_c	18.101398
_cell_angle_alpha	90.017121
_cell_angle_beta	90.007689
_cell_angle_gamma	90.031329
loop_
_atom_site_label
_atom_site_type_symbol
_atom_site_fract_x
_atom_site_fract_y
_atom_site_fract_z
Zn1	Zn	1.199918	-0.294901	0.418740
Zn2	Zn	1.199834	-0.418727	0.294901
Zn3	Zn	1.068677	-0.294904	0.294912
Zn4	Zn	1.068599	-0.418706	0.418702
O5	O	1.134257	-0.356809	0.356814
O6	O	1.309754	-0.311334	0.402323
O7	O	1.182433	-0.402312	0.191270
O8	O	1.086155	-0.191271	0.311359
O9	O	1.309692	-0.402309	0.311340
O10	O	1.182577	-0.191268	0.402334
O11	O	1.086072	-0.311340	0.191278
O12	O	0.958820	-0.311319	0.311322
O13	O	1.086022	-0.402272	0.522340
O14	O	0.958763	-0.402276	0.402270
O15	O	1.182501	-0.311313	0.522367
O16	O	1.182357	-0.522357	0.311303
O17	O	1.085940	-0.522341	0.402259
C18	C	0.930309	-0.356796	0.356793
C19	C	0.843059	-0.356808	0.356802
C20	C	0.802060	-0.404240	0.404083
C21	C	0.720080	-0.404242	0.404094
C22	C	0.679100	-0.356815	0.356822
C23	C	0.720105	-0.309377	0.309539
C24	C	0.802084	-0.309372	0.309532
C25	C	0.549235	-0.309392	0.309557
C26	C	0.467250	-0.309397	0.309563
C27	C	0.467231	-0.404261	0.404120
C28	C	0.549209	-0.404257	0.404112
C29	C	0.590209	-0.356820	0.356829
C30	C	1.134152	-0.549220	0.356792
C31	C	1.134179	-0.631534	0.356807
C32	C	1.134351	-0.930625	0.356847
C33	C	1.073829	-0.899321	0.414216
C34	C	1.073541	-0.813703	0.414037
C35	C	1.134266	-0.782243	0.356828
C36	C	1.111886	-0.813380	0.278779
C37	C	1.111496	-0.899025	0.279122
C38	C	1.217386	-0.898972	0.376841
C39	C	1.216898	-0.813321	0.378553
C40	C	1.134219	-0.698383	0.356813
C41	C	1.134396	-1.014484	0.356858
C42	C	1.339001	-0.356823	0.356835
C43	C	1.426251	-0.356829	0.356844
C44	C	1.134262	-0.356790	0.549976
C45	C	1.134265	-0.356781	0.632290
C46	C	1.134384	-0.163648	0.356852
C47	C	1.134438	-0.081333	0.356868
C48	C	1.134266	-0.356795	0.782998
C49	C	1.194965	-0.299569	0.814369
C50	C	1.195203	-0.299745	0.899988
C51	C	1.134267	-0.356808	0.931381
C52	C	1.156400	-0.434912	0.900272
C53	C	1.156840	-0.434573	0.814628
C54	C	1.051281	-0.336603	0.814555
C55	C	1.051727	-0.334889	0.900206
C56	C	1.134266	-0.356820	1.015240
C57	C	1.134268	-0.356789	0.699139
C58	C	1.134252	-0.356838	1.164403
C59	C	1.134268	-0.356822	1.082089
H60	H	1.087541	-0.792649	0.471910
Cl61	Cl	1.091529	-0.502670	0.782579
H62	H	1.181310	-0.241477	0.793795
H63	H	1.256694	-0.313135	0.920484
H64	H	1.004107	-0.373514	0.921573
Cl65	Cl	1.090237	-0.502551	0.931661
Cl66	Cl	0.415734	-0.249777	0.250130
H67	H	1.264374	-0.791902	0.339814
Cl68	Cl	0.668588	-0.249749	0.250115
H69	H	1.216374	-0.452302	0.921746
H70	H	1.233775	-0.792968	0.435993
H71	H	1.217491	-0.451654	0.794658
H72	H	1.035030	-0.277410	0.920541
H73	H	1.256106	-0.312792	0.792856
H74	H	1.181375	-0.241841	0.921023
H75	H	0.835465	-0.270744	0.271035
Cl76	Cl	0.979383	-0.932661	0.394043
Cl77	Cl	1.020083	-0.250158	0.781231
H78	H	1.262477	-0.919214	0.335057
H79	H	1.011993	-0.793277	0.400793
H80	H	1.006060	-0.378282	0.794264
Cl81	Cl	1.095223	-0.931063	0.503860
H82	H	1.237794	-0.920530	0.432785
Cl83	Cl	0.600776	-0.249756	0.250114
H84	H	1.050798	-0.919065	0.262186
H85	H	1.153666	-0.919735	0.234920
H86	H	0.835420	-0.442864	0.442575
H87	H	0.686701	-0.442867	0.442594
H88	H	1.154581	-0.793002	0.234869
Cl89	Cl	0.415689	-0.463886	0.463572
Cl90	Cl	1.019163	-0.780366	0.252160
H91	H	0.582573	-0.442880	0.442602
