data_functionalizedCrystal
_audit_creation_method	'MofGen! by Chris Wilmer'
_symmetry_space_group_name_H-M	'P1'
_symmetry_Int_Tables_number	1
_symmetry_cell_setting	triclinic
loop_
_symmetry_equiv_pos_as_xyz
  x,y,z
_cell_length_a	17.639054
_cell_length_b	17.640280
_cell_length_c	17.639477
_cell_angle_alpha	109.653959
_cell_angle_beta	87.870061
_cell_angle_gamma	87.823438
loop_
_atom_site_label
_atom_site_type_symbol
_atom_site_fract_x
_atom_site_fract_y
_atom_site_fract_z
Zn1	Zn	1.065816	0.036027	0.670142
Zn2	Zn	1.126516	-0.114275	0.519908
Zn3	Zn	0.976298	-0.014529	0.509630
Zn4	Zn	0.976279	-0.124410	0.619563
O5	O	1.036227	-0.054297	0.579810
O6	O	1.174207	0.041489	0.675682
O7	O	1.132000	-0.117959	0.409663
O8	O	0.962778	0.101065	0.547788
O9	O	1.218803	-0.068937	0.565305
O10	O	1.028547	0.138209	0.665716
O11	O	1.021636	-0.044676	0.402112
O12	O	0.875957	-0.054505	0.498744
O13	O	0.962745	-0.086212	0.735153
O14	O	0.875942	-0.135234	0.579511
O15	O	1.028528	0.031661	0.772314
O16	O	1.131982	-0.224507	0.516261
O17	O	1.021603	-0.231954	0.589477
C18	C	0.849933	-0.101456	0.532524
C19	C	0.770235	-0.121647	0.512310
C20	C	0.681121	-0.207528	0.426293
C21	C	0.756006	-0.188549	0.445294
C22	C	0.709578	-0.073700	0.560355
C23	C	0.634687	-0.092672	0.541367
C24	C	0.620465	-0.159586	0.474334
C25	C	0.574032	-0.044730	0.589408
C26	C	0.499148	-0.063699	0.570418
C27	C	0.484919	-0.130608	0.503387
C28	C	0.545581	-0.178555	0.455344
C29	C	0.588256	0.022187	0.656436
C30	C	0.527601	0.070129	0.704477
C31	C	0.452715	0.051157	0.685491
C32	C	0.438486	-0.015752	0.618461
C33	C	0.392053	0.099104	0.733534
C34	C	0.317169	0.080135	0.714544
C35	C	0.363602	-0.034721	0.599471
C36	C	1.083392	-0.256456	0.548518
C37	C	1.103629	-0.342920	0.535173
C38	C	0.882717	-0.646906	0.681545
C39	C	0.901740	-0.728156	0.668981
C40	C	1.016711	-0.720306	0.592856
C41	C	0.997700	-0.639053	0.605417
C42	C	0.930701	-0.602360	0.649761
C43	C	1.045684	-0.594507	0.573633
C44	C	1.026671	-0.513262	0.586189
C45	C	0.959675	-0.476564	0.630529
C46	C	0.911689	-0.521116	0.662317
C47	C	1.112679	-0.631203	0.529284
C48	C	1.160663	-0.586657	0.497500
C49	C	1.141654	-0.505409	0.510061
C50	C	1.074657	-0.468711	0.554401
C51	C	1.189640	-0.460858	0.478273
C52	C	1.170628	-0.379613	0.490829
C53	C	1.055645	-0.387466	0.566957
C54	C	1.223249	-0.006954	0.627282
C55	C	1.302947	0.013221	0.647512
C56	C	0.988863	-0.022767	0.782754
C57	C	0.968680	-0.009331	0.869237
C58	C	0.988893	0.148660	0.611247
C59	C	0.968723	0.235147	0.624644
C60	C	1.083435	-0.085637	0.377675
C61	C	1.103706	-0.098819	0.291262
C62	C	1.189614	-0.155912	1.173303
C63	C	1.170638	-0.143280	1.254566
C64	C	1.055723	-0.066976	1.246703
C65	C	1.074688	-0.079604	1.165437
C66	C	1.141635	-0.124072	1.128744
C67	C	1.026708	-0.047765	1.120877
C68	C	1.045674	-0.060389	1.039619
C69	C	1.112620	-0.104853	1.002921
C70	C	1.160601	-0.136697	1.047486
C71	C	0.959764	-0.003293	1.157573
C72	C	0.911785	0.028547	1.113013
C73	C	0.930748	0.015918	1.031752
C74	C	0.997693	-0.028546	0.995054
C75	C	0.882767	0.047762	0.987187
C76	C	0.901733	0.035137	0.905930
C77	C	1.016659	-0.041170	0.913797
H78	H	0.669541	-0.262022	0.371714
H79	H	1.071259	-0.750194	0.556748
H80	H	0.534002	-0.233049	0.400765
C81	C	0.849589	-0.776602	0.703338
C82	C	0.824866	-0.841759	0.640366
C83	C	0.776816	-0.886399	0.671981
H84	H	0.876408	-0.796140	0.739312
H85	H	0.806933	-0.743146	0.731515
H86	H	0.867515	-0.875210	0.612202
H87	H	0.798036	-0.822245	0.604387
H88	H	0.734160	-0.852942	0.700158
H89	H	0.803640	-0.905930	0.707955
H90	H	0.760030	-0.930608	0.629259
C91	C	0.407656	0.171697	0.806296
C92	C	0.486219	0.178039	0.812652
C93	C	0.500620	0.244897	0.879676
H94	H	0.385878	0.219188	0.800054
H95	H	0.385920	0.165247	0.853700
H96	H	0.507946	0.184495	0.765260
H97	H	0.508015	0.130564	0.818907
H98	H	0.478884	0.238447	0.927080
H99	H	0.478837	0.292383	0.873428
H100	H	0.553925	0.249204	0.884001
H101	H	1.071179	-0.077371	0.883922
C102	C	0.821891	-0.240485	0.393063
C103	C	0.866181	-0.193207	0.360978
C104	C	0.926873	-0.241022	0.312851
H105	H	0.852184	-0.262434	0.424845
H106	H	0.802719	-0.283037	0.350387
H107	H	0.885353	-0.150669	0.403649
H108	H	0.835911	-0.171257	0.329184
H109	H	0.907701	-0.283575	0.270175
H110	H	0.957160	-0.262969	0.344639
H111	H	0.956927	-0.208953	0.291070
H112	H	0.352023	-0.089215	0.544892
H113	H	1.128158	-0.697357	0.519065
H114	H	0.423943	-0.146041	0.487917
C115	C	0.838990	-0.481330	0.710596
C116	C	0.841194	-0.485176	0.788486
C117	C	0.774240	-0.448540	0.832980
H118	H	0.834474	-0.426547	0.713614
H119	H	0.796589	-0.508664	0.684926
H120	H	0.883584	-0.457840	0.814150
H121	H	0.845699	-0.539949	0.785492
H122	H	0.731838	-0.475874	0.807310
H123	H	0.769729	-0.393760	0.835992
H124	H	0.775723	-0.451151	0.885831
C125	C	0.724916	-0.001106	0.633230
C126	C	0.692727	-0.010824	0.702923
C127	C	0.706830	0.056037	0.770072
H128	H	0.778176	0.003393	0.637775
H129	H	0.703042	0.046346	0.626964
H130	H	0.714603	-0.058262	0.709189
H131	H	0.639466	-0.015312	0.698405
H132	H	0.684957	0.103488	0.763806
H133	H	0.760091	0.060530	0.774610
H134	H	0.684986	0.049456	0.817366
C135	C	1.133099	-0.118679	0.914650
C136	C	1.075750	-0.160008	0.867359
C137	C	1.094594	-0.172769	0.786040
H138	H	1.138062	-0.068237	0.907076
H139	H	1.179820	-0.149758	0.899138
H140	H	1.029042	-0.128929	0.882866
H141	H	1.070778	-0.210457	0.874908
H142	H	1.141314	-0.203849	0.770528
H143	H	1.099557	-0.122324	0.778474
H144	H	1.055689	-0.200818	0.753942
C145	C	1.233333	-0.184978	1.007791
C146	C	1.271301	-0.210155	1.064207
C147	C	1.338303	-0.254624	1.027671
H148	H	1.221296	-0.230794	0.963886
H149	H	1.265075	-0.152239	0.988654
H150	H	1.239566	-0.242892	1.083332
H151	H	1.283358	-0.164355	1.108114
H152	H	1.370045	-0.221886	1.008534
H153	H	1.326259	-0.300437	0.983767
H154	H	1.364077	-0.271706	1.065945
H155	H	1.215211	-0.616545	0.461392
C156	C	0.251412	0.132256	0.766827
C157	C	0.279894	0.194901	0.829610
C158	C	0.219341	0.242926	0.877795
H159	H	0.221162	0.154270	0.735064
H160	H	0.221270	0.100322	0.788703
H161	H	0.310023	0.226830	0.807735
H162	H	0.310137	0.172910	0.861393
H163	H	0.189199	0.210993	0.899670
H164	H	0.189095	0.264935	0.846024
H165	H	0.238657	0.285432	0.920402
C166	C	1.262356	-0.500840	0.430172
C167	C	1.268739	-0.581523	0.425986
C168	C	1.335718	-0.618377	0.381686
H169	H	1.261060	-0.498395	0.377254
H170	H	1.304761	-0.473559	0.455891
H171	H	1.226345	-0.608797	0.400266
H172	H	1.270048	-0.583991	0.478892
H173	H	1.378124	-0.591096	0.407405
H174	H	1.334416	-0.615926	0.328772
H175	H	1.340062	-0.673122	0.378847
C176	C	1.222839	-0.331368	0.456288
C177	C	1.285592	-0.380885	0.414784
C178	C	1.333708	-0.336469	0.382958
H179	H	1.196036	-0.311904	0.420252
H180	H	1.239726	-0.287116	0.498896
H181	H	1.268705	-0.425122	0.372181
H182	H	1.312415	-0.400350	0.450803
H183	H	1.350595	-0.292217	0.425566
H184	H	1.306898	-0.317007	0.346925
H185	H	1.376294	-0.370057	0.354800
C186	C	0.810018	-0.607121	0.729823
C187	C	0.812223	-0.610967	0.807714
C188	C	0.745268	-0.574331	0.852208
H189	H	0.805502	-0.552338	0.732842
H190	H	0.767617	-0.634455	0.704154
H191	H	0.854612	-0.583631	0.833378
H192	H	0.816727	-0.665740	0.804720
H193	H	0.702866	-0.601665	0.826538
H194	H	0.740758	-0.519550	0.855220
H195	H	0.746751	-0.576942	0.905059
C196	C	0.982946	-0.347680	0.615236
C197	C	0.985151	-0.351527	0.693126
C198	C	0.918196	-0.314890	0.737620
H199	H	0.978430	-0.292898	0.618254
H200	H	0.940545	-0.375015	0.589566
H201	H	1.027540	-0.324191	0.718790
H202	H	0.989655	-0.406300	0.690132
H203	H	0.875795	-0.342225	0.711950
H204	H	0.913686	-0.260110	0.740632
H205	H	0.919679	-0.317502	0.790471
C206	C	1.222859	-0.177795	1.302886
C207	C	1.294469	-0.145979	1.303740
C208	C	1.342595	-0.177760	1.348237
H209	H	1.202080	-0.163931	1.356563
H210	H	1.227717	-0.234807	1.278800
H211	H	1.289609	-0.088980	1.327828
H212	H	1.315270	-0.159841	1.250074
H213	H	1.347454	-0.234772	1.324151
H214	H	1.321810	-0.163894	1.401911
H215	H	1.391190	-0.156183	1.348816
H216	H	0.944193	-0.410411	0.640745
H217	H	1.244135	-0.192113	1.143429
C218	C	0.983053	-0.018755	1.286678
C219	C	0.976703	-0.014527	1.367373
C220	C	0.909763	0.029877	1.404218
H221	H	0.984384	0.034148	1.284208
H222	H	0.940618	-0.044416	1.259408
H223	H	1.019127	0.011136	1.394636
H224	H	0.975359	-0.067417	1.369867
H225	H	0.867328	0.004216	1.376948
H226	H	0.911100	0.082777	1.401742
H227	H	0.905442	0.032745	1.458971
C228	C	0.839116	0.076768	1.152989
C229	C	0.832765	0.080995	1.233684
C230	C	0.765826	0.125400	1.270529
H231	H	0.840446	0.129671	1.150518
H232	H	0.796680	0.051107	1.125719
H233	H	0.875190	0.106658	1.260947
H234	H	0.831422	0.028105	1.236178
H235	H	0.723390	0.099739	1.243259
H236	H	0.767162	0.178300	1.268053
H237	H	0.761505	0.128268	1.325282
C238	C	0.810004	0.095953	1.026897
C239	C	0.747623	0.057992	0.986493
C240	C	0.680582	0.102369	1.023043
H241	H	0.805471	0.098941	1.081669
H242	H	0.811371	0.148820	1.024313
H243	H	0.746255	0.005139	0.989085
H244	H	0.752131	0.055004	0.931723
H245	H	0.681949	0.155236	1.020459
H246	H	0.676057	0.105355	1.077814
H247	H	0.638250	0.076623	0.995630
H248	H	0.649233	0.037631	0.671893
H249	H	0.862665	0.061067	0.869649
H250	H	0.539191	0.124612	0.759054
H251	H	0.944327	0.006989	1.223740
