data_functionalizedCrystal
_audit_creation_method	'MofGen! by Chris Wilmer'
_symmetry_space_group_name_H-M	'P1'
_symmetry_Int_Tables_number	1
_symmetry_cell_setting	triclinic
loop_
_symmetry_equiv_pos_as_xyz
  x,y,z
_cell_length_a	15.944493
_cell_length_b	10.654550
_cell_length_c	9.130313
_cell_angle_alpha	89.995631
_cell_angle_beta	89.997042
_cell_angle_gamma	83.979987
loop_
_atom_site_label
_atom_site_type_symbol
_atom_site_fract_x
_atom_site_fract_y
_atom_site_fract_z
O1	O	1.115489	0.161619	-0.121779
O2	O	0.871049	0.181664	-0.121787
O3	O	0.998889	-0.011172	-0.121774
O4	O	0.987649	0.354455	-0.121792
O5	O	0.998880	-0.011178	0.121825
O6	O	0.871040	0.181658	0.121812
O7	O	1.115480	0.161613	0.121819
Cu8	Cu	0.993259	0.171635	0.144058
Cu9	Cu	0.993269	0.171642	-0.144026
O10	O	0.987640	0.354450	0.121806
C11	C	0.998059	-0.057962	0.000025
C12	C	0.995590	-0.197373	0.000023
C13	C	0.839745	0.180842	0.000012
C14	C	0.746482	0.178385	0.000009
C15	C	1.070860	-0.277856	0.000024
C16	C	1.068535	-0.408846	0.000006
C17	C	0.915663	-0.378857	-0.000009
C18	C	0.917989	-0.247869	-0.000001
C19	C	0.511379	0.291893	0.000003
C20	C	0.460462	0.230680	0.120119
C21	C	0.575734	0.173834	0.000012
C22	C	0.460475	0.230658	-0.120050
C23	C	0.410799	0.169447	0.000009
C24	C	0.526046	0.112653	0.120228
C25	C	0.526062	0.112648	-0.120049
C26	C	0.475178	0.051348	0.000096
C27	C	0.670749	0.176365	0.000016
C28	C	0.315788	0.166907	0.000016
C29	C	1.146784	0.162435	0.000018
C30	C	1.240047	0.164892	0.000010
C31	C	0.988469	0.401239	0.000005
C32	C	0.990939	0.540650	-0.000003
N33	N	0.993258	0.171630	0.346681
N34	N	0.993277	0.171637	-0.346648
C35	C	1.049885	0.086278	0.423338
C36	C	1.049893	0.086278	0.576675
C37	C	0.936644	0.256994	0.576683
C38	C	0.936633	0.256986	0.423349
H39	H	1.134048	-0.236746	0.000041
H40	H	0.890516	0.326491	0.360931
H41	H	0.856691	-0.182336	-0.000007
O42	O	0.881612	0.339738	0.651327
C43	C	0.829399	0.272450	0.740027
H44	H	0.862287	0.174203	0.763000
H45	H	0.767266	0.263874	0.680960
C46	C	0.771478	0.463918	0.857458
C47	C	0.811875	0.343252	0.885685
H48	H	0.760664	0.507594	0.947304
H49	H	0.806652	0.509253	0.797696
H50	H	0.719705	0.456754	0.808232
H51	H	0.863651	0.350418	0.934893
H52	H	0.776709	0.297920	0.945458
H53	H	1.096003	0.016775	0.639086
O54	O	1.141732	-0.486847	0.000078
C55	C	1.210718	-0.414182	0.000060
H56	H	1.189963	-0.316421	0.046186
H57	H	1.234476	-0.404845	-0.116801
C58	C	1.307510	-0.599552	0.038944
C59	C	1.282020	-0.479483	0.095607
H60	H	1.351494	-0.639834	0.097875
H61	H	1.261033	-0.648509	0.038950
H62	H	1.327302	-0.591755	-0.058440
H63	H	1.262218	-0.487283	0.192982
H64	H	1.328495	-0.430529	0.095620
H65	H	0.459123	-0.050423	0.000171
H66	H	0.852482	-0.419988	-0.000025
H67	H	0.527591	0.393588	0.000110
H68	H	1.095991	0.016774	0.360919
O69	O	0.426296	0.290356	0.241148
C70	C	0.444412	0.417068	0.240736
H71	H	0.457657	0.447046	0.123853
H72	H	0.502125	0.426740	0.311914
C73	C	0.352080	0.465102	0.445583
C74	C	0.368341	0.501925	0.302023
H75	H	0.305158	0.517446	0.483393
H76	H	0.339876	0.379732	0.445865
H77	H	0.400179	0.473163	0.504880
H78	H	0.320245	0.493849	0.242725
H79	H	0.380534	0.587296	0.301732
H80	H	0.554582	0.062823	0.221878
H81	H	0.554724	0.062830	-0.221597
H82	H	0.431829	0.280542	-0.221585
