data_functionalizedCrystal
_audit_creation_method	'MofGen! by Chris Wilmer'
_symmetry_space_group_name_H-M	'P1'
_symmetry_Int_Tables_number	1
_symmetry_cell_setting	triclinic
loop_
_symmetry_equiv_pos_as_xyz
  x,y,z
_cell_length_a	16.625546
_cell_length_b	16.625547
_cell_length_c	12.759387
_cell_angle_alpha	89.970632
_cell_angle_beta	90.035560
_cell_angle_gamma	89.978346
loop_
_atom_site_label
_atom_site_type_symbol
_atom_site_fract_x
_atom_site_fract_y
_atom_site_fract_z
Zn1	Zn	-0.320977	-1.232699	0.594219
Zn2	Zn	-0.455832	-1.232597	0.418524
Zn3	Zn	-0.321015	-1.097855	0.418528
Zn4	Zn	-0.455769	-1.097831	0.594136
O5	O	-0.388398	-1.165246	0.506352
O6	O	-0.338876	-1.345518	0.570945
O7	O	-0.437990	-1.214690	0.271504
O8	O	-0.208177	-1.115795	0.441870
O9	O	-0.437953	-1.345443	0.441863
O10	O	-0.208149	-1.214864	0.570949
O11	O	-0.338941	-1.115696	0.271507
O12	O	-0.338880	-0.985020	0.441790
O13	O	-0.437846	-1.115754	0.741169
O14	O	-0.437883	-0.985002	0.570809
O15	O	-0.338815	-1.214841	0.741229
O16	O	-0.568656	-1.214667	0.441784
O17	O	-0.568610	-1.115655	0.570805
C18	C	-0.388380	-0.955755	0.506292
C19	C	-0.388391	-0.866134	0.506291
C20	C	-0.597889	-1.165169	0.506308
C21	C	-0.687510	-1.165210	0.506324
C22	C	-0.388392	-0.793351	0.506300
C23	C	-0.388395	-0.702043	0.506322
C24	C	-0.388401	-0.629266	0.506345
C25	C	-0.388406	-0.537952	0.506365
C26	C	-1.015686	-1.165351	0.506434
C27	C	-0.924377	-1.165309	0.506406
C28	C	-0.851601	-1.165280	0.506378
C29	C	-0.760286	-1.165240	0.506352
C30	C	-0.178089	-1.165344	0.506419
C31	C	-0.088468	-1.165386	0.506448
C32	C	-0.388319	-1.165306	0.780386
C33	C	-0.388285	-1.165332	0.897162
C34	C	-0.388414	-0.375554	0.506400
C35	C	-0.388412	-0.465175	0.506388
C36	C	-0.388419	-1.165231	0.233384
C37	C	-0.388225	-1.165362	0.116608
C38	C	-0.285171	-1.268518	0.897245
C39	C	-0.233601	-1.320123	0.952147
C40	C	-0.233572	-1.320142	1.061869
C41	C	-0.285116	-1.268550	1.116691
C42	C	-0.336685	-1.216946	1.061789
C43	C	-0.336711	-1.216934	0.952065
C44	C	-0.439794	-1.113757	1.061706
C45	C	-0.439829	-1.113740	0.951984
C46	C	-0.491338	-1.062165	1.116528
C47	C	-0.542913	-1.010564	1.061626
C48	C	-0.542941	-1.010547	0.951898
C49	C	-0.491399	-1.062136	0.897082
H50	H	-0.191634	-1.362126	0.907499
O51	O	-0.491426	-1.062274	0.790499
C52	C	-0.512177	-1.139531	0.753875
H53	H	-0.498401	-1.185987	0.817139
H54	H	-0.475825	-1.153881	0.680496
H55	H	-0.579083	-1.141198	0.734374
H56	H	-0.285080	-1.268564	1.206032
O57	O	-0.183452	-1.370345	1.115044
C58	C	-0.137947	-1.415860	1.043136
H59	H	-0.170989	-1.418624	0.964908
H60	H	-0.129351	-1.479396	1.074872
H61	H	-0.076707	-1.386365	1.031482
O62	O	-0.491389	-1.062057	1.223111
C63	C	-0.547955	-1.005473	1.259721
H64	H	-0.559248	-0.958346	1.196469
H65	H	-0.523603	-0.974905	1.333127
H66	H	-0.606752	-1.037412	1.279173
O67	O	-0.285077	-1.268582	0.790662
C68	C	-0.228546	-1.325198	0.754048
H69	H	-0.181420	-1.336526	0.817298
H70	H	-0.197966	-1.300879	0.680640
H71	H	-0.260537	-1.383970	0.734599
O72	O	-0.593089	-0.960492	1.114763
C73	C	-0.673464	-0.978080	1.087960
H74	H	-0.675167	-1.009064	1.008307
H75	H	-0.709611	-0.919869	1.084172
H76	H	-0.700607	-1.019529	1.149725
O77	O	-0.593076	-0.960532	0.898449
C78	C	-0.645194	-1.006402	0.835005
H79	H	-0.616772	-1.067521	0.818607
H80	H	-0.656014	-0.973545	0.757829
H81	H	-0.704937	-1.015232	0.877275
