data_functionalizedCrystal
_audit_creation_method	'MofGen! by Chris Wilmer'
_symmetry_space_group_name_H-M	'P1'
_symmetry_Int_Tables_number	1
_symmetry_cell_setting	triclinic
loop_
_symmetry_equiv_pos_as_xyz
  x,y,z
_cell_length_a	17.699077
_cell_length_b	10.723024
_cell_length_c	16.776229
_cell_angle_alpha	89.994545
_cell_angle_beta	89.993415
_cell_angle_gamma	83.874223
loop_
_atom_site_label
_atom_site_type_symbol
_atom_site_fract_x
_atom_site_fract_y
_atom_site_fract_z
O1	O	1.005076	0.157762	-0.066276
O2	O	1.338410	0.491095	0.267058
O3	O	1.671743	0.824428	0.600391
O4	O	0.784827	0.178299	-0.066279
O5	O	1.118160	0.511632	0.267054
O6	O	1.451494	0.844966	0.600387
O7	O	0.900032	-0.013633	-0.066274
O8	O	1.233365	0.319700	0.267059
O9	O	1.566699	0.653034	0.600392
O10	O	0.889871	0.349694	-0.066280
O11	O	1.223205	0.683027	0.267053
O12	O	1.556538	1.016360	0.600386
O13	O	0.900017	-0.013645	0.066302
O14	O	1.233350	0.319688	0.399635
O15	O	1.566683	0.653022	0.732969
O16	O	0.784811	0.178287	0.066297
O17	O	1.118145	0.511621	0.399631
O18	O	1.451478	0.844954	0.732964
O19	O	1.005061	0.157750	0.066301
O20	O	1.338394	0.491083	0.399634
O21	O	1.671728	0.824417	0.732968
Zn22	Zn	0.894934	0.168017	0.087348
Zn23	Zn	1.228267	0.501350	0.420682
Zn24	Zn	1.561600	0.834683	0.754015
Zn25	Zn	0.894954	0.168032	-0.087327
Zn26	Zn	1.228288	0.501366	0.246007
Zn27	Zn	1.561621	0.834699	0.579340
O28	O	0.889856	0.349682	0.066296
O29	O	1.223189	0.683015	0.399629
O30	O	1.556523	1.016349	0.732963
C31	C	0.756618	0.177559	0.000009
C32	C	1.089951	0.510892	0.333342
C33	C	1.423284	0.844225	0.666675
C34	C	0.672585	0.175355	0.000007
C35	C	1.005919	0.508688	0.333340
C36	C	1.339252	0.842021	0.666674
C37	C	0.633103	0.174310	0.072275
C38	C	0.966436	0.507643	0.405609
C39	C	1.299770	0.840976	0.738942
C40	C	0.554147	0.172219	0.072276
C41	C	0.887481	0.505552	0.405610
C42	C	1.220814	0.838886	0.738943
C43	C	0.514675	0.171182	0.000008
C44	C	0.848008	0.504516	0.333341
C45	C	1.181341	0.837849	0.666675
C46	C	0.554163	0.172223	-0.072266
C47	C	0.887496	0.505557	0.261067
C48	C	1.220829	0.838890	0.594401
C49	C	0.633118	0.174305	-0.072266
C50	C	0.966451	0.507639	0.261067
C51	C	1.299784	0.840972	0.594401
C52	C	0.235747	0.163826	-0.072267
C53	C	0.569080	0.497160	0.261066
C54	C	0.902413	0.830493	0.594399
C55	C	0.156786	0.161748	-0.072262
C56	C	0.490119	0.495081	0.261072
C57	C	0.823452	0.828415	0.594405
C58	C	0.156776	0.161740	0.072275
C59	C	0.490109	0.495073	0.405608
C60	C	0.823443	0.828407	0.738942
C61	C	0.235731	0.163822	0.072275
C62	C	0.569064	0.497155	0.405608
C63	C	0.902398	0.830489	0.738942
C64	C	0.275213	0.164856	0.000002
C65	C	0.608546	0.498190	0.333335
C66	C	0.941879	0.831523	0.666668
C67	C	0.360826	0.167121	0.000001
C68	C	0.694159	0.500454	0.333335
C69	C	1.027492	0.833788	0.666668
C70	C	0.429062	0.168927	0.000007
C71	C	0.762396	0.502260	0.333341
C72	C	1.095729	0.835593	0.666674
C73	C	0.899285	-0.060126	0.000013
C74	C	1.232618	0.273207	0.333346
C75	C	1.565952	0.606541	0.666680
C76	C	0.897073	-0.198642	0.000010
C77	C	1.230406	0.134691	0.333343
C78	C	1.563739	0.468025	0.666677
C79	C	0.961535	-0.274732	0.000010
C80	C	1.294869	0.058601	0.333343
C81	C	1.628202	0.391934	0.666677
C82	C	0.959250	-0.417896	0.000007
C83	C	1.292584	-0.084563	0.333340
C84	C	1.625917	0.248770	0.666674
C85	C	1.033270	0.158490	0.000011
C86	C	1.366604	0.491824	0.333345
C87	C	1.699937	0.825157	0.666678
C88	C	1.117303	0.160694	0.000008
C89	C	1.450636	0.494028	0.333341
C90	C	1.783969	0.827361	0.666674
C91	C	0.890603	0.396175	0.000007
C92	C	1.223936	0.729508	0.333340
C93	C	1.557270	1.062842	0.666674
C94	C	0.892815	0.534691	0.000005
C95	C	1.226149	0.868024	0.333338
C96	C	1.559482	1.201358	0.666671
N97	N	0.894925	0.168005	0.206560
N98	N	1.228259	0.501339	0.539893
N99	N	1.561592	0.834672	0.873226
N100	N	0.894969	0.168034	-0.206538
N101	N	1.228302	0.501367	0.126795
N102	N	1.561635	0.834700	0.460129
C103	C	0.945954	0.083053	0.248279
C104	C	1.279287	0.416386	0.581612
C105	C	1.612621	0.749719	0.914946
C106	C	0.945958	0.083052	0.331731
C107	C	1.279292	0.416385	0.665064
C108	C	1.612625	0.749718	0.998398
C109	C	0.894937	0.168010	0.373463
C110	C	1.228270	0.501344	0.706796
C111	C	1.561603	0.834677	1.040129
C112	C	0.843903	0.252967	0.331737
C113	C	1.177236	0.586300	0.665071
C114	C	1.510569	0.919634	0.998404
C115	C	0.843895	0.252961	0.248287
C116	C	1.177229	0.586295	0.581620
C117	C	1.510562	0.919628	0.914953
C118	C	0.843930	0.252992	0.668285
C119	C	1.177263	0.586325	1.001618
C120	C	1.510597	0.919658	1.334951
C121	C	0.843943	0.252993	0.751741
C122	C	1.177276	0.586327	1.085075
C123	C	1.510610	0.919660	1.418408
C124	C	0.945993	0.083082	0.751729
C125	C	1.279326	0.416415	1.085062
C126	C	1.612660	0.749749	1.418396
C127	C	0.945986	0.083076	0.668278
C128	C	1.279319	0.416409	1.001612
C129	C	1.612652	0.749743	1.334945
C130	C	0.894949	0.168028	0.626561
C131	C	1.228283	0.501361	0.959894
C132	C	1.561616	0.834695	1.293227
C133	C	0.894944	0.168026	0.536072
C134	C	1.228278	0.501360	0.869405
C135	C	1.561611	0.834693	1.202739
C136	C	0.894945	0.168019	0.463949
C137	C	1.228278	0.501352	0.797283
C138	C	1.561611	0.834685	1.130616
H139	H	0.267865	0.164672	0.131123
H140	H	0.601198	0.498006	0.464457
H141	H	0.934532	0.831339	0.797790
Cl142	Cl	1.049359	-0.211683	0.000006
Cl143	Cl	1.382692	0.121651	0.333340
Cl144	Cl	1.716026	0.454984	0.666673
Cl145	Cl	1.010152	-0.023722	0.804179
Cl146	Cl	1.343485	0.309611	1.137512
Cl147	Cl	1.676819	0.642945	1.470845
Cl148	Cl	0.682717	0.175621	0.163133
Cl149	Cl	1.016051	0.508955	0.496466
Cl150	Cl	1.349384	0.842288	0.829799
H151	H	0.522019	0.171370	-0.131108
H152	H	0.855352	0.504704	0.202225
H153	H	1.188685	0.838037	0.535559
H154	H	0.665263	0.175158	-0.131114
H155	H	0.998596	0.508492	0.202219
H156	H	1.331930	0.841825	0.535552
Cl157	Cl	1.010109	-0.023749	0.384180
Cl158	Cl	1.343442	0.309584	0.717513
Cl159	Cl	1.676776	0.642917	1.050846
H160	H	0.802392	0.322179	0.785718
H161	H	1.135726	0.655513	1.119051
H162	H	1.469059	0.988846	1.452384
Cl163	Cl	1.044457	-0.518833	0.000013
Cl164	Cl	1.377790	-0.185500	0.333347
Cl165	Cl	1.711124	0.147833	0.666680
Cl166	Cl	0.779775	0.359790	0.615845
Cl167	Cl	1.113108	0.693123	0.949178
Cl168	Cl	1.446442	1.026456	1.282512
Cl169	Cl	0.779739	0.359760	0.195840
Cl170	Cl	1.113072	0.693093	0.529174
Cl171	Cl	1.446406	1.026427	0.862507
H172	H	0.124621	0.160892	0.131124
H173	H	0.457954	0.494225	0.464457
H174	H	0.791288	0.827559	0.797790
H175	H	0.837627	-0.399936	0.000010
H176	H	1.170960	-0.066602	0.333343
H177	H	1.504294	0.266731	0.666677
Cl178	Cl	0.285370	0.165129	-0.163126
Cl179	Cl	0.618704	0.498463	0.170208
Cl180	Cl	0.952037	0.831796	0.503541
Cl181	Cl	1.010103	-0.023754	0.195825
Cl182	Cl	1.343436	0.309580	0.529159
Cl183	Cl	1.676770	0.642913	0.862492
H184	H	0.124649	0.160903	-0.131115
H185	H	0.457983	0.494236	0.202219
H186	H	0.791316	0.827569	0.535552
Cl187	Cl	0.809249	-0.261692	0.000001
Cl188	Cl	1.142582	0.071642	0.333334
Cl189	Cl	1.475916	0.404975	0.666667
H190	H	0.987535	0.013899	0.634303
H191	H	1.320868	0.347232	0.967636
H192	H	1.654201	0.680566	1.300970
Cl193	Cl	0.779756	0.359769	0.384198
Cl194	Cl	1.113090	0.693102	0.717531
Cl195	Cl	1.446423	1.026435	1.050865
H196	H	0.522006	0.171347	0.131124
H197	H	0.855339	0.504681	0.464458
H198	H	1.188672	0.838014	0.797791
