data_functionalizedCrystal
_audit_creation_method	'MofGen! by Chris Wilmer'
_symmetry_space_group_name_H-M	'P1'
_symmetry_Int_Tables_number	1
_symmetry_cell_setting	triclinic
loop_
_symmetry_equiv_pos_as_xyz
  x,y,z
_cell_length_a	19.121215
_cell_length_b	19.121063
_cell_length_c	16.625539
_cell_angle_alpha	87.591339
_cell_angle_beta	92.466418
_cell_angle_gamma	95.002544
loop_
_atom_site_label
_atom_site_type_symbol
_atom_site_fract_x
_atom_site_fract_y
_atom_site_fract_z
Zn1	Zn	1.063758	-0.234338	0.519601
Zn2	Zn	1.563758	0.265662	1.019601
Zn3	Zn	1.058643	-0.352013	0.390270
Zn4	Zn	1.558643	0.147987	0.890270
Zn5	Zn	0.946087	-0.239371	0.379250
Zn6	Zn	1.446087	0.260629	0.879250
Zn7	Zn	0.941033	-0.356976	0.519527
Zn8	Zn	1.441033	0.143024	1.019527
O9	O	1.002380	-0.295674	0.452162
O10	O	1.502380	0.204326	0.952162
O11	O	1.161545	-0.245764	0.507088
O12	O	1.661545	0.254236	1.007088
O13	O	1.043686	-0.337100	0.275976
O14	O	1.543686	0.162900	0.775976
O15	O	0.965951	-0.140237	0.393287
O16	O	1.465951	0.359763	0.893287
O17	O	1.157788	-0.332220	0.412069
O18	O	1.657788	0.167780	0.912069
O19	O	1.052404	-0.136540	0.496403
O20	O	1.552404	0.363460	0.996403
O21	O	0.960992	-0.254342	0.267879
O22	O	1.460992	0.245658	0.767879
O23	O	0.846950	-0.259155	0.393215
O24	O	1.346950	0.240845	0.893215
O25	O	0.957339	-0.340679	0.632369
O26	O	1.457339	0.159321	1.132369
O27	O	0.843237	-0.345559	0.496276
O28	O	1.343237	0.154441	0.996276
O29	O	1.047504	-0.250577	0.632424
O30	O	1.547504	0.249423	1.132424
O31	O	1.038786	-0.451137	0.411997
O32	O	1.538786	0.048863	0.911997
O33	O	0.952379	-0.454783	0.506962
O34	O	1.452379	0.045217	1.006962
C35	C	0.819563	-0.303442	0.443542
C36	C	1.319563	0.196558	0.943542
C37	C	0.741352	-0.306782	0.439874
C38	C	1.241352	0.193218	0.939874
C39	C	0.298908	-0.327926	0.416670
C40	C	0.798908	0.172074	0.916670
C41	C	0.372396	-0.324784	0.420110
C42	C	0.872396	0.175216	0.920110
C43	C	0.411095	-0.278274	0.471389
C44	C	0.911095	0.221726	0.971389
C45	C	0.376304	-0.234898	0.519225
C46	C	0.876304	0.265102	1.019225
C47	C	0.302817	-0.238037	0.515780
C48	C	0.802817	0.261963	1.015780
C49	C	0.633074	-0.266545	0.484265
C50	C	1.133074	0.233455	0.984265
C51	C	0.706565	-0.263411	0.487708
C52	C	1.206565	0.236589	0.987708
C53	C	0.702652	-0.353296	0.388592
C54	C	1.202652	0.146704	0.888592
C55	C	0.629165	-0.356434	0.385155
C56	C	1.129165	0.143566	0.885155
C57	C	0.594380	-0.313055	0.432988
C58	C	1.094380	0.186945	0.932988
C59	C	0.486211	-0.275062	0.474908
C60	C	0.986211	0.224938	0.974908
C61	C	0.519265	-0.316263	0.429464
C62	C	1.019265	0.183737	0.929464
C63	C	0.994498	-0.478490	0.460686
C64	C	1.494498	0.021510	0.960686
C65	C	0.991191	-0.556697	0.464362
C66	C	1.491191	-0.056697	0.964362
C67	C	1.034659	-0.591516	0.416691
C68	C	1.534659	-0.091516	0.916691
C69	C	1.031553	-0.664999	0.420153
C70	C	1.531553	-0.164999	0.920153
C71	C	0.984973	-0.703663	0.471284
C72	C	1.484973	-0.203663	0.971284
C73	C	0.941503	-0.668839	0.518961
C74	C	1.441503	-0.168839	1.018961
C75	C	0.944613	-0.595357	0.515502
C76	C	1.444613	-0.095357	1.015502
C77	C	0.973332	-0.925628	0.484203
C78	C	1.473332	-0.425628	0.984203
C79	C	0.970223	-0.999115	0.487656
C80	C	1.470223	-0.499115	0.987656
C81	C	1.060275	-0.995270	0.388850
C82	C	1.560275	-0.495270	0.888850
C83	C	1.063378	-0.921787	0.385392
C84	C	1.563378	-0.421787	0.885392
C85	C	1.019910	-0.886969	0.433072
C86	C	1.519910	-0.386969	0.933072
C87	C	0.981795	-0.778775	0.474823
C88	C	1.481795	-0.278775	0.974823
C89	C	1.023092	-0.811858	0.429537
C90	C	1.523092	-0.311858	0.929537
C91	C	1.185911	-0.287877	0.460816
C92	C	1.685911	0.212123	0.960816
C93	C	1.264122	-0.284554	0.464504
C94	C	1.764122	0.215446	0.964504
C95	C	1.002428	-0.295620	0.662471
C96	C	1.502428	0.204380	1.162471
C97	C	1.002449	-0.295597	0.752092
C98	C	1.502449	0.204403	1.252092
C99	C	1.010312	-0.112144	0.443624
C100	C	1.510312	0.387856	0.943624
C101	C	1.013692	-0.033934	0.439985
C102	C	1.513692	0.466066	0.939985
C103	C	1.002375	-0.295676	0.242671
C104	C	1.502375	0.204324	0.742671
C105	C	1.002499	-0.295495	0.153048
C106	C	1.502499	0.204505	0.653048
C107	C	1.002484	-0.295517	1.080265
C108	C	1.502484	0.204483	1.580265
C109	C	1.002472	-0.295541	0.988958
C110	C	1.502472	0.204459	1.488958
C111	C	1.002467	-0.295557	0.916182
C112	C	1.502467	0.204443	1.416182
C113	C	1.002454	-0.295581	0.824868
C114	C	1.502454	0.204419	1.324868
H115	H	1.072586	-0.560040	0.375051
H116	H	1.572586	-0.060040	0.875051
N117	N	1.104668	-1.030846	0.340154
N118	N	1.604668	-0.530846	0.840154
N119	N	1.101886	-1.096455	0.343245
N120	N	1.601886	-0.596455	0.843245
H121	H	1.133241	-1.121582	0.308852
H122	H	1.633241	-0.621582	0.808852
H123	H	0.274495	-0.202717	0.554729
H124	H	0.774495	0.297283	1.054729
H125	H	1.066949	-0.693345	0.381334
H126	H	1.566949	-0.193345	0.881334
H127	H	1.101307	-0.890308	0.343758
H128	H	1.601307	-0.390308	0.843758
H129	H	0.604761	-0.231226	0.523218
H130	H	1.104761	0.268774	1.023218
H131	H	0.937937	-0.897286	0.523024
H132	H	1.437937	-0.397286	1.023024
H133	H	0.400716	-0.360100	0.381157
H134	H	0.900716	0.139900	0.881157
H135	H	0.487753	-0.354130	0.387710
H136	H	0.987753	0.145870	0.887710
H137	H	0.738072	-0.225532	0.529464
H138	H	1.238072	0.274468	1.029464
H139	H	0.517728	-0.237195	0.516662
H140	H	1.017728	0.262805	1.016662
N141	N	0.922631	-1.038601	0.539886
N142	N	1.422631	-0.538601	1.039886
N143	N	0.883822	-1.007507	0.582449
N144	N	1.383822	-0.507507	1.082449
H145	H	0.850209	-1.035393	0.619331
H146	H	1.350209	-0.535393	1.119331
H147	H	0.903580	-0.700325	0.560596
H148	H	1.403580	-0.200325	1.060596
N149	N	0.900211	-0.559799	0.564208
N150	N	1.400211	-0.059799	1.064208
N151	N	0.858626	-0.594327	0.609859
N152	N	1.358626	-0.094327	1.109859
H153	H	0.827267	-0.569215	0.644263
H154	H	1.327267	-0.069215	1.144263
H155	H	0.407819	-0.197025	0.560974
H156	H	0.907819	0.302975	1.060974
N157	N	0.934201	-0.818274	0.527030
N158	N	1.434201	-0.318274	1.027030
N159	N	0.869620	-0.812894	0.518167
N160	N	1.369620	-0.312894	1.018167
H161	H	0.836006	-0.840793	0.555037
H162	H	1.336006	-0.340793	1.055037
H163	H	0.267404	-0.365803	0.374917
H164	H	0.767404	0.134197	0.874917
N165	N	1.070659	-0.772369	0.377296
N166	N	1.570659	-0.272369	0.877296
N167	N	1.065670	-0.780819	0.303059
N168	N	1.565670	-0.280819	0.803059
H169	H	1.099261	-0.752924	0.266160
H170	H	1.599261	-0.252924	0.766160
N171	N	0.589647	-0.403952	0.332776
N172	N	1.089647	0.096048	0.832776
N173	N	0.620716	-0.442676	0.290072
N174	N	1.120716	0.057324	0.790072
H175	H	0.592807	-0.476240	0.253082
H176	H	1.092807	0.023760	0.753082
N177	N	0.738196	-0.397599	0.339741
N178	N	1.238196	0.102401	0.839741
N179	N	0.803808	-0.394794	0.342822
N180	N	1.303808	0.105206	0.842822
H181	H	0.828912	-0.426084	0.308318
H182	H	1.328912	0.073916	0.808318
