data_functionalizedCrystal
_audit_creation_method	'MofGen! by Chris Wilmer'
_symmetry_space_group_name_H-M	'P1'
_symmetry_Int_Tables_number	1
_symmetry_cell_setting	triclinic
loop_
_symmetry_equiv_pos_as_xyz
  x,y,z
_cell_length_a	10.489716
_cell_length_b	10.489741
_cell_length_c	9.730217
_cell_angle_alpha	89.997012
_cell_angle_beta	89.998958
_cell_angle_gamma	84.534155
loop_
_atom_site_label
_atom_site_type_symbol
_atom_site_fract_x
_atom_site_fract_y
_atom_site_fract_z
O1	O	1.694066	0.179817	-0.114278
O2	O	1.322867	0.196742	-0.114283
O3	O	1.516913	0.002681	-0.114272
O4	O	1.500020	0.373878	-0.114289
O5	O	1.516907	0.002679	0.114308
O6	O	1.322861	0.196740	0.114297
O7	O	1.694060	0.179815	0.114302
Zn8	Zn	1.508460	0.188277	0.150591
Zn9	Zn	1.508467	0.188280	-0.150573
O10	O	1.500014	0.373876	0.114291
C11	C	1.275332	0.195470	0.000006
C12	C	1.133701	0.191665	0.000004
C13	C	1.036027	0.310669	-0.000004
C14	C	0.958678	0.247784	0.112707
C15	C	0.958690	0.247758	-0.112655
C16	C	1.058217	0.128829	0.112808
C17	C	1.058235	0.128820	-0.112655
C18	C	0.980935	0.065848	0.000084
C19	C	1.515634	-0.044852	0.000017
C20	C	1.511817	-0.186481	0.000014
C21	C	1.388351	-0.254610	0.000003
C22	C	1.446672	-0.346739	0.112705
C23	C	1.446707	-0.346711	-0.112657
C24	C	1.570189	-0.276744	0.112810
C25	C	1.570207	-0.276707	-0.112653
C26	C	1.628618	-0.368808	0.000077
C27	C	1.741596	0.181087	0.000009
C28	C	1.883227	0.184892	0.000002
C29	C	1.501293	0.421409	-0.000001
C30	C	1.505110	0.563038	-0.000008
N31	N	1.508464	0.188275	0.356128
N32	N	1.508474	0.188272	-0.356109
C33	C	1.680362	0.016484	0.356128
C34	C	1.766320	-0.069407	0.428068
C35	C	1.766333	-0.069408	0.571948
C36	C	1.680377	0.016489	0.643891
C37	C	1.594419	0.102381	0.571951
C38	C	1.594417	0.102375	0.428068
C39	C	1.422516	0.274164	0.571951
C40	C	1.422507	0.274173	0.428071
C41	C	1.336559	0.360061	0.643894
C42	C	1.250605	0.445961	0.571954
C43	C	1.250596	0.445959	0.428065
C44	C	1.336549	0.360064	0.356131
H45	H	1.101733	0.078623	-0.207942
C46	C	0.899969	0.315644	-0.241374
H47	H	0.918474	0.402556	-0.241232
H48	H	0.809827	0.312034	-0.240901
H49	H	0.935407	0.274236	-0.321404
H50	H	1.286838	-0.204950	0.000115
C51	C	1.640696	-0.235116	0.241675
H52	H	1.667731	-0.308353	0.295422
H53	H	1.584602	-0.177865	0.294358
H54	H	1.713271	-0.193464	0.214739
C55	C	1.680370	0.016476	0.802154
H56	H	1.616863	0.079925	0.834697
H57	H	1.762050	0.034722	0.834713
H58	H	1.662162	-0.065234	0.834692
C59	C	1.376119	-0.388550	-0.241376
H60	H	1.290767	-0.349055	-0.241228
H61	H	1.374871	-0.478979	-0.240907
H62	H	1.419158	-0.363395	-0.321406
H63	H	1.394428	-0.377746	0.207986
C64	C	1.156067	0.540436	0.651090
H65	H	1.168387	0.528134	0.747082
H66	H	1.070810	0.525758	0.627516
H67	H	1.170701	0.625712	0.627512
C68	C	0.899923	0.315643	0.241419
H69	H	0.918400	0.402564	0.241279
H70	H	0.935335	0.274230	0.321451
H71	H	0.809775	0.312025	0.240912
C72	C	1.765867	-0.435602	0.000162
H73	H	1.809509	-0.411653	0.080294
H74	H	1.810059	-0.410566	-0.079137
H75	H	1.762701	-0.525808	-0.000588
H76	H	1.101531	0.078621	0.208191
C77	C	1.156043	0.540444	0.348942
H78	H	1.104864	0.591601	0.412400
H79	H	1.102529	0.494041	0.292817
H80	H	1.202411	0.594003	0.292813
C81	C	1.336543	0.360057	0.197868
H82	H	1.400037	0.296594	0.165330
H83	H	1.354729	0.441757	0.165303
H84	H	1.254855	0.341786	0.165331
C85	C	1.860881	-0.163888	0.651085
H86	H	1.912076	-0.215042	0.587638
H87	H	1.814518	-0.217431	0.707224
H88	H	1.914400	-0.117469	0.707201
H89	H	1.060696	0.414185	0.000096
H90	H	1.622406	-0.245666	-0.207939
H91	H	0.956505	-0.037744	0.000153
C92	C	1.680357	0.016496	0.197865
H93	H	1.616860	0.079959	0.165324
H94	H	1.662170	-0.065204	0.165313
H95	H	1.762043	0.034768	0.165319
H96	H	1.336568	0.360052	0.761048
C97	C	1.860865	-0.163888	0.348930
H98	H	1.848558	-0.151583	0.252936
H99	H	1.846248	-0.249158	0.372518
H100	H	1.946125	-0.149192	0.372501
