data_functionalizedCrystal
_audit_creation_method	'MofGen! by Chris Wilmer'
_symmetry_space_group_name_H-M	'P1'
_symmetry_Int_Tables_number	1
_symmetry_cell_setting	triclinic
loop_
_symmetry_equiv_pos_as_xyz
  x,y,z
_cell_length_a	15.538191
_cell_length_b	10.654562
_cell_length_c	9.130313
_cell_angle_alpha	89.996930
_cell_angle_beta	90.002806
_cell_angle_gamma	65.881099
loop_
_atom_site_label
_atom_site_type_symbol
_atom_site_fract_x
_atom_site_fract_y
_atom_site_fract_z
O1	O	0.131966	1.606134	-0.121876
O2	O	0.144521	1.234788	-0.121856
O3	O	0.001589	1.492747	-0.121877
O4	O	0.274898	1.348176	-0.121856
O5	O	0.001593	1.492743	0.121722
O6	O	0.144525	1.234784	0.121742
O7	O	0.131970	1.606130	0.121722
Cu8	Cu	0.138248	1.420457	0.143975
Cu9	Cu	0.138243	1.420462	-0.144109
O10	O	0.274902	1.348171	0.121743
C11	C	0.143599	1.188421	-0.000055
C12	C	0.140833	1.050271	-0.000048
C13	C	0.139546	0.985341	0.132726
C14	C	0.136954	0.855530	0.132702
C15	C	0.136943	0.855588	-0.132883
C16	C	0.139528	0.985401	-0.132857
C17	C	0.139556	0.985304	0.286060
C18	C	0.136965	0.855493	0.286035
C19	C	-0.033405	1.507870	-0.000084
C20	C	-0.137683	1.552926	-0.000101
C21	C	-0.428413	1.105314	-0.000045
C22	C	-0.526401	1.147682	-0.000044
C23	C	-0.547279	1.385991	-0.000057
C24	C	-0.449291	1.343643	-0.000066
C25	C	-0.389865	1.203303	-0.000058
C26	C	-0.410743	1.441632	-0.000078
C27	C	-0.312764	1.399287	-0.000079
C28	C	-0.253332	1.258953	-0.000067
C29	C	-0.291886	1.160958	-0.000058
C30	C	-0.470170	1.581971	-0.000076
C31	C	-0.431622	1.679960	-0.000089
C32	C	-0.333642	1.637616	-0.000100
C33	C	-0.274210	1.497282	-0.000087
C34	C	-0.295088	1.735611	-0.000108
C35	C	-0.197108	1.693266	-0.000108
C36	C	-0.176231	1.454937	-0.000088
C37	C	0.309897	1.333048	-0.000054
C38	C	0.414174	1.287992	-0.000046
C39	C	0.132892	1.652498	-0.000083
C40	C	0.135658	1.790647	-0.000099
N41	N	0.138251	1.420463	0.346598
N42	N	0.138233	1.420469	-0.346732
C43	C	0.074982	1.534698	0.423240
C44	C	0.074971	1.534700	0.576577
C45	C	0.201505	1.306223	0.576615
C46	C	0.201511	1.306218	0.423281
C47	C	0.001931	1.666611	0.423220
C48	C	0.001920	1.666612	0.576557
H49	H	-0.127843	1.340658	-0.000092
H50	H	0.140562	1.038271	-0.240975
H51	H	0.135880	0.802755	-0.241012
H52	H	0.253010	1.213207	0.639067
H53	H	-0.070258	1.678914	0.381595
H54	H	0.074651	1.061905	0.344938
H55	H	0.018015	1.755599	0.618169
H56	H	-0.380025	0.991035	-0.000049
H57	H	-0.066299	1.667990	0.624100
H58	H	0.208053	0.982857	0.333642
H59	H	0.068470	0.857924	0.333609
H60	H	-0.557781	1.067877	-0.000012
H61	H	0.201874	0.778863	0.344905
H62	H	-0.173552	1.224478	-0.000059
H63	H	0.253021	1.213192	0.360880
H64	H	-0.243498	1.046679	-0.000063
H65	H	0.024808	1.747099	0.375658
H66	H	-0.595676	1.500256	-0.000058
H67	H	-0.549951	1.616444	-0.000089
H68	H	-0.480020	1.794225	-0.000089
H69	H	-0.343486	1.849876	-0.000100
H70	H	-0.165723	1.773058	-0.000117
