data_functionalizedCrystal
_audit_creation_method	'MofGen! by Chris Wilmer'
_symmetry_space_group_name_H-M	'P1'
_symmetry_Int_Tables_number	1
_symmetry_cell_setting	triclinic
loop_
_symmetry_equiv_pos_as_xyz
  x,y,z
_cell_length_a	11.792241
_cell_length_b	15.995292
_cell_length_c	10.268362
_cell_angle_alpha	89.997908
_cell_angle_beta	89.999626
_cell_angle_gamma	83.831016
loop_
_atom_site_label
_atom_site_type_symbol
_atom_site_fract_x
_atom_site_fract_y
_atom_site_fract_z
O1	O	1.505919	0.114766	-0.108164
O2	O	1.175476	0.126594	-0.108193
O3	O	1.349765	-0.001170	-0.108180
O4	O	1.331630	0.242530	-0.108177
O5	O	1.349750	-0.001175	0.108421
O6	O	1.175461	0.126589	0.108407
O7	O	1.505904	0.114761	0.108437
Cu8	Cu	1.340681	0.120674	0.128199
Cu9	Cu	1.340699	0.120681	-0.127956
O10	O	1.331615	0.242525	0.108423
C11	C	1.133184	0.125849	0.000103
C12	C	1.007189	0.123625	0.000092
C13	C	1.349019	-0.032371	0.000117
C14	C	1.346806	-0.125334	0.000107
C15	C	0.776512	0.119536	0.000129
C16	C	0.904878	0.121808	0.000108
C17	C	1.338672	-0.463110	0.000118
C18	C	1.464469	-0.439226	0.000614
C19	C	1.466860	-0.342540	0.000121
C20	C	1.342708	-0.295535	0.000114
C21	C	1.279824	-0.324919	-0.123577
C22	C	1.278310	-0.421716	-0.123676
C23	C	1.275724	-0.421591	0.122639
C24	C	1.280386	-0.325077	0.124269
C25	C	1.344983	-0.200829	0.000107
C26	C	1.336393	-0.557816	0.000117
C27	C	1.548196	0.115507	0.000137
C28	C	1.674191	0.117730	0.000140
C29	C	1.332361	0.273726	0.000123
C30	C	1.334574	0.366689	0.000125
N31	N	1.340677	0.120669	0.308365
N32	N	1.340712	0.120679	-0.308122
C33	C	1.340693	0.120679	0.574036
C34	C	1.340680	0.120676	0.426198
H35	H	1.516109	-0.323293	0.088786
Br36	Br	1.127553	-0.272495	-0.131264
Br37	Br	1.549448	-0.311478	-0.147910
H38	H	1.512951	-0.467005	0.089318
H39	H	1.512694	-0.468023	-0.087585
Br40	Br	1.352626	-0.291155	-0.276997
Br41	Br	1.356693	-0.293785	0.276791
H42	H	1.321873	-0.448332	-0.216133
H43	H	1.315333	-0.449502	0.216396
H44	H	1.186075	-0.436685	-0.129286
H45	H	1.183128	-0.436002	0.123467
Br46	Br	1.129343	-0.270815	0.136716
