data_functionalizedCrystal
_audit_creation_method	'MofGen! by Chris Wilmer'
_symmetry_space_group_name_H-M	'P1'
_symmetry_Int_Tables_number	1
_symmetry_cell_setting	triclinic
loop_
_symmetry_equiv_pos_as_xyz
  x,y,z
_cell_length_a	14.853567
_cell_length_b	23.532407
_cell_length_c	13.330367
_cell_angle_alpha	89.990692
_cell_angle_beta	89.995418
_cell_angle_gamma	83.241804
loop_
_atom_site_label
_atom_site_type_symbol
_atom_site_fract_x
_atom_site_fract_y
_atom_site_fract_z
O1	O	1.195556	0.074353	-0.083365
O2	O	0.932999	0.083210	-0.083383
O3	O	1.072195	-0.004116	-0.083355
O4	O	1.056360	0.161678	-0.083393
O5	O	1.072175	-0.004118	0.083492
O6	O	0.932979	0.083208	0.083464
O7	O	1.195536	0.074351	0.083482
Cu8	Cu	1.064255	0.078779	0.098707
Cu9	Cu	1.064279	0.078782	-0.098609
O10	O	1.056340	0.161677	0.083454
C11	C	0.899405	0.082808	0.000038
C12	C	0.799334	0.081605	0.000032
C13	C	0.387423	0.024648	0.000067
C14	C	0.365008	0.128393	0.000043
C15	C	0.459029	0.129524	0.000039
C16	C	0.517252	0.078216	0.000048
C17	C	0.481454	0.025777	0.000061
C18	C	0.494835	0.181961	0.000016
C19	C	0.588861	0.183094	0.000012
C20	C	0.647086	0.131786	0.000028
C21	C	0.611283	0.079345	0.000042
C22	C	0.669506	0.028037	0.000051
C23	C	0.633704	-0.024404	0.000072
C24	C	0.539679	-0.025531	0.000077
C25	C	0.741111	0.132913	0.000023
C26	C	0.763536	0.029166	0.000044
C27	C	1.071782	-0.025335	0.000071
C28	C	1.070569	-0.088557	0.000078
C29	C	1.145338	-0.487334	0.000029
C30	C	1.144212	-0.546739	0.000021
O31	O	1.213524	-0.583181	-0.000011
N32	N	1.061460	-0.569726	0.000016
C33	C	0.979829	-0.533305	0.000008
O34	O	0.909339	-0.558312	0.000002
C35	C	0.980957	-0.473901	0.000009
C36	C	1.063714	-0.450917	0.000024
C37	C	1.228089	-0.464349	0.000043
C38	C	1.229214	-0.404948	0.000052
C39	C	1.147590	-0.368531	0.000048
C40	C	1.064839	-0.391516	0.000034
C41	C	0.899327	-0.437481	-0.000006
C42	C	0.900461	-0.378073	-0.000006
C43	C	0.983218	-0.355089	0.000009
C44	C	0.984341	-0.295698	0.000039
N45	N	1.067092	-0.272711	0.000044
C46	C	1.148717	-0.309128	0.000048
C47	C	0.977469	-0.658058	0.000005
C48	C	0.976340	-0.717461	0.000012
C49	C	1.140723	-0.730890	0.000023
C50	C	1.141851	-0.671486	0.000023
C51	C	1.060220	-0.635070	0.000011
C52	C	1.151075	-0.184380	0.000069
C53	C	1.152194	-0.124974	0.000083
C54	C	0.987811	-0.111549	0.000067
C55	C	0.986692	-0.170951	0.000058
C56	C	1.068331	-0.207365	0.000056
O57	O	0.915065	-0.259221	0.000067
O58	O	1.219196	-0.284112	0.000041
C59	C	1.229130	0.074753	0.000058
C60	C	1.329200	0.075956	0.000058
C61	C	1.056753	0.182895	0.000026
C62	C	1.057966	0.246118	0.000011
N63	N	1.064245	0.078777	0.237489
N64	N	1.064296	0.078779	-0.237390
C65	C	1.002641	0.117434	0.710099
C66	C	1.125942	0.040124	0.710092
C67	C	1.125932	0.040123	0.605074
C68	C	1.064276	0.078778	0.552563
C69	C	1.002631	0.117435	0.605071
C70	C	1.187582	0.001470	0.552558
C71	C	1.187575	0.001467	0.447533
C72	C	1.125914	0.040120	0.395021
C73	C	1.064266	0.078778	0.447535
C74	C	1.002610	0.117434	0.395025
C75	C	0.940957	0.156089	0.447537
C76	C	0.940970	0.156088	0.552559
C77	C	1.125901	0.040122	0.289999
C78	C	1.002600	0.117434	0.289997
H79	H	0.770257	0.175610	0.000007
C80	C	1.179753	-0.058404	0.742449
C81	C	1.193703	-0.002367	0.767813
H82	H	1.221589	-0.084638	0.778085
H83	H	1.119649	-0.064648	0.759674
H84	H	1.188576	-0.063932	0.672386
H85	H	1.184873	0.003162	0.837876
H86	H	1.253821	0.003879	0.750595
C87	C	0.646436	-0.127070	0.000091
C88	C	0.697708	-0.080802	0.000074
H89	H	0.685954	-0.161886	0.000084
H90	H	0.609305	-0.125358	0.058278
H91	H	0.609288	-0.125350	-0.058089
H92	H	0.734851	-0.082519	0.058258
H93	H	0.734855	-0.082515	-0.058119
H94	H	1.237785	-0.029999	0.595316
H95	H	0.510520	-0.068226	0.000118
H96	H	1.296604	-0.386241	0.000061
C97	C	0.557249	0.285531	-0.000002
C98	C	0.628210	0.240736	0.000002
H99	H	0.581545	0.321115	0.000001
H100	H	0.521050	0.282935	-0.058183
H101	H	0.521036	0.282925	0.058184
H102	H	0.664420	0.243339	-0.058188
H103	H	0.664425	0.243333	0.058189
C104	C	0.882281	-0.029751	-0.085721
C105	C	0.827535	-0.027233	0.000053
H106	H	0.921794	-0.064568	-0.085710
H107	H	0.845132	-0.028038	-0.143888
H108	H	0.917056	0.001642	-0.085724
H109	H	0.792754	-0.058625	0.000053
H110	H	0.864688	-0.028951	0.058236
H111	H	1.219587	-0.106264	0.000098
H112	H	0.919305	-0.189665	0.000074
C113	C	1.313675	-0.191672	0.000095
C114	C	1.240814	-0.224402	0.000076
H115	H	1.369074	-0.216381	0.000110
H116	H	1.310701	-0.168219	-0.058083
H117	H	1.310670	-0.168227	0.058284
H118	H	1.243815	-0.247844	-0.058117
H119	H	1.243789	-0.247865	0.058260
H120	H	0.358269	-0.018049	0.000088
C121	C	0.818196	0.168304	0.670703
C122	C	0.873213	0.198577	0.610288
H123	H	0.776373	0.194536	0.706350
H124	H	0.785974	0.144568	0.629749
H125	H	0.854931	0.145282	0.716995
H126	H	0.836478	0.221595	0.563990
H127	H	0.905437	0.222323	0.651245
H128	H	1.209239	-0.652777	0.000035
H129	H	1.237775	-0.030008	0.404784
H130	H	0.317597	0.170165	0.000027
C131	C	0.835894	-0.724282	-0.085770
C132	C	0.885372	-0.742721	0.000004
H133	H	0.779735	-0.739879	-0.085780
H134	H	0.824893	-0.683696	-0.085757
H135	H	0.869496	-0.736776	-0.143944
H136	H	0.851773	-0.730224	0.058179
H137	H	0.896371	-0.783316	-0.000000
C138	C	1.280484	-0.760657	0.085792
C139	C	1.230448	-0.770929	0.000019
H140	H	1.335869	-0.785379	0.085791
H141	H	1.293008	-0.721995	0.085790
H142	H	1.246514	-0.767639	0.143967
H143	H	1.264416	-0.763943	-0.058156
H144	H	1.217927	-0.809600	0.000012
H145	H	0.952441	0.148906	0.752857
H146	H	0.890760	0.187565	0.404771
C147	C	0.376078	0.240867	-0.085752
C148	C	0.430831	0.238354	0.000008
H149	H	0.336558	0.275681	-0.085750
H150	H	0.413221	0.239158	-0.143930
H151	H	0.341310	0.209470	-0.085727
H152	H	0.465604	0.269749	-0.000021
H153	H	0.393684	0.240068	0.058200
H154	H	1.176102	0.008652	0.247249
C155	C	0.848070	-0.081794	-0.085725
C156	C	0.898092	-0.071512	0.000055
H157	H	0.792680	-0.057078	-0.085734
H158	H	0.882042	-0.074815	-0.143889
H159	H	0.835553	-0.120462	-0.085717
H160	H	0.910615	-0.032845	0.000043
H161	H	0.864113	-0.078487	0.058233
H162	H	0.833986	-0.348425	-0.000018
H163	H	1.294561	-0.493994	0.000043
H164	H	0.910991	-0.628410	0.000004
C165	C	0.736962	-0.418214	-0.000047
C166	C	0.808356	-0.462734	-0.000032
H167	H	0.680798	-0.433804	-0.000070
H168	H	0.740813	-0.395333	0.058138
H169	H	0.740850	-0.395317	-0.058229
H170	H	0.804472	-0.485628	0.058155
H171	H	0.804503	-0.485624	-0.058222
H172	H	0.952389	0.148910	0.247249
