data_functionalizedCrystal
_audit_creation_method	'MofGen! by Chris Wilmer'
_symmetry_space_group_name_H-M	'P1'
_symmetry_Int_Tables_number	1
_symmetry_cell_setting	triclinic
loop_
_symmetry_equiv_pos_as_xyz
  x,y,z
_cell_length_a	6.394989
_cell_length_b	10.654550
_cell_length_c	9.130313
_cell_angle_alpha	90.003780
_cell_angle_beta	89.998359
_cell_angle_gamma	85.491307
loop_
_atom_site_label
_atom_site_type_symbol
_atom_site_fract_x
_atom_site_fract_y
_atom_site_fract_z
O1	O	-0.293432	-1.670942	-0.121910
O2	O	-0.321389	-1.305759	-0.121885
O3	O	-0.003422	-1.493534	-0.121899
O4	O	-0.611400	-1.483167	-0.121896
O5	O	-0.003430	-1.493532	0.121700
O6	O	-0.321398	-1.305757	0.121713
O7	O	-0.293441	-1.670940	0.121689
Cu8	Cu	-0.307420	-1.488348	0.143944
Cu9	Cu	-0.307410	-1.488351	-0.144140
O10	O	-0.611408	-1.483165	0.121703
C11	C	-0.319341	-1.258939	-0.000083
C12	C	-0.313199	-1.119430	-0.000074
C13	C	-0.295489	-1.717760	-0.000117
C14	C	-0.301631	-1.857269	-0.000135
N15	N	-0.307426	-1.488355	0.346566
C16	C	0.074425	-1.491483	-0.000105
C17	C	0.310751	-1.485219	-0.000106
N18	N	-0.307388	-1.488353	-0.346763
C19	C	-0.500414	-1.041927	-0.000094
C20	C	-0.494630	-0.910845	-0.000120
C21	C	-0.114402	-0.934782	-0.000110
C22	C	-0.120188	-1.065861	-0.000074
C23	C	-0.719936	-1.028107	-0.000106
C24	C	-0.714152	-0.897025	-0.000132
C25	C	-0.166678	-1.571524	0.423212
C26	C	-0.166653	-1.571521	0.576549
C27	C	-0.448142	-1.405175	0.576581
C28	C	-0.448155	-1.405174	0.423247
C29	C	-0.004169	-1.667567	0.423195
C30	C	-0.004143	-1.667563	0.576532
H31	H	0.032261	-1.128960	-0.000037
H32	H	0.156415	-1.644423	0.381576
H33	H	-0.055053	-1.759289	0.375631
H34	H	-0.789831	-1.064504	-0.105278
C35	C	0.198417	-1.624814	0.639667
C36	C	0.332574	-1.596475	0.525192
C37	C	0.519207	-1.557125	0.583298
H38	H	0.168060	-1.551963	0.698227
H39	H	0.264396	-1.690213	0.698160
H40	H	0.266608	-1.531082	0.466724
H41	H	0.362991	-1.669308	0.466622
H42	H	0.585186	-1.622524	0.641791
H43	H	0.488828	-1.484278	0.641858
H44	H	0.610262	-1.537904	0.505637
H45	H	-0.039940	-1.764454	0.618143
C46	C	-0.802366	-0.837248	0.140268
C47	C	-0.684671	-0.885444	0.259787
C48	C	-0.765877	-0.830423	0.389149
H49	H	-0.795336	-0.748614	0.135639
H50	H	-0.944325	-0.855887	0.151588
H51	H	-0.542749	-0.866795	0.248469
H52	H	-0.691691	-0.974072	0.264464
H53	H	-0.907835	-0.849063	0.400469
H54	H	-0.758842	-0.741791	0.384504
H55	H	-0.686046	-0.863125	0.470258
H56	H	-0.805794	-1.058346	0.101846
C57	C	-0.824767	-0.842682	-0.136015
C58	C	-1.033578	-0.873549	-0.135669
C59	C	-1.135529	-0.823522	-0.260822
H60	H	-0.821084	-0.753730	-0.136158
H61	H	-0.755975	-0.876784	-0.221012
H62	H	-1.102351	-0.839442	-0.050695
H63	H	-1.037322	-0.962492	-0.135548
H64	H	-1.066738	-0.857624	-0.345818
H65	H	-1.131831	-0.734571	-0.260953
H66	H	-1.277212	-0.844467	-0.260611
C67	C	-0.601186	-1.314813	0.340294
C68	C	-0.724457	-1.241993	0.440271
C69	C	-0.865473	-1.158746	0.363909
H70	H	-0.525453	-1.261229	0.280474
H71	H	-0.688989	-1.361330	0.280510
H72	H	-0.636665	-1.195479	0.500029
H73	H	-0.800235	-1.295543	0.500094
H74	H	-0.953276	-1.205264	0.304126
H75	H	-0.789723	-1.105172	0.304092
H76	H	-0.949142	-1.109337	0.431731
H77	H	-0.562719	-1.337450	0.639030
H78	H	0.042742	-0.891149	-0.000133
