data_functionalizedCrystal
_audit_creation_method	'MofGen! by Chris Wilmer'
_symmetry_space_group_name_H-M	'P1'
_symmetry_Int_Tables_number	1
_symmetry_cell_setting	triclinic
loop_
_symmetry_equiv_pos_as_xyz
  x,y,z
_cell_length_a	14.971486
_cell_length_b	11.026607
_cell_length_c	13.448316
_cell_angle_alpha	89.996104
_cell_angle_beta	89.998199
_cell_angle_gamma	96.100073
loop_
_atom_site_label
_atom_site_type_symbol
_atom_site_fract_x
_atom_site_fract_y
_atom_site_fract_z
O1	O	1.212292	0.158181	-0.082572
O2	O	0.954927	0.177123	-0.082599
O3	O	1.062279	-0.009032	-0.082584
O4	O	1.104940	0.344336	-0.082587
O5	O	1.062260	-0.009044	0.082800
O6	O	0.954908	0.177112	0.082785
O7	O	1.212273	0.158169	0.082812
Cu8	Cu	1.083589	0.167639	0.097899
Cu9	Cu	1.083611	0.167653	-0.097686
O10	O	1.104921	0.344324	0.082797
C11	C	0.921457	0.176270	0.000090
C12	C	0.821753	0.173732	0.000079
C13	C	0.782051	0.283093	0.000080
C14	C	0.688368	0.280700	0.000095
C15	C	0.634389	0.168945	0.000102
C16	C	0.674098	0.059576	0.000105
C17	C	0.767779	0.061969	0.000097
C18	C	0.478837	0.054594	0.000118
C19	C	0.385150	0.052200	0.000124
C20	C	0.399426	0.273325	0.000116
C21	C	0.493107	0.275718	0.000109
C22	C	0.532809	0.166348	0.000109
C23	C	1.054400	-0.054260	0.000106
C24	C	1.030939	-0.189008	0.000100
C25	C	1.095719	-0.262720	0.000105
C26	C	1.071472	-0.401989	0.000099
C27	C	1.245743	0.159022	0.000121
C28	C	1.345447	0.161561	0.000125
C29	C	1.112800	0.389552	0.000105
C30	C	1.136261	0.524300	0.000104
N31	N	1.083579	0.167629	0.235463
N32	N	1.083626	0.167654	-0.235251
C33	C	1.131139	0.085233	0.287510
C34	C	1.131145	0.085232	0.391614
C35	C	1.083595	0.167634	0.443668
C36	C	1.036029	0.250033	0.391614
C37	C	1.036019	0.250028	0.287513
C38	C	1.036055	0.250042	0.608594
C39	C	1.036066	0.250049	0.712703
C40	C	1.131181	0.085246	0.712695
C41	C	1.131171	0.085241	0.608594
C42	C	1.083606	0.167642	0.556547
H43	H	0.367096	0.362378	0.000120
H44	H	0.997290	0.317121	0.245137
H45	H	0.997319	0.317138	0.566221
H46	H	0.997308	0.317122	0.434003
C47	C	1.235444	-0.421691	0.000116
C48	C	1.272292	-0.338558	0.086002
C49	C	1.371474	-0.284551	0.086014
C50	C	1.433806	-0.313676	0.000140
C51	C	1.396959	-0.396813	-0.085751
C52	C	1.297778	-0.450820	-0.085763
H53	H	1.226149	-0.316994	0.149576
H54	H	1.398750	-0.223007	0.149597
H55	H	1.507226	-0.273697	0.000149
H56	H	1.443102	-0.418377	-0.149326
H57	H	1.270502	-0.512364	-0.149347
C58	C	1.183475	-0.005398	0.551328
C59	C	1.159727	-0.143625	0.565646
C60	C	1.212029	-0.234266	0.508379
C61	C	1.288080	-0.186679	0.436794
C62	C	1.311832	-0.048445	0.422474
C63	C	1.259530	0.042196	0.479740
H64	H	1.103426	-0.178857	0.618640
H65	H	1.194446	-0.336596	0.518981
H66	H	1.326798	-0.253777	0.394402
H67	H	1.368133	-0.013212	0.369480
H68	H	1.277113	0.144526	0.469139
H69	H	0.825994	0.374096	0.000073
H70	H	0.656047	0.369753	0.000094
C71	C	0.552482	0.398651	0.000102
C72	C	0.545492	0.489525	0.085983
C73	C	0.604865	0.612460	0.085980
C74	C	0.671229	0.644521	0.000096
C75	C	0.678222	0.553645	-0.085792
C76	C	0.618848	0.430710	-0.085789
H77	H	0.496363	0.465793	0.149565
H78	H	0.599688	0.679732	0.149560
H79	H	0.715180	0.735525	0.000094
H80	H	0.727350	0.577377	-0.149375
H81	H	0.624025	0.363438	-0.149369
H82	H	0.957528	-0.229006	0.000086
H83	H	0.998057	-0.441982	0.000085
C84	C	0.811457	-0.058329	0.000094
C85	C	0.792690	-0.149873	0.085977
C86	C	0.836367	-0.270175	0.085979
C87	C	0.898810	-0.298933	0.000099
C88	C	0.917579	-0.207386	-0.085790
C89	C	0.873902	-0.087084	-0.085792
H90	H	0.746464	-0.128587	0.149556
H91	H	0.822472	-0.337944	0.149561
H92	H	0.931142	-0.387987	0.000102
H93	H	0.963805	-0.228672	-0.149369
H94	H	0.887797	-0.019316	-0.149374
H95	H	1.169871	0.018139	0.433990
C96	C	1.183498	-0.005400	0.769945
C97	C	1.183505	-0.005402	0.884452
C98	C	1.235824	-0.096040	0.941708
C99	C	1.288136	-0.186675	0.884457
C100	C	1.288131	-0.186676	0.769943
C101	C	1.235812	-0.096039	0.712687
H102	H	1.144779	0.061694	0.926839
H103	H	1.235828	-0.096038	1.026479
H104	H	1.326866	-0.253770	0.926842
H105	H	1.326857	-0.253773	0.727557
H106	H	1.235809	-0.096040	0.627916
H107	H	1.169129	-0.222722	0.000119
H108	H	0.997345	0.317148	0.755080
H109	H	0.341202	-0.038801	0.000131
H110	H	0.511159	-0.034467	0.000120
H111	H	0.630141	-0.031417	0.000125
H112	H	1.169864	0.018138	0.245134
