data_functionalizedCrystal
_audit_creation_method	'MofGen! by Chris Wilmer'
_symmetry_space_group_name_H-M	'P1'
_symmetry_Int_Tables_number	1
_symmetry_cell_setting	triclinic
loop_
_symmetry_equiv_pos_as_xyz
  x,y,z
_cell_length_a	14.044220
_cell_length_b	8.559649
_cell_length_c	7.681481
_cell_angle_alpha	94.904209
_cell_angle_beta	96.264921
_cell_angle_gamma	98.516229
loop_
_atom_site_label
_atom_site_type_symbol
_atom_site_fract_x
_atom_site_fract_y
_atom_site_fract_z
O1	O	1.239912	-0.367620	0.146229
O2	O	0.964948	-0.353858	0.146273
O3	O	1.126654	-0.131590	0.146245
O4	O	1.078206	-0.589888	0.146257
O5	O	1.106695	-0.158909	-0.146609
O6	O	0.944989	-0.381177	-0.146581
O7	O	1.219953	-0.394939	-0.146626
Zn8	Zn	1.079302	-0.392396	-0.193100
Zn9	Zn	1.105599	-0.356402	0.192748
O10	O	1.058246	-0.617207	-0.146598
C11	C	0.920093	-0.361495	-0.000148
C12	C	0.816176	-0.343529	-0.000131
N13	N	1.123547	-0.331825	0.456079
C14	C	1.120347	-0.086243	-0.000179
C15	C	1.131276	0.089580	-0.000171
C16	C	0.625902	-0.310691	-0.000166
C17	C	0.558994	-0.438098	-0.000171
C18	C	0.453120	-0.419826	-0.000190
C19	C	0.731787	-0.328960	-0.000146
C20	C	1.264809	-0.387302	-0.000201
C21	C	1.368726	-0.405267	-0.000206
C22	C	1.064554	-0.662554	-0.000169
C23	C	1.053625	-0.838376	-0.000166
N24	N	1.061362	-0.416960	-0.456431
H25	H	0.581227	-0.560897	-0.000159
Br26	Br	0.928879	0.040244	-0.000156
Br27	Br	1.256026	0.210963	-0.000223
H28	H	0.997888	-0.503867	0.468383
Br29	Br	0.588849	-0.106028	-0.000180
Br30	Br	1.229339	-0.186941	0.581396
