data_functionalizedCrystal
_audit_creation_method	'MofGen! by Chris Wilmer'
_symmetry_space_group_name_H-M	'P1'
_symmetry_Int_Tables_number	1
_symmetry_cell_setting	triclinic
loop_
_symmetry_equiv_pos_as_xyz
  x,y,z
_cell_length_a	21.395364
_cell_length_b	21.395361
_cell_length_c	21.395355
_cell_angle_alpha	90.021511
_cell_angle_beta	89.975484
_cell_angle_gamma	89.973528
loop_
_atom_site_label
_atom_site_type_symbol
_atom_site_fract_x
_atom_site_fract_y
_atom_site_fract_z
Zn1	Zn	0.957859	0.249582	-0.354248
Zn2	Zn	0.957761	0.354342	-0.249465
Zn3	Zn	0.853074	0.249574	-0.249485
Zn4	Zn	0.853043	0.354318	-0.354205
O5	O	0.905434	0.301954	-0.301851
O6	O	1.045524	0.263492	-0.340358
O7	O	0.943847	0.340451	-0.161789
O8	O	0.867028	0.161897	-0.263408
O9	O	1.045452	0.340458	-0.263374
O10	O	0.944013	0.161903	-0.340377
O11	O	0.866933	0.263479	-0.161804
O12	O	0.765392	0.263456	-0.263366
O13	O	0.866975	0.340418	-0.441889
O14	O	0.765369	0.340410	-0.340304
O15	O	0.943983	0.263469	-0.441920
O16	O	0.943817	0.442016	-0.263333
O17	O	0.866881	0.441999	-0.340285
C18	C	0.905352	0.464742	-0.301816
C19	C	0.905374	0.534383	-0.301822
C20	C	0.742647	0.301930	-0.301833
C21	C	0.673006	0.301935	-0.301840
C22	C	0.905486	0.301941	-0.465274
C23	C	0.905509	0.301936	-0.534915
C24	C	0.171246	0.261972	-0.342010
C25	C	0.236681	0.261967	-0.342010
C26	C	0.269367	0.301973	-0.301865
C27	C	0.236612	0.341998	-0.261728
C28	C	0.171178	0.342006	-0.261734
C29	C	0.373004	0.306825	-0.245397
C30	C	0.438437	0.306813	-0.245390
C31	C	0.471188	0.301952	-0.301847
C32	C	0.438498	0.297091	-0.358313
C33	C	0.373064	0.297099	-0.358318
C34	C	0.340320	0.301969	-0.301854
C35	C	0.574888	0.261928	-0.341984
C36	C	0.640324	0.261928	-0.341985
C37	C	0.640254	0.341955	-0.261698
C38	C	0.574818	0.341959	-0.261702
C39	C	0.542139	0.301942	-0.301845
C40	C	1.068858	0.301979	-0.301868
C41	C	1.138499	0.301989	-0.301876
C42	C	0.905535	0.138531	-0.301899
C43	C	0.905577	0.068889	-0.301920
C44	C	0.945470	0.567084	-0.261794
C45	C	0.945499	0.632520	-0.261808
C46	C	0.905421	0.665251	-0.301843
C47	C	0.865322	0.632542	-0.341879
C48	C	0.865298	0.567108	-0.341868
C49	C	0.849006	0.768962	-0.306753
C50	C	0.849029	0.834395	-0.306759
C51	C	0.905494	0.867072	-0.301880
C52	C	0.961938	0.834308	-0.296981
C53	C	0.961915	0.768873	-0.296970
C54	C	0.905442	0.736203	-0.301860
C55	C	0.945625	0.970726	-0.261865
C56	C	0.945655	1.036162	-0.261883
C57	C	0.865472	1.036183	-0.341951
C58	C	0.865448	0.970748	-0.341936
C59	C	0.905523	0.938023	-0.301890
C60	C	0.945605	0.261867	-0.567646
C61	C	0.945604	0.261840	-0.633081
C62	C	0.905513	0.301893	-0.665784
C63	C	0.865409	0.341965	-0.633045
C64	C	0.865407	0.341986	-0.567611
C65	C	0.900538	0.358308	-0.769446
C66	C	0.900544	0.358288	-0.834879
C67	C	0.905517	0.301827	-0.867604
C68	C	0.910497	0.245385	-0.834889
C69	C	0.910494	0.245406	-0.769454
C70	C	0.905511	0.301874	-0.736736
C71	C	0.945615	0.261725	-0.971287
C72	C	0.945610	0.261697	-1.036724
C73	C	0.865418	0.341828	-1.036687
C74	C	0.865420	0.341850	-0.971252
C75	C	0.905522	0.301800	-0.938556
C76	C	0.905419	0.301921	-0.139063
C77	C	0.905518	0.301750	-0.069422
H78	H	0.144643	0.229390	-0.374700
Cl79	Cl	0.681338	0.392254	-0.211234
H80	H	0.832795	0.944121	-0.374528
H81	H	0.548279	0.229344	-0.374671
Cl82	Cl	0.894291	0.429243	-0.876001
Cl83	Cl	0.277858	0.211655	-0.392466
H84	H	0.896320	0.404274	-0.742807
Cl85	Cl	0.995859	0.525948	-0.211459
Cl86	Cl	0.996024	0.211374	-0.930181
Cl87	Cl	0.479664	0.290972	-0.429292
H88	H	0.978254	0.229207	-0.659735
H89	H	0.914547	0.199409	-0.861532
H90	H	0.666986	0.229343	-0.374672
H91	H	1.007873	0.742198	-0.292983
Cl92	Cl	0.331971	0.290994	-0.429300
H93	H	0.978259	0.944080	-0.229259
Cl94	Cl	0.815012	0.392176	-1.077792
Cl95	Cl	0.995908	0.673639	-0.211482
Cl96	Cl	0.814941	0.673689	-0.392212
Cl97	Cl	0.996071	1.077274	-0.211562
Cl98	Cl	1.032928	0.875379	-0.290840
Cl99	Cl	0.814997	0.392364	-0.526462
H100	H	0.832843	1.062833	-0.374552
Cl101	Cl	0.277702	0.392293	-0.211262
H102	H	0.832766	0.374575	-0.659676
H103	H	0.548155	0.374542	-0.229018
H104	H	0.803068	0.861067	-0.310742
H105	H	0.465048	0.310767	-0.199413
Cl106	Cl	0.778014	0.727890	-0.312888
H107	H	0.346343	0.310785	-0.199420
H108	H	0.832647	0.540482	-0.374465
Cl109	Cl	0.996014	0.211514	-0.526546
Cl110	Cl	0.916749	0.174453	-0.728328
H111	H	0.144516	0.374594	-0.229051
Cl112	Cl	0.996031	0.211330	-1.077872
H113	H	0.832773	0.374483	-0.944602
