data_functionalizedCrystal
_audit_creation_method	'MofGen! by Chris Wilmer'
_symmetry_space_group_name_H-M	'P1'
_symmetry_Int_Tables_number	1
_symmetry_cell_setting	triclinic
loop_
_symmetry_equiv_pos_as_xyz
  x,y,z
_cell_length_a	6.817900
_cell_length_b	15.301126
_cell_length_c	17.110486
_cell_angle_alpha	96.160805
_cell_angle_beta	99.060439
_cell_angle_gamma	104.177575
loop_
_atom_site_label
_atom_site_type_symbol
_atom_site_fract_x
_atom_site_fract_y
_atom_site_fract_z
V1	V	-3.980328	-0.124490	-0.246960
O2	O	-3.965201	0.006259	-0.242012
O3	O	-3.935553	-0.247108	-0.245509
O4	O	-3.910130	-0.122454	-0.354559
O5	O	-3.990800	-0.119259	-0.132206
V6	V	-4.466311	-0.108865	-0.233206
O7	O	-4.236191	-0.158764	-0.277131
O8	O	-4.660646	-0.074591	-0.203034
O9	O	-4.287880	0.013753	-0.234657
O10	O	-4.598835	-0.239614	-0.238154
O11	O	-4.573237	-0.114096	-0.347959
O12	O	-4.313303	-0.110901	-0.125606
C13	C	-3.782141	-0.277004	-0.241675
C14	C	-3.826673	-0.377245	-0.241205
C15	C	-4.029030	-0.428927	-0.244941
C16	C	-4.070862	-0.523116	-0.244505
C17	C	-3.910333	-0.565619	-0.240327
C18	C	-3.707960	-0.513930	-0.236594
C19	C	-3.666132	-0.419745	-0.237036
C20	C	-3.795154	-0.710242	-0.235671
C21	C	-3.836983	-0.804433	-0.235228
C22	C	-4.199884	-0.813613	-0.243140
C23	C	-4.158057	-0.719427	-0.243582
C24	C	-3.955685	-0.667745	-0.239847
C25	C	-3.749711	-0.117993	-0.380778
C26	C	-3.773623	-0.117140	-0.468743
C27	C	-3.966277	-0.121239	-0.514108
C28	C	-3.988734	-0.120437	-0.596760
C29	C	-3.818537	-0.115542	-0.634045
C30	C	-3.625866	-0.111439	-0.588673
C31	C	-3.603409	-0.112235	-0.506022
C32	C	-3.877263	-0.112907	-0.883395
C33	C	-3.899737	-0.112114	-0.966053
C34	C	-4.262604	-0.121110	-0.974134
C35	C	-4.240132	-0.121911	-0.891481
C36	C	-4.047462	-0.117804	-0.846116
C37	C	-3.841488	-0.114724	-0.718529
C38	C	-4.024510	-0.118615	-0.761633
C39	C	-4.104635	0.043644	-0.238489
C40	C	-4.039340	0.143885	-0.238963
C41	C	-4.137065	-0.115365	-0.099384
C42	C	-4.092391	-0.116214	-0.011418
H43	H	-4.159755	-0.394327	-0.248335
H44	H	-4.364660	-0.855695	-0.246170
N45	N	-3.447871	-0.364005	-0.233011
H46	H	-3.358164	-0.369681	-0.181908
H47	H	-3.445909	-0.297916	-0.233962
N48	N	-3.395617	-0.107820	-0.457091
H49	H	-3.407213	-0.109063	-0.399074
H50	H	-3.292994	-0.049566	-0.461984
N51	N	-3.657928	-0.109447	-0.758748
H52	H	-3.532462	-0.106971	-0.717470
H53	H	-3.632030	-0.052767	-0.785068
H54	H	-4.163081	-0.122598	-0.731271
N55	N	-4.289165	-0.578822	-0.248562
H56	H	-4.378774	-0.573096	-0.299671
H57	H	-4.343389	-0.555694	-0.201042
N58	N	-3.716157	-0.106813	-1.006271
H59	H	-3.605633	-0.048827	-0.982332
H60	H	-3.759826	-0.106969	-1.065507
H61	H	-4.378728	-0.125897	-0.861130
N62	N	-4.196519	-0.124867	-0.645700
H63	H	-4.186597	-0.068587	-0.672379
H64	H	-4.300836	-0.128127	-0.609499
N65	N	-4.331194	-0.673582	-0.248097
H66	H	-4.465745	-0.720614	-0.250403
H67	H	-4.339367	-0.643416	-0.297756
N68	N	-4.470404	-0.125531	-1.023057
H69	H	-4.515147	-0.181549	-1.065321
H70	H	-4.460335	-0.069212	-1.049682
H71	H	-3.706271	-0.839041	-0.231850
N72	N	-3.576878	-0.654503	-0.231641
H73	H	-3.533787	-0.606517	-0.182351
H74	H	-3.569233	-0.623985	-0.280980
N75	N	-4.149853	-0.126527	-0.473897
H76	H	-4.275305	-0.129000	-0.515181
H77	H	-4.121113	-0.070903	-0.431989
H78	H	-3.577258	-0.548545	-0.233198
H79	H	-3.720399	-0.109595	-0.846473
N80	N	-3.442281	-0.106157	-0.628878
H81	H	-3.416183	-0.049480	-0.655201
H82	H	-3.470955	-0.161817	-0.670741
