data_functionalizedCrystal
_audit_creation_method	'MofGen! by Chris Wilmer'
_symmetry_space_group_name_H-M	'P1'
_symmetry_Int_Tables_number	1
_symmetry_cell_setting	triclinic
loop_
_symmetry_equiv_pos_as_xyz
  x,y,z
_cell_length_a	16.120807
_cell_length_b	12.759395
_cell_length_c	12.759387
_cell_angle_alpha	89.979491
_cell_angle_beta	92.925973
_cell_angle_gamma	87.098518
loop_
_atom_site_label
_atom_site_type_symbol
_atom_site_fract_x
_atom_site_fract_y
_atom_site_fract_z
Zn1	Zn	0.331833	1.585158	-0.572821
Zn2	Zn	0.471271	1.576177	-0.388240
Zn3	Zn	0.331878	1.409453	-0.397155
Zn4	Zn	0.471212	1.400581	-0.563883
O5	O	0.401549	1.492842	-0.480525
O6	O	0.350336	1.730987	-0.548346
O7	O	0.452824	1.554015	-0.242399
O8	O	0.215205	1.440232	-0.427929
O9	O	0.452780	1.724389	-0.412735
O10	O	0.215172	1.569321	-0.556990
O11	O	0.350413	1.431524	-0.248949
O12	O	0.350356	1.261255	-0.419262
O13	O	0.452679	1.425111	-0.712093
O14	O	0.452723	1.254737	-0.541756
O15	O	0.350278	1.560718	-0.718660
O16	O	0.587931	1.545413	-0.404068
O17	O	0.587887	1.416403	-0.533112
C18	C	0.401539	1.219875	-0.480507
C19	C	0.401554	1.103098	-0.480524
C20	C	0.508322	1.096338	-0.607848
C21	C	0.561713	1.038097	-0.671513
C22	C	0.561723	0.928374	-0.671526
C23	C	0.508335	0.876891	-0.607868
C24	C	0.454945	0.935132	-0.544203
C25	C	0.454942	1.044857	-0.544196
C26	C	0.348174	0.941892	-0.416886
C27	C	0.348166	1.051614	-0.416866
C28	C	0.294786	0.890409	-0.353228
C29	C	0.241398	0.948650	-0.289556
C30	C	0.241391	1.058379	-0.289546
C31	C	0.294776	1.109855	-0.353201
C32	C	0.184092	1.506768	-0.494451
C33	C	0.091425	1.512702	-0.500386
C34	C	-0.119510	1.462320	-0.449971
C35	C	-0.078233	1.523552	-0.511198
C36	C	0.016174	1.517513	-0.505180
C37	C	-0.213925	1.468357	-0.455987
C38	C	0.618159	1.478999	-0.466675
C39	C	0.710826	1.473173	-0.460786
C40	C	0.401467	1.492927	-0.754564
C41	C	0.401432	1.492963	-0.871343
C42	C	0.401559	1.766875	-0.480543
C43	C	0.401564	1.883651	-0.480551
C44	C	0.294809	1.634180	-0.878200
C45	C	0.241485	1.704804	-0.936491
C46	C	0.241454	1.704831	-1.046214
C47	C	0.294752	1.634225	-1.097650
C48	C	0.348076	1.563601	-1.039359
C49	C	0.348103	1.563583	-0.929633
C50	C	0.454694	1.422381	-1.032502
C51	C	0.454730	1.422356	-0.922778
C52	C	0.507992	1.351774	-1.083938
C53	C	0.561322	1.281154	-1.025647
C54	C	0.561350	1.281130	-0.915917
C55	C	0.508054	1.351733	-0.864488
C56	C	0.401570	1.492822	-0.207556
C57	C	0.401370	1.493005	-0.090793
H58	H	0.508341	0.787550	-0.607894
O59	O	0.613547	1.088272	-0.733248
C60	C	0.602080	1.197605	-0.719608
H61	H	0.574690	1.214304	-0.640339
H62	H	0.557746	1.231604	-0.784856
C63	C	0.720083	1.228042	-0.821007
C64	C	0.686449	1.248552	-0.723644
H65	H	0.772124	1.259471	-0.823501
H66	H	0.727807	1.154382	-0.830201
H67	H	0.683130	1.256375	-0.875370
H68	H	0.723397	1.220208	-0.669284
H69	H	0.678733	1.322209	-0.714441
H70	H	-0.113796	1.580511	-0.568135
H71	H	0.294715	1.634245	-1.186993
O72	O	0.189677	1.773248	-0.886410
C73	C	0.135824	1.716881	-0.826400
H74	H	0.165218	1.635369	-0.808067
H75	H	0.074025	1.709318	-0.872641
C76	C	0.084669	1.875749	-0.745666
C77	C	0.120775	1.775638	-0.723141
H78	H	0.075382	1.911994	-0.681973
H79	H	0.120949	1.913726	-0.786098
H80	H	0.033174	1.869433	-0.784202
H81	H	0.172273	1.781956	-0.684617
H82	H	0.084503	1.737663	-0.682700
H83	H	0.508076	1.351724	-0.775145
H84	H	0.294794	0.801067	-0.353248
O85	O	-0.077220	1.394287	-0.382016
C86	C	-0.134187	1.338558	-0.326240
H87	H	-0.196306	1.338815	-0.373150
H88	H	-0.143376	1.377593	-0.247028
C89	C	-0.023793	1.224287	-0.251330
C90	C	-0.100086	1.224596	-0.308951
H91	H	-0.002757	1.153991	-0.240661
H92	H	0.014587	1.261835	-0.288904
H93	H	-0.031461	1.256821	-0.185327
H94	H	-0.092416	1.192074	-0.374958
H95	H	-0.138465	1.187039	-0.271388
O96	O	0.189662	0.898587	-0.227606
C97	C	0.237063	0.832033	-0.156647
H98	H	0.302718	0.860899	-0.145813
H99	H	0.239970	0.748709	-0.188955
C100	C	0.115587	0.797442	-0.063433
C101	C	0.196224	0.832901	-0.050119
H102	H	0.090395	0.797973	0.002277
H103	H	0.083651	0.842278	-0.111241
H104	H	0.118021	0.728008	-0.090360
H105	H	0.193788	0.902338	-0.023206
H106	H	0.228159	0.788077	-0.002304
O107	O	0.189567	1.773288	-1.102895
C108	C	0.135714	1.716939	-1.169828
H109	H	0.130562	1.634518	-1.137076
H110	H	0.161475	1.711681	-1.251330
C111	C	0.055379	1.875059	-1.217314
C112	C	0.049044	1.773830	-1.177083
H113	H	0.001917	1.910153	-1.221794
H114	H	0.091662	1.913024	-1.172224
H115	H	0.076849	1.870662	-1.285228
H116	H	0.027585	1.778228	-1.109165
H117	H	0.012755	1.735867	-1.222163
O118	O	0.189501	1.114790	-0.227600
C119	C	0.142372	1.045818	-0.171444
H120	H	0.176522	0.965420	-0.165564
H121	H	0.079093	1.038212	-0.214103
C122	C	0.088299	1.188099	-0.067642
C123	C	0.130245	1.089356	-0.060412
H124	H	0.080814	1.214956	0.000846
H125	H	0.120048	1.234568	-0.105478
H126	H	0.035570	1.181748	-0.103196
H127	H	0.182976	1.095710	-0.024871
H128	H	0.098504	1.042888	-0.022568
O129	O	0.508117	1.351795	-1.190513
C130	C	0.588010	1.373680	-1.222048
H131	H	0.636044	1.352631	-1.155734
H132	H	0.589786	1.460745	-1.241413
C133	C	0.549002	1.334262	-1.401365
C134	C	0.607999	1.308401	-1.319919
H135	H	0.561332	1.294000	-1.461739
H136	H	0.495175	1.319522	-1.380120
H137	H	0.550488	1.406817	-1.417489
H138	H	0.606505	1.235851	-1.303788
H139	H	0.661826	1.323128	-1.341163
O140	O	0.613205	1.212618	-1.075487
C141	C	0.696310	1.230263	-1.043384
H142	H	0.698070	1.270523	-0.963613
H143	H	0.724374	1.282489	-1.103352
C144	C	0.744642	1.075153	-1.133042
C145	C	0.746804	1.124593	-1.035062
H146	H	0.775791	1.009972	-1.127913
H147	H	0.688653	1.063267	-1.154675
H148	H	0.768027	1.118686	-1.183006
H149	H	0.723410	1.081066	-0.985105
H150	H	0.802791	1.136469	-1.013421
H151	H	0.294777	1.199197	-0.353196
H152	H	0.508326	1.185679	-0.607837
H153	H	0.605194	0.880955	-0.723373
H154	H	0.294836	1.634174	-0.788857
H155	H	0.604765	1.223608	-0.868464
