data_functionalizedCrystal
_audit_creation_method	'MofGen! by Chris Wilmer'
_symmetry_space_group_name_H-M	'P1'
_symmetry_Int_Tables_number	1
_symmetry_cell_setting	triclinic
loop_
_symmetry_equiv_pos_as_xyz
  x,y,z
_cell_length_a	10.654550
_cell_length_b	14.853567
_cell_length_c	9.730223
_cell_angle_alpha	89.999394
_cell_angle_beta	89.999957
_cell_angle_gamma	84.059930
loop_
_atom_site_label
_atom_site_type_symbol
_atom_site_fract_x
_atom_site_fract_y
_atom_site_fract_z
O1	O	1.666524	0.126626	-0.114175
O2	O	1.300920	0.138690	-0.114199
O3	O	1.493487	0.001480	-0.114190
O4	O	1.473956	0.263835	-0.114183
O5	O	1.493475	0.001477	0.114390
O6	O	1.300907	0.138686	0.114381
O7	O	1.666511	0.126622	0.114405
Zn8	Zn	1.483707	0.132654	0.150685
Zn9	Zn	1.483724	0.132659	-0.150479
O10	O	1.473943	0.263832	0.114397
C11	C	1.254125	0.137802	0.000088
C12	C	1.114709	0.135152	0.000078
C13	C	1.034384	0.215939	0.000084
C14	C	0.903389	0.213443	0.000108
C15	C	0.933057	0.049367	0.000114
C16	C	1.064049	0.051864	0.000100
C17	C	1.492596	-0.032115	0.000096
C18	C	1.489944	-0.132213	0.000084
C19	C	1.364344	-0.545419	0.000102
C20	C	1.593119	-0.565475	0.000116
C21	C	1.595613	-0.471428	0.000109
C22	C	1.482470	-0.414372	0.000099
C23	C	1.366834	-0.451363	0.000098
C24	C	1.711247	-0.434430	0.000124
C25	C	1.713745	-0.340378	0.000118
C26	C	1.600601	-0.283320	0.000098
C27	C	1.484961	-0.320316	0.000095
C28	C	1.371818	-0.263260	0.000086
C29	C	1.256176	-0.300254	0.000073
C30	C	1.253691	-0.394305	0.000079
C31	C	1.603087	-0.189269	0.000093
C32	C	1.374308	-0.169204	0.000082
C33	C	1.713306	0.127510	0.000116
C34	C	1.852722	0.130160	0.000116
C35	C	1.474835	0.297427	0.000108
C36	C	1.477487	0.397525	0.000111
N37	N	1.483705	0.132650	0.356222
N38	N	1.483735	0.132655	-0.356015
C39	C	1.569003	0.071919	0.428151
C40	C	1.569016	0.071919	0.572034
C41	C	1.398429	0.193389	0.572045
C42	C	1.398411	0.193383	0.428165
H43	H	0.837993	0.279228	0.000116
H44	H	1.638471	0.022466	0.630596
H45	H	1.328945	0.242838	0.369596
C46	C	1.905464	-0.480489	0.117649
C47	C	1.835609	-0.497142	0.000136
H48	H	1.982240	-0.519212	0.117655
H49	H	1.923493	-0.419189	0.117644
H50	H	1.858037	-0.491788	0.197345
H51	H	1.883033	-0.485837	-0.079561
H52	H	1.817582	-0.558457	0.000128
H53	H	1.328985	0.242838	0.630636
C54	C	1.739810	0.053430	0.266249
C55	C	1.662689	0.005133	0.349034
H56	H	1.797633	0.012188	0.217405
H57	H	1.689007	0.089612	0.202849
H58	H	1.785108	0.091235	0.322356
H59	H	1.617384	-0.032667	0.292925
H60	H	1.713499	-0.031064	0.412441
C61	C	1.057933	-0.406182	-0.117443
C62	C	1.126589	-0.434975	0.000071
H63	H	0.979471	-0.431299	-0.117447
H64	H	1.043217	-0.342012	-0.117440
H65	H	1.104545	-0.425723	-0.197139
H66	H	1.079980	-0.415428	0.079767
H67	H	1.141301	-0.499159	0.000081
C68	C	1.168561	-0.557264	0.117580
C69	C	1.237231	-0.586074	0.000085
H70	H	1.090083	-0.582359	0.117562
H71	H	1.215141	-0.576809	0.197280
H72	H	1.153869	-0.493085	0.117568
H73	H	1.251930	-0.650254	0.000103
H74	H	1.190640	-0.566534	-0.079635
H75	H	1.685234	-0.611935	0.000135
H76	H	1.807907	-0.310265	0.000126
C77	C	1.828969	-0.218545	0.000108
C78	C	1.730187	-0.148604	0.000096
H79	H	1.907438	-0.193439	0.000097
H80	H	1.823237	-0.254803	0.079820
H81	H	1.823233	-0.254818	-0.079602
H82	H	1.735917	-0.112334	0.079812
H83	H	1.735922	-0.112331	-0.079625
H84	H	0.891793	-0.018444	0.000140
C85	C	1.080229	-0.110577	0.000092
C86	C	1.152354	-0.036944	0.000088
H87	H	1.134747	-0.165398	0.000079
H88	H	1.028530	-0.108141	0.079803
H89	H	1.028510	-0.108133	-0.079620
H90	H	1.204066	-0.039384	0.079805
H91	H	1.204074	-0.039382	-0.079632
H92	H	1.282172	-0.122754	0.000069
H93	H	1.075626	0.283758	0.000077
H94	H	1.164056	-0.253787	0.000075
