data_functionalizedCrystal
_audit_creation_method	'MofGen! by Chris Wilmer'
_symmetry_space_group_name_H-M	'P1'
_symmetry_Int_Tables_number	1
_symmetry_cell_setting	triclinic
loop_
_symmetry_equiv_pos_as_xyz
  x,y,z
_cell_length_a	6.817900
_cell_length_b	17.078509
_cell_length_c	10.943624
_cell_angle_alpha	95.061128
_cell_angle_beta	108.838799
_cell_angle_gamma	99.306544
loop_
_atom_site_label
_atom_site_type_symbol
_atom_site_fract_x
_atom_site_fract_y
_atom_site_fract_z
V1	V	-4.067333	-0.109746	-0.402421
O2	O	-4.075528	0.005295	-0.394894
O3	O	-3.997938	-0.217629	-0.399539
O4	O	-4.046040	-0.108049	-0.577989
O5	O	-4.027093	-0.105044	-0.215209
V6	V	-4.550169	-0.095987	-0.380044
O7	O	-4.330099	-0.139928	-0.451505
O8	O	-4.737600	-0.065805	-0.330960
O9	O	-4.396356	0.011896	-0.382926
O10	O	-4.659370	-0.211029	-0.387571
O11	O	-4.707805	-0.100690	-0.567256
O12	O	-4.348254	-0.097685	-0.204476
C13	C	-3.836955	-0.243929	-0.393158
C14	C	-3.861684	-0.332124	-0.391972
C15	C	-3.981251	-0.828138	-0.384620
C16	C	-3.958033	-0.745270	-0.385739
C17	C	-4.128752	-0.707878	-0.392727
C18	C	-4.322709	-0.753361	-0.398610
C19	C	-4.345929	-0.836228	-0.397500
C20	C	-4.078861	-0.460475	-0.396745
C21	C	-4.055623	-0.377601	-0.397850
C22	C	-3.690950	-0.369515	-0.384982
C23	C	-3.714184	-0.452384	-0.383865
C24	C	-3.908140	-0.497860	-0.389754
N25	N	-4.105022	-0.623173	-0.393867
N26	N	-3.931872	-0.582564	-0.388624
C27	C	-3.898312	-0.104147	-0.620787
C28	C	-3.962048	-0.103473	-0.764314
C29	C	-3.808870	-0.098934	-0.841467
C30	C	-3.968660	-0.166310	-0.947377
C31	C	-3.915847	-0.034904	-0.914146
C32	C	-4.121021	-0.170912	-0.868347
C33	C	-4.068153	-0.039447	-0.835093
C34	C	-4.228072	-0.106842	-0.940973
C35	C	-4.220680	0.038191	-0.389304
C36	C	-4.175190	0.126386	-0.390498
C37	C	-4.159323	-0.101589	-0.161672
C38	C	-4.074826	-0.102259	-0.018143
H39	H	-4.236788	-0.497491	-0.401538
H40	H	-4.503853	-0.873255	-0.402288
H41	H	-4.461713	-0.722911	-0.404308
H42	H	-3.533038	-0.332480	-0.380190
C43	C	-3.800887	0.041815	-0.941586
C44	C	-3.667766	0.088570	-0.823358
C45	C	-3.561839	0.159250	-0.848578
H46	H	-3.718917	0.028782	-0.993166
H47	H	-3.901317	0.071085	-0.987298
H48	H	-3.567348	0.059306	-0.777666
H49	H	-3.749683	0.101624	-0.771761
H50	H	-3.662270	0.188520	-0.894290
H51	H	-3.479882	0.146210	-0.900161
H52	H	-3.471520	0.190985	-0.768366
C53	C	-3.571849	-0.094558	-0.783262
C54	C	-3.514417	-0.094535	-0.648326
C55	C	-3.296096	-0.090498	-0.594660
H56	H	-3.536080	-0.139682	-0.821926
H57	H	-3.498472	-0.046699	-0.799709
H58	H	-3.587768	-0.142389	-0.631889
H59	H	-3.550132	-0.049413	-0.609627
H60	H	-3.222720	-0.042639	-0.611107
H61	H	-3.260348	-0.135623	-0.633334
H62	H	-3.257098	-0.090475	-0.503100
C63	C	-3.913036	-0.237744	-1.012472
C64	C	-3.694241	-0.233313	-0.961791
C65	C	-3.642904	-0.299095	-1.021730
H66	H	-3.984331	-0.286049	-0.996021
H67	H	-3.955306	-0.237060	-1.103969
H68	H	-3.651993	-0.234005	-0.870315
H69	H	-3.622895	-0.185022	-0.978241
H70	H	-3.685174	-0.298410	-1.113228
H71	H	-3.714212	-0.347395	-1.005276
H72	H	-3.494446	-0.296093	-0.987361
C73	C	-4.235580	-0.247613	-0.840610
C74	C	-4.173955	-0.247391	-0.705491
C75	C	-4.279408	-0.318039	-0.679889
H76	H	-4.383997	-0.250665	-0.875455
H77	H	-4.200464	-0.292640	-0.880042
H78	H	-4.209086	-0.202376	-0.666075
H79	H	-4.025555	-0.244352	-0.670616
H80	H	-4.244291	-0.363066	-0.719320
H81	H	-4.427820	-0.321085	-0.714740
H82	H	-4.237596	-0.317901	-0.588210
H83	H	-3.842230	-0.858576	-0.378932
C84	C	-4.465123	-0.111149	-0.998668
C85	C	-4.502563	-0.042599	-1.056567
C86	C	-4.720905	-0.046538	-1.109716
H87	H	-4.528275	-0.157581	-1.062734
H88	H	-4.524681	-0.113876	-0.931366
H89	H	-4.443031	-0.039881	-1.123861
H90	H	-4.439462	0.003843	-0.992526
H91	H	-4.780463	-0.049264	-1.042414
H92	H	-4.784038	-0.092972	-1.173777
H93	H	-4.746336	-0.000025	-1.148996
H94	H	-4.194648	-0.347158	-0.403528
H95	H	-4.109469	0.014188	-0.786173
C96	C	-3.747280	-0.695914	-0.379076
C97	C	-3.589965	-0.702932	-0.263323
C98	C	-3.395790	-0.657470	-0.257132
H99	H	-3.711785	-0.715031	-0.451780
H100	H	-3.757765	-0.641189	-0.380669
H101	H	-3.579477	-0.757646	-0.261742
H102	H	-3.625391	-0.683810	-0.190598
H103	H	-3.406275	-0.602745	-0.258725
H104	H	-3.360316	-0.676591	-0.329842
H105	H	-3.289032	-0.662220	-0.178589
H106	H	-3.575150	-0.482820	-0.378150
