data_functionalizedCrystal
_audit_creation_method	'MofGen! by Chris Wilmer'
_symmetry_space_group_name_H-M	'P1'
_symmetry_Int_Tables_number	1
_symmetry_cell_setting	triclinic
loop_
_symmetry_equiv_pos_as_xyz
  x,y,z
_cell_length_a	12.759401
_cell_length_b	29.839131
_cell_length_c	12.759393
_cell_angle_alpha	89.963184
_cell_angle_beta	89.979062
_cell_angle_gamma	90.042945
loop_
_atom_site_label
_atom_site_type_symbol
_atom_site_fract_x
_atom_site_fract_y
_atom_site_fract_z
Zn1	Zn	1.606071	-0.178813	-0.593974
Zn2	Zn	1.605880	-0.253950	-0.418275
Zn3	Zn	1.430370	-0.178837	-0.418309
Zn4	Zn	1.430280	-0.253919	-0.593912
O5	O	1.518150	-0.216380	-0.506117
O6	O	1.753067	-0.188784	-0.570679
O7	O	1.582556	-0.244010	-0.271258
O8	O	1.453795	-0.115967	-0.441652
O9	O	1.752927	-0.243986	-0.441593
O10	O	1.582882	-0.115949	-0.570712
O11	O	1.453610	-0.188824	-0.271283
O12	O	1.283337	-0.188794	-0.441592
O13	O	1.453641	-0.243933	-0.740941
O14	O	1.283271	-0.243956	-0.570606
O15	O	1.582794	-0.188753	-0.740987
O16	O	1.582469	-0.316813	-0.441533
O17	O	1.453456	-0.316790	-0.570573
C18	C	1.245183	-0.216375	-0.506097
C19	C	1.128406	-0.216383	-0.506113
C20	C	1.073538	-0.245150	-0.573185
C21	C	0.963813	-0.245151	-0.573206
C22	C	0.963837	-0.187618	-0.439073
C23	C	1.073559	-0.187615	-0.439058
C24	C	1.517961	-0.333103	-0.506065
C25	C	1.517976	-0.383037	-0.506078
C26	C	1.585450	-0.692680	-0.439024
C27	C	1.585579	-0.880353	-0.439065
O28	O	1.642798	-0.904617	-0.382014
N29	N	1.518368	-0.903822	-0.506197
C30	C	1.451125	-0.880370	-0.573327
O31	O	1.393969	-0.904638	-0.630435
C32	C	1.451001	-0.692698	-0.573291
C33	C	1.518209	-0.669231	-0.506148
C34	C	1.652653	-0.669213	-0.371888
C35	C	1.652616	-0.622297	-0.371874
C36	C	1.585375	-0.598849	-0.438997
C37	C	1.518172	-0.622316	-0.506134
C38	C	1.383764	-0.669247	-0.640427
C39	C	1.383741	-0.622326	-0.640413
C40	C	1.450949	-0.598859	-0.573270
C41	C	1.450895	-0.551952	-0.573244
N42	N	1.518106	-0.528482	-0.506113
C43	C	1.585346	-0.551931	-0.438989
C44	C	1.451193	-0.978901	-0.573340
C45	C	1.451223	-1.025819	-0.573348
C46	C	1.585679	-1.025798	-0.439087
C47	C	1.585643	-0.978879	-0.439075
C48	C	1.518404	-0.955431	-0.506209
C49	C	1.585262	-0.453405	-0.438965
C50	C	1.585216	-0.406486	-0.438955
C51	C	1.450764	-0.406510	-0.573219
C52	C	1.450806	-0.453426	-0.573226
C53	C	1.518064	-0.476872	-0.506096
O54	O	1.393715	-0.527659	-0.630274
O55	O	1.642510	-0.527655	-0.381907
C56	C	1.585487	-0.739595	-0.439038
C57	C	1.518284	-0.763062	-0.506175
C58	C	1.451043	-0.739613	-0.573298
C59	C	1.518313	-0.809980	-0.506183
C60	C	1.585553	-0.833428	-0.439060
C61	C	1.652764	-0.809959	-0.371928
C62	C	1.652727	-0.763044	-0.371915
C63	C	1.383832	-0.763083	-0.640430
C64	C	1.383874	-0.809998	-0.640437
C65	C	1.451114	-0.833447	-0.573314
C66	C	1.792184	-0.216386	-0.506139
C67	C	1.908960	-0.216388	-0.506148
C68	C	1.518229	-0.216337	-0.780151
C69	C	1.518263	-0.216318	-0.896928
C70	C	1.518370	-0.099202	-0.506193
C71	C	1.518463	-0.049267	-0.506225
C72	C	1.585518	-0.187582	-0.951815
C73	C	1.585535	-0.187562	-1.061539
C74	C	1.451040	-0.245020	-1.061479
C75	C	1.451018	-0.245037	-0.951757
C76	C	1.518133	-0.216391	-0.233150
C77	C	1.518303	-0.216282	-0.116374
H78	H	0.919167	-0.164197	-0.384478
O79	O	1.718118	-0.832672	-0.306626
C80	C	1.777460	-0.801904	-0.247381
H81	H	1.734412	-0.768478	-0.243682
H82	H	1.788724	-0.815487	-0.164622
H83	H	1.857227	-0.796866	-0.285929
O84	O	1.650818	-0.159585	-1.114738
C85	C	1.627923	-0.114813	-1.087963
H86	H	1.587520	-0.113896	-1.008292
H87	H	1.703787	-0.094673	-1.084229
H88	H	1.573952	-0.099668	-1.149715
O89	O	1.126913	-0.159622	-0.374049
C90	C	1.190475	-0.130643	-0.433983
H91	H	1.157451	-0.127911	-0.516745
H92	H	1.191761	-0.096050	-0.396134
H93	H	1.273610	-0.144534	-0.437535
H94	H	1.329031	-0.688346	-0.695097
H95	H	1.639945	-0.387380	-0.384275
O96	O	1.385651	-0.272997	-0.898594
C97	C	1.326292	-0.298336	-0.970513
H98	H	1.369335	-0.299883	-1.048735
H99	H	1.315011	-0.333736	-0.938781
H100	H	1.246533	-0.281881	-0.982180
H101	H	1.640032	-0.472490	-0.384304
H102	H	1.118191	-0.268573	-0.627787
H103	H	1.707345	-0.603193	-0.317203
H104	H	1.707414	-0.688300	-0.317227
H105	H	1.328988	-0.603237	-0.695086
H106	H	1.640370	-0.959775	-0.384402
O107	O	0.910677	-0.273139	-0.638391
C108	C	0.982619	-0.298519	-0.697587
H109	H	1.060807	-0.300049	-0.654533
H110	H	0.950866	-0.333922	-0.708645
H111	H	0.994359	-0.282109	-0.777450
O112	O	1.651027	-1.048650	-0.374045
C113	C	1.636646	-1.095091	-0.388472
H114	H	1.602104	-1.101475	-0.469488
H115	H	1.715381	-1.112880	-0.381541
H116	H	1.580827	-1.108473	-0.326055
O117	O	1.385485	-0.476155	-0.638543
C118	C	1.326108	-0.445395	-0.697762
H119	H	1.369108	-0.411928	-0.701417
H120	H	1.314876	-0.458925	-0.780538
H121	H	1.246328	-0.440459	-0.659220
O122	O	1.650937	-0.159746	-0.898504
C123	C	1.718719	-0.185331	-0.835008
H124	H	1.725157	-0.220709	-0.868049
H125	H	1.799600	-0.169082	-0.833785
H126	H	1.686213	-0.186891	-0.751846
O127	O	1.385895	-1.048542	-0.638662
C128	C	1.326529	-1.017779	-0.697883
H129	H	1.369544	-0.984315	-0.701544
H130	H	1.315286	-1.031311	-0.780656
H131	H	1.246753	-1.012835	-0.659338
O132	O	1.385816	-0.956077	-0.638406
C133	C	1.317952	-0.928995	-0.578526
H134	H	1.355047	-0.921969	-0.498942
H135	H	1.303816	-0.895998	-0.621308
H136	H	1.240117	-0.947118	-0.566906
H137	H	1.396294	-0.268403	-1.106134
O138	O	1.385606	-0.383706	-0.638534
C139	C	1.445387	-0.356511	-0.706405
H140	H	1.528135	-0.370617	-0.712963
H141	H	1.407358	-0.355963	-0.787230
H142	H	1.449009	-0.320963	-0.673905
H143	H	1.707454	-0.743940	-0.317241
O144	O	1.318548	-0.832722	-0.705763
C145	C	1.259181	-0.801959	-0.764983
H146	H	1.302190	-0.768493	-0.768634
H147	H	1.247948	-0.815488	-0.847760
H148	H	1.179401	-0.797019	-0.726443
H149	H	1.329078	-0.743995	-0.695091
