data_functionalizedCrystal
_audit_creation_method	'MofGen! by Chris Wilmer'
_symmetry_space_group_name_H-M	'P1'
_symmetry_Int_Tables_number	1
_symmetry_cell_setting	triclinic
loop_
_symmetry_equiv_pos_as_xyz
  x,y,z
_cell_length_a	19.288840
_cell_length_b	14.044220
_cell_length_c	18.366186
_cell_angle_alpha	89.993222
_cell_angle_beta	89.983729
_cell_angle_gamma	88.157446
loop_
_atom_site_label
_atom_site_type_symbol
_atom_site_fract_x
_atom_site_fract_y
_atom_site_fract_z
O1	O	0.928952	0.118100	-0.060674
O2	O	1.178952	0.368100	0.189326
O3	O	1.428952	0.618100	0.439326
O4	O	1.678952	0.868100	0.689326
O5	O	0.727715	0.134072	-0.060649
O6	O	0.977715	0.384072	0.189351
O7	O	1.227715	0.634072	0.439351
O8	O	1.477715	0.884072	0.689351
O9	O	0.825313	-0.011885	-0.060654
O10	O	1.075313	0.238115	0.189346
O11	O	1.325313	0.488115	0.439346
O12	O	1.575313	0.738115	0.689346
O13	O	0.831354	0.264058	-0.060669
O14	O	1.081354	0.514058	0.189331
O15	O	1.331354	0.764058	0.439331
O16	O	1.581354	1.014058	0.689331
O17	O	0.825295	-0.011892	0.060445
O18	O	1.075295	0.238108	0.310445
O19	O	1.325295	0.488108	0.560445
O20	O	1.575295	0.738108	0.810445
O21	O	0.727697	0.134065	0.060450
O22	O	0.977697	0.384065	0.310450
O23	O	1.227697	0.634065	0.560450
O24	O	1.477697	0.884065	0.810450
O25	O	0.928933	0.118093	0.060425
O26	O	1.178933	0.368093	0.310425
O27	O	1.428933	0.618093	0.560425
O28	O	1.678933	0.868093	0.810425
Zn29	Zn	0.828312	0.126078	0.079665
Zn30	Zn	1.078312	0.376078	0.329665
Zn31	Zn	1.328312	0.626078	0.579665
Zn32	Zn	1.578312	0.876078	0.829665
Zn33	Zn	0.828337	0.126087	-0.079889
Zn34	Zn	1.078337	0.376087	0.170111
Zn35	Zn	1.328337	0.626087	0.420111
Zn36	Zn	1.578337	0.876087	0.670111
O37	O	0.831336	0.264050	0.060430
O38	O	1.081336	0.514050	0.310430
O39	O	1.331336	0.764050	0.560430
O40	O	1.581336	1.014050	0.810430
C41	C	0.701796	0.133559	-0.000096
C42	C	0.951796	0.383559	0.249904
C43	C	1.201796	0.633559	0.499904
C44	C	1.451796	0.883559	0.749904
C45	C	0.624594	0.132028	-0.000087
C46	C	0.874594	0.382028	0.249913
C47	C	1.124594	0.632028	0.499913
C48	C	1.374594	0.882028	0.749913
C49	C	0.588353	0.131296	-0.066100
C50	C	0.838353	0.381296	0.183900
C51	C	1.088353	0.631296	0.433900
C52	C	1.338353	0.881296	0.683900
C53	C	0.515813	0.129847	-0.066109
C54	C	0.765813	0.379847	0.183891
C55	C	1.015813	0.629847	0.433891
C56	C	1.265813	0.879847	0.683891
C57	C	0.479517	0.129111	-0.000101
C58	C	0.729517	0.379111	0.249899
C59	C	0.979517	0.629111	0.499899
C60	C	1.229517	0.879111	0.749899
C61	C	0.515766	0.129848	0.065921
C62	C	0.765766	0.379848	0.315921
C63	C	1.015766	0.629848	0.565921
C64	C	1.265766	0.879848	0.815921
C65	C	0.588304	0.131306	0.065928
C66	C	0.838304	0.381306	0.315928
C67	C	1.088304	0.631306	0.565928
C68	C	1.338304	0.881306	0.815928
C69	C	0.366467	0.071292	0.050464
C70	C	0.616467	0.321292	0.300464
C71	C	0.866467	0.571292	0.550464
C72	C	1.116467	0.821292	0.800464
C73	C	0.293930	0.069828	0.050454
C74	C	0.543930	0.319828	0.300454
C75	C	0.793930	0.569828	0.550454
C76	C	1.043930	0.819828	0.800454
C77	C	0.255785	0.124617	-0.000119
C78	C	0.505785	0.374617	0.249881
C79	C	0.755785	0.624617	0.499881
C80	C	1.005785	0.874617	0.749881
C81	C	0.290185	0.180858	-0.050695
C82	C	0.540185	0.430858	0.199305
C83	C	0.790185	0.680858	0.449305
C84	C	1.040185	0.930858	0.699305
C85	C	0.362724	0.182316	-0.050688
C86	C	0.612724	0.432316	0.199312
C87	C	0.862724	0.682316	0.449312
C88	C	1.112724	0.932316	0.699312
C89	C	0.400861	0.127530	-0.000101
C90	C	0.650861	0.377530	0.249899
C91	C	0.900861	0.627530	0.499899
C92	C	1.150861	0.877530	0.749899
C93	C	0.140888	0.122316	-0.066147
C94	C	0.390888	0.372316	0.183853
C95	C	0.640888	0.622316	0.433853
C96	C	0.890888	0.872316	0.683853
C97	C	0.068346	0.120872	-0.066153
C98	C	0.318346	0.370872	0.183847
C99	C	0.568346	0.620872	0.433847
C100	C	0.818346	0.870872	0.683847
C101	C	0.068301	0.120863	0.065879
C102	C	0.318301	0.370863	0.315879
C103	C	0.568301	0.620863	0.565879
C104	C	0.818301	0.870863	0.815879
C105	C	0.140841	0.122316	0.065883
C106	C	0.390841	0.372316	0.315883
C107	C	0.640841	0.622316	0.565883
C108	C	0.890841	0.872316	0.815883
C109	C	0.177130	0.123037	-0.000132
C110	C	0.427130	0.373037	0.249868
C111	C	0.677130	0.623037	0.499868
C112	C	0.927130	0.873037	0.749868
C113	C	0.822659	-0.047191	-0.000104
C114	C	1.072659	0.202809	0.249896
C115	C	1.322659	0.452809	0.499896
C116	C	1.572659	0.702809	0.749896
C117	C	0.814772	-0.152383	-0.000102
C118	C	1.064772	0.097617	0.249898
C119	C	1.314772	0.347617	0.499898
C120	C	1.564772	0.597617	0.749898
C121	C	0.800351	-0.344981	-0.000111
C122	C	1.050351	-0.094981	0.249889
C123	C	1.300351	0.155019	0.499889
C124	C	1.550351	0.405019	0.749889
C125	C	0.856295	-0.402860	-0.000120
C126	C	1.106295	-0.152860	0.249880
C127	C	1.356295	0.097140	0.499880
C128	C	1.606295	0.347140	0.749880
C129	C	0.848271	-0.510028	-0.000125
C130	C	1.098271	-0.260028	0.249875
C131	C	1.348271	-0.010028	0.499875
C132	C	1.598271	0.239972	0.749875
C133	C	0.808374	-0.237802	-0.000106
C134	C	1.058374	0.012198	0.249894
C135	C	1.308374	0.262198	0.499894
C136	C	1.558374	0.512198	0.749894
C137	C	0.954852	0.118607	-0.000129
C138	C	1.204852	0.368607	0.249871
C139	C	1.454852	0.618607	0.499871
C140	C	1.704852	0.868607	0.749871
C141	C	1.032055	0.120138	-0.000144
C142	C	1.282055	0.370138	0.249856
C143	C	1.532055	0.620138	0.499856
C144	C	1.782055	0.870138	0.749856
C145	C	0.833989	0.299357	-0.000122
C146	C	1.083989	0.549357	0.249878
C147	C	1.333989	0.799357	0.499878
C148	C	1.583989	1.049357	0.749878
C149	C	0.841877	0.404548	-0.000129
C150	C	1.091877	0.654548	0.249871
C151	C	1.341877	0.904548	0.499871
C152	C	1.591877	1.154548	0.749871
N153	N	0.828300	0.126071	0.188556
N154	N	1.078300	0.376071	0.438556
N155	N	1.328300	0.626071	0.688556
N156	N	1.578300	0.876071	0.938556
N157	N	0.828353	0.126087	-0.188780
N158	N	1.078353	0.376087	0.061220
N159	N	1.328353	0.626087	0.311220
N160	N	1.578353	0.876087	0.561220
C161	C	0.871534	0.061473	0.226654
C162	C	1.121534	0.311473	0.476654
C163	C	1.371534	0.561473	0.726654
C164	C	1.621534	0.811473	0.976654
C165	C	0.871538	0.061469	0.302882
C166	C	1.121538	0.311469	0.552882
C167	C	1.371538	0.561469	0.802882
C168	C	1.621538	0.811469	1.052882
C169	C	0.828316	0.126079	0.341009
C170	C	1.078316	0.376079	0.591009
C171	C	1.328316	0.626079	0.841009
C172	C	1.578316	0.876079	1.091009
C173	C	0.785074	0.190682	0.302901
C174	C	1.035074	0.440682	0.552901
C175	C	1.285074	0.690682	0.802901
C176	C	1.535074	0.940682	1.052901
C177	C	0.785066	0.190678	0.226675
C178	C	1.035066	0.440678	0.476675
C179	C	1.285066	0.690678	0.726675
C180	C	1.535066	0.940678	0.976675
C181	C	0.824566	0.212423	0.461765
C182	C	1.074566	0.462423	0.711765
C183	C	1.324566	0.712423	0.961765
C184	C	1.574566	0.962423	1.211765
C185	C	0.824579	0.212428	0.537990
C186	C	1.074579	0.462428	0.787990
C187	C	1.324579	0.712428	1.037990
C188	C	1.574579	0.962428	1.287990
C189	C	0.828337	0.126091	0.576116
C190	C	1.078337	0.376091	0.826116
C191	C	1.328337	0.626091	1.076116
C192	C	1.578337	0.876091	1.326116
C193	C	0.832097	0.039745	0.538008
C194	C	1.082097	0.289745	0.788008
C195	C	1.332097	0.539745	1.038008
C196	C	1.582097	0.789745	1.288008
C197	C	0.832089	0.039741	0.461782
C198	C	1.082089	0.289741	0.711782
C199	C	1.332089	0.539741	0.961782
C200	C	1.582089	0.789741	1.211782
C201	C	0.828320	0.126090	0.423663
C202	C	1.078320	0.376090	0.673663
C203	C	1.328320	0.626090	0.923663
C204	C	1.578320	0.876090	1.173663
C205	C	0.871577	0.061483	0.696869
C206	C	1.121577	0.311483	0.946869
C207	C	1.371577	0.561483	1.196869
C208	C	1.621577	0.811483	1.446869
C209	C	0.871577	0.061477	0.773098
C210	C	1.121577	0.311477	1.023098
C211	C	1.371577	0.561477	1.273098
C212	C	1.621577	0.811477	1.523098
C213	C	0.785116	0.190699	0.773116
C214	C	1.035116	0.440699	1.023116
C215	C	1.285116	0.690699	1.273116
C216	C	1.535116	0.940699	1.523116
C217	C	0.785113	0.190696	0.696888
C218	C	1.035113	0.440696	0.946888
C219	C	1.285113	0.690696	1.196888
C220	C	1.535113	0.940696	1.446888
C221	C	0.828347	0.126089	0.658770
C222	C	1.078347	0.376089	0.908770
C223	C	1.328347	0.626089	1.158770
C224	C	1.578347	0.876089	1.408770
H225	H	0.617895	0.131884	-0.119854
H226	H	0.867895	0.381884	0.130146
H227	H	1.117895	0.631884	0.380146
H228	H	1.367895	0.881884	0.630146
F229	F	0.926774	-0.362429	-0.000123
F230	F	1.176774	-0.112429	0.249877
F231	F	1.426774	0.137571	0.499877
F232	F	1.676774	0.387571	0.749877
F233	F	0.399333	0.242172	-0.104511
F234	F	0.649333	0.492172	0.145489
F235	F	0.899333	0.742172	0.395489
F236	F	1.149333	0.992172	0.645489
F237	F	0.836084	-0.052152	0.421227
F238	F	1.086084	0.197848	0.671227
F239	F	1.336084	0.447848	0.921227
F240	F	1.586084	0.697848	1.171227
F241	F	0.729877	-0.385411	-0.000106
F242	F	0.979877	-0.135411	0.249894
F243	F	1.229877	0.114589	0.499894
F244	F	1.479877	0.364589	0.749894
F245	F	0.820582	0.304324	0.578540
F246	F	1.070582	0.554324	0.828540
F247	F	1.320582	0.804324	1.078540
F248	F	1.570582	1.054324	1.328540
F249	F	0.917545	-0.007290	0.186087
F250	F	1.167545	0.242710	0.436087
F251	F	1.417545	0.492710	0.686087
F252	F	1.667545	0.742710	0.936087
H253	H	0.821494	0.282733	0.430729
H254	H	1.071494	0.532733	0.680729
H255	H	1.321494	0.782733	0.930729
H256	H	1.571494	1.032733	1.180729
F257	F	0.739071	0.259442	0.343479
F258	F	0.989071	0.509442	0.593479
F259	F	1.239071	0.759442	0.843479
F260	F	1.489071	1.009442	1.093479
H261	H	0.259129	0.225476	-0.091875
H262	H	0.509129	0.475476	0.158125
H263	H	0.759129	0.725476	0.408125
H264	H	1.009129	0.975476	0.658125
H265	H	0.749911	0.243302	0.665867
H266	H	0.999911	0.493302	0.915867
H267	H	1.249911	0.743302	1.165867
H268	H	1.499911	0.993302	1.415867
H269	H	0.906746	0.008863	0.333907
H270	H	1.156746	0.258863	0.583907
H271	H	1.406746	0.508863	0.833907
H272	H	1.656746	0.758863	1.083907
H273	H	0.170435	0.122913	-0.119900
H274	H	0.420435	0.372913	0.130100
H275	H	0.670435	0.622913	0.380100
H276	H	0.920435	0.872913	0.630100
F277	F	0.739049	0.259435	0.186126
F278	F	0.989049	0.509435	0.436126
F279	F	1.239049	0.759435	0.686126
F280	F	1.489049	1.009435	0.936126
F281	F	0.029776	0.120101	-0.136417
F282	F	0.279776	0.370101	0.113583
F283	F	0.529776	0.620101	0.363583
F284	F	0.779776	0.870101	0.613583
H285	H	0.835156	-0.030559	0.569049
H286	H	1.085156	0.219441	0.819049
H287	H	1.335156	0.469441	1.069049
H288	H	1.585156	0.719441	1.319049
H289	H	0.486300	0.129253	-0.119866
H290	H	0.736300	0.379253	0.130134
H291	H	0.986300	0.629253	0.380134
H292	H	1.236300	0.879253	0.630134
H293	H	0.397519	0.026674	0.091650
H294	H	0.647519	0.276674	0.341650
H295	H	0.897519	0.526674	0.591650
H296	H	1.147519	0.776674	0.841650
F297	F	0.179413	0.123090	0.136144
F298	F	0.429413	0.373090	0.386144
F299	F	0.679413	0.623090	0.636144
F300	F	0.929413	0.873090	0.886144
H301	H	0.906779	0.008873	0.665832
H302	H	1.156779	0.258873	0.915832
H303	H	1.406779	0.508873	1.165832
H304	H	1.656779	0.758873	1.415832
F305	F	0.917590	-0.007285	0.813647
F306	F	1.167590	0.242715	1.063647
F307	F	1.417590	0.492715	1.313647
F308	F	1.667590	0.742715	1.563647
F309	F	0.739111	0.259456	0.813690
F310	F	0.989111	0.509456	1.063690
F311	F	1.239111	0.759456	1.313690
F312	F	1.489111	1.009456	1.563690
H313	H	0.265927	0.024029	0.091633
H314	H	0.515927	0.274029	0.341633
H315	H	0.765927	0.524029	0.591633
H316	H	1.015927	0.774029	0.841633
F317	F	0.029677	0.120088	0.136130
F318	F	0.279677	0.370088	0.386130
F319	F	0.529677	0.620088	0.636130
F320	F	0.779677	0.870088	0.886130
H321	H	0.486209	0.129250	0.119665
H322	H	0.736209	0.379250	0.369665
H323	H	0.986209	0.629250	0.619665
H324	H	1.236209	0.879250	0.869665
F325	F	0.626876	0.132085	0.136191
F326	F	0.876876	0.382085	0.386191
F327	F	1.126876	0.632085	0.636191
F328	F	1.376876	0.882085	0.886191
