data_functionalizedCrystal
_audit_creation_method	'MofGen! by Chris Wilmer'
_symmetry_space_group_name_H-M	'P1'
_symmetry_Int_Tables_number	1
_symmetry_cell_setting	triclinic
loop_
_symmetry_equiv_pos_as_xyz
  x,y,z
_cell_length_a	16.625548
_cell_length_b	19.805405
_cell_length_c	19.805399
_cell_angle_alpha	90.029301
_cell_angle_beta	90.020385
_cell_angle_gamma	90.026269
loop_
_atom_site_label
_atom_site_type_symbol
_atom_site_fract_x
_atom_site_fract_y
_atom_site_fract_z
Zn1	Zn	-1.232643	0.269481	-0.382726
Zn2	Zn	-1.232541	0.382670	-0.269535
Zn3	Zn	-1.097809	0.269500	-0.269549
Zn4	Zn	-1.097766	0.382634	-0.382680
O5	O	-1.165190	0.326071	-0.326122
O6	O	-1.345462	0.284504	-0.367724
O7	O	-1.214645	0.367680	-0.174820
O8	O	-1.115756	0.174781	-0.284588
O9	O	-1.345387	0.367663	-0.284563
O10	O	-1.214817	0.174767	-0.367739
O11	O	-1.115657	0.284535	-0.174831
O12	O	-0.984971	0.284500	-0.284543
O13	O	-1.115682	0.367601	-0.477402
O14	O	-0.984939	0.367619	-0.367659
O15	O	-1.214775	0.284468	-0.477437
O16	O	-1.214602	0.477382	-0.284518
O17	O	-1.115583	0.477355	-0.367645
C18	C	-0.955699	0.326058	-0.326098
C19	C	-0.866078	0.326068	-0.326104
C20	C	-1.165099	0.501927	-0.326090
C21	C	-1.165134	0.577159	-0.326098
C22	C	-1.165235	0.326029	-0.502665
C23	C	-1.165254	0.326010	-0.577897
C24	C	-0.537902	0.326067	-0.326124
C25	C	-0.629211	0.326065	-0.326116
C26	C	-0.701987	0.326068	-0.326113
C27	C	-0.793301	0.326066	-0.326107
C28	C	-0.375499	0.326081	-0.326141
C29	C	-0.465120	0.326073	-0.326132
C30	C	-1.165303	0.149528	-0.326170
C31	C	-1.165351	0.074296	-0.326190
C32	C	-1.216743	0.612495	-0.282859
C33	C	-1.216778	0.683183	-0.282874
C34	C	-1.165198	0.718535	-0.326125
C35	C	-1.113586	0.683194	-0.369369
C36	C	-1.113557	0.612507	-0.369357
C37	C	-1.113705	0.968267	-0.369419
C38	C	-1.113737	1.038960	-0.369427
C39	C	-1.216926	1.038943	-0.282936
C40	C	-1.216896	0.968256	-0.282924
C41	C	-1.165288	0.932922	-0.326170
C42	C	-1.165253	0.856274	-0.326155
C43	C	-1.165229	0.795182	-0.326138
C44	C	-1.216853	0.282721	-0.613260
C45	C	-1.216862	0.282702	-0.683949
C46	C	-1.165274	0.325975	-0.719273
C47	C	-1.113669	0.369266	-0.683905
C48	C	-1.113658	0.369282	-0.613218
C49	C	-1.113715	0.369203	-0.968978
C50	C	-1.113732	0.369185	-1.039671
C51	C	-1.216919	0.282623	-1.039709
C52	C	-1.216907	0.282638	-0.969022
C53	C	-1.165300	0.325927	-0.933660
C54	C	-1.165290	0.325947	-0.857012
C55	C	-1.165287	0.325959	-0.795920
C56	C	-1.165191	0.326065	-0.150266
C57	C	-1.165328	0.325892	-0.075035
H58	H	-1.258742	0.583716	-0.247636
O59	O	-1.266930	0.240492	-1.074091
C60	C	-1.221062	0.196771	-1.114993
H61	H	-1.157557	0.192590	-1.093681
H62	H	-1.250260	0.144684	-1.115811
H63	H	-1.218281	0.217682	-1.168561
O64	O	-1.267093	0.240694	-0.934674
C65	C	-1.319127	0.279231	-0.893763
H66	H	-1.324098	0.332534	-0.915050
H67	H	-1.381187	0.254742	-0.892967
H68	H	-1.294174	0.281579	-0.840189
O69	O	-1.063603	0.934027	-0.411513
C70	C	-1.081188	0.951233	-0.478991
H71	H	-1.112213	1.002531	-0.480427
H72	H	-1.022970	0.953681	-0.509288
H73	H	-1.122598	0.911403	-0.501824
O74	O	-1.063663	0.411346	-0.934671
C75	C	-1.081218	0.478805	-0.951940
H76	H	-1.145640	0.482233	-0.971366
H77	H	-1.074217	0.512255	-0.905447
H78	H	-1.037995	0.496474	-0.992971
O79	O	-1.063594	0.717608	-0.411417
C80	C	-1.109486	0.758425	-0.455187
H81	H	-1.170612	0.768989	-0.431365
H82	H	-1.076657	0.808148	-0.464238
H83	H	-1.118298	0.731144	-0.505349
H84	H	-1.071663	0.404498	-0.712671
H85	H	-1.258865	0.247485	-0.584504
H86	H	-1.071720	0.404425	-1.068429
O87	O	-1.266886	0.933887	-0.240838
C88	C	-1.220997	0.893046	-0.197089
H89	H	-1.157504	0.914394	-0.192859
H90	H	-1.250198	0.892259	-0.145024
H91	H	-1.218181	0.839462	-0.218006
O92	O	-1.063519	0.411406	-0.578968
C93	C	-1.017979	0.449590	-0.625302
H94	H	-1.051008	0.451916	-0.675698
H95	H	-1.009353	0.502924	-0.604864
H96	H	-0.956753	0.424806	-0.632811
H97	H	-1.258802	0.711950	-0.247664
H98	H	-1.258951	1.067721	-0.247726
O99	O	-1.063661	1.073406	-0.411384
C100	C	-1.074769	1.143373	-0.402130
H101	H	-1.101210	1.153040	-0.349914
H102	H	-1.014384	1.170278	-0.406682
H103	H	-1.117695	1.163377	-0.442309
O104	O	-1.063350	0.578285	-0.411383
C105	C	-1.017846	0.624643	-0.449574
H106	H	-1.015087	0.675050	-0.421855
H107	H	-0.954306	0.604254	-0.456748
H108	H	-1.047346	0.632109	-0.501001
O109	O	-1.267065	0.240632	-0.718196
C110	C	-1.312584	0.202433	-0.671860
H111	H	-1.315347	0.230170	-0.621465
H112	H	-1.376121	0.195217	-0.692297
H113	H	-1.283095	0.151025	-0.664350
