data_functionalizedCrystal
_audit_creation_method	'MofGen! by Chris Wilmer'
_symmetry_space_group_name_H-M	'P1'
_symmetry_Int_Tables_number	1
_symmetry_cell_setting	triclinic
loop_
_symmetry_equiv_pos_as_xyz
  x,y,z
_cell_length_a	17.052862
_cell_length_b	16.704579
_cell_length_c	16.704494
_cell_angle_alpha	66.028929
_cell_angle_beta	90.887661
_cell_angle_gamma	52.186305
loop_
_atom_site_label
_atom_site_type_symbol
_atom_site_fract_x
_atom_site_fract_y
_atom_site_fract_z
Zr1	Zr	0.957051	0.551069	0.078448
O2	O	0.828847	0.731756	-0.049764
O3	O	0.987704	0.389096	0.109110
O4	O	1.008350	0.525159	-0.037702
O5	O	0.801753	0.609604	0.222687
O6	O	1.159783	0.483434	-0.018356
O7	O	0.808201	0.595692	0.097048
O8	O	1.122851	0.240041	0.244264
O9	O	0.838685	0.852997	-0.039933
O10	O	1.124238	0.417647	0.147066
O11	O	1.006414	0.459169	0.226391
O12	O	1.030721	0.619366	0.053539
O13	O	0.912897	0.660888	0.132864
Zr14	Zr	1.188284	0.506709	0.309682
Zr15	Zr	1.198568	0.484521	0.109303
Zr16	Zr	0.946767	0.573257	0.278828
Zr17	Zr	0.972741	0.744434	0.094127
Zr18	Zr	1.172594	0.313343	0.294003
O19	O	1.157631	0.668682	0.279020
O20	O	1.172254	0.637134	-0.005893
O21	O	0.814224	0.763304	0.235149
O22	O	1.316488	0.326022	0.437894
O23	O	1.331111	0.294474	0.152981
O24	O	0.973081	0.420644	0.394024
O25	O	1.343582	0.448174	0.165444
O26	O	1.136985	0.532618	0.425832
O27	O	0.985553	0.574344	0.406486
O28	O	1.337134	0.462086	0.291082
O29	O	1.030659	0.800101	-0.015408
O30	O	1.114676	0.257677	0.403538
O31	O	1.306650	0.204781	0.428063
O32	O	1.314825	0.187145	0.268789
O33	O	0.830510	0.870633	0.119342
O34	O	1.022484	0.817737	0.143867
O35	O	1.114614	0.438412	0.334591
O36	O	1.232438	0.396890	0.255266
O37	O	1.138922	0.598609	0.161739
O38	O	1.021097	0.640131	0.241064
C39	C	1.053042	0.287018	0.174453
C40	C	1.046381	0.204929	0.167797
C41	C	0.962543	0.171357	0.083942
C42	C	0.968798	0.248484	0.090206
C43	C	1.117713	0.084235	0.239129
C44	C	1.111458	0.007108	0.232865
C45	C	1.033871	0.050674	0.155268
C46	C	1.027622	-0.026458	0.149001
C47	C	1.176532	-0.190702	0.297927
C48	C	1.182787	-0.113575	0.304191
C49	C	0.770566	0.612129	0.155471
C50	C	0.668036	0.640381	0.142373
C51	C	0.574283	0.298824	0.300731
C52	C	0.670618	0.272276	0.313034
C53	C	0.669978	0.364300	0.270370
C54	C	0.572992	0.482876	0.215401
C55	C	0.476649	0.509426	0.203091
C56	C	0.572343	0.574902	0.172730
C57	C	0.475358	0.693478	0.117760
C58	C	0.379025	0.720022	0.105453
C59	C	0.379665	0.627999	0.148117
C60	C	0.668687	0.548352	0.185039
C61	C	0.571052	0.758954	0.087399
C62	C	0.474717	0.785501	0.075096
C63	C	1.374769	0.445648	0.232659
C64	C	1.477299	0.417397	0.245758
C65	C	1.085532	0.501135	-0.056579
C66	C	1.089898	0.491716	-0.141645
C67	C	1.092293	0.770760	0.213677
C68	C	1.098954	0.852849	0.220334
C69	C	1.000479	0.684625	-0.399144
C70	C	1.004578	0.675780	-0.479074
C71	C	1.102203	0.465181	-0.381436
C72	C	1.098103	0.474025	-0.301506
C73	C	1.047238	0.583752	-0.310365
C74	C	1.043132	0.592597	-0.230434
C75	C	1.140763	0.381997	-0.132797
C76	C	1.144863	0.373152	-0.212727
C77	C	1.059804	0.556643	0.444709
C78	C	1.055438	0.566062	0.529775
C79	C	1.355143	0.203777	0.213047
C80	C	1.451013	0.093437	0.219489
C81	C	1.040178	0.314771	0.425097
C82	C	1.029151	0.242102	0.503507
C83	C	1.342279	0.231531	0.463691
C84	C	1.433783	0.130610	0.555199
C85	C	0.803056	0.826247	-0.075561
C86	C	0.711552	0.927168	-0.167069
C87	C	0.790192	0.854001	0.175083
C88	C	0.694322	0.964341	0.168641
C89	C	1.105157	0.743006	-0.036967
C90	C	1.116184	0.815676	-0.115377
C91	C	1.439556	0.052454	0.166027
C92	C	1.529628	-0.051210	0.172061
C93	C	1.631156	-0.113895	0.231563
C94	C	1.642612	-0.072904	0.285027
C95	C	1.552541	0.030764	0.278987
C96	C	1.080452	0.197142	0.596817
C97	C	1.070087	0.128874	0.670499
C98	C	1.008428	0.105560	0.650870
C99	C	0.957121	0.150529	0.557551
C100	C	0.967480	0.218803	0.483870
C101	C	1.538268	0.061540	0.556767
C102	C	1.624256	-0.033278	0.642743
C103	C	1.605756	-0.059030	0.727150
C104	C	1.501261	0.010051	0.725580
C105	C	1.415276	0.104872	0.639605
C106	C	0.607068	0.996247	-0.168636
C107	C	0.521082	1.091089	-0.254610
C108	C	0.539582	1.116845	-0.339017
C109	C	0.644077	1.047759	-0.337447
C110	C	0.730061	0.952924	-0.251474
C111	C	0.705781	1.005330	0.222096
C112	C	0.615711	1.109014	0.216042
C113	C	0.514183	1.171702	0.156537
C114	C	0.502727	1.130707	0.103076
C115	C	0.592796	1.027030	0.109126
C116	C	1.177851	0.838965	-0.095718
C117	C	1.188233	0.907230	-0.169383
C118	C	1.136940	0.952212	-0.262706
C119	C	1.075270	0.928917	-0.282364
C120	C	1.064896	0.860645	-0.208699
H121	H	0.964450	0.009019	0.085815
H122	H	0.395740	0.882047	0.030339
Cl123	Cl	0.258556	0.661369	0.132662
H124	H	1.143628	0.375844	-0.374239
H125	H	1.520279	-0.084571	0.128522
H126	H	0.966503	0.757921	-0.551359
Cl127	Cl	1.478023	-0.022340	0.831701
H128	H	1.704488	-0.198308	0.236473
H129	H	1.180875	0.048785	0.302308
Cl130	Cl	0.865021	0.226115	-0.013614
H131	H	0.420051	1.181763	0.054628
Cl132	Cl	0.630137	1.160523	0.283261
H133	H	1.330202	0.161101	0.638341
H134	H	0.440852	1.256121	0.151619
Cl135	Cl	1.566963	0.082264	0.346213
Cl136	Cl	1.755609	-0.120109	0.644695
Cl137	Cl	0.578371	0.975508	0.041924
H138	H	1.219622	0.802350	-0.019735
H139	H	0.591985	0.975287	-0.099917
H140	H	1.725288	-0.123957	0.333473
H141	H	0.570527	0.833887	0.052657
H142	H	1.130661	0.216115	0.612817
Cl143	Cl	0.792533	0.123216	0.382135
Cl144	Cl	0.979190	0.730536	-0.241570
Cl145	Cl	1.149989	1.038043	-0.355304
H146	H	0.574791	0.223911	0.335458
H147	H	1.238448	0.926190	-0.153359
H148	H	1.014675	0.841694	-0.224719
H149	H	1.186280	0.283816	-0.205527
H150	H	1.111873	0.092266	0.746478
H151	H	1.245953	-0.149031	0.367370
H152	H	1.675781	-0.136243	0.797150
H153	H	0.910708	0.346751	0.032129
Cl154	Cl	1.199542	0.255180	-0.021182
H155	H	0.925707	0.255400	0.407894
H156	H	0.436006	1.147326	-0.255871
Cl157	Cl	0.790598	0.399290	0.254142
H158	H	1.033510	0.965551	-0.358357
H159	H	1.356895	0.103489	0.117563
H160	H	1.000002	0.049966	0.710875
Cl161	Cl	0.879612	0.121207	0.532890
H162	H	1.553350	0.082490	0.488047
Cl163	Cl	0.257102	0.869089	0.036342
Cl164	Cl	0.431474	1.236070	-0.447093
H165	H	0.959050	0.773971	-0.406360
H166	H	0.659127	1.068742	-0.406182
Cl167	Cl	0.861409	0.866083	-0.249521
H168	H	0.748420	0.342678	0.280391
Cl169	Cl	1.266216	-0.342431	0.387593
Cl170	Cl	0.833406	0.926548	0.296905
