data_functionalizedCrystal
_audit_creation_method	'MofGen! by Chris Wilmer'
_symmetry_space_group_name_H-M	'P1'
_symmetry_Int_Tables_number	1
_symmetry_cell_setting	triclinic
loop_
_symmetry_equiv_pos_as_xyz
  x,y,z
_cell_length_a	16.625548
_cell_length_b	21.295417
_cell_length_c	16.625539
_cell_angle_alpha	90.033373
_cell_angle_beta	90.020568
_cell_angle_gamma	90.031575
loop_
_atom_site_label
_atom_site_type_symbol
_atom_site_fract_x
_atom_site_fract_y
_atom_site_fract_z
Zn1	Zn	1.232635	-0.250590	0.455881
Zn2	Zn	1.565969	0.082743	0.789214
Zn3	Zn	1.899302	0.416077	1.122548
Zn4	Zn	1.232520	-0.355864	0.321036
Zn5	Zn	1.565853	-0.022530	0.654370
Zn6	Zn	1.899186	0.310803	0.987703
Zn7	Zn	1.097797	-0.250614	0.321061
Zn8	Zn	1.431131	0.082719	0.654395
Zn9	Zn	1.764464	0.416053	0.987728
Zn10	Zn	1.097749	-0.355827	0.455826
Zn11	Zn	1.431082	-0.022494	0.789159
Zn12	Zn	1.764415	0.310839	1.122493
O13	O	1.165175	-0.303224	0.388451
O14	O	1.498509	0.030110	0.721785
O15	O	1.831842	0.363443	1.055118
O16	O	1.345452	-0.264560	0.438006
O17	O	1.678786	0.068773	0.771339
O18	O	2.012119	0.402107	1.104673
O19	O	1.214620	-0.341927	0.208207
O20	O	1.547954	-0.008594	0.541540
O21	O	1.881287	0.324740	0.874874
O22	O	1.115753	-0.162522	0.338979
O23	O	1.449086	0.170812	0.672312
O24	O	1.782419	0.504145	1.005646
O25	O	1.345367	-0.341904	0.338936
O26	O	1.678701	-0.008571	0.672269
O27	O	2.012034	0.324763	1.005603
O28	O	1.214818	-0.162504	0.438030
O29	O	1.548151	0.170829	0.771364
O30	O	1.881484	0.504163	1.104697
O31	O	1.115640	-0.264601	0.208226
O32	O	1.448974	0.068732	0.541559
O33	O	1.782307	0.402066	0.874892
O34	O	0.984958	-0.264566	0.338926
O35	O	1.318292	0.068768	0.672259
O36	O	1.651625	0.402101	1.005593
O37	O	1.115670	-0.341842	0.568666
O38	O	1.449003	-0.008509	0.901999
O39	O	1.782337	0.324824	1.235332
O40	O	0.984923	-0.341866	0.437937
O41	O	1.318256	-0.008532	0.771270
O42	O	1.651589	0.324801	1.104604
O43	O	1.214771	-0.264525	0.568706
O44	O	1.548104	0.068808	0.902039
O45	O	1.881437	0.402142	1.235373
O46	O	1.214573	-0.443948	0.338883
O47	O	1.547907	-0.110615	0.672216
O48	O	1.881240	0.222719	1.005550
O49	O	1.115558	-0.443922	0.437912
O50	O	1.448891	-0.110588	0.771246
O51	O	1.782224	0.222745	1.104579
C52	C	0.955684	-0.303215	0.388429
C53	C	1.289018	0.030119	0.721762
C54	C	1.622351	0.363452	1.055095
C55	C	0.866063	-0.303226	0.388438
C56	C	1.199397	0.030107	0.721771
C57	C	1.532730	0.363441	1.055105
C58	C	0.537888	-0.303230	0.388473
C59	C	0.871221	0.030103	0.721806
C60	C	1.204554	0.363436	1.055139
C61	C	0.629196	-0.303227	0.388460
C62	C	0.962529	0.030106	0.721794
C63	C	1.295863	0.363439	1.055127
C64	C	0.701973	-0.303229	0.388455
C65	C	1.035306	0.030105	0.721788
C66	C	1.368639	0.363438	1.055121
C67	C	0.793287	-0.303225	0.388444
C68	C	1.126620	0.030108	0.721777
C69	C	1.459954	0.363442	1.055111
C70	C	1.165070	-0.466775	0.388407
C71	C	1.498403	-0.133442	0.721740
C72	C	1.831736	0.199891	1.055073
C73	C	1.165098	-0.536744	0.388414
C74	C	1.498431	-0.203410	0.721748
C75	C	1.831765	0.129923	1.055081
C76	C	1.216701	-0.569603	0.336903
C77	C	1.550035	-0.236270	0.670236
C78	C	1.883368	0.097064	1.003569
C79	C	1.216739	-0.635346	0.336921
C80	C	1.550073	-0.302012	0.670254
C81	C	1.883406	0.031321	1.003587
C82	C	1.165159	-0.668226	0.388442
C83	C	1.498493	-0.334893	0.721776
C84	C	1.831826	-0.001559	1.055109
C85	C	1.113552	-0.635359	0.439964
C86	C	1.446886	-0.302025	0.773297
C87	C	1.780219	0.031308	1.106631
C88	C	1.113522	-0.569617	0.439950
C89	C	1.446855	-0.236284	0.773283
C90	C	1.780188	0.097049	1.106617
N91	N	1.094624	-0.771493	0.394581
N92	N	1.427958	-0.438159	0.727915
N93	N	1.761291	-0.104826	1.061248
N94	N	1.094656	-0.833944	0.394590
N95	N	1.427989	-0.500611	0.727923
N96	N	1.761322	-0.167277	1.061257
C97	C	1.165250	-0.866301	0.388488
C98	C	1.498583	-0.532967	0.721822
C99	C	1.831916	-0.199634	1.055155
N100	N	1.235813	-0.833847	0.382362
N101	N	1.569146	-0.500513	0.715696
N102	N	1.902479	-0.167180	1.049029
N103	N	1.235780	-0.771389	0.382350
N104	N	1.569114	-0.438056	0.715683
N105	N	1.902447	-0.104723	1.049016
C106	C	1.165187	-0.739511	0.388463
C107	C	1.498520	-0.406178	0.721797
C108	C	1.831854	-0.072845	1.055130
C109	C	1.216898	-0.970446	0.336994
C110	C	1.550232	-0.637112	0.670327
C111	C	1.883565	-0.303779	1.003660
C112	C	1.216937	-1.036189	0.337017
C113	C	1.550271	-0.702856	0.670351
C114	C	1.883604	-0.369523	1.003684
C115	C	1.113743	-1.036201	0.440056
C116	C	1.447077	-0.702868	0.773390
C117	C	1.780410	-0.369534	1.106723
C118	C	1.113711	-0.970459	0.440037
C119	C	1.447045	-0.637125	0.773370
C120	C	1.780378	-0.303792	1.106704
C121	C	1.165288	-0.937585	0.388501
C122	C	1.498621	-0.604252	0.721834
C123	C	1.831954	-0.270918	1.055168
C124	C	1.375484	-0.303233	0.388474
C125	C	1.708817	0.030100	0.721808
C126	C	2.042151	0.363433	1.055141
C127	C	1.465105	-0.303237	0.388484
C128	C	1.798439	0.030096	0.721817
C129	C	2.131772	0.363429	1.055151
C130	C	1.165228	-0.303177	0.598760
C131	C	1.498561	0.030156	0.932094
C132	C	1.831894	0.363490	1.265427
C133	C	1.165250	-0.303157	0.688381
C134	C	1.498583	0.030176	1.021715
C135	C	1.831917	0.363510	1.355048
C136	C	1.165303	-0.139033	0.388514
C137	C	1.498637	0.194300	0.721847
C138	C	1.831970	0.527633	1.055180
C139	C	1.165358	-0.069065	0.388540
C140	C	1.498691	0.264268	0.721874
C141	C	1.832025	0.597601	1.055207
C142	C	1.165169	-0.303225	0.178960
C143	C	1.498503	0.030108	0.512294
C144	C	1.831836	0.363442	0.845627
C145	C	1.165303	-0.303068	0.089340
C146	C	1.498637	0.030266	0.422673
C147	C	1.831970	0.363599	0.756006
C148	C	1.165287	-0.303086	1.016557
C149	C	1.498621	0.030247	1.349891
C150	C	1.831954	0.363580	1.683224
C151	C	1.165275	-0.303108	0.925249
C152	C	1.498608	0.030225	1.258582
C153	C	1.831941	0.363559	1.591915
C154	C	1.165269	-0.303122	0.852472
C155	C	1.498602	0.030211	1.185806
C156	C	1.831936	0.363544	1.519139
C157	C	1.165256	-0.303143	0.761158
C158	C	1.498589	0.030191	1.094491
C159	C	1.831922	0.363524	1.427825
H160	H	1.258700	-0.542839	0.294941
H161	H	1.592033	-0.209506	0.628275
H162	H	1.925366	0.123827	0.961608
H163	H	1.071688	-0.943703	0.481979
H164	H	1.405021	-0.610369	0.815313
H165	H	1.738354	-0.277036	1.148646
C166	C	1.273136	-1.071754	0.281136
C167	C	1.606470	-0.738421	0.614469
C168	C	1.939803	-0.405088	0.947803
C169	C	1.352874	-1.055640	0.298781
C170	C	1.686207	-0.722307	0.632114
C171	C	2.019541	-0.388973	0.965447
C172	C	1.404683	-1.088369	0.247313
C173	C	1.738016	-0.755036	0.580646
C174	C	2.071350	-0.421702	0.913980
H175	H	1.265920	-1.115632	0.288449
H176	H	1.599254	-0.782299	0.621783
H177	H	1.932587	-0.448965	0.955116
H178	H	1.261415	-1.060998	0.226936
H179	H	1.594748	-0.727665	0.560269
H180	H	1.928082	-0.394332	0.893602
H181	H	1.364591	-1.066400	0.352968
H182	H	1.697925	-0.733067	0.686302
H183	H	2.031258	-0.399734	1.019635
H184	H	1.360116	-1.011768	0.291463
H185	H	1.693449	-0.678435	0.624796
H186	H	2.026782	-0.345101	0.958129
H187	H	1.392962	-1.077613	0.193113
H188	H	1.726295	-0.744280	0.526446
H189	H	2.059628	-0.410946	0.859779
H190	H	1.397460	-1.132245	0.254630
H191	H	1.730793	-0.798912	0.587964
H192	H	2.064126	-0.465578	0.921297
H193	H	1.458790	-1.077436	0.259273
H194	H	1.792123	-0.744102	0.592606
H195	H	2.125457	-0.410769	0.925940
H196	H	1.258764	-0.662105	0.294974
H197	H	1.592097	-0.328772	0.628307
H198	H	1.925430	0.004562	0.961640
C199	C	1.057520	-0.670941	0.495991
C200	C	1.390853	-0.337607	0.829324
C201	C	1.724186	-0.004274	1.162657
C202	C	1.012333	-0.628089	0.541116
C203	C	1.345667	-0.294755	0.874450
C204	C	1.679000	0.038578	1.207783
C205	C	0.960717	-0.660843	0.592749
C206	C	1.294051	-0.327509	0.926082
C207	C	1.627384	0.005824	1.259416
H208	H	1.022344	-0.696631	0.465211
H209	H	1.355677	-0.363298	0.798544
H210	H	1.689011	-0.029964	1.131877
H211	H	1.088339	-0.696531	0.531198
H212	H	1.421673	-0.363198	0.864531
H213	H	1.755006	-0.029864	1.197864
H214	H	0.981516	-0.602509	0.505914
H215	H	1.314849	-0.269176	0.839247
H216	H	1.648183	0.064158	1.172580
H217	H	1.047488	-0.602397	0.571913
H218	H	1.380821	-0.269063	0.905246
H219	H	1.714155	0.064270	1.238579
H220	H	0.991537	-0.686433	0.627956
H221	H	1.324870	-0.353100	0.961290
H222	H	1.658204	-0.019766	1.294623
H223	H	0.925547	-0.686532	0.561963
H224	H	1.258880	-0.353199	0.895296
H225	H	1.592214	-0.019865	1.228629
H226	H	0.930058	-0.631773	0.623378
H227	H	1.263391	-0.298439	0.956711
H228	H	1.596724	0.034894	1.290045
C229	C	1.057623	-0.533904	0.495977
C230	C	1.390956	-0.200570	0.829310
C231	C	1.724289	0.132763	1.162643
C232	C	1.103231	-0.496108	0.547701
C233	C	1.436564	-0.162775	0.881034
C234	C	1.769898	0.170559	1.214368
C235	C	1.051764	-0.463205	0.599329
C236	C	1.385097	-0.129871	0.932663
C237	C	1.718430	0.203462	1.265996
H238	H	1.022479	-0.508251	0.465187
H239	H	1.355813	-0.174918	0.798521
H240	H	1.689146	0.158415	1.131854
H241	H	1.026923	-0.562879	0.526714
H242	H	1.360257	-0.229546	0.860048
H243	H	1.693590	0.103788	1.193381
H244	H	1.133917	-0.467136	0.516966
H245	H	1.467250	-0.133802	0.850300
H246	H	1.800583	0.199531	1.183633
H247	H	1.138372	-0.521744	0.578508
H248	H	1.471706	-0.188411	0.911841
H249	H	1.805039	0.144922	1.245175
H250	H	1.021064	-0.492180	0.630067
H251	H	1.354398	-0.158847	0.963401
H252	H	1.687731	0.174487	1.296734
H253	H	1.016623	-0.437556	0.568533
H254	H	1.349956	-0.104223	0.901867
H255	H	1.683289	0.229111	1.235200
H256	H	1.082701	-0.437561	0.634435
H257	H	1.416035	-0.104228	0.967769
H258	H	1.749368	0.229106	1.301102
H259	H	1.071750	-1.062972	0.482010
H260	H	1.405083	-0.729638	0.815343
H261	H	1.738416	-0.396305	1.148677
C262	C	1.272850	-0.934828	0.280918
C263	C	1.606183	-0.601494	0.614252
C264	C	1.939517	-0.268161	0.947585
C265	C	1.255360	-0.950894	0.201130
C266	C	1.588694	-0.617560	0.534463
C267	C	1.922027	-0.284227	0.867797
C268	C	1.306892	-0.918103	0.149452
C269	C	1.640226	-0.584769	0.482785
C270	C	1.973559	-0.251436	0.816119
H271	H	1.265487	-0.890959	0.288175
H272	H	1.598820	-0.557625	0.621508
H273	H	1.932154	-0.224292	0.954841
H274	H	1.327039	-0.945566	0.292723
H275	H	1.660372	-0.612232	0.626056
H276	H	1.993705	-0.278899	0.959390
H277	H	1.201185	-0.940152	0.189330
H278	H	1.534518	-0.606818	0.522663
H279	H	1.867851	-0.273485	0.855996
H280	H	1.262728	-0.994757	0.193848
H281	H	1.596062	-0.661424	0.527182
H282	H	1.929395	-0.328090	0.860515
H283	H	1.361081	-0.928840	0.161257
H284	H	1.694414	-0.595507	0.494590
H285	H	2.027748	-0.262174	0.827923
H286	H	1.299525	-0.874235	0.156716
H287	H	1.632858	-0.540902	0.490049
H288	H	1.966192	-0.207569	0.823382
H289	H	1.295038	-0.929003	0.095311
H290	H	1.628371	-0.595670	0.428644
H291	H	1.961704	-0.262336	0.761978
