data_functionalizedCrystal
_audit_creation_method	'MofGen! by Chris Wilmer'
_symmetry_space_group_name_H-M	'P1'
_symmetry_Int_Tables_number	1
_symmetry_cell_setting	triclinic
loop_
_symmetry_equiv_pos_as_xyz
  x,y,z
_cell_length_a	18.215407
_cell_length_b	18.215405
_cell_length_c	18.215399
_cell_angle_alpha	89.972459
_cell_angle_beta	89.982632
_cell_angle_gamma	90.020175
loop_
_atom_site_label
_atom_site_type_symbol
_atom_site_fract_x
_atom_site_fract_y
_atom_site_fract_z
Zn1	Zn	1.125083	-0.293042	-0.416070
Zn2	Zn	1.625083	0.206958	0.083930
Zn3	Zn	1.124996	-0.416113	-0.293004
Zn4	Zn	1.624996	0.083887	0.206996
Zn5	Zn	1.002015	-0.293060	-0.293022
Zn6	Zn	1.502015	0.206940	0.206978
Zn7	Zn	1.001986	-0.416066	-0.416034
Zn8	Zn	1.501986	0.083934	0.083966
O9	O	1.063520	-0.354570	-0.354533
O10	O	1.563520	0.145430	0.145467
O11	O	1.228056	-0.309380	-0.399752
O12	O	1.728056	0.190620	0.100248
O13	O	1.108658	-0.399817	-0.190022
O14	O	1.608658	0.100183	0.309978
O15	O	1.018389	-0.190073	-0.309367
O16	O	1.518389	0.309927	0.190633
O17	O	1.227992	-0.399800	-0.309336
O18	O	1.727992	0.100200	0.190664
O19	O	1.108807	-0.190060	-0.399769
O20	O	1.608807	0.309940	0.100231
O21	O	1.018305	-0.309410	-0.190035
O22	O	1.518305	0.190590	0.309965
O23	O	0.899027	-0.309364	-0.309333
O24	O	1.399027	0.190636	0.190667
O25	O	1.018339	-0.399719	-0.519023
O26	O	1.518339	0.100281	-0.019023
O27	O	0.899006	-0.399736	-0.399709
O28	O	1.399006	0.100264	0.100291
O29	O	1.108778	-0.309334	-0.519049
O30	O	1.608778	0.190666	-0.019049
O31	O	1.108630	-0.519091	-0.309302
O32	O	1.608630	-0.019091	0.190698
O33	O	1.018255	-0.519056	-0.399692
O34	O	1.518255	-0.019056	0.100308
C35	C	0.872314	-0.354548	-0.354520
C36	C	1.372314	0.145452	0.145480
C37	C	0.790515	-0.354556	-0.354532
C38	C	1.290515	0.145444	0.145468
C39	C	0.602353	-0.307571	-0.401685
C40	C	1.102353	0.192429	0.098315
C41	C	0.525495	-0.307577	-0.401688
C42	C	1.025495	0.192423	0.098312
C43	C	0.525439	-0.401590	-0.307393
C44	C	1.025439	0.098410	0.192607
C45	C	0.602296	-0.401580	-0.307387
C46	C	1.102296	0.098420	0.192613
C47	C	0.640751	-0.354571	-0.354538
C48	C	1.140751	0.145429	0.145462
C49	C	0.487035	-0.354588	-0.354546
C50	C	0.987035	0.145412	0.145454
C51	C	0.403702	-0.354595	-0.354548
C52	C	0.903702	0.145405	0.145452
C53	C	0.724090	-0.354563	-0.354534
C54	C	1.224090	0.145437	0.145466
C55	C	1.063450	-0.545777	-0.354507
C56	C	1.563450	-0.045777	0.145493
C57	C	1.063487	-0.627575	-0.354521
C58	C	1.563487	-0.127575	0.145479
C59	C	1.110589	-0.815702	-0.401657
C60	C	1.610589	-0.315702	0.098343
C61	C	1.110616	-0.892560	-0.401671
C62	C	1.610616	-0.392560	0.098329
C63	C	1.016542	-0.892687	-0.307454
C64	C	1.516542	-0.392687	0.192546
C65	C	1.016512	-0.815830	-0.307444
C66	C	1.516512	-0.315830	0.192556
C67	C	1.063540	-0.777339	-0.354545
C68	C	1.563540	-0.277339	0.145455
C69	C	1.063596	-0.931055	-0.354568
C70	C	1.563596	-0.431055	0.145432
C71	C	1.063625	-1.014389	-0.354583
C72	C	1.563625	-0.514389	0.145417
C73	C	1.063511	-0.694000	-0.354531
C74	C	1.563511	-0.194000	0.145469
C75	C	1.255473	-0.354593	-0.354546
C76	C	1.755473	0.145407	0.145454
C77	C	1.337272	-0.354603	-0.354552
C78	C	1.837272	0.145397	0.145448
C79	C	1.063565	-0.354519	-0.546486
C80	C	1.563565	0.145481	-0.046486
C81	C	1.063584	-0.354498	-0.628284
C82	C	1.563584	0.145502	-0.128284
C83	C	1.063611	-0.162617	-0.354574
C84	C	1.563611	0.337383	0.145426
C85	C	1.063650	-0.080818	-0.354592
C86	C	1.563650	0.419182	0.145408
C87	C	1.110692	-0.307390	-0.816493
C88	C	1.610692	0.192610	-0.316493
C89	C	1.110701	-0.307369	-0.893352
C90	C	1.610701	0.192631	-0.393352
C91	C	1.016528	-0.401492	-0.893314
C92	C	1.516528	0.098508	-0.393314
C93	C	1.016516	-0.401509	-0.816456
C94	C	1.516516	0.098491	-0.316456
C95	C	1.063602	-0.354459	-0.778048
C96	C	1.563602	0.145541	-0.278048
C97	C	1.063623	-0.354421	-0.931764
C98	C	1.563623	0.145579	-0.431764
C99	C	1.063632	-0.354398	-1.015098
C100	C	1.563632	0.145602	-0.515098
C101	C	1.063592	-0.354481	-0.694709
C102	C	1.563592	0.145519	-0.194709
C103	C	1.063518	-0.354568	-0.163326
C104	C	1.563518	0.145432	0.336674
C105	C	1.063641	-0.354382	-0.081528
C106	C	1.563641	0.145618	0.418472
H107	H	0.633661	-0.269291	-0.440076
H108	H	1.133661	0.230709	0.059924
H109	H	0.978164	-0.439837	-0.785154
H110	H	1.478164	0.060163	-0.285154
H111	H	0.978193	-0.439799	-0.924595
H112	H	1.478193	0.060201	-0.424595
H113	H	0.494234	-0.269304	-0.440079
H114	H	0.994234	0.230696	0.059921
C115	C	0.483136	-0.453302	-0.255538
C116	C	0.983136	0.046698	0.244462
H117	H	0.431863	-0.446583	-0.262299
H118	H	0.931863	0.053417	0.237701
H119	H	0.495713	-0.442471	-0.206108
H120	H	0.995713	0.057529	0.293892
H121	H	0.495727	-0.502762	-0.266229
H122	H	0.995727	-0.002762	0.233771
H123	H	0.633561	-0.439853	-0.268990
H124	H	1.133561	0.060147	0.231010
C125	C	1.162311	-0.773361	-0.453469
C126	C	1.662311	-0.273361	0.046531
H127	H	1.155561	-0.722092	-0.446712
H128	H	1.655561	-0.222092	0.053288
H129	H	1.151515	-0.785934	-0.502907
H130	H	1.651515	-0.285934	-0.002907
H131	H	1.211772	-0.785928	-0.442741
H132	H	1.711772	-0.285928	0.057259
C133	C	1.162374	-0.934756	-0.453491
C134	C	1.662374	-0.434756	0.046509
H135	H	1.190380	-0.900823	-0.481535
H136	H	1.690380	-0.400823	0.018465
H137	H	1.134218	-0.964739	-0.485537
H138	H	1.634218	-0.464739	0.014463
H139	H	1.194470	-0.964731	-0.425366
H140	H	1.694470	-0.464731	0.074634
C141	C	0.964823	-0.935029	-0.255640
C142	C	1.464823	-0.435029	0.244360
H143	H	0.971584	-0.986297	-0.262386
H144	H	1.471584	-0.486297	0.237614
H145	H	0.915364	-0.922466	-0.266359
H146	H	1.415364	-0.422466	0.233641
H147	H	0.975627	-0.922452	-0.206200
H148	H	1.475627	-0.422452	0.293800
C149	C	0.964757	-0.773628	-0.255616
C150	C	1.464757	-0.273628	0.244384
H151	H	0.936760	-0.807558	-0.227559
H152	H	1.436760	-0.307558	0.272441
H153	H	0.932664	-0.743652	-0.283735
H154	H	1.432664	-0.243652	0.216265
H155	H	0.992923	-0.743645	-0.223572
H156	H	1.492923	-0.243645	0.276428
H157	H	1.149046	-0.269039	-0.924651
H158	H	1.649046	0.230961	-0.424651
C159	C	1.162476	-0.255629	-0.774246
C160	C	1.662476	0.244371	-0.274246
H161	H	1.190516	-0.227588	-0.808154
H162	H	1.690516	0.272412	-0.308154
H163	H	1.194527	-0.283784	-0.744259
H164	H	1.694527	0.216216	-0.244259
H165	H	1.134324	-0.223567	-0.744272
H166	H	1.634324	0.276433	-0.244272
