data_functionalizedCrystal
_audit_creation_method	'MofGen! by Chris Wilmer'
_symmetry_space_group_name_H-M	'P1'
_symmetry_Int_Tables_number	1
_symmetry_cell_setting	triclinic
loop_
_symmetry_equiv_pos_as_xyz
  x,y,z
_cell_length_a	15.944551
_cell_length_b	9.065218
_cell_length_c	8.140239
_cell_angle_alpha	90.001686
_cell_angle_beta	89.993086
_cell_angle_gamma	95.742688
loop_
_atom_site_label
_atom_site_type_symbol
_atom_site_fract_x
_atom_site_fract_y
_atom_site_fract_z
O1	O	1.115964	-0.190270	-0.136767
O2	O	1.615964	0.309730	0.363233
O3	O	0.871592	-0.213728	-0.136734
O4	O	1.371592	0.286272	0.363266
O5	O	0.998829	0.012762	-0.136748
O6	O	1.498829	0.512762	0.363252
O7	O	0.988727	-0.416759	-0.136753
O8	O	1.488727	0.083241	0.363247
O9	O	0.998822	0.012764	0.136479
O10	O	1.498822	0.512764	0.636479
O11	O	0.871585	-0.213726	0.136493
O12	O	1.371585	0.286274	0.636493
O13	O	1.115956	-0.190267	0.136461
O14	O	1.615956	0.309733	0.636461
Zn15	Zn	0.993769	-0.201996	0.179857
Zn16	Zn	1.493769	0.298004	0.679857
Zn17	Zn	0.993779	-0.201999	-0.180131
Zn18	Zn	1.493779	0.298001	0.319869
O19	O	0.988719	-0.416757	0.136474
O20	O	1.488719	0.083243	0.636474
C21	C	0.840287	-0.212753	-0.000116
C22	C	1.340287	0.287247	0.499884
C23	C	0.747019	-0.209833	-0.000104
C24	C	1.247019	0.290167	0.499896
C25	C	1.147261	-0.191242	-0.000161
C26	C	1.647261	0.308758	0.499839
C27	C	1.240530	-0.194162	-0.000184
C28	C	1.740530	0.305838	0.499816
C29	C	0.997854	0.067727	-0.000137
C30	C	1.497854	0.567727	0.499863
C31	C	0.994951	0.231502	-0.000144
C32	C	1.494951	0.731502	0.499856
C33	C	1.456503	-0.341529	-0.000148
C34	C	1.956503	0.158471	0.499852
C35	C	1.517008	-0.273098	-0.134861
C36	C	2.017008	0.226902	0.365139
C37	C	1.411295	-0.199444	-0.000160
C38	C	1.911295	0.300556	0.499840
C39	C	1.516978	-0.273062	0.134519
C40	C	2.016978	0.226938	0.634519
C41	C	1.576247	-0.204556	-0.000130
C42	C	2.076247	0.295444	0.499870
C43	C	1.470572	-0.130973	-0.134984
C44	C	1.970572	0.369027	0.365016
C45	C	1.470536	-0.130957	0.134517
C46	C	1.970536	0.369043	0.634517
C47	C	1.531023	-0.062422	-0.000229
C48	C	2.031023	0.437578	0.499771
C49	C	1.316271	-0.196502	-0.000179
C50	C	1.816271	0.303498	0.499821
C51	C	1.671270	-0.207486	-0.000123
C52	C	2.171270	0.292514	0.499877
C53	C	0.989694	-0.471722	-0.000141
C54	C	1.489694	0.028278	0.499859
C55	C	0.992597	-0.635497	-0.000144
C56	C	1.492597	-0.135497	0.499856
N57	N	0.993769	-0.201993	0.425540
N58	N	1.493769	0.298007	0.925540
N59	N	0.993786	-0.201991	-0.425814
N60	N	1.493786	0.298009	0.074186
H61	H	1.537580	-0.333198	-0.248748
H62	H	2.037580	0.166802	0.251252
N63	N	1.415825	-0.489469	-0.000275
N64	N	1.915825	0.010531	0.499725
N65	N	1.428946	-0.576129	0.114212
N66	N	1.928946	-0.076129	0.614212
H67	H	1.400214	-0.680607	0.114119
H68	H	1.900214	-0.180607	0.614119
H69	H	1.450132	-0.070932	-0.249005
H70	H	1.950132	0.429068	0.250995
H71	H	1.563282	0.055622	-0.000295
H72	H	2.063282	0.555622	0.499705
H73	H	1.449946	-0.070911	0.248415
H74	H	1.949946	0.429089	0.748415
N75	N	1.542757	-0.348453	0.277398
N76	N	2.042757	0.151547	0.777398
N77	N	1.619100	-0.361800	0.300895
N78	N	2.119100	0.138200	0.800895
H79	H	1.637305	-0.415052	0.401798
H80	H	2.137305	0.084948	0.901798
