data_functionalizedCrystal
_audit_creation_method	'MofGen! by Chris Wilmer'
_symmetry_space_group_name_H-M	'P1'
_symmetry_Int_Tables_number	1
_symmetry_cell_setting	triclinic
loop_
_symmetry_equiv_pos_as_xyz
  x,y,z
_cell_length_a	12.811438
_cell_length_b	10.868271
_cell_length_c	12.837942
_cell_angle_alpha	90.000785
_cell_angle_beta	89.413151
_cell_angle_gamma	84.571681
loop_
_atom_site_label
_atom_site_type_symbol
_atom_site_fract_x
_atom_site_fract_y
_atom_site_fract_z
O1	O	1.406631	-0.054663	0.139706
O2	O	1.906631	0.445337	0.639706
O3	O	1.102569	-0.020726	0.154889
O4	O	1.602569	0.479274	0.654889
O5	O	1.247858	-0.036950	-0.003635
O6	O	1.747858	0.463050	0.496365
O7	O	1.261342	-0.038439	0.298229
O8	O	1.761342	0.461561	0.798229
O9	O	1.247844	-0.241593	-0.003629
O10	O	1.747844	0.258407	0.496371
O11	O	1.102555	-0.225369	0.154894
O12	O	1.602555	0.274631	0.654894
O13	O	1.406617	-0.259306	0.139711
O14	O	1.906617	0.240694	0.639711
Zn15	Zn	1.254584	-0.274829	0.147303
Zn16	Zn	1.754584	0.225171	0.647303
Zn17	Zn	1.254602	-0.005203	0.147297
Zn18	Zn	1.754602	0.494797	0.647297
O19	O	1.261328	-0.243083	0.298235
O20	O	1.761328	0.256917	0.798235
C21	C	1.063373	-0.118674	0.154040
C22	C	1.563373	0.381326	0.654040
C23	C	0.946602	-0.105641	0.151489
C24	C	1.446602	0.394359	0.651489
C25	C	0.782022	0.024265	0.147891
C26	C	1.282022	0.524265	0.647891
C27	C	0.891739	0.012030	0.150287
C28	C	1.391739	0.512030	0.650287
C29	C	0.891739	-0.211085	0.150292
C30	C	1.391739	0.288915	0.650292
C31	C	0.782022	-0.198850	0.147896
C32	C	1.282022	0.301150	0.647896
C33	C	0.727167	-0.081171	0.146697
C34	C	1.227167	0.418829	0.646697
C35	C	0.617447	-0.068937	0.144308
C36	C	1.117447	0.431063	0.644308
C37	C	0.617449	-0.292050	0.144306
C38	C	1.117449	0.207950	0.644306
C39	C	0.727166	-0.304286	0.146702
C40	C	1.227166	0.195714	0.646702
N41	N	1.254579	-0.458843	0.147307
N42	N	1.754579	0.041157	0.647307
C43	C	1.254587	-0.570181	0.147308
C44	C	1.754587	-0.070181	0.647308
C45	C	1.254600	-0.709860	0.147298
C46	C	1.754600	-0.209860	0.647298
C47	C	1.445813	-0.161356	0.140560
C48	C	1.945813	0.338644	0.640560
C49	C	1.562585	-0.174380	0.143111
C50	C	2.062585	0.325620	0.643111
C51	C	1.243296	-0.138762	-0.042272
C52	C	1.743296	0.361238	0.457728
C53	C	1.229710	-0.137244	-0.157408
C54	C	1.729710	0.362756	0.342592
N55	N	1.254615	0.178810	0.147284
N56	N	1.754615	0.678810	0.647284
C57	C	1.393038	-0.155447	-0.397659
C58	C	1.893038	0.344553	0.102341
C59	C	1.380277	-0.154021	-0.505840
C60	C	1.880277	0.345979	-0.005840
C61	C	1.191430	-0.132956	-0.481954
C62	C	1.691430	0.367044	0.018046
C63	C	1.204190	-0.134382	-0.373773
C64	C	1.704190	0.365618	0.126227
C65	C	1.304997	-0.145630	-0.331630
C66	C	1.804997	0.354370	0.168370
C67	C	1.317757	-0.147065	-0.223446
C68	C	1.817757	0.352935	0.276554
C69	C	1.128910	-0.125992	-0.199562
C70	C	1.628910	0.374008	0.300438
C71	C	1.116149	-0.124565	-0.307743
C72	C	1.616149	0.375435	0.192257
C73	C	1.265891	-0.141267	0.336872
C74	C	1.765891	0.358733	0.836872
C75	C	1.279477	-0.142778	0.452008
C76	C	1.779477	0.357222	0.952008
H77	H	0.572786	0.026883	0.143337
H78	H	1.072786	0.526883	0.643337
H79	H	0.737358	0.120084	0.146926
H80	H	1.237358	0.620084	0.646926
F81	F	0.950137	-0.336317	0.151566
F82	F	1.450137	0.163683	0.651566
F83	F	1.473983	-0.164466	-0.576111
F84	F	1.973983	0.335534	-0.076111
H85	H	1.034075	-0.115403	-0.342071
H86	H	1.534075	0.384597	0.157929
H87	H	0.771844	-0.400096	0.147674
H88	H	1.271844	0.099904	0.647674
H89	H	0.936398	0.097887	0.151259
H90	H	1.436398	0.597887	0.651259
F91	F	0.559060	-0.404270	0.143042
F92	F	1.059060	0.095730	0.643042
H93	H	1.399839	-0.156228	-0.189136
H94	H	1.899839	0.343772	0.310864
H95	H	1.109357	-0.123786	-0.516286
H96	H	1.609357	0.376214	-0.016286
H97	H	1.475119	-0.164618	-0.363346
H98	H	1.975119	0.335382	0.136654
F99	F	1.035205	-0.115556	-0.129280
F100	F	1.535205	0.384444	0.370720
