data_functionalizedCrystal
_audit_creation_method	'MofGen! by Chris Wilmer'
_symmetry_space_group_name_H-M	'P1'
_symmetry_Int_Tables_number	1
_symmetry_cell_setting	triclinic
loop_
_symmetry_equiv_pos_as_xyz
  x,y,z
_cell_length_a	14.044220
_cell_length_b	14.044220
_cell_length_c	13.101039
_cell_angle_alpha	93.659868
_cell_angle_beta	86.332523
_cell_angle_gamma	93.188878
loop_
_atom_site_label
_atom_site_type_symbol
_atom_site_fract_x
_atom_site_fract_y
_atom_site_fract_z
O1	O	-0.225348	-1.281968	-0.085109
O2	O	-0.217041	-1.005298	-0.085135
O3	O	-0.082860	-1.139480	-0.085112
O4	O	-0.359530	-1.147787	-0.085132
O5	O	-0.092504	-1.129854	0.085316
O6	O	-0.226686	-0.995673	0.085293
O7	O	-0.234993	-1.272343	0.085319
Zn8	Zn	-0.232371	-1.132479	0.112365
Zn9	Zn	-0.219663	-1.145162	-0.112181
O10	O	-0.369175	-1.138161	0.085296
C11	C	-0.218228	-0.964864	0.000076
C12	C	-0.207383	-0.858722	0.000066
C13	C	-0.052060	-1.131031	0.000102
C14	C	0.054083	-1.120187	0.000102
C15	C	-0.399974	-1.146610	0.000080
C16	C	-0.506116	-1.157455	0.000073
C17	C	0.248421	-1.100362	0.000086
C18	C	0.299551	-1.177276	0.000090
C19	C	0.407688	-1.166245	0.000080
C20	C	0.140275	-1.111391	0.000095
C21	C	-0.233806	-1.312777	0.000106
C22	C	-0.244651	-1.418920	0.000109
N23	N	-0.241043	-1.123831	0.265612
C24	C	-0.187558	-0.664383	0.000088
C25	C	-0.264472	-0.613253	0.000087
C26	C	-0.253441	-0.505116	0.000099
C27	C	-0.198587	-0.772529	0.000076
N28	N	-0.210984	-1.153817	-0.265428
C29	C	-0.252851	-1.112065	0.474653
C30	C	-0.199179	-1.165580	0.525538
C31	C	-0.205749	-1.159034	0.641855
C32	C	-0.246282	-1.118610	0.358325
H33	H	0.262115	-1.251413	0.000028
H34	H	-0.148295	-1.216314	0.481744
H35	H	-0.338605	-0.650693	0.000077
Cl36	Cl	-0.331413	-1.033744	0.542261
Cl37	Cl	0.306222	-0.985913	0.000070
Cl38	Cl	-0.073108	-0.606582	0.000098
