data_functionalizedCrystal
_audit_creation_method	'MofGen! by Chris Wilmer'
_symmetry_space_group_name_H-M	'P1'
_symmetry_Int_Tables_number	1
_symmetry_cell_setting	triclinic
loop_
_symmetry_equiv_pos_as_xyz
  x,y,z
_cell_length_a	11.169417
_cell_length_b	15.297328
_cell_length_c	15.297021
_cell_angle_alpha	88.356278
_cell_angle_beta	99.700673
_cell_angle_gamma	99.709439
loop_
_atom_site_label
_atom_site_type_symbol
_atom_site_fract_x
_atom_site_fract_y
_atom_site_fract_z
Zn1	Zn	1.645811	-0.263183	-0.555616
Zn2	Zn	1.634089	-0.434986	-0.434447
Zn3	Zn	1.473118	-0.288515	-0.409138
Zn4	Zn	1.405480	-0.409638	-0.580906
O5	O	1.539624	-0.349081	-0.495027
O6	O	1.812203	-0.285980	-0.539550
O7	O	1.636137	-0.436765	-0.308494
O8	O	1.529239	-0.162565	-0.407393
O9	O	1.803590	-0.412202	-0.450528
O10	O	1.656116	-0.143954	-0.515010
O11	O	1.517872	-0.329154	-0.289900
O12	O	1.296199	-0.304576	-0.431916
O13	O	1.413959	-0.369001	-0.700147
O14	O	1.246506	-0.393565	-0.558113
O15	O	1.590530	-0.261401	-0.681566
O16	O	1.570550	-0.554213	-0.475051
O17	O	1.402592	-0.535591	-0.582654
C18	C	1.227806	-0.349069	-0.495013
C19	C	1.094398	-0.349082	-0.495032
C20	C	1.477988	-0.576685	-0.534362
C21	C	1.451724	-0.674050	-0.551219
C22	C	1.351882	-0.710131	-0.615130
C23	C	1.327210	-0.801608	-0.630976
C24	C	1.402384	-0.857014	-0.582918
C25	C	1.502233	-0.820933	-0.519011
C26	C	1.526902	-0.729447	-0.503158
C27	C	1.577403	-0.876330	-0.470946
C28	C	1.677252	-0.840249	-0.407039
C29	C	1.701916	-0.748771	-0.391189
C30	C	1.626743	-0.693366	-0.439247
C31	C	1.552734	-0.967816	-0.486799
C32	C	1.727753	-0.987132	-0.374827
C33	C	1.752425	-0.895654	-0.358981
C34	C	1.852661	-0.349093	-0.495041
C35	C	1.986058	-0.349098	-0.495047
C36	C	1.496007	-0.309548	-0.723533
C37	C	1.477420	-0.292702	-0.820908
C38	C	1.601530	-0.120584	-0.455557
C39	C	1.627911	-0.023213	-0.438738
C40	C	1.583158	-0.388396	-0.267399
C41	C	1.602044	-0.404996	-0.169981
C42	C	1.406293	-0.229278	0.142895
C43	C	1.388535	-0.213687	0.051365
C44	C	1.441911	-0.261513	-0.003976
C45	C	1.513047	-0.324933	0.032222
C46	C	1.530799	-0.340531	0.123759
C47	C	1.566417	-0.372765	-0.023111
C48	C	1.637553	-0.436185	0.013086
C49	C	1.655302	-0.451779	0.104615
C50	C	1.601926	-0.403954	0.159956
C51	C	1.548666	-0.357167	-0.114649
C52	C	1.673172	-0.468419	-0.133784
C53	C	1.690929	-0.484010	-0.042255
H54	H	1.471440	-0.997183	-0.538837
H55	H	1.713207	-0.503432	0.134082
F56	F	1.653078	-0.595991	-0.422454
F57	F	1.376160	-0.954367	-0.599817
H58	H	1.330612	-0.162053	0.021900
H59	H	1.245906	-0.830980	-0.683003
H60	H	1.783211	-0.719396	-0.339145
H61	H	1.748849	-0.535648	-0.012770
F62	F	1.271888	-0.651161	-0.666266
H63	H	1.833723	-0.866265	-0.306946
F64	F	1.472962	-0.289671	-0.153162
F65	F	1.807758	-1.046095	-0.323672
H66	H	1.427450	-0.248813	-0.078503
H67	H	1.362834	-0.190351	0.187960
H68	H	1.616386	-0.416642	0.234488
H69	H	1.716638	-0.507360	-0.178843
