data_functionalizedCrystal
_audit_creation_method	'MofGen! by Chris Wilmer'
_symmetry_space_group_name_H-M	'P1'
_symmetry_Int_Tables_number	1
_symmetry_cell_setting	triclinic
loop_
_symmetry_equiv_pos_as_xyz
  x,y,z
_cell_length_a	10.686154
_cell_length_b	10.686285
_cell_length_c	10.685986
_cell_angle_alpha	98.412590
_cell_angle_beta	80.970730
_cell_angle_gamma	90.342528
loop_
_atom_site_label
_atom_site_type_symbol
_atom_site_fract_x
_atom_site_fract_y
_atom_site_fract_z
Zn1	Zn	-1.911631	0.313857	-0.543061
Zn2	Zn	-1.946575	0.539949	-0.312075
Zn3	Zn	-1.718141	0.344009	-0.344584
Zn4	Zn	-1.718164	0.539848	-0.540520
O5	O	-1.823628	0.434416	-0.435060
O6	O	-2.092834	0.331272	-0.499879
O7	O	-1.930887	0.526618	-0.137719
O8	O	-1.729173	0.163430	-0.385581
O9	O	-2.118507	0.497380	-0.330174
O10	O	-1.871330	0.141277	-0.531401
O11	O	-1.763057	0.382662	-0.161603
O12	O	-1.541576	0.382565	-0.383117
O13	O	-1.729214	0.497209	-0.719526
O14	O	-1.541594	0.526447	-0.527071
O15	O	-1.871354	0.331174	-0.721392
O16	O	-1.930910	0.716515	-0.327711
O17	O	-1.763098	0.716441	-0.495548
C18	C	-1.495803	0.457768	-0.458346
C19	C	-1.355559	0.467786	-0.468336
C20	C	-1.850830	0.762259	-0.407852
C21	C	-1.862579	0.902500	-0.396246
C22	C	-1.796389	0.410817	-0.768081
C23	C	-1.784781	0.400761	-0.909995
C24	C	-1.152732	0.410962	-0.411676
C25	C	-1.292976	0.400938	-0.401693
C26	C	-1.796351	0.105289	-0.462401
C27	C	-1.784728	-0.034966	-0.474051
C28	C	-1.850826	0.457827	-0.103337
C29	C	-1.862649	0.467510	0.038563
H30	H	-1.301842	0.532694	-0.533031
O31	O	-1.952715	0.545031	-0.884596
C32	C	-1.932914	0.670491	-0.908565
H33	H	-1.876799	0.669782	-1.008636
H34	H	-1.877627	0.722859	-0.834626
C35	C	-2.130691	0.738621	-0.776541
C36	C	-2.061779	0.737751	-0.899454
H37	H	-2.210179	0.780114	-0.770916
H38	H	-2.144030	0.654098	-0.760388
H39	H	-2.084604	0.782260	-0.714939
H40	H	-2.107858	0.694100	-0.961052
H41	H	-2.048450	0.822269	-0.915618
O42	O	-1.357015	0.323663	-0.324317
C43	C	-1.337540	0.362317	-0.197014
H44	H	-1.310145	0.466143	-0.184592
H45	H	-1.258232	0.302367	-0.174748
C46	C	-1.494054	0.217751	-0.120070
C47	C	-1.460417	0.345276	-0.104810
H48	H	-1.569847	0.207235	-0.063192
H49	H	-1.507172	0.191705	-0.205836
H50	H	-1.427953	0.167807	-0.101516
H51	H	-1.526509	0.395215	-0.123380
H52	H	-1.447312	0.371330	-0.019044
O53	O	-1.694658	0.900838	-0.564251
C54	C	-1.753363	0.813536	-0.647899
H55	H	-1.855366	0.845597	-0.645559
H56	H	-1.752709	0.716204	-0.616282
C57	C	-1.555300	0.766964	-0.788018
C58	C	-1.680579	0.806348	-0.785152
H59	H	-1.510402	0.762525	-0.872682
H60	H	-1.515747	0.825778	-0.731661
H61	H	-1.554773	0.685858	-0.761664
H62	H	-1.681105	0.887459	-0.811491
H63	H	-1.720130	0.747547	-0.841518
O64	O	-1.952821	0.966805	-0.306312
C65	C	-1.944866	1.097210	-0.314355
H66	H	-1.896835	1.111053	-0.414316
H67	H	-1.887094	1.144875	-0.240230
C68	C	-2.138096	1.139569	-0.165470
C69	C	-2.079112	1.156570	-0.288247
H70	H	-2.220904	1.176188	-0.149360
H71	H	-2.143454	1.051713	-0.160047
H72	H	-2.089939	1.179290	-0.103714
H73	H	-2.127260	1.116836	-0.350002
H74	H	-2.073766	1.244421	-0.293680
H75	H	-1.709236	0.335917	-0.974528
