data_functionalizedCrystal
_audit_creation_method	'MofGen! by Chris Wilmer'
_symmetry_space_group_name_H-M	'P1'
_symmetry_Int_Tables_number	1
_symmetry_cell_setting	triclinic
loop_
_symmetry_equiv_pos_as_xyz
  x,y,z
_cell_length_a	19.805405
_cell_length_b	19.805407
_cell_length_c	19.805399
_cell_angle_alpha	90.019197
_cell_angle_beta	90.027486
_cell_angle_gamma	90.023877
loop_
_atom_site_label
_atom_site_type_symbol
_atom_site_fract_x
_atom_site_fract_y
_atom_site_fract_z
Zn1	Zn	0.269548	-1.034729	-0.382713
Zn2	Zn	0.769548	-0.534729	0.117287
Zn3	Zn	0.382737	-1.034642	-0.269525
Zn4	Zn	0.882737	-0.534642	0.230475
Zn5	Zn	0.269559	-0.921544	-0.269539
Zn6	Zn	0.769559	-0.421544	0.230461
Zn7	Zn	0.382693	-0.921505	-0.382673
Zn8	Zn	0.882693	-0.421505	0.117327
O9	O	0.326134	-0.978105	-0.326112
O10	O	0.826134	-0.478105	0.173888
O11	O	0.284577	-1.129434	-0.367710
O12	O	0.784577	-0.629434	0.132290
O13	O	0.367746	-1.019619	-0.174810
O14	O	0.867746	-0.519619	0.325190
O15	O	0.174841	-0.936611	-0.284574
O16	O	0.674841	-0.436611	0.215426
O17	O	0.367736	-1.129370	-0.284551
O18	O	0.867736	-0.629370	0.215449
O19	O	0.174833	-1.019768	-0.367723
O20	O	0.674833	-0.519768	0.132277
O21	O	0.284596	-0.936526	-0.174820
O22	O	0.784596	-0.436526	0.325180
O23	O	0.284553	-0.826822	-0.284535
O24	O	0.784553	-0.326822	0.215465
O25	O	0.367661	-0.936545	-0.477395
O26	O	0.867661	-0.436545	0.022605
O27	O	0.367672	-0.826794	-0.367654
O28	O	0.867672	-0.326794	0.132346
O29	O	0.284534	-1.019730	-0.477424
O30	O	0.784534	-0.519730	0.022576
O31	O	0.477448	-1.019581	-0.284512
O32	O	0.977448	-0.519581	0.215488
O33	O	0.477416	-0.936460	-0.367641
O34	O	0.977416	-0.436460	0.132359
C35	C	0.326110	-0.802249	-0.326092
C36	C	0.826110	-0.302249	0.173908
C37	C	0.326115	-0.727017	-0.326099
C38	C	0.826115	-0.227017	0.173901
C39	C	0.282890	-0.691707	-0.369465
C40	C	0.782890	-0.191707	0.130535
C41	C	0.282892	-0.621019	-0.369466
C42	C	0.782892	-0.121019	0.130534
C43	C	0.326124	-0.585641	-0.326104
C44	C	0.826124	-0.085641	0.173896
C45	C	0.369350	-0.620956	-0.282733
C46	C	0.869350	-0.120956	0.217267
C47	C	0.369344	-0.691644	-0.282729
C48	C	0.869344	-0.191644	0.217271
C49	C	0.369375	-0.335883	-0.282747
C50	C	0.869375	0.164117	0.217253
C51	C	0.369379	-0.265191	-0.282755
C52	C	0.869379	0.234809	0.217245
C53	C	0.282923	-0.265258	-0.369483
C54	C	0.782923	0.234742	0.130517
C55	C	0.282917	-0.335945	-0.369479
C56	C	0.782917	0.164055	0.130521
C57	C	0.326141	-0.371254	-0.326107
C58	C	0.826141	0.128746	0.173893
C59	C	0.326137	-0.447903	-0.326105
C60	C	0.826137	0.052097	0.173895
C61	C	0.326131	-0.508994	-0.326108
C62	C	0.826131	-0.008994	0.173892
C63	C	0.501991	-0.978025	-0.326085
C64	C	1.001991	-0.478025	0.173915
C65	C	0.577222	-0.978052	-0.326096
C66	C	1.077222	-0.478052	0.173904
C67	C	0.612561	-1.021375	-0.282857
C68	C	1.112561	-0.521375	0.217143
C69	C	0.683249	-1.021402	-0.282875
C70	C	1.183249	-0.521402	0.217125
C71	C	0.718598	-0.978103	-0.326128
C72	C	1.218598	-0.478103	0.173872
C73	C	0.683255	-0.934779	-0.369371
C74	C	1.183255	-0.434779	0.130629
C75	C	0.612568	-0.934755	-0.369357
C76	C	1.112568	-0.434755	0.130643
C77	C	0.968328	-0.934872	-0.369431
C78	C	1.468328	-0.434872	0.130569
C79	C	1.039020	-0.934897	-0.369440
C80	C	1.539020	-0.434897	0.130560
C81	C	1.039010	-1.021518	-0.282948
C82	C	1.539010	-0.521518	0.217052
C83	C	0.968322	-1.021495	-0.282934
C84	C	1.468322	-0.521495	0.217066
C85	C	0.932985	-0.978174	-0.326180
C86	C	1.432985	-0.478174	0.173820
C87	C	0.856337	-0.978146	-0.326161
C88	C	1.356337	-0.478146	0.173839
C89	C	0.795245	-0.978127	-0.326143
C90	C	1.295245	-0.478127	0.173857
C91	C	1.149592	-0.978198	-0.326162
C92	C	1.649592	-0.478198	0.173838
C93	C	1.074360	-0.978223	-0.326204
C94	C	1.574360	-0.478223	0.173796
C95	C	0.326092	-0.978143	-0.502655
C96	C	0.826092	-0.478143	-0.002655
C97	C	0.326074	-0.978159	-0.577887
C98	C	0.826074	-0.478159	-0.077887
C99	C	0.326155	-0.154648	-0.326128
C100	C	0.826155	0.345352	0.173872
C101	C	0.326150	-0.229880	-0.326118
C102	C	0.826150	0.270120	0.173882
C103	C	0.282787	-1.021475	-0.613248
C104	C	0.782787	-0.521475	-0.113248
C105	C	0.282768	-1.021482	-0.683937
C106	C	0.782768	-0.521482	-0.183937
C107	C	0.326038	-0.978176	-0.719263
C108	C	0.826038	-0.478176	-0.219263
C109	C	0.369327	-0.934856	-0.683897
C110	C	0.869327	-0.434856	-0.183897
C111	C	0.369342	-0.934846	-0.613210
C112	C	0.869342	-0.434846	-0.113210
C113	C	0.369264	-0.934894	-0.968971
C114	C	0.869264	-0.434894	-0.468971
C115	C	0.369246	-0.934908	-1.039663
C116	C	0.869246	-0.434908	-0.539663
C117	C	0.282689	-1.021530	-1.039697
C118	C	0.782689	-0.521530	-0.539697
C119	C	0.282705	-1.021520	-0.969010
C120	C	0.782705	-0.521520	-0.469010
C121	C	0.325990	-0.978197	-0.933650
C122	C	0.825990	-0.478197	-0.433650
C123	C	0.326010	-0.978189	-0.857002
C124	C	0.826010	-0.478189	-0.357002
C125	C	0.326022	-0.978187	-0.795910
C126	C	0.826022	-0.478187	-0.295910
C127	C	0.326128	-0.978106	-0.150256
C128	C	0.826128	-0.478106	0.349744
C129	C	0.325956	-0.978221	-0.075025
C130	C	0.825956	-0.478221	0.424975
H131	H	0.404585	-0.236389	-0.247442
H132	H	0.904585	0.263611	0.252558
Br133	Br	0.427975	-0.876133	-1.087606
Br134	Br	0.927975	-0.376133	-0.587606
H135	H	0.247553	-1.056742	-0.584490
H136	H	0.747553	-0.556742	-0.084490
Br137	Br	0.224051	-1.080302	-0.731924
Br138	Br	0.724051	-0.580302	-0.231924
Br139	Br	0.224249	-0.383954	-0.428334
Br140	Br	0.724249	0.116046	0.071666
H141	H	0.583796	-0.899479	-0.404567
H142	H	1.083796	-0.399479	0.095433
H143	H	0.404571	-0.364623	-0.247431
H144	H	0.904571	0.135377	0.252569
H145	H	0.247471	-1.056786	-0.940251
H146	H	0.747471	-0.556786	-0.440251
Br147	Br	0.223942	-1.080325	-1.087689
Br148	Br	0.723942	-0.580325	-0.587689
H149	H	0.404547	-0.592147	-0.247424
H150	H	0.904547	-0.092147	0.252576
Br151	Br	0.224260	-0.217336	-0.428347
Br152	Br	0.724260	0.282664	0.071653
Br153	Br	0.428007	-0.876097	-0.920991
Br154	Br	0.928007	-0.376097	-0.420991
H155	H	0.712041	-0.899527	-0.404592
H156	H	1.212041	-0.399527	0.095408
H157	H	0.404542	-0.720392	-0.247416
H158	H	0.904542	-0.220392	0.252584
Br159	Br	0.428048	-0.876078	-0.731839
Br160	Br	0.928048	-0.376078	-0.231839
H161	H	0.583784	-1.056631	-0.247633
H162	H	1.083784	-0.556631	0.252367
H163	H	0.712019	-1.056679	-0.247665
H164	H	1.212019	-0.556679	0.252335
H165	H	0.404584	-0.899567	-0.584420
H166	H	0.904584	-0.399567	-0.084420
Br167	Br	0.224221	-0.739712	-0.428321
Br168	Br	0.724221	-0.239712	0.071679
Br169	Br	0.224228	-0.573100	-0.428322
Br170	Br	0.724228	-0.073100	0.071678
H171	H	0.939544	-1.056751	-0.247711
H172	H	1.439544	-0.556751	0.252289
H173	H	1.067799	-0.899638	-0.404667
H174	H	1.567799	-0.399638	0.095333
Br175	Br	1.086971	-1.080315	-0.224258
Br176	Br	1.586971	-0.580315	0.275742
H177	H	0.939562	-0.899597	-0.404641
H178	H	1.439562	-0.399597	0.095359
