data_functionalizedCrystal
_audit_creation_method	'MofGen! by Chris Wilmer'
_symmetry_space_group_name_H-M	'P1'
_symmetry_Int_Tables_number	1
_symmetry_cell_setting	triclinic
loop_
_symmetry_equiv_pos_as_xyz
  x,y,z
_cell_length_a	12.759401
_cell_length_b	12.759394
_cell_length_c	12.759393
_cell_angle_alpha	90.030331
_cell_angle_beta	90.019125
_cell_angle_gamma	90.014285
loop_
_atom_site_label
_atom_site_type_symbol
_atom_site_fract_x
_atom_site_fract_y
_atom_site_fract_z
Zn1	Zn	1.606256	-0.418215	0.594008
Zn2	Zn	1.606150	-0.593933	0.418332
Zn3	Zn	1.430558	-0.418268	0.418345
Zn4	Zn	1.430547	-0.593851	0.593971
O5	O	1.518378	-0.506067	0.506164
O6	O	1.753263	-0.441536	0.570714
O7	O	1.582818	-0.570688	0.271313
O8	O	1.453913	-0.271240	0.441668
O9	O	1.753185	-0.570636	0.441645
O10	O	1.582998	-0.271200	0.570727
O11	O	1.453811	-0.441627	0.271323
O12	O	1.283535	-0.441547	0.441633
O13	O	1.453894	-0.570496	0.740997
O14	O	1.283527	-0.570547	0.570665
O15	O	1.582987	-0.441456	0.741024
O16	O	1.582807	-0.740944	0.441610
O17	O	1.453792	-0.740883	0.570651
C18	C	1.245410	-0.506045	0.506147
C19	C	1.128634	-0.506061	0.506164
C20	C	0.964020	-0.438825	0.439106
C21	C	1.073744	-0.438803	0.439096
C22	C	1.073793	-0.573338	0.573255
C23	C	0.964071	-0.573354	0.573270
C24	C	0.909136	-0.371570	0.372026
C25	C	0.963969	-0.304291	0.304936
C26	C	1.073693	-0.304269	0.304926
C27	C	1.128585	-0.371526	0.372005
C28	C	1.518316	-0.779034	0.506148
C29	C	1.518385	-0.895811	0.506176
C30	C	1.652952	-1.115244	0.371949
C31	C	1.720148	-1.060377	0.304807
C32	C	1.720094	-0.950656	0.304786
C33	C	1.652833	-0.895798	0.371913
C34	C	1.585636	-0.950665	0.439055
C35	C	1.585700	-1.060390	0.439071
C36	C	1.451188	-0.950678	0.573319
C37	C	1.451247	-1.060399	0.573346
C38	C	1.383927	-0.895821	0.640445
C39	C	1.316734	-0.950688	0.707594
C40	C	1.316793	-1.060416	0.707613
C41	C	1.384050	-1.115266	0.640489
C42	C	1.792411	-0.506089	0.506182
C43	C	1.909188	-0.506099	0.506190
C44	C	1.518451	-0.505961	0.780198
C45	C	1.518483	-0.505916	0.896974
C46	C	1.518469	-0.232033	0.506203
C47	C	1.518507	-0.115257	0.506220
C48	C	1.518365	-0.506096	0.233197
C49	C	1.518537	-0.505846	0.116421
C50	C	1.585710	-0.438718	0.951852
C51	C	1.585735	-0.438680	1.061576
C52	C	1.451302	-0.573046	1.061535
C53	C	1.451272	-0.573078	0.951813
C54	C	1.652921	-0.371556	0.897013
C55	C	1.720155	-0.304354	0.951891
C56	C	1.720180	-0.304316	1.061615
C57	C	1.652971	-0.371480	1.116462
H58	H	0.919425	-0.628131	0.627899
O59	O	1.378818	-0.645488	1.120683
H60	H	1.390139	-0.634181	1.206200
O61	O	1.792584	-0.891466	0.232390
H62	H	1.745573	-0.841545	0.178884
H63	H	1.652786	-0.806457	0.371881
O64	O	1.652992	-0.371443	1.234808
H65	H	1.711034	-0.313434	1.263757
H66	H	1.383884	-0.806480	0.640419
O67	O	1.133004	-0.645867	0.645600
H68	H	1.111932	-0.728310	0.627459
O69	O	1.244196	-0.891526	0.779991
H70	H	1.255447	-0.806013	0.768696
O71	O	1.792637	-0.231915	0.892737
H72	H	1.839381	-0.185174	0.949334
H73	H	0.819794	-0.371582	0.372025
O74	O	0.904775	-0.231770	0.232570
H75	H	0.819266	-0.243099	0.243831
O76	O	1.653016	-1.233587	0.371969
H77	H	1.674229	-1.262445	0.451234
H78	H	1.774917	-0.249590	1.106294
O79	O	1.246931	-0.371512	0.371994
H80	H	1.275885	-0.292290	0.393351
O81	O	1.792710	-1.119558	0.232439
H82	H	1.745758	-1.169642	0.178959
O83	O	1.652900	-0.371609	0.778669
H84	H	1.573658	-0.350384	0.749727
O85	O	1.132841	-0.231722	0.232559
H86	H	1.076239	-0.184972	0.185909
O87	O	1.384112	-1.233609	0.640498
H88	H	1.405325	-1.262479	0.719759
H89	H	1.262074	-1.105082	0.762290
O90	O	1.378763	-0.645551	0.892611
H91	H	1.332042	-0.692257	0.949175
