data_functionalizedCrystal
_audit_creation_method	'MofGen! by Chris Wilmer'
_symmetry_space_group_name_H-M	'P1'
_symmetry_Int_Tables_number	1
_symmetry_cell_setting	triclinic
loop_
_symmetry_equiv_pos_as_xyz
  x,y,z
_cell_length_a	16.120530
_cell_length_b	18.101397
_cell_length_c	16.120297
_cell_angle_alpha	87.130973
_cell_angle_beta	89.871860
_cell_angle_gamma	87.115827
loop_
_atom_site_label
_atom_site_type_symbol
_atom_site_fract_x
_atom_site_fract_y
_atom_site_fract_z
Zn1	Zn	1.247464	-0.375192	0.534538
Zn2	Zn	1.497464	-0.125192	0.784538
Zn3	Zn	1.747464	0.124808	1.034538
Zn4	Zn	1.997464	0.374808	1.284538
Zn5	Zn	1.254422	-0.493085	0.395472
Zn6	Zn	1.504422	-0.243085	0.645472
Zn7	Zn	1.754422	0.006915	0.895472
Zn8	Zn	2.004422	0.256915	1.145472
Zn9	Zn	1.115454	-0.362678	0.388457
Zn10	Zn	1.365454	-0.112678	0.638457
Zn11	Zn	1.615454	0.137322	0.888457
Zn12	Zn	1.865454	0.387322	1.138457
Zn13	Zn	1.108379	-0.492403	0.527442
Zn14	Zn	1.358379	-0.242403	0.777442
Zn15	Zn	1.608379	0.007597	1.027442
Zn16	Zn	1.858379	0.257597	1.277442
O17	O	1.181430	-0.430840	0.461477
O18	O	1.431430	-0.180840	0.711477
O19	O	1.681430	0.069160	0.961477
O20	O	1.931430	0.319160	1.211477
O21	O	1.364754	-0.396354	0.521997
O22	O	1.614754	-0.146354	0.771997
O23	O	1.864754	0.103646	1.021997
O24	O	2.114754	0.353646	1.271997
O25	O	1.241861	-0.470835	0.278177
O26	O	1.491861	-0.220835	0.528177
O27	O	1.741861	0.029165	0.778177
O28	O	1.991861	0.279165	1.028177
O29	O	1.133014	-0.260709	0.407869
O30	O	1.383014	-0.010709	0.657869
O31	O	1.633014	0.239291	0.907869
O32	O	1.883014	0.489291	1.157869
O33	O	1.369866	-0.482969	0.419826
O34	O	1.619866	-0.232969	0.669826
O35	O	1.869866	0.017031	0.919826
O36	O	2.119866	0.267031	1.169826
O37	O	1.230001	-0.269903	0.515194
O38	O	1.480001	-0.019903	0.765194
O39	O	1.730001	0.230097	1.015194
O40	O	1.980001	0.480097	1.265194
O41	O	1.139761	-0.375025	0.273023
O42	O	1.389761	-0.125025	0.523023
O43	O	1.639761	0.124975	0.773023
O44	O	1.889761	0.374975	1.023023
O45	O	0.998148	-0.374364	0.400988
O46	O	1.248148	-0.124364	0.650988
O47	O	1.498148	0.125636	0.900988
O48	O	1.748148	0.375636	1.150988
O49	O	1.120956	-0.481807	0.644748
O50	O	1.370956	-0.231807	0.894748
O51	O	1.620956	0.018193	1.144748
O52	O	1.870956	0.268193	1.394748
O53	O	0.992950	-0.469672	0.503099
O54	O	1.242950	-0.219672	0.753099
O55	O	1.492950	0.030328	1.003099
O56	O	1.742950	0.280328	1.253099
O57	O	1.223141	-0.395692	0.649962
O58	O	1.473141	-0.145692	0.899962
O59	O	1.723141	0.104308	1.149962
O60	O	1.973141	0.354308	1.399962
O61	O	1.235000	-0.596624	0.412944
O62	O	1.485000	-0.346624	0.662944
O63	O	1.735000	-0.096624	0.912944
O64	O	1.985000	0.153376	1.162944
O65	O	1.127703	-0.596123	0.509902
O66	O	1.377703	-0.346123	0.759902
O67	O	1.627703	-0.096123	1.009902
O68	O	1.877703	0.153877	1.259902
C69	C	0.965377	-0.420587	0.450513
C70	C	1.215377	-0.170587	0.700513
C71	C	1.465377	0.079413	0.950513
C72	C	1.715377	0.329413	1.200513
C73	C	0.872948	-0.416219	0.445842
C74	C	1.122948	-0.166219	0.695842
C75	C	1.372948	0.083781	0.945842
C76	C	1.622948	0.333781	1.195842
C77	C	0.703717	-0.408228	0.437321
C78	C	0.953717	-0.158228	0.687321
C79	C	1.203717	0.091772	0.937321
C80	C	1.453717	0.341772	1.187321
C81	C	0.659979	-0.453509	0.485695
C82	C	0.909979	-0.203509	0.735695
C83	C	1.159979	0.046491	0.985695
C84	C	1.409979	0.296491	1.235695
C85	C	0.565814	-0.449063	0.480954
C86	C	0.815814	-0.199063	0.730954
C87	C	1.065814	0.050937	0.980954
C88	C	1.315814	0.300937	1.230954
C89	C	0.797891	-0.412673	0.442061
C90	C	1.047891	-0.162673	0.692061
C91	C	1.297891	0.087327	0.942061
C92	C	1.547891	0.337327	1.192061
C93	C	1.181360	-0.623245	0.461434
C94	C	1.431360	-0.373245	0.711434
C95	C	1.681360	-0.123245	0.961434
C96	C	1.931360	0.126755	1.211434
C97	C	1.181406	-0.705562	0.461446
C98	C	1.431406	-0.455562	0.711446
C99	C	1.681406	-0.205562	0.961446
C100	C	1.931406	0.044438	1.211446
C101	C	1.181508	-1.004661	0.461528
C102	C	1.431508	-0.754661	0.711528
C103	C	1.681508	-0.504661	0.961528
C104	C	1.931508	-0.254661	1.211528
C105	C	1.248846	-0.973605	0.400344
C106	C	1.498846	-0.723605	0.650344
C107	C	1.748846	-0.473605	0.900344
C108	C	1.998846	-0.223605	1.150344
C109	C	1.249060	-0.888004	0.400522
C110	C	1.499060	-0.638004	0.650522
C111	C	1.749060	-0.388004	0.900522
C112	C	1.999060	-0.138004	1.150522
C113	C	1.181457	-0.856275	0.461487
C114	C	1.431457	-0.606275	0.711487
C115	C	1.681457	-0.356275	0.961487
C116	C	1.931457	-0.106275	1.211487
C117	C	1.200770	-0.892157	0.550340
C118	C	1.450770	-0.642157	0.800340
C119	C	1.700770	-0.392157	1.050340
C120	C	1.950770	-0.142157	1.300340
C121	C	1.201283	-0.977810	0.550014
C122	C	1.451283	-0.727810	0.800014
C123	C	1.701283	-0.477810	1.050014
C124	C	1.951283	-0.227810	1.300014
C125	C	1.094648	-0.968039	0.434609
C126	C	1.344648	-0.718039	0.684609
C127	C	1.594648	-0.468039	0.934609
C128	C	1.844648	-0.218039	1.184609
C129	C	1.095182	-0.882327	0.432674
C130	C	1.345182	-0.632327	0.682674
C131	C	1.595182	-0.382327	0.932674
C132	C	1.845182	-0.132327	1.182674
C133	C	1.181427	-0.772413	0.461469
C134	C	1.431427	-0.522413	0.711469
C135	C	1.681427	-0.272413	0.961469
C136	C	1.931427	-0.022413	1.211469
C137	C	1.181540	-1.088523	0.461552
C138	C	1.431540	-0.838523	0.711552
C139	C	1.681540	-0.588523	0.961552
C140	C	1.931540	-0.338523	1.211552
C141	C	1.398326	-0.441134	0.472485
C142	C	1.648326	-0.191134	0.722485
C143	C	1.898326	0.058866	0.972485
C144	C	2.148326	0.308866	1.222485
C145	C	1.490754	-0.445520	0.477176
C146	C	1.740754	-0.195520	0.727176
C147	C	1.990754	0.054480	0.977176
C148	C	2.240754	0.304480	1.227176
C149	C	1.170483	-0.440070	0.678371
C150	C	1.420483	-0.190070	0.928371
C151	C	1.670483	0.059930	1.178371
C152	C	1.920483	0.309930	1.428371
C153	C	1.165818	-0.444003	0.770798
C154	C	1.415818	-0.194003	1.020798
C155	C	1.665818	0.055997	1.270798
C156	C	1.915818	0.305997	1.520798
C157	C	1.181521	-0.237685	0.461541
C158	C	1.431521	0.012315	0.711541
C159	C	1.681521	0.262315	0.961541
C160	C	1.931521	0.512315	1.211541
C161	C	1.181560	-0.155374	0.461568
C162	C	1.431560	0.094626	0.711568
C163	C	1.681560	0.344626	0.961568
C164	C	1.931560	0.594626	1.211568
C165	C	1.192381	-0.421595	0.245430
C166	C	1.442381	-0.171595	0.495430
C167	C	1.692381	0.078405	0.745430
C168	C	1.942381	0.328405	0.995430
C169	C	1.197207	-0.417461	0.153012
C170	C	1.447207	-0.167461	0.403012
C171	C	1.697207	0.082539	0.653012
C172	C	1.947207	0.332539	0.903012
C173	C	1.157271	-0.451166	0.940022
C174	C	1.407271	-0.201166	1.190022
C175	C	1.657271	0.048834	1.440022
C176	C	1.907271	0.298834	1.690022
C177	C	1.205752	-0.410300	0.983793
C178	C	1.455752	-0.160300	1.233793
C179	C	1.705752	0.089700	1.483793
C180	C	1.955752	0.339700	1.733793
C181	C	1.200996	-0.414285	1.077955
C182	C	1.450996	-0.164285	1.327955
C183	C	1.700996	0.085715	1.577955
C184	C	1.950996	0.335715	1.827955
C185	C	1.162026	-0.447181	0.845851
C186	C	1.412026	-0.197181	1.095851
C187	C	1.662026	0.052819	1.345851
C188	C	1.912026	0.302819	1.595851
H189	H	1.237492	-0.863558	0.334778
H190	H	1.487492	-0.613558	0.584778
H191	H	1.737492	-0.363558	0.834778
H192	H	1.987492	-0.113558	1.084778
C193	C	1.336094	-0.865274	0.425066
C194	C	1.586094	-0.615274	0.675066
C195	C	1.836094	-0.365274	0.925066
C196	C	2.086094	-0.115274	1.175066
H197	H	1.336525	-0.812819	0.425252
H198	H	1.586525	-0.562819	0.675252
H199	H	1.836525	-0.312819	0.925252
H200	H	2.086525	-0.062819	1.175252
H201	H	1.349683	-0.886019	0.478911
H202	H	1.599683	-0.636019	0.728911
H203	H	1.849683	-0.386019	0.978911
H204	H	2.099683	-0.136019	1.228911
H205	H	1.375774	-0.882952	0.386165
H206	H	1.625774	-0.632952	0.636165
H207	H	1.875774	-0.382952	0.886165
H208	H	2.125774	-0.132952	1.136165
C209	C	1.285398	-0.868351	0.580808
C210	C	1.535398	-0.618351	0.830808
C211	C	1.785398	-0.368351	1.080808
C212	C	2.035398	-0.118351	1.330808
H213	H	1.296538	-0.890363	0.634625
H214	H	1.546538	-0.640363	0.884625
H215	H	1.796538	-0.390363	1.134625
H216	H	2.046538	-0.140363	1.384625
H217	H	1.327705	-0.884049	0.543550
H218	H	1.577705	-0.634049	0.793550
H219	H	1.827705	-0.384049	1.043550
H220	H	2.077705	-0.134049	1.293550
H221	H	1.284163	-0.815962	0.583048
H222	H	1.534163	-0.565962	0.833048
H223	H	1.784163	-0.315962	1.083048
H224	H	2.034163	-0.065962	1.333048
H225	H	0.670445	-0.366126	0.392350
H226	H	0.920445	-0.116126	0.642350
H227	H	1.170445	0.133874	0.892350
H228	H	1.420445	0.383874	1.142350
H229	H	1.237468	-0.990763	0.334414
H230	H	1.487468	-0.740763	0.584414
H231	H	1.737468	-0.490763	0.834414
H232	H	1.987468	-0.240763	1.084414
C233	C	1.266654	-0.358997	0.938888
C234	C	1.516654	-0.108997	1.188888
C235	C	1.766654	0.141003	1.438888
C236	C	2.016654	0.391003	1.688888
H237	H	1.261908	-0.363020	0.880574
H238	H	1.511908	-0.113020	1.130574
H239	H	1.761908	0.136980	1.380574
H240	H	2.011908	0.386980	1.630574
H241	H	1.253814	-0.309250	0.952460
H242	H	1.503814	-0.059250	1.202460
H243	H	1.753814	0.190750	1.452460
H244	H	2.003814	0.440750	1.702460
H245	H	1.321819	-0.373087	0.955917
H246	H	1.571819	-0.123087	1.205917
H247	H	1.821819	0.126913	1.455917
H248	H	2.071819	0.376913	1.705917
C249	C	0.704926	-0.510410	0.546428
C250	C	0.954926	-0.260410	0.796428
C251	C	1.204926	-0.010410	1.046428
C252	C	1.454926	0.239590	1.296428
H253	H	0.763238	-0.505984	0.541675
H254	H	1.013238	-0.255984	0.791675
H255	H	1.263238	-0.005984	1.041675
H256	H	1.513238	0.244016	1.291675
H257	H	0.687951	-0.501395	0.601631
H258	H	0.937951	-0.251395	0.851631
H259	H	1.187951	-0.001395	1.101631
H260	H	1.437951	0.248605	1.351631
H261	H	0.691330	-0.558966	0.533427
H262	H	0.941330	-0.308966	0.783427
H263	H	1.191330	-0.058966	1.033427
H264	H	1.441330	0.191034	1.283427
C265	C	1.335420	-1.007594	0.424627
C266	C	1.585420	-0.757594	0.674627
C267	C	1.835420	-0.507594	0.924627
C268	C	2.085420	-0.257594	1.174627
H269	H	1.330706	-1.040627	0.471893
H270	H	1.580706	-0.790627	0.721893
H271	H	1.830706	-0.540627	0.971893
H272	H	2.080706	-0.290627	1.221893
H273	H	1.358210	-1.033863	0.379656
H274	H	1.608210	-0.783863	0.629656
H275	H	1.858210	-0.533863	0.879656
H276	H	2.108210	-0.283863	1.129656
H277	H	1.370752	-0.969255	0.437333
H278	H	1.620752	-0.719255	0.687333
H279	H	1.870752	-0.469255	0.937333
H280	H	2.120752	-0.219255	1.187333
H281	H	1.264642	-1.001591	0.572299
H282	H	1.514642	-0.751591	0.822299
H283	H	1.764642	-0.501591	1.072299
H284	H	2.014642	-0.251591	1.322299
C285	C	1.137590	-1.005827	0.614029
C286	C	1.387590	-0.755827	0.864029
C287	C	1.637590	-0.505827	1.114029
C288	C	1.887590	-0.255827	1.364029
H289	H	1.111521	-0.964859	0.640124
H290	H	1.361521	-0.714859	0.890124
H291	H	1.611521	-0.464859	1.140124
H292	H	1.861521	-0.214859	1.390124
H293	H	1.096841	-1.031967	0.586739
H294	H	1.346841	-0.781967	0.836739
H295	H	1.596841	-0.531967	1.086739
H296	H	1.846841	-0.281967	1.336739
H297	H	1.165129	-1.037930	0.654735
H298	H	1.415129	-0.787930	0.904735
H299	H	1.665129	-0.537930	1.154735
H300	H	1.915129	-0.287930	1.404735
H301	H	1.153030	-0.871763	0.597344
H302	H	1.403030	-0.621763	0.847344
H303	H	1.653030	-0.371763	1.097344
H304	H	1.903030	-0.121763	1.347344
H305	H	1.076220	-0.985989	0.370708
H306	H	1.326220	-0.735989	0.620708
H307	H	1.576220	-0.485989	0.870708
H308	H	1.826220	-0.235989	1.120708
H309	H	1.080539	-0.858460	0.367264
H310	H	1.330539	-0.608460	0.617264
H311	H	1.580539	-0.358460	0.867264
H312	H	1.830539	-0.108460	1.117264
H313	H	1.042670	-0.860418	0.473617
H314	H	1.292670	-0.610418	0.723617
H315	H	1.542670	-0.360418	0.973617
H316	H	1.792670	-0.110418	1.223617
H317	H	1.044530	-0.988050	0.479117
H318	H	1.294530	-0.738050	0.729117
H319	H	1.544530	-0.488050	0.979117
H320	H	1.794530	-0.238050	1.229117
H321	H	1.112198	-0.489143	0.973265
H322	H	1.362198	-0.239143	1.223265
H323	H	1.612198	0.010857	1.473265
H324	H	1.862198	0.260857	1.723265
