data_functionalizedCrystal
_audit_creation_method	'MofGen! by Chris Wilmer'
_symmetry_space_group_name_H-M	'P1'
_symmetry_Int_Tables_number	1
_symmetry_cell_setting	triclinic
loop_
_symmetry_equiv_pos_as_xyz
  x,y,z
_cell_length_a	12.759401
_cell_length_b	12.645330
_cell_length_c	12.645331
_cell_angle_alpha	90.010682
_cell_angle_beta	90.006615
_cell_angle_gamma	90.017853
loop_
_atom_site_label
_atom_site_type_symbol
_atom_site_fract_x
_atom_site_fract_y
_atom_site_fract_z
Zn1	Zn	1.606110	-0.422175	0.599350
Zn2	Zn	1.606032	-0.599419	0.422090
Zn3	Zn	1.430449	-0.422170	0.422105
Zn4	Zn	1.430392	-0.599397	0.599316
O5	O	1.518246	-0.510790	0.510715
O6	O	1.753121	-0.445698	0.575844
O7	O	1.582731	-0.575914	0.273745
O8	O	1.453807	-0.273824	0.445637
O9	O	1.753063	-0.575918	0.445612
O10	O	1.582865	-0.273827	0.575859
O11	O	1.453731	-0.445690	0.273756
O12	O	1.283420	-0.445669	0.445604
O13	O	1.453710	-0.575881	0.747668
O14	O	1.283378	-0.575877	0.575801
O15	O	1.582810	-0.445677	0.747693
O16	O	1.582676	-0.747763	0.445579
O17	O	1.453634	-0.747747	0.575786
C18	C	1.245278	-0.510771	0.510701
C19	C	1.128502	-0.510788	0.510720
C20	C	1.073645	-0.578696	0.578401
C21	C	0.963921	-0.578709	0.578413
C22	C	0.963920	-0.442904	0.443053
C23	C	1.073642	-0.442886	0.443048
C24	C	1.073646	-0.657105	0.656547
C25	C	0.963921	-0.657118	0.656558
C26	C	1.518169	-0.786220	0.510701
C27	C	1.518232	-0.904050	0.510730
C28	C	1.437387	-1.071648	0.592895
C29	C	1.436973	-0.949089	0.592631
C30	C	1.488282	-0.948617	0.399010
C31	C	1.487788	-1.071215	0.399508
C32	C	1.629523	-1.071146	0.539378
C33	C	1.628841	-0.948540	0.541821
C34	C	1.792279	-0.510811	0.510731
C35	C	1.909056	-0.510819	0.510737
C36	C	1.518262	-0.510777	0.787221
C37	C	1.518270	-0.510771	0.905051
C38	C	1.518351	-0.234285	0.510754
C39	C	1.518396	-0.116455	0.510770
C40	C	1.599765	-0.429159	1.072630
C41	C	1.599531	-0.428819	0.950071
C42	C	1.407576	-0.480430	0.949535
C43	C	1.408043	-0.479855	1.072134
C44	C	1.546485	-0.622984	1.072247
C45	C	1.548934	-0.622375	0.949641
C46	C	1.518233	-0.510820	1.235286
C47	C	1.518262	-0.510803	1.117456
H48	H	1.103438	-0.635238	0.738687
H49	H	1.580857	-0.345693	0.920759
C50	C	1.714673	-0.907118	0.466893
N51	N	1.779319	-0.875922	0.410448
H52	H	1.384122	-0.397850	1.100745
C53	C	0.917967	-0.617549	0.761991
N54	N	0.883352	-0.587739	0.841398
C55	C	1.659382	-0.909142	0.652874
N56	N	1.682390	-0.879447	0.736514
H57	H	1.682104	-0.447942	1.102118
H58	H	1.407895	-0.918000	0.374336
C59	C	1.574843	-0.317508	1.114267
N60	N	1.556067	-0.233414	1.145628
C61	C	1.565460	-0.909197	0.314081
N62	N	1.623590	-0.879502	0.250114
C63	C	1.666436	-1.112834	0.647569
N64	N	1.694226	-1.144234	0.729063
H65	H	1.118301	-0.387582	0.387942
C66	C	1.711060	-1.110294	0.458575
N67	N	1.772466	-1.139787	0.397713
C68	C	1.323210	-0.556688	1.112194
N69	N	1.259309	-0.614551	1.142363
C70	C	1.653652	-0.660293	1.114021
N71	N	1.734374	-0.688383	1.145486
C72	C	0.903563	-0.368220	0.368614
N73	N	0.858104	-0.311967	0.312543
H74	H	1.354588	-0.919850	0.573679
C75	C	1.119605	-0.762397	0.616634
N76	N	1.154222	-0.841703	0.586570
H77	H	0.934126	-0.739194	0.634430
H78	H	1.681612	-0.447819	0.919995
C79	C	1.323318	-0.558257	0.910129
N80	N	1.259856	-0.616877	0.880443
H81	H	1.455709	-0.918955	0.675471
C82	C	1.374691	-0.370842	0.908088
N83	N	1.349929	-0.288296	0.876874
H84	H	1.406555	-1.099901	0.375273
C85	C	1.462457	-1.111418	0.705178
N86	N	1.481340	-1.141383	0.789751
H87	H	1.355517	-1.102545	0.574185
H88	H	1.544233	-1.100857	0.336232
C89	C	1.658980	-0.653292	0.910356
N90	N	1.741867	-0.676577	0.880757
H91	H	1.493899	-0.686455	0.918992
C92	C	1.466293	-0.705165	1.111414
N93	N	1.405891	-0.767056	1.140922
