data_functionalizedCrystal
_audit_creation_method	'MofGen! by Chris Wilmer'
_symmetry_space_group_name_H-M	'P1'
_symmetry_Int_Tables_number	1
_symmetry_cell_setting	triclinic
loop_
_symmetry_equiv_pos_as_xyz
  x,y,z
_cell_length_a	27.732048
_cell_length_b	27.732048
_cell_length_c	26.210047
_cell_angle_alpha	89.999521
_cell_angle_beta	89.996535
_cell_angle_gamma	82.642655
loop_
_atom_site_label
_atom_site_type_symbol
_atom_site_fract_x
_atom_site_fract_y
_atom_site_fract_z
O1	O	0.640931	0.057510	-0.042369
O2	O	0.890931	0.307510	0.207631
O3	O	1.140931	0.557510	0.457631
O4	O	1.390931	0.807510	0.707631
O5	O	0.500138	0.066256	-0.042385
O6	O	0.750138	0.316256	0.207615
O7	O	1.000138	0.566256	0.457615
O8	O	1.250138	0.816256	0.707615
O9	O	0.574907	-0.008514	-0.042367
O10	O	0.824907	0.241486	0.207633
O11	O	1.074907	0.491486	0.457633
O12	O	1.324907	0.741486	0.707633
O13	O	0.566162	0.132279	-0.042387
O14	O	0.816162	0.382279	0.207613
O15	O	1.066162	0.632279	0.457613
O16	O	1.316162	0.882279	0.707613
O17	O	0.574893	-0.008502	0.042491
O18	O	0.824893	0.241498	0.292491
O19	O	1.074893	0.491498	0.542491
O20	O	1.324893	0.741498	0.792491
O21	O	0.500123	0.066267	0.042473
O22	O	0.750123	0.316267	0.292473
O23	O	1.000123	0.566267	0.542473
O24	O	1.250123	0.816267	0.792473
O25	O	0.640917	0.057522	0.042489
O26	O	0.890917	0.307522	0.292489
O27	O	1.140917	0.557522	0.542489
O28	O	1.390917	0.807522	0.792489
Cu29	Cu	0.570519	0.061896	0.050229
Cu30	Cu	0.820519	0.311896	0.300229
Cu31	Cu	1.070519	0.561896	0.550229
Cu32	Cu	1.320519	0.811896	0.800229
Cu33	Cu	0.570536	0.061882	-0.050125
Cu34	Cu	0.820536	0.311882	0.199875
Cu35	Cu	1.070536	0.561882	0.449875
Cu36	Cu	1.320536	0.811882	0.699875
O37	O	0.566147	0.132291	0.042471
O38	O	0.816147	0.382291	0.292471
O39	O	1.066147	0.632291	0.542471
O40	O	1.316147	0.882291	0.792471
C41	C	0.482124	0.066078	0.000042
C42	C	0.732124	0.316078	0.250042
C43	C	0.982124	0.566078	0.500042
C44	C	1.232124	0.816078	0.750042
C45	C	0.428469	0.065525	0.000036
C46	C	0.678469	0.315525	0.250036
C47	C	0.928469	0.565525	0.500036
C48	C	1.178469	0.815525	0.750036
C49	C	0.089654	0.106229	0.000053
C50	C	0.339654	0.356229	0.250053
C51	C	0.589654	0.606229	0.500053
C52	C	0.839654	0.856229	0.750053
C53	C	-0.112006	0.104178	0.000057
C54	C	0.137994	0.354178	0.250057
C55	C	0.387994	0.604178	0.500057
C56	C	0.637994	0.854178	0.750057
O57	O	-0.143262	0.141398	0.000074
O58	O	0.106738	0.391398	0.250074
O59	O	0.356738	0.641398	0.500074
O60	O	0.606738	0.891398	0.750074
N61	N	-0.131130	0.059843	0.000063
N62	N	0.118870	0.309843	0.250063
N63	N	0.368870	0.559843	0.500063
N64	N	0.618870	0.809843	0.750063
C65	C	-0.099835	0.016017	0.000071
C66	C	0.150165	0.266017	0.250071
C67	C	0.400165	0.516017	0.500071
C68	C	0.650165	0.766017	0.750071
O69	O	-0.120728	-0.021740	0.000081
O70	O	0.129272	0.228260	0.250081
O71	O	0.379272	0.478260	0.500081
O72	O	0.629272	0.728260	0.750081
C73	C	0.101824	0.018068	0.000069
C74	C	0.351824	0.268068	0.250069
C75	C	0.601824	0.518068	0.500069
C76	C	0.851824	0.768068	0.750069
C77	C	0.120944	0.062407	0.000059
C78	C	0.370944	0.312407	0.250059
C79	C	0.620944	0.562407	0.500059
C80	C	0.870944	0.812407	0.750059
C81	C	0.108775	0.150563	0.000043
C82	C	0.358775	0.400563	0.250043
C83	C	0.608775	0.650563	0.500043
C84	C	0.858775	0.900563	0.750043
C85	C	0.159187	0.151076	0.000039
C86	C	0.409187	0.401076	0.250039
C87	C	0.659187	0.651076	0.500039
C88	C	0.909187	0.901076	0.750039
C89	C	0.190477	0.107253	0.000045
C90	C	0.440477	0.357253	0.250045
C91	C	0.690477	0.607253	0.500045
C92	C	0.940477	0.857253	0.750045
C93	C	0.171356	0.062919	0.000055
C94	C	0.421356	0.312919	0.250055
C95	C	0.671356	0.562919	0.500055
C96	C	0.921356	0.812919	0.750055
C97	C	0.133117	-0.025757	0.000081
C98	C	0.383117	0.224243	0.250081
C99	C	0.633117	0.474243	0.500081
C100	C	0.883117	0.724243	0.750081
C101	C	0.183535	-0.025240	0.000082
C102	C	0.433535	0.224760	0.250082
C103	C	0.683535	0.474760	0.500082
C104	C	0.933535	0.724760	0.750082
C105	C	0.202655	0.019098	0.000071
C106	C	0.452655	0.269098	0.250071
C107	C	0.702655	0.519098	0.500071
C108	C	0.952655	0.769098	0.750071
C109	C	0.253059	0.019609	0.000057
C110	C	0.503059	0.269609	0.250057
C111	C	0.753059	0.519609	0.500057
C112	C	1.003059	0.769609	0.750057
N113	N	0.272183	0.063944	0.000051
N114	N	0.522183	0.313944	0.250051
N115	N	0.772183	0.563944	0.500051
N116	N	1.022183	0.813944	0.750051
C117	C	0.240892	0.107766	0.000045
C118	C	0.490892	0.357766	0.250045
C119	C	0.740892	0.607766	0.500045
C120	C	0.990892	0.857766	0.750045
C121	C	-0.205709	0.014943	0.000070
C122	C	0.044291	0.264943	0.250070
C123	C	0.294291	0.514943	0.500070
C124	C	0.544291	0.764943	0.750070
C125	C	-0.256124	0.014430	0.000070
C126	C	-0.006124	0.264430	0.250070
C127	C	0.243876	0.514430	0.500070
C128	C	0.493876	0.764430	0.750070
C129	C	-0.268291	0.102591	0.000057
C130	C	-0.018291	0.352591	0.250057
C131	C	0.231709	0.602591	0.500057
C132	C	0.481709	0.852591	0.750057
C133	C	-0.217876	0.103104	0.000054
C134	C	0.032124	0.353104	0.250054
C135	C	0.282124	0.603104	0.500054
C136	C	0.532124	0.853104	0.750054
C137	C	-0.186585	0.059278	0.000065
C138	C	0.063415	0.309278	0.250065
C139	C	0.313415	0.559278	0.500065
C140	C	0.563415	0.809278	0.750065
C141	C	0.346761	0.108839	0.000036
C142	C	0.596761	0.358839	0.250036
C143	C	0.846761	0.608839	0.500036
C144	C	1.096761	0.858839	0.750036
C145	C	0.397178	0.109347	0.000030
C146	C	0.647178	0.359347	0.250030
C147	C	0.897178	0.609347	0.500030
C148	C	1.147178	0.859347	0.750030
C149	C	0.409341	0.021186	0.000045
C150	C	0.659341	0.271186	0.250045
C151	C	0.909341	0.521186	0.500045
C152	C	1.159341	0.771186	0.750045
C153	C	0.358929	0.020678	0.000049
C154	C	0.608929	0.270678	0.250049
C155	C	0.858929	0.520678	0.500049
C156	C	1.108929	0.770678	0.750049
C157	C	0.327639	0.064508	0.000046
C158	C	0.577639	0.314508	0.250046
C159	C	0.827639	0.564508	0.500046
C160	C	1.077639	0.814508	0.750046
O161	O	0.284343	-0.017592	0.000046
O162	O	0.534343	0.232408	0.250046
O163	O	0.784343	0.482408	0.500046
O164	O	1.034343	0.732408	0.750046
O165	O	0.261794	0.145518	0.000047
O166	O	0.511794	0.395518	0.250047
O167	O	0.761794	0.645518	0.500047
O168	O	1.011794	0.895518	0.750047
C169	C	0.039242	0.105716	0.000057
C170	C	0.289242	0.355716	0.250057
C171	C	0.539242	0.605716	0.500057
C172	C	0.789242	0.855716	0.750057
C173	C	0.020120	0.061382	0.000067
C174	C	0.270120	0.311382	0.250067
C175	C	0.520120	0.561382	0.500067
C176	C	0.770120	0.811382	0.750067
C177	C	0.051411	0.017560	0.000073
C178	C	0.301411	0.267560	0.250073
C179	C	0.551411	0.517560	0.500073
C180	C	0.801411	0.767560	0.750073
C181	C	-0.030294	0.060869	0.000066
C182	C	0.219706	0.310869	0.250066
C183	C	0.469706	0.560869	0.500066
C184	C	0.719706	0.810869	0.750066
C185	C	-0.061585	0.104691	0.000060
C186	C	0.188415	0.354691	0.250060
C187	C	0.438415	0.604691	0.500060
C188	C	0.688415	0.854691	0.750060
C189	C	-0.042461	0.149026	0.000054
C190	C	0.207539	0.399026	0.250054
C191	C	0.457539	0.649026	0.500054
C192	C	0.707539	0.899026	0.750054
C193	C	0.007951	0.149539	0.000050
C194	C	0.257951	0.399539	0.250050
C195	C	0.507951	0.649539	0.500050
C196	C	0.757951	0.899539	0.750050
C197	C	0.032287	-0.026775	0.000078
C198	C	0.282287	0.223225	0.250078
C199	C	0.532287	0.473225	0.500078
C200	C	0.782287	0.723225	0.750078
C201	C	-0.018125	-0.027284	0.000082
C202	C	0.231875	0.222716	0.250082
C203	C	0.481875	0.472716	0.500082
C204	C	0.731875	0.722716	0.750082
C205	C	-0.049416	0.016538	0.000076
C206	C	0.200584	0.266538	0.250076
C207	C	0.450584	0.516538	0.500076
C208	C	0.700584	0.766538	0.750076
C209	C	0.574716	-0.026515	0.000064
C210	C	0.824716	0.223485	0.250064
C211	C	1.074716	0.473485	0.500064
C212	C	1.324716	0.723485	0.750064
C213	C	0.574164	-0.080170	0.000068
C214	C	0.824164	0.169830	0.250068
C215	C	1.074164	0.419830	0.500068
C216	C	1.324164	0.669830	0.750068
C217	C	0.614867	-0.418985	0.000046
C218	C	0.864867	-0.168985	0.250046
C219	C	1.114867	0.081015	0.500046
C220	C	1.364867	0.331015	0.750046
C221	C	0.612816	-0.620645	0.000039
C222	C	0.862816	-0.370645	0.250039
C223	C	1.112816	-0.120645	0.500039
C224	C	1.362816	0.129355	0.750039
O225	O	0.650037	-0.651900	0.000021
O226	O	0.900037	-0.401900	0.250021
O227	O	1.150037	-0.151900	0.500021
O228	O	1.400037	0.098100	0.750021
N229	N	0.568481	-0.639768	0.000034
N230	N	0.818481	-0.389768	0.250034
N231	N	1.068481	-0.139768	0.500034
N232	N	1.318481	0.110232	0.750034
C233	C	0.524656	-0.608474	0.000028
C234	C	0.774656	-0.358474	0.250028
C235	C	1.024656	-0.108474	0.500028
C236	C	1.274656	0.141526	0.750028
O237	O	0.486899	-0.629367	0.000019
O238	O	0.736899	-0.379367	0.250019
O239	O	0.986899	-0.129367	0.500019
O240	O	1.236899	0.120633	0.750019
C241	C	0.526707	-0.406815	0.000032
C242	C	0.776707	-0.156815	0.250032
C243	C	1.026707	0.093185	0.500032
C244	C	1.276707	0.343185	0.750032
C245	C	0.571045	-0.387694	0.000042
C246	C	0.821045	-0.137694	0.250042
C247	C	1.071045	0.112306	0.500042
C248	C	1.321045	0.362306	0.750042
C249	C	0.659202	-0.399864	0.000056
C250	C	0.909202	-0.149864	0.250056
C251	C	1.159202	0.100136	0.500056
C252	C	1.409202	0.350136	0.750056
C253	C	0.659714	-0.349452	0.000060
C254	C	0.909714	-0.099452	0.250060
C255	C	1.159714	0.150548	0.500060
C256	C	1.409714	0.400548	0.750060
C257	C	0.615892	-0.318161	0.000056
C258	C	0.865892	-0.068161	0.250056
C259	C	1.115892	0.181839	0.500056
C260	C	1.365892	0.431839	0.750056
C261	C	0.571557	-0.337282	0.000046
C262	C	0.821557	-0.087282	0.250046
C263	C	1.071557	0.162718	0.500046
C264	C	1.321557	0.412718	0.750046
C265	C	0.482882	-0.375521	0.000022
C266	C	0.732882	-0.125521	0.250022
C267	C	0.982882	0.124479	0.500022
C268	C	1.232882	0.374479	0.750022
C269	C	0.483399	-0.325104	0.000022
C270	C	0.733399	-0.075104	0.250022
C271	C	0.983399	0.174896	0.500022
C272	C	1.233399	0.424896	0.750022
C273	C	0.527737	-0.305983	0.000032
C274	C	0.777737	-0.055983	0.250032
C275	C	1.027737	0.194017	0.500032
C276	C	1.277737	0.444017	0.750032
C277	C	0.528247	-0.255580	0.000046
C278	C	0.778247	-0.005580	0.250046
C279	C	1.028247	0.244420	0.500046
C280	C	1.278247	0.494420	0.750046
N281	N	0.572583	-0.236456	0.000051
N282	N	0.822583	0.013544	0.250051
N283	N	1.072583	0.263544	0.500051
N284	N	1.322583	0.513544	0.750051
C285	C	0.616405	-0.267747	0.000056
C286	C	0.866405	-0.017747	0.250056
C287	C	1.116405	0.232253	0.500056
C288	C	1.366405	0.482253	0.750056
C289	C	0.523582	-0.714348	0.000027
C290	C	0.773582	-0.464348	0.250027
C291	C	1.023582	-0.214348	0.500027
C292	C	1.273582	0.035652	0.750027
C293	C	0.523069	-0.764762	0.000027
C294	C	0.773069	-0.514762	0.250027
C295	C	1.023069	-0.264762	0.500027
C296	C	1.273069	-0.014762	0.750027
C297	C	0.611230	-0.776930	0.000037
C298	C	0.861230	-0.526930	0.250037
C299	C	1.111230	-0.276930	0.500037
C300	C	1.361230	-0.026930	0.750037
C301	C	0.611742	-0.726514	0.000041
C302	C	0.861742	-0.476514	0.250041
C303	C	1.111742	-0.226514	0.500041
C304	C	1.361742	0.023486	0.750041
C305	C	0.567917	-0.695224	0.000032
C306	C	0.817917	-0.445224	0.250032
C307	C	1.067917	-0.195224	0.500032
C308	C	1.317917	0.054776	0.750032
C309	C	0.617477	-0.161878	0.000066
C310	C	0.867477	0.088122	0.250066
C311	C	1.117477	0.338122	0.500066
C312	C	1.367477	0.588122	0.750066
C313	C	0.617986	-0.111461	0.000073
C314	C	0.867986	0.138539	0.250073
C315	C	1.117986	0.388539	0.500073
C316	C	1.367986	0.638539	0.750073
C317	C	0.529825	-0.099298	0.000060
C318	C	0.779825	0.150702	0.250060
C319	C	1.029825	0.400702	0.500060
C320	C	1.279825	0.650702	0.750060
C321	C	0.529316	-0.149710	0.000056
C322	C	0.779316	0.100290	0.250056
C323	C	1.029316	0.350290	0.500056
C324	C	1.279316	0.600290	0.750056
C325	C	0.573147	-0.180999	0.000057
C326	C	0.823147	0.069001	0.250057
C327	C	1.073147	0.319001	0.500057
C328	C	1.323147	0.569001	0.750057
O329	O	0.491047	-0.224296	0.000059
O330	O	0.741047	0.025704	0.250059
O331	O	0.991047	0.275704	0.500059
O332	O	1.241047	0.525704	0.750059
O333	O	0.654156	-0.246844	0.000054
O334	O	0.904156	0.003156	0.250054
O335	O	1.154156	0.253156	0.500054
O336	O	1.404156	0.503156	0.750054
C337	C	0.614355	-0.469397	0.000042
C338	C	0.864355	-0.219397	0.250042
C339	C	1.114355	0.030603	0.500042
C340	C	1.364355	0.280603	0.750042
C341	C	0.570021	-0.488518	0.000033
C342	C	0.820021	-0.238518	0.250033
C343	C	1.070021	0.011482	0.500033
C344	C	1.320021	0.261482	0.750033
C345	C	0.526198	-0.457228	0.000028
C346	C	0.776198	-0.207228	0.250028
C347	C	1.026198	0.042772	0.500028
C348	C	1.276198	0.292772	0.750028
C349	C	0.569508	-0.538933	0.000033
C350	C	0.819508	-0.288933	0.250033
C351	C	1.069508	-0.038933	0.500033
C352	C	1.319508	0.211067	0.750033
C353	C	0.613330	-0.570223	0.000037
C354	C	0.863330	-0.320223	0.250037
C355	C	1.113330	-0.070223	0.500037
C356	C	1.363330	0.179777	0.750037
C357	C	0.657665	-0.551100	0.000042
C358	C	0.907665	-0.301100	0.250042
C359	C	1.157665	-0.051100	0.500042
C360	C	1.407665	0.198900	0.750042
C361	C	0.658177	-0.500688	0.000046
C362	C	0.908177	-0.250688	0.250046
C363	C	1.158177	-0.000688	0.500046
C364	C	1.408177	0.249312	0.750046
C365	C	0.481863	-0.476351	0.000023
C366	C	0.731863	-0.226351	0.250023
C367	C	0.981863	0.023649	0.500023
C368	C	1.231863	0.273649	0.750023
C369	C	0.481355	-0.526764	0.000019
C370	C	0.731355	-0.276764	0.250019
C371	C	0.981355	-0.026764	0.500019
C372	C	1.231355	0.223236	0.750019
C373	C	0.525177	-0.558054	0.000024
C374	C	0.775177	-0.308054	0.250024
C375	C	1.025177	-0.058054	0.500024
C376	C	1.275177	0.191946	0.750024
C377	C	0.658931	0.057699	0.000061
C378	C	0.908931	0.307699	0.250061
C379	C	1.158931	0.557699	0.500061
C380	C	1.408931	0.807699	0.750061
C381	C	0.712586	0.058252	0.000064
C382	C	0.962586	0.308252	0.250064
C383	C	1.212586	0.558252	0.500064
C384	C	1.462586	0.808252	0.750064
C385	C	0.566338	0.150292	0.000040
C386	C	0.816338	0.400292	0.250040
C387	C	1.066338	0.650292	0.500040
C388	C	1.316338	0.900292	0.750040
C389	C	0.566891	0.203947	0.000032
C390	C	0.816891	0.453947	0.250032
C391	C	1.066891	0.703947	0.500032
C392	C	1.316891	0.953947	0.750032
N393	N	0.570510	0.061905	0.120813
N394	N	0.820510	0.311905	0.370813
N395	N	1.070510	0.561905	0.620813
N396	N	1.320510	0.811905	0.870813
N397	N	0.570548	0.061868	-0.120709
N398	N	0.820548	0.311868	0.129291
N399	N	1.070548	0.561868	0.379291
N400	N	1.320548	0.811868	0.629291
C401	C	0.603640	0.028781	0.473336
C402	C	0.853640	0.278781	0.723336
C403	C	1.103640	0.528781	0.973336
C404	C	1.353640	0.778781	1.223336
C405	C	0.603651	0.028774	0.686994
C406	C	0.853651	0.278774	0.936994
C407	C	1.103651	0.528774	1.186994
C408	C	1.353651	0.778774	1.436994
O409	O	0.631801	0.000614	0.714623
O410	O	0.881801	0.250614	0.964623
O411	O	1.131801	0.500614	1.214623
O412	O	1.381801	0.750614	1.464623
N413	N	0.570538	0.061871	0.713707
N414	N	0.820538	0.311871	0.963707
N415	N	1.070538	0.561871	1.213707
N416	N	1.320538	0.811871	1.463707
C417	C	0.537419	0.094970	0.687003
C418	C	0.787419	0.344970	0.937003
C419	C	1.037419	0.594970	1.187003
C420	C	1.287419	0.844970	1.437003
O421	O	0.509251	0.123117	0.714626
O422	O	0.759251	0.373117	0.964626
O423	O	1.009251	0.623117	1.214626
O424	O	1.259251	0.873117	1.464626
C425	C	0.537406	0.094974	0.473345
C426	C	0.787406	0.344974	0.723345
C427	C	1.037406	0.594974	0.973345
C428	C	1.287406	0.844974	1.223345
C429	C	0.570524	0.061878	0.446635
C430	C	0.820524	0.311878	0.696635
C431	C	1.070524	0.561878	0.946635
C432	C	1.320524	0.811878	1.196635
C433	C	0.636755	-0.004312	0.446625
C434	C	0.886755	0.245688	0.696625
C435	C	1.136755	0.495688	0.946625
C436	C	1.386755	0.745688	1.196625
C437	C	0.636754	-0.004308	0.393214
C438	C	0.886754	0.245692	0.643214
C439	C	1.136754	0.495692	0.893214
C440	C	1.386754	0.745692	1.143214
C441	C	0.603638	0.028789	0.366513
C442	C	0.853638	0.278789	0.616513
C443	C	1.103638	0.528789	0.866513
C444	C	1.353638	0.778789	1.116513
C445	C	0.570523	0.061882	0.393223
C446	C	0.820523	0.311882	0.643223
C447	C	1.070523	0.561882	0.893223
C448	C	1.320523	0.811882	1.143223
C449	C	0.504284	0.128070	0.446641
C450	C	0.754284	0.378070	0.696641
C451	C	1.004284	0.628070	0.946641
C452	C	1.254284	0.878070	1.196641
C453	C	0.504283	0.128067	0.393223
C454	C	0.754283	0.378067	0.643223
C455	C	1.004283	0.628067	0.893223
C456	C	1.254283	0.878067	1.143223
C457	C	0.537401	0.094971	0.366513
C458	C	0.787401	0.344971	0.616513
C459	C	1.037401	0.594971	0.866513
C460	C	1.287401	0.844971	1.116513
C461	C	0.537405	0.094983	0.313111
C462	C	0.787405	0.344983	0.563111
C463	C	1.037405	0.594983	0.813111
C464	C	1.287405	0.844983	1.063111
N465	N	0.570518	0.061886	0.286397
N466	N	0.820518	0.311886	0.536397
N467	N	1.070518	0.561886	0.786397
N468	N	1.320518	0.811886	1.036397
C469	C	0.603634	0.028789	0.313098
C470	C	0.853634	0.278789	0.563098
C471	C	1.103634	0.528789	0.813098
C472	C	1.353634	0.778789	1.063098
C473	C	0.537428	0.094966	0.799176
C474	C	0.787428	0.344966	1.049176
C475	C	1.037428	0.594966	1.299176
C476	C	1.287428	0.844966	1.549176
C477	C	0.537432	0.094965	0.852590
C478	C	0.787432	0.344965	1.102590
C479	C	1.037432	0.594965	1.352590
C480	C	1.287432	0.844965	1.602590
C481	C	0.603664	0.028769	0.852578
C482	C	0.853664	0.278769	1.102578
C483	C	1.103664	0.528769	1.352578
C484	C	1.353664	0.778769	1.602578
C485	C	0.603662	0.028773	0.799163
C486	C	0.853662	0.278773	1.049163
C487	C	1.103662	0.528773	1.299163
C488	C	1.353662	0.778773	1.549163
C489	C	0.570541	0.061869	0.772463
C490	C	0.820541	0.311869	1.022463
C491	C	1.070541	0.561869	1.272463
C492	C	1.320541	0.811869	1.522463
C493	C	0.603629	0.028800	0.200931
C494	C	0.853629	0.278800	0.450931
C495	C	1.103629	0.528800	0.700931
C496	C	1.353629	0.778800	0.950931
C497	C	0.603626	0.028808	0.147514
C498	C	0.853626	0.278808	0.397514
C499	C	1.103626	0.528808	0.647514
C500	C	1.353626	0.778808	0.897514
C501	C	0.537393	0.095002	0.147531
C502	C	0.787393	0.345002	0.397531
C503	C	1.037393	0.595002	0.647531
C504	C	1.287393	0.845002	0.897531
C505	C	0.537397	0.094996	0.200943
C506	C	0.787397	0.344996	0.450943
C507	C	1.037397	0.594996	0.700943
C508	C	1.287397	0.844996	0.950943
C509	C	0.570517	0.061891	0.227641
C510	C	0.820517	0.311891	0.477641
C511	C	1.070517	0.561891	0.727641
C512	C	1.320517	0.811891	0.977641
O513	O	0.509267	0.123125	0.285449
O514	O	0.759267	0.373125	0.535449
O515	O	1.009267	0.623125	0.785449
O516	O	1.259267	0.873125	1.035449
O517	O	0.631790	0.000639	0.285466
O518	O	0.881790	0.250639	0.535466
O519	O	1.131790	0.500639	0.785466
O520	O	1.381790	0.750639	1.035466
C521	C	0.603641	0.028777	0.526747
C522	C	0.853641	0.278777	0.776747
C523	C	1.103641	0.528777	1.026747
C524	C	1.353641	0.778777	1.276747
C525	C	0.570527	0.061871	0.553457
C526	C	0.820527	0.311871	0.803457
C527	C	1.070527	0.561871	1.053457
C528	C	1.320527	0.811871	1.303457
C529	C	0.537410	0.094968	0.526756
C530	C	0.787410	0.344968	0.776756
C531	C	1.037410	0.594968	1.026756
C532	C	1.287410	0.844968	1.276756
C533	C	0.570530	0.061870	0.606872
C534	C	0.820530	0.311870	0.856872
C535	C	1.070530	0.561870	1.106872
C536	C	1.320530	0.811870	1.356872
C537	C	0.603646	0.028773	0.633573
C538	C	0.853646	0.278773	0.883573
C539	C	1.103646	0.528773	1.133573
C540	C	1.353646	0.778773	1.383573
C541	C	0.636759	-0.004323	0.606859
C542	C	0.886759	0.245677	0.856859
C543	C	1.136759	0.495677	1.106859
C544	C	1.386759	0.745677	1.356859
C545	C	0.636758	-0.004320	0.553448
C546	C	0.886758	0.245680	0.803448
C547	C	1.136758	0.495680	1.053448
C548	C	1.386758	0.745680	1.303448
C549	C	0.504298	0.128064	0.553470
C550	C	0.754298	0.378064	0.803470
C551	C	1.004298	0.628064	1.053470
C552	C	1.254298	0.878064	1.303470
C553	C	0.504302	0.128058	0.606881
C554	C	0.754302	0.378058	0.856881
C555	C	1.004302	0.628058	1.106881
C556	C	1.254302	0.878058	1.356881
C557	C	0.537418	0.094961	0.633582
C558	C	0.787418	0.344961	0.883582
C559	C	1.037418	0.594961	1.133582
C560	C	1.287418	0.844961	1.383582
H561	H	-0.271687	-0.021674	0.000070
H562	H	-0.021687	0.228326	0.250070
H563	H	0.228313	0.478326	0.500070
H564	H	0.478313	0.728326	0.750070
N565	N	0.475244	-0.785376	0.000022
N566	N	0.725244	-0.535376	0.250022
N567	N	0.975244	-0.285376	0.500022
N568	N	1.225244	-0.035376	0.750022
H569	H	0.473068	-0.806022	-0.031435
H570	H	0.723068	-0.556022	0.218565
H571	H	0.973068	-0.306022	0.468565
H572	H	1.223068	-0.056022	0.718565
H573	H	0.473085	-0.805997	0.031500
H574	H	0.723085	-0.555997	0.281500
H575	H	0.973085	-0.305997	0.531500
H576	H	1.223085	-0.055997	0.781500
H577	H	0.477330	0.155015	0.531734
H578	H	0.727330	0.405015	0.781734
H579	H	0.977330	0.655015	1.031734
H580	H	1.227330	0.905015	1.281734
H581	H	0.694282	-0.485125	0.000054
H582	H	0.944282	-0.235125	0.250054
H583	H	1.194282	0.014875	0.500054
H584	H	1.444282	0.264875	0.750054
N585	N	0.112502	-0.073579	0.000095
N586	N	0.362502	0.176421	0.250095
N587	N	0.612502	0.426421	0.500095
N588	N	0.862502	0.676421	0.750095
H589	H	0.139981	-0.101257	0.000103
H590	H	0.389981	0.148743	0.250103
H591	H	0.639981	0.398743	0.500103
H592	H	0.889981	0.648743	0.750103
H593	H	0.091851	-0.075706	0.031555
H594	H	0.341851	0.174294	0.281555
H595	H	0.591851	0.424294	0.531555
H596	H	0.841851	0.674294	0.781555
N597	N	0.658494	-0.810686	0.000043
N598	N	0.908494	-0.560686	0.250043
N599	N	1.158494	-0.310686	0.500043
N600	N	1.408494	-0.060686	0.750043
H601	H	0.660245	-0.831873	-0.031415
H602	H	0.910245	-0.581873	0.218585
H603	H	1.160245	-0.331873	0.468585
H604	H	1.410245	-0.081873	0.718585
H605	H	0.686635	-0.790894	0.000063
H606	H	0.936635	-0.540894	0.250063
H607	H	1.186635	-0.290894	0.500063
H608	H	1.436635	-0.040894	0.750063
N609	N	0.179804	0.198898	0.000039
N610	N	0.429804	0.448898	0.250039
N611	N	0.679804	0.698898	0.500039
N612	N	0.929804	0.948898	0.750039
H613	H	0.216490	0.192581	0.000041
H614	H	0.466490	0.442581	0.250041
H615	H	0.716490	0.692581	0.500041
H616	H	0.966490	0.942581	0.750041
H617	H	0.168335	0.218056	-0.031419
H618	H	0.418335	0.468056	0.218581
H619	H	0.668335	0.718056	0.468581
H620	H	0.918335	0.968056	0.718581
N621	N	0.659563	-0.705893	0.000048
N622	N	0.909563	-0.455893	0.250048
N623	N	1.159563	-0.205893	0.500048
N624	N	1.409563	0.044107	0.750048
H625	H	0.661737	-0.685248	0.031505
H626	H	0.911737	-0.435248	0.281505
H627	H	1.161737	-0.185248	0.531505
H628	H	1.411737	0.064752	0.781505
H629	H	0.687215	-0.733396	0.000033
H630	H	0.937215	-0.483396	0.250033
H631	H	1.187215	-0.233396	0.500033
H632	H	1.437215	0.016604	0.750033
N633	N	0.468558	0.163760	0.475441
N634	N	0.718558	0.413760	0.725441
N635	N	0.968558	0.663760	0.975441
N636	N	1.218558	0.913760	1.225441
H637	H	0.447299	0.145429	0.497602
H638	H	0.697299	0.395429	0.747602
H639	H	0.947299	0.645429	0.997602
H640	H	1.197299	0.895429	1.247602
H641	H	0.486895	0.185033	0.497575
H642	H	0.736895	0.435033	0.747575
H643	H	0.986895	0.685033	0.997575
H644	H	1.236895	0.935033	1.247575
N645	N	0.704931	-0.584854	0.000051
N646	N	0.954931	-0.334854	0.250051
N647	N	1.204931	-0.084854	0.500051
N648	N	1.454931	0.165146	0.750051
H649	H	0.697874	-0.619691	0.000048
H650	H	0.947874	-0.369691	0.250048
H651	H	1.197874	-0.119691	0.500048
H652	H	1.447874	0.130309	0.750048
H653	H	0.724276	-0.578701	-0.031404
H654	H	0.974276	-0.328701	0.218596
H655	H	1.224276	-0.078701	0.468596
H656	H	1.474276	0.171299	0.718596
N657	N	0.672484	-0.040005	0.475419
N658	N	0.922484	0.209995	0.725419
N659	N	1.172484	0.459995	0.975419
N660	N	1.422484	0.709995	1.225419
H661	H	0.693460	-0.060963	0.450385
H662	H	0.943460	0.189037	0.700385
H663	H	1.193460	0.439037	0.950385
H664	H	1.443460	0.689037	1.200385
H665	H	0.693713	-0.021637	0.497571
H666	H	0.943713	0.228363	0.747571
H667	H	1.193713	0.478363	0.997571
H668	H	1.443713	0.728363	1.247571
N669	N	0.664753	-0.195616	0.000074
N670	N	0.914753	0.054384	0.250074
N671	N	1.164753	0.304384	0.500074
N672	N	1.414753	0.554384	0.750074
H673	H	0.666500	-0.216805	0.031530
H674	H	0.916500	0.033195	0.281530
H675	H	1.166500	0.283195	0.531530
H676	H	1.416500	0.533195	0.781530
H677	H	0.666491	-0.216773	-0.031404
H678	H	0.916491	0.033227	0.218596
H679	H	1.166491	0.283227	0.468596
H680	H	1.416491	0.533227	0.718596
N681	N	-0.038740	-0.075112	0.000096
N682	N	0.211260	0.174888	0.250096
N683	N	0.461260	0.424888	0.500096
N684	N	0.711260	0.674888	0.750096
H685	H	-0.059384	-0.077283	0.031556
H686	H	0.190616	0.172717	0.281556
H687	H	0.440616	0.422717	0.531556
H688	H	0.690616	0.672717	0.781556
H689	H	-0.059363	-0.077273	-0.031378
H690	H	0.190637	0.172727	0.218622
H691	H	0.440637	0.422727	0.468622
H692	H	0.690637	0.672727	0.718622
N693	N	0.481497	-0.170338	0.000047
N694	N	0.731497	0.079662	0.250047
N695	N	0.981497	0.329662	0.500047
N696	N	1.231497	0.579662	0.750047
H697	H	0.479312	-0.190987	0.031500
H698	H	0.729312	0.059013	0.281500
H699	H	0.979312	0.309013	0.531500
H700	H	1.229312	0.559013	0.781500
H701	H	0.453842	-0.142837	0.000028
H702	H	0.703842	0.107163	0.250028
H703	H	0.953842	0.357163	0.500028
H704	H	1.203842	0.607163	0.750028
H705	H	0.343360	-0.015426	0.000050
H706	H	0.593360	0.234574	0.250050
H707	H	0.843360	0.484574	0.500050
H708	H	1.093360	0.734574	0.750050
N709	N	0.217283	-0.072510	0.000096
N710	N	0.467283	0.177490	0.250096
N711	N	0.717283	0.427490	0.500096
N712	N	0.967283	0.677490	0.750096
H713	H	0.197517	-0.100672	0.000104
H714	H	0.447517	0.149328	0.250104
H715	H	0.697517	0.399328	0.500104
H716	H	0.947517	0.649328	0.750104
H717	H	0.238467	-0.074226	-0.031362
H718	H	0.488467	0.175774	0.218638
H719	H	0.738467	0.425774	0.468638
H720	H	0.988467	0.675774	0.718638
N721	N	0.672480	-0.040019	0.635664
N722	N	0.922480	0.209981	0.885664
N723	N	1.172480	0.459981	1.135664
N724	N	1.422480	0.709981	1.385664
H725	H	0.667452	-0.034995	0.673553
H726	H	0.917452	0.215005	0.923553
H727	H	1.167452	0.465005	1.173553
H728	H	1.417452	0.715005	1.423553
H729	H	0.667154	-0.074274	0.626329
H730	H	0.917154	0.175726	0.876329
H731	H	1.167154	0.425726	1.126329
H732	H	1.417154	0.675726	1.376329
N733	N	0.482561	-0.065544	0.000069
N734	N	0.732561	0.184456	0.250069
N735	N	0.982561	0.434456	0.500069
N736	N	1.232561	0.684456	0.750069
H737	H	0.489618	-0.030706	0.000075
H738	H	0.739618	0.219294	0.250075
H739	H	0.989618	0.469294	0.500075
H740	H	1.239618	0.719294	0.750075
H741	H	0.463222	-0.071691	-0.031390
H742	H	0.713222	0.178309	0.218610
H743	H	0.963222	0.428309	0.468610
H744	H	1.213222	0.678309	0.718610
H745	H	0.445246	-0.542327	0.000016
H746	H	0.695246	-0.292327	0.250016
H747	H	0.945246	-0.042327	0.500016
H748	H	1.195246	0.207673	0.750016
H749	H	0.630598	0.001842	0.222662
H750	H	0.880598	0.251842	0.472662
H751	H	1.130598	0.501842	0.722662
H752	H	1.380598	0.751842	0.972662
N753	N	0.706471	-0.433609	0.000061
N754	N	0.956471	-0.183609	0.250061
N755	N	1.206471	0.066391	0.500061
N756	N	1.456471	0.316391	0.750061
H757	H	0.734630	-0.413838	0.000067
H758	H	0.984630	-0.163838	0.250067
H759	H	1.234630	0.086162	0.500067
H760	H	1.484630	0.336162	0.750067
H761	H	0.708174	-0.454788	0.031521
H762	H	0.958174	-0.204788	0.281521
H763	H	1.208174	0.045212	0.531521
H764	H	1.458174	0.295212	0.781521
N765	N	0.028574	0.197359	0.000045
N766	N	0.278574	0.447359	0.250045
N767	N	0.528574	0.697359	0.500045
N768	N	0.778574	0.947359	0.750045
H769	H	0.049220	0.199536	-0.031412
H770	H	0.299220	0.449536	0.218588
H771	H	0.549220	0.699536	0.468588
H772	H	0.799220	0.949536	0.718588
H773	H	0.001071	0.225012	0.000063
H774	H	0.251071	0.475012	0.250063
H775	H	0.501071	0.725012	0.500063
H776	H	0.751071	0.975012	0.750063
N777	N	0.476310	-0.680602	0.000019
N778	N	0.726310	-0.430602	0.250019
N779	N	0.976310	-0.180602	0.500019
N780	N	1.226310	0.069398	0.750019
H781	H	0.448150	-0.700372	0.000018
H782	H	0.698150	-0.450372	0.250018
H783	H	0.948150	-0.200372	0.500018
H784	H	1.198150	0.049628	0.750018
H785	H	0.474595	-0.659420	0.031477
H786	H	0.724595	-0.409420	0.281477
H787	H	0.974595	-0.159420	0.531477
H788	H	1.224595	0.090580	0.781477
N789	N	0.639346	-0.006896	0.118712
N790	N	0.889346	0.243104	0.368712
N791	N	1.139346	0.493104	0.618712
N792	N	1.389346	0.743104	0.868712
H793	H	0.621035	-0.028171	0.096552
H794	H	0.871035	0.221829	0.346552
H795	H	1.121035	0.471829	0.596552
H796	H	1.371035	0.721829	0.846552
H797	H	0.660604	0.011459	0.096578
H798	H	0.910604	0.261459	0.346578
H799	H	1.160604	0.511459	0.596578
H800	H	1.410604	0.761459	0.846578
H801	H	0.446777	-0.391080	0.000011
H802	H	0.696777	-0.141080	0.250011
H803	H	0.946777	0.108920	0.500011
H804	H	1.196777	0.358920	0.750011
N805	N	0.468562	0.163767	0.364424
N806	N	0.718562	0.413767	0.614424
N807	N	0.968562	0.663767	0.864424
N808	N	1.218562	0.913767	1.114424
H809	H	0.447299	0.145442	0.342264
H810	H	0.697299	0.395442	0.592264
H811	H	0.947299	0.645442	0.842264
H812	H	1.197299	0.895442	1.092264
H813	H	0.447618	0.184722	0.389484
H814	H	0.697618	0.434722	0.639484
H815	H	0.947618	0.684722	0.889484
H816	H	1.197618	0.934722	1.139484
H817	H	0.446177	-0.450879	0.000018
H818	H	0.696177	-0.200879	0.250018
H819	H	0.946177	0.049121	0.500018
H820	H	1.196177	0.299121	0.750018
H821	H	0.434827	-0.014492	0.000048
H822	H	0.684827	0.235508	0.250048
H823	H	0.934827	0.485508	0.500048
H824	H	1.184827	0.735508	0.750048
N825	N	-0.076215	0.196293	0.000045
N826	N	0.173785	0.446293	0.250045
N827	N	0.423785	0.696293	0.500045
N828	N	0.673785	0.946293	0.750045
H829	H	-0.111052	0.189235	0.000048
H830	H	0.138948	0.439235	0.250048
H831	H	0.388948	0.689235	0.500048
H832	H	0.638948	0.939235	0.750048
H833	H	-0.070064	0.215636	0.031500
H834	H	0.179936	0.465636	0.281500
H835	H	0.429936	0.715636	0.531500
H836	H	0.679936	0.965636	0.781500
N837	N	0.066033	-0.074043	0.000089
N838	N	0.316033	0.175957	0.250089
N839	N	0.566033	0.425957	0.500089
N840	N	0.816033	0.675957	0.750089
H841	H	0.046264	-0.102203	0.000094
H842	H	0.296264	0.147797	0.250094
H843	H	0.546264	0.397797	0.500094
H844	H	0.796264	0.647797	0.750094
H845	H	0.087216	-0.075758	-0.031370
H846	H	0.337216	0.174242	0.218630
H847	H	0.587216	0.424242	0.468630
H848	H	0.837216	0.674242	0.718630
H849	H	0.654093	-0.095896	0.000082
H850	H	0.904093	0.154104	0.250082
H851	H	1.154093	0.404104	0.500082
H852	H	1.404093	0.654104	0.750082
N853	N	0.707536	-0.328832	0.000069
N854	N	0.957536	-0.078832	0.250069
N855	N	1.207536	0.171168	0.500069
N856	N	1.457536	0.421168	0.750069
H857	H	0.735215	-0.356310	0.000070
H858	H	0.985215	-0.106310	0.250070
H859	H	1.235215	0.143690	0.500070
H860	H	1.485215	0.393690	0.750070
H861	H	0.709677	-0.308181	-0.031388
H862	H	0.959677	-0.058181	0.218612
H863	H	1.209677	0.191819	0.468612
H864	H	1.459677	0.441819	0.718612
N865	N	0.436129	-0.291355	0.000010
N866	N	0.686129	-0.041355	0.250010
N867	N	0.936129	0.208645	0.500010
N868	N	1.186129	0.458645	0.750010
H869	H	0.407967	-0.311122	0.000003
H870	H	0.657967	-0.061122	0.250003
H871	H	0.907967	0.188878	0.500003
H872	H	1.157967	0.438878	0.750003
H873	H	0.434412	-0.270174	0.031469
H874	H	0.684412	-0.020174	0.281469
H875	H	0.934412	0.229826	0.531469
H876	H	1.184412	0.479826	0.781469
N877	N	-0.197260	0.150927	0.000048
N878	N	0.052740	0.400927	0.250048
N879	N	0.302740	0.650927	0.500048
N880	N	0.552740	0.900927	0.750048
H881	H	-0.176618	0.153113	0.031505
H882	H	0.073382	0.403113	0.281505
H883	H	0.323382	0.653113	0.531505
H884	H	0.573382	0.903113	0.781505
H885	H	-0.176635	0.153075	-0.031429
H886	H	0.073365	0.403075	0.218571
H887	H	0.323365	0.653075	0.468571
H888	H	0.573365	0.903075	0.718571
H889	H	0.663720	-0.031259	0.371469
H890	H	0.913720	0.218741	0.621469
H891	H	1.163720	0.468741	0.871469
H892	H	1.413720	0.718741	1.121469
N893	N	0.501712	0.130662	0.881394
N894	N	0.751712	0.380662	1.131394
N895	N	1.001712	0.630662	1.381394
N896	N	1.251712	0.880662	1.631394
H897	H	0.506735	0.125643	0.919285
H898	H	0.756735	0.375643	1.169285
H899	H	1.006735	0.625643	1.419285
H900	H	1.256735	0.875643	1.669285
H901	H	0.507036	0.164917	0.872056
H902	H	0.757036	0.414917	1.122056
H903	H	1.007036	0.664917	1.372056
H904	H	1.257036	0.914917	1.622056
H905	H	0.630629	0.001823	0.777418
H906	H	0.880629	0.251823	1.027418
H907	H	1.130629	0.501823	1.277418
H908	H	1.380629	0.751823	1.527418
H909	H	0.630629	0.001821	0.874327
H910	H	0.880629	0.251821	1.124327
H911	H	1.130629	0.501821	1.374327
H912	H	1.380629	0.751821	1.624327
H913	H	0.412743	0.145454	0.000021
H914	H	0.662743	0.395454	0.250021
H915	H	0.912743	0.645454	0.500021
H916	H	1.162743	0.895454	0.750021
H917	H	0.083302	0.186251	0.000039
H918	H	0.333302	0.436251	0.250039
H919	H	0.583302	0.686251	0.500039
H920	H	0.833302	0.936251	0.750039
H921	H	0.510434	0.121950	0.222691
H922	H	0.760434	0.371950	0.472691
H923	H	1.010434	0.621950	0.722691
H924	H	1.260434	0.871950	0.972691
H925	H	0.510456	0.121918	0.777440
H926	H	0.760456	0.371918	1.027440
H927	H	1.010456	0.621918	1.277440
H928	H	1.260456	0.871918	1.527440
H929	H	0.510432	0.121951	0.125783
H930	H	0.760432	0.371951	0.375783
H931	H	1.010432	0.621951	0.625783
H932	H	1.260432	0.871951	0.875783
H933	H	0.663725	-0.031269	0.531704
H934	H	0.913725	0.218731	0.781704
H935	H	1.163725	0.468731	1.031704
H936	H	1.413725	0.718731	1.281704
N937	N	0.313012	0.156108	0.000029
N938	N	0.563012	0.406108	0.250029
N939	N	0.813012	0.656108	0.500029
N940	N	1.063012	0.906108	0.750029
H941	H	0.291824	0.157867	0.031487
H942	H	0.541824	0.407867	0.281487
H943	H	0.791824	0.657867	0.531487
H944	H	1.041824	0.907867	0.781487
H945	H	0.332811	0.184244	0.000002
H946	H	0.582811	0.434244	0.250002
H947	H	0.832811	0.684244	0.500002
H948	H	1.082811	0.934244	0.750002
H949	H	-0.293777	0.138273	0.000053
H950	H	-0.043777	0.388273	0.250053
H951	H	0.206223	0.638273	0.500053
H952	H	0.456223	0.888273	0.750053
N953	N	-0.171963	-0.032329	0.000084
N954	N	0.078037	0.217671	0.250084
N955	N	0.328037	0.467671	0.500084
N956	N	0.578037	0.717671	0.750084
H957	H	-0.191733	-0.060489	0.000087
H958	H	0.058267	0.189511	0.250087
H959	H	0.308267	0.439511	0.500087
H960	H	0.558267	0.689511	0.750087
H961	H	-0.150777	-0.034045	-0.031373
H962	H	0.099223	0.215955	0.218627
H963	H	0.349223	0.465955	0.468627
H964	H	0.599223	0.715955	0.718627
N965	N	0.468578	0.163755	0.635687
N966	N	0.718578	0.413755	0.885687
N967	N	0.968578	0.663755	1.135687
N968	N	1.218578	0.913755	1.385687
H969	H	0.447599	0.184718	0.610662
H970	H	0.697599	0.434718	0.860662
H971	H	0.947599	0.684718	1.110662
H972	H	1.197599	0.934718	1.360662
H973	H	0.447350	0.145388	0.657845
H974	H	0.697350	0.395388	0.907845
H975	H	0.947350	0.645388	1.157845
H976	H	1.197350	0.895388	1.407845
