data_functionalizedCrystal
_audit_creation_method	'MofGen! by Chris Wilmer'
_symmetry_space_group_name_H-M	'P1'
_symmetry_Int_Tables_number	1
_symmetry_cell_setting	triclinic
loop_
_symmetry_equiv_pos_as_xyz
  x,y,z
_cell_length_a	17.019383
_cell_length_b	17.019294
_cell_length_c	12.376457
_cell_angle_alpha	97.480483
_cell_angle_beta	74.944209
_cell_angle_gamma	83.133350
loop_
_atom_site_label
_atom_site_type_symbol
_atom_site_fract_x
_atom_site_fract_y
_atom_site_fract_z
O1	O	1.079672	0.067457	-0.205568
O2	O	0.846598	0.083655	-0.184481
O3	O	0.967840	-0.037583	-0.184463
O4	O	0.958429	0.188696	-0.205585
O5	O	0.937540	-0.007314	0.003547
O6	O	0.816297	0.113924	0.003530
O7	O	1.049371	0.097726	-0.017557
Zn8	Zn	0.928024	0.110631	0.022837
Zn9	Zn	0.967946	0.070751	-0.224875
O10	O	0.928129	0.218964	-0.017575
C11	C	0.801591	0.098770	-0.087570
C12	C	0.712629	0.098702	-0.078912
C13	C	0.687342	0.082173	-0.177322
C14	C	0.603749	0.082124	-0.169171
C15	C	0.545444	0.098598	-0.062611
C16	C	0.570735	0.115130	0.035806
C17	C	0.654326	0.115185	0.027654
C18	C	0.292224	0.099265	-0.032871
C19	C	0.208628	0.099206	-0.024726
C20	C	0.241648	0.066202	-0.229705
C21	C	0.325240	0.066253	-0.237847
C22	C	0.350524	0.082789	-0.139431
C23	C	0.459997	0.098546	-0.054277
C24	C	0.435968	0.082847	-0.147766
C25	C	0.951736	-0.051369	-0.087551
C26	C	0.948883	-0.137543	-0.078888
C27	C	0.964060	-0.194523	-0.177302
C28	C	0.961374	-0.275491	-0.169159
C29	C	0.943515	-0.299479	-0.062600
C30	C	0.928333	-0.242492	0.035822
C31	C	0.931014	-0.161524	0.027677
C32	C	0.934588	-0.543123	-0.032882
C33	C	0.931910	-0.624097	-0.024746
C34	C	0.964949	-0.657091	-0.229727
C35	C	0.967634	-0.576121	-0.237862
C36	C	0.952448	-0.519140	-0.139440
C37	C	0.940771	-0.382242	-0.054274
C38	C	0.955187	-0.436379	-0.147767
C39	C	1.094378	0.082611	-0.114471
C40	C	1.183342	0.082678	-0.123135
C41	C	0.944234	0.232750	-0.114490
C42	C	0.947088	0.318923	-0.123160
N43	N	0.900784	0.137848	0.191894
N44	N	0.995192	0.043528	-0.393932
C45	C	1.058424	-0.019667	0.546889
C46	C	1.077485	-0.038716	0.428551
C47	C	1.033311	0.005423	0.369381
C48	C	0.970073	0.068615	0.428561
C49	C	0.951015	0.087670	0.546910
C50	C	0.925902	0.112760	0.369401
C51	C	0.862665	0.175952	0.428581
C52	C	0.843609	0.195003	0.546918
C53	C	0.887783	0.150864	0.606088
C54	C	0.944960	0.093705	0.251052
C55	C	0.837552	0.201042	0.251073
C56	C	0.818491	0.220091	0.369411
H57	H	0.372709	0.052833	-0.324619
C58	C	0.320025	0.117446	0.075392
N59	N	0.340968	0.131138	0.156940
H60	H	1.048833	-0.010089	0.273025
H61	H	0.978608	-0.175000	-0.264074
H62	H	0.523255	0.128548	0.122570
H63	H	0.872262	0.166371	0.702450
H64	H	0.792124	0.246463	0.595101
C65	C	1.147039	-0.108228	0.363463
N66	N	1.199429	-0.160590	0.314439
C67	C	0.682140	0.133365	0.135912
N68	N	0.703088	0.147060	0.217456
C69	C	0.213828	0.048021	-0.337955
N70	N	0.192874	0.034329	-0.419494
C71	C	0.978144	-0.338177	-0.277429
N72	N	0.990803	-0.385396	-0.358986
H73	H	0.913787	-0.262028	0.122584
H74	H	0.977311	-0.703492	-0.309856
C75	C	0.914320	-0.098846	0.135941
N76	N	0.901743	-0.051637	0.217489
H77	H	0.483443	0.069438	-0.234527
H78	H	0.767002	0.271543	0.417609
H79	H	0.801583	0.236985	0.202897
C80	C	0.987280	-0.549742	-0.355085
N81	N	1.002081	-0.529874	-0.443379
C82	C	0.917886	-0.480455	0.075386
N83	N	0.905307	-0.433250	0.156939
C84	C	1.107009	-0.068210	0.611984
N85	N	1.143606	-0.104777	0.661015
C86	C	0.751472	0.064049	-0.294548
N87	N	0.799772	0.050401	-0.382846
H88	H	0.583166	0.068665	-0.249307
C89	C	0.912260	-0.650480	0.092482
N90	N	0.897462	-0.670352	0.180774
H91	H	0.926232	-0.401782	0.032486
C92	C	0.144493	0.117327	0.092504
N93	N	0.096186	0.130972	0.180798
H94	H	0.969722	-0.416843	-0.234526
H95	H	0.412516	0.111957	0.032485
H96	H	0.996448	0.042254	0.202879
