data_functionalizedCrystal
_audit_creation_method	'MofGen! by Chris Wilmer'
_symmetry_space_group_name_H-M	'P1'
_symmetry_Int_Tables_number	1
_symmetry_cell_setting	triclinic
loop_
_symmetry_equiv_pos_as_xyz
  x,y,z
_cell_length_a	17.000371
_cell_length_b	13.262508
_cell_length_c	11.804365
_cell_angle_alpha	117.325227
_cell_angle_beta	79.104231
_cell_angle_gamma	80.190045
loop_
_atom_site_label
_atom_site_type_symbol
_atom_site_fract_x
_atom_site_fract_y
_atom_site_fract_z
O1	O	1.071377	0.016351	-0.093736
O2	O	0.837617	0.057481	-0.080414
O3	O	0.968994	-0.128687	-0.140707
O4	O	0.940000	0.202519	-0.033443
O5	O	0.934410	-0.079722	0.073206
O6	O	0.803033	0.106446	0.133499
O7	O	1.036793	0.065315	0.120178
Cu8	Cu	0.916755	0.090352	0.146371
Cu9	Cu	0.957655	0.032445	-0.106607
O10	O	0.905416	0.251484	0.180471
C11	C	0.790562	0.084173	0.027258
C12	C	0.701880	0.090742	0.029385
C13	C	0.674837	-0.010350	-0.003352
C14	C	0.591511	-0.004173	-0.001360
C15	C	0.535228	0.103100	0.033379
C16	C	0.562276	0.204199	0.066115
C17	C	0.645602	0.198018	0.064113
C18	C	0.282907	0.126971	0.041102
C19	C	0.199575	0.133144	0.043105
C20	C	0.228816	-0.075229	-0.024373
C21	C	0.312141	-0.081398	-0.026364
C22	C	0.339183	0.019699	0.006365
C23	C	0.450054	0.109417	0.035420
C24	C	0.424357	0.013379	0.004315
C25	C	0.953257	-0.146375	-0.047410
C26	C	0.957882	-0.272026	-0.088111
C27	C	0.895503	-0.519463	0.263592
C28	C	0.891151	-0.401405	0.301834
C29	C	0.907834	-0.369054	0.204351
C30	C	0.928868	-0.454774	0.068619
C31	C	0.933213	-0.572841	0.030374
C32	C	0.945544	-0.422432	-0.028867
C33	C	0.966578	-0.508152	-0.164599
C34	C	0.970923	-0.626207	-0.202838
C35	C	0.954241	-0.658558	-0.105355
C36	C	0.941199	-0.304365	0.009379
C37	C	0.978909	-0.357743	-0.223840
C38	C	0.983261	-0.475801	-0.262082
C39	C	1.083848	0.038623	0.012503
C40	C	1.172532	0.032052	0.010367
C41	C	0.921153	0.269171	0.087171
C42	C	0.916530	0.394820	0.127863
N43	N	0.887994	0.131079	0.324301
N44	N	0.986423	-0.008292	-0.284541
C45	C	1.055489	-0.106114	0.621432
C46	C	1.077246	-0.136929	0.486791
C47	C	1.029935	-0.069930	0.446161
C48	C	0.960863	0.027890	0.540187
C49	C	0.939108	0.058713	0.674844
C50	C	0.913554	0.094897	0.499573
C51	C	0.844482	0.192717	0.593599
C52	C	0.822730	0.223535	0.728241
C53	C	0.870042	0.156536	0.768871
C54	C	0.935309	0.064074	0.364917
C55	C	0.818928	0.228901	0.418328
C56	C	0.797171	0.259716	0.552970
H57	H	0.404219	0.196759	0.063706
H58	H	0.667617	0.280340	0.090778
O59	O	0.755590	0.318440	0.819671
C60	C	0.696649	0.280424	0.879465
H61	H	0.729622	0.193229	0.869898
H62	H	0.646303	0.266658	0.826977
C63	C	0.615240	0.482374	1.040357
C64	C	0.655738	0.375284	1.028617
H65	H	0.590001	0.540890	1.132360
H66	H	0.654947	0.507987	1.000070
H67	H	0.573290	0.470886	0.996609
H68	H	0.697694	0.386770	1.072350
H69	H	0.616037	0.349675	1.068915
O70	O	0.991262	-0.709334	-0.334721
C71	C	0.931808	-0.677047	-0.389950
H72	H	0.899990	-0.577175	-0.326899
H73	H	0.882728	-0.726016	-0.390871
C74	C	1.015224	-0.833204	-0.611647
C75	C	0.976150	-0.710538	-0.534213
H76	H	1.042574	-0.853867	-0.700637
H77	H	1.055278	-0.854961	-0.574439
H78	H	0.974317	-0.873997	-0.612399
H79	H	1.017058	-0.669748	-0.533448
H80	H	0.936103	-0.688775	-0.571425
O81	O	0.730031	0.354620	0.644408
C82	C	0.671095	0.316595	0.704197
H83	H	0.704071	0.229394	0.694615
H84	H	0.620745	0.302837	0.651716
C85	C	0.589688	0.518541	0.865113
C86	C	0.630190	0.411444	0.853354
H87	H	0.564453	0.577049	0.957119
H88	H	0.629392	0.544160	0.824830
H89	H	0.547735	0.507059	0.821371
H90	H	0.672149	0.422923	0.897081
H91	H	0.590492	0.385829	0.893649
O92	O	0.773093	0.293998	0.378750
C93	C	0.825058	0.341894	0.322158
H94	H	0.893129	0.285981	0.285358
H95	H	0.817978	0.436995	0.400999
C96	C	0.715829	0.409951	0.248746
C97	C	0.799434	0.341271	0.203538
H98	H	0.700021	0.409573	0.175580
H99	H	0.680817	0.377687	0.286878
H100	H	0.709939	0.489195	0.314448
H101	H	0.805320	0.262026	0.137850
H102	H	0.834446	0.373522	0.165392
H103	H	0.881916	-0.545815	0.342948
O104	O	0.870617	-0.318229	0.433726
C105	C	0.790343	-0.311122	0.501703
H106	H	0.775560	-0.397856	0.442904
H107	H	0.741590	-0.234571	0.511550
C108	C	0.806637	-0.183076	0.714303
C109	C	0.788484	-0.289609	0.642091
H110	H	0.805488	-0.169800	0.800903
H111	H	0.860719	-0.187860	0.668506
H112	H	0.766007	-0.119296	0.722495
H113	H	0.829120	-0.353388	0.633886
H114	H	0.734410	-0.284835	0.687890
H115	H	0.992488	-0.331404	-0.303218
H116	H	0.991547	-0.015570	0.288372
H117	H	1.133484	-0.216572	0.410240
H118	H	0.957787	-0.754690	-0.136486
O119	O	1.101432	-0.171373	0.660716
C120	C	1.099259	-0.289803	0.591937
H121	H	1.084227	-0.309017	0.495200
H122	H	1.048923	-0.303574	0.657650
C123	C	1.203648	-0.351014	0.677529
C124	C	1.185193	-0.374616	0.558709
H125	H	1.256654	-0.403331	0.657037
H126	H	1.205110	-0.271225	0.723871
H127	H	1.161695	-0.362489	0.732278
H128	H	1.227139	-0.363126	0.503971
H129	H	1.183739	-0.454405	0.512357
H130	H	0.720657	-0.097702	-0.031635
H131	H	0.852325	0.181621	0.878505
O132	O	0.479132	-0.090795	-0.029579
C133	C	0.546106	-0.125979	-0.143564
H134	H	0.551862	-0.044904	-0.151513
H135	H	0.533754	-0.192780	-0.237020
C136	C	0.621108	-0.283270	-0.121330
C137	C	0.628181	-0.183691	-0.131087
H138	H	0.671735	-0.318875	-0.113638
H139	H	0.575985	-0.259570	-0.044539
H140	H	0.610811	-0.338925	-0.199213
H141	H	0.638467	-0.128032	-0.053198
H142	H	0.673308	-0.207383	-0.207865
H143	H	0.206791	-0.157540	-0.051034
H144	H	0.153748	0.220505	0.071401
H145	H	0.569498	-0.086493	-0.028020
O146	O	1.003570	-0.558940	-0.393954
C147	C	0.944093	-0.526638	-0.449141
H148	H	0.912302	-0.426759	-0.386106
H149	H	0.894994	-0.575568	-0.449987
C150	C	1.027437	-0.682853	-0.670851
C151	C	0.988396	-0.560177	-0.593437
H152	H	1.054763	-0.703545	-0.759862
H153	H	1.067506	-0.704619	-0.633671
H154	H	0.986514	-0.723612	-0.671542
H155	H	1.029320	-0.519420	-0.592733
H156	H	0.948334	-0.538405	-0.630620
H157	H	0.357962	-0.168750	-0.054647
H158	H	0.516445	0.291540	0.094392
O159	O	0.309020	0.225300	0.073000
C160	C	0.241477	0.321297	0.104065
H161	H	0.179820	0.304421	0.136096
H162	H	0.244709	0.330501	0.012029
C163	C	0.322346	0.457248	0.179714
C164	C	0.246618	0.436526	0.219066
H165	H	0.325519	0.528328	0.250648
H166	H	0.367853	0.392574	0.158781
H167	H	0.325031	0.464911	0.103017
H168	H	0.243939	0.428848	0.295751
H169	H	0.201111	0.501202	0.240015
O170	O	1.051157	-0.100059	0.315308
C171	C	1.122277	-0.200746	0.241036
H172	H	1.127026	-0.251863	0.296325
H173	H	1.180975	-0.171350	0.228414
C174	C	1.108422	-0.218605	0.034363
C175	C	1.114251	-0.281394	0.102265
H176	H	1.103474	-0.268351	-0.051240
H177	H	1.060509	-0.150768	0.084401
H178	H	1.157339	-0.194112	0.023858
H179	H	1.065330	-0.305873	0.112783
H180	H	1.162156	-0.349237	0.052225
H181	H	0.924066	-0.234581	0.119893
O182	O	0.903479	-0.254308	0.241669
C183	C	0.821818	-0.180529	0.324751
H184	H	0.790016	-0.226414	0.372924
H185	H	0.784051	-0.162656	0.262286
C186	C	0.865651	-0.005742	0.375646
C187	C	0.826594	-0.062094	0.434821
H188	H	0.868596	0.067316	0.443539
H189	H	0.920667	-0.055448	0.319668
H190	H	0.834174	0.009141	0.323593
H191	H	0.858077	-0.076990	0.486859
H192	H	0.771584	-0.012388	0.490811
