data_functionalizedCrystal
_audit_creation_method	'MofGen! by Chris Wilmer'
_symmetry_space_group_name_H-M	'P1'
_symmetry_Int_Tables_number	1
_symmetry_cell_setting	triclinic
loop_
_symmetry_equiv_pos_as_xyz
  x,y,z
_cell_length_a	6.817900
_cell_length_b	15.866870
_cell_length_c	16.305550
_cell_angle_alpha	112.498803
_cell_angle_beta	103.455250
_cell_angle_gamma	102.655915
loop_
_atom_site_label
_atom_site_type_symbol
_atom_site_fract_x
_atom_site_fract_y
_atom_site_fract_z
V1	V	-4.051892	-0.133572	-0.304568
V2	V	-3.551892	0.366428	0.195432
O3	O	-4.012769	0.005585	-0.256287
O4	O	-3.512769	0.505585	0.243713
O5	O	-4.028396	-0.264050	-0.343343
O6	O	-3.528396	0.235950	0.156657
O7	O	-4.002974	-0.131883	-0.418760
O8	O	-3.502974	0.368117	0.081240
O9	O	-4.038366	-0.127496	-0.180349
O10	O	-3.538366	0.372504	0.319651
V11	V	-4.532361	-0.116884	-0.284747
V12	V	-4.032361	0.383116	0.215253
O13	O	-4.319852	-0.170179	-0.348047
O14	O	-3.819852	0.329821	0.151953
O15	O	-4.714598	-0.080277	-0.241268
O16	O	-4.214598	0.419723	0.258732
O17	O	-4.332650	0.013593	-0.245972
O18	O	-3.832650	0.513593	0.254028
O19	O	-4.688881	-0.256042	-0.333028
O20	O	-4.188881	0.243958	0.166972
O21	O	-4.663283	-0.122960	-0.408966
O22	O	-4.163283	0.377040	0.091034
O23	O	-4.358072	-0.118573	-0.170555
O24	O	-3.858072	0.381427	0.329445
C25	C	-3.879472	-0.295846	-0.349082
C26	C	-3.379472	0.204154	0.150918
C27	C	-3.941544	-0.402515	-0.381546
C28	C	-3.441544	0.097485	0.118454
C29	C	-3.931812	-0.683673	-0.080408
C30	C	-3.431812	-0.183673	0.419592
C31	C	-3.990147	-0.783910	-0.110942
C32	C	-3.490147	-0.283910	0.389058
C33	C	-4.075699	-0.811764	-0.274110
C34	C	-3.575699	-0.311764	0.225890
C35	C	-4.017359	-0.711528	-0.243590
C36	C	-3.517359	-0.211528	0.256410
C37	C	-3.945421	-0.647489	-0.146738
C38	C	-3.445421	-0.147489	0.353262
C39	C	-4.030968	-0.675344	-0.309919
C40	C	-3.530968	-0.175344	0.190081
C41	C	-3.972644	-0.575116	-0.279401
C42	C	-3.472644	-0.075116	0.220599
C43	C	-3.900711	-0.511072	-0.182553
C44	C	-3.400711	-0.011072	0.317447
C45	C	-3.887097	-0.547262	-0.116220
C46	C	-3.387097	-0.047262	0.383780
C47	C	-4.102922	-0.739384	-0.406771
C48	C	-3.602922	-0.239384	0.093229
C49	C	-4.116531	-0.703201	-0.473100
C50	C	-3.616531	-0.203201	0.026900
C51	C	-4.058192	-0.602971	-0.442582
C52	C	-3.558192	-0.102971	0.057418
C53	C	-3.986259	-0.538927	-0.345735
C54	C	-3.486259	-0.038927	0.154265
C55	C	-4.071807	-0.566781	-0.508916
C56	C	-3.571807	-0.066781	-0.008916
C57	C	-4.013483	-0.466554	-0.478398
C58	C	-3.513483	0.033446	0.021602
C59	C	-3.927935	-0.438699	-0.315217
C60	C	-3.427935	0.061301	0.184783
C61	C	-3.847043	-0.127253	-0.445281
C62	C	-3.347043	0.372747	0.054719
C63	C	-3.888495	-0.126736	-0.538902
C64	C	-3.388495	0.373264	-0.038902
C65	C	-4.039197	-0.124730	-0.879024
C66	C	-3.539197	0.375270	-0.379024
C67	C	-3.802006	-0.118776	-0.836244
C68	C	-3.302006	0.381224	-0.336244
C69	C	-3.758992	-0.119712	-0.739040
C70	C	-3.258992	0.380288	-0.239040
C71	C	-3.964430	-0.125724	-0.710285
C72	C	-3.464430	0.374276	-0.210285
C73	C	-4.149659	-0.220491	-0.790381
C74	C	-3.649659	0.279509	-0.290381
C75	C	-4.191420	-0.219955	-0.887764
C76	C	-3.691420	0.280045	-0.387764
C77	C	-4.077045	-0.036675	-0.805798
C78	C	-3.577045	0.463325	-0.305798
C79	C	-4.028971	-0.035924	-0.707722
C80	C	-3.528971	0.464076	-0.207722
C81	C	-3.922189	-0.126290	-0.614923
C82	C	-3.422189	0.373710	-0.114923
C83	C	-4.081448	-0.124171	-0.974389
C84	C	-3.581448	0.375829	-0.474389
C85	C	-4.144918	0.045385	-0.240233
C86	C	-3.644918	0.545385	0.259767
C87	C	-4.062084	0.152053	-0.207774
C88	C	-3.562084	0.652053	0.292226
C89	C	-4.177347	-0.123206	-0.144030
C90	C	-3.677347	0.376794	0.355970
C91	C	-4.115132	-0.123719	-0.050407
C92	C	-3.615132	0.376281	0.449593
H93	H	-3.853231	-0.429461	-0.157708
H94	H	-3.353231	0.070539	0.342292
Cl95	Cl	-4.083851	-0.323441	-0.796441
Cl96	Cl	-3.583851	0.176559	-0.296441
H97	H	-3.619411	-0.051574	-0.682828
H98	H	-3.119411	0.448426	-0.182828
H99	H	-3.979053	-0.813364	-0.056921
H100	H	-3.479053	-0.313364	0.443079
H101	H	-4.130406	-0.618936	-0.587774
H102	H	-3.630406	-0.118936	-0.087774
Cl103	Cl	-4.155377	-0.322873	-0.966679
Cl104	Cl	-3.655377	0.177127	-0.466679
H105	H	-4.366852	-0.228267	-0.918340
H106	H	-3.866852	0.271733	-0.418340
H107	H	-3.971856	0.035130	-0.796837
H108	H	-3.471856	0.535130	-0.296837
H109	H	-4.304318	-0.228319	-0.773903
H110	H	-3.804318	0.271681	-0.273903
H111	H	-4.134286	-0.863918	-0.352968
H112	H	-3.634286	-0.363918	0.147032
H113	H	-4.249786	-0.040194	-0.833708
H114	H	-3.749786	0.459806	-0.333708
Cl115	Cl	-4.176254	-0.865387	-0.445137
Cl116	Cl	-3.676254	-0.365387	0.054863
Cl117	Cl	-3.837461	-0.358185	-0.193456
Cl118	Cl	-3.337461	0.141815	0.306544
H119	H	-3.894466	0.034171	-0.651547
H120	H	-3.394466	0.534171	-0.151547
H121	H	-3.682722	-0.050317	-0.827319
H122	H	-3.182722	0.449683	-0.327319
Cl123	Cl	-4.206976	-0.783714	-0.594853
Cl124	Cl	-3.706976	-0.283714	-0.094853
Cl125	Cl	-3.796623	-0.466748	0.005541
Cl126	Cl	-3.296623	0.033252	0.505541
H127	H	-4.176033	-0.034745	-0.686008
H128	H	-3.676033	0.465255	-0.186008
Cl129	Cl	-3.841338	-0.603159	0.041352
Cl130	Cl	-3.341338	-0.103159	0.541352
H131	H	-3.769062	-0.182040	-0.887429
H132	H	-3.269062	0.317960	-0.387429
Cl133	Cl	-4.030603	-0.421061	-0.561785
Cl134	Cl	-3.530603	0.078939	-0.061785
H135	H	-3.704853	-0.183706	-0.742647
H136	H	-3.204853	0.316294	-0.242647
