data_functionalizedCrystal
_audit_creation_method	'MofGen! by Chris Wilmer'
_symmetry_space_group_name_H-M	'P1'
_symmetry_Int_Tables_number	1
_symmetry_cell_setting	triclinic
loop_
_symmetry_equiv_pos_as_xyz
  x,y,z
_cell_length_a	11.792241
_cell_length_b	10.489741
_cell_length_c	10.868271
_cell_angle_alpha	89.995151
_cell_angle_beta	89.999893
_cell_angle_gamma	84.366295
loop_
_atom_site_label
_atom_site_type_symbol
_atom_site_fract_x
_atom_site_fract_y
_atom_site_fract_z
O1	O	1.507380	0.174832	-0.102202
O2	O	1.177088	0.192851	-0.102231
O3	O	1.349749	-0.001782	-0.102208
O4	O	1.334718	0.369465	-0.102224
O5	O	1.349735	-0.001790	0.102436
O6	O	1.177073	0.192843	0.102414
O7	O	1.507366	0.174825	0.102443
Zn8	Zn	1.342217	0.183833	0.134920
Zn9	Zn	1.342236	0.183843	-0.134708
O10	O	1.334704	0.369457	0.102420
C11	C	1.134786	0.191715	0.000088
C12	C	1.008764	0.188327	0.000077
C13	C	0.778035	0.182098	0.000113
C14	C	0.906429	0.185559	0.000093
C15	C	1.348607	-0.049314	0.000113
C16	C	1.345210	-0.190931	0.000111
C17	C	1.235351	-0.258697	0.000092
C18	C	1.287240	-0.351000	0.100997
C19	C	1.287281	-0.350967	-0.100767
C20	C	1.397145	-0.281369	0.101099
C21	C	1.397170	-0.281327	-0.100755
C22	C	1.449140	-0.373603	0.000174
C23	C	1.549667	0.175960	0.000121
C24	C	1.675690	0.179348	0.000124
C25	C	1.335846	0.416989	0.000096
C26	C	1.339243	0.558607	0.000091
N27	N	1.342213	0.183825	0.318934
N28	N	1.342250	0.183840	-0.318722
C29	C	1.342230	0.183840	0.569940
C30	C	1.342217	0.183835	0.430263
H31	H	1.145025	-0.208738	0.000186
O32	O	1.231894	-0.387688	0.202886
C33	C	1.288894	-0.350539	0.309109
H34	H	1.340738	-0.267639	0.285601
H35	H	1.223752	-0.318963	0.383275
H36	H	1.348282	-0.434973	0.344345
H37	H	1.443583	-0.250699	0.186502
O38	O	1.557010	-0.432888	0.000463
C39	C	1.614489	-0.397373	0.106975
H40	H	1.549591	-0.364557	0.180990
H41	H	1.672354	-0.483063	0.142195
H42	H	1.668000	-0.315785	0.083871
O43	O	1.231973	-0.387907	-0.202576
C44	C	1.306505	-0.472242	-0.272974
H45	H	1.377031	-0.518790	-0.211301
H46	H	1.257083	-0.549586	-0.315020
H47	H	1.345669	-0.416548	-0.349527
O48	O	1.452421	-0.244500	-0.202644
C49	C	1.394231	-0.279600	-0.308829
H50	H	1.301608	-0.290509	-0.284663
H51	H	1.397637	-0.202242	-0.382048
H52	H	1.436391	-0.374429	-0.345641
