data_functionalizedCrystal
_audit_creation_method	'MofGen! by Chris Wilmer'
_symmetry_space_group_name_H-M	'P1'
_symmetry_Int_Tables_number	1
_symmetry_cell_setting	triclinic
loop_
_symmetry_equiv_pos_as_xyz
  x,y,z
_cell_length_a	14.560438
_cell_length_b	17.917603
_cell_length_c	14.560438
_cell_angle_alpha	90.001112
_cell_angle_beta	60.000905
_cell_angle_gamma	57.011185
loop_
_atom_site_label
_atom_site_type_symbol
_atom_site_fract_x
_atom_site_fract_y
_atom_site_fract_z
Zr1	Zr	0.920723	0.754906	-0.078228
O2	O	1.126341	0.629779	-0.231881
O3	O	0.724825	0.793264	-0.031128
O4	O	0.916430	0.793260	-0.222729
O5	O	0.934734	0.629786	0.110861
O6	O	0.901986	0.922218	-0.215507
O7	O	0.934737	0.629783	-0.040280
O8	O	0.559240	0.922224	0.127232
O9	O	1.277479	0.629779	-0.231878
O10	O	0.791021	0.905863	-0.005647
O11	O	0.801799	0.809626	0.101757
O12	O	1.027388	0.809622	-0.123828
O13	O	1.038165	0.713385	-0.016423
Zr14	Zr	0.897682	0.960583	0.174343
Zr15	Zr	0.897687	0.960578	-0.066710
Zr16	Zr	0.920718	0.754911	0.162824
Zr17	Zr	1.161771	0.754907	-0.078224
Zr18	Zr	0.656634	0.960583	0.174338
O19	O	1.093580	0.922225	0.127242
O20	O	1.093586	0.922218	-0.215503
O21	O	1.126335	0.629786	0.110864
O22	O	0.692064	1.085711	0.327996
O23	O	0.692070	1.085703	-0.014750
O24	O	0.724819	0.793272	0.311617
O25	O	0.883671	1.085704	-0.014746
O26	O	0.901975	0.922229	0.318843
O27	O	0.916419	0.793272	0.311621
O28	O	0.883668	1.085707	0.136395
O29	O	1.259168	0.793261	-0.222723
O30	O	0.559237	0.922229	0.318837
O31	O	0.540926	1.085710	0.327993
O32	O	0.540930	1.085706	0.136388
O33	O	1.277475	0.629783	-0.040274
O34	O	1.259165	0.793265	-0.031118
O35	O	0.791017	0.905868	0.219942
O36	O	0.780240	1.002105	0.112537
O37	O	1.016606	0.905863	-0.005643
O38	O	1.027384	0.809626	0.101762
C39	C	0.607689	0.857744	0.048051
C40	C	0.505358	0.857744	0.048049
C41	C	0.451656	0.907977	-0.008015
C42	C	0.355497	0.907981	-0.008004
C43	C	0.366753	0.807511	0.104136
C44	C	0.462904	0.807514	0.104132
C45	C	0.938018	0.600480	0.033649
C46	C	0.947797	0.513167	0.028759
C47	C	0.965661	0.353323	0.019829
C48	C	0.852750	0.362159	0.076283
C49	C	0.862689	0.273217	0.071314
C50	C	0.955724	0.442272	0.024796
C51	C	1.210716	0.857745	0.048063
C52	C	1.313047	0.857745	0.048065
C53	C	0.909208	0.857738	-0.253463
C54	C	0.909210	0.857736	-0.355796
C55	C	0.880387	1.115009	0.062465
C56	C	0.870608	1.202322	0.067355
C57	C	1.032589	0.807500	-0.465561
C58	C	1.032582	0.807511	-0.561709
C59	C	0.785806	0.907996	-0.438313
C60	C	0.785814	0.907990	-0.342167
C61	C	0.909197	0.857751	0.349577
C62	C	0.909195	0.857754	0.451910
C63	C	0.578874	1.115009	0.062460
C64	C	0.466763	1.202322	0.067348
C65	C	0.607683	0.857751	0.349571
C66	C	0.505350	0.857753	0.451902
C67	C	0.578868	1.115015	0.363979
C68	C	0.466755	1.202330	0.471201
C69	C	1.239537	0.600474	-0.267865
C70	C	1.351650	0.513159	-0.375086
C71	C	1.239531	0.600481	0.033655
C72	C	1.351642	0.513168	0.028767
C73	C	1.210722	0.857739	-0.253457
C74	C	1.313055	0.857737	-0.355788
C75	C	0.419743	1.193087	0.007942
C76	C	0.314417	1.275119	0.012512
C77	C	0.256107	1.366385	0.076495
C78	C	0.303137	1.375617	0.135902
C79	C	0.408468	1.293586	0.131325
C80	C	0.408480	1.293578	0.465489
C81	C	0.303150	1.375628	0.566226
C82	C	0.256092	1.366428	0.672673
C83	C	0.314379	1.275171	0.678382
C84	C	0.419713	1.193123	0.577646
C85	C	1.409937	0.421912	-0.369375
C86	C	1.515296	0.339862	-0.470112
C87	C	1.562359	0.349062	-0.576559
C88	C	1.504067	0.440319	-0.582268
C89	C	1.398716	0.522366	-0.481532
C90	C	1.398672	0.522402	0.088162
C91	C	1.504025	0.440370	0.083566
C92	C	1.562338	0.349105	0.019580
C93	C	1.515303	0.339873	-0.039823
C94	C	1.409959	0.421904	-0.035233
C95	C	0.451644	0.907990	0.561669
C96	C	0.355502	0.907981	0.657815
C97	C	0.366776	0.807496	0.534415
C98	C	0.462924	0.807500	0.438271
H99	H	0.311773	0.948886	-0.053655
H100	H	0.446778	1.301087	0.378824
H101	H	1.542399	0.447798	-0.668949
H102	H	0.255646	1.449936	0.187995
Br103	Br	0.618349	0.976187	-0.419827
Br104	Br	0.309120	0.739353	0.180255
Br105	Br	0.309190	0.739301	0.515925
Br106	Br	0.250611	1.262567	-0.068117
Br107	Br	0.509221	0.976189	0.580171
Br108	Br	1.567831	0.452922	0.164194
H109	H	1.648115	0.282318	0.015851
H110	H	0.311780	0.948888	0.747189
Br111	Br	1.594383	0.216026	-0.462337
H112	H	0.506627	0.766607	0.149791
Br113	Br	1.346140	0.409354	-0.115845
H114	H	0.255704	1.449926	0.561557
H115	H	0.170340	1.433172	0.080213
Br116	Br	0.618359	0.976173	-0.193188
Br117	Br	1.705338	0.237700	-0.713263
Br118	Br	0.498784	1.069290	0.585418
Br119	Br	1.319560	0.646252	0.175006
Br120	Br	1.319617	0.646199	-0.489304
H121	H	1.371626	0.414403	-0.282710
Br122	Br	0.498858	1.069238	-0.078905
Br123	Br	1.594454	0.216005	-0.126654
Br124	Br	0.472261	1.306135	0.211963
H125	H	0.170322	1.433244	0.754690
Br126	Br	0.250499	1.262702	0.822856
H127	H	1.133066	0.766580	-0.476664
H128	H	0.506656	0.766586	0.348887
H129	H	1.133049	0.766605	-0.651082
Br130	Br	0.509267	0.976149	-0.084123
H131	H	1.069783	0.278965	-0.032232
H132	H	0.748619	0.436523	0.128346
