data_functionalizedCrystal
_audit_creation_method	'MofGen! by Chris Wilmer'
_symmetry_space_group_name_H-M	'P1'
_symmetry_Int_Tables_number	1
_symmetry_cell_setting	triclinic
loop_
_symmetry_equiv_pos_as_xyz
  x,y,z
_cell_length_a	16.625546
_cell_length_b	12.759401
_cell_length_c	12.759393
_cell_angle_alpha	90.018713
_cell_angle_beta	89.964856
_cell_angle_gamma	89.976007
loop_
_atom_site_label
_atom_site_type_symbol
_atom_site_fract_x
_atom_site_fract_y
_atom_site_fract_z
Zn1	Zn	-0.320930	-1.606187	-0.593986
Zn2	Zn	-0.455784	-1.606061	-0.418292
Zn3	Zn	-0.320973	-1.430492	-0.418322
Zn4	Zn	-0.455728	-1.430453	-0.593930
O5	O	-0.388353	-1.518298	-0.506132
O6	O	-0.338824	-1.753191	-0.570692
O7	O	-0.437942	-1.582735	-0.271275
O8	O	-0.208134	-1.453867	-0.441660
O9	O	-0.437901	-1.753098	-0.441610
O10	O	-0.208103	-1.582949	-0.570720
O11	O	-0.338897	-1.453745	-0.271297
O12	O	-0.338842	-1.283466	-0.441605
O13	O	-0.437805	-1.453801	-0.740958
O14	O	-0.437846	-1.283438	-0.570623
O15	O	-0.338769	-1.582912	-0.741000
O16	O	-0.568609	-1.582697	-0.441555
O17	O	-0.568567	-1.453679	-0.570595
C18	C	-0.388344	-1.245331	-0.506112
C19	C	-0.388359	-1.128554	-0.506128
C20	C	-0.597844	-1.518199	-0.506088
C21	C	-0.687465	-1.518252	-0.506105
C22	C	-0.388276	-1.518366	-0.780166
C23	C	-0.388243	-1.518395	-0.896943
C24	C	-1.015641	-1.518436	-0.506214
C25	C	-0.924332	-1.518381	-0.506187
C26	C	-0.851556	-1.518343	-0.506159
C27	C	-0.760242	-1.518290	-0.506132
C28	C	-0.178044	-1.518427	-0.506200
C29	C	-0.088423	-1.518481	-0.506228
C30	C	-0.388364	-1.792331	-0.506154
C31	C	-0.388368	-1.909108	-0.506163
C32	C	-0.439989	-1.073705	-0.573202
C33	C	-0.439992	-0.963981	-0.573223
C34	C	-0.336733	-0.963965	-0.439086
C35	C	-0.336726	-1.073687	-0.439071
C36	C	-0.468924	-0.814075	-0.697080
C37	C	-0.520566	-0.759222	-0.764145
C38	C	-0.599254	-0.794805	-0.780084
C39	C	-0.626316	-0.885240	-0.728944
C40	C	-0.574678	-0.940087	-0.661871
C41	C	-0.495978	-0.904505	-0.645952
C42	C	-0.307803	-1.223595	-0.315212
C43	C	-0.256168	-1.278444	-0.248134
C44	C	-0.177479	-1.242863	-0.232183
C45	C	-0.150420	-1.152425	-0.283306
C46	C	-0.202054	-1.097576	-0.350384
C47	C	-0.280743	-1.133165	-0.366336
C48	C	-0.439787	-1.451190	-0.951785
C49	C	-0.439757	-1.451227	-1.061509
C50	C	-0.336632	-1.585678	-1.061539
C51	C	-0.336667	-1.585645	-0.951817
C52	C	-0.534799	-1.413674	-1.211433
C53	C	-0.586336	-1.346452	-1.266279
C54	C	-0.598721	-1.243920	-1.230662
C55	C	-0.559558	-1.208587	-1.140201
C56	C	-0.508016	-1.275803	-1.085361
C57	C	-0.495646	-1.378351	-1.120976
C58	C	-0.241623	-1.623188	-0.801891
C59	C	-0.190076	-1.690399	-0.747049
C60	C	-0.177682	-1.792934	-0.782664
C61	C	-0.216831	-1.828262	-0.873128
C62	C	-0.268379	-1.761051	-0.927970
C63	C	-0.280773	-1.658517	-0.892348
C64	C	-0.388372	-1.518291	-0.233165
C65	C	-0.388178	-1.518466	-0.116389
H66	H	-0.482029	-1.118375	-0.627806
O67	O	-0.384296	-1.257982	-0.330680
C68	C	-0.439049	-1.179734	-0.298943
H69	H	-0.408117	-1.100043	-0.301113
H70	H	-0.492852	-1.179146	-0.354286
H71	H	-0.460452	-1.196740	-0.215769
O72	O	-0.127227	-1.295992	-0.167018
C73	C	-0.051963	-1.245207	-0.163934
H74	H	-0.059719	-1.159533	-0.187163
H75	H	-0.026382	-1.249872	-0.081191
H76	H	-0.008929	-1.285147	-0.220952
O77	O	-0.601077	-1.027927	-0.612300
C78	C	-0.681617	-1.047551	-0.640713
H79	H	-0.694991	-1.008381	-0.719080
H80	H	-0.691510	-1.135662	-0.647948
H81	H	-0.723476	-1.014481	-0.578088
O82	O	-0.175630	-1.009772	-0.400006
C83	C	-0.095110	-0.990107	-0.371526
H84	H	-0.065861	-1.066061	-0.343945
H85	H	-0.060871	-0.958387	-0.442149
H86	H	-0.093486	-0.929972	-0.305459
O87	O	-0.522921	-1.513301	-1.246055
C88	C	-0.596951	-1.567144	-1.247516
H89	H	-0.648333	-1.508183	-1.252649
H90	H	-0.598975	-1.621529	-1.318370
H91	H	-0.603409	-1.615260	-1.172713
O92	O	-0.494361	-0.671277	-0.813717
C93	C	-0.542789	-0.585477	-0.784127
H94	H	-0.572401	-0.602587	-0.705367
H95	H	-0.503896	-0.512245	-0.777160
H96	H	-0.591228	-0.572216	-0.845927
H97	H	-0.251713	-1.539696	-0.772881
O98	O	-0.490010	-1.385995	-0.898520
C99	C	-0.570360	-1.408910	-0.925334
H100	H	-0.574416	-1.492846	-0.955506
H101	H	-0.610219	-1.399828	-0.853165
H102	H	-0.591421	-1.352587	-0.989011
O103	O	-0.282571	-1.366185	-0.198380
C104	C	-0.349057	-1.340781	-0.134585
H105	H	-0.378765	-1.266294	-0.165168
H106	H	-0.394305	-1.407865	-0.136358
H107	H	-0.327867	-1.327642	-0.050646
H108	H	-0.294640	-1.640429	-1.106232
H109	H	-0.690395	-0.914198	-0.741919
H110	H	-0.086349	-1.123442	-0.270302
H111	H	-0.641301	-0.750136	-0.834692
H112	H	-0.135698	-1.847652	-0.738009
O113	O	-0.286625	-0.910778	-0.373800
C114	C	-0.304160	-0.937512	-0.269041
H115	H	-0.335146	-1.017165	-0.266778
H116	H	-0.245924	-0.941266	-0.222069
H117	H	-0.345587	-0.875726	-0.233566
H118	H	-0.476127	-1.247035	-1.011712
O119	O	-0.392429	-0.779661	-0.681713
C120	C	-0.337681	-0.857928	-0.713416
H121	H	-0.368070	-0.912306	-0.772195
H122	H	-0.283040	-0.819709	-0.751536
H123	H	-0.317660	-0.905058	-0.642155
O124	O	-0.571682	-1.108953	-1.105745
C125	C	-0.625546	-1.057189	-1.173569
H126	H	-0.663591	-1.117602	-1.216833
H127	H	-0.666441	-1.003466	-1.125985
H128	H	-0.590162	-1.008642	-1.232733
H129	H	-0.640683	-1.189187	-1.275325
H130	H	-0.158193	-1.661623	-0.673394
O131	O	-0.624419	-1.380592	-1.354189
C132	C	-0.672575	-1.299281	-1.394943
H133	H	-0.648618	-1.220507	-1.366641
H134	H	-0.670842	-1.301883	-1.484226
H135	H	-0.737203	-1.309703	-1.366922
O136	O	-0.306370	-1.795546	-1.015807
C137	C	-0.284360	-1.900449	-1.035507
H138	H	-0.263183	-1.938518	-0.959558
H139	H	-0.338482	-1.945123	-1.067278
H140	H	-0.233620	-1.902535	-1.095614
H141	H	-0.206735	-1.911752	-0.902131
