data_functionalizedCrystal
_audit_creation_method	'MofGen! by Chris Wilmer'
_symmetry_space_group_name_H-M	'P1'
_symmetry_Int_Tables_number	1
_symmetry_cell_setting	triclinic
loop_
_symmetry_equiv_pos_as_xyz
  x,y,z
_cell_length_a	14.519709
_cell_length_b	15.538191
_cell_length_c	12.996460
_cell_angle_alpha	90.007459
_cell_angle_beta	89.992910
_cell_angle_gamma	114.523881
loop_
_atom_site_label
_atom_site_type_symbol
_atom_site_fract_x
_atom_site_fract_y
_atom_site_fract_z
O1	O	-0.299357	-1.249409	-0.085572
O2	O	0.200643	-0.749409	0.414428
O3	O	-0.192931	-0.975329	-0.085574
O4	O	0.307069	-0.475329	0.414426
O5	O	-0.382827	-1.119636	-0.085564
O6	O	0.117173	-0.619636	0.414436
O7	O	-0.109462	-1.105102	-0.085582
O8	O	0.390538	-0.605102	0.414418
O9	O	-0.382830	-1.119621	0.085570
O10	O	0.117170	-0.619621	0.585570
O11	O	-0.192934	-0.975314	0.085560
O12	O	0.307066	-0.475314	0.585560
O13	O	-0.299360	-1.249394	0.085562
O14	O	0.200640	-0.749394	0.585562
Cu15	Cu	-0.246147	-1.112353	0.101187
Cu16	Cu	0.253853	-0.612353	0.601187
Cu17	Cu	-0.246144	-1.112371	-0.101199
Cu18	Cu	0.253856	-0.612371	0.398801
O19	O	-0.109464	-1.105087	0.085551
O20	O	0.390536	-0.605087	0.585551
C21	C	-0.416960	-1.118951	0.000003
C22	C	0.083040	-0.618951	0.500003
C23	C	-0.518659	-1.116921	0.000004
C24	C	-0.018659	-0.616921	0.500004
C25	C	-0.181798	-0.940245	-0.000007
C26	C	0.318202	-0.440245	0.499993
C27	C	-0.148631	-0.835727	-0.000007
C28	C	0.351369	-0.335727	0.499993
C29	C	-0.310493	-1.284478	-0.000008
C30	C	0.189507	-0.784478	0.499992
C31	C	-0.343661	-1.388996	-0.000014
C32	C	0.156339	-0.888996	0.499986
C33	C	-0.891041	-1.109449	-0.000023
C34	C	-0.391041	-0.609449	0.499977
C35	C	-0.787431	-1.111524	-0.000015
C36	C	-0.287431	-0.611524	0.499985
C37	C	-0.704853	-1.113185	-0.000009
C38	C	-0.204853	-0.613185	0.499991
C39	C	-0.601237	-1.115261	-0.000003
C40	C	-0.101237	-0.615261	0.499997
C41	C	-0.075331	-1.105772	-0.000018
C42	C	0.424669	-0.605772	0.499982
C43	C	0.026368	-1.107802	-0.000025
C44	C	0.526368	-0.607802	0.499975
C45	C	-0.478139	-0.547382	-0.000001
C46	C	0.021861	-0.047382	0.499999
C47	C	-0.446950	-0.449168	-0.000004
C48	C	0.053050	0.050832	0.499996
C49	C	-0.271519	-0.427021	-0.000016
C50	C	0.228481	0.072979	0.499984
C51	C	-0.302694	-0.525234	-0.000008
C52	C	0.197306	-0.025234	0.499992
C53	C	-0.406005	-0.585407	-0.000002
C54	C	0.093995	-0.085407	0.499998
C55	C	-0.230559	-0.563260	-0.000008
C56	C	0.269441	-0.063260	0.499992
C57	C	-0.261732	-0.661465	-0.000006
C58	C	0.238268	-0.161465	0.499994
C59	C	-0.365038	-0.721644	-0.000003
C60	C	0.134962	-0.221644	0.499997
C61	C	-0.437177	-0.683612	0.000001
C62	C	0.062823	-0.183612	0.500001
C63	C	-0.127249	-0.503085	-0.000022
C64	C	0.372751	-0.003085	0.499978
C65	C	-0.055115	-0.541111	-0.000022
C66	C	0.444885	-0.041111	0.499978
C67	C	-0.086286	-0.639318	-0.000012
C68	C	0.413714	-0.139318	0.499988
C69	C	-0.189593	-0.699497	-0.000009
C70	C	0.310407	-0.199497	0.499991
C71	C	-0.014147	-0.677349	-0.000016
C72	C	0.485853	-0.177349	0.499984
C73	C	-0.045320	-0.775554	-0.000014
C74	C	0.454680	-0.275554	0.499986
C75	C	-0.220765	-0.797702	-0.000007
C76	C	0.279235	-0.297702	0.499993
N77	N	-0.246153	-1.112347	0.243534
N78	N	0.253847	-0.612347	0.743534
N79	N	-0.246149	-1.112384	-0.243546
N80	N	0.253851	-0.612384	0.256454
C81	C	-0.246143	-1.112369	0.663348
C82	C	0.253857	-0.612369	1.163348
C83	C	-0.246141	-1.112360	0.546543
C84	C	0.253859	-0.612360	1.046543
C85	C	-0.246147	-1.112359	0.453445
C86	C	0.253853	-0.612359	0.953445
C87	C	-0.246147	-1.112349	0.336632
C88	C	0.253853	-0.612349	0.836632
H89	H	-0.304891	-0.846698	0.000004
H90	H	0.195109	-0.346698	0.500004
H91	H	-0.101872	-0.423121	-0.000027
H92	H	0.398128	0.076879	0.499973
C93	C	0.058520	-0.474917	-0.000023
C94	C	0.558520	0.025083	0.499977
H95	H	0.066755	-0.410983	-0.000017
H96	H	0.566755	0.089017	0.499983
H97	H	0.089463	-0.486467	-0.059697
H98	H	0.589463	0.013533	0.440303
H99	H	0.089444	-0.486456	0.059667
H100	H	0.589444	0.013544	0.559667
H101	H	0.013420	-0.806515	-0.000005
H102	H	0.513420	-0.306515	0.499995
H103	H	0.069968	-0.628342	-0.000031
H104	H	0.569968	-0.128342	0.499969
H105	H	-0.390416	-0.801608	-0.000014
H106	H	0.109584	-0.301608	0.499986
C107	C	-0.157885	-0.360827	-0.000016
C108	C	0.342115	0.139173	0.499984
H109	H	-0.149649	-0.296893	-0.000010
H110	H	0.350351	0.203107	0.499990
H111	H	-0.126942	-0.372377	-0.059690
H112	H	0.373058	0.127623	0.440310
H113	H	-0.126961	-0.372366	0.059673
H114	H	0.373039	0.127634	0.559673
H115	H	-0.562265	-0.596379	0.000010
H116	H	-0.062265	-0.096379	0.500010
C117	C	-0.550818	-0.749808	0.000003
C118	C	-0.050818	-0.249808	0.500003
H119	H	-0.589319	-0.713099	-0.000003
H120	H	-0.089319	-0.213099	0.499997
H121	H	-0.566629	-0.788578	0.059677
H122	H	-0.066629	-0.288578	0.559677
H123	H	-0.566614	-0.788578	-0.059686
H124	H	-0.066614	-0.288578	0.440314
H125	H	-0.505698	-0.418213	-0.000005
H126	H	-0.005698	0.081787	0.499995
