data_functionalizedCrystal
_audit_creation_method	'MofGen! by Chris Wilmer'
_symmetry_space_group_name_H-M	'P1'
_symmetry_Int_Tables_number	1
_symmetry_cell_setting	triclinic
loop_
_symmetry_equiv_pos_as_xyz
  x,y,z
_cell_length_a	21.606444
_cell_length_b	20.919287
_cell_length_c	21.606444
_cell_angle_alpha	86.843416
_cell_angle_beta	59.990220
_cell_angle_gamma	58.215598
loop_
_atom_site_label
_atom_site_type_symbol
_atom_site_fract_x
_atom_site_fract_y
_atom_site_fract_z
Zr1	Zr	0.677515	0.616758	-0.114208
O2	O	0.806647	0.514533	-0.207607
O3	O	0.548384	0.648094	-0.085561
O4	O	0.677517	0.648096	-0.214704
O5	O	0.677511	0.514531	0.023389
O6	O	0.677518	0.753453	-0.220319
O7	O	0.677514	0.514532	-0.078464
O8	O	0.446522	0.753450	0.010694
O9	O	0.908507	0.514534	-0.207624
O10	O	0.601497	0.740087	-0.077552
O11	O	0.601495	0.661459	0.002650
O12	O	0.753533	0.661461	-0.149399
O13	O	0.753531	0.582834	-0.069196
Zr14	Zr	0.677512	0.784789	0.039280
Zr15	Zr	0.677516	0.784790	-0.123164
Zr16	Zr	0.677511	0.616757	0.048236
Zr17	Zr	0.839970	0.616758	-0.114235
Zr18	Zr	0.515057	0.784788	0.039308
O19	O	0.806643	0.753452	0.010633
O20	O	0.806648	0.753454	-0.220341
O21	O	0.806641	0.514532	0.023368
O22	O	0.548380	0.887013	0.132679
O23	O	0.548385	0.887015	-0.098295
O24	O	0.548379	0.648093	0.145414
O25	O	0.677516	0.887016	-0.098317
O26	O	0.677509	0.753451	0.139776
O27	O	0.677509	0.648094	0.145392
O28	O	0.677513	0.887015	0.003536
O29	O	0.908508	0.648097	-0.214743
O30	O	0.446519	0.753449	0.139815
O31	O	0.446520	0.887013	0.132696
O32	O	0.446523	0.887014	0.003575
O33	O	0.908504	0.514533	-0.078503
O34	O	0.908505	0.648096	-0.085621
O35	O	0.601494	0.740086	0.074471
O36	O	0.601496	0.818713	-0.005731
O37	O	0.753532	0.740087	-0.077578
O38	O	0.753529	0.661460	0.002625
C39	C	0.474307	0.700772	-0.037430
C40	C	0.405340	0.700772	-0.037418
C41	C	0.429076	0.642728	-0.090452
C42	C	0.364287	0.642730	-0.090468
C43	C	0.275762	0.700773	-0.037446
C44	C	0.252027	0.758823	0.015591
C45	C	0.316815	0.758823	0.015603
C46	C	-0.009260	0.758823	0.015543
C47	C	-0.074049	0.758816	0.015529
C48	C	0.038212	0.642729	-0.090527
C49	C	0.103000	0.642729	-0.090516
C50	C	0.079259	0.700781	-0.037482
C51	C	0.149512	0.700779	-0.037466
C52	C	0.205510	0.700773	-0.037458
C53	C	0.677512	0.490590	-0.026261
C54	C	0.677512	0.419256	-0.022459
C55	C	0.677516	0.385743	-0.076786
C56	C	0.677511	0.318719	-0.073210
C57	C	0.677509	0.285207	-0.015310
C58	C	0.677502	0.318726	0.039023
C59	C	0.677501	0.385751	0.035449
C60	C	0.677507	0.082835	-0.001710
C61	C	0.677511	0.015803	0.001859
C62	C	0.677518	0.015803	-0.110374
C63	C	0.677522	0.082827	-0.113945
C64	C	0.677511	0.116342	-0.059611
C65	C	0.677506	0.216696	-0.011654
C66	C	0.677507	0.184855	-0.063263
C67	C	0.880720	0.700774	-0.037498
C68	C	0.949687	0.700775	-0.037509
C69	C	0.677518	0.700775	-0.240656
C70	C	0.677520	0.700775	-0.309618
C71	C	0.677514	0.910956	-0.048666
C72	C	0.677515	0.982290	-0.052468
C73	C	0.677522	0.758817	-0.345110
C74	C	0.677516	0.758819	-0.409903
C75	C	0.677514	0.700776	-0.439206
C76	C	0.677509	0.642731	-0.403708
C77	C	0.677509	0.642732	-0.338914
C78	C	0.677508	0.642724	-0.665018
C79	C	0.677511	0.642726	-0.729819
C80	C	0.677515	0.758811	-0.736008
C81	C	0.677515	0.758813	-0.671213
C82	C	0.677506	0.700770	-0.635719
C83	C	0.677511	0.700769	-0.565462
C84	C	0.677515	0.700773	-0.509465
C85	C	0.677509	0.700772	0.165729
C86	C	0.677507	0.700772	0.234691
C87	C	0.474308	0.910955	-0.048632
C88	C	0.405342	0.982289	-0.052423
C89	C	0.474302	0.700771	0.165763
C90	C	0.405334	0.700770	0.234736
C91	C	0.474303	0.910954	0.154561
C92	C	0.405335	0.982287	0.219732
C93	C	0.880724	0.490593	-0.229488
C94	C	0.949692	0.419259	-0.294659
C95	C	0.880719	0.490591	-0.026295
C96	C	0.949685	0.419258	-0.022505
C97	C	0.880725	0.700776	-0.240691
C98	C	0.949693	0.700777	-0.309664
C99	C	0.372955	0.974746	-0.091699
C100	C	0.308163	1.041765	-0.095276
C101	C	0.275754	1.116327	-0.059570
C102	C	0.308147	1.123868	-0.020292
C103	C	0.372943	1.056850	-0.016721
C104	C	0.372945	0.741812	0.304624
C105	C	0.308151	0.741808	0.369438
C106	C	0.275743	0.700767	0.364363
C107	C	0.308138	0.659720	0.294468
C108	C	0.372935	0.659719	0.229656
C109	C	0.372948	1.056836	0.208472
C110	C	0.308155	1.123867	0.269700
C111	C	0.275745	1.116349	0.342189
C112	C	0.308138	1.041792	0.353448
C113	C	0.372935	0.974762	0.292220
C114	C	0.982086	0.344711	-0.283399
C115	C	1.046900	0.277679	-0.344628
C116	C	1.079313	0.285198	-0.417116
C117	C	1.046916	0.359754	-0.428375
C118	C	0.982108	0.426784	-0.367147
C119	C	0.982078	0.426801	0.016765
C120	C	1.046888	0.359782	0.020324
C121	C	1.079299	0.285220	-0.015384
C122	C	1.046903	0.277678	-0.054659
C123	C	0.982099	0.344697	-0.058221
C124	C	0.982081	0.741826	-0.304565
C125	C	1.046875	0.741842	-0.369367
C126	C	1.079285	0.700804	-0.439268
C127	C	1.046891	0.659753	-0.444365
C128	C	0.982093	0.659742	-0.379564
H129	H	0.175080	0.595462	-0.133689
H130	H	-0.028601	0.806092	0.058726
H131	H	0.399324	0.775233	0.308770
C132	C	0.408551	0.892760	0.304619
N133	N	0.435376	0.830997	0.313963
H134	H	0.399303	1.063002	0.015267
H135	H	0.955731	0.626311	-0.383725
C136	C	1.082553	0.195653	-0.093922
N137	N	1.109399	0.133870	-0.123487
H138	H	0.501155	0.595454	-0.133621
H139	H	0.281742	0.626305	0.290347
C140	C	0.272482	1.205893	0.018986
N141	N	0.245611	1.267677	0.048576
H142	H	1.132047	0.700819	-0.492027
C143	C	0.946464	0.336386	-0.101414
N144	N	0.919625	0.330121	-0.133946
H145	H	1.073243	0.775269	-0.365202
C146	C	0.946437	0.786980	-0.227681
N147	N	0.919590	0.820996	-0.169774
H148	H	1.073289	0.626341	-0.501287
C149	C	0.204471	1.190042	-0.063501
N150	N	0.150778	1.245562	-0.066460
C151	C	0.272520	0.786973	0.446314
N152	N	0.245682	0.820995	0.504215
C153	C	0.408546	0.614577	0.152781
N154	N	0.435364	0.580575	0.094879
H155	H	-0.146133	0.806085	0.058708
C156	C	0.390404	0.578864	-0.148796
N157	N	0.410078	0.530752	-0.192727
C158	C	0.154647	0.822672	0.073916
N159	N	0.081299	0.870762	0.117849
H160	H	0.297483	0.806089	0.058789
C161	C	0.408592	1.065125	0.128739
N162	N	0.435439	1.071376	0.068686
C163	C	0.946443	0.508813	0.056046
N164	N	0.919610	0.570582	0.085630
H165	H	0.222981	0.700773	0.417143
C166	C	0.064323	0.578875	-0.148872
N167	N	0.083989	0.530782	-0.192815
H168	H	0.281787	1.184568	0.260520
H169	H	0.677503	0.595463	-0.636125
C170	C	0.677504	-0.021057	0.065559
N171	N	0.677499	-0.048821	0.113535
H172	H	0.677502	0.595473	-0.427568
C173	C	0.677500	0.221726	-0.126948
N174	N	0.677496	0.249502	-0.174916
C175	C	0.204460	1.190092	0.409534
N176	N	0.150764	1.245638	0.460256
C177	C	1.082572	0.368012	-0.508119
N178	N	1.109425	0.374229	-0.568184
C179	C	1.082505	0.368095	0.063537
N180	N	1.109327	0.374359	0.096087
H181	H	1.132067	0.230656	-0.012477
H182	H	0.281740	1.035682	0.412476
H183	H	1.132084	0.230611	-0.466966
H184	H	0.955699	0.338574	-0.224381
H185	H	1.073267	0.216979	-0.335446
H186	H	0.677524	0.110112	-0.161092
H187	H	0.677523	0.413022	-0.123938
H188	H	0.955733	0.487483	-0.376325
H189	H	0.677513	0.291434	-0.117447
H190	H	0.677526	-0.011491	-0.154610
H191	H	0.677501	0.110117	0.042531
H192	H	0.677495	0.291438	0.086170
C193	C	0.677497	0.422615	0.095213
N194	N	0.677492	0.450381	0.140231
H195	H	0.677507	0.189403	0.035489
C196	C	0.677523	0.822671	-0.312883
N197	N	0.677520	0.870770	-0.288609
C198	C	0.677514	0.822666	-0.638982
N199	N	0.677509	0.870765	-0.614705
C200	C	0.677487	0.822686	-0.448927
N201	N	0.677452	0.870800	-0.478313
C202	C	0.677514	0.822665	-0.775052
N203	N	0.677514	0.870759	-0.804460
H204	H	0.677508	0.595458	-0.753676
H205	H	0.677506	0.595470	-0.310016
H206	H	0.399342	0.914040	-0.120785
H207	H	0.281797	1.035609	-0.127260
