data_functionalizedCrystal
_audit_creation_method	'MofGen! by Chris Wilmer'
_symmetry_space_group_name_H-M	'P1'
_symmetry_Int_Tables_number	1
_symmetry_cell_setting	triclinic
loop_
_symmetry_equiv_pos_as_xyz
  x,y,z
_cell_length_a	17.699083
_cell_length_b	13.262508
_cell_length_c	16.176319
_cell_angle_alpha	105.911538
_cell_angle_beta	89.998611
_cell_angle_gamma	83.879892
loop_
_atom_site_label
_atom_site_type_symbol
_atom_site_fract_x
_atom_site_fract_y
_atom_site_fract_z
O1	O	1.004670	0.132726	-0.038785
O2	O	0.784368	0.149994	-0.034929
O3	O	0.900065	-0.011440	-0.071210
O4	O	0.888973	0.294161	-0.002504
O5	O	0.900049	-0.011450	0.066280
O6	O	0.784352	0.149984	0.102561
O7	O	1.004654	0.132716	0.098706
Cu8	Cu	0.894502	0.141349	0.113188
Cu9	Cu	0.894521	0.141361	-0.049411
O10	O	0.888957	0.294151	0.134987
C11	C	0.756161	0.149371	0.033673
C12	C	0.672134	0.147514	0.033246
C13	C	0.623935	0.242273	0.054550
C14	C	0.544984	0.240523	0.054167
C15	C	0.514234	0.144012	0.032474
C16	C	0.562439	0.049246	0.011171
C17	C	0.641388	0.050998	0.011560
C18	C	0.244044	0.042181	0.009603
C19	C	0.165088	0.040437	0.009213
C20	C	0.147640	0.231705	0.052210
C21	C	0.226590	0.233457	0.052599
C22	C	0.274788	0.138692	0.031300
C23	C	0.360396	0.140591	0.031717
C24	C	0.428627	0.142112	0.032051
C25	C	0.899437	-0.050546	-0.011258
C26	C	0.897579	-0.167055	-0.037458
C27	C	0.892304	-0.495510	0.188484
C28	C	0.894044	-0.386043	0.213101
C29	C	0.894928	-0.331291	0.150463
C30	C	0.894072	-0.386016	0.063204
C31	C	0.892327	-0.495493	0.038585
C32	C	0.894950	-0.331273	0.000565
C33	C	0.894094	-0.385999	-0.086694
C34	C	0.892350	-0.495465	-0.111309
C35	C	0.891466	-0.550217	-0.048672
C36	C	0.896696	-0.221797	0.025184
C37	C	0.896718	-0.221780	-0.124715
C38	C	0.894979	-0.331247	-0.149332
C39	C	1.032862	0.133340	0.030101
C40	C	1.116888	0.135196	0.030523
C41	C	0.889586	0.333257	0.075032
C42	C	0.891443	0.449766	0.101227
N43	N	0.894494	0.141340	0.227551
N44	N	0.894534	0.141362	-0.163776
C45	C	0.945740	0.069886	0.254756
C46	C	0.945744	0.069885	0.341303
C47	C	0.894505	0.141344	0.400644
C48	C	0.843253	0.212801	0.373433
C49	C	0.843246	0.212796	0.286887
C50	C	0.843279	0.212821	0.722466
C51	C	0.843291	0.212822	0.809018
C52	C	0.945777	0.069909	0.776882
C53	C	0.945770	0.069905	0.690336
C54	C	0.894516	0.141358	0.663132
C55	C	0.894511	0.141357	0.569287
C56	C	0.894512	0.141351	0.494488
H57	H	0.537395	-0.029334	-0.006481
H58	H	0.680632	-0.026165	-0.005789
Br59	Br	1.015314	-0.027072	0.609805
H60	H	0.987468	0.011700	0.206445
H61	H	0.897385	-0.177249	0.096231
H62	H	0.987508	0.011725	0.799039
H63	H	0.140055	-0.038158	-0.008452
Br64	Br	0.309446	-0.086430	-0.019301
Br65	Br	0.773724	0.309792	0.685550
H66	H	0.891579	-0.540098	0.239474
Br67	Br	0.895188	-0.311777	0.331519
Br68	Br	0.082224	0.360319	0.081117
H69	H	0.890053	-0.639355	-0.068711
H70	H	0.896343	-0.242157	0.170512
H71	H	0.891646	-0.540018	-0.182361
H72	H	0.505743	0.317685	0.071514
Br73	Br	0.893822	-0.405530	-0.267752
H74	H	0.897432	-0.177200	-0.175719
H75	H	0.987471	0.011701	0.363452
Br76	Br	0.773749	0.309810	0.889554
Br77	Br	0.773707	0.309776	0.453963
Br78	Br	0.773690	0.309767	0.249964
H79	H	0.648966	0.320863	0.072215
H80	H	0.251622	0.312045	0.070260
