data_functionalizedCrystal
_audit_creation_method	'MofGen! by Chris Wilmer'
_symmetry_space_group_name_H-M	'P1'
_symmetry_Int_Tables_number	1
_symmetry_cell_setting	triclinic
loop_
_symmetry_equiv_pos_as_xyz
  x,y,z
_cell_length_a	12.594517
_cell_length_b	12.594516
_cell_length_c	19.805399
_cell_angle_alpha	89.979203
_cell_angle_beta	89.980173
_cell_angle_gamma	90.015485
loop_
_atom_site_label
_atom_site_type_symbol
_atom_site_fract_x
_atom_site_fract_y
_atom_site_fract_z
Zn1	Zn	1.627242	-0.423783	-0.382756
Zn2	Zn	1.960575	-0.090450	-0.049423
Zn3	Zn	2.293909	0.242884	0.283911
Zn4	Zn	1.627140	-0.601776	-0.269581
Zn5	Zn	1.960473	-0.268443	0.063752
Zn6	Zn	2.293807	0.064890	0.397085
Zn7	Zn	1.449253	-0.423810	-0.269580
Zn8	Zn	1.782587	-0.090477	0.063753
Zn9	Zn	2.115920	0.242856	0.397086
Zn10	Zn	1.449228	-0.601718	-0.382728
Zn11	Zn	1.782561	-0.268385	-0.049394
Zn12	Zn	2.115895	0.064949	0.283939
O13	O	1.538216	-0.512772	-0.326161
O14	O	1.871549	-0.179439	0.007172
O15	O	2.204882	0.153895	0.340505
O16	O	1.776174	-0.447407	-0.367756
O17	O	2.109507	-0.114074	-0.034422
O18	O	2.442841	0.219260	0.298911
O19	O	1.603511	-0.578205	-0.174865
O20	O	1.936844	-0.244871	0.158469
O21	O	2.270178	0.088462	0.491802
O22	O	1.472917	-0.274861	-0.284605
O23	O	1.806250	0.058472	0.048729
O24	O	2.139584	0.391806	0.382062
O25	O	1.776099	-0.578178	-0.284607
O26	O	2.109433	-0.244845	0.048727
O27	O	2.442766	0.088489	0.382060
O28	O	1.603684	-0.274841	-0.367755
O29	O	1.937018	0.058493	-0.034421
O30	O	2.270351	0.391826	0.298912
O31	O	1.472818	-0.447454	-0.174864
O32	O	1.806152	-0.114121	0.158470
O33	O	2.139485	0.219213	0.491803
O34	O	1.300304	-0.447397	-0.284577
O35	O	1.633637	-0.114064	0.048756
O36	O	1.966971	0.219269	0.382090
O37	O	1.472874	-0.578079	-0.477448
O38	O	1.806207	-0.244745	-0.144115
O39	O	2.139541	0.088588	0.189219
O40	O	1.300286	-0.578105	-0.367706
O41	O	1.633619	-0.244772	-0.034373
O42	O	1.966952	0.088561	0.298961
O43	O	1.603660	-0.447350	-0.477469
O44	O	1.936993	-0.114017	-0.144136
O45	O	2.270327	0.219316	0.189198
O46	O	1.603487	-0.750714	-0.284579
O47	O	1.936820	-0.417381	0.048754
O48	O	2.270153	-0.084048	0.382088
O49	O	1.472775	-0.750672	-0.367707
O50	O	1.806109	-0.417338	-0.034374
O51	O	2.139442	-0.084005	0.298960
C52	C	1.261675	-0.512749	-0.326139
C53	C	1.595008	-0.179415	0.007195
C54	C	1.928341	0.153918	0.340528
C55	C	1.143369	-0.512765	-0.326145
C56	C	1.476703	-0.179431	0.007188
C57	C	1.810036	0.153902	0.340522
C58	C	1.003332	-0.441595	-0.281035
C59	C	1.336665	-0.108261	0.052299
C60	C	1.669999	0.225072	0.385632
C61	C	1.074186	-0.415670	-0.342798
C62	C	1.407520	-0.082337	-0.009464
C63	C	1.740853	0.250996	0.323869
C64	C	1.074086	-0.538641	-0.264389
C65	C	1.407420	-0.205308	0.068945
C66	C	1.740753	0.128026	0.402278
C67	C	1.003438	-0.486832	-0.387990
C68	C	1.336772	-0.153499	-0.054657
C69	C	1.670105	0.179835	0.278676
C70	C	1.003332	-0.609848	-0.309540
C71	C	1.336665	-0.276514	0.023794
C72	C	1.669999	0.056819	0.357127
C73	C	1.074155	-0.583960	-0.371345
C74	C	1.407488	-0.250627	-0.038012
C75	C	1.740821	0.082706	0.295321
C76	C	1.538146	-0.789313	-0.326155
C77	C	1.871479	-0.455980	0.007179
C78	C	2.204813	-0.122646	0.340512
C79	C	1.538214	-0.907618	-0.326174
C80	C	1.871547	-0.574285	0.007159
C81	C	2.204880	-0.240952	0.340492
C82	C	1.467113	-0.976887	-0.371356
C83	C	1.800446	-0.643553	-0.038023
C84	C	2.133779	-0.310220	0.295311
C85	C	1.441183	-1.047743	-0.309594
C86	C	1.774517	-0.714409	0.023739
C87	C	2.107850	-0.381076	0.357073
C88	C	1.564240	-1.047561	-0.387947
C89	C	1.897573	-0.714228	-0.054614
C90	C	2.230907	-0.380895	0.278719
C91	C	1.512233	-0.976916	-0.264380
C92	C	1.845566	-0.643583	0.068954
C93	C	2.178900	-0.310249	0.402287
C94	C	1.635334	-0.976728	-0.342775
C95	C	1.968668	-0.643395	-0.009441
C96	C	2.302001	-0.310062	0.323892
C97	C	1.609442	-1.047552	-0.280970
C98	C	1.942775	-0.714219	0.052363
C99	C	2.276109	-0.380886	0.385697
C100	C	1.815837	-0.512796	-0.326184
C101	C	2.149170	-0.179463	0.007149
C102	C	2.482503	0.153871	0.340482
C103	C	1.934142	-0.512806	-0.326194
C104	C	2.267475	-0.179473	0.007139
C105	C	2.600809	0.153861	0.340472
C106	C	1.538275	-0.512705	-0.502704
C107	C	1.871609	-0.179372	-0.169371
C108	C	2.204942	0.153962	0.163963
C109	C	1.538301	-0.512676	-0.577936
C110	C	1.871634	-0.179343	-0.244603
C111	C	2.204968	0.153990	0.088731
C112	C	1.538315	-0.235151	-0.326183
C113	C	1.871648	0.098182	0.007151
C114	C	2.204981	0.431516	0.340484
C115	C	1.538357	-0.116846	-0.326192
C116	C	1.871690	0.216488	0.007141
C117	C	2.205024	0.549821	0.340475
C118	C	1.606403	-0.444603	-0.613292
C119	C	1.939736	-0.111269	-0.279959
C120	C	2.273069	0.222064	0.053374
C121	C	1.606414	-0.444572	-0.683981
C122	C	1.939747	-0.111239	-0.350647
C123	C	2.273080	0.222095	-0.017314
C124	C	1.538327	-0.512621	-0.719312
C125	C	1.871661	-0.179287	-0.385978
C126	C	2.204994	0.154046	-0.052645
C127	C	1.470218	-0.580697	-0.683951
C128	C	1.803551	-0.247364	-0.350617
C129	C	2.136885	0.085969	-0.017284
C130	C	1.470203	-0.580722	-0.613263
C131	C	1.803536	-0.247389	-0.279930
C132	C	2.136869	0.085945	0.053403
C133	C	1.470278	-0.580598	-0.969024
C134	C	1.803611	-0.247265	-0.635691
C135	C	2.136945	0.086069	-0.302357
C136	C	1.470301	-0.580570	-1.039716
C137	C	1.803634	-0.247237	-0.706383
C138	C	2.136968	0.086096	-0.373050
C139	C	1.606489	-0.444448	-1.039741
C140	C	1.939823	-0.111115	-0.706408
C141	C	2.273156	0.222219	-0.373075
C142	C	1.606474	-0.444473	-0.969054
C143	C	1.939807	-0.111139	-0.635721
C144	C	2.273140	0.222194	-0.302388
C145	C	1.538361	-0.512545	-0.933699
C146	C	1.871694	-0.179211	-0.600366
C147	C	2.205028	0.154122	-0.267033
C148	C	1.538348	-0.512576	-0.857051
C149	C	1.871682	-0.179243	-0.523717
C150	C	2.205015	0.154091	-0.190384
C151	C	1.538344	-0.512596	-0.795959
C152	C	1.871678	-0.179262	-0.462626
C153	C	2.205011	0.154071	-0.129292
C154	C	1.538218	-0.512762	-0.150305
C155	C	1.871551	-0.179429	0.183028
C156	C	2.204884	0.153905	0.516361
C157	C	1.538398	-0.512491	-0.075074
C158	C	1.871732	-0.179157	0.258260
C159	C	2.205065	0.154176	0.591593
H160	H	0.972534	-0.464868	-0.440253
H161	H	1.305867	-0.131534	-0.106920
H162	H	1.639200	0.201799	0.226414
H163	H	1.669631	-1.078385	-0.242725
H164	H	2.002964	-0.745052	0.090609
H165	H	2.336298	-0.411718	0.423942
H166	H	1.661946	-0.389017	-1.068536
H167	H	1.995280	-0.055683	-0.735203
H168	H	2.328613	0.277650	-0.401869
H169	H	1.661850	-0.389193	-0.584531
H170	H	1.995183	-0.055859	-0.251198
H171	H	2.328517	0.277474	0.082136
H172	H	1.661872	-0.389142	-0.712765
H173	H	1.995205	-0.055809	-0.379431
H174	H	2.328538	0.277525	-0.046098
H175	H	1.105054	-0.644165	-0.409558
H176	H	1.438387	-0.310831	-0.076225
H177	H	1.771720	0.022502	0.257108
H178	H	0.972187	-0.691908	-0.295451
H179	H	1.305520	-0.358575	0.037882
H180	H	1.638853	-0.025241	0.371215
H181	H	1.586195	-1.078593	-0.440181
H182	H	1.919528	-0.745260	-0.106847
H183	H	2.252862	-0.411926	0.226486
H184	H	1.359117	-1.078959	-0.295568
H185	H	1.692450	-0.745626	0.037766
H186	H	2.025784	-0.412292	0.371099
H187	H	1.717382	-0.945515	-0.356830
H188	H	2.050716	-0.612182	-0.023497
H189	H	2.384049	-0.278848	0.309836
H190	H	1.490183	-0.946013	-0.212132
H191	H	1.823516	-0.612679	0.121201
H192	H	2.156849	-0.279346	0.454535
H193	H	1.105123	-0.560509	-0.212141
H194	H	1.438456	-0.227176	0.121192
H195	H	1.771789	0.106158	0.454526
H196	H	1.661920	-0.389064	-0.940291
H197	H	1.995254	-0.055731	-0.606958
H198	H	2.328587	0.277603	-0.273625
H199	H	1.406878	-0.945857	-0.409509
H200	H	1.740211	-0.612524	-0.076176
H201	H	2.073544	-0.279191	0.257158
H202	H	1.414777	-0.636100	-0.712723
H203	H	1.748110	-0.302767	-0.379389
H204	H	2.081444	0.030567	-0.046056
H205	H	1.105290	-0.333583	-0.356876
H206	H	1.438624	-0.000250	-0.023543
H207	H	1.771957	0.333084	0.309791
H208	H	1.414832	-0.636042	-0.940247
H209	H	1.748165	-0.302709	-0.606913
H210	H	2.081499	0.030625	-0.273580
H211	H	1.414852	-0.635986	-1.068481
H212	H	1.748186	-0.302653	-0.735147
H213	H	2.081519	0.030681	-0.401814
H214	H	0.972238	-0.381345	-0.242913
H215	H	1.305572	-0.048012	0.090421
H216	H	1.638905	0.285321	0.423754
H217	H	1.414736	-0.636144	-0.584477
H218	H	1.748070	-0.302810	-0.251144
H219	H	2.081403	0.030523	0.082189
