data_functionalizedCrystal
_audit_creation_method	'MofGen! by Chris Wilmer'
_symmetry_space_group_name_H-M	'P1'
_symmetry_Int_Tables_number	1
_symmetry_cell_setting	triclinic
loop_
_symmetry_equiv_pos_as_xyz
  x,y,z
_cell_length_a	12.827893
_cell_length_b	25.639239
_cell_length_c	12.827885
_cell_angle_alpha	89.964018
_cell_angle_beta	89.980728
_cell_angle_gamma	90.038657
loop_
_atom_site_label
_atom_site_type_symbol
_atom_site_fract_x
_atom_site_fract_y
_atom_site_fract_z
Zn1	Zn	1.597500	-0.208126	-0.590804
Zn2	Zn	1.597324	-0.295571	-0.416045
Zn3	Zn	1.422742	-0.208151	-0.416077
Zn4	Zn	1.422656	-0.295532	-0.590745
O5	O	1.510055	-0.251845	-0.503418
O6	O	1.743713	-0.219731	-0.567633
O7	O	1.574127	-0.284002	-0.269813
O8	O	1.446034	-0.134983	-0.439293
O9	O	1.743583	-0.283977	-0.439238
O10	O	1.574428	-0.134964	-0.567664
O11	O	1.445862	-0.219775	-0.269837
O12	O	1.276494	-0.219737	-0.439236
O13	O	1.445888	-0.283911	-0.736989
O14	O	1.276431	-0.283935	-0.567564
O15	O	1.574345	-0.219694	-0.737032
O16	O	1.574044	-0.368731	-0.439181
O17	O	1.445716	-0.368702	-0.567533
C18	C	1.238546	-0.251835	-0.503398
C19	C	1.122392	-0.251843	-0.503414
C20	C	1.070604	-0.283660	-0.566817
C21	C	0.950554	-0.283670	-0.566835
C22	C	1.509880	-0.387688	-0.503370
C23	C	1.509900	-0.445802	-0.503384
C24	C	1.577050	-0.806167	-0.436699
C25	C	1.577090	-0.860771	-0.436713
O26	O	1.634001	-0.889010	-0.379962
N27	N	1.510239	-0.888084	-0.503487
C28	C	1.443350	-0.860790	-0.570259
O29	O	1.386493	-0.889035	-0.627057
C30	C	1.443316	-0.806186	-0.570249
C31	C	1.510164	-0.778876	-0.503463
C32	C	1.643893	-0.778857	-0.369920
C33	C	1.643851	-0.724256	-0.369904
C34	C	1.576966	-0.696966	-0.436669
C35	C	1.510122	-0.724276	-0.503448
C36	C	1.376433	-0.778893	-0.637026
C37	C	1.376405	-0.724286	-0.637011
C38	C	1.443253	-0.696976	-0.570225
C39	C	1.443194	-0.642385	-0.570198
N40	N	1.510045	-0.615072	-0.503424
C41	C	1.576931	-0.642363	-0.436659
C42	C	1.443429	-0.975460	-0.570275
C43	C	1.443458	-1.030063	-0.570280
C44	C	1.577199	-1.030040	-0.436735
C45	C	1.577165	-0.975437	-0.436726
C46	C	1.510281	-0.948148	-0.503501
C47	C	1.576837	-0.527698	-0.436632
C48	C	1.576786	-0.473092	-0.436620
C49	C	1.443049	-0.473119	-0.570168
C50	C	1.443095	-0.527720	-0.570177
C51	C	1.509998	-0.555008	-0.503405
O52	O	1.386315	-0.614112	-0.626923
O53	O	1.633789	-0.614110	-0.379880
C54	C	1.782626	-0.251856	-0.503438
C55	C	1.898779	-0.251860	-0.503447
C56	C	1.510127	-0.251795	-0.775988
C57	C	1.510157	-0.251773	-0.892141
C58	C	1.510260	-0.115472	-0.503489
C59	C	1.510348	-0.057358	-0.503519
C60	C	1.573729	-0.219991	-0.943947
C61	C	1.573761	-0.219968	-1.063998
C62	C	1.510045	-0.251857	-0.231908
C63	C	1.510217	-0.251731	-0.115755
H64	H	1.077854	-0.224608	-0.449151
H65	H	1.115143	-0.310891	-0.621088
H66	H	1.388665	-0.549957	-0.624562
H67	H	1.628191	-0.192759	-1.108550
O68	O	0.891574	-0.319753	-0.638747
H69	H	0.806538	-0.314095	-0.627483
O70	O	1.370913	-0.443680	-0.642182
H71	H	1.382132	-0.401124	-0.630955
O72	O	1.648904	-0.443639	-0.364593
H73	H	1.637641	-0.401085	-0.375791
O74	O	0.957746	-0.215774	-0.431529
H75	H	1.007520	-0.189215	-0.478429
H76	H	1.631318	-0.549909	-0.382263
O77	O	1.715967	-0.694803	-0.297887
H78	H	1.762487	-0.722961	-0.251480
O79	O	1.645804	-0.183970	-0.884986
H80	H	1.634476	-0.189645	-0.799946
O81	O	1.716033	-0.808288	-0.297897
H82	H	1.762494	-0.780116	-0.251461
H83	H	1.631599	-0.953205	-0.382344
O84	O	1.649364	-1.059480	-0.364740
H85	H	1.638164	-1.102036	-0.375985
H86	H	1.389013	-1.052294	-0.624654
O87	O	1.371260	-0.946027	-0.642275
H88	H	1.324774	-0.974197	-0.688691
H89	H	1.321993	-0.801120	-0.691405
O90	O	1.438098	-0.287775	-1.056770
H91	H	1.484845	-0.314368	-1.007022
O92	O	1.304252	-0.694851	-0.709021
H93	H	1.257771	-0.723019	-0.755448
O94	O	1.438083	-0.287793	-0.951108
H95	H	1.455910	-0.328843	-0.930198
