data_functionalizedCrystal
_audit_creation_method	'MofGen! by Chris Wilmer'
_symmetry_space_group_name_H-M	'P1'
_symmetry_Int_Tables_number	1
_symmetry_cell_setting	triclinic
loop_
_symmetry_equiv_pos_as_xyz
  x,y,z
_cell_length_a	16.992694
_cell_length_b	16.109301
_cell_length_c	14.586319
_cell_angle_alpha	90.005214
_cell_angle_beta	90.002127
_cell_angle_gamma	92.935148
loop_
_atom_site_label
_atom_site_type_symbol
_atom_site_fract_x
_atom_site_fract_y
_atom_site_fract_z
O1	O	1.040345	-0.176288	-0.076131
O2	O	0.812060	-0.174354	-0.076158
O3	O	0.932474	-0.054709	-0.076134
O4	O	0.919932	-0.295934	-0.076154
O5	O	0.932466	-0.054706	0.076347
O6	O	0.812052	-0.174352	0.076323
O7	O	1.040337	-0.176286	0.076350
Cu8	Cu	0.926194	-0.175318	0.090259
Cu9	Cu	0.926204	-0.175321	-0.090067
O10	O	0.919923	-0.295931	0.076327
C11	C	0.782844	-0.171865	0.000080
C12	C	0.695802	-0.164441	0.000070
C13	C	0.931962	-0.023699	0.000107
C14	C	0.930439	0.068698	0.000108
N15	N	0.926192	-0.175316	0.217091
C16	C	0.645543	-0.236067	0.000064
C17	C	0.563758	-0.229087	0.000078
C18	C	0.532234	-0.150481	0.000090
C19	C	0.582499	-0.078849	0.000098
C20	C	0.664282	-0.085830	0.000091
C21	C	0.288644	-0.121548	0.000116
C22	C	0.206854	-0.114572	0.000120
C23	C	0.188119	-0.264811	0.000102
C24	C	0.269904	-0.271785	0.000090
C25	C	0.320163	-0.200154	0.000103
N26	N	0.448637	-0.143344	0.000100
N27	N	0.403758	-0.207291	0.000099
C28	C	1.069553	-0.178775	0.000111
C29	C	1.156595	-0.186198	0.000115
C30	C	0.920435	-0.326941	0.000084
C31	C	0.921959	-0.419338	0.000077
C32	C	0.998348	0.286439	0.000101
C33	C	0.996911	0.373256	0.000094
C34	C	0.854044	0.362915	0.000080
C35	C	0.855482	0.276100	0.000082
C36	C	0.927636	0.237865	0.000097
C37	C	0.924761	0.411496	0.000088
C38	C	0.923202	0.505626	0.000080
C39	C	0.929196	0.143729	0.000103
N40	N	0.926211	-0.175317	-0.216898
C41	C	0.979529	-0.122357	0.452108
C42	C	0.979531	-0.122355	0.548089
C43	C	0.872869	-0.228278	0.548078
C44	C	0.872863	-0.228276	0.452098
C45	C	0.926198	-0.175316	0.404116
C46	C	0.926206	-0.175317	0.596077
C47	C	0.926208	-0.175316	0.700144
C48	C	0.926195	-0.175316	0.300042
H49	H	0.522840	-0.287413	0.000072
H50	H	1.054491	0.412802	0.000096
O51	O	0.139410	-0.334474	0.000056
C52	C	0.184772	-0.405350	0.000070
H53	H	0.245814	-0.388302	-0.028801
H54	H	0.190596	-0.429187	0.073220
C55	C	0.069026	-0.494536	-0.024270
C56	C	0.143997	-0.473600	-0.059737
H57	H	0.043873	-0.536638	-0.061158
H58	H	0.038463	-0.446786	-0.024276
H59	H	0.073890	-0.514396	0.036688
H60	H	0.139131	-0.453731	-0.120690
H61	H	0.174557	-0.521348	-0.059743
H62	H	0.556826	-0.014846	0.000120
O63	O	0.712995	-0.016168	0.000050
C64	C	0.667636	0.054710	0.000083
H65	H	0.606588	0.037665	-0.028783
H66	H	0.661825	0.078550	0.073238
C67	C	0.783382	0.143890	-0.024258
C68	C	0.708404	0.122957	-0.059718
H69	H	0.808530	0.185990	-0.061142
H70	H	0.813942	0.096139	-0.024276
H71	H	0.778529	0.163752	0.036705
H72	H	0.713258	0.103086	-0.120674
H73	H	0.677846	0.170706	-0.059711
O74	O	0.784025	0.400192	0.000115
C75	C	0.797917	0.487233	0.000095
H76	H	0.859110	0.503536	0.028966
H77	H	0.794123	0.511620	-0.073057
C78	C	0.660395	0.507325	0.024431
C79	C	0.735552	0.527348	0.059898
H80	H	0.621924	0.532071	0.061316
H81	H	0.651035	0.448683	0.024441
H82	H	0.657245	0.527648	-0.036529
H83	H	0.738704	0.507016	0.120852
H84	H	0.744911	0.585987	0.059900
H85	H	1.022958	-0.079231	0.587162
O86	O	0.176361	-0.038145	0.000172
C87	C	0.238256	0.023583	0.000157
H88	H	0.293809	-0.003409	0.029025
H89	H	0.249833	0.045938	-0.072993
C90	C	0.146952	0.130428	0.024505
C91	C	0.215183	0.097277	0.059968
H92	H	0.132719	0.175888	0.061395
H93	H	0.105252	0.088841	0.024511
H94	H	0.156609	0.149050	-0.036453
H95	H	0.205522	0.078646	0.120920
H96	H	0.256881	0.138862	0.059973
H97	H	0.797897	0.236549	0.000075
O98	O	1.031361	-0.070831	0.405639
C99	C	1.078445	-0.024102	0.468585
H100	H	1.046302	-0.021013	0.537004
H101	H	1.136683	-0.055000	0.478787
C102	C	1.134103	0.060712	0.347108
C103	C	1.094622	0.064512	0.431138
H104	H	1.144085	0.115372	0.324008
H105	H	1.102384	0.029228	0.304699
H106	H	1.182630	0.034960	0.355621
H107	H	1.046091	0.090254	0.422622
H108	H	1.126333	0.096002	0.473545
H109	H	1.057101	0.255311	0.000112
H110	H	0.829431	-0.271401	0.413021
O111	O	0.300550	-0.348132	-0.000105
C112	C	0.347291	-0.356641	-0.079083
H113	H	0.327959	-0.311885	-0.134249
H114	H	0.411797	-0.341773	-0.061240
C115	C	0.361067	-0.501449	-0.047183
C116	C	0.337319	-0.446484	-0.114941
H117	H	0.354920	-0.556869	-0.069300
H118	H	0.329579	-0.495716	0.006028
H119	H	0.414820	-0.489049	-0.032319
H120	H	0.283564	-0.458878	-0.129795
H121	H	0.368798	-0.452220	-0.168156
O122	O	0.337534	-0.052026	-0.000005
C123	C	0.385381	-0.051555	-0.078991
H124	H	0.389504	-0.117821	-0.105321
H125	H	0.358475	-0.011803	-0.134286
C126	C	0.463357	0.066164	-0.022667
C127	C	0.468427	-0.015226	-0.055003
H128	H	0.514583	0.088577	-0.007873
H129	H	0.431120	0.065850	0.030546
H130	H	0.440932	0.099280	-0.068752
H131	H	0.490842	-0.048343	-0.008914
H132	H	0.500670	-0.014917	-0.108208
H133	H	0.829446	-0.271398	0.587155
H134	H	0.671204	-0.300077	0.000054
