data_functionalizedCrystal
_audit_creation_method	'MofGen! by Chris Wilmer'
_symmetry_space_group_name_H-M	'P1'
_symmetry_Int_Tables_number	1
_symmetry_cell_setting	triclinic
loop_
_symmetry_equiv_pos_as_xyz
  x,y,z
_cell_length_a	16.959454
_cell_length_b	19.805407
_cell_length_c	19.805399
_cell_angle_alpha	89.984884
_cell_angle_beta	89.976206
_cell_angle_gamma	90.017392
loop_
_atom_site_label
_atom_site_type_symbol
_atom_site_fract_x
_atom_site_fract_y
_atom_site_fract_z
Zn1	Zn	-0.314745	1.034748	-0.382712
Zn2	Zn	-0.446931	1.034680	-0.269534
Zn3	Zn	-0.314764	0.921567	-0.269540
Zn4	Zn	-0.446880	0.921538	-0.382684
O5	O	-0.380830	0.978133	-0.326118
O6	O	-0.332294	1.129455	-0.367708
O7	O	-0.429428	1.019660	-0.174818
O8	O	-0.204151	0.936621	-0.284567
O9	O	-0.429410	1.129406	-0.284556
O10	O	-0.204137	1.019774	-0.367714
O11	O	-0.332326	0.936556	-0.174823
O12	O	-0.332276	0.826847	-0.284540
O13	O	-0.429322	0.936572	-0.477405
O14	O	-0.429341	0.826826	-0.367666
O15	O	-0.332244	1.019746	-0.477425
O16	O	-0.557535	1.019631	-0.284530
O17	O	-0.557497	0.936506	-0.367661
C18	C	-0.380805	0.802277	-0.326101
C19	C	-0.380814	0.727045	-0.326110
C20	C	-0.330335	0.691728	-0.369473
C21	C	-0.330339	0.621039	-0.369476
C22	C	-0.380827	0.585670	-0.326118
C23	C	-0.431308	0.620992	-0.282751
C24	C	-0.431299	0.691680	-0.282745
C25	C	-0.431343	0.335919	-0.282772
C26	C	-0.431350	0.265227	-0.282782
C27	C	-0.330383	0.265279	-0.369502
C28	C	-0.330375	0.335966	-0.369496
C29	C	-0.380852	0.371282	-0.326127
C30	C	-0.380846	0.447931	-0.326123
C31	C	-0.380837	0.509023	-0.326125
C32	C	-0.586196	0.978077	-0.326106
C33	C	-0.674053	0.978114	-0.326124
C34	C	-1.045539	0.934913	-0.369399
C35	C	-1.045518	1.021542	-0.282905
C36	C	-0.962972	1.021519	-0.282899
C37	C	-0.921706	0.978191	-0.326143
C38	C	-0.962985	0.934887	-0.369393
C39	C	-0.921687	1.064817	-0.239644
C40	C	-0.839136	1.064795	-0.239636
C41	C	-0.797868	1.021470	-0.282884
C42	C	-0.839152	0.978164	-0.326136
C43	C	-0.797886	0.934837	-0.369380
C44	C	-0.839169	0.891534	-0.412637
C45	C	-0.921717	0.891562	-0.412641
C46	C	-0.715319	1.021442	-0.282880
C47	C	-0.715332	0.934810	-0.369374
C48	C	-0.174662	0.978209	-0.326144
C49	C	-0.086805	0.978241	-0.326155
C50	C	-0.380775	0.978163	-0.502660
C51	C	-0.380752	0.978176	-0.577892
C52	C	-0.380856	1.154676	-0.326135
C53	C	-0.380866	1.229908	-0.326142
C54	C	-0.330186	0.934916	-0.613238
C55	C	-0.330171	0.934925	-0.683927
C56	C	-0.380718	0.978198	-0.719268
C57	C	-0.431289	1.021460	-0.683917
C58	C	-0.431308	1.021447	-0.613230
C59	C	-0.431215	1.021513	-0.968991
C60	C	-0.431191	1.021525	-1.039683
C61	C	-0.330078	0.934992	-1.039688
C62	C	-0.330097	0.934979	-0.969000
C63	C	-0.380671	0.978238	-0.933656
C64	C	-0.380688	0.978226	-0.857007
C65	C	-0.380697	0.978214	-0.795915
C66	C	-0.380828	0.978143	-0.150262
C67	C	-0.380628	0.978261	-0.075030
H68	H	-0.289279	0.236515	-0.404813
C69	C	-0.967129	0.843927	-0.460210
H70	H	-1.022202	0.850143	-0.454012
H71	H	-0.953573	0.853794	-0.505697
H72	H	-0.953639	0.798451	-0.450254
C73	C	-1.090905	1.069197	-0.235337
H74	H	-1.054496	1.094980	-0.209575
H75	H	-1.123074	1.098680	-0.261256
H76	H	-1.123140	1.043328	-0.205821
C77	C	-1.090945	0.887282	-0.416976
H78	H	-1.146019	0.893498	-0.410786
H79	H	-1.077378	0.897152	-0.462460
H80	H	-1.077458	0.841805	-0.407021
H81	H	-0.288900	0.899767	-1.068474
H82	H	-0.472404	0.720434	-0.247434
C83	C	-0.967076	1.112471	-0.192077
H84	H	-0.930668	1.138251	-0.166310
H85	H	-0.999239	1.141957	-0.217996
H86	H	-0.999316	1.086601	-0.162565
H87	H	-0.681711	1.056695	-0.247658
H88	H	-0.472356	1.056764	-1.068456
C89	C	-0.486832	1.069106	-0.930120
H90	H	-0.516923	1.094886	-0.961294
H91	H	-0.521281	1.043205	-0.902535
H92	H	-0.456598	1.098605	-0.902556
H93	H	-0.289236	0.592287	-0.404787
C94	C	-0.274574	0.887320	-0.722808
H95	H	-0.281816	0.893511	-0.769968
H96	H	-0.221462	0.897223	-0.711246
H97	H	-0.286167	0.841842	-0.711203
C98	C	-0.274498	0.887377	-0.930129
H99	H	-0.244385	0.861608	-0.961304
H100	H	-0.240069	0.913272	-0.902559
H101	H	-0.304747	0.857868	-0.902549
C102	C	-0.669945	0.887150	-0.416945
H103	H	-0.706356	0.861364	-0.442702
H104	H	-0.637702	0.913011	-0.446454
H105	H	-0.637785	0.857659	-0.391020
H106	H	-0.805528	1.100054	-0.204415
H107	H	-0.289265	0.364760	-0.404805
C108	C	-0.486883	0.226322	-0.235082
H109	H	-0.516940	0.257478	-0.209247
H110	H	-0.521368	0.198750	-0.260923
H111	H	-0.456595	0.198742	-0.205640
H112	H	-0.805560	0.856253	-0.447844
C113	C	-0.486869	0.374759	-0.235069
H114	H	-0.516943	0.343568	-0.209254
H115	H	-0.456585	0.402327	-0.205619
H116	H	-0.521350	0.402337	-0.260909
C117	C	-0.486889	1.069060	-0.722791
H118	H	-0.479630	1.062878	-0.769952
H119	H	-0.540000	1.059135	-0.711199
H120	H	-0.475324	1.114541	-0.711209
C121	C	-0.486844	0.582088	-0.235060
H122	H	-0.479627	0.534931	-0.241278
H123	H	-0.475209	0.593657	-0.189598
H124	H	-0.539969	0.593669	-0.244893
C125	C	-0.274590	0.887310	-0.574369
H126	H	-0.244480	0.861541	-0.605547
H127	H	-0.240158	0.913202	-0.546798
H128	H	-0.304841	0.857801	-0.546791
C129	C	-0.486929	1.069031	-0.574346
H130	H	-0.479707	1.062821	-0.527186
H131	H	-0.475369	1.114515	-0.585934
H132	H	-0.540035	1.059100	-0.585923
C133	C	-0.274797	0.730628	-0.417167
H134	H	-0.244730	0.699467	-0.442988
H135	H	-0.305073	0.758209	-0.446612
H136	H	-0.240312	0.758199	-0.391319
