data_functionalizedCrystal
_audit_creation_method	'MofGen! by Chris Wilmer'
_symmetry_space_group_name_H-M	'P1'
_symmetry_Int_Tables_number	1
_symmetry_cell_setting	triclinic
loop_
_symmetry_equiv_pos_as_xyz
  x,y,z
_cell_length_a	16.959455
_cell_length_b	21.295417
_cell_length_c	16.959447
_cell_angle_alpha	89.964807
_cell_angle_beta	89.985678
_cell_angle_gamma	90.027454
loop_
_atom_site_label
_atom_site_type_symbol
_atom_site_fract_x
_atom_site_fract_y
_atom_site_fract_z
Zn1	Zn	1.208326	-0.250648	-0.446882
Zn2	Zn	1.208225	-0.355925	-0.314692
Zn3	Zn	1.076155	-0.250668	-0.314719
Zn4	Zn	1.076096	-0.355878	-0.446831
O5	O	1.142200	-0.303280	-0.380781
O6	O	1.318924	-0.264625	-0.429357
O7	O	1.190688	-0.341990	-0.204085
O8	O	1.093755	-0.162576	-0.332284
O9	O	1.318849	-0.341971	-0.332237
O10	O	1.190861	-0.162561	-0.429383
O11	O	1.093657	-0.264658	-0.204105
O12	O	0.965536	-0.264613	-0.332234
O13	O	1.093654	-0.341891	-0.557448
O14	O	0.965493	-0.341910	-0.429296
O15	O	1.190803	-0.264579	-0.557486
O16	O	1.190630	-0.444008	-0.332188
O17	O	1.093555	-0.443973	-0.429269
C18	C	0.936834	-0.303259	-0.380763
C19	C	0.848978	-0.303265	-0.380774
C20	C	0.477500	-0.262998	-0.330347
C21	C	0.477504	-0.343613	-0.431261
C22	C	0.560050	-0.343604	-0.431256
C23	C	0.601325	-0.303292	-0.380795
C24	C	0.560054	-0.262989	-0.330339
C25	C	0.601327	-0.383911	-0.481705
C26	C	0.683877	-0.383904	-0.481702
C27	C	0.725154	-0.343588	-0.431244
C28	C	0.683878	-0.303283	-0.380787
C29	C	0.725153	-0.262971	-0.330326
C30	C	0.683879	-0.222662	-0.279871
C31	C	0.601330	-0.222673	-0.279881
C32	C	0.807702	-0.343577	-0.431235
C33	C	0.807707	-0.262962	-0.330318
C34	C	1.142097	-0.466831	-0.380737
C35	C	1.142125	-0.536799	-0.380745
C36	C	1.192717	-0.569663	-0.330246
C37	C	1.192754	-0.635406	-0.330264
C38	C	1.142185	-0.668282	-0.380772
C39	C	1.091589	-0.635410	-0.431281
C40	C	1.091559	-0.569669	-0.431267
N41	N	1.073038	-0.771544	-0.386792
N42	N	1.073069	-0.833996	-0.386800
C43	C	1.142273	-0.866357	-0.380818
N44	N	1.211448	-0.833907	-0.374811
N45	N	1.211416	-0.771449	-0.374798
C46	C	1.142212	-0.739567	-0.380793
C47	C	1.192910	-0.970506	-0.330335
C48	C	1.192948	-1.036249	-0.330359
C49	C	1.091777	-1.036253	-0.431371
C50	C	1.091745	-0.970510	-0.431352
C51	C	1.142311	-0.937641	-0.380830
C52	C	1.348369	-0.303301	-0.380800
C53	C	1.436225	-0.303310	-0.380808
C54	C	1.142233	-0.303228	-0.586949
C55	C	1.142247	-0.303205	-0.674806
C56	C	1.142326	-0.139089	-0.380842
C57	C	1.142379	-0.069121	-0.380868
C58	C	1.091760	-0.343392	-1.046265
C59	C	1.192923	-0.262886	-1.046299
C60	C	1.192902	-0.262900	-0.963753
C61	C	1.142310	-0.303160	-0.922459
C62	C	1.091740	-0.343407	-0.963711
C63	C	1.243478	-0.222658	-0.922495
C64	C	1.243459	-0.222670	-0.839944
C65	C	1.192863	-0.262928	-0.798648
C66	C	1.142289	-0.303176	-0.839906
C67	C	1.091698	-0.343437	-0.798612
C68	C	1.041120	-0.383682	-0.839867
C69	C	1.041143	-0.383665	-0.922416
C70	C	1.192839	-0.262945	-0.716100
C71	C	1.091677	-0.343453	-0.716058
C72	C	1.142213	-0.303286	-0.175415
C73	C	1.142352	-0.303131	-0.087559
H74	H	0.841304	-0.376398	-0.472312
O75	O	1.241917	-0.537832	-0.281154
C76	C	1.342235	-0.544770	-0.180937
C77	C	1.286567	-0.580898	-0.236503
H78	H	1.378338	-0.579573	-0.144810
H79	H	1.383582	-0.513962	-0.217222
H80	H	1.305950	-0.514021	-0.139600
H81	H	1.322789	-0.611681	-0.277850
H82	H	1.245218	-0.611667	-0.200168
O83	O	1.241965	-0.667373	-0.281308
C84	C	1.348654	-0.741591	-0.270739
C85	C	1.292997	-0.705414	-0.326278
H86	H	1.389917	-0.772365	-0.307075
H87	H	1.384848	-0.706842	-0.234631
H88	H	1.312357	-0.772382	-0.229384
H89	H	1.329234	-0.674621	-0.367681
H90	H	1.256801	-0.740197	-0.362331
H91	H	1.050361	-0.542911	-0.472390
O92	O	0.724099	-0.183525	-0.230928
C93	C	0.851279	-0.147825	-0.186161
C94	C	0.805824	-0.192166	-0.241640
H95	H	0.917361	-0.154805	-0.194791
H96	H	0.835143	-0.097066	-0.200163
H97	H	0.834973	-0.158809	-0.122409
H98	H	0.822105	-0.181240	-0.305411
H99	H	0.821963	-0.242912	-0.227571
H100	H	0.567714	-0.416735	-0.522782
H101	H	1.050545	-0.943751	-0.472469
O102	O	1.042682	-1.068278	-0.480364
C103	C	0.997933	-1.169558	-0.525196
C104	C	1.053557	-1.133364	-0.469653
H105	H	1.006718	-1.222186	-0.516568
H106	H	0.934181	-1.156733	-0.511258
H107	H	1.011761	-1.156542	-0.588932
H108	H	1.039800	-1.146360	-0.405899
H109	H	1.117292	-1.146192	-0.483660
O110	O	0.847921	-0.223822	-0.281372
C111	C	0.975091	-0.188110	-0.236594
C112	C	0.929648	-0.232456	-0.292077
H113	H	1.041175	-0.195084	-0.245219
H114	H	0.958949	-0.137352	-0.250598
H115	H	0.958782	-0.199095	-0.172844
H116	H	0.945933	-0.221528	-0.355847
H117	H	0.945793	-0.283200	-0.278006
H118	H	1.234086	-0.943742	-0.289200
H119	H	0.443893	-0.376437	-0.472339
H120	H	1.284642	-0.189899	-0.806360
H121	H	1.050417	-0.662182	-0.472406
H122	H	0.717476	-0.416725	-0.522785
H123	H	1.234151	-1.063006	-0.289238
H124	H	1.234021	-0.230179	-0.682513
H125	H	0.999931	-0.416465	-0.806235
H126	H	1.050471	-0.376232	-0.682442
H127	H	0.999968	-0.416433	-0.956013
H128	H	1.050579	-0.376157	-1.079859
O129	O	1.241954	-0.223715	-1.086446
C130	C	1.252681	-0.138743	-1.179733
C131	C	1.197061	-0.183056	-1.134298
H132	H	1.216408	-0.105868	-1.218445
H133	H	1.288808	-0.109933	-1.136106
H134	H	1.294014	-0.167658	-1.218328
H135	H	1.155680	-0.154190	-1.095702
H136	H	1.160989	-0.211869	-1.177968
O137	O	0.561115	-0.183576	-0.230904
C138	C	0.433940	-0.147828	-0.186243
C139	C	0.479389	-0.192149	-0.241732
H140	H	0.367857	-0.154734	-0.194990
H141	H	0.450079	-0.158810	-0.122459
H142	H	0.450246	-0.097090	-0.200241
H143	H	0.463107	-0.242902	-0.227805
H144	H	0.463246	-0.181113	-0.305500
O145	O	1.292510	-0.183490	-0.962645
C146	C	1.303239	-0.098519	-1.055934
C147	C	1.247618	-0.142827	-1.010493
H148	H	1.266967	-0.065641	-1.094643
H149	H	1.339376	-0.069712	-1.012311
H150	H	1.344564	-0.127438	-1.094534
H151	H	1.206245	-0.113956	-0.971892
H152	H	1.211536	-0.171635	-1.054159
H153	H	0.443891	-0.230178	-0.289270
