data_functionalizedCrystal
_audit_creation_method	'MofGen! by Chris Wilmer'
_symmetry_space_group_name_H-M	'P1'
_symmetry_Int_Tables_number	1
_symmetry_cell_setting	triclinic
loop_
_symmetry_equiv_pos_as_xyz
  x,y,z
_cell_length_a	17.077404
_cell_length_b	13.032721
_cell_length_c	17.077396
_cell_angle_alpha	82.846305
_cell_angle_beta	90.019501
_cell_angle_gamma	97.204757
loop_
_atom_site_label
_atom_site_type_symbol
_atom_site_fract_x
_atom_site_fract_y
_atom_site_fract_z
Zn1	Zn	1.160375	-0.416035	0.483523
Zn2	Zn	1.660375	0.083965	0.983523
Zn3	Zn	1.143613	-0.590801	0.368926
Zn4	Zn	1.643613	-0.090801	0.868926
Zn5	Zn	1.029103	-0.416072	0.352275
Zn6	Zn	1.529103	0.083928	0.852275
Zn7	Zn	1.012412	-0.590739	0.500144
Zn8	Zn	1.512412	-0.090739	1.000144
O9	O	1.086376	-0.503412	0.426217
O10	O	1.586376	-0.003412	0.926217
O11	O	1.267997	-0.439229	0.468335
O12	O	1.767997	0.060771	0.968335
O13	O	1.128394	-0.567664	0.256874
O14	O	1.628394	-0.067664	0.756874
O15	O	1.060517	-0.269828	0.355761
O16	O	1.560517	0.230172	0.855761
O17	O	1.255683	-0.567629	0.384141
O18	O	1.755683	-0.067629	0.884141
O19	O	1.156961	-0.269801	0.452188
O20	O	1.656961	0.230199	0.952188
O21	O	1.044264	-0.439292	0.244641
O22	O	1.544264	0.060708	0.744641
O23	O	0.917043	-0.439231	0.371877
O24	O	1.417043	0.060769	0.871877
O25	O	1.032069	-0.567523	0.607782
O26	O	1.532069	-0.067523	1.107782
O27	O	0.904780	-0.567559	0.480516
O28	O	1.404780	-0.067559	0.980516
O29	O	1.140777	-0.439169	0.595571
O30	O	1.640777	0.060831	1.095571
O31	O	1.112209	-0.737032	0.400257
O32	O	1.612209	-0.237032	0.900257
O33	O	1.015816	-0.736987	0.496662
O34	O	1.515816	-0.236987	0.996662
C35	C	0.882430	-0.503393	0.426193
C36	C	1.382430	-0.003393	0.926193
C37	C	0.795178	-0.503410	0.426204
C38	C	1.295178	-0.003410	0.926204
C39	C	1.060404	-0.774928	0.452087
C40	C	1.560404	-0.274928	0.952087
C41	C	1.049365	-0.891083	0.463180
C42	C	1.549365	-0.391083	0.963180
C43	C	0.747814	-0.570331	0.482702
C44	C	1.247814	-0.070331	0.982702
C45	C	0.665833	-0.570333	0.482715
C46	C	1.165833	-0.070333	0.982715
C47	C	0.631218	-0.503419	0.426226
C48	C	1.131218	-0.003419	0.926226
C49	C	0.678589	-0.436491	0.369726
C50	C	1.178589	0.063509	0.869726
C51	C	0.760569	-0.436484	0.369717
C52	C	1.260569	0.063516	0.869717
C53	C	0.507717	-0.436512	0.369747
C54	C	1.007717	0.063488	0.869747
C55	C	0.425732	-0.436519	0.369754
C56	C	0.925732	0.063481	0.869754
C57	C	0.412982	-0.570361	0.482744
C58	C	0.912982	-0.070361	0.982744
C59	C	0.494961	-0.570354	0.482735
C60	C	0.994961	-0.070354	0.982735
C61	C	0.542326	-0.503427	0.426234
C62	C	1.042326	-0.003427	0.926234
C63	C	1.092179	-0.942857	0.420462
C64	C	1.592179	-0.442857	0.920462
C65	C	1.080770	-1.062910	0.431927
C66	C	1.580770	-0.562910	0.931927
C67	C	1.291118	-0.503432	0.426241
C68	C	1.791118	-0.003432	0.926241
C69	C	1.378367	-0.503440	0.426251
C70	C	1.878367	-0.003440	0.926251
C71	C	1.086431	-0.503335	0.630954
C72	C	1.586431	-0.003335	1.130954
C73	C	1.086454	-0.503302	0.718201
C74	C	1.586454	-0.003302	1.218201
C75	C	1.112470	-0.230836	0.400263
C76	C	1.612470	0.269164	0.900263
C77	C	1.123590	-0.114681	0.389203
C78	C	1.623590	0.385319	0.889203
C79	C	1.086374	-0.503413	0.222269
C80	C	1.586374	-0.003413	0.722269
C81	C	1.086530	-0.503152	0.134995
C82	C	1.586530	-0.003152	0.634995
C83	C	1.143060	-0.436463	0.752833
C84	C	1.643060	0.063537	1.252833
C85	C	1.143073	-0.436428	0.834811
C86	C	1.643073	0.063572	1.334811
C87	C	1.086482	-0.503239	0.882154
C88	C	1.586482	-0.003239	1.382154
C89	C	1.029870	-0.570081	0.847516
C90	C	1.529870	-0.070081	1.347516
C91	C	1.029855	-0.570110	0.765540
C92	C	1.529855	-0.070110	1.265540
C93	C	1.029908	-0.570018	1.018380
C94	C	1.529908	-0.070018	1.518380
C95	C	1.029924	-0.569991	1.100362
C96	C	1.529924	-0.069991	1.600362
C97	C	1.143126	-0.436336	1.087651
C98	C	1.643126	0.063664	1.587651
C99	C	1.143111	-0.436365	1.005675
C100	C	1.643111	0.063635	1.505675
C101	C	1.086499	-0.503209	0.971042
C102	C	1.586499	-0.003209	1.471042
H103	H	0.627272	-0.624828	0.528720
H104	H	1.127272	-0.124828	1.028720
O105	O	0.968842	-0.642110	0.981028
O106	O	1.468842	-0.142110	1.481028
H107	H	0.998875	-0.695291	0.948742
H108	H	1.498875	-0.195291	1.448742
O109	O	0.989620	-0.950095	0.522865
O110	O	1.489620	-0.450095	1.022865
H111	H	1.005025	-0.929147	0.582501
H112	H	1.505025	-0.429147	1.082501
H113	H	1.035670	-1.107459	0.476993
H114	H	1.535670	-0.607459	0.976993
H115	H	1.189145	-0.382061	0.714292
H116	H	1.689145	0.117939	1.214292
H117	H	1.189196	-0.381968	0.967130
H118	H	1.689196	0.118032	1.467130
H119	H	0.397552	-0.382020	0.323764
H120	H	0.897552	0.117980	0.823764
O121	O	1.204180	-0.364228	1.125000
O122	O	1.704180	0.135772	1.625000
H123	H	1.239639	-0.410990	1.166818
H124	H	1.739639	0.089010	1.666818
O125	O	0.558808	-0.364338	0.308801
O126	O	1.058808	0.135662	0.808801
H127	H	0.520965	-0.317820	0.269514
H128	H	1.020965	0.182180	0.769514
O129	O	0.641244	-0.364345	0.308787
O130	O	1.141244	0.135655	0.808787
H131	H	0.608972	-0.311246	0.338919
H132	H	1.108972	0.188754	0.838919
O133	O	1.151928	-0.883860	0.360775
O134	O	1.651928	-0.383860	0.860775
H135	H	1.211561	-0.904672	0.376280
H136	H	1.711561	-0.404672	0.876280
O137	O	1.204131	-0.364343	0.872168
O138	O	1.704131	0.135657	1.372168
H139	H	1.243486	-0.317902	0.825476
H140	H	1.743486	0.182098	1.325476
O141	O	0.361903	-0.642542	0.543693
O142	O	0.861903	-0.142542	1.043693
H143	H	0.299083	-0.631297	0.534218
H144	H	0.799083	-0.131297	1.034218
O145	O	1.183341	-1.055687	0.329512
O146	O	1.683341	-0.555687	0.829512
H147	H	1.182925	-0.970651	0.329870
H148	H	1.682925	-0.470651	0.829870
O149	O	0.811660	-0.364318	0.308773
O150	O	1.311660	0.135682	0.808773
H151	H	0.773818	-0.317799	0.269487
H152	H	1.273818	0.182201	0.769487
H153	H	0.983841	-0.624392	1.138908
H154	H	1.483841	-0.124392	1.638908
H155	H	0.983790	-0.624476	0.886069
H156	H	1.483790	-0.124476	1.386069
H157	H	0.983753	-0.624527	0.737343
H158	H	1.483753	-0.124527	1.237343
O159	O	0.532302	-0.642519	0.543662
O160	O	1.032302	-0.142519	1.043662
H161	H	0.485596	-0.689051	0.582959
H162	H	0.985596	-0.189051	1.082959
H163	H	0.775990	-0.624824	0.528699
H164	H	1.275990	-0.124824	1.028699
