data_functionalizedCrystal
_audit_creation_method	'MofGen! by Chris Wilmer'
_symmetry_space_group_name_H-M	'P1'
_symmetry_Int_Tables_number	1
_symmetry_cell_setting	triclinic
loop_
_symmetry_equiv_pos_as_xyz
  x,y,z
_cell_length_a	16.625548
_cell_length_b	13.032721
_cell_length_c	13.032268
_cell_angle_alpha	103.289627
_cell_angle_beta	82.837807
_cell_angle_gamma	82.794397
loop_
_atom_site_label
_atom_site_type_symbol
_atom_site_fract_x
_atom_site_fract_y
_atom_site_fract_z
Zn1	Zn	1.119641	0.499057	0.654215
Zn2	Zn	1.619641	0.999057	1.154215
Zn3	Zn	1.119553	0.654142	0.499163
Zn4	Zn	1.619553	1.154142	0.999163
Zn5	Zn	1.004420	0.476555	0.476634
Zn6	Zn	1.504420	0.976555	0.976634
Zn7	Zn	0.965173	0.676619	0.676703
Zn8	Zn	1.465173	1.176619	1.176703
O9	O	1.052197	0.576593	0.576679
O10	O	1.552197	1.076593	1.076679
O11	O	1.232459	0.519640	0.633665
O12	O	1.732459	1.019640	1.133665
O13	O	1.120669	0.611760	0.347555
O14	O	1.620669	1.111760	0.847555
O15	O	1.036166	0.330909	0.481350
O16	O	1.536166	0.830909	0.981350
O17	O	1.232395	0.633580	0.519749
O18	O	1.732395	1.133580	1.019749
O19	O	1.120819	0.347442	0.611819
O20	O	1.620819	0.847442	1.111819
O21	O	1.036081	0.481288	0.331002
O22	O	1.536081	0.981288	0.831002
O23	O	0.886384	0.503083	0.503156
O24	O	1.386384	1.003083	1.003156
O25	O	0.969275	0.671889	0.822340
O26	O	1.469275	1.171889	1.322340
O27	O	0.857549	0.650069	0.650146
O28	O	1.357549	1.150069	1.150146
O29	O	1.082763	0.541436	0.805818
O30	O	1.582763	1.041436	1.305818
O31	O	1.082613	0.805754	0.541554
O32	O	1.582613	1.305754	1.041554
O33	O	0.969190	0.822268	0.671992
O34	O	1.469190	1.322268	1.171992
C35	C	1.021652	0.852553	0.611681
C36	C	1.521652	1.352553	1.111681
C37	C	1.008655	0.970614	0.626691
C38	C	1.508655	1.470614	1.126691
C39	C	0.842711	0.576574	0.576647
C40	C	1.342711	1.076574	1.076647
C41	C	0.753086	0.576595	0.576662
C42	C	1.253086	1.076595	1.076662
C43	C	1.021651	0.611680	0.853692
C44	C	1.521651	1.111680	1.353692
C45	C	1.008634	0.626632	0.971738
C46	C	1.508634	1.126632	1.471738
C47	C	0.424905	0.576608	0.576708
C48	C	0.924905	1.076608	1.076708
C49	C	0.516216	0.576601	0.576692
C50	C	1.016216	1.076601	1.076692
C51	C	0.588993	0.576602	0.576684
C52	C	1.088993	1.076602	1.076684
C53	C	0.680309	0.576594	0.576669
C54	C	1.180309	1.076594	1.076669
C55	C	1.262501	0.576613	0.576711
C56	C	1.762501	1.076613	1.076711
C57	C	1.352119	0.576622	0.576725
C58	C	1.852119	1.076622	1.076725
C59	C	1.082880	0.299559	0.541563
C60	C	1.582880	0.799559	1.041563
C61	C	1.095956	0.181504	0.526599
C62	C	1.595956	0.681504	1.026599
C63	C	1.059018	1.015050	0.568893
C64	C	1.559018	1.515050	1.068893
C65	C	1.045586	1.137072	0.584405
C66	C	1.545586	1.637072	1.084405
C67	C	1.082679	0.541567	0.300734
C68	C	1.582679	1.041567	0.800734
C69	C	1.095885	0.526316	0.182650
C70	C	1.595885	1.026316	0.682650
C71	C	1.058982	0.568752	1.016192
C72	C	1.558982	1.068752	1.516192
C73	C	1.045530	0.584204	1.138199
C74	C	1.545530	1.084204	1.638199
H75	H	1.112083	0.962760	0.507929
H76	H	1.612083	1.462760	1.007929
H77	H	0.992523	1.189362	0.645380
H78	H	1.492523	1.689362	1.145380
C79	C	1.166642	1.111607	0.445312
C80	C	1.666642	1.611607	0.945312
C81	C	1.165897	1.004472	0.446057
C82	C	1.665897	1.504472	0.946057
C83	C	1.230992	0.940052	0.371181
C84	C	1.730992	1.440052	0.871181
H85	H	1.217168	1.131506	0.463114
H86	H	1.717168	1.631506	0.963114
H87	H	1.160768	1.120672	0.376203
H88	H	1.660768	1.620672	0.876203
H89	H	1.171778	0.995413	0.515150
H90	H	1.671778	1.495413	1.015150
H91	H	1.115387	0.984540	0.428243
H92	H	1.615387	1.484540	0.928243
H93	H	1.225118	0.949116	0.302072
H94	H	1.725118	1.449116	0.802072
H95	H	1.281513	0.959960	0.388989
H96	H	1.781513	1.459960	0.888989
H97	H	1.230491	0.867353	0.371669
H98	H	1.730491	1.367353	0.871669
C99	C	0.937924	1.040506	0.707897
C100	C	1.437924	1.540506	1.207897
C101	C	0.938647	1.147636	0.707113
C102	C	1.438647	1.647636	1.207113
C103	C	0.873494	1.212048	0.781898
C104	C	1.373494	1.712048	1.281898
H105	H	0.943725	1.031511	0.777035
H106	H	1.443725	1.531511	1.277035
H107	H	0.887429	1.020533	0.690005
H108	H	1.387429	1.520533	1.190005
H109	H	0.989129	1.167603	0.725011
H110	H	1.489129	1.667603	1.225011
H111	H	0.932835	1.156665	0.637993
H112	H	1.432835	1.656665	1.137993
H113	H	0.823000	1.192074	0.764006
H114	H	1.323000	1.692074	1.264006
H115	H	0.879302	1.203044	0.851030
H116	H	1.379302	1.703044	1.351030
H117	H	0.873972	1.284741	0.781369
H118	H	1.373972	1.784741	1.281369
C119	C	1.129850	0.487500	0.946658
C120	C	1.629850	0.987500	1.446658
C121	C	1.204116	0.514005	0.976523
C122	C	1.704116	1.014005	1.476523
C123	C	1.269419	0.439171	0.912505
C124	C	1.769419	0.939171	1.412505
H125	H	1.129608	0.487851	0.873891
H126	H	1.629608	0.987851	1.373891
H127	H	1.124018	0.418400	0.955757
H128	H	1.624018	0.918400	1.455757
H129	H	1.209947	0.583087	0.967414
H130	H	1.709947	1.083087	1.467414
H131	H	1.204385	0.513646	1.049280
H132	H	1.704385	1.013646	1.549280
H133	H	1.263586	0.370071	0.921605
H134	H	1.763586	0.870071	1.421605
H135	H	1.269168	0.439528	0.839742
H136	H	1.769168	0.939528	1.339742
H137	H	1.319815	0.457139	0.932766
H138	H	1.819815	0.957139	1.432766
C139	C	0.974843	0.665527	1.208063
C140	C	1.474843	1.165527	1.708063
C141	C	0.975571	0.664714	1.315190
C142	C	1.475571	1.164714	1.815190
C143	C	0.910476	0.739624	1.379581
C144	C	1.410476	1.239624	1.879581
H145	H	0.924318	0.647788	1.188100
H146	H	1.424318	1.147788	1.688100
H147	H	0.980727	0.734641	1.199050
H148	H	1.480727	1.234641	1.699050
H149	H	0.969680	0.595615	1.324199
H150	H	1.469680	1.095615	1.824199
H151	H	1.026081	0.682464	1.335186
H152	H	1.526081	1.182464	1.835186
H153	H	0.916360	0.808739	1.370567
H154	H	1.416360	1.308739	1.870567
H155	H	0.859956	0.721879	1.359608
H156	H	1.359956	1.221879	1.859608
H157	H	0.910966	0.739090	1.452274
H158	H	1.410966	1.239090	1.952274
H159	H	1.148949	0.465313	1.130388
H160	H	1.648949	0.965313	1.630388
C161	C	0.937764	0.707824	1.041349
C162	C	1.437764	1.207824	1.541349
C163	C	0.863492	0.681295	1.011524
C164	C	1.363492	1.181295	1.511524
C165	C	0.798188	0.756059	1.075633
C166	C	1.298188	1.256059	1.575633
H167	H	0.943529	0.776954	1.032325
H168	H	1.443529	1.276954	1.532325
H169	H	0.938073	0.707391	1.114098
H170	H	1.438073	1.207391	1.614098
H171	H	0.863183	0.681740	0.938792
H172	H	1.363183	1.181740	1.438792
H173	H	0.857700	0.612178	1.020552
H174	H	1.357700	1.112178	1.520552
H175	H	0.798498	0.755626	1.148382
H176	H	1.298498	1.255626	1.648382
H177	H	0.803962	0.825185	1.066604
H178	H	1.303962	1.325185	1.566604
H179	H	0.747787	0.738065	1.055412
H180	H	1.247787	1.238065	1.555412
