data_functionalizedCrystal
_audit_creation_method	'MofGen! by Chris Wilmer'
_symmetry_space_group_name_H-M	'P1'
_symmetry_Int_Tables_number	1
_symmetry_cell_setting	triclinic
loop_
_symmetry_equiv_pos_as_xyz
  x,y,z
_cell_length_a	19.121102
_cell_length_b	29.839131
_cell_length_c	29.839126
_cell_angle_alpha	89.978002
_cell_angle_beta	87.535664
_cell_angle_gamma	87.595578
loop_
_atom_site_label
_atom_site_type_symbol
_atom_site_fract_x
_atom_site_fract_y
_atom_site_fract_z
Zn1	Zn	1.073683	-0.208247	-0.283269
Zn2	Zn	1.407016	0.125086	0.050065
Zn3	Zn	1.740349	0.458420	0.383398
Zn4	Zn	1.073548	-0.283361	-0.208135
Zn5	Zn	1.406882	0.049972	0.125198
Zn6	Zn	1.740215	0.383306	0.458532
Zn7	Zn	0.956219	-0.205039	-0.204950
Zn8	Zn	1.289553	0.128295	0.128383
Zn9	Zn	1.622886	0.461628	0.461717
Zn10	Zn	0.956166	-0.280138	-0.280037
Zn11	Zn	1.289499	0.053195	0.053296
Zn12	Zn	1.622833	0.386528	0.386629
O13	O	1.014904	-0.244196	-0.244098
O14	O	1.348237	0.089137	0.089236
O15	O	1.681571	0.422470	0.422569
O16	O	1.171948	-0.220902	-0.275987
O17	O	1.505282	0.112431	0.057346
O18	O	1.838615	0.445764	0.390679
O19	O	1.057951	-0.272977	-0.144844
O20	O	1.391284	0.060356	0.188489
O21	O	1.724617	0.393689	0.521822
O22	O	0.971880	-0.142599	-0.215358
O23	O	1.305213	0.190734	0.117975
O24	O	1.638546	0.524068	0.451308
O25	O	1.171850	-0.276088	-0.220787
O26	O	1.505183	0.057245	0.112546
O27	O	1.838517	0.390578	0.445880
O28	O	1.058179	-0.144956	-0.272899
O29	O	1.391513	0.188377	0.060434
O30	O	1.724846	0.521710	0.393768
O31	O	0.971750	-0.215434	-0.142504
O32	O	1.305083	0.117899	0.190829
O33	O	1.638416	0.451233	0.524162
O34	O	0.857929	-0.212309	-0.212225
O35	O	1.191262	0.121024	0.121108
O36	O	1.524595	0.454357	0.454442
O37	O	0.971789	-0.270596	-0.343334
O38	O	1.305122	0.062738	-0.010001
O39	O	1.638455	0.396071	0.323333
O40	O	0.857889	-0.267485	-0.267391
O41	O	1.191223	0.065849	0.065942
O42	O	1.524556	0.399182	0.399275
O43	O	1.058128	-0.217778	-0.345708
O44	O	1.391461	0.115556	-0.012375
O45	O	1.724794	0.448889	0.320959
O46	O	1.057899	-0.345798	-0.217654
O47	O	1.391232	-0.012465	0.115680
O48	O	1.724565	0.320868	0.449013
O49	O	0.971658	-0.343431	-0.270480
O50	O	1.304992	-0.010097	0.062854
O51	O	1.638325	0.323236	0.396187
C52	C	0.832425	-0.239199	-0.239112
C53	C	1.165759	0.094134	0.094221
C54	C	1.499092	0.427467	0.427555
C55	C	0.754360	-0.237073	-0.236990
C56	C	1.087693	0.096261	0.096343
C57	C	1.421027	0.429594	0.429677
C58	C	0.717683	-0.264844	-0.264670
C59	C	1.051016	0.068490	0.068663
C60	C	1.384349	0.401823	0.401997
C61	C	0.644332	-0.262839	-0.262678
C62	C	0.977665	0.070494	0.070655
C63	C	1.310999	0.403827	0.403989
C64	C	0.607660	-0.233066	-0.233004
C65	C	0.940993	0.100267	0.100330
C66	C	1.274327	0.433601	0.433663
C67	C	0.644343	-0.205292	-0.205323
C68	C	0.977676	0.128041	0.128011
C69	C	1.311009	0.461375	0.461344
C70	C	0.717692	-0.207294	-0.207317
C71	C	1.051025	0.126039	0.126016
C72	C	1.384358	0.459372	0.459350
C73	C	0.386193	-0.225579	-0.225549
C74	C	0.719526	0.107755	0.107784
C75	C	1.052859	0.441088	0.441117
C76	C	0.312838	-0.223579	-0.223556
C77	C	0.646172	0.109754	0.109777
C78	C	0.979505	0.443087	0.443111
C79	C	0.312833	-0.281127	-0.280912
C80	C	0.646166	0.052207	0.052421
C81	C	0.979499	0.385540	0.385754
C82	C	0.386183	-0.283128	-0.282902
C83	C	0.719517	0.050205	0.050431
C84	C	1.052850	0.383538	0.383764
C85	C	0.422860	-0.255353	-0.255223
C86	C	0.756193	0.077981	0.078111
C87	C	1.089526	0.411314	0.411444
C88	C	0.532684	-0.231018	-0.230966
C89	C	0.866017	0.102316	0.102367
C90	C	1.199351	0.435649	0.435701
C91	C	0.497834	-0.257399	-0.257263
C92	C	0.831168	0.075934	0.076070
C93	C	1.164501	0.409268	0.409404
C94	C	1.014777	-0.360915	-0.244072
C95	C	1.348111	-0.027582	0.089261
C96	C	1.681444	0.305751	0.422595
C97	C	1.014787	-0.410850	-0.244078
C98	C	1.348121	-0.077517	0.089256
C99	C	1.681454	0.255817	0.422589
C100	C	1.059891	-0.721719	-0.216635
C101	C	1.393224	-0.388386	0.116698
C102	C	1.726558	-0.055052	0.450031
C103	C	1.059978	-0.909394	-0.216655
C104	C	1.393311	-0.576061	0.116678
C105	C	1.726644	-0.242728	0.450012
O106	O	1.098226	-0.934699	-0.193303
O107	O	1.431559	-0.601365	0.140031
O108	O	1.764893	-0.268032	0.473364
N109	N	1.015050	-0.931642	-0.244136
N110	N	1.348383	-0.598309	0.089198
N111	N	1.681716	-0.264976	0.422531
C112	C	0.970100	-0.906968	-0.271615
C113	C	1.303433	-0.573635	0.061718
C114	C	1.636767	-0.240302	0.395051
O115	O	0.931893	-0.930198	-0.294993
O116	O	1.265226	-0.596864	0.038340
O117	O	1.598560	-0.263531	0.371674
C118	C	0.970017	-0.719294	-0.271597
C119	C	1.303351	-0.385960	0.061736
C120	C	1.636684	-0.052627	0.395069
C121	C	1.014943	-0.697048	-0.244112
C122	C	1.348277	-0.363715	0.089222
C123	C	1.681610	-0.030382	0.422555
C124	C	1.104814	-0.699473	-0.189152
C125	C	1.438147	-0.366140	0.144181
C126	C	1.771481	-0.032807	0.477514
C127	C	1.104789	-0.652557	-0.189146
C128	C	1.438123	-0.319224	0.144188
C129	C	1.771456	0.014109	0.477521
C130	C	1.059841	-0.627887	-0.216622
C131	C	1.393175	-0.294553	0.116711
C132	C	1.726508	0.038780	0.450044
C133	C	1.014919	-0.650132	-0.244105
C134	C	1.348252	-0.316799	0.089228
C135	C	1.681585	0.016534	0.422561
C136	C	0.925072	-0.694621	-0.299079
C137	C	1.258405	-0.361288	0.034254
C138	C	1.591738	-0.027954	0.367588
C139	C	0.925056	-0.647699	-0.299073
C140	C	1.258390	-0.314366	0.034260
C141	C	1.591723	0.018967	0.367594
C142	C	0.969982	-0.625454	-0.271587
C143	C	1.303316	-0.292121	0.061746
C144	C	1.636649	0.041213	0.395079
C145	C	0.969946	-0.578546	-0.271575
C146	C	1.303279	-0.245212	0.061758
C147	C	1.636613	0.088121	0.395091
N148	N	1.014874	-0.556298	-0.244095
N149	N	1.348207	-0.222964	0.089238
N150	N	1.681541	0.110369	0.422572
C151	C	1.059822	-0.580968	-0.216618
C152	C	1.393155	-0.247635	0.116715
C153	C	1.726489	0.085698	0.450048
C154	C	0.970146	-1.005500	-0.271622
C155	C	1.303479	-0.672167	0.061711
C156	C	1.636812	-0.338833	0.395045
C157	C	0.970165	-1.052418	-0.271626
C158	C	1.303499	-0.719085	0.061708
C159	C	1.636832	-0.385752	0.395041
C160	C	1.060044	-1.054841	-0.216666
C161	C	1.393378	-0.721508	0.116667
C162	C	1.726711	-0.388175	0.450000
C163	C	1.060020	-1.007922	-0.216660
C164	C	1.393354	-0.674589	0.116673
C165	C	1.726687	-0.341255	0.450006
C166	C	1.015074	-0.983252	-0.244141
C167	C	1.348407	-0.649919	0.089192
C168	C	1.681740	-0.316586	0.422525
C169	C	1.059766	-0.482441	-0.216607
C170	C	1.393099	-0.149108	0.116727
C171	C	1.726433	0.184226	0.450060
C172	C	1.059735	-0.435521	-0.216601
C173	C	1.393068	-0.102187	0.116732
C174	C	1.726402	0.231146	0.450066
C175	C	0.969859	-0.433102	-0.271562
C176	C	1.303192	-0.099769	0.061771
C177	C	1.636526	0.233565	0.395104
C178	C	0.969887	-0.480018	-0.271566
C179	C	1.303220	-0.146685	0.061767
C180	C	1.636554	0.186649	0.395100
C181	C	1.014846	-0.504687	-0.244087
C182	C	1.348179	-0.171353	0.089246
C183	C	1.681513	0.161980	0.422580
O184	O	0.931723	-0.553213	-0.294919
O185	O	1.265057	-0.219880	0.038414
O186	O	1.598390	0.113453	0.371747
O187	O	1.098034	-0.557731	-0.193251
O188	O	1.431367	-0.224398	0.140082
O189	O	1.764701	0.108936	0.473415
C190	C	1.059916	-0.768635	-0.216642
C191	C	1.393249	-0.435302	0.116692
C192	C	1.726583	-0.101968	0.450025
C193	C	1.014993	-0.790881	-0.244125
C194	C	1.348326	-0.457547	0.089209
C195	C	1.681660	-0.124214	0.422542
C196	C	0.970045	-0.766210	-0.271601
C197	C	1.303379	-0.432877	0.061732
C198	C	1.636712	-0.099543	0.395065
C199	C	1.015013	-0.837799	-0.244129
C200	C	1.348346	-0.504466	0.089205
C201	C	1.681679	-0.171132	0.422538
C202	C	1.059960	-0.862470	-0.216652
C203	C	1.393294	-0.529136	0.116681
C204	C	1.726627	-0.195803	0.450015
C205	C	1.104888	-0.840222	-0.189172
C206	C	1.438222	-0.506889	0.144162
C207	C	1.771555	-0.173555	0.477495
C208	C	1.104864	-0.793306	-0.189165
C209	C	1.438197	-0.459972	0.144168
C210	C	1.771530	-0.126639	0.477501
C211	C	0.925117	-0.788458	-0.299082
C212	C	1.258451	-0.455125	0.034252
C213	C	1.591784	-0.121791	0.367585
C214	C	0.925145	-0.835374	-0.299086
C215	C	1.258479	-0.502041	0.034248
C216	C	1.591812	-0.168707	0.367581
C217	C	0.970093	-0.860045	-0.271609
C218	C	1.303426	-0.526711	0.061724
C219	C	1.636760	-0.193378	0.395058
C220	C	1.198096	-0.249213	-0.249103
C221	C	1.531429	0.084121	0.084230
C222	C	1.864762	0.417454	0.417564
C223	C	1.276161	-0.251351	-0.251236
C224	C	1.609494	0.081983	0.082097
C225	C	1.942828	0.415316	0.415431
C226	C	1.014967	-0.244185	-0.361278
C227	C	1.348300	0.089148	-0.027944
C228	C	1.681634	0.422482	0.305389
C229	C	1.014994	-0.244180	-0.411213
C230	C	1.348327	0.089153	-0.077880
C231	C	1.681661	0.422486	0.255454
C232	C	1.015051	-0.127022	-0.244134
C233	C	1.348384	0.206312	0.089199
C234	C	1.681717	0.539645	0.422533
C235	C	1.015113	-0.077089	-0.244149
C236	C	1.348446	0.256244	0.089184
C237	C	1.681780	0.589578	0.422517
C238	C	1.059869	-0.274083	-0.769021
C239	C	1.393203	0.059250	-0.435688
C240	C	1.726536	0.392584	-0.102355
C241	C	1.059871	-0.274114	-0.581348
C242	C	1.393204	0.059219	-0.248015
C243	C	1.726537	0.392552	0.085318
O244	O	1.098018	-0.299609	-0.558122
O245	O	1.431352	0.033725	-0.224789
O246	O	1.764685	0.367058	0.108545
N247	N	1.014991	-0.244159	-0.556658
N248	N	1.348324	0.089175	-0.223325
N249	N	1.681657	0.422508	0.110009
C250	C	0.970104	-0.214195	-0.578889
C251	C	1.303438	0.119138	-0.245555
C252	C	1.636771	0.452472	0.087778
O253	O	0.931926	-0.188720	-0.553582
O254	O	1.265260	0.144614	-0.220248
O255	O	1.598593	0.477947	0.113085
C256	C	0.970100	-0.214166	-0.766561
C257	C	1.303433	0.119167	-0.433228
C258	C	1.636767	0.452500	-0.099894
C259	C	1.014988	-0.244121	-0.791249
C260	C	1.348321	0.089213	-0.457916
C261	C	1.681654	0.422546	-0.124582
C262	C	1.104753	-0.304035	-0.793710
C263	C	1.438086	0.029298	-0.460376
C264	C	1.771419	0.362631	-0.127043
C265	C	1.104755	-0.304026	-0.840625
C266	C	1.438088	0.029308	-0.507292
C267	C	1.771421	0.362641	-0.173958
C268	C	1.059873	-0.274063	-0.862853
C269	C	1.393207	0.059270	-0.529519
C270	C	1.726540	0.392603	-0.196186
C271	C	1.014990	-0.244111	-0.838165
C272	C	1.348323	0.089222	-0.504831
C273	C	1.681656	0.422556	-0.171498
C274	C	0.925211	-0.184205	-0.788791
C275	C	1.258544	0.149128	-0.455457
C276	C	1.591877	0.482462	-0.122124
C277	C	0.925212	-0.184201	-0.835712
C278	C	1.258546	0.149132	-0.502378
C279	C	1.591879	0.482465	-0.169045
C280	C	0.970100	-0.214156	-0.860400
C281	C	1.303433	0.119177	-0.527066
C282	C	1.636767	0.452511	-0.193733
C283	C	0.970110	-0.214139	-0.907308
C284	C	1.303444	0.119194	-0.573974
C285	C	1.636777	0.452528	-0.240641
N286	N	1.014990	-0.244095	-0.931998
N287	N	1.348323	0.089239	-0.598665
N288	N	1.681657	0.422572	-0.265331
C289	C	1.059871	-0.274057	-0.909770
C290	C	1.393205	0.059277	-0.576437
C291	C	1.726538	0.392610	-0.243104
C292	C	0.970111	-0.214212	-0.480358
C293	C	1.303444	0.119122	-0.147025
C294	C	1.636777	0.452455	0.186308
C295	C	0.970112	-0.214218	-0.433440
C296	C	1.303446	0.119115	-0.100107
C297	C	1.636779	0.452449	0.233226
C298	C	1.059878	-0.274138	-0.435903
C299	C	1.393211	0.059195	-0.102570
C300	C	1.726545	0.392529	0.230763
C301	C	1.059879	-0.274129	-0.482822
C302	C	1.393212	0.059204	-0.149489
C303	C	1.726546	0.392538	0.183845
C304	C	1.014990	-0.244167	-0.505049
C305	C	1.348324	0.089166	-0.171715
C306	C	1.681657	0.422499	0.161618
C307	C	1.059873	-0.274034	-1.008296
C308	C	1.393206	0.059300	-0.674963
C309	C	1.726539	0.392633	-0.341630
C310	C	1.059873	-0.274020	-1.055216
C311	C	1.393206	0.059313	-0.721883
C312	C	1.726539	0.392647	-0.388549
C313	C	0.970105	-0.214102	-1.052749
C314	C	1.303438	0.119231	-0.719415
C315	C	1.636772	0.452565	-0.386082
C316	C	0.970107	-0.214114	-1.005833
C317	C	1.303440	0.119220	-0.672500
C318	C	1.636774	0.452553	-0.339167
C319	C	1.014993	-0.244083	-0.983608
C320	C	1.348327	0.089250	-0.650275
C321	C	1.681660	0.422583	-0.316942
O322	O	0.931977	-0.188661	-0.930563
O323	O	1.265310	0.144672	-0.597230
O324	O	1.598644	0.478006	-0.263897
O325	O	1.098033	-0.299535	-0.935085
O326	O	1.431366	0.033798	-0.601752
O327	O	1.764699	0.367132	-0.268418
C328	C	1.059867	-0.274093	-0.722106
C329	C	1.393201	0.059241	-0.388773
C330	C	1.726534	0.392574	-0.055439
C331	C	1.014984	-0.244140	-0.697418
C332	C	1.348317	0.089193	-0.364085
C333	C	1.681651	0.422526	-0.030751
C334	C	0.970102	-0.214178	-0.719645
C335	C	1.303436	0.119155	-0.386312
C336	C	1.636769	0.452489	-0.052979
C337	C	1.014986	-0.244147	-0.650500
C338	C	1.348319	0.089186	-0.317167
C339	C	1.681652	0.422520	0.016167
C340	C	1.059867	-0.274109	-0.628273
C341	C	1.393201	0.059224	-0.294939
C342	C	1.726534	0.392558	0.038394
C343	C	1.104747	-0.304065	-0.652963
C344	C	1.438080	0.029269	-0.319630
C345	C	1.771414	0.362602	0.013704
C346	C	1.104749	-0.304055	-0.699878
C347	C	1.438082	0.029278	-0.366545
C348	C	1.771416	0.362612	-0.033212
C349	C	0.925223	-0.184222	-0.694955
C350	C	1.258556	0.149111	-0.361622
C351	C	1.591889	0.482444	-0.028288
C352	C	0.925225	-0.184234	-0.648040
C353	C	1.258558	0.149099	-0.314706
C354	C	1.591892	0.482432	0.018627
C355	C	0.970106	-0.214197	-0.625812
C356	C	1.303440	0.119137	-0.292479
C357	C	1.636773	0.452470	0.040855
C358	C	1.014882	-0.244176	-0.127375
C359	C	1.348215	0.089157	0.205959
C360	C	1.681548	0.422491	0.539292
C361	C	1.014991	-0.244058	-0.077443
C362	C	1.348324	0.089275	0.255890
C363	C	1.681658	0.422609	0.589223
H364	H	1.096377	-0.502521	-0.194231
H365	H	1.429711	-0.169187	0.139102
H366	H	1.763044	0.164146	0.472435
N367	N	1.105914	-0.985208	-0.188581
N368	N	1.439247	-0.651875	0.144753
N369	N	1.772580	-0.318541	0.478086
N370	N	1.146036	-1.007246	-0.164049
N371	N	1.479370	-0.673913	0.169284
N372	N	1.812703	-0.340580	0.502617
H373	H	1.178451	-0.991207	-0.144217
H374	H	1.511785	-0.657874	0.189116
H375	H	1.845118	-0.324541	0.522450
H376	H	0.614472	-0.285454	-0.285218
H377	H	0.947806	0.047879	0.048116
H378	H	1.281139	0.381213	0.381449
H379	H	0.888673	-0.159837	-0.627942
H380	H	1.222007	0.173496	-0.294609
H381	H	1.555340	0.506829	0.038724
N382	N	0.879378	-0.153606	-0.717647
N383	N	1.212711	0.179727	-0.384314
N384	N	1.546044	0.513061	-0.050981
N385	N	0.884093	-0.112283	-0.712535
N386	N	1.217427	0.221050	-0.379202
N387	N	1.550760	0.554383	-0.045869
H388	H	0.851715	-0.090656	-0.728559
H389	H	1.185048	0.242677	-0.395226
H390	H	1.518382	0.576011	-0.061892
H391	H	0.527696	-0.281638	-0.281426
H392	H	0.861029	0.051695	0.051908
H393	H	1.194362	0.385028	0.385241
H394	H	1.096428	-0.298435	-0.990206
H395	H	1.429761	0.034898	-0.656873
H396	H	1.763094	0.368232	-0.323540
H397	H	0.747554	-0.184678	-0.184779
H398	H	1.080887	0.148656	0.148554
H399	H	1.414220	0.481989	0.481887
N400	N	1.150617	-0.334642	-0.771019
N401	N	1.483950	-0.001309	-0.437686
N402	N	1.817283	0.332024	-0.104353
N403	N	1.215425	-0.333428	-0.778058
N404	N	1.548758	-0.000095	-0.444725
N405	N	1.882092	0.333238	-0.111391
H406	H	1.247825	-0.355045	-0.762037
H407	H	1.581158	-0.021711	-0.428704
H408	H	1.914492	0.311622	-0.095371
N409	N	0.423647	-0.197205	-0.197277
N410	N	0.756981	0.136128	0.136056
N411	N	1.090314	0.469461	0.469390
N412	N	0.415496	-0.155533	-0.200109
N413	N	0.748830	0.177800	0.133225
N414	N	1.082163	0.511134	0.466558
H415	H	0.441950	-0.135493	-0.180139
H416	H	0.775284	0.197840	0.153194
H417	H	1.108617	0.531174	0.486528
H418	H	0.502817	-0.206777	-0.206804
H419	H	0.836151	0.126556	0.126529
H420	H	1.169484	0.459890	0.459863
N421	N	0.879131	-0.622501	-0.327138
N422	N	1.212464	-0.289167	0.006196
N423	N	1.545797	0.044166	0.339529
N424	N	0.834369	-0.595137	-0.310084
N425	N	1.167703	-0.261803	0.023250
N426	N	1.501036	0.071530	0.356583
H427	H	0.801932	-0.577341	-0.329903
H428	H	1.135266	-0.244007	0.003430
H429	H	1.468599	0.089326	0.336764
N430	N	0.606875	-0.174878	-0.175016
N431	N	0.940208	0.158455	0.158317
N432	N	1.273541	0.491789	0.491650
N433	N	0.541385	-0.173094	-0.173239
N434	N	0.874718	0.160240	0.160094
N435	N	1.208052	0.493573	0.493428
H436	H	0.514923	-0.151614	-0.151834
H437	H	0.848256	0.181720	0.181499
H438	H	1.181590	0.515053	0.514833
H439	H	1.096319	-0.417410	-0.194217
H440	H	1.429652	-0.084077	0.139116
H441	H	1.762986	0.249257	0.472449
H442	H	1.141374	-0.634448	-0.166766
H443	H	1.474707	-0.301115	0.166567
H444	H	1.808040	0.032219	0.499901
N445	N	1.150739	-0.724662	-0.161083
N446	N	1.484072	-0.391329	0.172251
N447	N	1.817406	-0.057996	0.505584
N448	N	1.190843	-0.704786	-0.136550
N449	N	1.524176	-0.371452	0.196783
N450	N	1.857510	-0.038119	0.530116
H451	H	1.223278	-0.722572	-0.116722
H452	H	1.556612	-0.389239	0.216611
H453	H	1.889945	-0.055905	0.549945
H454	H	0.888658	-0.159802	-0.853806
H455	H	1.221991	0.173531	-0.520473
H456	H	1.555324	0.506864	-0.187139
H457	H	0.416037	-0.307374	-0.307065
H458	H	0.749370	0.025959	0.026268
H459	H	1.082703	0.359293	0.359601
N460	N	1.105951	-1.080053	-0.188600
N461	N	1.439284	-0.746720	0.144733
N462	N	1.772617	-0.413387	0.478067
N463	N	1.105956	-1.121944	-0.188611
N464	N	1.439290	-0.788610	0.144722
N465	N	1.772623	-0.455277	0.478055
H466	H	1.138378	-1.139752	-0.168792
H467	H	1.471711	-0.806419	0.164541
H468	H	1.805045	-0.473086	0.497874
H469	H	0.933261	-0.413008	-0.293932
H470	H	1.266594	-0.079674	0.039401
H471	H	1.599928	0.253659	0.372735
H472	H	0.933575	-1.070526	-0.294003
H473	H	1.266909	-0.737193	0.039330
H474	H	1.600242	-0.403860	0.372664
H475	H	0.747536	-0.289090	-0.288833
H476	H	1.080869	0.044243	0.044501
H477	H	1.414202	0.377577	0.377834
N478	N	0.924227	-0.980311	-0.299699
N479	N	1.257560	-0.646978	0.033635
N480	N	1.590893	-0.313644	0.366968
N481	N	0.884119	-1.000186	-0.324230
N482	N	1.217453	-0.666853	0.009103
N483	N	1.550786	-0.333519	0.342437
H484	H	0.851687	-0.982398	-0.344059
H485	H	1.185020	-0.649065	-0.010726
H486	H	1.518353	-0.315732	0.322608
H487	H	0.282963	-0.303739	-0.303448
H488	H	0.616296	0.029594	0.029885
H489	H	0.949630	0.362927	0.363219
H490	H	0.888485	-0.712725	-0.321459
H491	H	1.221818	-0.379392	0.011875
H492	H	1.555152	-0.046058	0.345208
H493	H	0.282982	-0.199329	-0.199394
H494	H	0.616315	0.134004	0.133939
H495	H	0.949649	0.467337	0.467273
N496	N	0.924276	-0.183617	-0.408218
N497	N	1.257609	0.149716	-0.074885
N498	N	1.590943	0.483050	0.258448
N499	N	0.949019	-0.155669	-0.382726
N500	N	1.282353	0.177664	-0.049393
N501	N	1.615686	0.510998	0.283940
H502	H	0.916644	-0.134057	-0.364913
H503	H	1.249978	0.199276	-0.031580
H504	H	1.583311	0.532610	0.301753
N505	N	0.879194	-0.763260	-0.327143
N506	N	1.212527	-0.429926	0.006190
N507	N	1.545860	-0.096593	0.339523
N508	N	0.834433	-0.735895	-0.310089
N509	N	1.167766	-0.402562	0.023245
N510	N	1.501100	-0.069229	0.356578
H511	H	0.801995	-0.718099	-0.329907
H512	H	1.135328	-0.384766	0.003426
H513	H	1.468662	-0.051433	0.336759
H514	H	0.933307	-0.498131	-0.293949
H515	H	1.266640	-0.164798	0.039385
H516	H	1.599973	0.168535	0.372718
H517	H	0.933555	-0.189812	-0.498451
H518	H	1.266888	0.143521	-0.165117
H519	H	1.600221	0.476855	0.168216
H520	H	1.141447	-0.775197	-0.166784
H521	H	1.474780	-0.441864	0.166549
H522	H	1.808113	-0.108530	0.499883
H523	H	1.141485	-0.860317	-0.166798
H524	H	1.474818	-0.526983	0.166535
H525	H	1.808151	-0.193650	0.499869
N526	N	0.879240	-0.858087	-0.327163
N527	N	1.212574	-0.524754	0.006171
N528	N	1.545907	-0.191420	0.339504
N529	N	0.839115	-0.836048	-0.351692
N530	N	1.172448	-0.502715	-0.018359
N531	N	1.505781	-0.169382	0.314975
H532	H	0.806698	-0.852088	-0.371523
H533	H	1.140031	-0.518754	-0.038190
H534	H	1.473365	-0.185421	0.295143
H535	H	1.096429	-0.298413	-1.075315
H536	H	1.429762	0.034921	-0.741982
H537	H	1.763095	0.368254	-0.408648
N538	N	1.105727	-0.304722	-0.508047
N539	N	1.439060	0.028612	-0.174713
N540	N	1.772393	0.361945	0.158620
N541	N	1.150498	-0.290137	-0.535466
N542	N	1.483832	0.043197	-0.202133
N543	N	1.817165	0.376530	0.131201
H544	H	1.182879	-0.311744	-0.553281
H545	H	1.516213	0.021590	-0.219947
H546	H	1.849546	0.354923	0.113386
N547	N	1.150605	-0.334631	-0.865833
N548	N	1.483938	-0.001297	-0.532499
N549	N	1.817271	0.332036	-0.199166
N550	N	1.190666	-0.361381	-0.845973
N551	N	1.523999	-0.028048	-0.512640
N552	N	1.857332	0.305286	-0.179306
H553	H	1.223047	-0.383000	-0.863773
H554	H	1.556380	-0.049667	-0.530440
H555	H	1.889713	0.283667	-0.197106
N556	N	1.105737	-0.304738	-0.413196
N557	N	1.439070	0.028595	-0.079863
N558	N	1.772403	0.361928	0.253470
N559	N	1.150512	-0.290160	-0.388255
N560	N	1.483845	0.043174	-0.054921
N561	N	1.817179	0.376507	0.278412
H562	H	1.182898	-0.311771	-0.372216
H563	H	1.516231	0.021563	-0.038883
H564	H	1.849565	0.354896	0.294450
N565	N	0.879351	-0.153605	-0.763587
N566	N	1.212685	0.179728	-0.430254
N567	N	1.546018	0.513061	-0.096920
N568	N	0.839280	-0.126862	-0.783447
N569	N	1.172613	0.206471	-0.450114
N570	N	1.505947	0.539804	-0.116781
H571	H	0.806886	-0.105250	-0.765648
H572	H	1.140220	0.228083	-0.432315
H573	H	1.473553	0.561417	-0.098982
H574	H	0.933565	-0.189717	-0.985731
H575	H	1.266899	0.143617	-0.652398
H576	H	1.600232	0.476950	-0.319065
H577	H	0.933565	-0.189706	-1.070855
H578	H	1.266899	0.143627	-0.737522
H579	H	1.600232	0.476960	-0.404188
N580	N	1.150587	-0.334662	-0.725092
N581	N	1.483921	-0.001329	-0.391759
N582	N	1.817254	0.332005	-0.058426
N583	N	1.125844	-0.362612	-0.750582
N584	N	1.459177	-0.029279	-0.417248
N585	N	1.792510	0.304055	-0.083915
H586	H	1.158218	-0.384231	-0.768387
H587	H	1.491551	-0.050898	-0.435053
H588	H	1.824884	0.282436	-0.101720
N589	N	1.150595	-0.334664	-0.630246
N590	N	1.483928	-0.001330	-0.296913
N591	N	1.817262	0.332003	0.036420
N592	N	1.150583	-0.334662	-0.588355
N593	N	1.483916	-0.001328	-0.255022
N594	N	1.817249	0.332005	0.078311
H595	H	1.182960	-0.356271	-0.572309
H596	H	1.516293	-0.022938	-0.238976
H597	H	1.849626	0.310395	0.094358
