data_functionalizedCrystal
_audit_creation_method	'MofGen! by Chris Wilmer'
_symmetry_space_group_name_H-M	'P1'
_symmetry_Int_Tables_number	1
_symmetry_cell_setting	triclinic
loop_
_symmetry_equiv_pos_as_xyz
  x,y,z
_cell_length_a	23.532407
_cell_length_b	11.792254
_cell_length_c	10.868271
_cell_angle_alpha	90.005308
_cell_angle_beta	90.001021
_cell_angle_gamma	96.476362
loop_
_atom_site_label
_atom_site_type_symbol
_atom_site_fract_x
_atom_site_fract_y
_atom_site_fract_z
O1	O	0.756079	-0.137771	-0.102169
O2	O	0.590334	-0.157705	-0.102206
O3	O	0.677225	0.017526	-0.102178
O4	O	0.669188	-0.313002	-0.102197
O5	O	0.677218	0.017533	0.102467
O6	O	0.590327	-0.157698	0.102439
O7	O	0.756072	-0.137764	0.102475
Zn8	Zn	0.673198	-0.147730	0.134949
Zn9	Zn	0.673208	-0.147739	-0.134679
O10	O	0.669181	-0.312995	0.102448
C11	C	0.569112	-0.157194	0.000112
C12	C	0.505885	-0.155668	0.000099
N13	N	0.673196	-0.147723	0.318963
C14	C	0.676715	0.059808	0.000144
C15	C	0.675200	0.185786	0.000143
C16	C	0.107342	-0.249793	0.000149
C17	C	0.047934	-0.248376	0.000157
O18	O	0.011708	-0.335631	0.000196
N19	N	0.024688	-0.144201	0.000161
C20	C	0.060854	-0.041437	0.000169
O21	O	0.035626	0.047302	0.000175
C22	C	0.120261	-0.042856	0.000171
C23	C	0.143504	-0.147037	0.000154
C24	C	0.130585	-0.353967	0.000134
C25	C	0.189990	-0.355384	0.000124
C26	C	0.226151	-0.252628	0.000129
C27	C	0.202908	-0.148455	0.000144
C28	C	0.156427	0.059907	0.000188
C29	C	0.215838	0.058479	0.000190
C30	C	0.239080	-0.045703	0.000174
C31	C	0.298475	-0.047116	0.000140
N32	N	0.321721	-0.151291	0.000136
C33	C	0.285559	-0.254047	0.000130
C34	C	-0.063906	-0.038465	0.000169
C35	C	-0.123313	-0.037045	0.000159
C36	C	-0.136229	-0.243984	0.000148
C37	C	-0.076821	-0.245403	0.000150
C38	C	-0.040660	-0.142640	0.000165
C39	C	0.410313	-0.257016	0.000108
C40	C	0.469724	-0.258424	0.000093
C41	C	0.482635	-0.051485	0.000111
C42	C	0.423230	-0.050076	0.000119
C43	C	0.387070	-0.152851	0.000122
O44	O	0.334735	0.040094	0.000105
O45	O	0.310795	-0.342771	0.000141
C46	C	0.777294	-0.138275	0.000155
C47	C	0.840521	-0.139801	0.000160
C48	C	0.669691	-0.355277	0.000123
C49	C	0.671206	-0.481255	0.000116
C50	C	0.673969	0.288093	0.000138
C51	C	0.672429	0.416444	0.000126
N52	N	0.673215	-0.147737	-0.318693
C53	C	0.673205	-0.147737	0.569969
C54	C	0.673198	-0.147733	0.430292
H55	H	0.380878	-0.340705	0.000115
H56	H	0.208908	-0.440219	0.000110
H57	H	-0.165683	-0.327653	0.000150
H58	H	0.404305	0.034757	0.000114
C59	C	0.091425	-0.465664	0.000059
C60	C	0.124508	-0.557183	0.000016
C61	C	0.088458	-0.660103	-0.000081
H62	H	0.067967	-0.469590	0.071399
H63	H	0.067992	-0.469479	-0.071338
H64	H	0.147931	-0.553369	0.071406
H65	H	0.147965	-0.553295	-0.071319
H66	H	0.065025	-0.663918	-0.071478
H67	H	0.065002	-0.664016	0.071261
H68	H	0.110899	-0.722210	-0.000121
H69	H	0.512088	0.032176	0.000110
H70	H	0.488644	-0.343264	0.000079
C71	C	-0.148433	0.076185	0.000224
C72	C	-0.104042	0.165862	0.000256
C73	C	-0.127159	0.270189	0.000340
H74	H	-0.171334	0.081205	-0.071116
H75	H	-0.171320	0.081109	0.071621
H76	H	-0.081165	0.160940	-0.071134
H77	H	-0.081138	0.160880	0.071591
H78	H	-0.150045	0.275113	0.071737
H79	H	-0.150059	0.275197	-0.071002
H80	H	-0.097043	0.331047	0.000373
C81	C	-0.051559	-0.358482	-0.000116
C82	C	-0.017843	-0.365364	-0.105416
C83	C	0.005427	-0.469527	-0.105710
H84	H	-0.028614	-0.363457	0.071165
H85	H	-0.081594	-0.419503	-0.000190
H86	H	0.012188	-0.304360	-0.105331
H87	H	-0.040775	-0.360409	-0.176714
H88	H	-0.024607	-0.530548	-0.105784
H89	H	0.028370	-0.474493	-0.034425
H90	H	0.028302	-0.474215	-0.177160
C91	C	-0.024580	0.073030	-0.000029
C92	C	0.009910	0.078247	-0.105301
C93	C	0.046145	0.180930	-0.105516
H94	H	-0.046866	0.135363	-0.000093
H95	H	-0.001101	0.076802	0.071297
H96	H	-0.013567	0.074486	-0.176608
H97	H	0.032208	0.015938	-0.105259
H98	H	0.069625	0.184702	-0.034191
H99	H	0.023855	0.243255	-0.105577
H100	H	0.069555	0.184479	-0.176936
C101	C	0.255002	0.170177	0.000136
C102	C	0.221926	0.261707	0.000118
C103	C	0.257983	0.364618	0.000046
H104	H	0.278462	0.174093	0.071476
H105	H	0.278434	0.173989	-0.071261
H106	H	0.198505	0.257897	0.071508
H107	H	0.198468	0.257829	-0.071217
H108	H	0.281415	0.368430	-0.071352
H109	H	0.281441	0.368522	0.071387
H110	H	0.235547	0.426733	0.000022
H111	H	0.137513	0.144743	0.000203
