data_functionalizedCrystal
_audit_creation_method	'MofGen! by Chris Wilmer'
_symmetry_space_group_name_H-M	'P1'
_symmetry_Int_Tables_number	1
_symmetry_cell_setting	triclinic
loop_
_symmetry_equiv_pos_as_xyz
  x,y,z
_cell_length_a	16.625548
_cell_length_b	12.645330
_cell_length_c	16.625539
_cell_angle_alpha	90.024521
_cell_angle_beta	90.017055
_cell_angle_gamma	90.013714
loop_
_atom_site_label
_atom_site_type_symbol
_atom_site_fract_x
_atom_site_fract_y
_atom_site_fract_z
Zn1	Zn	1.232708	-0.422027	0.455920
Zn2	Zn	1.232642	-0.599307	0.321092
Zn3	Zn	1.097878	-0.422061	0.321101
Zn4	Zn	1.097863	-0.599252	0.455882
O5	O	1.165273	-0.510662	0.388499
O6	O	1.345531	-0.445552	0.438047
O7	O	1.214744	-0.575833	0.208261
O8	O	1.115797	-0.273709	0.339004
O9	O	1.345483	-0.575799	0.338990
O10	O	1.214856	-0.273684	0.438056
O11	O	1.115733	-0.445611	0.208267
O12	O	0.985043	-0.445557	0.338967
O13	O	1.115772	-0.575705	0.568719
O14	O	0.985032	-0.575739	0.437990
O15	O	1.214841	-0.445498	0.568747
O16	O	1.214730	-0.747647	0.338952
O17	O	1.115708	-0.747606	0.437982
C18	C	0.955782	-0.510647	0.388476
C19	C	0.866161	-0.510666	0.388486
C20	C	0.537985	-0.510673	0.388520
C21	C	0.629293	-0.510668	0.388508
C22	C	0.702070	-0.510670	0.388502
C23	C	0.793384	-0.510664	0.388491
C24	C	1.165232	-0.786091	0.388480
C25	C	1.165289	-0.903921	0.388498
C26	C	1.227483	-1.071467	0.326072
C27	C	1.227686	-0.948906	0.326225
C28	C	1.188327	-0.948308	0.473491
C29	C	1.188820	-1.070906	0.473160
C30	C	1.080032	-1.071250	0.366769
C31	C	1.080440	-0.948645	0.364863
C32	C	1.375581	-0.510678	0.388522
C33	C	1.465203	-0.510685	0.388532
C34	C	1.165312	-0.510592	0.598808
C35	C	1.165329	-0.510562	0.688429
C36	C	1.165335	-0.234156	0.388535
C37	C	1.165362	-0.116326	0.388551
C38	C	1.165280	-0.510655	0.179008
C39	C	1.165419	-0.510386	0.089387
C40	C	1.165342	-0.510539	0.761211
C41	C	1.165361	-0.510499	0.852520
C42	C	1.165380	-0.510462	0.925296
C43	C	1.165400	-0.510423	1.016611
H44	H	1.213272	-0.918900	0.263205
H45	H	1.251192	-1.099418	0.491610
H46	H	1.213250	-1.101016	0.262867
H47	H	1.290887	-0.919498	0.340632
H48	H	1.290345	-1.102196	0.340318
H49	H	1.249994	-0.917519	0.492249
H50	H	1.144457	-0.919166	0.521290
C51	C	1.130357	-1.110993	0.538201
N52	N	1.086330	-1.141183	0.587194
H53	H	1.063069	-0.919645	0.302316
H54	H	1.059080	-1.102256	0.305872
H55	H	1.031658	-0.918034	0.407033
H56	H	1.033746	-1.100261	0.412275
