data_functionalizedCrystal
_audit_creation_method	'MofGen! by Chris Wilmer'
_symmetry_space_group_name_H-M	'P1'
_symmetry_Int_Tables_number	1
_symmetry_cell_setting	triclinic
loop_
_symmetry_equiv_pos_as_xyz
  x,y,z
_cell_length_a	16.625547
_cell_length_b	16.625547
_cell_length_c	16.625539
_cell_angle_alpha	90.019469
_cell_angle_beta	89.972942
_cell_angle_gamma	89.996613
loop_
_atom_site_label
_atom_site_type_symbol
_atom_site_fract_x
_atom_site_fract_y
_atom_site_fract_z
Zn1	Zn	-1.232783	-0.321018	0.456099
Zn2	Zn	-1.232729	-0.455861	0.321287
Zn3	Zn	-1.097945	-0.321044	0.321264
Zn4	Zn	-1.097958	-0.455810	0.456061
O5	O	-1.165354	-0.388433	0.388677
O6	O	-1.345608	-0.338915	0.438241
O7	O	-1.214822	-0.438009	0.208451
O8	O	-1.115848	-0.208208	0.339156
O9	O	-1.345569	-0.437984	0.339195
O10	O	-1.214913	-0.208189	0.438219
O11	O	-1.115796	-0.338960	0.208434
O12	O	-0.985114	-0.338911	0.339120
O13	O	-1.115871	-0.437897	0.568899
O14	O	-0.985124	-0.437923	0.438155
O15	O	-1.214926	-0.338866	0.568926
O16	O	-1.214835	-0.568686	0.339159
O17	O	-1.115819	-0.568649	0.438177
C18	C	-0.955863	-0.388415	0.388631
C19	C	-0.866242	-0.388426	0.388631
C20	C	-0.793459	-0.388427	0.388638
C21	C	-0.702151	-0.388430	0.388654
C22	C	-0.629374	-0.388436	0.388672
C23	C	-0.538060	-0.388441	0.388688
C24	C	-1.165344	-0.597924	0.388684
C25	C	-1.165414	-0.687545	0.388713
C26	C	-0.375663	-0.388449	0.388715
C27	C	-0.465284	-0.388447	0.388705
C28	C	-1.165385	-0.178124	0.388689
C29	C	-1.165399	-0.088503	0.388694
C30	C	-1.165406	-0.388373	0.598986
C31	C	-1.165428	-0.388347	0.688608
C32	C	-1.165408	-0.015721	0.388700
C33	C	-1.165412	0.075588	0.388707
C34	C	-1.165410	0.148364	0.388708
C35	C	-1.165415	0.239679	0.388712
C36	C	-1.165348	-0.388435	0.179187
C37	C	-1.165482	-0.388233	0.089566
C38	C	-1.165466	-0.388257	1.016783
C39	C	-1.165453	-0.388285	0.925475
C40	C	-1.165447	-0.388303	0.852698
C41	C	-1.165434	-0.388329	0.761384
