data_functionalizedCrystal
_audit_creation_method	'MofGen! by Chris Wilmer'
_symmetry_space_group_name_H-M	'P1'
_symmetry_Int_Tables_number	1
_symmetry_cell_setting	triclinic
loop_
_symmetry_equiv_pos_as_xyz
  x,y,z
_cell_length_a	17.699104
_cell_length_b	11.804365
_cell_length_c	17.699083
_cell_angle_alpha	78.194645
_cell_angle_beta	83.287266
_cell_angle_gamma	101.825558
loop_
_atom_site_label
_atom_site_type_symbol
_atom_site_fract_x
_atom_site_fract_y
_atom_site_fract_z
O1	O	1.019388	0.099053	0.080473
O2	O	0.799012	0.099051	0.092910
O3	O	0.915425	0.099041	-0.023496
O4	O	0.902976	0.099062	0.196879
O5	O	0.884778	-0.099012	0.007119
O6	O	0.768365	-0.099003	0.123524
O7	O	0.988741	-0.099000	0.111087
Cu8	Cu	0.875755	-0.117086	0.120101
Cu9	Cu	0.911998	0.117136	0.083896
O10	O	0.872329	-0.098991	0.227493
C11	C	0.755492	0.000023	0.107769
C12	C	0.671474	0.000022	0.106424
C13	C	0.146606	0.000040	0.167165
C14	C	0.225550	0.000044	0.168423
C15	C	0.274167	0.000037	0.100089
C16	C	0.243837	0.000039	0.030490
C17	C	0.164896	0.000044	0.029231
C18	C	0.562200	0.000020	0.035566
C19	C	0.641146	0.000012	0.036831
C20	C	0.622855	0.000020	0.174758
C21	C	0.543913	0.000025	0.173499
C22	C	0.513592	0.000033	0.103900
C23	C	0.427992	0.000032	0.102536
C24	C	0.359764	0.000030	0.101454
N25	N	0.850269	-0.281824	0.145565
C26	C	0.998693	-0.655785	-0.002737
C27	C	1.017972	-0.531124	-0.022004
C28	C	0.976048	-0.468793	0.019887
C29	C	0.914841	-0.531134	0.081047
C30	C	0.895563	-0.655807	0.100320
C31	C	0.872918	-0.468815	0.122944
C32	C	0.811712	-0.531157	0.184105
C33	C	0.792437	-0.655817	0.203374
C34	C	0.834361	-0.718148	0.161483
C35	C	0.892196	-0.344143	0.103671
C36	C	0.789067	-0.344165	0.206728
C37	C	0.769787	-0.468826	0.225995
C38	C	1.032262	0.000029	0.096228
C39	C	1.116281	0.000039	0.097572
C40	C	0.899655	0.000014	-0.036386
C41	C	0.898316	0.000014	-0.120404
N42	N	0.937491	0.281874	0.058426
C43	C	0.966649	0.000013	-0.169019
C44	C	0.965388	0.000024	-0.247964
C45	C	0.895793	0.000026	-0.278291
C46	C	0.827456	0.000031	-0.229669
C47	C	0.828718	0.000029	-0.150727
C48	C	0.822362	0.000041	-0.548034
C49	C	0.821104	0.000039	-0.626982
C50	C	0.959032	0.000035	-0.645272
C51	C	0.960295	0.000033	-0.566329
C52	C	0.891959	0.000044	-0.517716
C53	C	0.893327	0.000035	-0.432115
C54	C	0.894423	0.000027	-0.363889
C55	C	0.888099	0.000038	0.240382
C56	C	0.889439	0.000047	0.324399
H57	H	0.537522	0.000024	-0.021105
N58	N	0.491482	0.000046	0.247201
H59	H	0.436871	0.000049	0.235843
H60	H	0.489922	-0.073370	0.288890
N61	N	0.296270	0.000037	-0.043216
H62	H	0.350881	0.000029	-0.031859
H63	H	0.275098	-0.073386	-0.062202
N64	N	0.746034	0.000053	-0.659687
H65	H	0.753803	0.073470	-0.703380
H66	H	0.731108	-0.073416	-0.680638
H67	H	0.818662	-0.819657	0.177168
N68	N	0.132177	0.000039	-0.045826
H69	H	0.161275	0.073454	-0.087106
H70	H	0.138547	-0.073432	-0.064342
H71	H	0.766718	0.000049	-0.508462
H72	H	0.647553	0.000019	0.231429
N73	N	0.703778	-0.536080	0.291962
H74	H	0.715744	-0.514379	0.342318
H75	H	0.653460	-0.514380	0.279887
N76	N	0.752390	0.000023	-0.262375
H77	H	0.709293	0.000024	-0.219597
H78	H	0.760221	0.073441	-0.306078
H79	H	0.942031	-0.293396	0.053874
H80	H	0.991748	-0.367289	0.004197
N81	N	0.693585	0.000001	-0.036875
H82	H	0.662399	0.000008	-0.081158
H83	H	0.738103	0.073416	-0.050699
H84	H	1.067807	-0.480371	-0.071800
N85	N	1.043913	-0.723009	-0.047907
H86	H	1.022414	-0.811443	-0.026414
H87	H	1.038645	-0.701238	-0.104959
H88	H	0.742605	-0.706575	0.253180
N89	N	0.743845	-0.276954	0.251919
H90	H	0.765342	-0.188519	0.230429
H91	H	0.686800	-0.298762	0.246611
N92	N	1.041711	-0.000001	-0.136311
H93	H	1.084808	0.000002	-0.179091
H94	H	1.056602	0.073417	-0.115300
N95	N	1.039088	0.000016	-0.300400
H96	H	1.083366	0.000003	-0.269208
H97	H	1.030201	-0.073406	-0.322205
N98	N	1.035356	0.000021	-0.533618
H99	H	1.078455	0.000023	-0.576396
H100	H	1.050244	0.073440	-0.512608
N101	N	1.032737	0.000027	-0.697711
H102	H	1.046654	0.073447	-0.742217
H103	H	1.076966	-0.000028	-0.666460
N104	N	0.094179	0.000020	0.240881
H105	H	0.115281	0.073434	0.259908
H106	H	0.039578	-0.000033	0.229481
N107	N	0.258262	0.000066	0.243481
H108	H	0.215485	0.000069	0.286579
H109	H	0.279261	-0.073349	0.258361
H110	H	0.773075	0.000030	-0.111144
