data_functionalizedCrystal
_audit_creation_method	'MofGen! by Chris Wilmer'
_symmetry_space_group_name_H-M	'P1'
_symmetry_Int_Tables_number	1
_symmetry_cell_setting	triclinic
loop_
_symmetry_equiv_pos_as_xyz
  x,y,z
_cell_length_a	14.519709
_cell_length_b	11.792254
_cell_length_c	12.996460
_cell_angle_alpha	90.000957
_cell_angle_beta	90.007122
_cell_angle_gamma	83.939371
loop_
_atom_site_label
_atom_site_type_symbol
_atom_site_fract_x
_atom_site_fract_y
_atom_site_fract_z
O1	O	0.126462	1.506193	0.085568
O2	O	0.626462	2.006193	0.585568
O3	O	0.139477	1.175782	0.085571
O4	O	0.639477	1.675782	0.585571
O5	O	-0.001237	1.349748	0.085560
O6	O	0.498763	1.849748	0.585560
O7	O	0.267176	1.332227	0.085579
O8	O	0.767176	1.832227	0.585579
O9	O	-0.001246	1.349745	-0.085574
O10	O	0.498754	1.849745	0.414426
O11	O	0.139468	1.175779	-0.085563
O12	O	0.639468	1.675779	0.414437
O13	O	0.126453	1.506190	-0.085565
O14	O	0.626453	2.006190	0.414435
Cu15	Cu	0.132959	1.340984	-0.101190
Cu16	Cu	0.632959	1.840984	0.398810
Cu17	Cu	0.132970	1.340988	0.101195
Cu18	Cu	0.632970	1.840988	0.601195
O19	O	0.267166	1.332224	-0.085555
O20	O	0.767166	1.832224	0.414445
C21	C	0.138652	1.133494	0.000004
C22	C	0.638652	1.633494	0.500004
C23	C	0.136199	1.007495	0.000005
C24	C	0.636199	1.507495	0.500005
C25	C	0.134205	0.905169	0.000009
C26	C	0.634205	1.405169	0.500009
C27	C	0.131711	0.776796	0.000010
C28	C	0.631711	1.276796	0.500010
C29	C	-0.035604	1.348930	-0.000007
C30	C	0.464396	1.848930	0.499993
C31	C	-0.137994	1.346483	-0.000007
C32	C	0.362006	1.846483	0.499993
C33	C	-0.512923	1.337475	0.000019
C34	C	-0.012923	1.837475	0.500019
C35	C	-0.408606	1.339976	0.000012
C36	C	0.091394	1.839976	0.500012
C37	C	-0.325462	1.341979	0.000005
C38	C	0.174538	1.841979	0.500005
C39	C	-0.221138	1.344481	-0.000001
C40	C	0.278862	1.844481	0.499999
C41	C	0.301534	1.333042	0.000014
C42	C	0.801534	1.833042	0.500014
C43	C	0.403924	1.335489	0.000022
C44	C	0.903924	1.835489	0.500022
C45	C	0.127277	1.548478	0.000003
C46	C	0.627277	2.048478	0.500003
C47	C	0.129731	1.674477	0.000010
C48	C	0.629731	2.174477	0.500010
N49	N	0.132971	1.340991	0.243543
N50	N	0.632971	1.840991	0.743543
N51	N	0.132951	1.340990	-0.243537
N52	N	0.632951	1.840990	0.256463
C53	C	0.132962	1.340985	0.663357
C54	C	0.632962	1.840985	1.163357
C55	C	0.132968	1.340983	0.546552
C56	C	0.632968	1.840983	1.046552
C57	C	0.132966	1.340987	0.453453
C58	C	0.632966	1.840987	0.953453
C59	C	0.132972	1.340987	0.336641
C60	C	0.632972	1.840987	0.836641
