data_functionalizedCrystal
_audit_creation_method	'MofGen! by Chris Wilmer'
_symmetry_space_group_name_H-M	'P1'
_symmetry_Int_Tables_number	1
_symmetry_cell_setting	triclinic
loop_
_symmetry_equiv_pos_as_xyz
  x,y,z
_cell_length_a	15.944499
_cell_length_b	15.944551
_cell_length_c	9.730217
_cell_angle_alpha	89.995798
_cell_angle_beta	89.996000
_cell_angle_gamma	83.488174
loop_
_atom_site_label
_atom_site_type_symbol
_atom_site_fract_x
_atom_site_fract_y
_atom_site_fract_z
O1	O	1.114548	0.108124	-0.114375
O2	O	0.869992	0.121525	-0.114360
O3	O	0.998948	-0.007451	-0.114356
O4	O	0.985592	0.237101	-0.114380
O5	O	0.998944	-0.007453	0.114224
O6	O	0.869988	0.121524	0.114220
O7	O	1.114544	0.108123	0.114205
Zn8	Zn	0.992265	0.114823	0.150504
Zn9	Zn	0.992270	0.114825	-0.150660
O10	O	0.985588	0.237100	0.114200
C11	C	0.838695	0.120976	-0.000068
C12	C	0.745447	0.119331	-0.000062
C13	C	0.453911	0.194263	-0.000090
C14	C	0.514942	0.155312	-0.112791
C15	C	0.409810	0.113355	-0.000093
C16	C	0.514924	0.155289	0.112571
C17	C	0.574719	0.116296	-0.000076
C18	C	0.469614	0.074381	-0.112887
C19	C	0.469589	0.074370	0.112576
C20	C	0.530603	0.035360	-0.000152
C21	C	0.314810	0.111663	-0.000105
C22	C	0.669718	0.117981	-0.000074
C23	C	0.998392	-0.038746	-0.000066
C24	C	0.996729	-0.131992	-0.000065
C25	C	0.912823	-0.346833	-0.000078
C26	C	0.951784	-0.407858	0.112623
C27	C	0.993722	-0.302717	-0.000075
C28	C	0.951807	-0.407840	-0.112739
C29	C	0.990811	-0.467629	-0.000091
C30	C	1.032706	-0.362514	0.112719
C31	C	1.032717	-0.362490	-0.112744
C32	C	1.071737	-0.423497	-0.000015
C33	C	0.995397	-0.207715	-0.000065
C34	C	0.989143	-0.562630	-0.000092
C35	C	1.145840	0.108672	-0.000090
C36	C	1.239089	0.110317	-0.000105
C37	C	0.986144	0.268394	-0.000093
C38	C	0.987806	0.361640	-0.000103
N39	N	0.992268	0.114822	0.356041
N40	N	0.992275	0.114820	-0.356196
C41	C	1.106505	0.000646	0.356035
C42	C	1.163629	-0.056440	0.427973
C43	C	1.163637	-0.056441	0.571852
C44	C	1.106514	0.000649	0.643798
C45	C	1.049390	0.057735	0.571861
C46	C	1.049389	0.057731	0.427978
C47	C	0.935150	0.171905	0.571866
C48	C	0.935144	0.171911	0.427987
C49	C	0.878027	0.228995	0.643812
C50	C	0.820906	0.286086	0.571875
C51	C	0.820900	0.286085	0.427987
C52	C	0.878020	0.228997	0.356050
H53	H	0.845673	-0.313513	0.000038
H54	H	0.449471	0.040177	0.207865
H55	H	0.535042	0.189537	-0.208071
H56	H	1.106511	0.000647	0.238881
O57	O	0.906466	-0.434484	0.238846
H58	H	0.851319	-0.466553	0.207113
O59	O	1.106520	0.000640	0.798983
H60	H	1.057202	0.049923	0.836926
H61	H	0.878033	0.228989	0.760967
H62	H	1.210137	-0.102924	0.369382
H63	H	0.878024	0.228994	0.238895
O64	O	0.759301	0.347659	0.649466
H65	H	0.768905	0.338069	0.761600
H66	H	1.210150	-0.102928	0.630424
H67	H	0.534998	0.189524	0.207847
H68	H	0.774380	0.332568	0.369423
O69	O	0.574561	-0.053657	-0.000226
H70	H	0.614198	-0.063809	0.093377
H71	H	0.420581	0.261409	-0.000206
O72	O	1.078006	-0.335818	-0.238956
H73	H	1.044295	-0.353757	-0.332376
H74	H	0.449636	0.040193	-0.208273
H75	H	0.917581	-0.427910	-0.208026
H76	H	1.066892	-0.342530	0.208104
H77	H	1.138946	-0.456668	0.000045
