data_functionalizedCrystal
_audit_creation_method	'MofGen! by Chris Wilmer'
_symmetry_space_group_name_H-M	'P1'
_symmetry_Int_Tables_number	1
_symmetry_cell_setting	triclinic
loop_
_symmetry_equiv_pos_as_xyz
  x,y,z
_cell_length_a	10.540539
_cell_length_b	10.540510
_cell_length_c	14.586319
_cell_angle_alpha	89.998684
_cell_angle_beta	89.998549
_cell_angle_gamma	84.519401
loop_
_atom_site_label
_atom_site_type_symbol
_atom_site_fract_x
_atom_site_fract_y
_atom_site_fract_z
O1	O	1.685867	0.178901	-0.076192
O2	O	1.316452	0.195757	-0.076202
O3	O	1.509607	0.002620	-0.076196
O4	O	1.492711	0.372038	-0.076198
O5	O	1.509593	0.002617	0.076284
O6	O	1.316438	0.195754	0.076278
O7	O	1.685853	0.178898	0.076289
Cu8	Cu	1.501144	0.187326	0.090206
Cu9	Cu	1.501160	0.187330	-0.090120
O10	O	1.492698	0.372035	0.076283
C11	C	1.269142	0.194492	0.000037
C12	C	1.128194	0.190710	0.000032
C13	C	0.944783	0.045791	0.000389
C14	C	1.091401	0.049624	0.000036
C15	C	1.066522	0.258608	-0.087039
C16	C	0.919978	0.253793	-0.087102
C17	C	0.919474	0.256659	0.086297
C18	C	1.066456	0.257959	0.087439
C19	C	1.508341	-0.044685	0.000042
C20	C	1.504574	-0.185635	0.000036
C21	C	1.638758	-0.403090	0.000390
C22	C	1.642776	-0.256495	0.000041
C23	C	1.433836	-0.230392	-0.087038
C24	C	1.430797	-0.377153	-0.087106
C25	C	1.427903	-0.376965	0.086293
C26	C	1.434458	-0.230623	0.087439
C27	C	1.733163	0.180164	0.000048
C28	C	1.874110	0.183946	0.000046
C29	C	1.493964	0.419340	0.000043
C30	C	1.497731	0.560290	0.000042
N31	N	1.501142	0.187323	0.217038
N32	N	1.501172	0.187323	-0.216951
C33	C	1.586700	0.101831	0.452047
C34	C	1.586704	0.101828	0.548029
C35	C	1.415605	0.272819	0.548033
C36	C	1.415597	0.272815	0.452053
C37	C	1.501151	0.187322	0.404063
C38	C	1.501164	0.187323	0.596024
C39	C	1.501167	0.187321	0.700091
C40	C	1.501147	0.187323	0.299989
H41	H	1.109121	0.211444	-0.151838
H42	H	1.324140	-0.399115	0.086877
N43	N	1.096129	0.395844	-0.091345
H44	H	1.055554	0.437616	-0.147849
H45	H	1.061198	0.442434	-0.034902
H46	H	1.107418	0.208357	0.151853
H47	H	1.698125	-0.227152	0.062458
N48	N	1.710081	-0.458651	0.083107
H49	H	1.651673	-0.508105	0.121159
H50	H	1.785842	-0.517479	0.062268
H51	H	1.692295	-0.446595	-0.061700
N52	N	1.299068	-0.167622	-0.091332
H53	H	1.300690	-0.072047	-0.094110
H54	H	1.255478	-0.197870	-0.147835
H55	H	0.871999	0.355259	-0.091054
H56	H	0.887927	0.210999	0.152296
N57	N	1.678994	0.009636	0.599781
H58	H	1.663588	-0.080611	0.583081
H59	H	1.769167	0.025257	0.583042
N60	N	1.716531	-0.218851	-0.082774
H61	H	1.746549	-0.297532	-0.119199
H62	H	1.659715	-0.158857	-0.122385
H63	H	1.479150	-0.417367	-0.152193
H64	H	1.327430	-0.400148	-0.091054
N65	N	1.098519	0.394212	0.094409
H66	H	1.153763	0.414370	0.040764
H67	H	1.017280	0.453355	0.093667
H68	H	0.872236	0.358564	0.086885
N69	N	1.323333	0.365025	0.599794
H70	H	1.336320	0.352059	0.667878
H71	H	1.338799	0.455224	0.583011
N72	N	1.323311	0.365017	0.400290
H73	H	1.269118	0.419181	0.445254
H74	H	1.372401	0.421605	0.360458
H75	H	1.656362	0.032216	0.412976
H76	H	1.482972	-0.199534	-0.151835
H77	H	1.134015	-0.003800	0.062452
H78	H	1.333559	-0.181557	0.092694
N79	N	0.906930	-0.028044	0.083105
H80	H	0.843598	0.027340	0.121160
H81	H	0.866905	-0.106449	0.062263
H82	H	1.133157	-0.004174	-0.062488
N83	N	1.485744	-0.433169	0.173724
H84	H	1.477705	-0.527872	0.174952
H85	H	1.578743	-0.417649	0.176550
N86	N	0.904761	-0.027752	-0.081842
H87	H	0.841052	0.028036	-0.119316
H88	H	0.981985	-0.054747	-0.120669
H89	H	1.485930	-0.202013	0.151856
N90	N	0.882612	0.187322	-0.173311
H91	H	0.961302	0.161418	-0.210914
H92	H	0.839537	0.109023	-0.156356
