data_functionalizedCrystal
_audit_creation_method	'MofGen! by Chris Wilmer'
_symmetry_space_group_name_H-M	'P1'
_symmetry_Int_Tables_number	1
_symmetry_cell_setting	triclinic
loop_
_symmetry_equiv_pos_as_xyz
  x,y,z
_cell_length_a	25.639242
_cell_length_b	12.759399
_cell_length_c	12.759393
_cell_angle_alpha	90.030906
_cell_angle_beta	89.968488
_cell_angle_gamma	89.989356
loop_
_atom_site_label
_atom_site_type_symbol
_atom_site_fract_x
_atom_site_fract_y
_atom_site_fract_z
Zn1	Zn	0.799359	0.418341	-0.594313
Zn2	Zn	1.132692	0.751674	-0.260980
Zn3	Zn	1.466026	1.085007	0.072353
Zn4	Zn	0.799304	0.594056	-0.418632
Zn5	Zn	1.132638	0.927390	-0.085299
Zn6	Zn	1.465971	1.260723	0.248034
Zn7	Zn	0.711921	0.418378	-0.418616
Zn8	Zn	1.045254	0.751712	-0.085283
Zn9	Zn	1.378588	1.085045	0.248050
Zn10	Zn	0.711916	0.593964	-0.594237
Zn11	Zn	1.045250	0.927298	-0.260904
Zn12	Zn	1.378583	1.260631	0.072430
O13	O	0.755625	0.506185	-0.506450
O14	O	1.088958	0.839518	-0.173116
O15	O	1.422292	1.172852	0.160217
O16	O	0.872517	0.441672	-0.571048
O17	O	1.205850	0.775006	-0.237714
O18	O	1.539184	1.108339	0.095619
O19	O	0.787692	0.570806	-0.271609
O20	O	1.121025	0.904140	0.061724
O21	O	1.454358	1.237473	0.395058
O22	O	0.723545	0.271352	-0.441948
O23	O	1.056878	0.604686	-0.108615
O24	O	1.390211	0.938019	0.224719
O25	O	0.872477	0.570770	-0.441975
O26	O	1.205810	0.904103	-0.108642
O27	O	1.539143	1.237437	0.224691
O28	O	0.787785	0.271325	-0.571032
O29	O	1.121118	0.604658	-0.237699
O30	O	1.454452	0.937991	0.095635
O31	O	0.723492	0.441736	-0.271597
O32	O	1.056825	0.775070	0.061736
O33	O	1.390158	1.108403	0.395069
O34	O	0.638755	0.441647	-0.441874
O35	O	0.972089	0.774981	-0.108541
O36	O	1.305422	1.108314	0.224793
O37	O	0.723537	0.570613	-0.741268
O38	O	1.056870	0.903947	-0.407935
O39	O	1.390203	1.237280	-0.074602
O40	O	0.638752	0.570650	-0.570902
O41	O	0.972085	0.903983	-0.237569
O42	O	1.305418	1.237317	0.095765
O43	O	0.787781	0.441583	-0.741324
O44	O	1.121114	0.774917	-0.407991
O45	O	1.454447	1.108250	-0.074658
O46	O	0.787687	0.741065	-0.441901
O47	O	1.121020	1.074398	-0.108568
O48	O	1.454354	1.407732	0.224765
O49	O	0.723484	0.740998	-0.570918
O50	O	1.056817	1.074331	-0.237584
O51	O	1.390150	1.407664	0.095749
C52	C	0.619783	0.506144	-0.506379
C53	C	0.953116	0.839477	-0.173045
C54	C	1.286449	1.172810	0.160288
C55	C	0.561669	0.506151	-0.506373
C56	C	0.895002	0.839484	-0.173040
C57	C	1.228335	1.172818	0.160294
C58	C	0.755593	0.779152	-0.506426
C59	C	1.088926	1.112486	-0.173093
C60	C	1.422260	1.445819	0.160241
C61	C	0.755627	0.895929	-0.506451
C62	C	1.088961	1.229262	-0.173117
C63	C	1.422294	1.562596	0.160216
C64	C	0.755664	0.506084	-0.780483
C65	C	1.088998	0.839417	-0.447150
C66	C	1.422331	1.172751	-0.113817
C67	C	0.755681	0.506041	-0.897260
C68	C	1.089014	0.839374	-0.563927
C69	C	1.422348	1.172708	-0.230593
C70	C	0.201313	0.573469	-0.573571
C71	C	0.534646	0.906802	-0.240238
C72	C	0.867979	1.240135	0.093096
C73	C	0.146708	0.573475	-0.573588
C74	C	0.480042	0.906809	-0.240254
C75	C	0.813375	1.240142	0.093079
O76	O	0.118478	0.630660	-0.630661
O77	O	0.451811	0.963993	-0.297328
O78	O	0.785144	1.297326	0.036005
N79	N	0.119386	0.506214	-0.506518
N80	N	0.452719	0.839547	-0.173185
N81	N	0.786053	1.172880	0.160148
C82	C	0.146671	0.438934	-0.439436
C83	C	0.480004	0.772267	-0.106102
C84	C	0.813338	1.105601	0.227231
O85	O	0.118417	0.381723	-0.382390
O86	O	0.451751	0.715056	-0.049057
O87	O	0.785084	1.048390	0.284276
C88	C	0.201274	0.438923	-0.439425
C89	C	0.534608	0.772256	-0.106092
C90	C	0.867941	1.105590	0.227241
C91	C	0.228594	0.506196	-0.506491
C92	C	0.561927	0.839530	-0.173158
C93	C	0.895260	1.172863	0.160175
C94	C	0.228632	0.640736	-0.640632
C95	C	0.561965	0.974069	-0.307299
C96	C	0.895299	1.307402	0.026034
C97	C	0.283233	0.640731	-0.640614
C98	C	0.616566	0.974064	-0.307281
C99	C	0.949899	1.307397	0.026053
C100	C	0.310514	0.573458	-0.573534
C101	C	0.643847	0.906792	-0.240201
C102	C	0.977180	1.240125	0.093132
C103	C	0.283194	0.506191	-0.506473
C104	C	0.616528	0.839525	-0.173140
C105	C	0.949861	1.172858	0.160194
C106	C	0.228558	0.371639	-0.372349
C107	C	0.561892	0.704972	-0.039015
C108	C	0.895225	1.038306	0.294318
C109	C	0.283165	0.371633	-0.372345
C110	C	0.616499	0.704967	-0.039011
C111	C	0.949832	1.038300	0.294322
C112	C	0.310485	0.438907	-0.439411
C113	C	0.643818	0.772240	-0.106077
C114	C	0.977151	1.105573	0.227256
C115	C	0.365076	0.438914	-0.439375
C116	C	0.698409	0.772247	-0.106042
C117	C	1.031743	1.105580	0.227292
N118	N	0.392398	0.506175	-0.506444
N119	N	0.725731	0.839508	-0.173111
N120	N	1.059065	1.172842	0.160222
C121	C	0.365117	0.573447	-0.573524
C122	C	0.698450	0.906781	-0.240191
C123	C	1.031784	1.240114	0.093143
C124	C	0.032000	0.438961	-0.439464
C125	C	0.365334	0.772294	-0.106131
C126	C	0.698667	1.105628	0.227202
C127	C	-0.022602	0.438976	-0.439469
C128	C	0.310731	0.772310	-0.106135
C129	C	0.644065	1.105643	0.227198
C130	C	-0.022561	0.573516	-0.573622
C131	C	0.310772	0.906850	-0.240289
C132	C	0.644106	1.240183	0.093045
C133	C	0.032042	0.573505	-0.573612
C134	C	0.365376	0.906839	-0.240278
C135	C	0.698709	1.240172	0.093055
C136	C	0.059323	0.506222	-0.506533
C137	C	0.392656	0.839556	-0.173200
C138	C	0.725989	1.172889	0.160133
C139	C	0.479782	0.573432	-0.573480
C140	C	0.813115	0.906765	-0.240147
C141	C	1.146449	1.240098	0.093187
C142	C	0.534387	0.573423	-0.573453
C143	C	0.867721	0.906757	-0.240119
C144	C	1.201054	1.240090	0.093214
C145	C	0.534342	0.438880	-0.439304
C146	C	0.867675	0.772213	-0.105970
C147	C	1.201008	1.105547	0.227363
C148	C	0.479741	0.438892	-0.439326
C149	C	0.813074	0.772225	-0.105993
C150	C	1.146408	1.105558	0.227340
C151	C	0.452463	0.506171	-0.506423
C152	C	0.785796	0.839504	-0.173090
C153	C	1.119129	1.172838	0.160243
O154	O	0.393341	0.381755	-0.382334
O155	O	0.726675	0.715089	-0.049000
O156	O	1.060008	1.048422	0.284333
O157	O	0.393377	0.630639	-0.630570
O158	O	0.726711	0.963972	-0.297236
O159	O	1.060044	1.297306	0.036097
C160	C	0.891998	0.506227	-0.506522
C161	C	1.225331	0.839561	-0.173189
C162	C	1.558665	1.172894	0.160145
C163	C	0.950112	0.506245	-0.506553
C164	C	1.283446	0.839579	-0.173219
C165	C	1.616779	1.172912	0.160114
C166	C	0.755672	0.232152	-0.506497
C167	C	1.089005	0.565485	-0.173163
C168	C	1.422338	0.898818	0.160170
C169	C	0.755691	0.115375	-0.506517
C170	C	1.089025	0.448708	-0.173183
C171	C	1.422358	0.782042	0.160150
C172	C	0.789096	0.950791	-0.439349
C173	C	1.122429	1.284124	-0.106015
C174	C	1.455763	1.617458	0.227318
C175	C	0.789130	1.060515	-0.439384
C176	C	1.122463	1.393848	-0.106050
C177	C	1.455796	1.727182	0.227283
C178	C	0.722221	1.060505	-0.573627
C179	C	1.055554	1.393838	-0.240293
C180	C	1.388888	1.727172	0.093040
C181	C	0.722190	0.950783	-0.573596
C182	C	1.055524	1.284116	-0.240262
C183	C	1.388857	1.617450	0.093071
C184	C	0.789135	0.438844	-0.952153
C185	C	1.122468	0.772178	-0.618820
C186	C	1.455802	1.105511	-0.285486
C187	C	0.789144	0.438799	-1.061877
C188	C	1.122477	0.772132	-0.728544
C189	C	1.455811	1.105466	-0.395210
C190	C	0.722243	0.573156	-1.061806
C191	C	1.055576	0.906490	-0.728472
C192	C	1.388910	1.239823	-0.395139
C193	C	0.722232	0.573195	-0.952084
C194	C	1.055565	0.906529	-0.618750
C195	C	1.388899	1.239862	-0.285417
C196	C	0.755616	0.506210	-0.233482
C197	C	1.088950	0.839543	0.099851
C198	C	1.422283	1.172876	0.433184
C199	C	0.755701	0.505957	-0.116706
C200	C	1.089034	0.839290	0.216627
C201	C	1.422368	1.172623	0.549960
H202	H	0.556628	0.628209	-0.628067
H203	H	0.889962	0.961543	-0.294733
H204	H	1.223295	1.294876	0.038600
H205	H	-0.044841	0.384206	-0.384846
H206	H	0.288493	0.717539	-0.051513
H207	H	0.621826	1.050873	0.281821
Cl208	Cl	0.831132	0.881835	-0.354941
Cl209	Cl	1.164465	1.215168	-0.021607
Cl210	Cl	1.497799	1.548502	0.311726
H211	H	0.816385	0.384079	-1.106566
H212	H	1.149718	0.717412	-0.773233
H213	H	1.483052	1.050746	-0.439899
H214	H	0.305374	0.316836	-0.317726
H215	H	0.638707	0.650169	0.015607
H216	H	0.972041	0.983502	0.348940
H217	H	0.457578	0.628214	-0.628119
H218	H	0.790912	0.961548	-0.294786
H219	H	1.124245	1.294881	0.038548
Cl220	Cl	0.317569	0.725301	-0.724937
Cl221	Cl	0.650902	1.058634	-0.391604
Cl222	Cl	0.984235	1.391968	-0.058271
H223	H	0.206426	0.695517	-0.695262
H224	H	0.539759	1.028851	-0.361929
H225	H	0.873092	1.362184	-0.028596
H226	H	0.054282	0.628284	-0.628224
H227	H	0.387616	0.961617	-0.294891
H228	H	0.720949	1.294950	0.038442
Cl229	Cl	0.066290	0.354376	-0.355120
Cl230	Cl	0.399623	0.687709	-0.021787
Cl231	Cl	0.732957	1.021042	0.311547
H232	H	0.694997	1.105181	-0.628292
H233	H	1.028331	1.438514	-0.294959
H234	H	1.361664	1.771847	0.038375
H235	H	0.694936	0.906111	-0.628244
H236	H	1.028269	1.239445	-0.294910
H237	H	1.361603	1.572778	0.038423
Cl238	Cl	0.831183	0.354418	-0.883235
Cl239	Cl	1.164516	0.687751	-0.549902
Cl240	Cl	1.497850	1.021085	-0.216569
Cl241	Cl	0.680198	0.657580	-1.130734
Cl242	Cl	1.013531	0.990913	-0.797401
Cl243	Cl	1.346865	1.324246	-0.464068
H244	H	-0.044783	0.628290	-0.628245
H245	H	0.288550	0.961623	-0.294912
H246	H	0.621884	1.294957	0.038421
Cl247	Cl	0.194227	0.287053	-0.288039
Cl248	Cl	0.527561	0.620387	0.045294
Cl249	Cl	0.860894	0.953720	0.378628
Cl250	Cl	0.831208	1.129480	-0.355025
Cl251	Cl	1.164542	1.462813	-0.021692
Cl252	Cl	1.497875	1.796147	0.311641
H253	H	0.694986	0.627914	-0.907389
H254	H	1.028319	0.961248	-0.574055
H255	H	1.361652	1.294581	-0.240722
H256	H	0.457496	0.384114	-0.384714
H257	H	0.790830	0.717448	-0.051380
H258	H	1.124163	1.050781	0.281953
H259	H	0.556564	0.384112	-0.384686
H260	H	0.889897	0.717445	-0.051352
H261	H	1.223230	1.050779	0.281981
