data_functionalizedCrystal
_audit_creation_method	'MofGen! by Chris Wilmer'
_symmetry_space_group_name_H-M	'P1'
_symmetry_Int_Tables_number	1
_symmetry_cell_setting	triclinic
loop_
_symmetry_equiv_pos_as_xyz
  x,y,z
_cell_length_a	25.639243
_cell_length_b	25.639239
_cell_length_c	18.050582
_cell_angle_alpha	90.024638
_cell_angle_beta	90.017474
_cell_angle_gamma	90.041410
loop_
_atom_site_label
_atom_site_type_symbol
_atom_site_fract_x
_atom_site_fract_y
_atom_site_fract_z
Zn1	Zn	0.799233	-0.208146	0.419952
Zn2	Zn	1.299233	0.291854	0.919952
Zn3	Zn	0.799154	-0.295574	0.295758
Zn4	Zn	1.299154	0.204426	0.795758
Zn5	Zn	0.711807	-0.208158	0.295771
Zn6	Zn	1.211807	0.291842	0.795771
Zn7	Zn	0.711754	-0.295556	0.419901
Zn8	Zn	1.211754	0.204444	0.919901
O9	O	0.755487	-0.251859	0.357846
O10	O	1.255487	0.248141	0.857846
O11	O	0.872388	-0.219746	0.403494
O12	O	1.372388	0.280254	0.903494
O13	O	0.787556	-0.283990	0.191835
O14	O	1.287556	0.216010	0.691835
O15	O	0.723459	-0.134991	0.312271
O16	O	1.223459	0.365009	0.812271
O17	O	0.872330	-0.283978	0.312249
O18	O	1.372330	0.216022	0.812249
O19	O	0.787691	-0.134982	0.403507
O20	O	1.287691	0.365018	0.903507
O21	O	0.723383	-0.219767	0.191845
O22	O	1.223383	0.280233	0.691845
O23	O	0.638635	-0.219750	0.312221
O24	O	1.138635	0.280250	0.812221
O25	O	0.723370	-0.283949	0.523832
O26	O	1.223370	0.216051	1.023832
O27	O	0.638596	-0.283961	0.403419
O28	O	1.138596	0.216039	0.903419
O29	O	0.787640	-0.219729	0.523870
O30	O	1.287640	0.280271	1.023870
O31	O	0.787505	-0.368737	0.312199
O32	O	1.287505	0.131263	0.812199
O33	O	0.723293	-0.368724	0.403406
O34	O	1.223293	0.131276	0.903406
C35	C	0.619644	-0.251855	0.357816
C36	C	1.119644	0.248145	0.857816
C37	C	0.561530	-0.251866	0.357821
C38	C	1.061530	0.248134	0.857821
C39	C	0.201192	-0.218465	0.405436
C40	C	0.701192	0.281535	0.905436
C41	C	0.146588	-0.218465	0.405441
C42	C	0.646588	0.281535	0.905441
O43	O	0.118372	-0.190056	0.445888
O44	O	0.618372	0.309944	0.945888
N45	N	0.119248	-0.251857	0.357866
N46	N	0.619248	0.248143	0.857866
C47	C	0.146515	-0.285248	0.310278
C48	C	0.646515	0.214752	0.810278
O49	O	0.118247	-0.313651	0.269812
O50	O	0.618247	0.186349	0.769812
C51	C	0.201119	-0.285246	0.310270
C52	C	0.701119	0.214754	0.810270
C53	C	0.228456	-0.251855	0.357854
C54	C	0.728456	0.248145	0.857854
C55	C	0.228529	-0.185077	0.453015
C56	C	0.728529	0.314923	0.953015
C57	C	0.283129	-0.185078	0.453011
C58	C	0.783129	0.314922	0.953011
C59	C	0.310393	-0.218468	0.405429
C60	C	0.810393	0.281532	0.905429
C61	C	0.283056	-0.251856	0.357850
C62	C	0.783056	0.248144	0.857850
C63	C	0.228385	-0.318634	0.262679
C64	C	0.728385	0.181366	0.762679
C65	C	0.282992	-0.318628	0.262675
C66	C	0.782992	0.181372	0.762675
C67	C	0.310329	-0.285237	0.310259
C68	C	0.810329	0.214763	0.810259
C69	C	0.364920	-0.285247	0.310263
C70	C	0.864920	0.214753	0.810263
N71	N	0.392260	-0.251855	0.357838
N72	N	0.892260	0.248145	0.857838
C73	C	0.364996	-0.218465	0.405421
C74	C	0.864996	0.281535	0.905421
C75	C	0.031845	-0.285251	0.310297
C76	C	0.531845	0.214749	0.810297
C77	C	-0.022758	-0.285256	0.310308
C78	C	0.477242	0.214744	0.810308
C79	C	-0.022682	-0.218472	0.405470
C80	C	0.477318	0.281528	0.905470
C81	C	0.031922	-0.218469	0.405462
C82	C	0.531922	0.281531	0.905462
C83	C	0.059184	-0.251858	0.357872
C84	C	0.559184	0.248142	0.857872
C85	C	0.479661	-0.218471	0.405410
C86	C	0.979661	0.281529	0.905410
C87	C	0.534267	-0.218476	0.405404
C88	C	1.034267	0.281524	0.905404
C89	C	0.534186	-0.285259	0.310240
C90	C	1.034186	0.214741	0.810240
C91	C	0.479585	-0.285255	0.310248
C92	C	0.979585	0.214745	0.810248
C93	C	0.452324	-0.251857	0.357835
C94	C	0.952324	0.248143	0.857835
O95	O	0.393171	-0.313640	0.269835
O96	O	0.893171	0.186360	0.769835
O97	O	0.393271	-0.190063	0.445873
O98	O	0.893271	0.309937	0.945873
C99	C	0.755399	-0.387701	0.357812
C100	C	1.255399	0.112299	0.857812
C101	C	0.755409	-0.445815	0.357822
C102	C	1.255409	0.054185	0.857822
C103	C	0.789010	-0.806172	0.310435
C104	C	1.289010	-0.306172	0.810435
C105	C	0.789030	-0.860777	0.310445
C106	C	1.289030	-0.360777	0.810445
O107	O	0.817507	-0.889008	0.270117
O108	O	1.317507	-0.389008	0.770117
N109	N	0.755579	-0.888098	0.357895
N110	N	1.255579	-0.388098	0.857895
C111	C	0.722109	-0.860812	0.405343
C112	C	1.222109	-0.360812	0.905343
O113	O	0.693659	-0.889064	0.445705
O114	O	1.193659	-0.389064	0.945705
C115	C	0.722092	-0.806208	0.405337
C116	C	1.222092	-0.306208	0.905337
C117	C	0.755541	-0.778890	0.357878
C118	C	1.255541	-0.278890	0.857878
C119	C	0.822457	-0.778854	0.262981
C120	C	1.322457	-0.278854	0.762981
C121	C	0.822436	-0.724254	0.262970
C122	C	1.322436	-0.224254	0.762970
C123	C	0.788967	-0.696971	0.310413
C124	C	1.288967	-0.196971	0.810413
C125	C	0.755520	-0.724290	0.357867
C126	C	1.255520	-0.224290	0.857867
C127	C	0.688626	-0.778923	0.452788
C128	C	1.188626	-0.278923	0.952788
C129	C	0.688611	-0.724316	0.452778
C130	C	1.188611	-0.224316	0.952778
C131	C	0.722061	-0.696998	0.405319
C132	C	1.222061	-0.196998	0.905319
C133	C	0.722031	-0.642407	0.405300
C134	C	1.222031	-0.142407	0.905300
N135	N	0.755482	-0.615086	0.357850
N136	N	1.255482	-0.115086	0.857850
C137	C	0.788950	-0.642368	0.310407
C138	C	1.288950	-0.142368	0.810407
C139	C	0.722149	-0.975482	0.405355
C140	C	1.222149	-0.475482	0.905355
C141	C	0.722163	-1.030084	0.405358
C142	C	1.222163	-0.530084	0.905358
C143	C	0.789084	-1.030046	0.310461
C144	C	1.289084	-0.530046	0.810461
C145	C	0.789067	-0.975442	0.310454
C146	C	1.289067	-0.475442	0.810454
C147	C	0.755600	-0.948161	0.357905
C148	C	1.255600	-0.448161	0.857905
C149	C	0.788903	-0.527703	0.310387
C150	C	1.288903	-0.027703	0.810387
C151	C	0.788877	-0.473098	0.310379
C152	C	1.288877	0.026902	0.810379
C153	C	0.721958	-0.473141	0.405279
C154	C	1.221958	0.026859	0.905279
C155	C	0.721982	-0.527742	0.405285
C156	C	1.221982	-0.027742	0.905285
C157	C	0.755458	-0.555021	0.357837
C158	C	1.255458	-0.055021	0.857837
O159	O	0.693570	-0.614140	0.445609
O160	O	1.193570	-0.114140	0.945609
O161	O	0.817401	-0.614109	0.270059
O162	O	1.317401	-0.114109	0.770059
C163	C	0.891860	-0.251863	0.357876
C164	C	1.391860	0.248137	0.857876
C165	C	0.949974	-0.251864	0.357888
C166	C	1.449974	0.248136	0.857888
C167	C	0.755508	-0.251835	0.551551
C168	C	1.255508	0.248165	1.051551
C169	C	0.755516	-0.251826	0.634097
C170	C	1.255516	0.248174	1.134097
C171	C	0.755590	-0.115486	0.357896
C172	C	1.255590	0.384514	0.857896
C173	C	0.755633	-0.057372	0.357917
C174	C	1.255633	0.442628	0.857917
C175	C	0.755497	-0.251844	0.164893
C176	C	1.255497	0.248156	0.664893
C177	C	0.755589	-0.251707	0.082348
C178	C	1.255589	0.248293	0.582348
C179	C	0.720593	-0.286701	0.833527
C180	C	1.220593	0.213299	1.333527
C181	C	0.768292	-0.299479	0.882921
C182	C	1.268292	0.200521	1.382921
C183	C	0.755542	-0.251786	0.785228
C184	C	1.255542	0.248214	1.285228
C185	C	0.707869	-0.238993	0.882916
C186	C	1.207869	0.261007	1.382916
C187	C	0.755563	-0.251748	0.931213
C188	C	1.255563	0.248252	1.431213
C189	C	0.803266	-0.264589	0.833534
C190	C	1.303266	0.235411	1.333534
C191	C	0.742811	-0.204081	0.833524
C192	C	1.242811	0.295919	1.333524
C193	C	0.790543	-0.216841	0.882896
C194	C	1.290543	0.283159	1.382896
C195	C	0.755529	-0.251809	0.701129
C196	C	1.255529	0.248191	1.201129
C197	C	0.755581	-0.251725	1.015309
C198	C	1.255581	0.248275	1.515309
H199	H	0.305382	-0.157887	0.491757
H200	H	0.805382	0.342113	0.991757
H201	H	0.694920	-1.052322	0.443997
H202	H	1.194920	-0.552322	0.943997
Cl203	Cl	0.680067	-0.941191	0.465007
Cl204	Cl	1.180067	-0.441191	0.965007
H205	H	0.661385	-0.801156	0.491431
H206	H	1.161385	-0.301156	0.991431
Cl207	Cl	0.726146	-0.141836	0.799996
Cl208	Cl	1.226146	0.358164	1.299996
Cl209	Cl	0.784936	-0.361740	0.916423
Cl210	Cl	1.284936	0.138260	1.416423
H211	H	0.457327	-0.312451	0.271510
H212	H	0.957327	0.187549	0.771510
Cl213	Cl	0.317262	-0.360607	0.202845
Cl214	Cl	0.817262	0.139393	0.702845
Cl215	Cl	0.645612	-0.222311	0.916407
Cl216	Cl	1.145612	0.277689	1.416407
H217	H	0.054176	-0.191278	0.444207
H218	H	0.554176	0.308722	0.944207
Cl219	Cl	0.830931	-0.438758	0.250712
Cl220	Cl	1.330931	0.061242	0.750712
H221	H	-0.044890	-0.191283	0.444213
H222	H	0.455110	0.308717	0.944213
Cl223	Cl	0.836239	-0.171230	0.916158
Cl224	Cl	1.336239	0.328770	1.416158
H225	H	-0.045011	-0.312452	0.271570
H226	H	0.454989	0.187548	0.771570
Cl227	Cl	0.831120	-0.941105	0.250791
Cl228	Cl	1.331120	-0.441105	0.750791
Cl229	Cl	0.865542	-0.281347	0.800189
Cl230	Cl	1.365542	0.218653	1.300189
H231	H	0.556522	-0.191285	0.444154
H232	H	1.056522	0.308715	0.944154
Cl233	Cl	0.066112	-0.327233	0.250468
Cl234	Cl	0.566112	0.172767	0.750468
Cl235	Cl	0.646536	-0.690023	0.512435
Cl236	Cl	1.146536	-0.190023	1.012435
Cl237	Cl	0.831158	-1.064354	0.250816
Cl238	Cl	1.331158	-0.564354	0.750816
Cl239	Cl	0.675005	-0.332344	0.800057
Cl240	Cl	1.175005	0.167656	1.300057
Cl241	Cl	0.679920	-0.562085	0.464932
Cl242	Cl	1.179920	-0.062085	0.964932
H243	H	0.206137	-0.345824	0.223931
H244	H	0.706137	0.154176	0.723931
Cl245	Cl	0.679889	-0.438833	0.464922
Cl246	Cl	1.179889	0.061167	0.964922
H247	H	0.457472	-0.191273	0.444158
H248	H	0.957472	0.308727	0.944158
Cl249	Cl	0.864497	-0.689919	0.203316
Cl250	Cl	1.364497	-0.189919	0.703316
Cl251	Cl	0.194264	-0.143096	0.512842
Cl252	Cl	0.694264	0.356904	1.012842
Cl253	Cl	0.568471	-0.327232	0.250425
Cl254	Cl	1.068471	0.172768	0.750425
H255	H	0.849713	-0.801062	0.224347
H256	H	1.349713	-0.301062	0.724347
Cl257	Cl	0.830988	-0.561989	0.250736
Cl258	Cl	1.330988	-0.061989	0.750736
