data_functionalizedCrystal
_audit_creation_method	'MofGen! by Chris Wilmer'
_symmetry_space_group_name_H-M	'P1'
_symmetry_Int_Tables_number	1
_symmetry_cell_setting	triclinic
loop_
_symmetry_equiv_pos_as_xyz
  x,y,z
_cell_length_a	16.625546
_cell_length_b	12.759395
_cell_length_c	12.759387
_cell_angle_alpha	90.017394
_cell_angle_beta	89.964695
_cell_angle_gamma	89.980055
loop_
_atom_site_label
_atom_site_type_symbol
_atom_site_fract_x
_atom_site_fract_y
_atom_site_fract_z
Zn1	Zn	-0.321015	-1.606178	-0.593975
Zn2	Zn	0.178985	-1.106178	-0.093975
Zn3	Zn	-0.455870	-1.606055	-0.418281
Zn4	Zn	0.044130	-1.106055	0.081719
Zn5	Zn	-0.321049	-1.430486	-0.418311
Zn6	Zn	0.178951	-0.930486	0.081689
Zn7	Zn	-0.455804	-1.430445	-0.593919
Zn8	Zn	0.044196	-0.930445	-0.093919
O9	O	-0.388435	-1.518291	-0.506122
O10	O	0.111565	-1.018291	-0.006122
O11	O	-0.338918	-1.753183	-0.570679
O12	O	0.161082	-1.253183	-0.070679
O13	O	-0.438028	-1.582731	-0.271264
O14	O	0.061972	-1.082731	0.228736
O15	O	-0.208212	-1.453861	-0.441649
O16	O	0.291788	-0.953861	0.058351
O17	O	-0.437995	-1.753092	-0.441597
O18	O	0.062005	-1.253092	0.058403
O19	O	-0.208188	-1.582941	-0.570709
O20	O	0.291812	-1.082941	-0.070709
O21	O	-0.338975	-1.453742	-0.271286
O22	O	0.161025	-0.953742	0.228714
O23	O	-0.338911	-1.283460	-0.441596
O24	O	0.161089	-0.783460	0.058404
O25	O	-0.437882	-1.453790	-0.740948
O26	O	0.062118	-0.953790	-0.240948
O27	O	-0.437915	-1.283429	-0.570614
O28	O	0.062085	-0.783429	-0.070614
O29	O	-0.338854	-1.582901	-0.740989
O30	O	0.161146	-1.082901	-0.240989
O31	O	-0.568694	-1.582691	-0.441544
O32	O	-0.068694	-1.082691	0.058456
O33	O	-0.568645	-1.453671	-0.570584
O34	O	-0.068645	-0.953671	-0.070584
C35	C	-0.388410	-1.245323	-0.506103
C36	C	0.111590	-0.745323	-0.006103
C37	C	-0.388419	-1.128547	-0.506120
C38	C	0.111581	-0.628547	-0.006120
C39	C	-0.285417	-1.128622	-0.640750
C40	C	0.214583	-0.628622	-0.140750
C41	C	-0.233923	-1.073798	-0.708072
C42	C	0.266077	-0.573798	-0.208072
C43	C	-0.233934	-0.964077	-0.708082
C44	C	0.266066	-0.464077	-0.208082
C45	C	-0.285442	-0.909176	-0.640761
C46	C	0.214558	-0.409176	-0.140761
C47	C	-0.336935	-0.963999	-0.573439
C48	C	0.163065	-0.463999	-0.073439
C49	C	-0.336920	-1.073723	-0.573438
C50	C	0.163080	-0.573723	-0.073438
C51	C	-0.439932	-0.963924	-0.438806
C52	C	0.060068	-0.463924	0.061194
C53	C	-0.439927	-1.073646	-0.438799
C54	C	0.060073	-0.573646	0.061201
C55	C	-0.491440	-0.909024	-0.371485
C56	C	0.008560	-0.409024	0.128515
C57	C	-0.542938	-0.963847	-0.304166
C58	C	-0.042938	-0.463847	0.195834
C59	C	-0.542926	-1.073575	-0.304159
C60	C	-0.042926	-0.573575	0.195841
C61	C	-0.491420	-1.128469	-0.371476
C62	C	0.008580	-0.628469	0.128524
C63	C	-0.597926	-1.518191	-0.506078
C64	C	-0.097926	-1.018191	-0.006078
C65	C	-0.687547	-1.518245	-0.506094
C66	C	-0.187547	-1.018245	-0.006094
C67	C	-1.015722	-1.518428	-0.506203
C68	C	-0.515722	-1.018428	-0.006203
C69	C	-0.924414	-1.518374	-0.506176
C70	C	-0.424414	-1.018374	-0.006176
C71	C	-0.851637	-1.518336	-0.506148
C72	C	-0.351637	-1.018336	-0.006148
C73	C	-0.760323	-1.518283	-0.506122
C74	C	-0.260323	-1.018283	-0.006122
C75	C	-0.178126	-1.518419	-0.506189
C76	C	0.321874	-1.018419	-0.006189
C77	C	-0.088505	-1.518474	-0.506217
C78	C	0.411495	-1.018474	-0.006217
C79	C	-0.388357	-1.518355	-0.780155
C80	C	0.111643	-1.018355	-0.280155
C81	C	-0.388323	-1.518382	-0.896932
C82	C	0.111677	-1.018382	-0.396932
C83	C	-0.388452	-0.792324	-0.506136
C84	C	0.111548	-0.292324	-0.006136
C85	C	-0.388439	-0.909101	-0.506128
C86	C	0.111561	-0.409101	-0.006128
C87	C	-0.491411	-1.652772	-1.116334
C88	C	0.008589	-1.152772	-0.616334
C89	C	-0.542998	-1.719911	-1.061451
C90	C	-0.042998	-1.219911	-0.561451
C91	C	-0.543029	-1.719876	-0.951729
C92	C	-0.043029	-1.219876	-0.451729
C93	C	-0.491468	-1.652693	-0.896888
C94	C	0.008532	-1.152693	-0.396888
C95	C	-0.439880	-1.585555	-0.951771
C96	C	0.060120	-1.085555	-0.451771
C97	C	-0.439854	-1.585599	-1.061495
C98	C	0.060146	-1.085599	-0.561495
C99	C	-0.336735	-1.451243	-0.951815
C100	C	0.163265	-0.951243	-0.451815
C101	C	-0.336699	-1.451282	-1.061537
C102	C	0.163301	-0.951282	-0.561537
C103	C	-0.285174	-1.384061	-0.896974
C104	C	0.214826	-0.884061	-0.396974
C105	C	-0.233581	-1.316926	-0.951856
C106	C	0.266419	-0.816926	-0.451856
C107	C	-0.233552	-1.316964	-1.061585
C108	C	0.266448	-0.816964	-0.561585
C109	C	-0.285112	-1.384143	-1.116419
C110	C	0.214888	-0.884143	-0.616419
C111	C	-0.388454	-1.518288	-0.233154
C112	C	0.111546	-1.018288	0.266846
C113	C	-0.388260	-1.518464	-0.116378
C114	C	0.111740	-1.018464	0.383622
H115	H	-0.584855	-1.118206	-0.249333
H116	H	-0.084855	-0.618206	0.250667
H117	H	-0.491443	-0.819682	-0.371495
H118	H	0.008557	-0.319682	0.128505
O119	O	-0.491506	-1.652657	-0.778545
O120	O	0.008494	-1.152657	-0.278545
H121	H	-0.507805	-1.573394	-0.749613
H122	H	-0.007805	-1.073394	-0.249613
O123	O	-0.177899	-1.244554	-1.120768
O124	O	0.322101	-0.744554	-0.620768
H125	H	-0.136870	-1.291629	-1.170765
H126	H	0.363130	-0.791629	-0.670765
H127	H	-0.491383	-1.652817	-1.205675
H128	H	0.008617	-1.152817	-0.705675
H129	H	-0.585032	-1.774552	-0.907044
H130	H	-0.085032	-1.274552	-0.407044
H131	H	-0.285399	-1.217963	-0.640743
H132	H	0.214601	-0.717963	-0.140743
O133	O	-0.285082	-1.384192	-1.234762
O134	O	0.214918	-0.884192	-0.734762
H135	H	-0.240545	-1.326227	-1.263717
H136	H	0.259455	-0.826227	-0.763717
H137	H	-0.584981	-1.774606	-1.106115
H138	H	-0.084981	-1.274606	-0.606115
O139	O	-0.491396	-1.246812	-0.371472
O140	O	0.008604	-0.746812	0.128528
H141	H	-0.552225	-1.275746	-0.392559
H142	H	-0.052225	-0.775746	0.107441
O143	O	-0.285198	-1.384023	-0.778631
O144	O	0.214802	-0.884023	-0.278631
H145	H	-0.329723	-1.442004	-0.749678
H146	H	0.170277	-0.942004	-0.249678
H147	H	-0.191608	-1.262227	-0.907196
H148	H	0.308392	-0.762227	-0.407196
H149	H	-0.191985	-1.118511	-0.762881
H150	H	0.308015	-0.618511	-0.262881
H151	H	-0.285440	-0.819835	-0.640768
H152	H	0.214560	-0.319835	-0.140768
O153	O	-0.178395	-0.904933	-0.780686
O154	O	0.321605	-0.404933	-0.280686
H155	H	-0.192304	-0.926006	-0.863110
H156	H	0.307696	-0.426006	-0.363110
O157	O	-0.598486	-0.904638	-0.231558
O158	O	-0.098486	-0.404638	0.268442
H159	H	-0.589842	-0.819132	-0.242874
H160	H	-0.089842	-0.319132	0.257126
