data_functionalizedCrystal
_audit_creation_method	'MofGen! by Chris Wilmer'
_symmetry_space_group_name_H-M	'P1'
_symmetry_Int_Tables_number	1
_symmetry_cell_setting	triclinic
loop_
_symmetry_equiv_pos_as_xyz
  x,y,z
_cell_length_a	25.639242
_cell_length_b	25.639240
_cell_length_c	19.805399
_cell_angle_alpha	90.035908
_cell_angle_beta	90.027395
_cell_angle_gamma	90.028283
loop_
_atom_site_label
_atom_site_type_symbol
_atom_site_fract_x
_atom_site_fract_y
_atom_site_fract_z
Zn1	Zn	0.799274	-0.208225	0.382822
Zn2	Zn	1.299274	0.291775	0.882822
Zn3	Zn	0.799198	-0.295659	0.269617
Zn4	Zn	1.299198	0.204341	0.769617
Zn5	Zn	0.711842	-0.208233	0.269631
Zn6	Zn	1.211842	0.291767	0.769631
Zn7	Zn	0.711804	-0.295625	0.382748
Zn8	Zn	1.211804	0.204375	0.882748
O9	O	0.755529	-0.251936	0.326204
O10	O	1.255529	0.248064	0.826204
O11	O	0.872429	-0.219835	0.367830
O12	O	1.372429	0.280165	0.867830
O13	O	0.787594	-0.284080	0.174902
O14	O	1.287594	0.215920	0.674902
O15	O	0.723487	-0.135067	0.284682
O16	O	1.223487	0.364933	0.784682
O17	O	0.872373	-0.284072	0.284659
O18	O	1.372373	0.215928	0.784659
O19	O	0.787723	-0.135061	0.367843
O20	O	1.287723	0.364939	0.867843
O21	O	0.723414	-0.219848	0.174912
O22	O	1.223414	0.280152	0.674912
O23	O	0.638672	-0.219814	0.284611
O24	O	1.138672	0.280186	0.784611
O25	O	0.723423	-0.284013	0.477475
O26	O	1.223423	0.215987	0.977475
O27	O	0.638644	-0.284021	0.367718
O28	O	1.138644	0.215979	0.867718
O29	O	0.787686	-0.219801	0.477529
O30	O	1.287686	0.280199	0.977529
O31	O	0.787558	-0.368820	0.284588
O32	O	1.287558	0.131180	0.784588
O33	O	0.723350	-0.368794	0.367705
O34	O	1.223350	0.131206	0.867705
C35	C	0.619687	-0.251915	0.326159
C36	C	1.119687	0.248085	0.826159
C37	C	0.561573	-0.251919	0.326155
C38	C	1.061573	0.248081	0.826155
C39	C	0.201204	-0.285424	0.369437
C40	C	0.701204	0.214576	0.869437
C41	C	0.146600	-0.285427	0.369448
C42	C	0.646600	0.214573	0.869448
O43	O	0.118358	-0.313888	0.406209
O44	O	0.618358	0.186112	0.906209
N45	N	0.119290	-0.251950	0.326249
N46	N	0.619290	0.248050	0.826249
C47	C	0.146588	-0.218464	0.283041
C48	C	0.646588	0.281536	0.783041
O49	O	0.118345	-0.189989	0.246298
O50	O	0.618345	0.310011	0.746298
C51	C	0.201191	-0.218458	0.283034
C52	C	0.701191	0.281542	0.783034
C53	C	0.228498	-0.251941	0.326231
C54	C	0.728498	0.248059	0.826231
C55	C	0.228511	-0.318903	0.412631
C56	C	0.728511	0.181097	0.912631
C57	C	0.283111	-0.318901	0.412620
C58	C	0.783111	0.181099	0.912620
C59	C	0.310405	-0.285418	0.369414
C60	C	0.810405	0.214582	0.869414
C61	C	0.283099	-0.251939	0.326219
C62	C	0.783099	0.248061	0.826219
C63	C	0.228488	-0.184970	0.239830
C64	C	0.728488	0.315030	0.739830
C65	C	0.283095	-0.184967	0.239827
C66	C	0.783095	0.315033	0.739827
C67	C	0.310402	-0.218450	0.283025
C68	C	0.810402	0.281550	0.783025
C69	C	0.364993	-0.218454	0.283002
C70	C	0.864993	0.281546	0.783002
N71	N	0.392302	-0.251931	0.326201
N72	N	0.892302	0.248069	0.826201
C73	C	0.365009	-0.285413	0.369407
C74	C	0.865009	0.214587	0.869407
C75	C	0.031917	-0.218477	0.283059
C76	C	0.531917	0.281523	0.783059
C77	C	-0.022685	-0.218485	0.283062
C78	C	0.477315	0.281515	0.783062
C79	C	-0.022669	-0.285447	0.369470
C80	C	0.477331	0.214553	0.869470
C81	C	0.031934	-0.285442	0.369463
C82	C	0.531934	0.214558	0.869463
C83	C	0.059227	-0.251954	0.326258
C84	C	0.559227	0.248046	0.826258
C85	C	0.479674	-0.285405	0.369379
C86	C	0.979674	0.214595	0.869379
C87	C	0.534279	-0.285401	0.369361
C88	C	1.034279	0.214599	0.869361
C89	C	0.534259	-0.218437	0.282956
C90	C	1.034259	0.281563	0.782956
C91	C	0.479658	-0.218443	0.282970
C92	C	0.979658	0.281557	0.782970
C93	C	0.452367	-0.251929	0.326187
C94	C	0.952367	0.248071	0.826187
O95	O	0.393269	-0.190005	0.246261
O96	O	0.893269	0.309995	0.746261
O97	O	0.393258	-0.313878	0.406150
O98	O	0.893258	0.186122	0.906150
C99	C	0.755456	-0.387778	0.326151
C100	C	1.255456	0.112222	0.826151
C101	C	0.755472	-0.445892	0.326151
C102	C	1.255472	0.054108	0.826151
C103	C	0.788994	-0.806214	0.369584
C104	C	1.288994	-0.306214	0.869584
C105	C	0.789009	-0.860818	0.369598
C106	C	1.289009	-0.360818	0.869598
O107	O	0.817423	-0.889020	0.406472
O108	O	1.317423	-0.389020	0.906472
N109	N	0.755602	-0.888175	0.326270
N110	N	1.255602	-0.388175	0.826270
C111	C	0.722174	-0.860924	0.282930
C112	C	1.222174	-0.360924	0.782930
O113	O	0.693759	-0.889207	0.246077
O114	O	1.193759	-0.389207	0.746077
C115	C	0.722156	-0.806321	0.282920
C116	C	1.222156	-0.306321	0.782920
C117	C	0.755569	-0.778967	0.326246
C118	C	1.255569	-0.278967	0.826246
C119	C	0.822403	-0.778860	0.412908
C120	C	1.322403	-0.278860	0.912908
C121	C	0.822388	-0.724260	0.412893
C122	C	1.322388	-0.224260	0.912893
C123	C	0.788964	-0.697013	0.369555
C124	C	1.288964	-0.197013	0.869555
C125	C	0.755554	-0.724366	0.326231
C126	C	1.255554	-0.224366	0.826231
C127	C	0.688725	-0.779071	0.239584
C128	C	1.188725	-0.279071	0.739584
C129	C	0.688710	-0.724464	0.239578
C130	C	1.188710	-0.224464	0.739578
C131	C	0.722123	-0.697110	0.282904
C132	C	1.222123	-0.197110	0.782904
C133	C	0.722115	-0.642519	0.282879
C134	C	1.222115	-0.142519	0.782879
N135	N	0.755522	-0.615163	0.326207
N136	N	1.255522	-0.115163	0.826207
C137	C	0.788946	-0.642409	0.369545
C138	C	1.288946	-0.142409	0.869545
C139	C	0.722213	-0.975594	0.282955
C140	C	1.222213	-0.475594	0.782955
C141	C	0.722233	-1.030197	0.282961
C142	C	1.222233	-0.530197	0.782961
C143	C	0.789067	-1.030087	0.369630
C144	C	1.289067	-0.530087	0.869630
C145	C	0.789050	-0.975484	0.369620
C146	C	1.289050	-0.475484	0.869620
C147	C	0.755620	-0.948238	0.326283
C148	C	1.255620	-0.448238	0.826283
C149	C	0.788913	-0.527744	0.369510
C150	C	1.288913	-0.027744	0.869510
C151	C	0.788896	-0.473139	0.369489
C152	C	1.288896	0.026861	0.869489
C153	C	0.722060	-0.473253	0.282823
C154	C	1.222060	0.026747	0.782823
C155	C	0.722078	-0.527854	0.282841
C156	C	1.222078	-0.027854	0.782841
C157	C	0.755506	-0.555098	0.326190
C158	C	1.255506	-0.055098	0.826190
O159	O	0.693714	-0.614283	0.246025
O160	O	1.193714	-0.114283	0.746025
O161	O	0.817351	-0.614120	0.406397
O162	O	1.317351	-0.114120	0.906397
C163	C	0.891902	-0.251957	0.326251
C164	C	1.391902	0.248043	0.826251
C165	C	0.950016	-0.251966	0.326271
C166	C	1.450016	0.248034	0.826271
C167	C	0.755559	-0.251903	0.502747
C168	C	1.255559	0.248097	1.002747
C169	C	0.755571	-0.251889	0.577979
C170	C	1.255571	0.248111	1.077979
C171	C	0.755618	-0.115562	0.326272
C172	C	1.255618	0.384438	0.826272
C173	C	0.755656	-0.057448	0.326302
C174	C	1.255656	0.442552	0.826302
C175	C	0.755530	-0.251931	0.150348
C176	C	1.255530	0.248069	0.650348
C177	C	0.755619	-0.251797	0.075117
C178	C	1.255619	0.248203	0.575117
C179	C	0.789034	-0.218452	0.613353
C180	C	1.289034	0.281548	1.113353
C181	C	0.789039	-0.218437	0.684041
C182	C	1.289039	0.281563	1.184041
C183	C	0.755584	-0.251861	0.719355
C184	C	1.255584	0.248139	1.219355
C185	C	0.722118	-0.285300	0.683977
C186	C	1.222118	0.214700	1.183977
C187	C	0.722110	-0.285312	0.613289
C188	C	1.222110	0.214688	1.113289
C189	C	0.722147	-0.285251	0.969050
C190	C	1.222147	0.214749	1.469050
C191	C	0.722159	-0.285237	1.039742
C192	C	1.222159	0.214763	1.539742
C193	C	0.789077	-0.218376	1.039802
C194	C	1.289077	0.281624	1.539802
C195	C	0.789069	-0.218388	0.969115
C196	C	1.289069	0.281612	1.469115
C197	C	0.755601	-0.251824	0.933742
C198	C	1.255601	0.248176	1.433742
C199	C	0.755595	-0.251839	0.857094
C200	C	1.255595	0.248161	1.357094
C201	C	0.755593	-0.251849	0.796002
C202	C	1.255593	0.248151	1.296002
H203	H	0.457460	-0.312671	0.404571
H204	H	0.957460	0.187329	0.904571
F205	F	0.824678	-0.182815	0.931535
F206	F	1.324678	0.317185	1.431535
H207	H	0.816326	-0.191148	1.068610
H208	H	1.316326	0.308852	1.568610
H209	H	0.816289	-0.191210	0.712839
H210	H	1.316289	0.308790	1.212839
H211	H	0.694913	-0.312457	1.068493
H212	H	1.194913	0.187543	1.568493
F213	F	0.653161	-0.808171	0.193471
F214	F	1.153161	-0.308171	0.693471
H215	H	-0.044902	-0.312709	0.404653
H216	H	0.455098	0.187291	0.904653
H217	H	0.694903	-0.312484	0.940259
H218	H	1.194903	0.187516	1.440259
F219	F	0.686510	-0.320871	0.721562
F220	F	1.186510	0.179129	1.221562
F221	F	0.686493	-0.320898	0.575643
F222	F	1.186493	0.179102	1.075643
H223	H	0.816130	-0.549920	0.404814
H224	H	1.316130	-0.049920	0.904814
H225	H	0.694875	-0.550126	0.247556
H226	H	1.194875	-0.050126	0.747556
F227	F	0.563338	-0.321041	0.415338
F228	F	1.063338	0.178959	0.915338
F229	F	0.824611	-0.946377	0.415734
F230	F	1.324611	-0.446377	0.915734
H231	H	0.661486	-0.702283	0.204289
H232	H	1.161486	-0.202283	0.704289
H233	H	0.694847	-0.451060	0.247535
H234	H	1.194847	0.048940	0.747535
H235	H	-0.044913	-0.191225	0.247879
H236	H	0.455087	0.308775	0.747879
H237	H	0.206294	-0.346169	0.447819
H238	H	0.706294	0.153831	0.947819
F239	F	0.563316	-0.182805	0.236975
F240	F	1.063316	0.317195	0.736975
F241	F	0.060991	-0.321078	0.415440
F242	F	0.560991	0.178922	0.915440
F243	F	0.312166	-0.354536	0.458599
F244	F	0.812166	0.145464	0.958599
H245	H	0.206264	-0.157706	0.204652
H246	H	0.706264	0.342294	0.704652
F247	F	0.060960	-0.182836	0.237067
F248	F	0.560960	0.317164	0.737067
H249	H	0.305314	-0.157694	0.204648
H250	H	0.805314	0.342306	0.704648
F251	F	0.450595	-0.182814	0.236985
F252	F	0.950595	0.317186	0.736985
H253	H	0.849595	-0.701991	0.448175
H254	H	1.349595	-0.201991	0.948175
F255	F	0.824462	-0.444030	0.415604
F256	F	1.324462	0.055970	0.915604
F257	F	0.857980	-0.807850	0.459041
F258	F	1.357980	-0.307850	0.959041
H259	H	0.695030	-1.052464	0.247673
H260	H	1.195030	-0.552464	0.747673
F261	F	0.824641	-1.059095	0.415755
F262	F	1.324641	-0.559095	0.915755
F263	F	0.686632	-0.946602	0.236822
F264	F	1.186632	-0.446602	0.736822
H265	H	0.816279	-0.191235	0.584605
H266	H	1.316279	0.308765	1.084605
