data_functionalizedCrystal
_audit_creation_method	'MofGen! by Chris Wilmer'
_symmetry_space_group_name_H-M	'P1'
_symmetry_Int_Tables_number	1
_symmetry_cell_setting	triclinic
loop_
_symmetry_equiv_pos_as_xyz
  x,y,z
_cell_length_a	12.759401
_cell_length_b	12.645330
_cell_length_c	12.759393
_cell_angle_alpha	89.968933
_cell_angle_beta	89.980739
_cell_angle_gamma	90.012318
loop_
_atom_site_label
_atom_site_type_symbol
_atom_site_fract_x
_atom_site_fract_y
_atom_site_fract_z
Zn1	Zn	1.606268	-0.421998	-0.594004
Zn2	Zn	1.606170	-0.599298	-0.418322
Zn3	Zn	1.430571	-0.422048	-0.418340
Zn4	Zn	1.430565	-0.599219	-0.593961
O5	O	1.518393	-0.510641	-0.506157
O6	O	1.753276	-0.445529	-0.570710
O7	O	1.582837	-0.575840	-0.271304
O8	O	1.453921	-0.273694	-0.441668
O9	O	1.753204	-0.575791	-0.441637
O10	O	1.583005	-0.273657	-0.570728
O11	O	1.453825	-0.445615	-0.271317
O12	O	1.283549	-0.445538	-0.441626
O13	O	1.453912	-0.575655	-0.740988
O14	O	1.283545	-0.575704	-0.570654
O15	O	1.583000	-0.445452	-0.741019
O16	O	1.582832	-0.747635	-0.441595
O17	O	1.453816	-0.747576	-0.570636
C18	C	1.245426	-0.510619	-0.506138
C19	C	1.128649	-0.510635	-0.506155
C20	C	0.964026	-0.578380	-0.438875
C21	C	1.073750	-0.578359	-0.438857
C22	C	1.073819	-0.442920	-0.573468
C23	C	0.964097	-0.442937	-0.573479
C24	C	0.909133	-0.646116	-0.371580
C25	C	0.963956	-0.713830	-0.304266
C26	C	1.073680	-0.713809	-0.304248
C27	C	1.128581	-0.646074	-0.371544
C28	C	1.518341	-0.786070	-0.506132
C29	C	1.518414	-0.903900	-0.506156
C30	C	1.599448	-1.071457	-0.424812
C31	C	1.599712	-0.948897	-0.425011
C32	C	1.548442	-0.948275	-0.616901
C33	C	1.549085	-1.070873	-0.616469
C34	C	1.407322	-1.071229	-0.477848
C35	C	1.407854	-0.948625	-0.475364
C36	C	1.792427	-0.510663	-0.506176
C37	C	1.909203	-0.510673	-0.506185
C38	C	1.518466	-0.510539	-0.780190
C39	C	1.518497	-0.510496	-0.896967
C40	C	1.518475	-0.234135	-0.506205
C41	C	1.518510	-0.116305	-0.506225
C42	C	1.585677	-0.578278	-0.951819
C43	C	1.585708	-0.578233	-1.061544
C44	C	1.451372	-0.442620	-1.061553
C45	C	1.451346	-0.442661	-0.951831
C46	C	1.652827	-0.646113	-0.896955
C47	C	1.720012	-0.713902	-0.951808
C48	C	1.720043	-0.713856	-1.061532
C49	C	1.652891	-0.646023	-1.116404
C50	C	1.518382	-0.510665	-0.233189
C51	C	1.518554	-0.510410	-0.116413
H52	H	1.580925	-0.918900	-0.342896
H53	H	0.819790	-0.646143	-0.371589
H54	H	1.118528	-0.387775	-0.628258
N55	N	1.478334	-1.108099	-0.695146
N56	N	1.383407	-1.084101	-0.690713
H57	H	1.333443	-1.110390	-0.746279
N58	N	1.373054	-1.110105	-0.378299
N59	N	1.285997	-1.082658	-0.342546
H60	H	1.261804	-1.110113	-0.272236
H61	H	1.682065	-0.919488	-0.443781
H62	H	0.919459	-0.387799	-0.628284
H63	H	1.580896	-1.101016	-0.342456
H64	H	1.630357	-1.099384	-0.640507
N65	N	1.382791	-0.373325	-1.117599
N66	N	1.419793	-0.305753	-1.178839
H67	H	1.371356	-0.256812	-1.218421
H68	H	1.774755	-0.769046	-1.106190
H69	H	1.396646	-0.387463	-0.907169
H70	H	1.491285	-0.919124	-0.679185
N71	N	0.907866	-0.782997	-0.235523
N72	N	0.809901	-0.783006	-0.235543
H73	H	0.770286	-0.831854	-0.186990
H74	H	1.774691	-0.769123	-0.907124
N75	N	1.653084	-0.645838	-1.228484
N76	N	1.713171	-0.706265	-1.277450
H77	H	1.713360	-0.706085	-1.356607
H78	H	1.628797	-0.917485	-0.641340
N79	N	1.129682	-0.782983	-0.235504
N80	N	1.190920	-0.850569	-0.272349
H81	H	1.230471	-0.899430	-0.223800
H82	H	1.652806	-0.646160	-0.807613
H83	H	1.681359	-1.102187	-0.443371
N84	N	1.379463	-0.912258	-0.373121
N85	N	1.440370	-0.853616	-0.323060
H86	H	1.420323	-0.827928	-0.250849
H87	H	1.217926	-0.646054	-0.371517
H88	H	1.344296	-0.918006	-0.530314
N89	N	1.331677	-1.107618	-0.552239
N90	N	1.359390	-1.166491	-0.625865
H91	H	1.305974	-1.192196	-0.678408
