data_functionalizedCrystal
_audit_creation_method	'MofGen! by Chris Wilmer'
_symmetry_space_group_name_H-M	'P1'
_symmetry_Int_Tables_number	1
_symmetry_cell_setting	triclinic
loop_
_symmetry_equiv_pos_as_xyz
  x,y,z
_cell_length_a	19.805407
_cell_length_b	19.121111
_cell_length_c	19.805399
_cell_angle_alpha	87.586854
_cell_angle_beta	89.982197
_cell_angle_gamma	87.532387
loop_
_atom_site_label
_atom_site_type_symbol
_atom_site_fract_x
_atom_site_fract_y
_atom_site_fract_z
Zn1	Zn	1.023225	0.279680	-0.394183
Zn2	Zn	1.523225	0.779680	0.105817
Zn3	Zn	1.018306	0.397133	-0.285822
Zn4	Zn	1.518306	0.897133	0.214178
Zn5	Zn	0.910039	0.279694	-0.281012
Zn6	Zn	1.410039	0.779694	0.218988
Zn7	Zn	0.905171	0.397090	-0.398971
Zn8	Zn	1.405171	0.897090	0.101029
O9	O	0.964186	0.338399	-0.339997
O10	O	1.464186	0.838399	0.160003
O11	O	1.117289	0.295273	-0.379818
O12	O	1.617289	0.795273	0.120182
O13	O	1.003923	0.381578	-0.190468
O14	O	1.503923	0.881578	0.309532
O15	O	0.929150	0.181408	-0.292007
O16	O	1.429150	0.681408	0.207993
O17	O	1.113675	0.381564	-0.300206
O18	O	1.613675	0.881564	0.199794
O19	O	1.012307	0.181398	-0.375154
O20	O	1.512307	0.681398	0.124846
O21	O	0.924380	0.295296	-0.186934
O22	O	1.424380	0.795296	0.313066
O23	O	0.814678	0.295255	-0.296649
O24	O	1.314678	0.795255	0.203351
O25	O	0.920853	0.381491	-0.493051
O26	O	1.420853	0.881491	0.006949
O27	O	0.811101	0.381505	-0.383313
O28	O	1.311101	0.881505	0.116687
O29	O	1.007587	0.295231	-0.489534
O30	O	1.507587	0.795231	0.010466
O31	O	0.999203	0.495411	-0.304848
O32	O	1.499203	0.995411	0.195152
O33	O	0.916083	0.495380	-0.387978
O34	O	1.416083	0.995380	0.112022
C35	C	0.788331	0.338377	-0.339979
C36	C	1.288331	0.838377	0.160021
C37	C	0.713098	0.338385	-0.339989
C38	C	1.213098	0.838385	0.160011
C39	C	0.679633	0.293532	-0.381512
C40	C	1.179633	0.793532	0.118488
C41	C	0.608945	0.293536	-0.381515
C42	C	1.108945	0.793536	0.118485
C43	C	0.571722	0.338396	-0.339997
C44	C	1.071722	0.838396	0.160003
C45	C	0.605192	0.383251	-0.298469
C46	C	1.105192	0.883251	0.201531
C47	C	0.675880	0.383243	-0.298464
C48	C	1.175880	0.883243	0.201536
C49	C	0.320117	0.383282	-0.298492
C50	C	0.820117	0.883282	0.201508
C51	C	0.249425	0.383288	-0.298502
C52	C	0.749425	0.883288	0.201498
C53	C	0.253183	0.293575	-0.381543
C54	C	0.753183	0.793575	0.118457
C55	C	0.323870	0.293567	-0.381537
C56	C	0.823870	0.793567	0.118463
C57	C	0.357334	0.338419	-0.340007
C58	C	0.857334	0.838419	0.159993
C59	C	0.433983	0.338414	-0.340003
C60	C	0.933983	0.838414	0.159997
C61	C	0.495075	0.338406	-0.340004
C62	C	0.995075	0.838406	0.159996
C63	C	0.956599	0.520880	-0.347469
C64	C	1.456599	1.020880	0.152531
C65	C	0.953416	0.598946	-0.350689
C66	C	1.453416	1.098946	0.149311
C67	C	0.995230	0.635614	-0.308956
C68	C	1.495230	1.135614	0.191044
C69	C	0.992240	0.708966	-0.311988
C70	C	1.492240	1.208966	0.188012
C71	C	0.947432	0.745647	-0.356750
C72	C	1.447432	1.245647	0.143250
C73	C	0.905616	0.708973	-0.398487
C74	C	1.405616	1.208973	0.101513
C75	C	0.908610	0.635623	-0.395458
C76	C	1.408610	1.135623	0.104542
C77	C	0.936229	0.967116	-0.368062
C78	C	1.436229	1.467116	0.131938
C79	C	0.933237	1.040472	-0.371086
C80	C	1.433237	1.540472	0.128914
C81	C	1.019861	1.040459	-0.284588
C82	C	1.519861	1.540459	0.215412
C83	C	1.022849	0.967108	-0.281560
C84	C	1.522849	1.467108	0.218440
C85	C	0.981035	0.930440	-0.323300
C86	C	1.481035	1.430440	0.176700
C87	C	0.944373	0.820624	-0.359848
C88	C	1.444373	1.320624	0.140152
C89	C	0.984098	0.855465	-0.320204
C90	C	1.484098	1.355465	0.179796
C91	C	1.140727	0.338422	-0.340015
C92	C	1.640727	0.838422	0.159985
C93	C	1.215959	0.338431	-0.340022
C94	C	1.715959	0.838431	0.159978
C95	C	0.971814	1.155206	-0.332518
C96	C	1.471814	1.655206	0.167482
C97	C	0.975051	1.077140	-0.329354
C98	C	1.475051	1.577140	0.170646
C99	C	0.964225	0.338355	-0.516538
C100	C	1.464225	0.838355	-0.016538
C101	C	0.964242	0.338336	-0.591769
C102	C	1.464242	0.838336	-0.091769
C103	C	1.009406	0.293418	-0.625283
C104	C	1.509406	0.793418	-0.125283
C105	C	1.009413	0.293398	-0.695970
C106	C	1.509413	0.793398	-0.195970
C107	C	0.964261	0.338299	-0.733143
C108	C	1.464261	0.838299	-0.233143
C109	C	0.919093	0.383219	-0.699625
C110	C	1.419093	0.883219	-0.199625
C111	C	0.919082	0.383236	-0.628938
C112	C	1.419082	0.883236	-0.128938
C113	C	0.919133	0.383154	-0.984695
C114	C	1.419133	0.883154	-0.484695
C115	C	0.919149	0.383136	-1.055387
C116	C	1.419149	0.883136	-0.555387
C117	C	1.009465	0.293316	-1.051727
C118	C	1.509465	0.793316	-0.551727
C119	C	1.009454	0.293332	-0.981041
C120	C	1.509454	0.793332	-0.481041
C121	C	0.964284	0.338249	-0.947529
C122	C	1.464284	0.838249	-0.447529
C123	C	0.964275	0.338270	-0.870881
C124	C	1.464275	0.838270	-0.370881
C125	C	0.964272	0.338283	-0.809790
C126	C	1.464272	0.838283	-0.309790
C127	C	0.964187	0.338393	-0.164140
C128	C	1.464187	0.838393	0.335860
C129	C	0.964309	0.338214	-0.088902
C130	C	1.464309	0.838214	0.411098
H131	H	0.225928	0.257052	-0.415356
H132	H	0.725928	0.757052	0.084644
H133	H	0.882299	0.419805	-0.601652
H134	H	1.382299	0.919805	-0.101652
H135	H	1.046242	0.256740	-1.079022
H136	H	1.546242	0.756740	-0.579022
O137	O	0.863509	0.596074	-0.440472
O138	O	1.363509	1.096074	0.059528
H139	H	0.873123	0.538907	-0.430852
H140	H	1.373123	1.038907	0.069148
O141	O	1.043565	0.596049	-0.260685
O142	O	1.543565	1.096049	0.239315
H143	H	1.031422	0.610173	-0.208133
H144	H	1.531422	1.110173	0.291867
O145	O	1.058113	0.244990	-0.585195
O146	O	1.558113	0.744990	-0.085195
H147	H	1.050525	0.252552	-0.530411
H148	H	1.550525	0.752552	-0.030411
H149	H	0.354173	0.257040	-0.415347
H150	H	0.854173	0.757040	0.084653
O151	O	1.058129	0.244955	-0.732120
O152	O	1.558129	0.744955	-0.232120
H153	H	1.089531	0.213743	-0.694396
H154	H	1.589531	0.713743	-0.194396
H155	H	0.219120	0.419821	-0.264691
H156	H	0.719120	0.919821	0.235309
H157	H	1.046225	0.256771	-0.950778
H158	H	1.546225	0.756771	-0.450778
O159	O	0.870439	0.431559	-1.095485
O160	O	1.370439	0.931559	-0.595485
H161	H	0.839021	0.462789	-1.060306
H162	H	1.339021	0.962789	-0.560306
O163	O	0.870384	0.431561	-0.948551
O164	O	1.370384	0.931561	-0.448551
H165	H	0.838982	0.462771	-0.986277
H166	H	1.338982	0.962771	-0.486277
H167	H	0.907889	0.850498	-0.396292
H168	H	1.407889	1.350498	0.103708
H169	H	0.882326	0.419776	-0.729896
H170	H	1.382326	0.919776	-0.229896
H171	H	0.709935	0.257003	-0.415322
H172	H	1.209935	0.757003	0.084678
O173	O	0.857287	0.748530	-0.446770
O174	O	1.357287	1.248530	0.053230
H175	H	0.804747	0.734493	-0.434535
H176	H	1.304747	1.234493	0.065465
H177	H	1.026289	0.738818	-0.278004
H178	H	1.526289	1.238818	0.221996
O179	O	1.032428	0.815907	-0.271927
O180	O	1.532428	1.315907	0.228073
H181	H	1.084971	0.829933	-0.284167
H182	H	1.584971	1.329933	0.215833
O183	O	0.572847	0.245159	-0.426299
O184	O	1.072847	0.745159	0.073701
H185	H	0.610606	0.213970	-0.455173
H186	H	1.110606	0.713970	0.044827
O187	O	1.071183	0.927543	-0.233288
O188	O	1.571183	1.427543	0.266712
H189	H	1.099763	0.965365	-0.204782
H190	H	1.599763	1.465365	0.295218
H191	H	0.347355	0.419804	-0.264676
H192	H	0.847355	0.919804	0.235324
H193	H	0.896757	1.070335	-0.407549
H194	H	1.396757	1.570335	0.092451
O195	O	0.565050	0.431636	-0.253686
O196	O	1.065050	0.931636	0.246314
H197	H	0.510274	0.424112	-0.260669
H198	H	1.010274	0.924112	0.239331
H199	H	1.053904	1.070321	-0.250607
H200	H	1.553904	1.570321	0.249393
O201	O	0.711980	0.431617	-0.253676
O202	O	1.211980	0.931617	0.246324
H203	H	0.696139	0.486759	-0.267457
H204	H	1.196139	0.986759	0.232543
O205	O	0.891112	0.927571	-0.413058
O206	O	1.391112	1.427571	0.086942
H207	H	0.859441	0.965403	-0.444679
H208	H	1.359441	1.465403	0.055321
