data_functionalizedCrystal
_audit_creation_method	'MofGen! by Chris Wilmer'
_symmetry_space_group_name_H-M	'P1'
_symmetry_Int_Tables_number	1
_symmetry_cell_setting	triclinic
loop_
_symmetry_equiv_pos_as_xyz
  x,y,z
_cell_length_a	15.995350
_cell_length_b	15.995350
_cell_length_c	15.072220
_cell_angle_alpha	89.998899
_cell_angle_beta	89.991149
_cell_angle_gamma	96.507625
loop_
_atom_site_label
_atom_site_type_symbol
_atom_site_fract_x
_atom_site_fract_y
_atom_site_fract_z
O1	O	1.110996	-0.107921	-0.073703
O2	O	1.610996	0.392079	0.426297
O3	O	0.867221	-0.121249	-0.073721
O4	O	1.367221	0.378751	0.426279
O5	O	0.995772	0.007303	-0.073710
O6	O	1.495772	0.507303	0.426290
O7	O	0.982444	-0.236472	-0.073713
O8	O	1.482444	0.263528	0.426287
O9	O	0.995740	0.007296	0.073855
O10	O	1.495740	0.507296	0.573855
O11	O	0.867189	-0.121256	0.073844
O12	O	1.367189	0.378744	0.573844
O13	O	1.110964	-0.107928	0.073862
O14	O	1.610964	0.392072	0.573862
Zn15	Zn	0.989071	-0.114593	0.097283
Zn16	Zn	1.489071	0.385407	0.597283
Zn17	Zn	0.989113	-0.114584	-0.097141
Zn18	Zn	1.489113	0.385416	0.402859
O19	O	0.982413	-0.236480	0.073852
O20	O	1.482413	0.263520	0.573852
C21	C	0.836010	-0.120701	0.000060
C22	C	1.336010	0.379299	0.500060
C23	C	0.743060	-0.119049	0.000053
C24	C	1.243060	0.380951	0.500053
C25	C	0.405312	-0.113117	0.000071
C26	C	0.905312	0.386883	0.500071
C27	C	0.452746	-0.021565	0.000401
C28	C	0.952746	0.478435	0.500401
C29	C	0.549436	-0.023217	0.000063
C30	C	1.049436	0.476783	0.500063
C31	C	0.572873	-0.116060	0.000063
C32	C	1.072873	0.383940	0.500063
C33	C	0.531804	-0.161212	-0.084201
C34	C	1.031804	0.338788	0.415799
C35	C	0.435168	-0.158912	-0.084266
C36	C	0.935168	0.341088	0.415734
C37	C	0.434793	-0.160812	0.083543
C38	C	0.934793	0.339188	0.583543
C39	C	0.531738	-0.160790	0.084651
C40	C	1.031738	0.339210	0.584651
C41	C	0.667570	-0.117727	0.000055
C42	C	1.167570	0.382273	0.500055
C43	C	0.310614	-0.111452	0.000073
C44	C	0.810614	0.388548	0.500073
C45	C	0.995205	0.038494	0.000070
C46	C	1.495205	0.538494	0.500070
C47	C	0.993553	0.131444	0.000065
C48	C	1.493553	0.631444	0.500065
C49	C	1.142175	-0.108476	0.000080
C50	C	1.642175	0.391524	0.500080
C51	C	1.235125	-0.110127	0.000081
C52	C	1.735125	0.389873	0.500081
C53	C	0.982980	-0.267671	0.000069
C54	C	1.482980	0.232329	0.500069
C55	C	0.984631	-0.360621	0.000069
C56	C	1.484631	0.139379	0.500069
N57	N	0.989049	-0.114599	0.229971
N58	N	1.489049	0.385401	0.729971
C59	C	0.987621	0.469192	0.000068
C60	C	1.487621	0.969192	0.500068
C61	C	0.896069	0.421758	-0.000270
C62	C	1.396069	0.921758	0.499730
C63	C	0.897721	0.325068	0.000063
C64	C	1.397721	0.825068	0.500063
C65	C	0.990564	0.301631	0.000066
C66	C	1.490564	0.801631	0.500066
C67	C	1.035702	0.342705	0.084335
C68	C	1.535702	0.842705	0.584335
C69	C	1.033402	0.439341	0.084405
C70	C	1.533402	0.939341	0.584405
C71	C	1.035330	0.439707	-0.083404
C72	C	1.535330	0.939707	0.416596
C73	C	1.035308	0.342761	-0.084518
C74	C	1.535308	0.842761	0.415482
C75	C	0.992231	0.206934	0.000068
C76	C	1.492231	0.706934	0.500068
C77	C	0.985956	0.563890	0.000072
C78	C	1.485956	1.063890	0.500072
N79	N	0.989142	-0.114571	-0.229830
N80	N	1.489142	0.385429	0.270170
C81	C	0.989112	-0.114580	0.589173
C82	C	1.489112	0.385420	1.089173
C83	C	0.920095	-0.183135	0.551560
C84	C	1.420095	0.316865	1.051560
C85	C	0.920254	-0.183385	0.448735
C86	C	1.420254	0.316615	0.948735
C87	C	0.989080	-0.114590	0.410969
C88	C	1.489080	0.385410	0.910969
C89	C	1.076445	-0.133671	0.448266
C90	C	1.576445	0.366329	0.948266
C91	C	1.076058	-0.134159	0.551124
C92	C	1.576058	0.365841	1.051124
C93	C	0.971542	-0.026741	0.551272
C94	C	1.471542	0.473259	1.051272
C95	C	0.969537	-0.027327	0.448409
C96	C	1.469537	0.472673	0.948409
C97	C	0.989067	-0.114593	0.310255
C98	C	1.489067	0.385407	0.810255
C99	C	0.989130	-0.114579	0.689886
C100	C	1.489130	0.385421	1.189886
H101	H	0.403031	-0.228312	0.084113
H102	H	0.903031	0.271688	0.584113
N103	N	0.567898	-0.117136	0.167230
N104	N	1.067898	0.382864	0.667230
H105	H	0.610746	-0.068586	0.149930
H106	H	1.110746	0.431414	0.649930
H107	H	0.595891	-0.158378	0.204605
H108	H	1.095891	0.341622	0.704605
N109	N	1.097443	-0.217563	0.414146
N110	N	1.597443	0.282437	0.914146
H111	H	1.153768	-0.229278	0.438516
H112	H	1.653768	0.270722	0.938516
H113	H	1.099939	-0.216168	0.347200
H114	H	1.599939	0.283832	0.847200
H115	H	0.905271	-0.012846	0.424032
H116	H	1.405271	0.487154	0.924032
N117	N	1.031801	0.043420	0.414376
N118	N	1.531801	0.543420	0.914376
H119	H	1.073747	0.019801	0.374027
H120	H	1.573747	0.519801	0.874027
H121	H	1.062380	0.073060	0.466128
H122	H	1.562380	0.573060	0.966128
N123	N	0.847609	0.446312	-0.080312
N124	N	1.347609	0.946312	0.419688
H125	H	0.796126	0.472287	-0.060203
H126	H	1.296126	0.972287	0.439797
H127	H	0.829763	0.394648	-0.117195
H128	H	1.329763	0.894648	0.382805
N129	N	1.124745	0.481767	-0.084159
N130	N	1.624745	0.981767	0.415841
H131	H	1.124450	0.544838	-0.086462
H132	H	1.624450	1.044838	0.413538
H133	H	1.155028	0.462513	-0.137930
H134	H	1.655028	0.962513	0.362070
N135	N	0.586365	0.024123	-0.080083
N136	N	1.086365	0.524123	0.419917
H137	H	0.539823	0.046142	-0.115333
H138	H	1.039823	0.546142	0.384667
H139	H	0.616221	-0.014946	-0.118418
H140	H	1.116221	0.485054	0.381582
N141	N	0.410935	-0.115279	-0.167696
N142	N	0.910935	0.384721	0.332304
H143	H	0.383002	-0.063856	-0.151360
H144	H	0.883002	0.436144	0.348640
H145	H	0.370596	-0.155085	-0.203504
H146	H	0.870596	0.344915	0.296496
N147	N	1.038205	0.040840	0.583485
N148	N	1.538205	0.540840	1.083485
H149	H	1.079592	0.014733	0.622438
H150	H	1.579592	0.514733	1.122438
H151	H	1.010798	0.084073	0.618654
H152	H	1.510798	0.584073	1.118654
H153	H	1.004325	0.314320	0.147042
H154	H	1.504325	0.814320	0.647042
H155	H	0.861974	0.297200	0.060568
H156	H	1.361974	0.797200	0.560568
H157	H	0.862238	0.296649	-0.060344
H158	H	1.362238	0.796649	0.439656
N159	N	0.428191	0.026900	0.080450
N160	N	0.928191	0.526900	0.580450
H161	H	0.365591	0.030640	0.079293
H162	H	0.865591	0.530640	0.579293
H163	H	0.459383	0.085437	0.079337
H164	H	0.959383	0.585437	0.579337
N165	N	1.146100	-0.070509	0.584089
N166	N	1.646100	0.429491	1.084089
H167	H	1.177096	-0.042265	0.531801
H168	H	1.677096	0.457735	1.031801
H169	H	1.186446	-0.099913	0.621235
H170	H	1.686446	0.400087	1.121235
N171	N	1.146104	-0.069293	0.415871
N172	N	1.646104	0.430707	0.915871
H173	H	1.121640	-0.027038	0.376610
H174	H	1.621640	0.472962	0.876610
H175	H	1.188256	-0.098464	0.380984
H176	H	1.688256	0.401536	0.880984
H177	H	0.859626	0.441349	0.059819
H178	H	1.359626	0.941349	0.559819
N179	N	0.552078	-0.250475	0.091396
N180	N	1.052078	0.249525	0.591396
H181	H	0.583276	-0.258045	0.148570
H182	H	1.083276	0.241955	0.648570
H183	H	0.588379	-0.263381	0.039440
H184	H	1.088379	0.236619	0.539440
H185	H	0.909219	-0.008392	0.577258
H186	H	1.409219	0.491608	1.077258
N187	N	0.587084	0.023790	0.080075
N188	N	1.087084	0.523790	0.580075
H189	H	0.540874	0.045775	0.115883
H190	H	1.040874	0.545775	0.615883
H191	H	0.628445	0.072481	0.059884
H192	H	1.128445	0.572481	0.559884
N193	N	0.569387	-0.119654	-0.167272
N194	N	1.069387	0.380346	0.332728
H195	H	0.542550	-0.149150	-0.221133
H196	H	1.042550	0.350850	0.278867
H197	H	0.631993	-0.123372	-0.168160
H198	H	1.131993	0.376628	0.331840
H199	H	1.000460	0.457639	0.147395
H200	H	1.500460	0.957639	0.647395
H201	H	1.103014	0.327400	-0.089603
H202	H	1.603014	0.827400	0.410397
H203	H	0.433165	0.014865	-0.059694
H204	H	0.933165	0.514865	0.440306
N205	N	0.392444	-0.247943	-0.089296
N206	N	0.892444	0.252057	0.410704
H207	H	0.436411	-0.288508	-0.091471
H208	H	0.936411	0.211492	0.408529
H209	H	0.356552	-0.254668	-0.144516
H210	H	0.856552	0.245332	0.355484
N211	N	0.550520	-0.251559	-0.088369
N212	N	1.050520	0.248441	0.411631
H213	H	0.585886	-0.264119	-0.035547
H214	H	1.085886	0.235881	0.464453
H215	H	0.582180	-0.260836	-0.144847
H216	H	1.082180	0.239164	0.355153
N217	N	0.834230	-0.168334	0.415336
N218	N	1.334230	0.331666	0.915336
H219	H	0.790952	-0.214362	0.437782
H220	H	1.290952	0.285638	0.937782
H221	H	0.834239	-0.168451	0.348329
H222	H	1.334239	0.331549	0.848329
N223	N	0.407580	-0.121174	0.168150
N224	N	0.907580	0.378826	0.668150
H225	H	0.375859	-0.071893	0.153224
H226	H	0.875859	0.428107	0.653224
H227	H	0.458832	-0.101007	0.204712
H228	H	0.958832	0.398993	0.704712
H229	H	1.100617	0.471588	0.088231
H230	H	1.600617	0.971588	0.588231
N231	N	0.833793	-0.168334	0.584352
N232	N	1.333793	0.331666	1.084352
H233	H	0.838592	-0.117048	0.623910
H234	H	1.338592	0.382952	1.123910
H235	H	0.808542	-0.219054	0.619021
H236	H	1.308542	0.280946	1.119021
N237	N	1.126062	0.324028	0.088479
N238	N	1.626062	0.824028	0.588479
H239	H	1.138635	0.288672	0.035648
H240	H	1.638635	0.788672	0.535648
H241	H	1.135370	0.292376	0.144949
H242	H	1.635370	0.792376	0.644949
H243	H	1.005411	0.460250	-0.147274
H244	H	1.505411	0.960250	0.352726
N245	N	0.991650	0.306618	-0.167101
N246	N	1.491650	0.806618	0.332899
H247	H	0.943091	0.263777	-0.149805
H248	H	1.443091	0.763777	0.350195
H249	H	1.032882	0.278621	-0.204495
H250	H	1.532882	0.778621	0.295505
N251	N	0.934772	-0.269003	0.585740
N252	N	1.434772	0.230997	1.085740
H253	H	0.985929	-0.263687	0.625487
H254	H	1.485929	0.236313	1.125487
H255	H	0.944212	-0.306955	0.534009
H256	H	1.444212	0.193045	1.034009
H257	H	0.931473	-0.248570	0.424121
H258	H	1.431473	0.251430	0.924121
N259	N	1.096566	-0.219011	0.582901
N260	N	1.596566	0.280989	1.082901
H261	H	1.105770	-0.255747	0.530092
H262	H	1.605770	0.244253	1.030092
H263	H	1.048313	-0.246532	0.619702
H264	H	1.548313	0.253468	1.119702
