data_functionalizedCrystal
_audit_creation_method	'MofGen! by Chris Wilmer'
_symmetry_space_group_name_H-M	'P1'
_symmetry_Int_Tables_number	1
_symmetry_cell_setting	triclinic
loop_
_symmetry_equiv_pos_as_xyz
  x,y,z
_cell_length_a	12.827893
_cell_length_b	18.050589
_cell_length_c	12.827893
_cell_angle_alpha	90.007221
_cell_angle_beta	90.003786
_cell_angle_gamma	90.028191
loop_
_atom_site_label
_atom_site_type_symbol
_atom_site_fract_x
_atom_site_fract_y
_atom_site_fract_z
Zn1	Zn	1.597417	-0.295788	0.590850
Zn2	Zn	1.847417	-0.045788	0.840850
Zn3	Zn	2.097417	0.204212	1.090850
Zn4	Zn	2.347417	0.454212	1.340850
Zn5	Zn	1.597319	-0.419947	0.416111
Zn6	Zn	1.847319	-0.169947	0.666111
Zn7	Zn	2.097319	0.080053	0.916111
Zn8	Zn	2.347319	0.330053	1.166111
Zn9	Zn	1.422705	-0.295776	0.416124
Zn10	Zn	1.672705	-0.045776	0.666124
Zn11	Zn	1.922705	0.204224	0.916124
Zn12	Zn	2.172705	0.454224	1.166124
Zn13	Zn	1.422604	-0.419940	0.590811
Zn14	Zn	1.672604	-0.169940	0.840811
Zn15	Zn	1.922604	0.080060	1.090811
Zn16	Zn	2.172604	0.330060	1.340811
O17	O	1.510011	-0.357863	0.503474
O18	O	1.760011	-0.107863	0.753474
O19	O	2.010011	0.142137	1.003474
O20	O	2.260011	0.392137	1.253474
O21	O	1.743640	-0.312266	0.567681
O22	O	1.993640	-0.062266	0.817681
O23	O	2.243640	0.187734	1.067681
O24	O	2.493640	0.437734	1.317681
O25	O	1.574157	-0.403473	0.269877
O26	O	1.824157	-0.153473	0.519877
O27	O	2.074157	0.096527	0.769877
O28	O	2.324157	0.346527	1.019877
O29	O	1.445964	-0.191853	0.439323
O30	O	1.695964	0.058147	0.689323
O31	O	1.945964	0.308147	0.939323
O32	O	2.195964	0.558147	1.189323
O33	O	1.743568	-0.403485	0.439302
O34	O	1.993568	-0.153485	0.689302
O35	O	2.243568	0.096515	0.939302
O36	O	2.493568	0.346515	1.189302
O37	O	1.574324	-0.191862	0.567694
O38	O	1.824324	0.058138	0.817694
O39	O	2.074324	0.308138	1.067694
O40	O	2.324324	0.558138	1.317694
O41	O	1.445870	-0.312245	0.269886
O42	O	1.695870	-0.062245	0.519886
O43	O	1.945870	0.187755	0.769886
O44	O	2.195870	0.437755	1.019886
O45	O	1.276456	-0.312238	0.439285
O46	O	1.526456	-0.062238	0.689285
O47	O	1.776456	0.187762	0.939285
O48	O	2.026456	0.437762	1.189285
O49	O	1.445792	-0.403474	0.737052
O50	O	1.695792	-0.153474	0.987052
O51	O	1.945792	0.096526	1.237052
O52	O	2.195792	0.346526	1.487052
O53	O	1.276382	-0.403462	0.567627
O54	O	1.526382	-0.153462	0.817627
O55	O	1.776382	0.096538	1.067627
O56	O	2.026382	0.346538	1.317627
O57	O	1.574226	-0.312259	0.737081
O58	O	1.824226	-0.062259	0.987081
O59	O	2.074226	0.187741	1.237081
O60	O	2.324226	0.437741	1.487081
O61	O	1.574059	-0.523871	0.439264
O62	O	1.824059	-0.273871	0.689264
O63	O	2.074059	-0.023871	0.939264
O64	O	2.324059	0.226129	1.189264
O65	O	1.445697	-0.523866	0.567615
O66	O	1.695697	-0.273866	0.817615
O67	O	1.945697	-0.023866	1.067615
O68	O	2.195697	0.226134	1.317615
C69	C	1.238501	-0.357848	0.503454
C70	C	1.488501	-0.107848	0.753454
C71	C	1.738501	0.142152	1.003454
C72	C	1.988501	0.392152	1.253454
C73	C	1.122348	-0.357860	0.503470
C74	C	1.372348	-0.107860	0.753470
C75	C	1.622348	0.142140	1.003470
C76	C	1.872348	0.392140	1.253470
C77	C	1.070554	-0.403071	0.566880
C78	C	1.320554	-0.153071	0.816880
C79	C	1.570554	0.096929	1.066880
C80	C	1.820554	0.346929	1.316880
C81	C	0.950504	-0.403084	0.566898
C82	C	1.200504	-0.153084	0.816898
C83	C	1.450504	0.096916	1.066898
C84	C	1.700504	0.346916	1.316898
C85	C	1.509885	-0.550815	0.503456
C86	C	1.759885	-0.300815	0.753456
C87	C	2.009885	-0.050815	1.003456
C88	C	2.259885	0.199185	1.253456
C89	C	1.509927	-0.633361	0.503484
C90	C	1.759927	-0.383361	0.753484
C91	C	2.009927	-0.133361	1.003484
C92	C	2.259927	0.116639	1.253484
C93	C	1.440192	-0.832836	0.573257
C94	C	1.690192	-0.582836	0.823257
C95	C	1.940192	-0.332836	1.073257
C96	C	2.190192	-0.082836	1.323257
C97	C	1.414741	-0.882256	0.477900
C98	C	1.664741	-0.632256	0.727900
C99	C	1.914741	-0.382256	0.977900
C100	C	2.164741	-0.132256	1.227900
C101	C	1.510029	-0.784491	0.503498
C102	C	1.760029	-0.534491	0.753498
C103	C	2.010029	-0.284491	1.003498
C104	C	2.260029	-0.034491	1.253498
C105	C	1.535532	-0.882152	0.598865
C106	C	1.785532	-0.632152	0.848865
C107	C	2.035532	-0.382152	1.098865
C108	C	2.285532	-0.132152	1.348865
C109	C	1.510127	-0.930476	0.503519
C110	C	1.760127	-0.680476	0.753519
C111	C	2.010127	-0.430476	1.003519
C112	C	2.260127	-0.180476	1.253519
C113	C	1.484528	-0.832825	0.408090
C114	C	1.734528	-0.582825	0.658090
C115	C	1.984528	-0.332825	0.908090
C116	C	2.234528	-0.082825	1.158090
C117	C	1.605363	-0.832716	0.529120
C118	C	1.855363	-0.582716	0.779120
C119	C	2.105363	-0.332716	1.029120
C120	C	2.355363	-0.082716	1.279120
C121	C	1.579949	-0.882114	0.433697
C122	C	1.829949	-0.632114	0.683697
C123	C	2.079949	-0.382114	0.933697
C124	C	2.329949	-0.132114	1.183697
C125	C	1.509971	-0.700393	0.503487
C126	C	1.759971	-0.450393	0.753487
C127	C	2.009971	-0.200393	1.003487
C128	C	2.259971	0.049607	1.253487
C129	C	1.510185	-1.014573	0.503519
C130	C	1.760185	-0.764573	0.753519
C131	C	2.010185	-0.514573	1.003519
C132	C	2.260185	-0.264573	1.253519
C133	C	1.782581	-0.357878	0.503494
C134	C	2.032581	-0.107878	0.753494
C135	C	2.282581	0.142122	1.003494
C136	C	2.532581	0.392122	1.253494
C137	C	1.898734	-0.357884	0.503503
C138	C	2.148734	-0.107884	0.753503
C139	C	2.398734	0.142116	1.003503
C140	C	2.648734	0.392116	1.253503
C141	C	1.510009	-0.357867	0.776044
C142	C	1.760009	-0.107867	1.026044
C143	C	2.010009	0.142133	1.276044
C144	C	2.260009	0.392133	1.526044
C145	C	1.510008	-0.357869	0.892197
C146	C	1.760008	-0.107869	1.142197
C147	C	2.010008	0.142131	1.392197
C148	C	2.260008	0.392131	1.642197
C149	C	1.510166	-0.164157	0.503514
C150	C	1.760166	0.085843	0.753514
C151	C	2.010166	0.335843	1.003514
C152	C	2.260166	0.585843	1.253514
C153	C	1.510232	-0.081611	0.503531
C154	C	1.760232	0.168389	0.753531
C155	C	2.010232	0.418389	1.003531
C156	C	2.260232	0.668389	1.253531
C157	C	1.573481	-0.403008	0.943977
C158	C	1.823481	-0.153008	1.193977
C159	C	2.073481	0.096992	1.443977
C160	C	2.323481	0.346992	1.693977
C161	C	1.573482	-0.403010	1.064028
C162	C	1.823482	-0.153010	1.314028
C163	C	2.073482	0.096990	1.564028
C164	C	2.323482	0.346990	1.814028
C165	C	1.510006	-0.357875	1.231964
C166	C	1.760006	-0.107875	1.481964
C167	C	2.010006	0.142125	1.731964
C168	C	2.260006	0.392125	1.981964
C169	C	1.510007	-0.357873	1.115811
C170	C	1.760007	-0.107873	1.365811
C171	C	2.010007	0.142127	1.615811
C172	C	2.260007	0.392127	1.865811
H173	H	0.905963	-0.441793	0.621183
H174	H	1.155963	-0.191793	0.871183
H175	H	1.405963	0.058207	1.121183
H176	H	1.655963	0.308207	1.371183
H177	H	1.115088	-0.441765	0.621157
H178	H	1.365088	-0.191765	0.871157
H179	H	1.615088	0.058235	1.121157
H180	H	1.865088	0.308235	1.371157
H181	H	1.627827	-0.441648	0.899431
H182	H	1.877827	-0.191648	1.149431
H183	H	2.127827	0.058352	1.399431
H184	H	2.377827	0.308352	1.649431
H185	H	1.077814	-0.319160	0.449201
H186	H	1.327814	-0.069160	0.699201
H187	H	1.577814	0.180840	0.949201
H188	H	1.827814	0.430840	1.199201
H189	H	1.627823	-0.441656	1.108557
H190	H	1.877823	-0.191656	1.358557
H191	H	2.127823	0.058344	1.608557
H192	H	2.377823	0.308344	1.858557
F193	F	1.362888	-0.804550	0.650258
F194	F	1.612888	-0.554550	0.900258
F195	F	1.862888	-0.304550	1.150258
F196	F	2.112888	-0.054550	1.400258
F197	F	1.657200	-0.910219	0.356515
F198	F	1.907200	-0.660219	0.606515
F199	F	2.157200	-0.410219	0.856515
F200	F	2.407200	-0.160219	1.106515
F201	F	0.956943	-0.307292	0.432535
F202	F	1.206943	-0.057292	0.682535
F203	F	1.456943	0.192708	0.932535
F204	F	1.706943	0.442708	1.182535
F205	F	1.710658	-0.804252	0.557480
F206	F	1.960658	-0.554252	0.807480
F207	F	2.210658	-0.304252	1.057480
F208	F	2.460658	-0.054252	1.307480
F209	F	1.438981	-0.307354	0.950416
F210	F	1.688981	-0.057354	1.200416
F211	F	1.938981	0.192646	1.450416
F212	F	2.188981	0.442646	1.700416
F213	F	1.309418	-0.910698	0.449575
F214	F	1.559418	-0.660698	0.699575
F215	F	1.809418	-0.410698	0.949575
F216	F	2.059418	-0.160698	1.199575
F217	F	1.456266	-0.804625	0.302653
F218	F	1.706266	-0.554625	0.552653
F219	F	1.956266	-0.304625	0.802653
F220	F	2.206266	-0.054625	1.052653
F221	F	1.438967	-0.307362	1.057618
F222	F	1.688967	-0.057362	1.307618
F223	F	1.938967	0.192638	1.557618
F224	F	2.188967	0.442638	1.807618
F225	F	1.563674	-0.910475	0.704270
F226	F	1.813674	-0.660475	0.954270
F227	F	2.063674	-0.410475	1.204270
F228	F	2.313674	-0.160475	1.454270
