data_functionalizedCrystal
_audit_creation_method	'MofGen! by Chris Wilmer'
_symmetry_space_group_name_H-M	'P1'
_symmetry_Int_Tables_number	1
_symmetry_cell_setting	triclinic
loop_
_symmetry_equiv_pos_as_xyz
  x,y,z
_cell_length_a	19.188930
_cell_length_b	10.654563
_cell_length_c	9.130313
_cell_angle_alpha	89.998536
_cell_angle_beta	89.993647
_cell_angle_gamma	83.817582
loop_
_atom_site_label
_atom_site_type_symbol
_atom_site_fract_x
_atom_site_fract_y
_atom_site_fract_z
O1	O	0.098103	1.665748	-0.121860
O2	O	0.107436	1.300075	-0.121855
O3	O	0.001183	1.493464	-0.121829
O4	O	0.204356	1.472359	-0.121886
O5	O	0.001186	1.493462	0.121770
O6	O	0.107439	1.300072	0.121744
O7	O	0.098106	1.665746	0.121739
Cu8	Cu	0.102773	1.482909	0.143984
Cu9	Cu	0.102769	1.482912	-0.144100
O10	O	0.204359	1.472357	0.121713
C11	C	-0.024831	1.492779	-0.000025
C12	C	-0.102349	1.490728	-0.000013
C13	C	0.106750	1.253290	-0.000055
C14	C	0.104694	1.113891	-0.000052
C15	C	0.098792	1.712530	-0.000064
C16	C	0.100848	1.851929	-0.000077
C17	C	-0.146527	1.604202	-0.000007
C18	C	-0.219364	1.602275	-0.000030
C19	C	-0.248018	1.486866	-0.000030
C20	C	-0.203830	1.373377	-0.000044
C21	C	-0.130995	1.375308	-0.000035
N22	N	-0.356602	1.398649	0.082872
N23	N	-0.425792	1.396823	0.082867
C24	C	-0.467465	1.481042	-0.000060
N25	N	-0.437335	1.567176	-0.082963
N26	N	-0.368138	1.569006	-0.082951
C27	C	-0.326995	1.484760	-0.000040
C28	C	-0.590622	1.592435	-0.000081
C29	C	-0.663460	1.590502	-0.000114
C30	C	-0.647924	1.361601	-0.000113
C31	C	-0.575088	1.363537	-0.000095
C32	C	-0.546442	1.478957	-0.000072
C33	C	0.230373	1.473041	-0.000094
C34	C	0.307891	1.475093	-0.000116
C35	C	0.103736	2.048392	0.132729
C36	C	0.101811	1.917410	0.132717
C37	C	0.101804	1.917438	-0.132868
C38	C	0.103725	2.048419	-0.132854
C39	C	0.103743	2.048374	0.286062
C40	C	0.101817	1.917392	0.286051
N41	N	0.102775	1.482916	0.346607
N42	N	0.102762	1.482915	-0.346722
C43	C	0.055742	1.568570	0.423270
C44	C	0.055734	1.568567	0.576607
C45	C	0.149797	1.397251	0.576603
C46	C	0.149801	1.397249	0.423269
C47	C	0.001438	1.667482	0.423274
C48	C	0.001429	1.667479	0.576611
H49	H	-0.123209	1.698186	0.000006
Cl50	Cl	-0.076861	1.622016	0.650055
Cl51	Cl	0.023276	1.873350	0.359848
Cl52	Cl	0.019896	1.816091	0.640867
Cl53	Cl	0.208913	1.289561	0.672988
Cl54	Cl	-0.274913	1.744940	-0.000025
Cl55	Cl	-0.239852	1.228292	-0.000055
H56	H	0.150069	1.870091	0.344907
Cl57	Cl	-0.719000	1.733170	-0.000117
Cl58	Cl	0.104913	2.130761	-0.299785
Cl59	Cl	0.208920	1.289550	0.326891
H60	H	-0.052226	1.647175	0.381669
H61	H	-0.567297	1.686417	-0.000070
H62	H	0.018444	1.758306	0.375709
H63	H	-0.095024	1.282900	-0.000039
Cl64	Cl	-0.519546	1.220874	-0.000095
Cl65	Cl	-0.683940	1.216514	-0.000121
Cl66	Cl	0.100577	1.835123	-0.299810
Cl67	Cl	0.029252	2.121387	0.376985
H68	H	0.154662	2.076876	0.333623
