data_functionalizedCrystal
_audit_creation_method	'MofGen! by Chris Wilmer'
_symmetry_space_group_name_H-M	'P1'
_symmetry_Int_Tables_number	1
_symmetry_cell_setting	triclinic
loop_
_symmetry_equiv_pos_as_xyz
  x,y,z
_cell_length_a	10.540539
_cell_length_b	22.610064
_cell_length_c	10.540514
_cell_angle_alpha	89.992725
_cell_angle_beta	84.520326
_cell_angle_gamma	90.006252
loop_
_atom_site_label
_atom_site_type_symbol
_atom_site_fract_x
_atom_site_fract_y
_atom_site_fract_z
O1	O	1.685880	0.049152	0.178885
O2	O	1.316465	0.049159	0.195741
O3	O	1.509617	0.049156	0.002605
O4	O	1.492728	0.049155	0.372022
O5	O	1.509583	-0.049213	0.002633
O6	O	1.316431	-0.049210	0.195769
O7	O	1.685846	-0.049217	0.178913
Zn8	Zn	1.501133	-0.064832	0.187346
Zn9	Zn	1.501178	0.064774	0.187309
O10	O	1.492694	-0.049214	0.372050
C11	C	1.269145	-0.000025	0.194491
C12	C	1.128197	-0.000022	0.190709
N13	N	1.501111	-0.153284	0.187370
C14	C	0.944784	-0.000251	0.045791
C15	C	1.091402	-0.000023	0.049624
C16	C	1.066538	0.056149	0.258589
C17	C	0.919994	0.056190	0.253774
C18	C	0.919467	-0.055674	0.256676
C19	C	1.066448	-0.056410	0.257976
C20	C	1.586710	-0.561927	0.101801
C21	C	1.586716	-0.623847	0.101792
O22	O	1.659441	-0.655867	0.029056
N23	N	1.501177	-0.654821	0.187283
C24	C	1.415617	-0.623873	0.272779
O25	O	1.342858	-0.655905	0.345494
C26	C	1.415605	-0.561954	0.272781
C27	C	1.501159	-0.530983	0.187294
C28	C	1.672255	-0.530955	0.016320
C29	C	1.672250	-0.469040	0.016331
C30	C	1.586699	-0.438096	0.101823
C31	C	1.501154	-0.469067	0.187305
C32	C	1.330040	-0.531007	0.358270
C33	C	1.330035	-0.469084	0.358264
C34	C	1.415589	-0.438112	0.272777
C35	C	1.415598	-0.376207	0.272808
N36	N	1.501137	-0.345233	0.187318
C37	C	1.586688	-0.376177	0.101825
C38	C	1.415646	-0.753907	0.272767
C39	C	1.415662	-0.815824	0.272772
C40	C	1.586761	-0.815794	0.101783
C41	C	1.586749	-0.753875	0.101785
C42	C	1.501185	-0.722932	0.187276
C43	C	1.586671	-0.246150	0.101856
C44	C	1.586662	-0.184228	0.101878
C45	C	1.415560	-0.184264	0.272862
C46	C	1.415573	-0.246180	0.272845
C47	C	1.501134	-0.277121	0.187331
O48	O	1.342906	-0.344148	0.345503
O49	O	1.659422	-0.344137	0.029112
C50	C	1.733166	-0.000032	0.180163
C51	C	1.874113	-0.000031	0.183945
C52	C	1.508340	-0.000027	-0.044685
C53	C	1.504571	-0.000022	-0.185634
N54	N	1.501209	0.153226	0.187274
C55	C	1.642711	-0.000027	-0.256340
C56	C	1.638837	-0.000254	-0.402953
C57	C	1.429425	-0.056090	-0.377954
C58	C	1.434278	-0.056133	-0.231414
C59	C	1.432273	0.055735	-0.231048
C60	C	1.430940	0.056468	-0.378027
C61	C	1.493970	-0.000030	0.419339
C62	C	1.497740	-0.000030	0.560289
H63	H	1.134006	-0.040289	-0.003787
C64	C	1.680795	-0.280176	0.007790
N65	N	1.751695	-0.305804	-0.063055
C66	C	0.903983	0.053861	-0.029216
N67	N	0.873246	0.094617	-0.085710
C68	C	1.501651	-0.112963	-0.193264
N69	N	1.552401	-0.155768	-0.164536
H70	H	1.345920	-0.271397	0.342468
C71	C	1.766367	-0.564984	-0.077747
N72	N	1.837260	-0.590611	-0.148601
H73	H	1.692310	-0.040679	-0.444672
H74	H	1.107401	-0.097966	0.208388
H75	H	1.260374	-0.556215	0.427881
H76	H	1.328099	0.060024	-0.402223
H77	H	1.656413	-0.728662	0.032173
H78	H	1.345909	-0.159060	0.342473
C79	C	1.680860	-0.849844	0.007730
N80	N	1.751730	-0.875493	-0.063107
C81	C	1.766353	-0.434979	-0.077726
N82	N	1.837231	-0.409329	-0.148581
C83	C	1.711452	0.054016	-0.460614
N84	N	1.766164	0.094889	-0.504040
H85	H	1.332804	-0.058522	-0.183408
C86	C	1.096730	0.058977	0.398558
N87	N	1.119474	0.061105	0.503983
H88	H	1.697954	-0.040141	-0.226010
H89	H	1.698756	0.040174	-0.227831
C90	C	1.289413	-0.058685	-0.408073
N91	N	1.183952	-0.060636	-0.430753
C92	C	1.494421	0.113158	-0.188529
N93	N	1.541246	0.156406	-0.156506
H94	H	1.656335	-0.159013	0.032264
C95	C	1.099183	-0.061000	0.396932
N96	N	1.123846	-0.064456	0.501595
H97	H	1.346010	-0.841037	0.342397
H98	H	1.476268	-0.097971	-0.420499
H99	H	0.891803	0.098179	0.203581
C100	C	1.294626	0.056473	-0.167194
N101	N	1.190955	0.057026	-0.119092
C102	C	0.906141	-0.054671	-0.029494
N103	N	0.877024	-0.095661	-0.086200
C104	C	1.124088	0.112626	0.194850
N105	N	1.167431	0.155163	0.146832
H106	H	1.345973	-0.728716	0.342394
H107	H	1.133166	0.040313	-0.004187
C108	C	1.498377	0.112499	-0.433437
N109	N	1.549171	0.154700	-0.475182
H110	H	1.260355	-0.443893	0.427880
C111	C	0.855648	-0.056189	0.394343
N112	N	0.807573	-0.056573	0.498028
C113	C	0.876848	-0.113195	0.195001
N114	N	0.844750	-0.156516	0.148532
H115	H	0.872017	0.058740	0.355240
