data_functionalizedCrystal
_audit_creation_method	'MofGen! by Chris Wilmer'
_symmetry_space_group_name_H-M	'P1'
_symmetry_Int_Tables_number	1
_symmetry_cell_setting	triclinic
loop_
_symmetry_equiv_pos_as_xyz
  x,y,z
_cell_length_a	15.297475
_cell_length_b	17.640280
_cell_length_c	15.296720
_cell_angle_alpha	89.704419
_cell_angle_beta	88.382886
_cell_angle_gamma	67.467946
loop_
_atom_site_label
_atom_site_type_symbol
_atom_site_fract_x
_atom_site_fract_y
_atom_site_fract_z
Zn1	Zn	1.417125	-0.622537	0.611407
Zn2	Zn	1.917125	-0.122537	1.111407
Zn3	Zn	1.472679	-0.737717	0.443610
Zn4	Zn	1.972679	-0.237717	0.943610
Zn5	Zn	1.284185	-0.577601	0.447963
Zn6	Zn	1.784185	-0.077601	0.947963
Zn7	Zn	1.298838	-0.729855	0.566194
Zn8	Zn	1.798838	-0.229855	1.066194
O9	O	1.368207	-0.666928	0.517293
O10	O	1.868207	-0.166928	1.017293
O11	O	1.552884	-0.659913	0.606249
O12	O	2.052884	-0.159913	1.106249
O13	O	1.464792	-0.700962	0.324484
O14	O	1.964792	-0.200962	0.824484
O15	O	1.272438	-0.471640	0.490387
O16	O	1.772438	0.028360	0.990387
O17	O	1.593699	-0.744535	0.482969
O18	O	2.093699	-0.244535	0.982969
O19	O	1.370108	-0.504655	0.610469
O20	O	1.870108	-0.004655	1.110469
O21	O	1.326306	-0.583325	0.327682
O22	O	1.826306	-0.083325	0.827682
O23	O	1.157739	-0.575701	0.446546
O24	O	1.657739	-0.075701	0.946546
O25	O	1.297411	-0.731134	0.691895
O26	O	1.797411	-0.231134	1.191895
O27	O	1.168505	-0.687561	0.533410
O28	O	1.668505	-0.187561	1.033410
O29	O	1.384317	-0.652289	0.725113
O30	O	1.884317	-0.152289	1.225113
O31	O	1.479001	-0.848596	0.439128
O32	O	1.979001	-0.348596	0.939128
O33	O	1.351280	-0.842819	0.529189
O34	O	1.851280	-0.342819	1.029189
C35	C	1.129832	-0.625902	0.485544
C36	C	1.629832	-0.125902	0.985544
C37	C	1.027857	-0.608374	0.471978
C38	C	1.527857	-0.108374	0.971978
C39	C	1.422781	-0.874735	0.478802
C40	C	1.922781	-0.374735	0.978802
C41	C	1.446208	-0.963653	0.462375
C42	C	1.946208	-0.463653	0.962375
C43	C	0.763060	-0.792215	0.614251
C44	C	1.263060	-0.292215	1.114251
C45	C	0.858873	-0.808690	0.626993
C46	C	1.358873	-0.308690	1.126993
C47	C	0.901123	-0.758612	0.588241
C48	C	1.401123	-0.258612	1.088241
C49	C	0.847552	-0.692057	0.536744
C50	C	1.347552	-0.192057	1.036744
C51	C	0.751731	-0.675584	0.523995
C52	C	1.251731	-0.175584	1.023995
C53	C	0.889795	-0.641981	0.497984
C54	C	1.389795	-0.141981	0.997984
C55	C	0.836223	-0.575426	0.446487
C56	C	1.336223	-0.075426	0.946487
C57	C	0.740412	-0.558956	0.433741
C58	C	1.240412	-0.058956	0.933741
C59	C	0.698161	-0.609034	0.472493
C60	C	1.198161	-0.109034	0.972493
C61	C	0.985615	-0.658454	0.510734
C62	C	1.485615	-0.158454	1.010734
C63	C	0.974287	-0.541823	0.420477
C64	C	1.474287	-0.041823	0.920477
C65	C	0.878474	-0.525349	0.407735
C66	C	1.378474	-0.025349	0.907735
C67	C	1.190566	-1.241111	0.642449
C68	C	1.690566	-0.741111	1.142449
C69	C	1.212585	-1.324661	0.626986
C70	C	1.712585	-0.824661	1.126986
C71	C	1.345637	-1.330638	0.533325
C72	C	1.845637	-0.830638	1.033325
C73	C	1.323632	-1.247088	0.548783
C74	C	1.823632	-0.747088	1.048783
C75	C	1.246095	-1.202331	0.603345
C76	C	1.746095	-0.702331	1.103345
C77	C	1.379161	-1.208307	0.509680
C78	C	1.879161	-0.708307	1.009680
C79	C	1.357155	-1.124764	0.525133
C80	C	1.857155	-0.624764	1.025133
C81	C	1.279619	-1.080001	0.579690
C82	C	1.779619	-0.580001	1.079690
C83	C	1.224088	-1.118787	0.618798
C84	C	1.724088	-0.618787	1.118798
C85	C	1.456695	-1.253065	0.455113
C86	C	1.956695	-0.753065	0.955113
C87	C	1.512223	-1.214284	0.416010
C88	C	2.012223	-0.714284	0.916010
C89	C	1.490221	-1.130740	0.431468
C90	C	1.990221	-0.630740	0.931468
C91	C	1.412686	-1.085977	0.486025
C92	C	1.912686	-0.585977	0.986025
C93	C	1.545752	-1.091954	0.392360
C94	C	2.045752	-0.591954	0.892360
C95	C	1.523746	-1.008410	0.407814
C96	C	2.023746	-0.508410	0.907814
C97	C	1.390679	-1.002434	0.501479
C98	C	1.890679	-0.502434	1.001479
C99	C	1.607512	-0.708114	0.549167
C100	C	2.107512	-0.208114	1.049167
C101	C	1.709490	-0.725665	0.562750
C102	C	2.209490	-0.225665	1.062750
C103	C	1.336302	-0.695847	0.740410
C104	C	1.836302	-0.195847	1.240410
C105	C	1.322705	-0.708171	0.835489
C106	C	1.822705	-0.208171	1.335489
C107	C	1.313441	-0.458316	0.555957
C108	C	1.813441	0.041684	1.055957
C109	C	1.290104	-0.369418	0.572433
C110	C	1.790104	0.130582	1.072433
C111	C	1.400025	-0.638072	0.295063
C112	C	1.900025	-0.138072	0.795063
C113	C	1.413740	-0.625554	0.200050
C114	C	1.913740	-0.125554	0.700050
C115	C	1.465377	-0.578714	1.172680
C116	C	1.965377	-0.078714	1.672680
C117	C	1.478158	-0.567138	1.083349
C118	C	1.978158	-0.067138	1.583349
C119	C	1.439295	-0.602395	1.021380
C120	C	1.939295	-0.102395	1.521380
C121	C	1.387651	-0.649231	1.048750
C122	C	1.887651	-0.149231	1.548750
C123	C	1.374876	-0.660813	1.138089
C124	C	1.874876	-0.160813	1.638089
C125	C	1.348794	-0.684494	0.986789
C126	C	1.848794	-0.184494	1.486789
C127	C	1.297150	-0.731330	1.014159
C128	C	1.797150	-0.231330	1.514159
C129	C	1.284376	-0.742910	1.103490
C130	C	1.784376	-0.242910	1.603490
C131	C	1.323238	-0.707653	1.165459
C132	C	1.823238	-0.207653	1.665459
C133	C	1.361569	-0.672911	0.897450
C134	C	1.861569	-0.172911	1.397450
C135	C	1.271068	-0.755010	0.862859
C136	C	1.771068	-0.255010	1.362859
C137	C	1.258288	-0.766587	0.952190
C138	C	1.758288	-0.266587	1.452190
H139	H	1.029224	-0.712644	0.552664
H140	H	1.529224	-0.212644	1.052664
Br141	Br	1.431657	-0.609351	0.860315
Br142	Br	1.931657	-0.109351	1.360315
H143	H	1.520209	-0.529006	1.061071
H144	H	2.020209	-0.029006	1.561071
H145	H	1.216238	-0.804721	0.974487
H146	H	1.716238	-0.304721	1.474487
Br147	Br	1.218333	-0.802871	0.778764
Br148	Br	1.718333	-0.302871	1.278764
H149	H	0.834842	-0.471159	0.365805
H150	H	1.334842	0.028841	0.865805
H151	H	0.979139	-0.772030	0.598619
H152	H	1.479139	-0.272030	1.098619
Br153	Br	0.705725	-0.860187	0.666811
Br154	Br	1.205725	-0.360187	1.166811
Br155	Br	0.667712	-0.468639	0.363841
Br156	Br	1.167712	0.031361	0.863841
Br157	Br	1.085345	-1.180365	0.716510
Br158	Br	1.585345	-0.680365	1.216510
H159	H	1.008687	-0.501047	0.388920
H160	H	1.508687	-0.001047	0.888920
H161	H	0.902485	-0.862881	0.668921
H162	H	1.402485	-0.362881	1.168921
Br163	Br	0.568121	-0.586671	0.455211
Br164	Br	1.068121	-0.086671	0.955211
Br165	Br	1.285458	-0.941688	0.575540
Br166	Br	1.785458	-0.441688	1.075540
Br167	Br	1.599096	-0.955771	0.354731
Br168	Br	2.099096	-0.455771	0.854731
Br169	Br	1.450864	-1.391386	0.459280
Br170	Br	1.950864	-0.891386	0.959280
Br171	Br	1.617450	-1.275032	0.341965
Br172	Br	2.117450	-0.775032	0.841965
H173	H	1.497020	-0.550018	1.223141
H174	H	1.997020	-0.050018	1.723141
Br175	Br	1.650970	-1.152702	0.318306
Br176	Br	2.150970	-0.652702	0.818306
Br177	Br	1.137203	-1.377286	0.680046
Br178	Br	1.637203	-0.877286	1.180046
Br179	Br	1.118868	-1.058041	0.692860
Br180	Br	1.618868	-0.558041	1.192860
Br181	Br	1.305900	-0.723366	1.286700
Br182	Br	1.805900	-0.223366	1.786700
H183	H	1.261697	-1.011973	0.592265
H184	H	1.761697	-0.511973	1.092265
Br185	Br	1.214311	-0.806493	1.140633
Br186	Br	1.714311	-0.306493	1.640633
H187	H	1.474612	-1.321092	0.442536
H188	H	1.974612	-0.821092	0.942536
H189	H	1.449704	-0.592966	0.948643
H190	H	1.949704	-0.092966	1.448643
