data_functionalizedCrystal
_audit_creation_method	'MofGen! by Chris Wilmer'
_symmetry_space_group_name_H-M	'P1'
_symmetry_Int_Tables_number	1
_symmetry_cell_setting	triclinic
loop_
_symmetry_equiv_pos_as_xyz
  x,y,z
_cell_length_a	12.759401
_cell_length_b	16.625545
_cell_length_c	12.759393
_cell_angle_alpha	90.034031
_cell_angle_beta	89.980563
_cell_angle_gamma	89.975951
loop_
_atom_site_label
_atom_site_type_symbol
_atom_site_fract_x
_atom_site_fract_y
_atom_site_fract_z
Zn1	Zn	1.606187	0.320954	-0.593990
Zn2	Zn	2.106187	0.820954	-0.093990
Zn3	Zn	1.606053	0.455811	-0.418302
Zn4	Zn	2.106053	0.955811	0.081698
Zn5	Zn	1.430489	0.320996	-0.418326
Zn6	Zn	1.930489	0.820996	0.081674
Zn7	Zn	1.430449	0.455748	-0.593941
Zn8	Zn	1.930449	0.955748	-0.093941
O9	O	1.518295	0.388377	-0.506140
O10	O	2.018295	0.888377	-0.006140
O11	O	1.753190	0.338851	-0.570695
O12	O	2.253190	0.838851	-0.070695
O13	O	1.582725	0.437971	-0.271284
O14	O	2.082725	0.937971	0.228716
O15	O	1.453869	0.208158	-0.441659
O16	O	1.953869	0.708158	0.058341
O17	O	1.753092	0.437930	-0.441618
O18	O	2.253092	0.937930	0.058382
O19	O	1.582953	0.208127	-0.570718
O20	O	2.082953	0.708127	-0.070718
O21	O	1.453739	0.338923	-0.271302
O22	O	1.953739	0.838923	0.228698
O23	O	1.283463	0.338862	-0.441611
O24	O	1.783463	0.838862	0.058389
O25	O	1.453801	0.437824	-0.740968
O26	O	1.953801	0.937824	-0.240968
O27	O	1.283434	0.437864	-0.570635
O28	O	1.783434	0.937864	-0.070635
O29	O	1.582915	0.338791	-0.741004
O30	O	2.082915	0.838791	-0.241004
O31	O	1.582686	0.568635	-0.441571
O32	O	2.082686	1.068635	0.058429
O33	O	1.453670	0.568589	-0.570612
O34	O	1.953670	1.068589	-0.070612
C35	C	1.245327	0.388362	-0.506121
C36	C	1.745327	0.888362	-0.006121
C37	C	1.128551	0.388375	-0.506138
C38	C	1.628551	0.888375	-0.006138
C39	C	1.518188	0.597868	-0.506106
C40	C	2.018188	1.097868	-0.006106
C41	C	1.518238	0.687489	-0.506127
C42	C	2.018238	1.187489	-0.006127
C43	C	0.963976	0.440016	-0.573233
C44	C	1.463976	0.940016	-0.073233
C45	C	1.073700	0.440006	-0.573216
C46	C	1.573700	0.940006	-0.073216
C47	C	1.073672	0.336756	-0.439065
C48	C	1.573672	0.836756	0.060935
C49	C	0.963949	0.336771	-0.439078
C50	C	1.463949	0.836771	0.060922
C51	C	0.909131	0.491645	-0.640323
C52	C	1.409131	0.991645	-0.140323
C53	C	0.964003	0.543265	-0.707394
C54	C	1.464003	1.043265	-0.207394
C55	C	1.073727	0.543255	-0.707377
C56	C	1.573727	1.043255	-0.207377
C57	C	1.128579	0.491624	-0.640288
C58	C	1.628579	0.991624	-0.140288
C59	C	1.518410	1.015665	-0.506252
C60	C	2.018410	1.515665	-0.006252
C61	C	1.518359	0.924356	-0.506220
C62	C	2.018359	1.424356	-0.006220
C63	C	1.518323	0.851580	-0.506189
C64	C	2.018323	1.351580	-0.006189
C65	C	1.518274	0.760265	-0.506158
C66	C	2.018274	1.260265	-0.006158
C67	C	1.792328	0.388393	-0.506159
C68	C	2.292328	0.888393	-0.006159
C69	C	1.909105	0.388400	-0.506167
C70	C	2.409105	0.888400	-0.006167
C71	C	1.518368	0.388296	-0.780173
C72	C	2.018368	0.888296	-0.280173
C73	C	1.518400	0.388261	-0.896950
C74	C	2.018400	0.888261	-0.396950
C75	C	1.518422	1.178068	-0.506209
C76	C	2.018422	1.678068	-0.006209
C77	C	1.518453	1.088447	-0.506270
C78	C	2.018453	1.588447	-0.006270
C79	C	1.585638	0.336690	-0.951832
C80	C	2.085638	0.836690	-0.451832
C81	C	1.585663	0.336661	-1.061557
C82	C	2.085663	0.836661	-0.561557
C83	C	1.451208	0.439781	-1.061506
C84	C	1.951208	0.939781	-0.561506
C85	C	1.451178	0.439805	-0.951784
C86	C	1.951178	0.939805	-0.451784
C87	C	1.652860	0.285145	-0.896998
C88	C	2.152860	0.785145	-0.396998
C89	C	1.720105	0.233570	-0.951881
C90	C	2.220105	0.733570	-0.451881
C91	C	1.720130	0.233541	-1.061605
C92	C	2.220130	0.733541	-0.561605
C93	C	1.652910	0.285087	-1.116447
C94	C	2.152910	0.785087	-0.616447
C95	C	1.518282	0.388400	-0.233172
C96	C	2.018282	0.888400	0.266828
C97	C	1.518454	0.388207	-0.116396
C98	C	2.018454	0.888207	0.383604
H99	H	0.819788	0.491658	-0.640346
H100	H	1.319788	0.991658	-0.140346
C101	C	1.134007	0.279961	-0.365285
C102	C	1.634007	0.779961	0.134715
H103	H	1.207212	0.287339	-0.374891
H104	H	1.707212	0.787339	0.125109
H105	H	1.115993	0.291696	-0.294668
H106	H	1.615993	0.791696	0.205332
H107	H	1.116047	0.225800	-0.380798
H108	H	1.616047	0.725800	0.119202
H109	H	1.652849	0.285165	-0.807655
H110	H	2.152849	0.785165	-0.307655
C111	C	1.377220	0.496532	-0.891404
C112	C	1.877220	0.996532	-0.391404
H113	H	1.386824	0.489156	-0.818205
H114	H	1.886824	0.989156	-0.318205
H115	H	1.392559	0.550706	-0.909361
H116	H	1.892559	1.050706	-0.409361
H117	H	1.306639	0.484715	-0.909385
H118	H	1.806639	0.984715	-0.409385
H119	H	1.217924	0.491625	-0.640274
H120	H	1.717924	0.991625	-0.140274
H121	H	0.919272	0.294736	-0.384473
H122	H	1.419272	0.794736	0.115527
H123	H	0.919334	0.585305	-0.762009
H124	H	1.419334	1.085305	-0.262009
H125	H	1.774827	0.191599	-0.907222
H126	H	2.274827	0.691599	-0.407222
H127	H	1.774877	0.191541	-1.106287
H128	H	2.274877	0.691541	-0.606287
C129	C	1.377284	0.496484	-1.121829
C130	C	1.877284	0.996484	-0.621829
H131	H	1.386940	0.489089	-1.195036
H132	H	1.886940	0.989089	-0.695036
H133	H	1.306694	0.484688	-1.103852
H134	H	1.806694	0.984688	-0.603852
H135	H	1.392631	0.550666	-1.103825
H136	H	1.892631	1.050666	-0.603825
C137	C	1.652940	0.285055	-1.237141
C138	C	2.152940	0.785055	-0.737141
H139	H	1.702616	0.246961	-1.261975
H140	H	2.202616	0.746961	-0.761975
H141	H	1.585158	0.271104	-1.261966
H142	H	2.085158	0.771104	-0.761966
H143	H	1.671088	0.337087	-1.261940
H144	H	2.171088	0.837087	-0.761940
H145	H	1.118400	0.585291	-0.761983
H146	H	1.618400	1.085291	-0.261983
