data_functionalizedCrystal
_audit_creation_method	'MofGen! by Chris Wilmer'
_symmetry_space_group_name_H-M	'P1'
_symmetry_Int_Tables_number	1
_symmetry_cell_setting	triclinic
loop_
_symmetry_equiv_pos_as_xyz
  x,y,z
_cell_length_a	14.519709
_cell_length_b	15.944545
_cell_length_c	12.996460
_cell_angle_alpha	89.991753
_cell_angle_beta	90.000034
_cell_angle_gamma	83.588159
loop_
_atom_site_label
_atom_site_type_symbol
_atom_site_fract_x
_atom_site_fract_y
_atom_site_fract_z
O1	O	1.223673	0.110109	-0.085438
O2	O	0.955174	0.123076	-0.085470
O3	O	1.096759	-0.005672	-0.085441
O4	O	1.082088	0.238857	-0.085467
O5	O	1.096744	-0.005679	0.085693
O6	O	0.955159	0.123069	0.085664
O7	O	1.223659	0.110102	0.085696
Cu8	Cu	1.089407	0.116585	0.101306
Cu9	Cu	1.089425	0.116593	-0.101080
O10	O	1.082074	0.238850	0.085667
C11	C	0.920807	0.122468	0.000093
C12	C	0.818429	0.120657	0.000081
C13	C	1.096143	-0.036970	0.000127
C14	C	1.094320	-0.130219	0.000130
C15	C	0.443545	0.113991	0.000129
C16	C	0.547850	0.115842	0.000115
C17	C	0.630984	0.117324	0.000104
C18	C	0.735295	0.119176	0.000092
C19	C	1.001113	-0.400987	0.000098
C20	C	1.046057	-0.350333	-0.084275
C21	C	1.087820	-0.465873	0.000100
C22	C	1.046066	-0.350367	0.084449
C23	C	1.091009	-0.300954	0.000116
C24	C	1.132741	-0.416447	-0.084343
C25	C	1.132737	-0.416484	0.084457
C26	C	1.177746	-0.365863	0.000064
C27	C	1.085980	-0.560877	0.000089
C28	C	1.092856	-0.205952	0.000119
C29	C	1.258025	0.110710	0.000131
C30	C	1.360403	0.112521	0.000136
C31	C	1.082689	0.270149	0.000097
C32	C	1.084512	0.363398	0.000087
N33	N	1.089402	0.116578	0.243653
N34	N	1.089438	0.116593	-0.243427
C35	C	1.089424	0.116594	0.663467
C36	C	1.089415	0.116593	0.546662
C37	C	1.089413	0.116587	0.453564
C38	C	1.089404	0.116584	0.336751
H39	H	0.926439	-0.416748	0.000006
F40	F	1.275423	-0.345468	0.000015
F41	F	1.180578	-0.454022	-0.177682
F42	F	0.998205	-0.312581	-0.177524
H43	H	1.169318	-0.445384	0.155800
H44	H	1.009426	-0.321509	0.155778
