data_functionalizedCrystal
_audit_creation_method	'MofGen! by Chris Wilmer'
_symmetry_space_group_name_H-M	'P1'
_symmetry_Int_Tables_number	1
_symmetry_cell_setting	triclinic
loop_
_symmetry_equiv_pos_as_xyz
  x,y,z
_cell_length_a	12.759395
_cell_length_b	25.639240
_cell_length_c	12.759387
_cell_angle_alpha	89.955243
_cell_angle_beta	89.981185
_cell_angle_gamma	90.034295
loop_
_atom_site_label
_atom_site_type_symbol
_atom_site_fract_x
_atom_site_fract_y
_atom_site_fract_z
Zn1	Zn	1.606119	-0.208096	-0.593912
Zn2	Zn	1.605960	-0.295543	-0.418193
Zn3	Zn	1.430423	-0.208126	-0.418248
Zn4	Zn	1.430354	-0.295504	-0.593832
O5	O	1.518214	-0.251817	-0.506046
O6	O	1.753119	-0.219700	-0.570612
O7	O	1.582636	-0.283976	-0.271179
O8	O	1.453825	-0.134957	-0.441607
O9	O	1.753002	-0.283947	-0.441512
O10	O	1.582908	-0.134935	-0.570666
O11	O	1.453670	-0.219751	-0.271220
O12	O	1.283393	-0.219713	-0.441530
O13	O	1.453708	-0.283881	-0.740864
O14	O	1.283342	-0.283910	-0.570530
O15	O	1.582842	-0.219662	-0.740922
O16	O	1.582570	-0.368703	-0.441435
O17	O	1.453554	-0.368675	-0.570476
C18	C	1.245247	-0.251811	-0.506028
C19	C	1.128470	-0.251821	-0.506045
C20	C	1.128456	-0.318777	-0.640156
C21	C	1.073589	-0.352259	-0.707214
C22	C	0.963867	-0.352265	-0.707227
C23	C	0.909010	-0.318785	-0.640177
C24	C	0.963878	-0.285303	-0.573118
C25	C	1.073602	-0.285301	-0.573111
C26	C	0.963892	-0.218345	-0.439015
C27	C	1.073613	-0.218340	-0.438995
C28	C	0.909035	-0.184865	-0.371964
C29	C	0.963903	-0.151384	-0.304899
C30	C	1.073631	-0.151380	-0.304888
C31	C	1.128481	-0.184858	-0.371936
C32	C	1.518066	-0.387660	-0.505964
C33	C	1.518098	-0.445774	-0.505964
C34	C	1.585461	-0.806087	-0.573368
C35	C	1.585492	-0.860691	-0.573390
O36	O	1.642590	-0.888886	-0.630615
N37	N	1.518360	-0.888056	-0.506148
C38	C	1.451185	-0.860814	-0.438887
O39	O	1.394085	-0.889105	-0.381696
C40	C	1.451149	-0.806211	-0.438872
C41	C	1.518293	-0.778849	-0.506111
C42	C	1.652599	-0.778725	-0.640603
C43	C	1.652569	-0.724124	-0.640580
C44	C	1.585402	-0.696886	-0.573322
C45	C	1.518263	-0.724248	-0.506088
C46	C	1.383969	-0.778970	-0.371618
C47	C	1.383939	-0.724363	-0.371609
C48	C	1.451083	-0.697001	-0.438848
C49	C	1.451066	-0.642410	-0.438808
N50	N	1.518198	-0.615044	-0.506050
C51	C	1.585366	-0.642283	-0.573307
C52	C	1.451263	-0.975485	-0.438926
C53	C	1.451303	-1.030087	-0.438935
C54	C	1.585610	-1.029960	-0.573439
C55	C	1.585574	-0.975357	-0.573424
C56	C	1.518395	-0.948120	-0.506168
C57	C	1.585299	-0.527618	-0.573253
C58	C	1.585266	-0.473012	-0.573221
C59	C	1.450956	-0.473144	-0.438722
C60	C	1.450992	-0.527745	-0.438749
C61	C	1.518167	-0.554980	-0.506024
O62	O	1.393994	-0.614181	-0.381615
O63	O	1.642446	-0.613986	-0.630499
C64	C	1.792247	-0.251824	-0.506065
C65	C	1.909024	-0.251827	-0.506073
C66	C	1.518285	-0.251763	-0.780080
C67	C	1.518316	-0.251740	-0.896857
C68	C	1.518392	-0.115444	-0.506152
C69	C	1.518467	-0.057330	-0.506197
C70	C	1.384032	-0.184858	-0.896918
C71	C	1.316909	-0.151407	-0.951810
C72	C	1.316941	-0.151388	-1.061531
C73	C	1.384100	-0.184825	-1.116364
C74	C	1.451223	-0.218277	-1.061472
C75	C	1.451186	-0.218291	-0.951748
C76	C	1.585499	-0.285161	-1.061411
C77	C	1.585475	-0.285178	-0.951689
C78	C	1.652659	-0.318598	-1.116244
C79	C	1.719788	-0.352047	-1.061352
C80	C	1.719755	-0.352065	-0.951624
C81	C	1.652598	-0.318629	-0.896798
C82	C	1.518204	-0.251833	-0.233079
C83	C	1.518377	-0.251709	-0.116303
H84	H	0.919194	-0.379527	-0.761837
H85	H	1.707241	-0.701849	-0.695334
O86	O	0.802453	-0.184787	-0.372069
C87	C	0.645052	-0.134683	-0.399213
C88	C	0.765756	-0.134700	-0.399163
H89	H	0.615346	-0.094189	-0.421095
H90	H	0.615201	-0.164335	-0.458689
H91	H	0.615248	-0.145508	-0.317809
H92	H	0.795649	-0.123861	-0.480523
H93	H	0.795535	-0.105058	-0.339631
O94	O	1.318584	-0.805515	-0.306418
C95	C	1.139894	-0.822275	-0.255253
C96	C	1.213833	-0.792192	-0.329175
H97	H	1.055188	-0.811506	-0.273611
H98	H	1.151342	-0.865989	-0.266805
H99	H	1.158429	-0.811572	-0.170556
H100	H	1.195344	-0.802851	-0.413900
H101	H	1.202371	-0.748485	-0.317533
H102	H	1.384110	-0.184812	-1.205705
O103	O	1.251774	-0.118943	-0.898383
C104	C	1.192167	-0.089346	-0.729377
C105	C	1.266003	-0.126128	-0.789747
H106	H	1.203629	-0.095150	-0.641535
H107	H	1.210691	-0.047174	-0.750914
H108	H	1.107454	-0.098511	-0.751003
H109	H	1.350740	-0.117010	-0.768154
H110	H	1.247389	-0.168289	-0.768205
H111	H	1.118265	-0.379517	-0.761807
O112	O	1.652559	-0.318742	-0.790215
C113	C	1.625368	-0.368882	-0.632713
C114	C	1.625404	-0.368829	-0.753417
H115	H	1.603394	-0.409370	-0.602926
H116	H	1.706738	-0.358079	-0.602872
H117	H	1.565869	-0.339218	-0.602981
H118	H	1.684851	-0.398493	-0.783238
H119	H	1.543996	-0.379609	-0.783187
H120	H	1.639992	-0.549786	-0.628041
H121	H	1.640300	-1.052148	-0.628206
H122	H	1.262282	-0.124150	-1.106224
H123	H	0.819669	-0.318789	-0.640202
O124	O	1.385988	-1.056583	-0.373577
C125	C	1.252817	-1.050931	-0.240123
C126	C	1.326722	-1.020862	-0.314101
H127	H	1.204897	-1.022064	-0.192002
H128	H	1.197793	-1.076480	-0.288264
H129	H	1.301110	-1.076515	-0.185282
H130	H	1.278514	-0.995250	-0.368957
H131	H	1.381749	-0.995346	-0.265894
O132	O	1.385900	-0.949005	-0.373728
C133	C	1.244054	-0.887411	-0.359424
C134	C	1.317995	-0.917372	-0.433377
H135	H	1.189149	-0.861820	-0.407619
H136	H	1.196009	-0.916330	-0.311389
H137	H	1.292325	-0.861875	-0.304500
H138	H	1.269805	-0.942909	-0.488365
H139	H	1.366044	-0.888425	-0.481337
O140	O	0.910571	-0.118940	-0.239661
C141	C	0.786577	-0.111823	-0.097909
C142	C	0.846932	-0.148625	-0.171712
H143	H	0.735094	-0.135808	-0.042969
H144	H	0.844589	-0.087902	-0.049895
H145	H	0.735309	-0.084504	-0.146287
H146	H	0.898201	-0.175975	-0.123416
H147	H	0.788863	-0.172509	-0.219730
O148	O	1.717953	-0.805098	-0.705973
C149	C	1.851131	-0.799191	-0.839409
C150	C	1.777175	-0.769264	-0.765416
H151	H	1.899015	-0.770232	-0.887503
H152	H	1.906186	-0.824735	-0.791281
H153	H	1.802880	-0.824767	-0.894275
H154	H	1.825341	-0.743659	-0.710535
H155	H	1.722117	-0.743753	-0.813609
O156	O	1.650602	-0.446410	-0.638394
C157	C	1.792369	-0.384672	-0.652644
C158	C	1.718465	-0.414773	-0.578718
H159	H	1.847240	-0.359079	-0.604427
H160	H	1.840452	-0.413500	-0.700702
H161	H	1.744067	-0.359126	-0.707548
H162	H	1.766686	-0.440320	-0.523750
H163	H	1.670378	-0.385917	-0.530734
O164	O	1.650823	-0.948860	-0.638846
C165	C	1.784080	-0.954513	-0.772215
C166	C	1.710223	-0.984581	-0.698188
H167	H	1.832140	-0.983380	-0.820197
H168	H	1.735847	-0.928963	-0.827176
H169	H	1.838984	-0.928929	-0.724013
H170	H	1.655304	-1.010193	-0.746305
H171	H	1.758521	-1.010098	-0.643224
O172	O	1.318569	-0.697882	-0.306424
C173	C	1.176734	-0.636281	-0.292141
C174	C	1.250678	-0.666246	-0.366083
H175	H	1.121839	-0.610688	-0.340345
H176	H	1.128677	-0.665196	-0.244110
H177	H	1.225002	-0.610745	-0.237213
H178	H	1.202490	-0.691782	-0.421074
H179	H	1.298738	-0.637303	-0.414040
O180	O	1.385676	-0.554247	-0.373396
C181	C	1.252499	-0.548603	-0.239946
C182	C	1.326409	-0.518530	-0.313913
H183	H	1.204577	-0.519739	-0.191819
H184	H	1.197477	-0.574149	-0.288098
H185	H	1.300789	-0.574191	-0.185110
H186	H	1.278203	-0.492914	-0.368764
H187	H	1.381434	-0.493017	-0.265696
H188	H	1.118298	-0.124111	-0.250288
O189	O	1.784985	-0.384476	-1.114777
C190	C	1.844488	-0.414116	-1.283788
C191	C	1.770615	-0.377356	-1.223411
H192	H	1.832880	-0.408380	-1.371630
H193	H	1.929237	-0.404942	-1.262314
H194	H	1.825985	-0.456271	-1.262108
H195	H	1.789023	-0.335189	-1.245059
H196	H	1.685888	-0.386575	-1.244891
H197	H	1.217822	-0.184859	-0.371931
H198	H	1.396272	-0.450958	-0.383958
O199	O	1.785055	-0.384579	-0.898468
C200	C	1.918190	-0.450947	-0.910001
C201	C	1.844310	-0.414141	-0.970324
H202	H	1.966101	-0.474866	-0.968070
H203	H	1.973223	-0.426984	-0.858684
H204	H	1.869877	-0.478266	-0.858576
H205	H	1.892538	-0.386815	-1.021806
H206	H	1.789273	-0.438137	-1.021574
H207	H	1.384008	-0.184866	-0.807577
H208	H	1.652674	-0.318583	-1.205585
H209	H	1.217797	-0.318779	-0.640145
