data_functionalizedCrystal
_audit_creation_method	'MofGen! by Chris Wilmer'
_symmetry_space_group_name_H-M	'P1'
_symmetry_Int_Tables_number	1
_symmetry_cell_setting	triclinic
loop_
_symmetry_equiv_pos_as_xyz
  x,y,z
_cell_length_a	14.044220
_cell_length_b	8.559649
_cell_length_c	7.681481
_cell_angle_alpha	94.930900
_cell_angle_beta	96.248816
_cell_angle_gamma	98.516229
loop_
_atom_site_label
_atom_site_type_symbol
_atom_site_fract_x
_atom_site_fract_y
_atom_site_fract_z
O1	O	1.219993	-0.394972	-0.146409
O2	O	1.719993	0.105028	0.353591
O3	O	0.945025	-0.381214	-0.146414
O4	O	1.445025	0.118786	0.353586
O5	O	1.106734	-0.158944	-0.146410
O6	O	1.606734	0.341056	0.353590
O7	O	1.058284	-0.617243	-0.146414
O8	O	1.558284	-0.117243	0.353586
O9	O	1.126643	-0.131518	0.146449
O10	O	1.626643	0.368482	0.646449
O11	O	0.964934	-0.353789	0.146444
O12	O	1.464934	0.146211	0.646444
O13	O	1.239902	-0.367547	0.146449
O14	O	1.739902	0.132453	0.646449
Zn15	Zn	1.105579	-0.356313	0.192944
Zn16	Zn	1.605579	0.143687	0.692944
Zn17	Zn	1.079348	-0.392448	-0.192909
Zn18	Zn	1.579348	0.107552	0.307091
O19	O	1.078193	-0.589817	0.146444
O20	O	1.578193	-0.089817	0.646444
C21	C	1.120360	-0.086225	0.000016
C22	C	1.620360	0.413775	0.500016
C23	C	1.131289	0.089597	0.000007
C24	C	1.631289	0.589597	0.500007
C25	C	0.920104	-0.361479	0.000014
C26	C	1.420104	0.138521	0.500014
C27	C	0.816185	-0.343516	0.000012
C28	C	1.316185	0.156484	0.500012
C29	C	1.264823	-0.387282	0.000017
C30	C	1.764823	0.112718	0.500017
C31	C	1.368741	-0.405247	0.000007
C32	C	1.868741	0.094753	0.500007
C33	C	1.559012	-0.438088	0.000009
C34	C	2.059012	0.061912	0.500009
C35	C	1.625920	-0.310681	0.000010
C36	C	2.125920	0.189319	0.500010
C37	C	1.731793	-0.328955	0.000011
C38	C	2.231793	0.171045	0.500011
C39	C	1.453128	-0.419817	0.000008
C40	C	1.953128	0.080183	0.500008
C41	C	1.064567	-0.662536	0.000014
C42	C	1.564567	-0.162536	0.500014
C43	C	1.053638	-0.838359	0.000012
C44	C	1.553638	-0.338359	0.500012
N45	N	1.123487	-0.331653	0.456279
N46	N	1.623487	0.168347	0.956279
N47	N	1.061448	-0.417097	-0.456244
N48	N	1.561448	0.082903	0.043756
H49	H	1.603679	-0.187893	-0.000116
H50	H	2.103679	0.312107	0.499884
H51	H	0.998119	-0.504308	0.468557
H52	H	1.498119	-0.004308	0.968557
H53	H	1.186826	-0.244448	0.531486
H54	H	1.686826	0.255552	1.031486
H55	H	0.978796	0.088812	0.000017
H56	H	1.478796	0.588812	0.500017
F57	F	1.229122	0.184796	0.000029
F58	F	1.729122	0.684796	0.500029
F59	F	1.588067	-0.598588	-0.000003
F60	F	2.088067	-0.098588	0.499997
