data_functionalizedCrystal
_audit_creation_method	'MofGen! by Chris Wilmer'
_symmetry_space_group_name_H-M	'P1'
_symmetry_Int_Tables_number	1
_symmetry_cell_setting	triclinic
loop_
_symmetry_equiv_pos_as_xyz
  x,y,z
_cell_length_a	14.971475
_cell_length_b	14.971486
_cell_length_c	14.048226
_cell_angle_alpha	90.006640
_cell_angle_beta	90.005580
_cell_angle_gamma	83.611904
loop_
_atom_site_label
_atom_site_type_symbol
_atom_site_fract_x
_atom_site_fract_y
_atom_site_fract_z
O1	O	-1.186953	-0.116518	-0.079142
O2	O	-0.926552	-0.130487	-0.079148
O3	O	-1.063732	0.006698	-0.079138
O4	O	-1.049773	-0.253703	-0.079152
O5	O	-1.063715	0.006706	0.079184
O6	O	-0.926535	-0.130479	0.079173
O7	O	-1.186937	-0.116510	0.079180
Zn8	Zn	-1.056733	-0.123493	0.104313
Zn9	Zn	-1.056755	-0.123504	-0.104282
O10	O	-1.049756	-0.253695	0.079170
C11	C	-0.893218	-0.129860	0.000012
C12	C	-0.793921	-0.127993	0.000010
C13	C	-0.747267	-0.127110	0.086312
C14	C	-0.653968	-0.125341	0.086312
C15	C	-0.607324	-0.124463	0.000010
C16	C	-0.653985	-0.125344	-0.086298
C17	C	-0.747283	-0.127106	-0.086298
C18	C	-0.459522	-0.121674	-0.086293
C19	C	-0.366218	-0.119913	-0.086294
C20	C	-0.366208	-0.119909	0.086317
C21	C	-0.459506	-0.121671	0.086317
C22	C	-0.506160	-0.122554	0.000009
C23	C	-1.063099	0.040026	0.000023
C24	C	-1.061228	0.139323	0.000022
C25	C	-0.220269	-0.117144	0.000016
C26	C	-0.319564	-0.119030	0.000008
C27	C	-1.050389	-0.287024	0.000007
C28	C	-1.052260	-0.386321	0.000002
N29	N	-1.056725	-0.123485	0.246674
C30	C	-1.141818	0.196552	0.000024
C31	C	-1.140055	0.289851	0.000015
C32	C	-1.057701	0.325920	0.000009
C33	C	-0.977106	0.268685	0.000004
C34	C	-0.978870	0.175387	0.000007
C35	C	-0.973434	0.463147	0.000000
C36	C	-0.971670	0.556451	-0.000001
C37	C	-1.134620	0.577611	0.000008
C38	C	-1.136384	0.484314	0.000011
C39	C	-1.055788	0.427084	0.000007
N40	N	-1.056770	-0.123505	-0.246642
C41	C	-1.117487	-0.062765	0.296497
C42	C	-1.117493	-0.062765	0.396154
C43	C	-1.056741	-0.123489	0.445988
C44	C	-0.995972	-0.184213	0.396158
C45	C	-0.995962	-0.184208	0.296502
C46	C	-0.995997	-0.184219	0.603872
C47	C	-0.996008	-0.184225	0.703535
C48	C	-1.117529	-0.062776	0.703524
C49	C	-1.117519	-0.062771	0.603869
C50	C	-1.056751	-0.123496	0.554046
H51	H	-0.615989	-0.124607	0.156588
H52	H	-0.904610	0.585815	0.000010
Cl53	Cl	-1.193923	0.013561	0.766162
Cl54	Cl	-0.307581	-0.118807	-0.194790
Cl55	Cl	-0.872112	0.391203	-0.000005
Cl56	Cl	-1.239916	0.438971	0.000013
Cl57	Cl	-0.307558	-0.118800	0.194819
H58	H	-0.616001	-0.124623	-0.156567
Cl59	Cl	-1.235941	0.649556	0.000008
H60	H	-0.910052	0.298059	-0.000007
H61	H	-0.946510	-0.233665	0.563310
Cl62	Cl	-0.919568	-0.260543	0.233869
H63	H	-0.946536	-0.233673	0.744104
H64	H	-1.166993	-0.013329	0.563294
H65	H	-0.785267	-0.127827	-0.156574
Cl66	Cl	-1.241373	0.361792	0.000021
Cl67	Cl	-0.877552	0.103442	-0.000000
H68	H	-1.166963	-0.013320	0.255929
H69	H	-0.497505	-0.122393	-0.156575
H70	H	-1.166970	-0.013321	0.436719
H71	H	-0.946501	-0.233653	0.436738
H72	H	-1.208880	0.167192	0.000035
H73	H	-0.497480	-0.122392	0.156592
Cl74	Cl	-0.805895	-0.128219	0.194812
