data_functionalizedCrystal
_audit_creation_method	'MofGen! by Chris Wilmer'
_symmetry_space_group_name_H-M	'P1'
_symmetry_Int_Tables_number	1
_symmetry_cell_setting	triclinic
loop_
_symmetry_equiv_pos_as_xyz
  x,y,z
_cell_length_a	19.288864
_cell_length_b	13.339070
_cell_length_c	17.766277
_cell_angle_alpha	89.997794
_cell_angle_beta	89.976791
_cell_angle_gamma	99.382770
loop_
_atom_site_label
_atom_site_type_symbol
_atom_site_fract_x
_atom_site_fract_y
_atom_site_fract_z
O1	O	0.945924	0.126087	-0.062840
O2	O	0.746977	0.143096	-0.062789
O3	O	0.823618	-0.012568	-0.062806
O4	O	0.869283	0.281751	-0.062822
O5	O	0.823598	-0.012576	0.062383
O6	O	0.746957	0.143088	0.062400
O7	O	0.945903	0.126079	0.062349
Cu8	Cu	0.846428	0.134583	0.073805
Cu9	Cu	0.846452	0.134592	-0.074245
O10	O	0.869263	0.281743	0.062366
C11	C	0.720984	0.142544	-0.000188
C12	C	0.643560	0.140901	-0.000168
C13	C	0.616663	0.232238	-0.000185
C14	C	0.543915	0.230694	-0.000193
C15	C	0.498067	0.137809	-0.000200
C16	C	0.524972	0.046461	-0.000178
C17	C	0.597719	0.048007	-0.000163
C18	C	0.375583	0.064794	-0.044080
C19	C	0.302838	0.063252	-0.044100
C20	C	0.273691	0.133037	-0.000245
C21	C	0.317301	0.204382	0.043621
C22	C	0.390047	0.205928	0.043637
C23	C	0.419184	0.136123	-0.000216
C24	C	0.167913	0.222706	-0.000270
C25	C	0.095163	0.221159	-0.000273
C26	C	0.076222	0.036923	-0.000266
C27	C	0.148970	0.038473	-0.000255
C28	C	0.194812	0.131367	-0.000260
C29	C	0.815894	-0.050226	-0.000211
C30	C	0.792901	-0.162423	-0.000208
C31	C	0.971681	-0.528031	-0.000253
C32	C	0.993286	-0.422617	-0.000252
C33	C	0.943192	-0.357563	-0.000241
C34	C	0.871489	-0.397934	-0.000231
C35	C	0.849881	-0.503359	-0.000227
C36	C	0.821392	-0.332891	-0.000215
C37	C	0.749689	-0.373262	-0.000205
C38	C	0.728085	-0.478677	-0.000201
C39	C	0.778180	-0.543730	-0.000212
C40	C	0.842999	-0.227467	-0.000219
C41	C	0.721199	-0.202795	-0.000193
C42	C	0.699594	-0.308209	-0.000195
C43	C	0.971897	0.126630	-0.000254
C44	C	1.049320	0.128273	-0.000278
C45	C	0.876987	0.319401	-0.000231
C46	C	0.899980	0.431598	-0.000238
N47	N	0.846416	0.134575	0.177935
N48	N	0.846468	0.134591	-0.178375
C49	C	0.880375	0.065681	0.217315
C50	C	0.880378	0.065676	0.296116
C51	C	0.846433	0.134583	0.335536
C52	C	0.812467	0.203483	0.296147
C53	C	0.812459	0.203479	0.217347
C54	C	0.855080	0.226676	0.460370
C55	C	0.855093	0.226682	0.539169
C56	C	0.846454	0.134595	0.578582
C57	C	0.837815	0.042500	0.539187
C58	C	0.837807	0.042496	0.460387
C59	C	0.846437	0.134595	0.420982
C60	C	0.880417	0.065690	0.703408
C61	C	0.880415	0.065684	0.782211
C62	C	0.812509	0.203500	0.782240
C63	C	0.812506	0.203497	0.703438
C64	C	0.846463	0.134593	0.664027
H65	H	0.073266	0.295539	-0.000282
H66	H	0.760592	-0.629568	-0.000216
H67	H	0.487638	-0.029167	-0.000194
C68	C	0.921865	-0.183064	-0.000232
H69	H	0.927562	-0.110965	-0.000227
H70	H	0.943357	-0.205408	-0.043892
H71	H	0.943333	-0.205418	0.043426
H72	H	0.653984	0.307880	-0.000191
H73	H	1.051667	-0.389754	-0.000259
C74	C	0.864600	0.327980	0.582497
H75	H	0.869733	0.382822	0.547740
H76	H	0.905343	0.333447	0.613212
H77	H	0.824580	0.330173	0.613261
C78	C	0.514316	0.331165	-0.000215
H79	H	0.464425	0.316938	-0.000220
H80	H	0.530154	0.369266	-0.043872
H81	H	0.530103	0.369269	0.043445
C82	C	0.438016	0.284391	0.091890
H83	H	0.485515	0.275317	0.085612
H84	H	0.425154	0.275252	0.143354
H85	H	0.432983	0.351015	0.076460
C86	C	0.649215	-0.523083	-0.000185
H87	H	0.622474	-0.469245	-0.000185
H88	H	0.638245	-0.563700	0.043473
H89	H	0.638265	-0.563688	-0.043845
H90	H	1.012460	-0.581006	-0.000256
H91	H	0.293572	0.261207	0.079333
H92	H	0.960787	-0.271731	-0.000240
C93	C	0.218341	0.324884	-0.000268
H94	H	0.191900	0.379061	-0.000268
H95	H	0.247136	0.329320	-0.043919
H96	H	0.247090	0.329312	0.043398
H97	H	0.641212	-0.341094	-0.000186
C98	C	0.864589	0.327978	0.417023
H99	H	0.869747	0.382824	0.451770
H100	H	0.824570	0.330179	0.386302
H101	H	0.905331	0.333430	0.386264
H102	H	0.038893	-0.038706	-0.000318
C103	C	0.627307	-0.052468	-0.000153
H104	H	0.589585	-0.108010	-0.000162
H105	H	0.655272	-0.055699	0.043506
H106	H	0.655312	-0.055686	-0.043812
C107	C	0.178559	-0.061999	-0.000248
H108	H	0.140837	-0.117541	-0.000259
H109	H	0.206521	-0.065231	0.043413
H110	H	0.206566	-0.065218	-0.043905
C111	C	0.828295	-0.058798	0.417052
H112	H	0.823245	-0.113642	0.451804
H113	H	0.868264	-0.060934	0.386205
H114	H	0.787491	-0.064315	0.386420
H115	H	0.908031	0.009572	0.328185
H116	H	0.267337	0.005163	-0.079822
H117	H	0.680408	-0.149828	-0.000180
C118	C	0.407638	-0.011967	-0.092331
H119	H	0.371250	-0.054664	-0.118467
H120	H	0.431805	-0.052181	-0.060711
H121	H	0.439626	0.023598	-0.127594
C122	C	0.917717	-0.010120	0.173966
H123	H	0.937937	-0.051159	0.208710
H124	H	0.953611	0.026125	0.143201
H125	H	0.884633	-0.052110	0.143251
C126	C	0.828305	-0.058800	0.582530
H127	H	0.829537	-0.045612	0.635103
H128	H	0.865131	-0.095010	0.569602
H129	H	0.784369	-0.098266	0.569637
C130	C	0.917759	-0.010109	0.660052
H131	H	0.937975	-0.051153	0.694794
H132	H	0.953655	0.026140	0.629291
H133	H	0.884676	-0.052093	0.629331
C134	C	0.917772	-0.010102	0.825528
H135	H	0.938000	-0.051128	0.790767
H136	H	0.884705	-0.052089	0.856288
H137	H	0.953673	0.026165	0.856247
H138	H	0.784866	0.259601	0.814335
C139	C	0.775131	0.279281	0.339505
H140	H	0.780005	0.269424	0.392077
H141	H	0.726693	0.268477	0.326621
H142	H	0.795670	0.346713	0.326574
C143	C	0.775168	0.279298	0.660116
H144	H	0.780024	0.269426	0.607540
H145	H	0.795710	0.346724	0.673020
H146	H	0.726729	0.268497	0.673052
H147	H	0.784805	0.259582	0.185284
