data_functionalizedCrystal
_audit_creation_method	'MofGen! by Chris Wilmer'
_symmetry_space_group_name_H-M	'P1'
_symmetry_Int_Tables_number	1
_symmetry_cell_setting	triclinic
loop_
_symmetry_equiv_pos_as_xyz
  x,y,z
_cell_length_a	23.532361
_cell_length_b	23.532407
_cell_length_c	22.010155
_cell_angle_alpha	90.001349
_cell_angle_beta	89.995857
_cell_angle_gamma	97.160831
loop_
_atom_site_label
_atom_site_type_symbol
_atom_site_fract_x
_atom_site_fract_y
_atom_site_fract_z
O1	O	0.755281	-0.069000	-0.050472
O2	O	1.255281	0.431000	0.449528
O3	O	0.589414	-0.079031	-0.050488
O4	O	1.089414	0.420969	0.449512
O5	O	0.677349	0.008917	-0.050466
O6	O	1.177349	0.508917	0.449534
O7	O	0.667346	-0.156948	-0.050494
O8	O	1.167346	0.343052	0.449506
O9	O	0.677333	0.008903	0.050584
O10	O	1.177333	0.508903	0.550584
O11	O	0.589398	-0.079045	0.050563
O12	O	1.089398	0.420955	0.550563
O13	O	0.755265	-0.069014	0.050578
O14	O	1.255265	0.430986	0.550578
Cu15	Cu	0.672330	-0.074031	0.059797
Cu16	Cu	1.172330	0.425969	0.559797
Cu17	Cu	0.672349	-0.074014	-0.059707
Cu18	Cu	1.172349	0.425986	0.440293
O19	O	0.667330	-0.156962	0.050557
O20	O	1.167330	0.343038	0.550557
C21	C	0.568189	-0.078787	0.000036
C22	C	1.068189	0.421213	0.500036
C23	C	0.504971	-0.078032	0.000030
C24	C	1.004971	0.421968	0.500030
C25	C	0.231736	-0.074721	-0.055048
C26	C	0.731736	0.425279	0.444952
C27	C	0.291136	-0.075436	-0.055050
C28	C	0.791136	0.424564	0.444950
O29	O	0.321869	-0.075779	-0.101894
O30	O	0.821869	0.424221	0.398106
N31	N	0.320832	-0.075804	0.000033
N32	N	0.820832	0.424196	0.500033
C33	C	0.291127	-0.075452	0.055121
C34	C	0.791127	0.424548	0.555121
O35	O	0.321841	-0.075831	0.101973
O36	O	0.821841	0.424169	0.601973
C37	C	0.231729	-0.074733	0.055122
C38	C	0.731729	0.425267	0.555122
C39	C	0.202035	-0.074370	0.000036
C40	C	0.702035	0.425630	0.500036
C41	C	0.202041	-0.074357	-0.110130
C42	C	0.702041	0.425643	0.389870
C43	C	0.142645	-0.073643	-0.110128
C44	C	0.642645	0.426357	0.389872
C45	C	0.112944	-0.073293	-0.055044
C46	C	0.612944	0.426707	0.444956
C47	C	0.142639	-0.073657	0.000037
C48	C	0.642639	0.426343	0.500037
C49	C	0.202026	-0.074377	0.110209
C50	C	0.702026	0.425623	0.610209
C51	C	0.142624	-0.073658	0.110205
C52	C	0.642624	0.426342	0.610205
C53	C	0.112929	-0.073295	0.055119
C54	C	0.612929	0.426705	0.555119
C55	C	0.053542	-0.072592	0.055123
C56	C	0.553542	0.427408	0.555123
N57	N	0.023845	-0.072224	0.000040
N58	N	0.523845	0.427776	0.500040
C59	C	0.053546	-0.072574	-0.055043
C60	C	0.553546	0.427426	0.444957
C61	C	0.415867	-0.076961	0.055115
C62	C	0.915867	0.423039	0.555115
C63	C	0.475264	-0.077684	0.055114
C64	C	0.975264	0.422316	0.555114
C65	C	0.475268	-0.077667	-0.055057
C66	C	0.975268	0.422333	0.444943
C67	C	0.415870	-0.076948	-0.055056
C68	C	0.915870	0.423052	0.444944
C69	C	0.386171	-0.076593	0.000032
C70	C	0.886171	0.423407	0.500032
C71	C	-0.071189	-0.071075	-0.055035
C72	C	0.428811	0.428925	0.444965
C73	C	-0.130591	-0.070364	-0.055029
C74	C	0.369409	0.429636	0.444971
C75	C	-0.130590	-0.070379	0.055142
C76	C	0.369410	0.429621	0.555142
C77	C	-0.071194	-0.071093	0.055135
C78	C	0.428806	0.428907	0.555135
C79	C	-0.041495	-0.071440	0.000042
C80	C	0.458505	0.428560	0.500042
O81	O	0.022771	-0.072246	0.101944
O82	O	0.522771	0.427754	0.601944
O83	O	0.022826	-0.072188	-0.101888
O84	O	0.522826	0.427812	0.398112
C85	C	0.677086	0.030126	0.000061
C86	C	1.177086	0.530126	0.500061
C87	C	0.676320	0.093343	0.000067
C88	C	1.176320	0.593343	0.500067
C89	C	0.776489	-0.069258	0.000054
C90	C	1.276489	0.430742	0.500054
C91	C	0.839708	-0.070014	0.000055
C92	C	1.339708	0.429986	0.500055
N93	N	0.672321	-0.074042	0.143850
N94	N	1.172321	0.425958	0.643850
C95	C	0.723555	0.492454	0.000048
C96	C	1.223555	0.992454	0.500048
C97	C	0.722844	0.551854	0.000045
C98	C	1.222844	1.051854	0.500045
O99	O	0.766630	0.588606	0.000028
O100	O	1.266630	1.088606	0.500028
N101	N	0.670566	0.574471	0.000041
N102	N	1.170566	1.074471	0.500041
C103	C	0.618997	0.537685	0.000034
C104	C	1.118997	1.037685	0.500034
O105	O	0.574465	0.562377	0.000030
O106	O	1.074465	1.062377	0.500030
C107	C	0.619709	0.478286	0.000033
C108	C	1.119709	0.978286	0.500033
C109	C	0.671990	0.455672	0.000043
C110	C	1.171990	0.955672	0.500043
C111	C	0.775832	0.469839	0.000058
C112	C	1.275832	0.969839	0.500058
C113	C	0.776543	0.410443	0.000062
C114	C	1.276543	0.910443	0.500062
C115	C	0.724977	0.373662	0.000057
C116	C	1.224977	0.873662	0.500057
C117	C	0.672701	0.396276	0.000048
C118	C	1.172701	0.896276	0.500048
C119	C	0.568140	0.441501	0.000022
C120	C	1.068140	0.941501	0.500022
C121	C	0.568857	0.382099	0.000020
C122	C	1.068857	0.882099	0.500020
C123	C	0.621137	0.359485	0.000030
C124	C	1.121137	0.859485	0.500030
C125	C	0.621847	0.300099	0.000047
C126	C	1.121847	0.800099	0.500047
N127	N	0.674124	0.277481	0.000051
N128	N	1.174124	0.777481	0.500051
C129	C	0.725690	0.314263	0.000056
C130	C	1.225690	0.814263	0.500056
C131	C	0.617505	0.662427	0.000036
C132	C	1.117505	1.162427	0.500036
C133	C	0.616793	0.721825	0.000041
C134	C	1.116793	1.221825	0.500041
C135	C	0.720640	0.735990	0.000051
C136	C	1.220640	1.235990	0.500051
C137	C	0.721352	0.676591	0.000050
C138	C	1.221352	1.176591	0.500050
C139	C	0.669783	0.639810	0.000040
C140	C	1.169783	1.139810	0.500040
C141	C	0.727179	0.189526	0.000065
C142	C	1.227179	0.689526	0.500065
C143	C	0.727886	0.130124	0.000072
C144	C	1.227886	0.630124	0.500072
C145	C	0.624039	0.115965	0.000059
C146	C	1.124039	0.615965	0.500059
C147	C	0.623332	0.175361	0.000056
C148	C	1.123332	0.675361	0.500056
C149	C	0.674907	0.212141	0.000057
C150	C	1.174907	0.712141	0.500057
O151	O	0.578083	0.263312	0.000062
O152	O	1.078083	0.763312	0.500062
O153	O	0.770214	0.289562	0.000052
O154	O	1.270214	0.789562	0.500052
C155	C	0.667592	0.821829	0.000034
C156	C	1.167592	1.321829	0.500034
C157	C	0.668358	0.758612	0.000043
C158	C	1.168358	1.258612	0.500043
C159	C	0.711288	-0.035081	0.563639
C160	C	1.211288	0.464919	1.063639
C161	C	0.711291	-0.035077	0.627246
C162	C	1.211291	0.464923	1.127246
O163	O	0.744400	-0.001956	0.660146
O164	O	1.244400	0.498044	1.160146
N165	N	0.672348	-0.074008	0.659057
N166	N	1.172348	0.425992	1.159057
C167	C	0.633396	-0.112940	0.627256
C168	C	1.133396	0.387060	1.127256
O169	O	0.600272	-0.146052	0.660155
O170	O	1.100272	0.353948	1.160155
C171	C	0.633391	-0.112940	0.563650
C172	C	1.133391	0.387060	1.063650
C173	C	0.672340	-0.074011	0.531843
C174	C	1.172340	0.425989	1.031843
C175	C	0.750234	0.003845	0.531831
C176	C	1.250234	0.503845	1.031831
C177	C	0.750232	0.003841	0.468228
C178	C	1.250232	0.503841	0.968228
C179	C	0.711284	-0.035090	0.436432
C180	C	1.211284	0.464910	0.936432
C181	C	0.672338	-0.074016	0.468239
C182	C	1.172338	0.425984	0.968239
C183	C	0.594437	-0.151869	0.531851
C184	C	1.094437	0.348131	1.031851
C185	C	0.594435	-0.151866	0.468240
C186	C	1.094435	0.348134	0.968240
C187	C	0.633384	-0.112937	0.436433
C188	C	1.133384	0.387063	0.936433
C189	C	0.633389	-0.112950	0.372840
C190	C	1.133389	0.387050	0.872840
N191	N	0.672331	-0.074020	0.341030
N192	N	1.172331	0.425980	0.841030
C193	C	0.711279	-0.035090	0.372826
C194	C	1.211279	0.464910	0.872826
C195	C	0.633408	-0.112936	0.760834
C196	C	1.133408	0.387064	1.260834
C197	C	0.633415	-0.112938	0.824440
C198	C	1.133415	0.387062	1.324440
C199	C	0.711310	-0.035075	0.824425
C200	C	1.211310	0.464925	1.324425
C201	C	0.711305	-0.035075	0.760818
C202	C	1.211305	0.464925	1.260818
C203	C	0.672351	-0.074005	0.729024
C204	C	1.172351	0.425995	1.229024
C205	C	0.711272	-0.035102	0.239254
C206	C	1.211272	0.464898	0.739254
C207	C	0.711268	-0.035112	0.175645
C208	C	1.211268	0.464888	0.675645
C209	C	0.633372	-0.112973	0.175666
C210	C	1.133372	0.387027	0.675666
C211	C	0.633378	-0.112966	0.239269
C212	C	1.133378	0.387034	0.739269
C213	C	0.672330	-0.074026	0.271062
C214	C	1.172330	0.425974	0.771062
O215	O	0.600295	-0.146053	0.339900
O216	O	1.100295	0.353947	0.839900
O217	O	0.744393	-0.001978	0.339920
O218	O	1.244393	0.498022	0.839920
N219	N	0.672361	-0.074006	0.856241
N220	N	1.172361	0.425994	1.356241
H221	H	0.226193	-0.074671	0.155066
H222	H	0.726193	0.425329	0.655066
O223	O	0.113859	-0.073340	0.163774
O224	O	0.613859	0.426660	0.663774
C225	C	0.152812	-0.073799	0.212388
C226	C	0.652812	0.426201	0.712388
H227	H	0.192692	-0.092340	0.196233
H228	H	0.692692	0.407660	0.696233
H229	H	0.131876	-0.101250	0.250912
H230	H	0.631876	0.398750	0.750912
H231	H	0.165367	-0.028181	0.229330
H232	H	0.665367	0.471819	0.729330
O233	O	0.556544	-0.189706	0.562644
O234	O	1.056544	0.310294	1.062644
C235	C	0.522180	-0.224068	0.520928
C236	C	1.022180	0.275932	1.020928
H237	H	0.521678	-0.200716	0.475590
H238	H	1.021678	0.299284	0.975590
H239	H	0.476648	-0.232993	0.539304
H240	H	0.976648	0.267007	1.039304
H241	H	0.540427	-0.266282	0.514159
H242	H	1.040427	0.233718	1.014159
H243	H	0.391697	-0.076652	-0.099912
H244	H	0.891697	0.423348	0.400088
O245	O	0.386945	-0.076699	0.108591
O246	O	0.886945	0.423301	0.608591
C247	C	0.345860	-0.125621	0.111890
C248	C	0.845860	0.374379	0.611890
H249	H	0.334714	-0.141953	0.064062
H250	H	0.834714	0.358047	0.564062
H251	H	0.305607	-0.114025	0.135212
H252	H	0.805607	0.385975	0.635212
H253	H	0.364036	-0.160446	0.139063
H254	H	0.864036	0.339554	0.639063
H255	H	0.762627	0.765949	0.000053
H256	H	1.262627	1.265949	0.500053
O257	O	0.595467	-0.150724	0.270146
O258	O	1.095467	0.349276	0.770146
C259	C	0.539147	-0.141767	0.254591
C260	C	1.039147	0.358233	0.754591
H261	H	0.539134	-0.096172	0.237097
H262	H	1.039134	0.403828	0.737097
H263	H	0.510526	-0.148457	0.296422
H264	H	1.010526	0.351543	0.796422
H265	H	0.522237	-0.173427	0.217676
H266	H	1.022237	0.326573	0.717676
H267	H	0.601689	-0.144642	0.734950
H268	H	1.101689	0.355358	1.234950
H269	H	0.743022	-0.003375	0.850325
H270	H	1.243022	0.496625	1.350325
O271	O	0.230939	-0.074777	-0.163604
O272	O	0.730939	0.425223	0.336396
C273	C	0.258545	-0.124533	-0.166920
C274	C	0.758545	0.375467	0.333080
H275	H	0.265205	-0.141090	-0.119097
H276	H	0.765205	0.358910	0.380903
H277	H	0.301826	-0.113945	-0.190244
H278	H	0.801826	0.386055	0.309756
H279	H	0.230930	-0.158796	-0.194099
H280	H	0.730930	0.341204	0.305901
O281	O	-0.042430	-0.071422	0.108699
O282	O	0.457570	0.428578	0.608699
C283	C	-0.081388	-0.070977	0.157317
C284	C	0.418612	0.429023	0.657317
H285	H	-0.121270	-0.052439	0.141170
H286	H	0.378730	0.447561	0.641170
H287	H	-0.060458	-0.043530	0.195846
H288	H	0.439542	0.456470	0.695846
H289	H	-0.093937	-0.116599	0.174249
H290	H	0.406063	0.383401	0.674249
H291	H	-0.047016	-0.071358	-0.099898
H292	H	0.452984	0.428642	0.400102
O293	O	0.556673	-0.189709	0.437289
O294	O	1.056673	0.310291	0.937289
C295	C	0.586967	-0.224700	0.400506
C296	C	1.086967	0.275300	0.900506
H297	H	0.631661	-0.201786	0.390968
H298	H	1.131661	0.298214	0.890968
H299	H	0.563141	-0.233839	0.355783
H300	H	1.063141	0.266161	0.855783
H301	H	0.590596	-0.266770	0.425023
H302	H	1.090596	0.233230	0.925023
H303	H	0.601705	-0.144644	0.850333
H304	H	1.101705	0.355356	1.350333
H305	H	0.499462	-0.077951	-0.099909
H306	H	0.999462	0.422049	0.400091
H307	H	0.499435	-0.077989	0.099971
H308	H	0.999435	0.422011	0.599971
H309	H	0.743020	-0.003376	0.734925
H310	H	1.243020	0.496624	1.234925
H311	H	0.582056	0.086007	0.000058
H312	H	1.082056	0.586007	0.500058
O313	O	0.113897	-0.073258	-0.163694
O314	O	0.613897	0.426742	0.336306
C315	C	0.152858	-0.073732	-0.212305
C316	C	0.652858	0.426268	0.287695
H317	H	0.197658	-0.056218	-0.196144
H318	H	0.697658	0.443782	0.303856
H319	H	0.139483	-0.045859	-0.250825
H320	H	0.639483	0.454141	0.249175
H321	H	0.152937	-0.119500	-0.229257
H322	H	0.652937	0.380500	0.270743
H323	H	0.781950	0.035550	0.557714
H324	H	1.281950	0.535550	1.057714
H325	H	0.817825	0.499782	0.000059
H326	H	1.317825	0.999782	0.500059
H327	H	-0.154783	-0.070096	0.099989
H328	H	0.345217	0.429904	0.599989
O329	O	0.595617	-0.150809	0.144705
O330	O	1.095617	0.349191	0.644705
C331	C	0.625911	-0.185796	0.107917
C332	C	1.125911	0.314204	0.607917
H333	H	0.670607	-0.162885	0.098390
H334	H	1.170607	0.337115	0.598390
H335	H	0.602090	-0.194922	0.063189
H336	H	1.102090	0.305078	0.563189
H337	H	0.629532	-0.227872	0.132425
H338	H	1.129532	0.272128	0.632425
H339	H	0.574220	0.740232	0.000044
H340	H	1.074220	1.240232	0.500044
O341	O	-0.159344	-0.069986	-0.108597
O342	O	0.340656	0.430014	0.391403
C343	C	-0.120388	-0.070461	-0.157213
C344	C	0.379612	0.429539	0.342787
H345	H	-0.075588	-0.052939	-0.141059
H346	H	0.424412	0.447061	0.358941
H347	H	-0.133772	-0.042596	-0.195735
H348	H	0.366228	0.457404	0.304265
H349	H	-0.120305	-0.116231	-0.174158
H350	H	0.379695	0.383769	0.325842
O351	O	0.778724	0.108253	0.000053
O352	O	1.278724	0.608253	0.500053
C353	C	0.824083	0.153459	0.000069
C354	C	1.324083	0.653459	0.500069
H355	H	0.808353	0.193722	-0.019066
H356	H	1.308353	0.693722	0.480934
H357	H	0.860608	0.141253	-0.029265
H358	H	1.360608	0.641253	0.470735
H359	H	0.839965	0.161959	0.048549
H360	H	1.339965	0.661959	0.548549
H361	H	0.769176	0.219466	0.000064
H362	H	1.269176	0.719466	0.500064
H363	H	0.763923	0.658183	0.000057
H364	H	1.263923	1.158183	0.500057
H365	H	0.781946	0.035542	0.442334
H366	H	1.281946	0.535542	0.942334
O367	O	0.827379	0.388575	0.000040
O368	O	1.327379	0.888575	0.500040
C369	C	0.872733	0.433786	0.000058
C370	C	1.372733	0.933786	0.500058
H371	H	0.856998	0.474047	-0.019074
H372	H	1.356998	0.974047	0.480926
H373	H	0.909259	0.421585	-0.029278
H374	H	1.409259	0.921585	0.470722
H375	H	0.888615	0.442284	0.048538
H376	H	1.388615	0.942284	0.548538
H377	H	0.575509	0.632483	0.000033
H378	H	1.075509	1.132483	0.500033
O379	O	0.749164	0.002746	0.270038
O380	O	1.249164	0.502746	0.770038
C381	C	0.783524	0.037108	0.228314
C382	C	1.283524	0.537108	0.728314
H383	H	0.784027	0.013752	0.182977
H384	H	1.284027	0.513752	0.682977
H385	H	0.829057	0.046039	0.246680
H386	H	1.329057	0.546039	0.746680
H387	H	0.765272	0.079318	0.221546
H388	H	1.265272	0.579318	0.721546
H389	H	0.525567	0.459902	0.000010
H390	H	1.025567	0.959902	0.500010
H391	H	0.526862	0.352154	0.000011
H392	H	1.026862	0.852154	0.500011
H393	H	0.580761	0.193774	0.000065
H394	H	1.080761	0.693774	0.500065
O395	O	0.748994	0.002793	0.144720
O396	O	1.248994	0.502793	0.644720
C397	C	0.718637	0.037771	0.107996
C398	C	1.218637	0.537771	0.607996
H399	H	0.673975	0.014796	0.098432
H400	H	1.173975	0.514796	0.598432
H401	H	0.742457	0.047007	0.063281
H402	H	1.242457	0.547007	0.563281
H403	H	0.714930	0.079794	0.132576
H404	H	1.214930	0.579794	0.632576
