data_functionalizedCrystal
_audit_creation_method	'MofGen! by Chris Wilmer'
_symmetry_space_group_name_H-M	'P1'
_symmetry_Int_Tables_number	1
_symmetry_cell_setting	triclinic
loop_
_symmetry_equiv_pos_as_xyz
  x,y,z
_cell_length_a	11.026607
_cell_length_b	9.798715
_cell_length_c	10.723024
_cell_angle_alpha	89.998022
_cell_angle_beta	96.526943
_cell_angle_gamma	89.996711
loop_
_atom_site_label
_atom_site_type_symbol
_atom_site_fract_x
_atom_site_fract_y
_atom_site_fract_z
O1	O	1.614520	-0.113489	0.523503
O2	O	2.114520	0.386511	1.023503
O3	O	1.260718	-0.113491	0.463891
O4	O	1.760718	0.386509	0.963891
O5	O	1.445780	-0.113485	0.313882
O6	O	1.945780	0.386515	0.813882
O7	O	1.429458	-0.113495	0.673512
O8	O	1.929458	0.386505	1.173512
O9	O	1.445766	0.113498	0.313879
O10	O	1.945766	0.613498	0.813879
O11	O	1.260704	0.113492	0.463888
O12	O	1.760704	0.613492	0.963888
O13	O	1.614506	0.113494	0.523499
O14	O	2.114506	0.613494	1.023499
Zn15	Zn	1.437603	0.149531	0.493693
Zn16	Zn	1.937603	0.649531	0.993693
Zn17	Zn	1.437621	-0.149528	0.493698
Zn18	Zn	1.937621	0.350472	0.993698
O19	O	1.429444	0.113487	0.673508
O20	O	1.929444	0.613487	1.173508
C21	C	1.215408	0.000000	0.452892
C22	C	1.715408	0.500000	0.952892
C23	C	1.080422	-0.000001	0.420109
C24	C	1.580422	0.499999	0.920109
N25	N	1.437599	0.353631	0.493691
N26	N	1.937599	0.853631	0.993691
N27	N	1.437634	-0.353628	0.493692
N28	N	1.937634	0.146372	0.993692
C29	C	1.007369	-0.000004	0.510629
C30	C	1.507369	0.499996	1.010629
C31	C	0.867853	-0.000005	0.476748
C32	C	1.367853	0.499995	0.976748
C33	C	1.659816	-0.000000	0.534498
C34	C	2.159816	0.500000	1.034498
C35	C	1.794803	-0.000008	0.567282
C36	C	2.294803	0.499992	1.067282
C37	C	1.444585	0.000005	0.267125
C38	C	1.944585	0.500005	0.767125
C39	C	1.441032	0.000000	0.127803
C40	C	1.941032	0.500000	0.627803
C41	C	1.515302	0.421410	0.430355
C42	C	2.015302	0.921410	0.930355
C43	C	1.515321	0.578573	0.430355
C44	C	2.015321	1.078573	0.930355
C45	C	1.544583	-0.000001	0.075171
C46	C	2.044583	0.499999	0.575171
C47	C	1.540912	-0.000006	-0.068824
C48	C	2.040912	0.499994	0.431176
C49	C	1.430639	-0.000005	0.720266
C50	C	1.930639	0.499995	1.220266
C51	C	1.434193	-0.000009	0.859587
C52	C	1.934193	0.499991	1.359587
H53	H	0.827113	-0.000037	0.374161
H54	H	1.327113	0.499963	0.874161
N55	N	0.848754	-0.000035	0.703172
N56	N	1.348754	0.499965	1.203172
H57	H	0.780833	-0.000042	0.758923
H58	H	1.280833	0.499958	1.258923
H59	H	0.900799	0.084107	0.720715
H60	H	1.400799	0.584107	1.220715
H61	H	1.629560	-0.000001	-0.114123
H62	H	2.129560	0.499999	0.385877
H63	H	1.048115	0.000001	0.613209
H64	H	1.548115	0.500001	1.113209
H65	H	1.635954	0.000008	0.136715
H66	H	2.135954	0.500008	0.636715
H67	H	1.345540	0.000001	-0.095122
H68	H	1.845540	0.500001	0.404878
H69	H	1.349660	-0.000009	0.066260
H70	H	1.849660	0.499991	0.566260
N71	N	1.026453	0.000002	0.284229
N72	N	1.526453	0.500002	0.784229
H73	H	1.054391	-0.084139	0.241178
H74	H	1.554391	0.415861	0.741178
H75	H	1.054396	0.084201	0.241279
H76	H	1.554396	0.584201	0.741279
H77	H	1.581808	0.363090	0.376124
H78	H	2.081808	0.863090	0.876124
N79	N	1.603450	0.655770	0.358530
N80	N	2.103450	1.155770	0.858530
H81	H	1.689933	0.630951	0.392114
H82	H	2.189933	1.130951	0.892114
H83	H	1.590867	0.757073	0.368740
H84	H	2.090867	1.257073	0.868740
H85	H	1.371111	0.588094	0.547925
H86	H	1.871111	1.088094	1.047925
N87	N	1.349489	0.430875	0.565511
N88	N	1.849489	0.930875	1.065511
H89	H	1.396621	0.490152	0.631173
H90	H	1.896621	0.990152	1.131173
H91	H	1.297650	0.363965	0.607697
H92	H	1.797650	0.863965	1.107697
