data_functionalizedCrystal
_audit_creation_method	'MofGen! by Chris Wilmer'
_symmetry_space_group_name_H-M	'P1'
_symmetry_Int_Tables_number	1
_symmetry_cell_setting	triclinic
loop_
_symmetry_equiv_pos_as_xyz
  x,y,z
_cell_length_a	25.639239
_cell_length_b	25.639242
_cell_length_c	15.296720
_cell_angle_alpha	80.347553
_cell_angle_beta	99.638856
_cell_angle_gamma	89.966656
loop_
_atom_site_label
_atom_site_type_symbol
_atom_site_fract_x
_atom_site_fract_y
_atom_site_fract_z
Zn1	Zn	-0.259389	-0.748030	-0.510268
Zn2	Zn	0.240611	-0.248030	-0.010268
Zn3	Zn	-0.331701	-0.763089	-0.359416
Zn4	Zn	0.168299	-0.263089	0.140584
Zn5	Zn	-0.244273	-0.675742	-0.359413
Zn6	Zn	0.255727	-0.175742	0.140587
Zn7	Zn	-0.346779	-0.660560	-0.510187
Zn8	Zn	0.153221	-0.160560	-0.010187
O9	O	-0.295535	-0.711855	-0.434821
O10	O	0.204465	-0.211855	0.065179
O11	O	-0.268997	-0.823190	-0.490293
O12	O	0.231003	-0.323190	0.009707
O13	O	-0.307467	-0.764158	-0.233185
O14	O	0.192533	-0.264158	0.266815
O15	O	-0.173116	-0.685383	-0.379457
O16	O	0.326884	-0.185383	0.120543
O17	O	-0.322125	-0.834253	-0.379463
O18	O	0.177875	-0.334253	0.120537
O19	O	-0.184222	-0.738493	-0.490290
O20	O	0.315778	-0.238493	0.009710
O21	O	-0.243234	-0.699984	-0.233182
O22	O	0.256766	-0.199984	0.266818
O23	O	-0.257854	-0.600566	-0.379378
O24	O	0.242146	-0.100566	0.120622
O25	O	-0.347823	-0.659508	-0.636429
O26	O	0.152177	-0.159508	-0.136429
O27	O	-0.333165	-0.589412	-0.490150
O28	O	0.166835	-0.089412	0.009850
O29	O	-0.283618	-0.723772	-0.636489
O30	O	0.216382	-0.223772	-0.136489
O31	O	-0.406863	-0.749436	-0.379384
O32	O	0.093137	-0.249436	0.120616
O33	O	-0.417941	-0.674109	-0.490154
O34	O	0.082059	-0.174109	0.009846
C35	C	-0.295506	-0.576019	-0.434755
C36	C	0.204494	-0.076019	0.065245
C37	C	-0.295508	-0.517906	-0.434749
C38	C	0.204492	-0.017906	0.065251
C39	C	-0.256271	-0.272497	-0.377219
C40	C	0.243729	0.227503	0.122781
C41	C	-0.256266	-0.327102	-0.377210
C42	C	0.243734	0.172898	0.122790
O43	O	-0.222871	-0.360260	-0.328258
O44	O	0.277129	0.139740	0.171742
N45	N	-0.295518	-0.348628	-0.434785
N46	N	0.204482	0.151372	0.065215
C47	C	-0.334775	-0.315546	-0.492380
C48	C	0.165225	0.184454	0.007620
O49	O	-0.368161	-0.338870	-0.541352
O50	O	0.131839	0.161130	-0.041352
C51	C	-0.334778	-0.260941	-0.492392
C52	C	0.165222	0.239059	0.007608
C53	C	-0.295526	-0.239419	-0.434807
C54	C	0.204474	0.260581	0.065193
C55	C	-0.217022	-0.250973	-0.319639
C56	C	0.282978	0.249027	0.180361
C57	C	-0.217028	-0.196372	-0.319646
C58	C	0.282972	0.303628	0.180354
C59	C	-0.256283	-0.163294	-0.377234
C60	C	0.243717	0.336706	0.122766
C61	C	-0.295532	-0.184817	-0.434814
C62	C	0.204468	0.315183	0.065186
C63	C	-0.374032	-0.227859	-0.549990
C64	C	0.125968	0.272141	-0.049990
C65	C	-0.374031	-0.173252	-0.549998
C66	C	0.125969	0.326748	-0.049998
C67	C	-0.334780	-0.151729	-0.492413
C68	C	0.165220	0.348271	0.007587
C69	C	-0.334793	-0.097138	-0.492410
C70	C	0.165207	0.402862	0.007590
N71	N	-0.295541	-0.075611	-0.434835
N72	N	0.204459	0.424389	0.065165
C73	C	-0.256286	-0.108689	-0.377247
C74	C	0.243714	0.391311	0.122753
C75	C	-0.334765	-0.430220	-0.492350
C76	C	0.165235	0.069780	0.007650
C77	C	-0.334765	-0.484823	-0.492334
C78	C	0.165235	0.015177	0.007666
C79	C	-0.256255	-0.496376	-0.377165
C80	C	0.243745	0.003624	0.122835
C81	C	-0.256258	-0.441771	-0.377177
C82	C	0.243742	0.058229	0.122823
C83	C	-0.295513	-0.408693	-0.434775
C84	C	0.204487	0.091307	0.065225
C85	C	-0.256303	0.005978	-0.377267
C86	C	0.243697	0.505978	0.122733
C87	C	-0.256313	0.060584	-0.377277
C88	C	0.243687	0.560584	0.122723
C89	C	-0.334822	0.072132	-0.492448
C90	C	0.165178	0.572132	0.007552
C91	C	-0.334813	0.017530	-0.492435
C92	C	0.165187	0.517530	0.007565
C93	C	-0.295548	-0.015546	-0.434841
C94	C	0.204452	0.484454	0.065159
O95	O	-0.368170	-0.063947	-0.541340
O96	O	0.131830	0.436053	-0.041340
O97	O	-0.222902	-0.085357	-0.328291
O98	O	0.277098	0.414643	0.171709
C99	C	-0.431374	-0.711772	-0.434780
C100	C	0.068626	-0.211772	0.065220
C101	C	-0.489489	-0.711780	-0.434792
C102	C	0.010511	-0.211780	0.065208
C103	C	-0.844084	-0.751156	-0.377241
C104	C	-0.344084	-0.251156	0.122759
C105	C	-0.898690	-0.751175	-0.377253
C106	C	-0.398690	-0.251175	0.122747
O107	O	-0.922018	-0.784566	-0.328276
O108	O	-0.422018	-0.284566	0.171724
N109	N	-0.931780	-0.711941	-0.434881
N110	N	-0.431780	-0.211941	0.065119
C111	C	-0.910264	-0.672689	-0.492506
C112	C	-0.410264	-0.172689	0.007494
O113	O	-0.943424	-0.639320	-0.541525
O114	O	-0.443424	-0.139320	-0.041525
C115	C	-0.855660	-0.672673	-0.492498
C116	C	-0.355660	-0.172673	0.007502
C117	C	-0.822571	-0.711906	-0.434861
C118	C	-0.322571	-0.211906	0.065139
C119	C	-0.810996	-0.790386	-0.319609
C120	C	-0.310996	-0.290386	0.180391
C121	C	-0.756394	-0.790366	-0.319596
C122	C	-0.256394	-0.290366	0.180404
C123	C	-0.734880	-0.751116	-0.377215
C124	C	-0.234880	-0.251116	0.122785
C125	C	-0.767969	-0.711886	-0.434848
C126	C	-0.267969	-0.211886	0.065152
C127	C	-0.834144	-0.633423	-0.550128
C128	C	-0.334144	-0.133423	-0.050128
C129	C	-0.779536	-0.633411	-0.550115
C130	C	-0.279536	-0.133411	-0.050115
C131	C	-0.746447	-0.672644	-0.492477
C132	C	-0.246447	-0.172644	0.007523
C133	C	-0.691854	-0.672616	-0.492454
C134	C	-0.191854	-0.172616	0.007546
N135	N	-0.658763	-0.711850	-0.434826
N136	N	-0.158763	-0.211850	0.065174
C137	C	-0.680276	-0.751100	-0.377207
C138	C	-0.180276	-0.251100	0.122793
C139	C	-1.024936	-0.672727	-0.492520
C140	C	-0.524936	-0.172727	0.007480
C141	C	-1.079539	-0.672741	-0.492525
C142	C	-0.579539	-0.172741	0.007475
C143	C	-1.067961	-0.751227	-0.377273
C144	C	-0.567961	-0.251227	0.122727
C145	C	-1.013357	-0.751211	-0.377264
C146	C	-0.513357	-0.251211	0.122736
C147	C	-0.991845	-0.711961	-0.434893
C148	C	-0.491845	-0.211961	0.065107
C149	C	-0.565609	-0.751055	-0.377184
C150	C	-0.065609	-0.251055	0.122816
C151	C	-0.511002	-0.751030	-0.377173
C152	C	-0.011002	-0.251030	0.122827
C153	C	-0.522585	-0.672546	-0.492428
C154	C	-0.022585	-0.172546	0.007572
C155	C	-0.577187	-0.672569	-0.492436
C156	C	-0.077187	-0.172569	0.007564
C157	C	-0.598697	-0.711828	-0.434810
C158	C	-0.098697	-0.211828	0.065190
O159	O	-0.668489	-0.639243	-0.541409
O160	O	-0.168489	-0.139243	-0.041409
O161	O	-0.647111	-0.784467	-0.328205
O162	O	-0.147111	-0.284467	0.171795
C163	C	-0.159168	-0.711952	-0.434882
C164	C	0.340832	-0.211952	0.065118
C165	C	-0.101057	-0.711993	-0.434908
C166	C	0.398943	-0.211993	0.065092
C167	C	-0.319088	-0.688266	-0.670104
C168	C	0.180912	-0.188266	-0.170104
C169	C	-0.329125	-0.678214	-0.770368
C170	C	0.170875	-0.178214	-0.270368
C171	C	-0.295563	0.151777	-0.434875
C172	C	0.204437	0.651777	0.065125
C173	C	-0.295568	0.093662	-0.434865
C174	C	0.204432	0.593662	0.065135
C175	C	-0.223709	-0.783719	-1.053120
C176	C	0.276291	-0.283719	-0.553120
C177	C	-0.214280	-0.793167	-0.958917
C178	C	0.285720	-0.293167	-0.458917
C179	C	-0.242990	-0.764429	-0.911775
C180	C	0.257010	-0.264429	-0.411775
C181	C	-0.281132	-0.726243	-0.958845
C182	C	0.218868	-0.226243	-0.458845
C183	C	-0.290565	-0.716797	-1.053057
C184	C	0.209435	-0.216797	-0.553057
C185	C	-0.309846	-0.697507	-0.911713
C186	C	0.190154	-0.197507	-0.411713
C187	C	-0.347987	-0.659321	-0.958783
C188	C	0.152013	-0.159321	-0.458783
C189	C	-0.357418	-0.649876	-1.052985
C190	C	0.142582	-0.149876	-0.552985
C191	C	-0.328708	-0.678614	-1.100127
C192	C	0.171292	-0.178614	-0.600127
C193	C	-0.300413	-0.706953	-0.817501
C194	C	0.199587	-0.206953	-0.317501
C195	C	-0.367269	-0.640031	-0.817438
C196	C	0.132731	-0.140031	-0.317438
C197	C	-0.376698	-0.630583	-0.911641
C198	C	0.123302	-0.130583	-0.411641
C199	C	-0.272036	-0.735382	-0.200453
C200	C	0.227964	-0.235382	0.299547
C201	C	-0.261852	-0.745536	-0.100190
C202	C	0.238148	-0.245536	0.399810
H203	H	-0.185066	-0.178854	-0.272754
H204	H	0.314934	0.321146	0.227246
Cl205	Cl	-0.384118	-0.511875	-0.564717
Cl206	Cl	0.115882	-0.011875	-0.064717
H207	H	-0.986418	-0.783158	-0.330332
H208	H	-0.486418	-0.283158	0.169668
Cl209	Cl	-0.618783	-0.623238	-0.564877
Cl210	Cl	-0.118783	-0.123238	-0.064877
H211	H	-0.366736	-0.403290	-0.539251
H212	H	0.133264	0.096710	-0.039251
H213	H	-0.405997	-0.146321	-0.596905
H214	H	0.094003	0.353679	-0.096905
H215	H	-0.224328	-0.020946	-0.330372
H216	H	0.275672	0.479054	0.169628
Cl217	Cl	-0.206965	0.087637	-0.304877
Cl218	Cl	0.293035	0.587637	0.195123
Cl219	Cl	-0.167666	-0.292548	-0.247233
Cl220	Cl	0.332334	0.207452	0.252767
H221	H	-0.366784	0.099073	-0.539332
H222	H	0.133216	0.599073	-0.039332
Cl223	Cl	-0.206911	-0.414720	-0.304783
Cl224	Cl	0.293089	0.085280	0.195217
H225	H	-0.583116	-0.783024	-0.330262
H226	H	-0.083116	-0.283024	0.169738
Cl227	Cl	-1.095016	-0.800570	-0.304835
Cl228	Cl	-0.595016	-0.300570	0.195165
H229	H	-1.106475	-0.640789	-0.539451
H230	H	-0.606475	-0.140789	-0.039451
H231	H	-0.235310	-0.772124	-0.835071
H232	H	0.264690	-0.272124	-0.335071
Cl233	Cl	-0.423380	-0.254903	-0.622390
Cl234	Cl	0.076620	0.245097	-0.122390
H235	H	-0.828505	-0.822351	-0.272688
H236	H	-0.328505	-0.322351	0.227312
Cl237	Cl	-0.206905	-0.537970	-0.304769
Cl238	Cl	0.293095	-0.037970	0.195231
Cl239	Cl	-0.997898	-0.623375	-0.564968
Cl240	Cl	-0.497898	-0.123375	-0.064968
H241	H	-0.366778	0.000005	-0.539319
H242	H	0.133222	0.500005	-0.039319
Cl243	Cl	-0.252464	-0.754957	-0.758339
Cl244	Cl	0.247536	-0.254957	-0.258339
Cl245	Cl	-0.469408	-0.800356	-0.304709
Cl246	Cl	0.030592	-0.300356	0.195291
Cl247	Cl	-0.752497	-0.584065	-0.622568
Cl248	Cl	-0.252497	-0.084065	-0.122568
Cl249	Cl	-0.403367	-0.603905	-0.758181
Cl250	Cl	0.096633	-0.103905	-0.258181
Cl251	Cl	-0.714805	-0.839697	-0.247147
Cl252	Cl	-0.214805	-0.339697	0.252853
H253	H	-0.861076	-0.601474	-0.597058
H254	H	-0.361076	-0.101474	-0.097058
H255	H	-0.505060	-0.640588	-0.539338
H256	H	-0.005060	-0.140588	-0.039338
H257	H	-0.183226	-0.824260	-0.920600
H258	H	0.316774	-0.324260	-0.420600
H259	H	-0.336383	-0.670924	-1.176835
H260	H	0.163617	-0.170924	-0.676835
Cl261	Cl	-0.187626	-0.819846	-1.112388
Cl262	Cl	0.312374	-0.319846	-0.612388
H263	H	-0.388480	-0.618787	-1.091307
H264	H	0.111520	-0.118787	-0.591307
H265	H	-0.407753	-0.599491	-0.949978
H266	H	0.092247	-0.099491	-0.449978
