data_functionalizedCrystal
_audit_creation_method	'MofGen! by Chris Wilmer'
_symmetry_space_group_name_H-M	'P1'
_symmetry_Int_Tables_number	1
_symmetry_cell_setting	triclinic
loop_
_symmetry_equiv_pos_as_xyz
  x,y,z
_cell_length_a	16.959455
_cell_length_b	16.959453
_cell_length_c	21.395355
_cell_angle_alpha	90.017325
_cell_angle_beta	90.023799
_cell_angle_gamma	90.019416
loop_
_atom_site_label
_atom_site_type_symbol
_atom_site_fract_x
_atom_site_fract_y
_atom_site_fract_z
Zn1	Zn	1.208455	-0.314785	0.354254
Zn2	Zn	1.208357	-0.446946	0.249479
Zn3	Zn	1.076263	-0.314784	0.249492
Zn4	Zn	1.076248	-0.446924	0.354220
O5	O	1.142331	-0.380860	0.301861
O6	O	1.319053	-0.332326	0.340364
O7	O	1.190799	-0.429423	0.161803
O8	O	1.093845	-0.204173	0.263409
O9	O	1.318981	-0.429424	0.263386
O10	O	1.190967	-0.204174	0.340377
O11	O	1.093750	-0.332324	0.161812
O12	O	0.965650	-0.332303	0.263376
O13	O	1.093821	-0.429387	0.441903
O14	O	0.965640	-0.429386	0.340319
O15	O	1.190953	-0.332305	0.441927
O16	O	1.190785	-0.557554	0.263353
O17	O	1.093726	-0.557538	0.340306
C18	C	0.936965	-0.380843	0.301846
C19	C	0.849108	-0.380854	0.301854
C20	C	1.142265	-0.586226	0.301838
C21	C	1.142309	-0.674083	0.301849
C22	C	0.807794	-0.431337	0.261718
C23	C	0.807868	-0.330378	0.341995
C24	C	0.725322	-0.330384	0.342002
C25	C	0.684009	-0.380867	0.301867
C26	C	0.725241	-0.431343	0.261723
C27	C	0.684083	-0.279904	0.382141
C28	C	0.601532	-0.279907	0.382149
C29	C	0.560218	-0.330394	0.342016
C30	C	0.601455	-0.380873	0.301871
C31	C	0.560142	-0.431355	0.261736
C32	C	0.601378	-0.481839	0.221594
C33	C	0.683926	-0.481830	0.221590
C34	C	0.477669	-0.330403	0.342020
C35	C	0.477588	-0.431361	0.261741
C36	C	1.192967	-1.045500	0.342014
C37	C	1.091916	-1.045616	0.261801
C38	C	1.091886	-0.963070	0.261787
C39	C	1.142397	-0.921736	0.301887
C40	C	1.192937	-0.962947	0.342002
C41	C	1.041342	-0.921853	0.221677
C42	C	1.041310	-0.839302	0.221662
C43	C	1.091825	-0.797966	0.261760
C44	C	1.142368	-0.839182	0.301876
C45	C	1.192878	-0.797847	0.341976
C46	C	1.243426	-0.839062	0.382090
C47	C	1.243452	-0.921610	0.382100
C48	C	1.091798	-0.715418	0.261749
C49	C	1.192849	-0.715294	0.341964
C50	C	1.348499	-0.380878	0.301877
C51	C	1.436356	-0.380885	0.301884
C52	C	1.142396	-0.380844	0.465285
C53	C	1.142424	-0.380837	0.534926
C54	C	1.142419	-0.174692	0.301898
C55	C	1.142456	-0.086835	0.301914
C56	C	1.142311	-0.380819	0.139074
C57	C	1.142436	-0.380603	0.069433
C58	C	1.192999	-0.330284	0.567653
C59	C	1.192998	-0.330250	0.633088
C60	C	1.142431	-0.380783	0.665794
C61	C	1.091846	-0.431339	0.633059
C62	C	1.091843	-0.431366	0.567625
C63	C	1.136166	-0.451954	0.769461
C64	C	1.136175	-0.451929	0.834894
C65	C	1.142435	-0.380700	0.867615
C66	C	1.148704	-0.309494	0.834895
C67	C	1.148701	-0.309521	0.769461
C68	C	1.142428	-0.380759	0.736747
C69	C	1.193011	-0.330106	0.971295
C70	C	1.193005	-0.330070	1.036731
C71	C	1.091858	-0.431167	1.036701
C72	C	1.091860	-0.431195	0.971266
C73	C	1.142441	-0.380666	0.938566
H74	H	0.443956	-0.472474	0.229059
H75	H	1.050656	-0.472531	0.540979
C76	C	1.298985	-0.793583	0.426199
N77	N	1.340833	-0.759325	0.459420
H78	H	1.284605	-0.955175	0.414759
C79	C	0.729533	-0.224370	0.426282
N80	N	0.763769	-0.182540	0.459530
H81	H	1.234123	-1.079061	0.374672
C82	C	1.248629	-0.274690	0.531688
N83	N	1.290527	-0.232812	0.504597
H84	H	1.233984	-0.681644	0.374617
C85	C	0.555922	-0.537366	0.177444
N86	N	0.521682	-0.579188	0.144192
C87	C	0.729292	-0.537347	0.177430
N88	N	0.763464	-0.579157	0.144166
C89	C	0.853154	-0.486862	0.217561
N90	N	0.887320	-0.528682	0.184300
C91	C	0.556180	-0.224381	0.426310
N92	N	0.522021	-0.182560	0.459575
C93	C	0.985701	-0.793974	0.177542
N94	N	0.943813	-0.759832	0.144312
H95	H	1.000217	-0.955514	0.189031
H96	H	0.841510	-0.289274	0.374669
H97	H	1.050682	-0.472365	0.944619
H98	H	1.050789	-1.079276	0.229156
H99	H	0.444098	-0.289294	0.374698
H100	H	1.050640	-0.681864	0.229092
H101	H	1.234193	-0.288957	0.944670
C102	C	1.155589	-0.231135	0.870883
N103	N	1.160776	-0.172117	0.897993
C104	C	1.248640	-0.274641	0.669095
N105	N	1.290553	-0.232758	0.696214
H106	H	1.153803	-0.251543	0.742823
H107	H	1.234187	-0.288900	1.063377
H108	H	1.050677	-0.472303	1.063330
C109	C	1.129279	-0.530256	0.870880
N110	N	1.124083	-0.589254	0.897983
H111	H	1.130857	-0.509943	0.742825
C112	C	1.036219	-0.486922	0.669037
N113	N	0.994316	-0.528786	0.696136
