data_functionalizedCrystal
_audit_creation_method	'MofGen! by Chris Wilmer'
_symmetry_space_group_name_H-M	'P1'
_symmetry_Int_Tables_number	1
_symmetry_cell_setting	triclinic
loop_
_symmetry_equiv_pos_as_xyz
  x,y,z
_cell_length_a	21.606444
_cell_length_b	14.560438
_cell_length_c	14.560438
_cell_angle_alpha	90.001292
_cell_angle_beta	59.999093
_cell_angle_gamma	60.002321
loop_
_atom_site_label
_atom_site_type_symbol
_atom_site_fract_x
_atom_site_fract_y
_atom_site_fract_z
Zr1	Zr	0.677435	-0.120462	0.884759
O2	O	0.806553	-0.267107	0.738110
O3	O	0.548317	-0.075512	0.929716
O4	O	0.677433	-0.267107	0.929716
O5	O	0.677439	0.075626	0.738108
O6	O	0.677431	-0.267102	1.080857
O7	O	0.677437	-0.075512	0.738110
O8	O	0.446466	0.075626	1.080857
O9	O	0.908404	-0.267102	0.738108
O10	O	0.601423	-0.056333	1.061683
O11	O	0.601426	0.056456	0.948887
O12	O	0.753444	-0.169122	0.948887
O13	O	0.753446	-0.056333	0.836091
Zr14	Zr	0.677435	0.120594	1.125809
Zr15	Zr	0.677432	-0.120454	1.125811
Zr16	Zr	0.677438	0.120586	0.884757
Zr17	Zr	0.839875	-0.120455	0.884756
Zr18	Zr	0.514994	0.120586	1.125812
O19	O	0.806553	0.075643	1.080852
O20	O	0.806549	-0.267096	1.080855
O21	O	0.806557	0.075632	0.738106
O22	O	0.548316	0.267238	1.272459
O23	O	0.548312	-0.075501	1.272462
O24	O	0.548320	0.267227	0.929713
O25	O	0.677431	-0.075495	1.272460
O26	O	0.677437	0.267238	1.080852
O27	O	0.677439	0.267233	0.929711
O28	O	0.677432	0.075643	1.272458
O29	O	0.908402	-0.267096	0.929712
O30	O	0.446468	0.267227	1.080856
O31	O	0.446465	0.267233	1.272460
O32	O	0.446463	0.075632	1.272462
O33	O	0.908406	-0.075501	0.738106
O34	O	0.908404	-0.075495	0.929711
O35	O	0.601426	0.169253	1.061681
O36	O	0.601423	0.056464	1.174477
O37	O	0.753444	-0.056325	1.061681
O38	O	0.753446	0.056464	0.948885
C39	C	0.474247	0.000056	1.005287
C40	C	0.405287	0.000052	1.005288
C41	C	0.677439	0.000056	0.703764
C42	C	0.677440	0.000052	0.601431
C43	C	0.677438	0.301580	1.005281
C44	C	0.677439	0.403911	1.005280
C45	C	0.372888	-0.058824	1.064164
C46	C	0.308088	-0.058816	1.064168
C47	C	0.275692	0.000062	1.005289
C48	C	0.308094	0.058945	0.946411
C49	C	0.372888	0.058944	0.946415
C50	C	0.046785	0.058955	0.946398
C51	C	-0.018012	0.058949	0.946397
C52	C	-0.018016	-0.058805	1.064152
C53	C	0.046778	-0.058807	1.064155
C54	C	0.079171	0.000081	1.005283
C55	C	0.149433	0.000074	1.005281
C56	C	0.205436	0.000063	1.005284
C57	C	0.880623	0.000075	1.005281
C58	C	0.949583	0.000079	1.005280
C59	C	0.677431	-0.301449	1.005287
C60	C	0.677430	-0.403780	1.005288
C61	C	0.756791	0.393115	0.946407
C62	C	0.756787	0.489270	0.946407
C63	C	0.598072	0.607014	1.064163
C64	C	0.598078	0.510860	1.064155
C65	C	0.848424	0.325137	0.878426
C66	C	0.848419	0.421292	0.878426
C67	C	0.677440	-0.083209	0.553349
C68	C	0.677432	-0.083194	0.457203
C69	C	0.677427	0.083349	0.457228
C70	C	0.677429	0.083337	0.553377
C71	C	0.677447	-0.179364	0.553331
C72	C	0.677439	-0.179349	0.457185
C73	C	0.677431	0.000075	1.306804
C74	C	0.677430	0.000079	1.409137
C75	C	0.474243	0.000066	1.306807
C76	C	0.405282	0.000066	1.409141
C77	C	0.474250	0.301570	1.005284
C78	C	0.405291	0.403898	1.005285
C79	C	0.474246	0.301580	1.306804
C80	C	0.405286	0.403911	1.409137
C81	C	0.880623	-0.301449	0.703764
C82	C	0.949583	-0.403780	0.601431
C83	C	0.880627	0.000065	0.703761
C84	C	0.949588	0.000065	0.601427
C85	C	0.880619	-0.301439	1.005284
C86	C	0.949578	-0.403767	1.005284
C87	C	0.372897	-0.058823	1.398321
C88	C	0.308109	-0.058845	1.494466
C89	C	0.275703	0.000028	1.601429
C90	C	0.308094	0.058918	1.612247
C91	C	0.372885	0.058934	1.516103
C92	C	0.372907	0.510841	1.064162
C93	C	0.308122	0.606998	1.064158
C94	C	0.275718	0.596210	1.005282
C95	C	0.308108	0.489256	0.946398
C96	C	0.372896	0.393101	0.946396
C97	C	0.372900	0.393092	1.516082
C98	C	0.308114	0.489234	1.612245
C99	C	0.275710	0.596194	1.601459
C100	C	0.308102	0.607011	1.494503
C101	C	0.372892	0.510870	1.398343
C102	C	0.981977	-0.392961	0.494486
C103	C	1.046784	-0.489103	0.398324
C104	C	1.079191	-0.596063	0.409109
C105	C	1.046795	-0.606879	0.516065
C106	C	0.981994	-0.510739	0.612225
C107	C	0.981980	0.058944	0.612247
C108	C	1.046785	0.058940	0.516102
C109	C	1.079194	0.000063	0.409139
C110	C	1.046799	-0.058823	0.398321
C111	C	0.981999	-0.058825	0.494465
C112	C	0.981962	-0.392943	1.064171
C113	C	1.046748	-0.489081	1.064192
C114	C	1.079153	-0.596043	1.005320
C115	C	1.046763	-0.606865	0.946431
C116	C	0.981974	-0.510728	0.946417
H117	H	0.399264	-0.106775	1.112104
H118	H	1.073189	-0.693977	0.524834
F119	F	-0.052499	-0.121476	1.126814
F120	F	0.206745	0.000003	1.703745
F121	F	0.947486	-0.279114	1.126835
F122	F	1.081249	-0.477568	0.284504
F123	F	0.597824	-0.168548	0.646516
H124	H	0.399274	0.306009	1.524886
F125	F	0.947497	-0.279136	0.482981
F126	F	-0.052490	0.121620	0.883728
F127	F	1.148158	-0.698376	0.306756
F128	F	1.081265	-0.720712	0.883771
H129	H	0.533459	0.694102	1.112095
H130	H	1.073113	-0.480248	1.112145
H131	H	0.738360	-0.261461	0.385880
H132	H	0.281747	0.480407	1.699324
F133	F	0.947520	-0.522270	0.726042
H134	H	0.533462	0.519660	1.112084
F135	F	0.947502	0.121610	0.726077
H136	H	0.955614	-0.519557	0.898459
H137	H	1.073150	0.106896	0.524932
F138	F	0.894395	0.421297	0.927870
F139	F	1.148110	-0.698353	1.005343
H140	H	0.677417	0.151143	0.592533
F141	F	1.148159	0.000076	0.306823
F142	F	0.206753	0.698507	1.703812
H143	H	0.073148	0.106910	0.898465
F144	F	0.273607	0.720854	1.483041
H145	H	0.281708	0.106891	0.898477
F146	F	1.081297	-0.121477	0.284473
H147	H	0.955628	-0.106767	0.485639
H148	H	0.399269	0.106884	0.898469
F149	F	0.677414	0.171982	0.406078
H150	H	0.281708	-0.106757	1.112110
H151	H	0.073156	-0.106755	1.112095
F152	F	0.894415	0.256909	0.760751
H153	H	0.281758	0.694075	1.112112
F154	F	0.273595	0.121575	1.726095
F155	F	0.407349	0.522402	1.284526
H156	H	0.876851	0.274223	0.923289
F157	F	0.759605	-0.279313	0.531348
H158	H	0.876865	0.430010	0.791369
F159	F	0.407376	-0.121492	1.284491
F160	F	0.595277	-0.157377	0.479164
H161	H	0.281744	-0.106801	1.485636
F162	F	0.407340	0.121622	1.527636
H163	H	0.222963	0.674514	1.005293
H164	H	0.399284	0.519647	1.112105
H165	H	0.281715	0.480488	0.898463
F166	F	0.407351	0.279287	0.883733
