data_functionalizedCrystal
_audit_creation_method	'MofGen! by Chris Wilmer'
_symmetry_space_group_name_H-M	'P1'
_symmetry_Int_Tables_number	1
_symmetry_cell_setting	triclinic
loop_
_symmetry_equiv_pos_as_xyz
  x,y,z
_cell_length_a	10.489741
_cell_length_b	15.944551
_cell_length_c	9.565339
_cell_angle_alpha	89.999279
_cell_angle_beta	89.999100
_cell_angle_gamma	84.018956
loop_
_atom_site_label
_atom_site_type_symbol
_atom_site_fract_x
_atom_site_fract_y
_atom_site_fract_z
O1	O	1.692410	0.118501	-0.116177
O2	O	1.321060	0.129624	-0.116199
O3	O	1.516876	0.001849	-0.116175
O4	O	1.496594	0.246276	-0.116201
O5	O	1.516860	0.001857	0.116345
O6	O	1.321045	0.129632	0.116321
O7	O	1.692395	0.118509	0.116343
Zn8	Zn	1.506717	0.124072	0.153250
Zn9	Zn	1.506738	0.124061	-0.153106
O10	O	1.496579	0.246284	0.116319
C11	C	1.273532	0.128788	0.000058
C12	C	1.131938	0.126275	0.000050
C13	C	1.064925	0.044975	0.000072
C14	C	0.972273	0.083376	-0.114573
C15	C	0.972292	0.083403	0.114673
C16	C	1.041151	0.164709	-0.114690
C17	C	1.041179	0.164725	0.114659
C18	C	0.948554	0.203186	-0.000014
C19	C	1.516026	-0.029446	0.000085
C20	C	1.513502	-0.122708	0.000086
C21	C	1.386093	-0.338330	0.000059
C22	C	1.445250	-0.398988	0.114709
C23	C	1.508935	-0.293461	0.000075
C24	C	1.445294	-0.398979	-0.114537
C25	C	1.504515	-0.458400	0.000058
C26	C	1.568126	-0.352890	0.114820
C27	C	1.568153	-0.352875	-0.114530
C28	C	1.627399	-0.413515	0.000148
C29	C	1.511478	-0.198443	0.000086
C30	C	1.501982	-0.553417	0.000058
C31	C	1.739922	0.119345	0.000083
C32	C	1.881517	0.121858	0.000082
C33	C	1.497429	0.277579	0.000056
C34	C	1.499953	0.370841	0.000046
N35	N	1.506713	0.124078	0.362329
N36	N	1.506752	0.124048	-0.362185
C37	C	1.416127	0.183150	0.453521
C38	C	1.531388	0.200146	0.546705
C39	C	1.391501	0.107089	0.546701
C40	C	1.622032	0.141112	0.453461
C41	C	1.482069	0.048022	0.453449
C42	C	1.597414	0.064986	0.546591
H43	H	0.941742	0.048973	-0.211493
O44	O	1.688845	0.005268	0.594877
C45	C	1.767322	-0.142213	0.600228
C46	C	1.663709	-0.074673	0.545419
H47	H	1.747021	-0.206863	0.560287
H48	H	1.865470	-0.127655	0.561667
H49	H	1.766133	-0.142123	0.719403
H50	H	1.664780	-0.074725	0.426247
H51	H	1.565608	-0.089255	0.584086
O52	O	1.456906	-0.028637	0.404595
C53	C	1.306981	-0.133225	0.396661
C54	C	1.335321	-0.046390	0.452057
H55	H	1.208693	-0.147613	0.435035
H56	H	1.308058	-0.132665	0.277487
H57	H	1.383269	-0.183715	0.436531
H58	H	1.259064	0.004148	0.412290
H59	H	1.334290	-0.047021	0.571229
O60	O	1.383488	-0.423294	-0.230317
C61	C	1.376899	-0.426189	-0.482070
C62	C	1.447044	-0.398627	-0.351077
H63	H	1.428240	-0.406242	-0.579737
H64	H	1.376429	-0.497656	-0.481604
H65	H	1.274029	-0.395020	-0.481835
H66	H	1.549943	-0.429736	-0.351226
H67	H	1.447411	-0.327154	-0.351593
H68	H	1.719502	0.155546	0.412677
O69	O	1.077582	0.205654	-0.230415
C70	C	1.252731	0.254006	-0.360214
C71	C	1.211650	0.207606	-0.229116
H72	H	1.361125	0.255615	-0.359192
H73	H	1.223866	0.219578	-0.457839
H74	H	1.203589	0.321235	-0.360614
H75	H	1.260772	0.140375	-0.228579
H76	H	1.240492	0.242099	-0.131549
H77	H	1.393286	-0.419405	0.211631
O78	O	0.935853	0.042237	0.230163
C79	C	0.832661	-0.074681	0.320040
C80	C	0.873878	-0.028147	0.189143
H81	H	0.782522	-0.131585	0.286922
H82	H	0.920796	-0.096712	0.385264
H83	H	0.764068	-0.030152	0.384849
H84	H	0.942441	-0.072627	0.124226
H85	H	0.785684	-0.006103	0.124023
O86	O	1.749217	-0.452228	0.000042
C87	C	1.952237	-0.471647	-0.119744
C88	C	1.814318	-0.427747	-0.119789
H89	H	2.004903	-0.451884	-0.216631
H90	H	2.004425	-0.452683	-0.022005
H91	H	1.949453	-0.542930	-0.120602
H92	H	1.816984	-0.356457	-0.118981
H93	H	1.762185	-0.446780	-0.217520
H94	H	1.620033	-0.332584	0.211854
O95	O	1.324958	0.242908	0.404818
C96	C	1.247963	0.390596	0.397151
C97	C	1.351300	0.323009	0.452377
H98	H	1.269208	0.455372	0.435604
H99	H	1.248183	0.389718	0.277976
H100	H	1.149929	0.376721	0.437071
H101	H	1.449385	0.336839	0.412560
H102	H	1.350967	0.323903	0.571550
H103	H	1.071742	0.199100	0.211583
O104	O	0.888531	0.283014	-0.000338
C105	C	0.855617	0.416021	-0.121466
C106	C	0.923652	0.325635	-0.121282
H107	H	0.884008	0.450512	-0.219224
H108	H	0.747389	0.413575	-0.120623
H109	H	0.885157	0.450910	-0.024615
H110	H	0.894217	0.290694	-0.218116
H111	H	1.031867	0.328142	-0.122053
H112	H	1.294052	0.092733	0.587660
O113	O	1.264432	-0.299358	0.000428
C114	C	1.062243	-0.278559	0.121670
C115	C	1.199994	-0.322734	0.121436
H116	H	1.010096	-0.297456	0.219479
H117	H	1.065221	-0.207291	0.120760
H118	H	1.009403	-0.298272	0.024872
H119	H	1.252914	-0.303089	0.218217
H120	H	1.196924	-0.393993	0.122273
O121	O	1.125428	-0.034724	-0.000234
C122	C	1.271909	-0.136780	-0.120289
C123	C	1.203489	-0.046498	-0.120090
H124	H	1.335017	-0.146334	-0.217196
H125	H	1.333832	-0.146865	-0.022571
H126	H	1.197447	-0.184001	-0.121286
H127	H	1.277862	0.000780	-0.119142
H128	H	1.141542	-0.036484	-0.217799
H129	H	1.620072	-0.332436	-0.211456
O130	O	1.556323	0.276798	0.595824
C131	C	1.585262	0.362425	0.798649
C132	C	1.557059	0.275570	0.743215
H133	H	1.585840	0.361466	0.917820
H134	H	1.682782	0.377410	0.758807
H135	H	1.507947	0.412723	0.760344
H136	H	1.634294	0.225215	0.781497
H137	H	1.459501	0.260657	0.783046
