data_functionalizedCrystal
_audit_creation_method	'MofGen! by Chris Wilmer'
_symmetry_space_group_name_H-M	'P1'
_symmetry_Int_Tables_number	1
_symmetry_cell_setting	triclinic
loop_
_symmetry_equiv_pos_as_xyz
  x,y,z
_cell_length_a	17.699077
_cell_length_b	13.262508
_cell_length_c	16.776229
_cell_angle_alpha	105.911687
_cell_angle_beta	89.993415
_cell_angle_gamma	83.880229
loop_
_atom_site_label
_atom_site_type_symbol
_atom_site_fract_x
_atom_site_fract_y
_atom_site_fract_z
O1	O	1.004672	0.132697	-0.037506
O2	O	0.784370	0.149971	-0.033764
O3	O	0.900067	-0.011467	-0.068761
O4	O	0.888976	0.294135	-0.002510
O5	O	0.900052	-0.011477	0.063814
O6	O	0.784355	0.149961	0.098810
O7	O	1.004657	0.132687	0.095068
Zn8	Zn	0.894503	0.141322	0.117988
Zn9	Zn	0.894524	0.141335	-0.056684
O10	O	0.888960	0.294125	0.130064
C11	C	0.756163	0.149348	0.032388
C12	C	0.672136	0.147494	0.031985
C13	C	0.632657	0.146616	0.104063
C14	C	0.553706	0.144857	0.103682
C15	C	0.514236	0.143985	0.031225
C16	C	0.553722	0.144861	-0.040859
C17	C	0.632671	0.146612	-0.040479
C18	C	0.235327	0.137798	-0.042392
C19	C	0.156372	0.136050	-0.042765
C20	C	0.156362	0.136043	0.101770
C21	C	0.235311	0.137794	0.102150
C22	C	0.274791	0.138664	0.030065
C23	C	0.360398	0.140569	0.030478
C24	C	0.428630	0.142088	0.030813
C25	C	0.899439	-0.050573	-0.010952
C26	C	0.897581	-0.167082	-0.036215
C27	C	0.892308	-0.495536	0.181648
C28	C	0.894047	-0.386069	0.205385
C29	C	0.894931	-0.331317	0.144987
C30	C	0.894075	-0.386042	0.060848
C31	C	0.892329	-0.495519	0.037110
C32	C	0.894953	-0.331300	0.000448
C33	C	0.894096	-0.386026	-0.083690
C34	C	0.892352	-0.495491	-0.107425
C35	C	0.891468	-0.550243	-0.047027
C36	C	0.896698	-0.221823	0.024187
C37	C	0.896720	-0.221807	-0.120351
C38	C	0.894980	-0.331273	-0.144088
C39	C	1.032865	0.133309	0.028914
C40	C	1.116891	0.135163	0.029312
C41	C	0.889588	0.333231	0.072254
C42	C	0.891446	0.449740	0.097511
N43	N	0.894495	0.141313	0.237197
N44	N	0.894538	0.141337	-0.175895
C45	C	0.945741	0.069857	0.263424
C46	C	0.945746	0.069856	0.346876
C47	C	0.894507	0.141317	0.404101
C48	C	0.843255	0.212776	0.377869
C49	C	0.843248	0.212771	0.294417
C50	C	0.843282	0.212796	0.714420
C51	C	0.843295	0.212798	0.797877
C52	C	0.945780	0.069882	0.766880
C53	C	0.945773	0.069877	0.683428
C54	C	0.894519	0.141332	0.657202
C55	C	0.894514	0.141330	0.566714
C56	C	0.894515	0.141324	0.494589
H57	H	0.664786	0.147334	0.163068
F58	F	0.511691	0.143936	0.180401
F59	F	0.114339	0.135112	0.178489
F60	F	0.277313	0.138728	0.179270
H61	H	0.124237	0.135339	-0.101772
H62	H	0.987499	0.011691	0.636838
H63	H	0.267462	0.138503	-0.101088
F64	F	0.511716	0.143900	-0.117981
H65	H	0.890055	-0.639381	-0.066350
F66	F	0.674689	0.147543	-0.117195
F67	F	0.788737	0.288845	0.686516
H68	H	0.891648	-0.540045	-0.175936
F69	F	0.897610	-0.163593	0.113731
F70	F	0.891354	-0.553810	0.245918
F71	F	0.896780	-0.214811	0.170252
F72	F	0.897648	-0.163539	-0.184635
H73	H	0.894752	-0.341520	0.273890
F74	F	1.000282	-0.006198	0.202529
H75	H	0.894283	-0.375846	-0.212595
H76	H	0.987474	0.011671	0.368229
F77	F	1.000328	-0.006171	0.794796
H78	H	0.801567	0.270992	0.844471
H79	H	0.801531	0.270957	0.424465
F80	F	0.788702	0.288821	0.266506
