data_functionalizedCrystal
_audit_creation_method	'MofGen! by Chris Wilmer'
_symmetry_space_group_name_H-M	'P1'
_symmetry_Int_Tables_number	1
_symmetry_cell_setting	triclinic
loop_
_symmetry_equiv_pos_as_xyz
  x,y,z
_cell_length_a	17.699083
_cell_length_b	10.489741
_cell_length_c	16.776229
_cell_angle_alpha	89.993659
_cell_angle_beta	89.998886
_cell_angle_gamma	83.911094
loop_
_atom_site_label
_atom_site_type_symbol
_atom_site_fract_x
_atom_site_fract_y
_atom_site_fract_z
O1	O	1.005134	0.161296	-0.066176
O2	O	0.784893	0.182281	-0.066202
O3	O	0.900025	-0.013903	-0.066184
O4	O	0.890002	0.357479	-0.066194
O5	O	0.900009	-0.013915	0.066393
O6	O	0.784877	0.182269	0.066375
O7	O	1.005118	0.161284	0.066401
Zn8	Zn	0.894995	0.171774	0.087437
Zn9	Zn	0.895016	0.171790	-0.087238
O10	O	0.889986	0.357467	0.066382
C11	C	0.756683	0.181523	0.000083
C12	C	0.672650	0.179267	0.000073
C13	C	0.899260	-0.061427	0.000104
C14	C	0.896995	-0.203014	0.000102
C15	C	0.624782	0.294422	0.000070
C16	C	0.545825	0.292295	0.000080
C17	C	0.514737	0.175011	0.000088
C18	C	0.562611	0.059847	0.000094
C19	C	0.641567	0.061975	0.000089
C20	C	0.244192	0.051260	0.000114
C21	C	0.165230	0.049140	0.000116
C22	C	0.148450	0.281580	0.000105
C23	C	0.227406	0.283709	0.000100
C24	C	0.275273	0.168545	0.000110
C25	C	0.360887	0.170853	0.000100
C26	C	0.429124	0.172702	0.000092
C27	C	0.823740	-0.269793	0.000088
C28	C	0.858337	-0.362564	0.065459
C29	C	0.858370	-0.362527	-0.065251
C30	C	0.931623	-0.293920	0.065528
C31	C	0.931645	-0.293874	-0.065241
C32	C	0.966296	-0.386619	0.000146
C33	C	1.033328	0.162042	0.000114
C34	C	1.117361	0.164297	0.000119
C35	C	0.890751	0.404991	0.000093
C36	C	0.893016	0.546578	0.000089
N37	N	0.894987	0.171763	0.206648
N38	N	0.895030	0.171791	-0.206450
C39	C	0.945983	0.084928	0.248373
C40	C	0.945987	0.084927	0.331826
C41	C	0.894998	0.171767	0.373551
C42	C	0.843996	0.258606	0.331820
C43	C	0.843989	0.258600	0.248369
C44	C	0.844024	0.258631	0.668367
C45	C	0.844037	0.258633	0.751824
C46	C	0.946022	0.084958	0.751823
C47	C	0.946015	0.084952	0.668373
C48	C	0.895011	0.171786	0.626649
C49	C	0.895006	0.171784	0.536161
C50	C	0.895006	0.171776	0.464038
H51	H	0.650088	0.389929	0.000063
H52	H	0.139922	-0.046372	0.000123
C53	C	0.493174	0.418976	0.000091
N54	N	0.453517	0.514397	0.000105
C55	C	0.296835	-0.075424	0.000119
N56	N	0.336490	-0.170849	0.000122
C57	C	0.528411	-0.069167	0.000104
N58	N	0.502653	-0.166343	0.000108
H59	H	0.802462	0.329308	0.214397
C60	C	1.047734	-0.454915	0.000206
N61	N	1.109071	-0.506360	0.000257
C62	C	1.002122	-0.010573	0.797727
N63	N	1.044375	-0.082524	0.832300
H64	H	0.680540	-0.031796	0.000091
C65	C	0.816454	-0.403695	0.140110
N66	N	0.784903	-0.434671	0.196334
C67	C	1.002069	-0.010628	0.377720
N68	N	1.044305	-0.082617	0.412286
C69	C	0.816489	-0.403592	-0.139913
N70	N	0.784939	-0.434514	-0.196147
H71	H	0.802512	0.329351	0.785795
H72	H	0.962585	-0.263669	0.120856
H73	H	0.962621	-0.263400	-0.120504
C74	C	0.742375	-0.201194	0.000168
N75	N	0.681093	-0.149520	0.000234
H76	H	0.987507	0.014218	0.214406
H77	H	0.987537	0.014243	0.634402
C78	C	0.788017	0.354316	0.622482
N79	N	0.745865	0.426449	0.587918
C80	C	0.787901	0.354120	0.377721
N81	N	0.745648	0.426062	0.412293
H82	H	0.252713	0.379213	0.000090
H83	H	0.109467	0.375352	0.000101
