data_functionalizedCrystal
_audit_creation_method	'MofGen! by Chris Wilmer'
_symmetry_space_group_name_H-M	'P1'
_symmetry_Int_Tables_number	1
_symmetry_cell_setting	triclinic
loop_
_symmetry_equiv_pos_as_xyz
  x,y,z
_cell_length_a	16.974800
_cell_length_b	16.992695
_cell_length_c	16.176319
_cell_angle_alpha	89.993125
_cell_angle_beta	93.649398
_cell_angle_gamma	87.021674
loop_
_atom_site_label
_atom_site_type_symbol
_atom_site_fract_x
_atom_site_fract_y
_atom_site_fract_z
O1	O	1.055459	0.099873	0.001893
O2	O	0.826058	0.112614	-0.013462
O3	O	0.939839	-0.007898	-0.005840
O4	O	0.941678	0.220385	-0.005730
O5	O	0.939822	-0.007906	0.131652
O6	O	0.826041	0.112606	0.124030
O7	O	1.055442	0.099866	0.139385
Cu8	Cu	0.940740	0.106235	0.144261
Cu9	Cu	0.940760	0.106244	-0.018339
O10	O	0.941661	0.220378	0.131762
C11	C	0.796561	0.112128	0.053310
C12	C	0.708693	0.110681	0.047428
C13	C	0.937464	-0.037112	0.062748
C14	C	0.930405	-0.124148	0.062275
C15	C	0.667408	0.109995	0.119614
C16	C	0.584847	0.108622	0.114090
C17	C	0.543573	0.107942	0.036380
C18	C	0.584864	0.108625	-0.035811
C19	C	0.667424	0.109992	-0.030286
C20	C	0.296658	0.103849	0.011820
C21	C	0.214093	0.102485	0.006301
C22	C	0.214081	0.102481	0.156203
C23	C	0.296642	0.103852	0.161721
C24	C	0.337926	0.104531	0.089530
N25	N	0.459183	0.106541	0.030732
N26	N	0.422315	0.105926	0.095179
C27	C	0.998520	-0.174466	0.066835
C28	C	0.991882	-0.256245	0.066383
C29	C	0.917128	-0.287704	0.061377
C30	C	0.849008	-0.237380	0.056814
C31	C	0.855647	-0.155603	0.057260
C32	C	0.889614	-0.531271	0.059524
C33	C	0.882980	-0.613055	0.059080
C34	C	1.025855	-0.631914	0.068648
C35	C	1.032487	-0.550134	0.069099
C36	C	0.964367	-0.499817	0.064532
N37	N	0.910342	-0.371295	0.060917
N38	N	0.971154	-0.416227	0.064985
C39	C	1.084940	0.100352	0.072611
C40	C	1.172807	0.101799	0.078487
C41	C	0.944036	0.249591	0.063173
C42	C	0.951095	0.336627	0.063640
N43	N	0.940731	0.106228	0.258626
N44	N	0.940775	0.106245	-0.132703
C45	C	0.991131	0.052887	0.305267
C46	C	0.991135	0.052887	0.391814
C47	C	0.940743	0.106231	0.431719
C48	C	0.890337	0.159575	0.385072
C49	C	0.890330	0.159571	0.298526
C50	C	0.890365	0.159589	0.734102
C51	C	0.890378	0.159590	0.820655
C52	C	0.991171	0.052905	0.827390
C53	C	0.991163	0.052901	0.740844
C54	C	0.940755	0.106242	0.694205
C55	C	0.940750	0.106241	0.600360
C56	C	0.940751	0.106236	0.525563
H57	H	0.701007	0.110555	0.182894
C58	C	0.539436	0.107874	0.193495
H59	H	0.575841	0.108486	0.240567
H60	H	0.510375	0.061642	0.194676
H61	H	0.504084	0.153046	0.194237
H62	H	0.701037	0.110552	-0.089068
H63	H	1.059393	-0.148858	0.070917
C64	C	0.780723	-0.100250	0.052243
H65	H	0.795382	-0.047041	0.053217
H66	H	0.750273	-0.109780	0.098150
H67	H	0.750294	-0.109773	0.002251
C68	C	1.046562	-0.005794	0.261378
H69	H	1.076573	-0.037566	0.301554
H70	H	1.081253	0.022388	0.229924
H71	H	1.016052	-0.038420	0.225590
C72	C	0.814684	-0.475933	0.054514
H73	H	0.769215	-0.506384	0.051480
H74	H	0.814302	-0.443630	0.006544
H75	H	0.814301	-0.443649	0.102444
C76	C	1.114716	-0.515534	0.074595
H77	H	1.154334	-0.557214	0.077238
H78	H	1.120273	-0.484028	0.122913
H79	H	1.120276	-0.484021	0.027013
H80	H	1.032174	0.009452	0.429789
H81	H	1.032213	0.009470	0.865374
C82	C	1.100780	-0.687263	0.073660
H83	H	1.086123	-0.740472	0.072670
H84	H	1.131218	-0.677743	0.123642
H85	H	1.131220	-0.677726	0.027742
C86	C	1.066809	-0.311591	0.071408
H87	H	1.112280	-0.281142	0.074466
H88	H	1.067203	-0.343880	0.023488
H89	H	1.067177	-0.343888	0.119386
C90	C	0.342037	0.104620	0.247202
H91	H	0.305623	0.104015	0.289404
H92	H	0.371089	0.150858	0.252243
H93	H	0.377395	0.059454	0.252701
H94	H	1.032200	0.009466	0.708356
C95	C	0.766781	-0.271984	0.051309
H96	H	0.772581	-0.327894	0.051705
H97	H	0.738520	-0.254702	0.001471
H98	H	0.738514	-0.254710	0.097371
C99	C	0.168665	0.101761	0.235606
H100	H	0.113585	0.100854	0.221189
H101	H	0.179060	0.147692	0.267072
H102	H	0.185326	0.056288	0.267539
H103	H	0.849340	0.203031	0.853144
C104	C	0.834926	0.218268	0.682810
H105	H	0.804924	0.250043	0.718975
H106	H	0.800228	0.190084	0.646739
H107	H	0.865430	0.250892	0.651079
H108	H	0.822104	-0.638665	0.055016
C109	C	0.834908	0.218254	0.428966
H110	H	0.842136	0.210623	0.487190
H111	H	0.781603	0.209770	0.411231
H112	H	0.846804	0.270578	0.415564
H113	H	0.551253	0.108066	-0.099085
C114	C	0.834894	0.218246	0.247218
H115	H	0.842101	0.210599	0.189959
H116	H	0.846782	0.270571	0.262184
H117	H	0.781589	0.209754	0.257849
C118	C	0.168691	0.101754	-0.079184
H119	H	0.205102	0.102355	-0.121388
H120	H	0.133349	0.146928	-0.084654
H121	H	0.139621	0.055524	-0.084250
H122	H	0.330262	0.104400	-0.046963
