data_functionalizedCrystal
_audit_creation_method	'MofGen! by Chris Wilmer'
_symmetry_space_group_name_H-M	'P1'
_symmetry_Int_Tables_number	1
_symmetry_cell_setting	triclinic
loop_
_symmetry_equiv_pos_as_xyz
  x,y,z
_cell_length_a	8.597187
_cell_length_b	15.944545
_cell_length_c	7.088929
_cell_angle_alpha	83.773894
_cell_angle_beta	88.663715
_cell_angle_gamma	84.419764
loop_
_atom_site_label
_atom_site_type_symbol
_atom_site_fract_x
_atom_site_fract_y
_atom_site_fract_z
O1	O	2.032447	0.151787	-0.493792
O2	O	1.583007	0.157444	-0.419763
O3	O	1.820008	0.032550	-0.458778
O4	O	1.795446	0.276682	-0.454778
O5	O	1.851680	0.015820	-0.146016
O6	O	1.614680	0.140714	-0.107002
O7	O	2.064120	0.135057	-0.181031
Cu8	Cu	1.842292	0.136358	-0.115459
Cu9	Cu	1.804835	0.156143	-0.485335
O10	O	1.827119	0.259952	-0.142016
C11	C	1.541330	0.147539	-0.253909
C12	C	1.369961	0.142941	-0.225681
C13	C	1.834826	-0.007127	-0.302228
C14	C	1.831776	-0.100426	-0.301720
C15	C	1.675752	-0.373729	-0.276059
C16	C	1.735356	-0.313606	-0.442658
C17	C	1.820889	-0.436253	-0.299981
C18	C	1.766622	-0.330127	-0.134306
C19	C	1.826230	-0.271250	-0.300831
C20	C	1.880441	-0.377352	-0.466700
C21	C	1.911700	-0.393884	-0.158207
C22	C	1.971406	-0.333791	-0.324860
C23	C	1.817808	-0.531307	-0.299492
C24	C	1.829322	-0.176198	-0.301335
C25	C	2.105796	0.144962	-0.346889
C26	C	2.277164	0.149561	-0.375129
C27	C	1.812300	0.299628	-0.298571
C28	C	1.815349	0.392928	-0.299091
N29	N	1.868648	0.122442	0.144690
N30	N	1.778491	0.170053	-0.745487
H31	H	1.550742	-0.391515	-0.255622
C32	C	2.012199	-0.441028	0.004333
C33	C	2.096074	-0.390620	0.137852
C34	C	2.196526	-0.437775	0.300432
C35	C	2.213103	-0.535338	0.329492
C36	C	2.129226	-0.585752	0.195968
C37	C	2.028774	-0.538596	0.033389
H38	H	2.083804	-0.318393	0.116343
H39	H	2.258617	-0.400455	0.399274
H40	H	2.287464	-0.570245	0.449843
H41	H	2.141495	-0.657979	0.217477
H42	H	1.966682	-0.575916	-0.065454
C43	C	1.300186	0.130538	-0.023663
C44	C	1.318901	0.196195	0.116279
C45	C	1.249116	0.183792	0.318301
C46	C	1.160615	0.105733	0.380382
C47	C	1.141896	0.040071	0.240438
C48	C	1.211682	0.052474	0.038415
H49	H	1.384419	0.253983	0.070325
H50	H	1.262974	0.232399	0.421896
H51	H	1.108956	0.096551	0.529931
H52	H	1.076379	-0.017718	0.286391
H53	H	1.197824	0.003867	-0.065180
C54	C	1.652251	0.236704	0.165008
C55	C	1.630820	0.248405	-0.051621
C56	C	1.504577	0.315057	-0.141140
C57	C	1.399765	0.370008	-0.014031
C58	C	1.421193	0.358309	0.202611
C59	C	1.547436	0.291656	0.292130
H60	H	1.708410	0.207725	-0.145727
H61	H	1.488715	0.323718	-0.301513
H62	H	1.306313	0.419349	-0.080298
H63	H	1.343603	0.398988	0.296717
H64	H	1.563298	0.282996	0.452503
H65	H	1.328829	0.158747	-0.524672
H66	H	1.660857	-0.278748	-0.562934
H67	H	1.928475	-0.398128	-0.607304
C68	C	2.140379	-0.309952	-0.352807
C69	C	2.274920	-0.379289	-0.376646
C70	C	2.443888	-0.355448	-0.404605
C71	C	2.478316	-0.262271	-0.408724
C72	C	2.343771	-0.192928	-0.384884
C73	C	2.174803	-0.216769	-0.356926
H74	H	2.249438	-0.448270	-0.373597
H75	H	2.543486	-0.406781	-0.422252
H76	H	2.603396	-0.244622	-0.429420
H77	H	2.369253	-0.123947	-0.387933
H78	H	2.075205	-0.165436	-0.339278
H79	H	1.718503	-0.309237	0.006162
H80	H	1.962103	0.073107	0.210962
