data_functionalizedCrystal
_audit_creation_method	'MofGen! by Chris Wilmer'
_symmetry_space_group_name_H-M	'P1'
_symmetry_Int_Tables_number	1
_symmetry_cell_setting	triclinic
loop_
_symmetry_equiv_pos_as_xyz
  x,y,z
_cell_length_a	13.033293
_cell_length_b	14.908178
_cell_length_c	13.033352
_cell_angle_alpha	86.528613
_cell_angle_beta	90.908427
_cell_angle_gamma	100.025217
loop_
_atom_site_label
_atom_site_type_symbol
_atom_site_fract_x
_atom_site_fract_y
_atom_site_fract_z
Zn1	Zn	1.482154	-0.280459	0.760641
Zn2	Zn	1.496518	-0.409809	0.579075
Zn3	Zn	1.332343	-0.275632	0.567182
Zn4	Zn	1.300570	-0.447405	0.726319
O5	O	1.402896	-0.353327	0.658304
O6	O	1.628760	-0.283904	0.755897
O7	O	1.494048	-0.374256	0.434911
O8	O	1.359501	-0.150252	0.602231
O9	O	1.639313	-0.378937	0.622501
O10	O	1.469567	-0.153798	0.744365
O11	O	1.373429	-0.275677	0.426174
O12	O	1.183427	-0.312132	0.568951
O13	O	1.305349	-0.443014	0.873458
O14	O	1.160084	-0.438333	0.685868
O15	O	1.438758	-0.320359	0.898674
O16	O	1.463239	-0.540817	0.589220
O17	O	1.319277	-0.568439	0.697400
C18	C	1.134236	-0.378789	0.622395
C19	C	1.019297	-0.389707	0.607056
C20	C	0.962815	-0.347651	0.666308
C21	C	0.844020	-0.358934	0.650456
C22	C	1.389394	-0.587304	0.640902
C23	C	1.383708	-0.687395	0.633505
C24	C	1.487515	-0.879048	0.767733
C25	C	1.482175	-0.973093	0.760786
C26	C	1.367684	-0.969534	0.612669
C27	C	1.373023	-0.875489	0.619616
C28	C	1.432942	-0.830249	0.697150
C29	C	1.438287	-0.736201	0.704092
C30	C	1.323790	-0.732644	0.555979
C31	C	1.318451	-0.826689	0.549032
C32	C	1.672605	-0.327765	0.694354
C33	C	1.787539	-0.316872	0.709716
C34	C	1.366907	-0.386419	0.924071
C35	C	1.351570	-0.400521	1.037325
C36	C	1.416476	-0.118436	0.675800
C37	C	1.422263	-0.018339	0.683256
C38	C	1.410741	-0.346121	1.100293
C39	C	1.394892	-0.360694	1.217347
C40	C	1.438736	-0.320385	1.393569
C41	C	1.454070	-0.306287	1.280314
H42	H	0.804434	-0.403294	0.587985
H43	H	1.536311	-0.842212	0.830859
C44	C	1.495024	-0.268620	1.056067
H45	H	1.530085	-0.236375	1.110752
H46	H	1.543670	-0.293659	1.017994
H47	H	1.463304	-0.227998	1.012184
C48	C	0.841004	-0.256948	0.794112
H49	H	0.913832	-0.257231	0.793704
H50	H	0.828839	-0.196242	0.781481
H51	H	0.813334	-0.280418	0.859225
C52	C	0.965824	-0.449637	0.522673
H53	H	0.892994	-0.449364	0.523094
H54	H	0.993489	-0.426185	0.457558
H55	H	0.977987	-0.510346	0.535324
C56	C	1.016287	-0.287726	0.750695
H57	H	1.089116	-0.288009	0.750284
H58	H	1.004122	-0.227021	0.738061
H59	H	0.988620	-0.311193	0.815811
C60	C	1.267287	-0.478018	1.081555
H61	H	1.267698	-0.477652	1.154427
H62	H	1.200908	-0.469280	1.055858
H63	H	1.281273	-0.534942	1.061678
H64	H	1.269664	-0.863537	0.485908
C65	C	1.542211	-1.026769	0.838423
H66	H	1.578665	-0.986352	0.885586
H67	H	1.494530	-1.072751	0.874782
H68	H	1.590497	-1.054305	0.802794
C69	C	1.310604	-0.438196	1.261573
H70	H	1.311015	-0.437830	1.334445
H71	H	1.244225	-0.429458	1.235876
H72	H	1.324590	-0.495120	1.241696
H73	H	1.487079	-0.699367	0.767221
H74	H	1.279357	-0.692900	0.498502
H75	H	1.318896	-1.006385	0.549548
H76	H	1.516461	-0.248915	1.247572
