data_functionalizedCrystal
_audit_creation_method	'MofGen! by Chris Wilmer'
_symmetry_space_group_name_H-M	'P1'
_symmetry_Int_Tables_number	1
_symmetry_cell_setting	triclinic
loop_
_symmetry_equiv_pos_as_xyz
  x,y,z
_cell_length_a	13.635800
_cell_length_b	7.190378
_cell_length_c	7.076078
_cell_angle_alpha	83.157426
_cell_angle_beta	117.701375
_cell_angle_gamma	119.389020
loop_
_atom_site_label
_atom_site_type_symbol
_atom_site_fract_x
_atom_site_fract_y
_atom_site_fract_z
V1	V	-2.149233	-0.663533	-0.291748
V2	V	-1.649233	-0.163533	0.208252
O3	O	-2.101116	-0.652438	0.017474
O4	O	-1.601116	-0.152438	0.517474
O5	O	-2.161847	-0.657518	-0.581810
O6	O	-1.661847	-0.157518	-0.081810
O7	O	-2.167044	-0.953596	-0.285745
O8	O	-1.667044	-0.453596	0.214255
O9	O	-2.095884	-0.354309	-0.280641
O10	O	-1.595884	0.145691	0.219359
V11	V	-2.380833	-0.626727	-0.254941
V12	V	-1.880833	-0.126727	0.245059
O13	O	-2.302152	-0.744270	-0.372489
O14	O	-1.802152	-0.244270	0.127511
O15	O	-2.453012	-0.545989	-0.174201
O16	O	-1.953012	-0.045989	0.325799
O17	O	-2.256615	-0.632742	0.035121
O18	O	-1.756615	-0.132742	0.535121
O19	O	-2.487648	-0.637822	-0.564163
O20	O	-1.987648	-0.137822	-0.064163
O21	O	-2.492881	-0.935950	-0.266049
O22	O	-1.992881	-0.435950	0.233951
O23	O	-2.251419	-0.336663	-0.260944
O24	O	-1.751419	0.163337	0.239056
V25	V	-1.880826	-0.626727	-0.254941
V26	V	-1.380826	-0.126727	0.245059
O27	O	-1.934175	-0.935950	-0.266049
O28	O	-1.434175	-0.435950	0.233951
O29	O	-1.863015	-0.336663	-0.260944
O30	O	-1.363015	0.163337	0.239056
O31	O	-1.868211	-0.632742	0.035121
O32	O	-1.368211	-0.132742	0.535121
O33	O	-1.928942	-0.637822	-0.564163
O34	O	-1.428942	-0.137822	-0.064163
V35	V	-1.649226	-0.663533	-0.291748
V36	V	-1.149226	-0.163533	0.208252
O37	O	-1.727906	-0.545989	-0.174201
O38	O	-1.227906	-0.045989	0.325799
O39	O	-1.577046	-0.744270	-0.372489
O40	O	-1.077046	-0.244270	0.127511
O41	O	-1.778640	-0.953596	-0.285745
O42	O	-1.278640	-0.453596	0.214255
O43	O	-1.537178	-0.354309	-0.280641
O44	O	-1.037178	0.145691	0.219359
O45	O	-1.542411	-0.652438	0.017474
O46	O	-1.042411	-0.152438	0.517474
O47	O	-1.773443	-0.657518	-0.581810
O48	O	-1.273443	-0.157518	-0.081810
C49	C	-1.875007	-0.024343	-0.274900
C50	C	-1.375007	0.475657	0.225100
C51	C	-1.931496	-0.265914	-0.271820
C52	C	-1.431496	0.234086	0.228180
C53	C	-2.095432	-0.646668	0.347432
C54	C	-1.595432	-0.146668	0.847432
C55	C	-2.158195	-0.643602	0.105859
C56	C	-1.658195	-0.143602	0.605859
C57	C	-2.155077	-1.265921	-0.271901
C58	C	-1.655077	-0.765921	0.228099
C59	C	-2.098574	-1.024342	-0.274926
C60	C	-1.598574	-0.524342	0.225074
C61	C	-1.938111	-0.643594	0.105867
C62	C	-1.438111	-0.143594	0.605867
C63	C	-1.885917	-0.646656	0.347440
C64	C	-1.385917	-0.146656	0.847440
