data_functionalizedCrystal
_audit_creation_method	'MofGen! by Chris Wilmer'
_symmetry_space_group_name_H-M	'P1'
_symmetry_Int_Tables_number	1
_symmetry_cell_setting	triclinic
loop_
_symmetry_equiv_pos_as_xyz
  x,y,z
_cell_length_a	13.339070
_cell_length_b	23.532357
_cell_length_c	12.376457
_cell_angle_alpha	101.196651
_cell_angle_beta	75.589755
_cell_angle_gamma	99.228793
loop_
_atom_site_label
_atom_site_type_symbol
_atom_site_fract_x
_atom_site_fract_y
_atom_site_fract_z
O1	O	1.358829	0.277201	-0.094100
O2	O	1.858829	0.777201	0.405900
O3	O	1.064687	0.239788	-0.094086
O4	O	1.564687	0.739788	0.405914
O5	O	1.220649	0.176997	-0.094070
O6	O	1.720649	0.676997	0.405930
O7	O	1.202867	0.339992	-0.094115
O8	O	1.702867	0.839992	0.405885
O9	O	1.181673	0.192667	0.093938
O10	O	1.681673	0.692667	0.593938
O11	O	1.025710	0.255459	0.093923
O12	O	1.525710	0.755459	0.593923
O13	O	1.319852	0.292871	0.093909
O14	O	1.819852	0.792871	0.593909
Zn15	Zn	1.166593	0.276653	0.123766
Zn16	Zn	1.666593	0.776653	0.623766
Zn17	Zn	1.217946	0.256007	-0.123943
Zn18	Zn	1.717946	0.756007	0.376057
O19	O	1.163890	0.355663	0.093893
O20	O	1.663890	0.855663	0.593893
C21	C	1.007574	0.241304	-0.000079
C22	C	1.507574	0.741304	0.499921
C23	C	0.895467	0.222466	-0.000073
C24	C	1.395467	0.722466	0.499927
C25	C	0.529167	0.368938	-0.000132
C26	C	1.029167	0.868938	0.499868
C27	C	0.634499	0.386638	-0.000141
C28	C	1.134499	0.886638	0.499859
C29	C	0.699745	0.345597	-0.000124
C30	C	1.199745	0.845597	0.499876
C31	C	0.659651	0.286852	-0.000098
C32	C	1.159651	0.786852	0.499902
C33	C	0.554312	0.269148	-0.000097
C34	C	1.054312	0.769148	0.499903
C35	C	0.724890	0.245807	-0.000089
C36	C	1.224890	0.745807	0.499911
C37	C	0.684796	0.187062	-0.000063
C38	C	1.184796	0.687062	0.499937
C39	C	0.579466	0.169362	-0.000061
C40	C	1.079466	0.669362	0.499939
C41	C	0.514219	0.210404	-0.000079
C42	C	1.014219	0.710404	0.499921
C43	C	0.830230	0.263510	-0.000090
C44	C	1.330230	0.763510	0.499910
C45	C	0.855374	0.163721	-0.000055
C46	C	1.355374	0.663721	0.499945
C47	C	0.750043	0.146021	-0.000045
C48	C	1.250043	0.646021	0.499955
C49	C	1.200715	0.163544	-0.000062
C50	C	1.700715	0.663544	0.499938
C51	C	1.199375	0.100111	-0.000051
C52	C	1.699375	0.600111	0.499949
C53	C	1.212234	-0.301802	-0.102595
C54	C	1.712234	0.198198	0.397405
C55	C	1.210963	-0.361407	-0.102602
C56	C	1.710963	0.138593	0.397398
O57	O	1.228340	-0.399499	-0.189760
O58	O	1.728340	0.100501	0.310240
N59	N	1.189086	-0.382678	-0.000120
N60	N	1.689086	0.117322	0.499880
C61	C	1.168469	-0.344341	0.102375
C62	C	1.668469	0.155659	0.602375
O63	O	1.149744	-0.367907	0.189543
O64	O	1.649744	0.132093	0.689543
C65	C	1.169732	-0.284738	0.102380
C66	C	1.669732	0.215262	0.602380
C67	C	1.191621	-0.263469	-0.000108
C68	C	1.691621	0.236531	0.499892
C69	C	1.234119	-0.280533	-0.205076
C70	C	1.734119	0.219467	0.294924
C71	C	1.235391	-0.220931	-0.205069
C72	C	1.735391	0.279069	0.294931
C73	C	1.214778	-0.182599	-0.102582
C74	C	1.714778	0.317401	0.397418
C75	C	1.192893	-0.203868	-0.000101
C76	C	1.692893	0.296132	0.499899
C77	C	1.149108	-0.246403	0.204874
C78	C	1.649108	0.253597	0.704874
C79	C	1.150373	-0.186796	0.204870
C80	C	1.650373	0.313204	0.704870
C81	C	1.172261	-0.165528	0.102382
C82	C	1.672261	0.334472	0.602382
C83	C	1.173552	-0.105935	0.102392
C84	C	1.673552	0.394065	0.602392
N85	N	1.195429	-0.084664	-0.000089
N86	N	1.695429	0.415336	0.499911
C87	C	1.216042	-0.122996	-0.102576
C88	C	1.716042	0.377004	0.397424
C89	C	1.165815	-0.469513	0.102356
C90	C	1.665815	0.030487	0.602356
C91	C	1.164559	-0.529114	0.102352
C92	C	1.664559	-0.029114	0.602352
C93	C	1.207051	-0.546176	-0.102625
C94	C	1.707051	-0.046176	0.397375
C95	C	1.208315	-0.486572	-0.102620
C96	C	1.708315	0.013428	0.397380
C97	C	1.187692	-0.448241	-0.000126
C98	C	1.687692	0.051759	0.499874
C99	C	1.218713	0.002171	-0.102554
C100	C	1.718713	0.502171	0.397446
C101	C	1.219988	0.061779	-0.102538
C102	C	1.719988	0.561779	0.397462
C103	C	1.177490	0.078835	0.102438
C104	C	1.677490	0.578835	0.602438
C105	C	1.176221	0.019233	0.102423
C106	C	1.676221	0.519233	0.602423
C107	C	1.196831	-0.019098	-0.000083
C108	C	1.696831	0.480902	0.499917
O109	O	1.156181	-0.067809	0.189506
O110	O	1.656181	0.432191	0.689506
O111	O	1.234751	-0.099423	-0.189730
O112	O	1.734751	0.400577	0.310270
C113	C	1.376965	0.291356	-0.000100
C114	C	1.876965	0.791356	0.499900
C115	C	1.489075	0.310193	-0.000114
C116	C	1.989075	0.810193	0.499886
C117	C	1.183825	0.369115	-0.000117
C118	C	1.683825	0.869115	0.499883
C119	C	1.185166	0.432548	-0.000135
C120	C	1.685166	0.932548	0.499865
N121	N	1.131553	0.290744	0.292821
N122	N	1.631553	0.790744	0.792821
N123	N	1.252994	0.241912	-0.292998
N124	N	1.752994	0.741912	0.207002
C125	C	1.334333	0.209191	0.647826
C126	C	1.834333	0.709191	1.147826
C127	C	1.358852	0.199327	0.529489
C128	C	1.858852	0.699327	1.029489
C129	C	1.302029	0.222180	0.470316
C130	C	1.802029	0.722180	0.970316
C131	C	1.220684	0.254899	0.529492
C132	C	1.720684	0.754899	1.029492
C133	C	1.196168	0.264768	0.647841
C134	C	1.696168	0.764768	1.147841
C135	C	1.163864	0.277757	0.470331
C136	C	1.663864	0.777757	0.970331
C137	C	1.082518	0.310476	0.529507
C138	C	1.582518	0.810476	1.029507
C139	C	1.058006	0.320343	0.647844
C140	C	1.558006	0.820343	1.147844
C141	C	1.114829	0.297489	0.707017
C142	C	1.614829	0.797489	1.207017
C143	C	1.188380	0.267889	0.351982
C144	C	1.688380	0.767889	0.851982
C145	C	1.050214	0.323466	0.351997
C146	C	1.550214	0.823466	0.851997
C147	C	1.025696	0.333330	0.470334
C148	C	1.525696	0.833330	0.970334
H149	H	0.667137	0.434468	-0.000172
H150	H	1.167137	0.934468	0.499828
Cl151	Cl	1.151578	0.127034	0.231272
Cl152	Cl	1.651578	0.627034	0.731272
Cl153	Cl	0.880620	0.337359	-0.000121
Cl154	Cl	1.380620	0.837359	0.499879
Cl155	Cl	1.084000	0.309887	0.855791
Cl156	Cl	1.584000	0.809887	1.355791
Cl157	Cl	1.137061	-0.555842	0.231201
Cl158	Cl	1.637061	-0.055842	0.731201
H159	H	0.959463	0.359970	0.518530
H160	H	1.459463	0.859970	1.018530
H161	H	0.717385	0.098188	-0.000033
H162	H	1.217385	0.598188	0.499967
Cl163	Cl	0.832163	0.367851	-0.000131
Cl164	Cl	1.332163	0.867851	0.499869
Cl165	Cl	0.937393	0.112122	-0.000042
Cl166	Cl	1.437393	0.612122	0.499958
H167	H	0.476037	0.402347	-0.000156
H168	H	0.976037	0.902347	0.499844
Cl169	Cl	1.235829	-0.459842	-0.231467
Cl170	Cl	1.735829	0.040158	0.268533
Cl171	Cl	0.978780	0.352200	0.277615
Cl172	Cl	1.478780	0.852200	0.777615
Cl173	Cl	1.247509	0.088512	-0.231391
Cl174	Cl	1.747509	0.588512	0.268609
Cl175	Cl	0.955756	0.361483	0.722239
Cl176	Cl	1.455756	0.861483	1.222239
Cl177	Cl	0.381796	0.188154	-0.000065
Cl178	Cl	0.881796	0.688154	0.499935
Cl179	Cl	1.244625	-0.046007	-0.231420
Cl180	Cl	1.744625	0.453993	0.268580
H181	H	1.223832	-0.577397	-0.186076
H182	H	1.723832	-0.077397	0.313924
Cl183	Cl	0.529072	0.095508	-0.000067
Cl184	Cl	1.029072	0.595508	0.499933
Cl185	Cl	1.262900	-0.194204	-0.333919
Cl186	Cl	1.762900	0.305796	0.166081
H187	H	1.131286	-0.263708	0.288331
H188	H	1.631286	0.236292	0.788331
Cl189	Cl	1.260038	-0.328712	-0.333935
Cl190	Cl	1.760038	0.171288	0.166065
Cl191	Cl	1.139896	-0.421329	0.231220
Cl192	Cl	1.639896	0.078671	0.731220
Cl193	Cl	1.290637	0.226758	0.277604
Cl194	Cl	1.790637	0.726758	0.777604
Cl195	Cl	1.124446	-0.138612	0.333729
Cl196	Cl	1.624446	0.361388	0.833729
H197	H	1.158407	0.001916	0.185877
H198	H	1.658407	0.501916	0.685877
Cl199	Cl	1.332851	0.209778	0.321547
Cl200	Cl	1.832851	0.709778	0.821547
Cl201	Cl	1.461108	0.158198	0.455099
Cl202	Cl	1.961108	0.658198	0.955099
H203	H	1.380596	0.190590	0.696013
H204	H	1.880596	0.690590	1.196013
