data_functionalizedCrystal
_audit_creation_method	'MofGen! by Chris Wilmer'
_symmetry_space_group_name_H-M	'P1'
_symmetry_Int_Tables_number	1
_symmetry_cell_setting	triclinic
loop_
_symmetry_equiv_pos_as_xyz
  x,y,z
_cell_length_a	10.967953
_cell_length_b	10.967916
_cell_length_c	9.483290
_cell_angle_alpha	112.315625
_cell_angle_beta	67.688188
_cell_angle_gamma	97.834142
loop_
_atom_site_label
_atom_site_type_symbol
_atom_site_fract_x
_atom_site_fract_y
_atom_site_fract_z
O1	O	0.227911	-1.710082	-0.364606
O2	O	0.231089	-1.333350	-0.271024
O3	O	0.041139	-1.523306	-0.271032
O4	O	0.417861	-1.520126	-0.364599
O5	O	0.078965	-1.561141	-0.531761
O6	O	0.268915	-1.371186	-0.531754
O7	O	0.265737	-1.747917	-0.625335
Cu8	Cu	0.270780	-1.563006	-0.602351
Cu9	Cu	0.226046	-1.518261	-0.294009
O10	O	0.455687	-1.557962	-0.625328
C11	C	0.246913	-1.303898	-0.388498
C12	C	0.237692	-1.159769	-0.350081
C13	C	0.253177	-1.115112	-0.468019
C14	C	0.243647	-0.966148	-0.428316
C15	C	0.011683	-1.539134	-0.388504
C16	C	-0.132444	-1.529912	-0.350083
C17	C	-0.326066	-1.535867	-0.428329
C18	C	-0.177104	-1.545401	-0.468035
C19	C	0.485143	-1.542133	-0.507853
C20	C	0.629268	-1.551353	-0.546264
C21	C	0.249913	-0.777369	-0.507860
C22	C	0.259134	-0.921497	-0.546271
N23	N	0.302243	-1.594487	-0.819225
C24	C	0.261497	-1.553746	-1.038443
C25	C	0.235309	-1.527521	-0.857908
N26	N	0.194574	-1.486790	-0.077135
H27	H	0.279442	-0.993541	-0.676644
H28	H	0.217378	-1.087720	-0.219716
H29	H	0.338184	-1.630479	-1.138973
F30	F	0.402484	-1.694793	-0.950613
H31	H	-0.105069	-1.565726	-0.598409
H32	H	-0.398106	-1.515557	-0.297966
H33	H	0.158628	-1.450773	-0.757381
F34	F	0.094348	-1.386480	-0.945742
F35	F	-0.226594	-1.503357	-0.179674
H36	H	-0.298692	-1.571677	-0.676629
H37	H	0.223331	-0.894103	-0.297943
F38	F	0.279722	-1.209280	-0.638417
