data_functionalizedCrystal
_audit_creation_method	'MofGen! by Chris Wilmer'
_symmetry_space_group_name_H-M	'P1'
_symmetry_Int_Tables_number	1
_symmetry_cell_setting	triclinic
loop_
_symmetry_equiv_pos_as_xyz
  x,y,z
_cell_length_a	17.917603
_cell_length_b	14.560438
_cell_length_c	14.560438
_cell_angle_alpha	119.998724
_cell_angle_beta	89.997502
_cell_angle_gamma	57.008763
loop_
_atom_site_label
_atom_site_type_symbol
_atom_site_fract_x
_atom_site_fract_y
_atom_site_fract_z
Zr1	Zr	0.754856	0.920774	0.078265
O2	O	0.629715	1.126402	0.231925
O3	O	0.793225	0.724866	0.031157
O4	O	0.793208	0.916479	0.222765
O5	O	0.629737	0.934787	-0.110822
O6	O	0.922166	0.902034	0.215542
O7	O	0.629732	0.934789	0.040318
O8	O	0.922196	0.559273	-0.127209
O9	O	0.629707	1.277548	0.231929
O10	O	0.905821	0.791066	0.005679
O11	O	0.809585	0.801845	-0.101725
O12	O	0.809565	1.027444	0.123869
O13	O	0.713329	1.038223	0.016465
Zr14	Zr	0.960538	0.897734	-0.174306
Zr15	Zr	0.960529	0.897736	0.066746
Zr16	Zr	0.754864	0.920772	-0.162786
Zr17	Zr	0.754843	1.161835	0.078270
Zr18	Zr	0.960550	0.656673	-0.174311
O19	O	0.922169	1.093642	-0.127198
O20	O	0.922156	1.093645	0.215546
O21	O	0.629727	1.126399	-0.110818
O22	O	1.085679	0.692106	-0.327966
O23	O	1.085666	0.692109	0.014778
O24	O	0.793237	0.724863	-0.311587
O25	O	1.085656	0.883720	0.014782
O26	O	0.922186	0.902029	-0.318805
O27	O	0.793227	0.916474	-0.311582
O28	O	1.085662	0.883719	-0.136358
O29	O	0.793190	1.259237	0.222772
O30	O	0.922203	0.559271	-0.318813
O31	O	1.085686	0.540960	-0.327969
O32	O	1.085679	0.540961	-0.136366
O33	O	0.629714	1.277547	0.040325
O34	O	0.793197	1.259235	0.031169
O35	O	0.905829	0.791064	-0.219909
O36	O	1.002065	0.780285	-0.112505
O37	O	0.905809	1.016663	0.005684
O38	O	0.809573	1.027442	-0.101720
C39	C	0.857712	0.607723	-0.048027
C40	C	0.857718	0.505387	-0.048029
C41	C	0.928739	0.269939	-0.135263
C42	C	0.928762	0.366072	-0.135270
C43	C	0.786651	0.548569	0.039232
C44	C	0.786632	0.452437	0.039242
C45	C	0.600431	0.938071	-0.033611
C46	C	0.513117	0.947851	-0.028721
C47	C	0.353271	0.965715	-0.019790
C48	C	0.362115	0.852799	-0.076248
C49	C	0.273172	0.862738	-0.071279
C50	C	0.442221	0.955778	-0.024757
C51	C	1.114963	0.880437	-0.062429
C52	C	1.202277	0.870657	-0.067320
C53	C	0.857686	0.909257	0.253498
C54	C	0.857682	0.909258	0.355831
C55	C	0.857681	1.210785	-0.048014
C56	C	0.857676	1.313121	-0.048012
C57	C	0.786641	0.917219	0.504049
C58	C	0.786639	0.917212	0.407894
C59	C	0.928737	0.901295	0.399921
C60	C	0.928741	0.901292	0.496069
C61	C	0.857702	0.909254	0.650463
C62	C	0.857688	0.909261	0.548134
C63	C	1.114979	0.578907	-0.062436
C64	C	1.202298	0.466790	-0.067329
C65	C	0.857723	0.607721	-0.349545
C66	C	0.857733	0.505383	-0.451880
C67	C	1.114990	0.578904	-0.363954
C68	C	1.202312	0.466786	-0.471179
C69	C	0.600404	1.239604	0.267914
C70	C	0.513081	1.351722	0.375139
C71	C	0.600415	1.239601	-0.033605
C72	C	0.513096	1.351718	-0.028712
C73	C	0.857670	1.210787	0.253504
C74	C	0.857661	1.313125	0.355839
C75	C	1.193065	0.419766	-0.007925
C76	C	1.275103	0.314435	-0.012499
C77	C	1.366372	0.256122	-0.076484
C78	C	1.375603	0.303156	-0.135889
C79	C	1.293566	0.408492	-0.131308
C80	C	1.293563	0.408507	-0.465470
C81	C	1.375620	0.303173	-0.566211
C82	C	1.366424	0.256114	-0.672659
C83	C	1.275164	0.314403	-0.678366
C84	C	1.193109	0.419742	-0.577626
C85	C	0.421830	1.410012	0.369430
C86	C	0.339774	1.515376	0.470170
C87	C	0.348969	1.562441	0.576619
C88	C	0.440229	1.504145	0.582325
C89	C	0.522284	1.398790	0.481586
C90	C	0.522328	1.398752	-0.088106
C91	C	0.440291	1.504110	-0.083505
C92	C	0.349021	1.562426	-0.019517
C93	C	0.339791	1.515388	0.039884
C94	C	0.421827	1.410038	0.035289
C95	C	0.907974	0.451675	-0.561648
C96	C	0.907972	0.355528	-0.657798
C97	C	0.807485	0.366802	-0.534398
C98	C	0.807482	0.462954	-0.438250
H99	H	0.986630	0.330899	-0.206319
H100	H	1.449920	0.255724	-0.561544
H101	H	0.278907	1.069843	0.032275
H102	H	1.267691	0.276072	-0.765050
H103	H	0.728808	0.662008	0.110269
H104	H	0.728787	0.923690	0.372001
H105	H	0.766564	0.506688	-0.348865
H106	H	0.728762	0.487610	0.110299
H107	H	0.948888	0.486222	-0.572752
H108	H	0.986588	0.156505	-0.206310
H109	H	0.986585	0.894810	0.357521
H110	H	0.436485	0.748663	-0.128315
H111	H	1.433246	0.170339	-0.754679
H112	H	0.986601	0.894807	0.531963
H113	H	1.118812	0.467181	-0.582291
H114	H	0.414325	1.371700	0.282763
H115	H	0.728786	0.923705	0.546437
H116	H	0.766574	0.332242	-0.523314
H117	H	0.447705	1.542479	0.669008
H118	H	0.282147	1.648228	0.658639
H119	H	0.447825	1.542390	-0.131881
H120	H	1.301069	0.446807	-0.378804
H121	H	1.449925	0.255662	-0.187984
H122	H	0.948882	0.311805	-0.747173
H123	H	0.265474	1.562824	0.465502
H124	H	0.414297	1.371747	0.083652
H125	H	1.118756	0.467243	0.044192
H126	H	1.267568	0.276154	0.035877
H127	H	1.433164	0.170351	-0.080206
H128	H	0.596582	1.351330	0.486248
H129	H	0.596637	1.351279	-0.140219
H130	H	1.301097	0.446765	-0.179689
H131	H	0.282230	1.648207	-0.015785
H132	H	0.265468	1.562884	0.091982
