data_functionalizedCrystal
_audit_creation_method	'MofGen! by Chris Wilmer'
_symmetry_space_group_name_H-M	'P1'
_symmetry_Int_Tables_number	1
_symmetry_cell_setting	triclinic
loop_
_symmetry_equiv_pos_as_xyz
  x,y,z
_cell_length_a	10.654550
_cell_length_b	11.792241
_cell_length_c	9.130313
_cell_angle_alpha	89.998583
_cell_angle_beta	89.996220
_cell_angle_gamma	84.339159
loop_
_atom_site_label
_atom_site_type_symbol
_atom_site_fract_x
_atom_site_fract_y
_atom_site_fract_z
O1	O	1.667383	0.159415	-0.121920
O2	O	1.301862	0.174603	-0.121897
O3	O	1.493493	0.001859	-0.121899
O4	O	1.475752	0.332159	-0.121918
O5	O	1.493490	0.001864	0.121700
O6	O	1.301859	0.174608	0.121702
O7	O	1.667381	0.159419	0.121678
Cu8	Cu	1.484620	0.167014	0.143933
Cu9	Cu	1.484623	0.167008	-0.144151
O10	O	1.475750	0.332164	0.121680
C11	C	1.255066	0.173490	-0.000095
C12	C	1.115632	0.170154	-0.000085
C13	C	1.035858	0.271863	-0.000113
C14	C	0.904847	0.268721	-0.000138
C15	C	0.933394	0.062152	-0.000114
C16	C	1.064404	0.065295	-0.000079
C17	C	1.019376	0.391124	-0.000133
C18	C	0.888364	0.387982	-0.000158
C19	C	1.492377	-0.040432	-0.000100
C20	C	1.489042	-0.166454	-0.000101
C21	C	1.482908	-0.397180	-0.000125
C22	C	1.486316	-0.268787	-0.000112
C23	C	1.714177	0.160532	-0.000127
C24	C	1.853611	0.163869	-0.000146
C25	C	1.476865	0.374455	-0.000122
C26	C	1.480201	0.500476	-0.000130
N27	N	1.484627	0.167017	0.346555
N28	N	1.484625	0.166996	-0.346774
C29	C	1.569503	0.090552	0.423206
C30	C	1.569500	0.090539	0.576543
C31	C	1.399740	0.243465	0.576564
C32	C	1.399739	0.243472	0.423230
C33	C	1.667516	0.002265	0.423195
C34	C	1.667513	0.002251	0.576532
H35	H	1.054925	0.429096	-0.105307
N36	N	1.308196	0.325929	0.659269
H37	H	1.254427	0.374371	0.587439
H38	H	1.252386	0.282000	0.722885
H39	H	1.646320	-0.084976	0.381582
N40	N	0.832897	0.447478	-0.135212
H41	H	0.771032	0.513830	-0.105184
H42	H	0.902714	0.476221	-0.195412
N43	N	1.308193	0.325946	0.340559
H44	H	1.321069	0.314351	0.231787
H45	H	1.219018	0.312075	0.367368
N46	N	1.150456	-0.044399	-0.000043
H47	H	1.205422	-0.047687	0.090276
H48	H	1.098040	-0.111241	-0.000103
H49	H	1.758622	0.029909	0.375629
N50	N	1.627445	-0.106960	0.639542
H51	H	1.608084	-0.159718	0.557207
H52	H	1.697828	-0.144943	0.701814
H53	H	1.763969	0.021698	0.618141
N54	N	1.058076	0.452899	0.134904
H55	H	1.101256	0.521767	0.104857
H56	H	0.980798	0.478124	0.195090
H57	H	0.891668	-0.023221	-0.000132
N58	N	0.827731	0.435720	0.139147
H59	H	0.845654	0.517728	0.151132
H60	H	0.733605	0.431588	0.133962
