data_functionalizedCrystal
_audit_creation_method	'MofGen! by Chris Wilmer'
_symmetry_space_group_name_H-M	'P1'
_symmetry_Int_Tables_number	1
_symmetry_cell_setting	triclinic
loop_
_symmetry_equiv_pos_as_xyz
  x,y,z
_cell_length_a	16.974885
_cell_length_b	16.992695
_cell_length_c	14.586319
_cell_angle_alpha	89.995905
_cell_angle_beta	93.648518
_cell_angle_gamma	87.023153
loop_
_atom_site_label
_atom_site_type_symbol
_atom_site_fract_x
_atom_site_fract_y
_atom_site_fract_z
O1	O	1.055447	0.099901	0.001996
O2	O	0.826048	0.112635	-0.015011
O3	O	0.939828	-0.007874	-0.006568
O4	O	0.941667	0.220410	-0.006446
O5	O	0.939819	-0.007875	0.145912
O6	O	0.826039	0.112633	0.137470
O7	O	1.055438	0.099899	0.154476
Cu8	Cu	0.940738	0.106266	0.159896
Cu9	Cu	0.940748	0.106268	-0.020430
O10	O	0.941658	0.220408	0.146034
C11	C	0.796555	0.112151	0.059043
C12	C	0.708687	0.110701	0.052530
C13	C	0.214090	0.102515	0.006878
C14	C	0.296651	0.103877	0.013011
C15	C	0.337918	0.104563	0.099195
C16	C	0.296621	0.103879	0.179251
C17	C	0.214062	0.102511	0.173118
C18	C	0.584832	0.108649	0.126452
C19	C	0.667396	0.110019	0.132580
C20	C	0.667420	0.110016	-0.033661
C21	C	0.584859	0.108653	-0.039788
C22	C	0.543570	0.107965	0.040269
N23	N	0.422308	0.105958	0.105466
N24	N	0.459182	0.106564	0.033997
C25	C	0.937457	-0.037084	0.069497
C26	C	0.930398	-0.124121	0.068973
C27	C	0.998513	-0.174437	0.074024
C28	C	0.991875	-0.256216	0.073523
C29	C	0.917121	-0.287678	0.067978
C30	C	0.849002	-0.237356	0.062924
C31	C	0.855640	-0.155578	0.063418
C32	C	0.889607	-0.531245	0.065925
C33	C	0.882974	-0.613029	0.065434
C34	C	1.025847	-0.631884	0.076031
C35	C	1.032479	-0.550104	0.076531
C36	C	0.964360	-0.499789	0.071472
N37	N	0.910335	-0.371269	0.067469
N38	N	0.971147	-0.416199	0.071975
C39	C	1.084931	0.100383	0.080420
C40	C	1.172799	0.101833	0.086928
C41	C	0.944029	0.249619	0.069967
C42	C	0.951088	0.336655	0.070485
N43	N	0.940737	0.106264	0.286727
N44	N	0.940755	0.106264	-0.147261
C45	C	0.991137	0.052921	0.525473
C46	C	0.991140	0.052919	0.621455
C47	C	0.890349	0.159610	0.613986
C48	C	0.890344	0.159607	0.518006
C49	C	0.940742	0.106264	0.473752
C50	C	0.940750	0.106264	0.665714
C51	C	0.940752	0.106263	0.769781
C52	C	0.940739	0.106264	0.369679
H53	H	0.330267	0.104428	-0.052175
H54	H	0.800174	-0.114611	0.059305
H55	H	0.551265	0.108093	-0.109968
C56	C	1.045878	-0.005087	0.477593
C57	C	1.089996	-0.051817	0.543436
C58	C	1.140422	-0.105273	0.499365
H59	H	1.080640	0.023004	0.442716
H60	H	1.015389	-0.037753	0.437920
H61	H	1.120482	-0.019156	0.583093
H62	H	1.055254	-0.079925	0.578316
H63	H	1.109933	-0.137939	0.459692
H64	H	1.175179	-0.077175	0.464490
H65	H	1.170357	-0.136990	0.544032
C66	C	1.099830	-0.686474	0.081703
C67	C	1.144530	-0.672291	0.163475
C68	C	1.212686	-0.722570	0.168732
H69	H	1.130361	-0.676985	0.030854
H70	H	1.085206	-0.739696	0.080665
H71	H	1.159155	-0.619081	0.164504
H72	H	1.114023	-0.681784	0.214338
H73	H	1.198062	-0.775793	0.167694
H74	H	1.243210	-0.713078	0.117880
H75	H	1.243020	-0.712959	0.224217
C76	C	0.767819	-0.271469	0.056710
C77	C	0.726351	-0.245900	-0.024825
C78	C	0.651567	-0.277316	-0.030585
H79	H	0.739454	-0.254217	0.107717
H80	H	0.773588	-0.327382	0.057090
H81	H	0.720579	-0.189999	-0.025196
H82	H	0.754693	-0.263151	-0.075847
H83	H	0.657335	-0.333229	-0.030206
H84	H	0.623208	-0.260062	0.020426
H85	H	0.623424	-0.259978	-0.085910
H86	H	0.180443	0.101964	0.238303
C87	C	0.835596	0.217615	0.462007
C88	C	0.791480	0.264350	0.521305
C89	C	0.741047	0.317797	0.469753
H90	H	0.800833	0.189518	0.421995
H91	H	0.866080	0.250279	0.426836
H92	H	0.760998	0.231691	0.556461
H93	H	0.826223	0.292465	0.561318
H94	H	0.771531	0.350460	0.434581
H95	H	0.706288	0.289693	0.429742
H96	H	0.711113	0.349518	0.509978
C97	C	0.169236	0.101933	-0.086672
C98	C	0.117215	0.168579	-0.095413
C99	C	0.075892	0.168073	-0.181585
H100	H	0.140106	0.055753	-0.092375
H101	H	0.205626	0.102575	-0.133497
H102	H	0.080830	0.167930	-0.048601
H103	H	0.146325	0.214770	-0.089728
H104	H	0.112283	0.168714	-0.228410
H105	H	0.046767	0.121890	-0.187280
H106	H	0.040598	0.213294	-0.187531
C107	C	1.079655	-0.140239	0.080230
C108	C	1.087648	-0.093864	0.159283
C109	C	1.162392	-0.062360	0.165033
H110	H	1.085300	-0.108672	0.027538
H111	H	1.119295	-0.181900	0.083215
H112	H	1.048021	-0.052209	0.156290
H113	H	1.082019	-0.125414	0.211989
H114	H	1.202031	-0.104021	0.168018
H115	H	1.168030	-0.030797	0.112337
H116	H	1.167828	-0.030898	0.218674
H117	H	0.701047	0.110576	-0.098839
H118	H	0.700993	0.110583	0.202765
C119	C	1.113664	-0.515997	0.082364
C120	C	1.155148	-0.541555	0.006982
C121	C	1.229935	-0.510146	0.012325
H122	H	1.142018	-0.533259	0.137579
H123	H	1.107901	-0.460083	0.081892
H124	H	1.160915	-0.597457	0.007463
H125	H	1.126819	-0.524294	-0.048243
H126	H	1.224172	-0.454232	0.011852
H127	H	1.258281	-0.527410	0.067542
H128	H	1.258089	-0.527477	-0.038824
C129	C	0.540149	0.107954	0.213475
C130	C	0.593961	0.108873	0.290260
C131	C	0.552824	0.108246	0.370444
H132	H	0.511083	0.061734	0.214913
H133	H	0.504813	0.153138	0.214349
H134	H	0.629283	0.063694	0.289387
H135	H	0.623028	0.155090	0.288852
H136	H	0.517488	0.153431	0.371318
H137	H	0.523760	0.062026	0.371873
H138	H	0.589328	0.108878	0.422552
H139	H	1.047341	-0.297180	0.077638
H140	H	0.849317	0.203042	0.650026
C141	C	0.341534	0.104502	0.272764
C142	C	0.393586	0.037879	0.281485
C143	C	0.434979	0.038435	0.367613
H144	H	0.305210	0.103860	0.319647
H145	H	0.370640	0.150714	0.278384
H146	H	0.364482	-0.008320	0.275875
H147	H	0.429925	0.038507	0.234624
H148	H	0.464085	0.084647	0.373232
H149	H	0.398650	0.037795	0.414488
H150	H	0.470306	-0.006763	0.373538
H151	H	0.822098	-0.638642	0.060933
C152	C	0.815556	-0.476755	0.060487
C153	C	0.748673	-0.521815	0.055557
C154	C	0.680441	-0.471642	0.050562
H155	H	0.815061	-0.444438	0.007293
H156	H	0.815131	-0.444478	0.113652
H157	H	0.749098	-0.554078	0.002397
H158	H	0.749142	-0.554130	0.108745
H159	H	0.680015	-0.439365	0.103727
H160	H	0.679953	-0.439327	-0.002632
H161	H	0.635053	-0.502207	0.047225
C162	C	1.045725	-0.005086	0.677648
C163	C	1.000581	-0.053075	0.729394
C164	C	1.050838	-0.106528	0.781160
H165	H	1.080434	0.023008	0.717731
H166	H	1.075723	-0.036899	0.637570
H167	H	0.970596	-0.021266	0.769467
H168	H	0.965874	-0.081186	0.689333
H169	H	1.080836	-0.138341	0.741083
H170	H	1.085544	-0.078427	0.821238
H171	H	1.020215	-0.139100	0.816269
