data_functionalizedCrystal
_audit_creation_method	'MofGen! by Chris Wilmer'
_symmetry_space_group_name_H-M	'P1'
_symmetry_Int_Tables_number	1
_symmetry_cell_setting	triclinic
loop_
_symmetry_equiv_pos_as_xyz
  x,y,z
_cell_length_a	14.044191
_cell_length_b	14.044190
_cell_length_c	9.798715
_cell_angle_alpha	90.008237
_cell_angle_beta	90.001336
_cell_angle_gamma	93.191777
loop_
_atom_site_label
_atom_site_type_symbol
_atom_site_fract_x
_atom_site_fract_y
_atom_site_fract_z
O1	O	1.277177	0.230199	0.113453
O2	O	1.610511	0.563532	0.446787
O3	O	1.943844	0.896866	0.780120
O4	O	1.000505	0.221886	0.113470
O5	O	1.333838	0.555219	0.446803
O6	O	1.667171	0.888553	0.780136
O7	O	1.134685	0.087706	0.113435
O8	O	1.468018	0.421039	0.446768
O9	O	1.801351	0.754373	0.780102
O10	O	1.142997	0.364379	0.113488
O11	O	1.476331	0.697712	0.446821
O12	O	1.809664	1.031045	0.780155
O13	O	1.134674	0.087704	-0.113547
O14	O	1.468007	0.421038	0.219786
O15	O	1.801340	0.754371	0.553119
O16	O	1.000494	0.221884	-0.113513
O17	O	1.333827	0.555218	0.219821
O18	O	1.667160	0.888551	0.553154
O19	O	1.277166	0.230197	-0.113529
O20	O	1.610500	0.563530	0.219805
O21	O	1.943833	0.896864	0.553138
Zn22	Zn	1.138828	0.226040	-0.149559
Zn23	Zn	1.472162	0.559374	0.183774
Zn24	Zn	1.805495	0.892707	0.517108
Zn25	Zn	1.138843	0.226043	0.149500
Zn26	Zn	1.472176	0.559376	0.482833
Zn27	Zn	1.805509	0.892709	0.816166
O28	O	1.142986	0.364377	-0.113494
O29	O	1.476320	0.697710	0.219839
O30	O	1.809653	1.031044	0.553173
C31	C	0.964877	0.218249	-0.000020
C32	C	1.298210	0.551582	0.333314
C33	C	1.631544	0.884915	0.666647
C34	C	0.858734	0.207401	-0.000015
C35	C	1.192067	0.540735	0.333319
C36	C	1.525400	0.874068	0.666652
C37	C	0.613277	0.264502	-0.000017
C38	C	0.946610	0.597835	0.333316
C39	C	1.279943	0.931169	0.666649
C40	C	0.664400	0.187585	-0.000030
C41	C	0.997734	0.520919	0.333303
C42	C	1.331067	0.854252	0.666637
C43	C	0.772537	0.198614	-0.000021
C44	C	1.105871	0.531947	0.333312
C45	C	1.439204	0.865280	0.666645
C46	C	0.505130	0.253475	-0.000026
C47	C	0.838463	0.586809	0.333308
C48	C	1.171796	0.920142	0.666641
C49	C	1.131043	0.052083	-0.000060
C50	C	1.464376	0.385416	0.333273
C51	C	1.797709	0.718750	0.666607
C52	C	1.120195	-0.054060	-0.000071
C53	C	1.453529	0.279273	0.333262
C54	C	1.786862	0.612606	0.666595
C55	C	1.177296	-0.299517	-0.000021
C56	C	1.510629	0.033816	0.333312
C57	C	1.843963	0.367149	0.666646
C58	C	1.100379	-0.248394	-0.000026
C59	C	1.433713	0.084940	0.333307
C60	C	1.767046	0.418273	0.666641
C61	C	1.111408	-0.140257	-0.000051
C62	C	1.444741	0.193077	0.333282
C63	C	1.778074	0.526410	0.666615
C64	C	1.166269	-0.407664	0.000004
C65	C	1.499602	-0.074331	0.333337
C66	C	1.832936	0.259002	0.666671
C67	C	1.312794	0.233834	-0.000036
C68	C	1.646127	0.567168	0.333297
C69	C	1.979461	0.900501	0.666630
C70	C	1.418937	0.244682	-0.000032
C71	C	1.752271	0.578015	0.333301
C72	C	2.085604	0.911348	0.666634
C73	C	1.146628	0.400000	0.000004
C74	C	1.479962	0.733333	0.333337
C75	C	1.813295	1.066667	0.666670
C76	C	1.157476	0.506143	0.000024
C77	C	1.490809	0.839477	0.333357
C78	C	1.824142	1.172810	0.666691
N79	N	1.138825	0.226039	-0.353659
N80	N	1.472159	0.559372	-0.020325
N81	N	1.805492	0.892705	0.313008
C82	C	1.198666	0.285594	-0.421429
C83	C	1.532000	0.618928	-0.088095
C84	C	1.865333	0.952261	0.245238
C85	C	1.198681	0.285594	-0.578591
C86	C	1.532015	0.618928	-0.245258
C87	C	1.865348	0.952261	0.088075
N88	N	1.138853	0.226038	0.353600
N89	N	1.472186	0.559371	0.686933
N90	N	1.805519	0.892704	1.020266
H91	H	0.650720	0.338629	0.000001
H92	H	0.984053	0.671962	0.333334
H93	H	1.317386	1.005295	0.666668
N94	N	1.074597	0.162050	-0.573303
N95	N	1.407930	0.495383	-0.239969
N96	N	1.741263	0.828717	0.093364
N97	N	1.078265	0.074017	-0.589167
N98	N	1.411598	0.407350	-0.255833
N99	N	1.744931	0.740683	0.077500
H100	H	1.032887	0.028822	-0.537530
H101	H	1.366221	0.362155	-0.204197
H102	H	1.699554	0.695489	0.129136
N103	N	1.007385	-0.295375	-0.000035
N104	N	1.340718	0.037958	0.333299
N105	N	1.674051	0.371292	0.666632
N106	N	0.982598	-0.350182	-0.095708
N107	N	1.315931	-0.016848	0.237625
N108	N	1.649265	0.316485	0.570959
H109	H	0.916923	-0.383367	-0.095721
H110	H	1.250256	-0.050034	0.237613
H111	H	1.583590	0.283300	0.570946
H112	H	1.251423	-0.262074	-0.000040
H113	H	1.584756	0.071259	0.333294
H114	H	1.918089	0.404592	0.666627
H115	H	1.249891	0.336578	-0.363097
H116	H	1.583224	0.669912	-0.029764
H117	H	1.916557	1.003245	0.303570
H118	H	0.626955	0.113453	0.000052
H119	H	0.960288	0.446786	0.333385
H120	H	1.293622	0.780119	0.666719
H121	H	1.249909	0.336587	-0.636872
H122	H	1.583242	0.669920	-0.303539
H123	H	1.916575	1.003253	0.029794
H124	H	1.087607	0.175049	-0.411990
H125	H	1.420940	0.508382	-0.078657
H126	H	1.754274	0.841715	0.254676
