data_functionalizedCrystal
_audit_creation_method	'MofGen! by Chris Wilmer'
_symmetry_space_group_name_H-M	'P1'
_symmetry_Int_Tables_number	1
_symmetry_cell_setting	triclinic
loop_
_symmetry_equiv_pos_as_xyz
  x,y,z
_cell_length_a	27.732064
_cell_length_b	27.732048
_cell_length_c	9.130313
_cell_angle_alpha	89.990549
_cell_angle_beta	90.004113
_cell_angle_gamma	82.646040
loop_
_atom_site_label
_atom_site_type_symbol
_atom_site_fract_x
_atom_site_fract_y
_atom_site_fract_z
O1	O	0.640921	0.057555	-0.121554
O2	O	0.500129	0.066292	-0.121616
O3	O	0.574898	-0.008473	-0.121555
O4	O	0.566152	0.132320	-0.121615
O5	O	0.574893	-0.008475	0.122044
O6	O	0.500124	0.066290	0.121983
O7	O	0.640916	0.057553	0.122045
Cu8	Cu	0.570520	0.061921	0.144256
Cu9	Cu	0.570525	0.061924	-0.143827
O10	O	0.566147	0.132318	0.121984
C11	C	0.482120	0.066106	0.000176
C12	C	0.428465	0.065551	0.000153
C13	C	0.051392	0.017583	0.000257
C14	C	0.253053	0.019630	0.000218
O15	O	0.284305	-0.017591	0.000288
N16	N	0.272180	0.063964	0.000193
C17	C	0.240889	0.107790	0.000187
O18	O	0.261785	0.145546	0.000179
C19	C	0.039230	0.105743	0.000236
C20	C	0.020105	0.061406	0.000247
C21	C	0.032267	-0.026750	0.000269
C22	C	-0.018145	-0.027261	0.000271
C23	C	-0.049432	0.016561	0.000260
C24	C	-0.030307	0.060895	0.000248
C25	C	0.007940	0.149568	0.000241
C26	C	-0.042478	0.149053	0.000257
C27	C	-0.061602	0.104716	0.000267
C28	C	-0.112006	0.104206	0.000240
N29	N	-0.131134	0.059872	0.000265
C30	C	-0.099846	0.016049	0.000275
C31	C	0.346763	0.108861	0.000158
C32	C	0.397178	0.109373	0.000143
C33	C	0.409338	0.021213	0.000177
C34	C	0.358923	0.020701	0.000181
C35	C	0.327636	0.064527	0.000183
C36	C	-0.205716	0.014979	0.000278
C37	C	-0.256133	0.014472	0.000273
C38	C	-0.268289	0.102632	0.000247
C39	C	-0.217876	0.103140	0.000244
C40	C	-0.186590	0.059309	0.000264
O41	O	-0.143287	0.141407	0.000186
O42	O	-0.120752	-0.021701	0.000315
C43	C	0.101805	0.018094	0.000255
C44	C	0.120930	0.062428	0.000243
C45	C	0.089642	0.106250	0.000233
C46	C	0.171344	0.062940	0.000228
C47	C	0.202631	0.019117	0.000238
C48	C	0.183504	-0.025217	0.000264
C49	C	0.133092	-0.025728	0.000265
C50	C	0.108770	0.150585	0.000207
C51	C	0.159183	0.151092	0.000204
C52	C	0.190470	0.107270	0.000214
C53	C	0.574712	-0.026481	0.000248
C54	C	0.574159	-0.080136	0.000260
C55	C	0.614862	-0.418948	0.000203
C56	C	0.612811	-0.620608	0.000182
O57	O	0.650032	-0.651862	0.000134
N58	N	0.568476	-0.639735	0.000163
C59	C	0.524651	-0.608442	0.000141
O60	O	0.486895	-0.629338	0.000110
C61	C	0.526703	-0.406784	0.000152
C62	C	0.571040	-0.387660	0.000185
C63	C	0.659196	-0.399824	0.000235
C64	C	0.659709	-0.349412	0.000248
C65	C	0.615887	-0.318124	0.000230
C66	C	0.571553	-0.337248	0.000198
C67	C	0.482878	-0.375493	0.000119
C68	C	0.483395	-0.325075	0.000118
C69	C	0.527733	-0.305952	0.000151
C70	C	0.528243	-0.255548	0.000193
N71	N	0.572578	-0.236422	0.000212
C72	C	0.616400	-0.267710	0.000230
C73	C	0.523577	-0.714317	0.000138
C74	C	0.523064	-0.764731	0.000138
C75	C	0.611225	-0.776893	0.000176
C76	C	0.611737	-0.726478	0.000187
C77	C	0.567912	-0.695190	0.000156
C78	C	0.617472	-0.161841	0.000259
C79	C	0.617981	-0.111424	0.000278
C80	C	0.529821	-0.099266	0.000232
C81	C	0.529312	-0.149679	0.000221
C82	C	0.573142	-0.180965	0.000229
O83	O	0.491043	-0.224267	0.000224
O84	O	0.654151	-0.246805	0.000228
C85	C	0.614350	-0.469360	0.000190
C86	C	0.570016	-0.488484	0.000158
C87	C	0.526194	-0.457196	0.000140
C88	C	0.569503	-0.538899	0.000158
C89	C	0.613325	-0.570187	0.000176
C90	C	0.657660	-0.551060	0.000195
C91	C	0.658172	-0.500648	0.000208
C92	C	0.481859	-0.476323	0.000122
C93	C	0.481351	-0.526735	0.000110
C94	C	0.525172	-0.558023	0.000128
C95	C	0.658925	0.057739	0.000250
C96	C	0.712580	0.058295	0.000263
C97	C	0.566333	0.150326	0.000178
C98	C	0.566886	0.203981	0.000156
N99	N	0.570519	0.061919	0.346879
N100	N	0.570530	0.061922	-0.346450
C101	C	0.603637	0.028827	0.423558
C102	C	0.603642	0.028827	0.576895
C103	C	0.537408	0.095016	0.576860
C104	C	0.537401	0.095013	0.423526
H105	H	-0.180248	-0.020712	0.000294
C106	C	0.640074	-0.007573	0.661236
H107	H	0.659798	-0.027279	0.593622
H108	H	0.622843	-0.027578	0.721068
H109	H	0.660067	0.009685	0.721034
C110	C	0.028966	0.198340	0.000251
H111	H	0.003105	0.224361	0.000269
H112	H	0.048377	0.200385	-0.084694
H113	H	0.048380	0.200368	0.085214
C114	C	0.443760	-0.026991	0.000200
H115	H	0.476523	-0.020332	0.000201
H116	H	0.437997	-0.045191	-0.084731
H117	H	0.438002	-0.045183	0.085176
H118	H	0.510430	0.121961	0.361090
C119	C	0.659427	-0.811316	0.000173
H120	H	0.652768	-0.844079	0.000153
H121	H	0.677630	-0.805564	0.085118
H122	H	0.677618	-0.805548	-0.084790
H123	H	0.510445	0.121961	0.639282
H124	H	-0.271701	-0.021634	0.000278
H125	H	0.057737	-0.062438	0.000282
C126	C	-0.039175	-0.076032	0.000309
H127	H	-0.013316	-0.102054	0.000332
H128	H	-0.058594	-0.078071	-0.084628
H129	H	-0.058582	-0.078065	0.085280
C130	C	0.337890	-0.028069	0.000207
H131	H	0.363748	-0.054092	0.000219
H132	H	0.318470	-0.030102	-0.084730
H133	H	0.318484	-0.030104	0.085177
C134	C	0.474293	-0.785761	0.000113
H135	H	0.448270	-0.759903	0.000087
H136	H	0.472254	-0.805181	0.085056
H137	H	0.472262	-0.805168	-0.084851
C138	C	0.433652	-0.441912	0.000117
H139	H	0.407178	-0.460528	0.000116
H140	H	0.432014	-0.421983	-0.084821
H141	H	0.432019	-0.422002	0.085086
C142	C	0.418210	0.158144	0.000116
H143	H	0.392352	0.184167	0.000127
H144	H	0.437619	0.160182	-0.084835
H145	H	0.437626	0.160175	0.085073
C146	C	0.312354	0.157072	0.000143
H147	H	0.330971	0.183546	0.000110
H148	H	0.292437	0.158710	0.085093
H149	H	0.292432	0.158708	-0.084815
C150	C	0.707405	-0.434234	0.000266
H151	H	0.733878	-0.415617	0.000296
H152	H	0.709048	-0.454153	-0.084675
H153	H	0.709036	-0.454155	0.085232
C154	C	-0.076890	0.197262	0.000244
H155	H	-0.058277	0.223738	0.000223
H156	H	-0.096809	0.198896	0.085189
H157	H	-0.096811	0.198897	-0.084718
C158	C	0.666753	-0.090389	0.000316
H159	H	0.660785	-0.055882	0.000336
H160	H	0.684783	-0.101144	-0.084623
H161	H	0.684775	-0.101158	0.085284
C162	C	0.660508	-0.705446	0.000209
H163	H	0.686531	-0.731305	0.000213
H164	H	0.662542	-0.686036	0.085154
H165	H	0.662544	-0.686031	-0.084753
H166	H	-0.202304	0.139243	0.000234
C167	C	0.432577	-0.547767	0.000073
H168	H	0.438543	-0.582274	0.000074
H169	H	0.414555	-0.536996	-0.084886
H170	H	0.414547	-0.537012	0.085022
H171	H	0.693341	-0.576544	0.000216
C172	C	0.217926	-0.073420	0.000281
H173	H	0.250688	-0.066761	0.000289
H174	H	0.212164	-0.091618	-0.084655
H175	H	0.212167	-0.091615	0.085252
C176	C	-0.302708	0.150834	0.000231
H177	H	-0.284101	0.177315	0.000211
H178	H	-0.322625	0.152462	0.085180
H179	H	-0.322630	0.152467	-0.084727
C180	C	0.112061	-0.074499	0.000292
H181	H	0.137920	-0.100521	0.000311
H182	H	0.092643	-0.076535	-0.084649
H183	H	0.092653	-0.076534	0.085259
H184	H	0.487888	-0.688846	0.000114
C185	C	0.180216	0.199865	0.000185
H186	H	0.214722	0.193898	0.000177
H187	H	0.169455	0.217889	0.085129
H188	H	0.169451	0.217894	-0.084779
C189	C	0.665684	-0.196249	0.000281
H190	H	0.692158	-0.177633	0.000315
H191	H	0.667325	-0.216164	-0.084667
H192	H	0.667315	-0.216173	0.085240
C193	C	0.708480	-0.328383	0.000256
H194	H	0.734502	-0.354243	0.000248
H195	H	0.710519	-0.308973	0.085201
H196	H	0.710514	-0.308967	-0.084706
H197	H	0.447706	-0.299603	0.000091
C198	C	0.480542	-0.170716	0.000181
H199	H	0.454517	-0.144859	0.000162
H200	H	0.478503	-0.190140	0.085112
H201	H	0.478515	-0.190118	-0.084796
C202	C	0.640060	-0.007579	0.339251
H203	H	0.659782	-0.027290	0.406885
H204	H	0.660049	0.009670	0.279416
H205	H	0.622818	-0.027585	0.279457
H206	H	0.083300	0.186271	0.000201
H207	H	0.446774	-0.391054	0.000083
C208	C	0.481619	-0.064845	0.000203
H209	H	0.455138	-0.083452	0.000191
H210	H	0.479995	-0.044921	-0.084746
H211	H	0.479984	-0.044931	0.085162
H212	H	0.694276	-0.485083	0.000234
