data_functionalizedCrystal
_audit_creation_method	'MofGen! by Chris Wilmer'
_symmetry_space_group_name_H-M	'P1'
_symmetry_Int_Tables_number	1
_symmetry_cell_setting	triclinic
loop_
_symmetry_equiv_pos_as_xyz
  x,y,z
_cell_length_a	17.639617
_cell_length_b	11.169416
_cell_length_c	17.639477
_cell_angle_alpha	78.764884
_cell_angle_beta	92.133882
_cell_angle_gamma	101.196516
loop_
_atom_site_label
_atom_site_type_symbol
_atom_site_fract_x
_atom_site_fract_y
_atom_site_fract_z
Zn1	Zn	1.074181	0.055456	-0.664480
Zn2	Zn	1.099793	-0.176392	-0.537499
Zn3	Zn	0.972865	-0.022518	-0.511798
Zn4	Zn	0.947196	-0.192011	-0.638735
O5	O	1.023509	-0.083866	-0.588128
O6	O	1.183843	0.063869	-0.669166
O7	O	1.104417	-0.182076	-0.427824
O8	O	0.986329	0.155789	-0.532070
O9	O	1.202659	-0.106469	-0.575873
O10	O	1.060766	0.213076	-0.644244
O11	O	1.011163	-0.069025	-0.408942
O12	O	0.863196	-0.084170	-0.507106
O13	O	0.942579	-0.133088	-0.748415
O14	O	0.844337	-0.208696	-0.600366
O15	O	1.035875	0.048725	-0.767330
O16	O	1.079526	-0.346427	-0.550910
O17	O	0.967414	-0.357902	-0.625287
C18	C	0.826213	-0.156589	-0.548154
C19	C	0.741806	-0.187725	-0.531071
C20	C	1.023481	-0.395704	-0.588114
C21	C	1.023533	-0.529077	-0.588148
C22	C	0.415119	0.152741	-0.718093
C23	C	0.335808	0.123451	-0.702026
C24	C	0.355452	-0.053702	-0.604740
C25	C	0.434766	-0.024430	-0.620802
C26	C	0.464592	0.078794	-0.677479
C27	C	0.484239	-0.098377	-0.580188
C28	C	0.563546	-0.069103	-0.596246
C29	C	0.593379	0.034119	-0.652918
C30	C	0.543899	0.108068	-0.693537
C31	C	0.454411	-0.201595	-0.523508
C32	C	0.503885	-0.275542	-0.482894
C33	C	0.583192	-0.246274	-0.498955
C34	C	0.613026	-0.143052	-0.555627
C35	C	0.632672	-0.320223	-0.458337
C36	C	0.711979	-0.290949	-0.474395
C37	C	0.692333	-0.113778	-0.571685
C38	C	1.221574	-0.010860	-0.628258
C39	C	1.305978	0.020251	-0.645359
C40	C	0.983507	-0.035226	-0.786197
C41	C	0.966461	-0.014498	-0.870602
C42	C	1.023554	0.229201	-0.588162
C43	C	1.023573	0.362611	-0.588177
C44	C	1.153169	-0.240625	-1.197333
C45	C	1.137142	-0.221138	-1.276642
C46	C	1.040043	-0.103426	-1.256980
C47	C	1.056060	-0.122908	-1.177667
C48	C	1.112624	-0.191507	-1.147850
C49	C	1.015515	-0.073790	-1.128184
C50	C	1.031533	-0.093265	-1.048879
C51	C	1.088096	-0.161858	-1.019056
C52	C	1.128642	-0.210982	-1.068544
C53	C	0.958955	-0.005184	-1.158004
C54	C	0.918410	0.043934	-1.108521
C55	C	0.934424	0.024452	-1.029213
C56	C	0.990987	-0.044141	-0.999390
C57	C	0.893878	0.073576	-0.979724
C58	C	0.909897	0.054101	-0.900419
C59	C	1.007006	-0.063616	-0.920084
C60	C	1.063398	-0.132215	-0.390839
C61	C	1.080592	-0.152550	-0.306464
H62	H	0.716618	-0.029727	-0.617840
H63	H	0.479589	-0.359584	-0.436745
H64	H	0.331156	-0.137744	-0.558592
H65	H	0.608376	-0.404261	-0.412186
H66	H	0.295529	0.183680	-0.735099
O67	O	0.443976	0.253080	-0.773157
C68	C	0.383301	0.312050	-0.805586
H69	H	0.333043	0.287793	-0.763041
H70	H	0.404557	0.417060	-0.818436
H71	H	0.363238	0.278984	-0.861502
O72	O	0.670389	0.062591	-0.668662
C73	C	0.682199	0.059211	-0.746772
H74	H	0.627659	0.073483	-0.781276
H75	H	0.732513	0.136230	-0.771074
H76	H	0.695976	-0.034807	-0.751130
H77	H	0.945918	0.010677	-1.222581
O78	O	0.377372	-0.230259	-0.507909
C79	C	0.346973	-0.350342	-0.521939
H80	H	0.395317	-0.405767	-0.518146
H81	H	0.300838	-0.399595	-0.476918
H82	H	0.320183	-0.342768	-0.582096
H83	H	0.872358	0.099792	-1.132810
H84	H	0.847829	0.129440	-1.004015
H85	H	0.752262	-0.351164	-0.441323
H86	H	1.053073	-0.119463	-0.895807
H87	H	1.170164	-0.261138	-1.316930
O88	O	1.103656	-0.181004	-0.942018
C89	C	1.089472	-0.309734	-0.911559
H90	H	1.093203	-0.362859	-0.959886
H91	H	1.134439	-0.331476	-0.865443
H92	H	1.029308	-0.338961	-0.884718
H93	H	0.993991	-0.047569	-1.281269
O94	O	1.183527	-0.277794	-1.039644
C95	C	1.162982	-0.398791	-1.055625
H96	H	1.122168	-0.397895	-1.107296
H97	H	1.217228	-0.431763	-1.069425
H98	H	1.132939	-0.464557	-1.003076
O99	O	0.572777	0.208268	-0.748687
C100	C	0.538148	0.193259	-0.820426
H101	H	0.480257	0.126249	-0.810294
H102	H	0.528546	0.287175	-0.854028
H103	H	0.577637	0.154219	-0.854968
O104	O	1.208155	-0.307264	-1.168491
C105	C	1.240488	-0.346487	-1.229166
H106	H	1.231719	-0.282470	-1.286239
H107	H	1.304941	-0.342887	-1.218367
H108	H	1.210952	-0.445819	-1.231956
O109	O	0.870413	0.101843	-0.852448
C110	C	0.817064	0.166585	-0.895773
H111	H	0.803011	0.130343	-0.951769
H112	H	0.761864	0.151695	-0.860735
H113	H	0.843176	0.270068	-0.909847
