data_functionalizedCrystal
_audit_creation_method	'MofGen! by Chris Wilmer'
_symmetry_space_group_name_H-M	'P1'
_symmetry_Int_Tables_number	1
_symmetry_cell_setting	triclinic
loop_
_symmetry_equiv_pos_as_xyz
  x,y,z
_cell_length_a	16.109318
_cell_length_b	17.699083
_cell_length_c	14.586319
_cell_angle_alpha	89.995556
_cell_angle_beta	89.999897
_cell_angle_gamma	83.375789
loop_
_atom_site_label
_atom_site_type_symbol
_atom_site_fract_x
_atom_site_fract_y
_atom_site_fract_z
O1	O	1.102954	0.097347	-0.076166
O2	O	1.436288	0.430680	0.257167
O3	O	1.769621	0.764013	0.590501
O4	O	0.860874	0.109440	-0.076185
O5	O	1.194207	0.442773	0.257149
O6	O	1.527540	0.776107	0.590482
O7	O	0.988753	-0.006786	-0.076167
O8	O	1.322087	0.326548	0.257167
O9	O	1.655420	0.659881	0.590500
O10	O	0.975075	0.213572	-0.076184
O11	O	1.308408	0.546906	0.257149
O12	O	1.641741	0.880239	0.590483
O13	O	0.988744	-0.006787	0.076314
O14	O	1.322077	0.326546	0.409647
O15	O	1.655411	0.659880	0.742981
O16	O	0.860864	0.109439	0.076296
O17	O	1.194198	0.442772	0.409629
O18	O	1.527531	0.776105	0.742963
O19	O	1.102945	0.097346	0.076315
O20	O	1.436278	0.430679	0.409648
O21	O	1.769612	0.764012	0.742982
Cu22	Cu	0.981904	0.103392	0.090228
Cu23	Cu	1.315237	0.436725	0.423562
Cu24	Cu	1.648570	0.770059	0.756895
Cu25	Cu	0.981915	0.103393	-0.090098
Cu26	Cu	1.315248	0.436727	0.243235
Cu27	Cu	1.648581	0.770060	0.576569
O28	O	0.975065	0.213571	0.076297
O29	O	1.308399	0.546905	0.409630
O30	O	1.641732	0.880238	0.742964
C31	C	0.829895	0.108947	0.000053
C32	C	1.163228	0.442281	0.333387
C33	C	1.496562	0.775614	0.666720
C34	C	0.737603	0.107472	0.000046
C35	C	1.070936	0.440805	0.333380
C36	C	1.404270	0.774138	0.666713
C37	C	0.438543	0.102707	-0.083054
C38	C	0.771876	0.436040	0.250279
C39	C	1.105209	0.769373	0.583612
C40	C	0.525262	0.104088	-0.083060
C41	C	0.858595	0.437421	0.250273
C42	C	1.191928	0.770755	0.583607
C43	C	0.525270	0.104076	0.083183
C44	C	0.858603	0.437410	0.416516
C45	C	1.191937	0.770743	0.749850
C46	C	0.438554	0.102690	0.083188
C47	C	0.771887	0.436023	0.416521
C48	C	1.105220	0.769356	0.749854
C49	C	0.395192	0.102009	0.000066
C50	C	0.728525	0.435342	0.333400
C51	C	1.061858	0.768675	0.666733
C52	C	0.568627	0.104777	0.000056
C53	C	0.901960	0.438110	0.333389
C54	C	1.235294	0.771444	0.666723
C55	C	0.662651	0.106275	0.000050
C56	C	0.995985	0.439608	0.333384
C57	C	1.329318	0.772941	0.666717
C58	C	0.301161	0.100509	0.000072
C59	C	0.634495	0.433843	0.333405
C60	C	0.967828	0.767176	0.666738
C61	C	0.988259	-0.034984	0.000074
C62	C	1.321592	0.298349	0.333407
C63	C	1.654925	0.631683	0.666740
C64	C	0.986788	-0.119004	0.000074
C65	C	1.320121	0.214329	0.333407
C66	C	1.653455	0.547662	0.666741
C67	C	1.061851	-0.167514	0.000081
C68	C	1.395184	0.165819	0.333415
C69	C	1.728518	0.499153	0.666748
C70	C	1.060464	-0.246459	0.000073
C71	C	1.393798	0.086874	0.333406
C72	C	1.727131	0.420207	0.666740
C73	C	0.984014	-0.276893	0.000064
C74	C	1.317347	0.056440	0.333398
C75	C	1.650681	0.389773	0.666731
C76	C	0.908946	-0.228378	0.000054
C77	C	1.242279	0.104956	0.333388
C78	C	1.575612	0.438289	0.666721
C79	C	0.910333	-0.149434	0.000056
C80	C	1.243666	0.183899	0.333389
C81	C	1.577000	0.517233	0.666723
C82	C	0.903349	-0.546749	0.000046
C83	C	1.236682	-0.213416	0.333380
C84	C	1.570015	0.119918	0.666713
C85	C	0.901967	-0.625699	0.000048
C86	C	1.235300	-0.292366	0.333381
C87	C	1.568634	0.040968	0.666714
C88	C	1.053480	-0.643774	0.000063
C89	C	1.386813	-0.310441	0.333397
C90	C	1.720146	0.022892	0.666730
C91	C	1.054867	-0.564831	0.000065
C92	C	1.388201	-0.231497	0.333398
C93	C	1.721534	0.101836	0.666732
C94	C	0.979799	-0.516322	0.000050
C95	C	1.313133	-0.182988	0.333384
C96	C	1.646466	0.150345	0.666717
C97	C	0.981304	-0.430720	0.000058
C98	C	1.314637	-0.097387	0.333391
C99	C	1.647970	0.235946	0.666724
C100	C	0.982509	-0.362493	0.000064
C101	C	1.315842	-0.029160	0.333397
C102	C	1.649175	0.304173	0.666730
C103	C	1.133923	0.097838	0.000075
C104	C	1.467257	0.431172	0.333408
C105	C	1.800590	0.764505	0.666741
C106	C	1.226215	0.099314	0.000076
C107	C	1.559549	0.432647	0.333409
C108	C	1.892882	0.765981	0.666742
C109	C	0.975560	0.241770	0.000054
C110	C	1.308893	0.575103	0.333388
C111	C	1.642227	0.908436	0.666721
C112	C	0.977030	0.325790	0.000048
C113	C	1.310364	0.659123	0.333381
C114	C	1.643697	0.992456	0.666715
N115	N	0.981902	0.103391	0.217060
N116	N	1.315235	0.436724	0.550393
N117	N	1.648569	0.770057	0.883727
C118	C	1.038545	0.051944	0.452074
C119	C	1.371878	0.385277	0.785408
C120	C	1.705212	0.718611	1.118741
C121	C	1.038547	0.051943	0.548056
C122	C	1.371881	0.385276	0.881389
C123	C	1.705214	0.718609	1.214722
C124	C	0.925271	0.154842	0.548049
C125	C	1.258604	0.488175	0.881382
C126	C	1.591937	0.821508	1.214716
C127	C	0.925265	0.154839	0.452070
C128	C	1.258599	0.488172	0.785403
C129	C	1.591932	0.821506	1.118736
C130	C	0.981907	0.103391	0.404085
C131	C	1.315241	0.436724	0.737418
C132	C	1.648574	0.770058	1.070751
C133	C	0.981915	0.103392	0.596045
C134	C	1.315248	0.436726	0.929379
C135	C	1.648581	0.770059	1.262712
C136	C	0.981917	0.103391	0.700113
C137	C	1.315250	0.436724	1.033446
C138	C	1.648583	0.770058	1.366779
C139	C	0.981905	0.103391	0.300011
C140	C	1.315238	0.436724	0.633344
C141	C	1.648571	0.770058	0.966678
N142	N	0.981920	0.103393	0.783070
N143	N	1.315253	0.436726	1.116404
N144	N	1.648587	0.770059	1.449737
H145	H	0.560554	0.104655	-0.150745
H146	H	0.893888	0.437989	0.182588
H147	H	1.227221	0.771322	0.515921
Br148	Br	0.848388	0.224659	0.386933
Br149	Br	1.181721	0.557992	0.720266
Br150	Br	1.515055	0.891325	1.053600
H151	H	0.403240	0.102151	-0.150737
H152	H	0.736573	0.435485	0.182596
H153	H	1.069907	0.768818	0.515930
Br154	Br	1.155360	-0.709612	0.000083
Br155	Br	1.488694	-0.376279	0.333416
Br156	Br	1.822027	-0.042945	0.666750
Br157	Br	0.584123	0.105007	0.195985
Br158	Br	0.917456	0.438341	0.529318
Br159	Br	1.250789	0.771674	0.862652
Br160	Br	0.798206	-0.667002	0.000037
Br161	Br	1.131539	-0.333669	0.333370
Br162	Br	1.464873	-0.000335	0.666703
Br163	Br	0.379715	0.101737	0.196003
Br164	Br	0.713048	0.435071	0.529336
Br165	Br	1.046382	0.768404	0.862669
Br166	Br	1.115412	-0.017884	0.613183
Br167	Br	1.448745	0.315449	0.946516
Br168	Br	1.782078	0.648782	1.279850
Br169	Br	1.165610	-0.126219	0.000106
Br170	Br	1.498944	0.207115	0.333440
Br171	Br	1.832277	0.540448	0.666773
Br172	Br	0.848404	0.224663	0.613174
Br173	Br	1.181737	0.557996	0.946508
Br174	Br	1.515071	0.891329	1.279841
H175	H	1.084665	0.010051	0.413007
H176	H	1.417998	0.343384	0.746341
H177	H	1.751332	0.676718	1.079674
Br178	Br	1.162340	-0.312292	0.000082
Br179	Br	1.495673	0.021042	0.333416
Br180	Br	1.829006	0.354375	0.666749
Br181	Br	1.158624	-0.523531	0.000076
Br182	Br	1.491958	-0.190198	0.333410
Br183	Br	1.825291	0.143136	0.666743
H184	H	0.842223	-0.507262	0.000035
H185	H	1.175557	-0.173929	0.333368
H186	H	1.508890	0.159405	0.666701
Br187	Br	0.805190	-0.269680	0.000027
Br188	Br	1.138523	0.063653	0.333360
Br189	Br	1.471857	0.396986	0.666694
H190	H	0.849209	-0.109937	0.000050
H191	H	1.182542	0.223396	0.333383
H192	H	1.515876	0.556729	0.666717
