data_functionalizedCrystal
_audit_creation_method	'MofGen! by Chris Wilmer'
_symmetry_space_group_name_H-M	'P1'
_symmetry_Int_Tables_number	1
_symmetry_cell_setting	triclinic
loop_
_symmetry_equiv_pos_as_xyz
  x,y,z
_cell_length_a	22.610064
_cell_length_b	9.065218
_cell_length_c	9.065218
_cell_angle_alpha	94.984115
_cell_angle_beta	90.016923
_cell_angle_gamma	89.998859
loop_
_atom_site_label
_atom_site_type_symbol
_atom_site_fract_x
_atom_site_fract_y
_atom_site_fract_z
O1	O	0.049183	-1.960392	0.216388
O2	O	0.549183	-1.460392	0.716388
O3	O	0.049184	-1.531107	0.234134
O4	O	0.549184	-1.031107	0.734134
O5	O	0.049183	-1.754622	0.010619
O6	O	0.549183	-1.254622	0.510619
O7	O	0.049185	-1.736876	0.439903
O8	O	0.549185	-1.236876	0.939903
O9	O	-0.049187	-1.754623	0.010549
O10	O	0.450813	-1.254623	0.510549
O11	O	-0.049185	-1.531107	0.234065
O12	O	0.450815	-1.031107	0.734065
O13	O	-0.049186	-1.960392	0.216319
O14	O	0.450814	-1.460392	0.716319
Zn15	Zn	-0.064804	-1.745750	0.225181
Zn16	Zn	0.435196	-1.245750	0.725181
Zn17	Zn	0.064802	-1.745749	0.225272
Zn18	Zn	0.564802	-1.245749	0.725272
O19	O	-0.049184	-1.736876	0.439834
O20	O	0.450816	-1.236876	0.939834
C21	C	-0.000000	-1.476120	0.232394
C22	C	0.500000	-0.976120	0.732394
C23	C	-0.000000	-1.312277	0.227294
C24	C	0.500000	-0.812277	0.727294
N25	N	-0.153256	-1.745761	0.225118
N26	N	0.346744	-1.245761	0.725118
N27	N	0.153254	-1.745749	0.225323
N28	N	0.653254	-1.245749	0.725323
C29	C	0.561895	-1.655273	0.134247
C30	C	1.061895	-1.155273	0.634247
C31	C	0.623815	-1.655277	0.134228
C32	C	1.123815	-1.155277	0.634228
O33	O	0.655833	-1.578359	0.056854
O34	O	1.155833	-1.078359	0.556854
N35	N	0.654792	-1.745766	0.225153
N36	N	1.154792	-1.245766	0.725153
C37	C	0.623845	-1.836269	0.316092
C38	C	1.123845	-1.336269	0.816092
O39	O	0.655878	-1.913238	0.393428
O40	O	1.155878	-1.413238	0.893428
C41	C	0.561926	-1.836271	0.316102
C42	C	1.061926	-1.336271	0.816102
C43	C	0.530953	-1.745765	0.225182
C44	C	1.030953	-1.245765	0.725182
C45	C	0.530922	-1.564775	0.043333
C46	C	1.030922	-1.064775	0.543333
C47	C	0.469006	-1.564770	0.043355
C48	C	0.969006	-1.064770	0.543355
C49	C	0.438064	-1.655262	0.134290
C50	C	0.938064	-1.155262	0.634290
C51	C	0.469037	-1.745760	0.225204
C52	C	0.969037	-1.245760	0.725204
C53	C	0.530981	-1.926781	0.407032
C54	C	1.030981	-1.426781	0.907032
C55	C	0.469058	-1.926777	0.407034
C56	C	0.969058	-1.426777	0.907034
C57	C	0.438084	-1.836270	0.316114
C58	C	0.938084	-1.336270	0.816114
C59	C	0.376179	-1.836246	0.316161
C60	C	0.876179	-1.336246	0.816161
N61	N	0.345203	-1.745757	0.225236
N62	N	0.845203	-1.245757	0.725236
C63	C	0.376145	-1.655265	0.134301
C64	C	0.876145	-1.155265	0.634301
C65	C	0.753878	-1.836257	0.316061
C66	C	1.253878	-1.336257	0.816061
C67	C	0.815796	-1.836248	0.316060
C68	C	1.315796	-1.336248	0.816060
C69	C	0.815762	-1.655258	0.134193
C70	C	1.315762	-1.155258	0.634193
C71	C	0.753843	-1.655261	0.134204
C72	C	1.253843	-1.155261	0.634204
C73	C	0.722902	-1.745768	0.225136
C74	C	1.222902	-1.245768	0.725136
C75	C	0.246118	-1.655259	0.134354
C76	C	0.746118	-1.155259	0.634354
C77	C	0.184197	-1.655257	0.134388
C78	C	0.684197	-1.155257	0.634388
C79	C	0.184236	-1.836252	0.316248
C80	C	0.684236	-1.336252	0.816248
C81	C	0.246152	-1.836249	0.316220
C82	C	0.746152	-1.336249	0.816220
C83	C	0.277091	-1.745748	0.225261
C84	C	0.777091	-1.245748	0.725261
O85	O	0.344122	-1.913129	0.393491
O86	O	0.844122	-1.413129	0.893491
O87	O	0.344104	-1.578323	0.056963
O88	O	0.844104	-1.078323	0.556963
C89	C	-0.000001	-1.752917	-0.044403
C90	C	0.499999	-1.252917	0.455597
C91	C	0.000002	-1.747817	-0.208245
C92	C	0.500002	-1.247817	0.291755
C93	C	0.000000	-2.015378	0.218059
C94	C	0.500000	-1.515378	0.718059
C95	C	0.000004	-2.179221	0.223158
C96	C	0.500004	-1.679221	0.723158
C97	C	0.000001	-1.738582	0.494855
C98	C	0.500001	-1.238582	0.994855
C99	C	0.000002	-1.743681	0.658698
C100	C	0.500002	-1.243681	1.158698
H101	H	0.158981	-1.581550	0.060350
H102	H	0.658981	-1.081550	0.560350
Cl103	Cl	0.569903	-2.040536	0.521372
Cl104	Cl	1.069903	-1.540536	1.021372
H105	H	0.443868	-2.000483	0.481082
H106	H	0.943868	-1.500483	0.981082
Cl107	Cl	0.430078	-1.450992	-0.070959
Cl108	Cl	0.930078	-0.950992	0.429041
Cl109	Cl	0.854673	-1.541499	0.019869
Cl110	Cl	1.354673	-1.041499	0.519869
Cl111	Cl	0.854726	-1.950001	0.430395
Cl112	Cl	1.354726	-1.450001	0.930395
Cl113	Cl	0.714912	-1.541481	0.019896
Cl114	Cl	1.214912	-1.041481	0.519896
Cl115	Cl	0.714987	-1.950036	0.430403
Cl116	Cl	1.214987	-1.450036	0.930403
Cl117	Cl	0.285003	-1.541489	0.020000
Cl118	Cl	0.785003	-1.041489	0.520000
Cl119	Cl	0.569810	-1.450984	-0.070988
Cl120	Cl	1.069810	-0.950984	0.429012
H121	H	0.159032	-1.909925	0.390289
H122	H	0.659032	-1.409925	0.890289
H123	H	0.271372	-1.909926	0.390275
H124	H	0.771372	-1.409926	0.890275
