data_functionalizedCrystal
_audit_creation_method	'MofGen! by Chris Wilmer'
_symmetry_space_group_name_H-M	'P1'
_symmetry_Int_Tables_number	1
_symmetry_cell_setting	triclinic
loop_
_symmetry_equiv_pos_as_xyz
  x,y,z
_cell_length_a	9.482900
_cell_length_b	16.992694
_cell_length_c	16.992695
_cell_angle_alpha	89.331777
_cell_angle_beta	99.973796
_cell_angle_gamma	99.926526
loop_
_atom_site_label
_atom_site_type_symbol
_atom_site_fract_x
_atom_site_fract_y
_atom_site_fract_z
O1	O	-0.120712	-1.062330	0.155377
O2	O	0.212621	-0.728997	0.488711
O3	O	0.545955	-0.395663	0.822044
O4	O	-0.120755	-0.833934	0.153542
O5	O	0.212579	-0.500601	0.486875
O6	O	0.545912	-0.167267	0.820209
O7	O	-0.120722	-0.947215	0.040261
O8	O	0.212611	-0.613882	0.373594
O9	O	0.545945	-0.280549	0.706928
O10	O	-0.120745	-0.949049	0.268659
O11	O	0.212589	-0.615715	0.601992
O12	O	0.545922	-0.282382	0.935325
O13	O	0.121064	-0.924211	0.063369
O14	O	0.454397	-0.590878	0.396703
O15	O	0.787730	-0.257545	0.730036
O16	O	0.121031	-0.810930	0.176651
O17	O	0.454364	-0.477597	0.509984
O18	O	0.787698	-0.144263	0.843317
O19	O	0.121074	-1.039326	0.178486
O20	O	0.454407	-0.705993	0.511819
O21	O	0.787741	-0.372659	0.845153
Cu22	Cu	0.143129	-0.923028	0.179678
Cu23	Cu	0.476463	-0.589694	0.513012
Cu24	Cu	0.809796	-0.256361	0.846345
Cu25	Cu	-0.142810	-0.950232	0.152350
Cu26	Cu	0.190523	-0.616899	0.485683
Cu27	Cu	0.523856	-0.283566	0.819016
O28	O	0.121041	-0.926045	0.291767
O29	O	0.454374	-0.592712	0.625101
O30	O	0.787708	-0.259378	0.958434
C31	C	0.000133	-0.793072	0.162740
C32	C	0.333466	-0.459739	0.496073
C33	C	0.666799	-0.126406	0.829407
C34	C	0.000117	-0.705589	0.155710
C35	C	0.333450	-0.372256	0.489043
C36	C	0.666783	-0.038923	0.822376
N37	N	0.344244	-0.903899	0.198900
N38	N	0.677577	-0.570566	0.532233
N39	N	1.010911	-0.237232	0.865566
N40	N	-0.343925	-0.969367	0.133123
N41	N	-0.010592	-0.636034	0.466456
N42	N	0.322742	-0.302700	0.799789
C43	C	0.416455	-0.944585	0.158015
C44	C	0.749788	-0.611251	0.491348
C45	C	1.083122	-0.277918	0.824681
C46	C	0.583868	-0.928675	0.174014
C47	C	0.917201	-0.595342	0.507347
C48	C	1.250534	-0.262009	0.840680
C49	C	0.000170	-0.933358	0.022455
C50	C	0.333504	-0.600024	0.355788
C51	C	0.666837	-0.266691	0.689122
C52	C	0.000169	-0.926329	-0.065030
C53	C	0.333502	-0.592996	0.268303
C54	C	0.666835	-0.259662	0.601637
C55	C	0.000183	-1.080188	0.169288
C56	C	0.333516	-0.746855	0.502621
C57	C	0.666850	-0.413521	0.835954
C58	C	0.000190	-1.167672	0.176317
C59	C	0.333523	-0.834339	0.509650
C60	C	0.666856	-0.501005	0.842984
C61	C	0.000111	-0.659599	0.223527
C62	C	0.333444	-0.326266	0.556861
C63	C	0.666778	0.007068	0.890194
C64	C	0.000132	-0.577396	0.216920
C65	C	0.333465	-0.244063	0.550254
C66	C	0.666798	0.089270	0.883587
C67	C	0.000148	-0.541186	0.142494
C68	C	0.333481	-0.207853	0.475828
C69	C	0.666814	0.125480	0.809161
C70	C	0.000158	-0.587183	0.074672
C71	C	0.333491	-0.253849	0.408005
C72	C	0.666824	0.079484	0.741339
C73	C	0.000147	-0.669383	0.081281
C74	C	0.333481	-0.336049	0.414614
C75	C	0.666814	-0.002716	0.747947
C76	C	0.000189	-0.295868	0.115104
C77	C	0.333523	0.037465	0.448437
C78	C	0.666856	0.370798	0.781770
C79	C	0.000195	-0.213662	0.108500
C80	C	0.333529	0.119671	0.441833
C81	C	0.666862	0.453004	0.775166
C82	C	0.000172	-0.203881	0.250749
C83	C	0.333505	0.129452	0.584082
C84	C	0.666839	0.462785	0.917415
C85	C	0.000153	-0.286085	0.257350
C86	C	0.333486	0.047249	0.590683
C87	C	0.666820	0.380582	0.924017
C88	C	0.000171	-0.332073	0.189529
C89	C	0.333504	0.001261	0.522862
C90	C	0.666837	0.334594	0.856195
N91	N	0.000164	-0.457163	0.135739
N92	N	0.333498	-0.123829	0.469072
N93	N	0.666831	0.209504	0.802405
N94	N	0.000164	-0.416094	0.196286
N95	N	0.333498	-0.082761	0.529619
N96	N	0.666831	0.250573	0.862953
C97	C	0.000183	-0.994146	-0.111019
C98	C	0.333516	-0.660812	0.222314
C99	C	0.666849	-0.327479	0.555647
C100	C	0.000168	-0.987538	-0.193222
C101	C	0.333501	-0.654205	0.140112
C102	C	0.666834	-0.320872	0.473445
C103	C	0.000149	-0.913112	-0.229432
C104	C	0.333482	-0.579779	0.103902
C105	C	0.666816	-0.246446	0.437235
C106	C	0.000130	-0.845291	-0.183436
C107	C	0.333464	-0.511958	0.149897
C108	C	0.666797	-0.178624	0.483230
C109	C	0.000135	-0.851900	-0.101237
C110	C	0.333468	-0.518567	0.232097
C111	C	0.666802	-0.185234	0.565430
C112	C	0.000124	-0.885720	-0.474748
C113	C	0.333457	-0.552387	-0.141415
C114	C	0.666790	-0.219054	0.191918
C115	C	0.000124	-0.879116	-0.556954
C116	C	0.333457	-0.545782	-0.223620
C117	C	0.666790	-0.212449	0.109713
C118	C	0.000158	-1.021364	-0.566733
C119	C	0.333492	-0.688030	-0.233400
C120	C	0.666825	-0.354697	0.099933
C121	C	0.000172	-1.027966	-0.484531
C122	C	0.333505	-0.694632	-0.151198
C123	C	0.666838	-0.361299	0.182136
C124	C	0.000145	-0.960145	-0.438544
C125	C	0.333479	-0.626812	-0.105210
C126	C	0.666812	-0.293478	0.228123
N127	N	0.000138	-0.906356	-0.313455
N128	N	0.333471	-0.573023	0.019878
N129	N	0.666805	-0.239690	0.353212
N130	N	0.000146	-0.966903	-0.354523
N131	N	0.333479	-0.633570	-0.021190
N132	N	0.666812	-0.300236	0.312144
C133	C	0.000146	-0.939903	0.309573
C134	C	0.333479	-0.606569	0.642906
C135	C	0.666812	-0.273236	0.976240
C136	C	0.000138	-0.946932	0.397057
C137	C	0.333471	-0.613599	0.730390
C138	C	0.666804	-0.280266	1.063723
H139	H	0.645979	-0.882059	0.220861
H140	H	0.979312	-0.548726	0.554194
H141	H	1.312645	-0.215392	0.887528
H142	H	0.000161	-0.166429	0.305965
H143	H	0.333494	0.166904	0.639298
H144	H	0.666827	0.500238	0.972632
O145	O	0.000211	-0.345462	0.041955
O146	O	0.333545	-0.012129	0.375289
O147	O	0.666878	0.321205	0.708622
H148	H	-0.098335	-0.341404	-0.002837
H149	H	0.234999	-0.008071	0.330497
H150	H	0.568332	0.325262	0.663830
H151	H	0.593964	-1.015977	0.086269
H152	H	0.927297	-0.682644	0.419602
H153	H	1.260631	-0.349311	0.752936
H154	H	0.000207	-0.184184	0.047890
H155	H	0.333540	0.149150	0.381223
H156	H	0.666873	0.482483	0.714556
H157	H	0.000177	-1.076579	-0.604185
H158	H	0.333510	-0.743246	-0.270852
H159	H	0.666844	-0.409913	0.062481
H160	H	0.000191	-0.557692	0.014075
H161	H	0.333525	-0.224359	0.347408
H162	H	0.666858	0.108975	0.680741
H163	H	0.000126	-0.539954	0.272145
H164	H	0.333459	-0.206621	0.605478
H165	H	0.666792	0.126712	0.938811
O166	O	0.000173	-0.325137	0.337627
O167	O	0.333506	0.008197	0.670961
O168	O	0.666839	0.341530	1.004294
H169	H	0.000195	-0.279344	0.383679
H170	H	0.333528	0.053990	0.717012
H171	H	0.666861	0.387323	1.050345
O172	O	0.000149	-0.718993	0.008136
O173	O	0.333482	-0.385660	0.341469
O174	O	0.666816	-0.052327	0.674803
H175	H	0.000149	-0.680008	-0.044730
H176	H	0.333482	-0.346674	0.288604
H177	H	0.666815	-0.013341	0.621937
H178	H	0.000132	-0.818504	-0.586431
H179	H	0.333465	-0.485171	-0.253097
H180	H	0.666798	-0.151837	0.080236
H181	H	0.354340	-0.991192	0.111164
H182	H	0.687674	-0.657859	0.444497
H183	H	1.021007	-0.324526	0.777831
H184	H	0.000207	-1.054750	-0.081543
H185	H	0.333540	-0.721417	0.251791
H186	H	0.666874	-0.388084	0.585124
O187	O	0.426505	-0.842159	0.260960
O188	O	0.759838	-0.508825	0.594294
O189	O	1.093171	-0.175492	0.927627
H190	H	0.545089	-0.839357	0.263793
H191	H	0.878422	-0.506024	0.597126
H192	H	1.211755	-0.172690	0.930459
O193	O	0.000108	-0.698652	0.303803
O194	O	0.333441	-0.365319	0.637136
O195	O	0.666775	-0.031985	0.970470
H196	H	0.000127	-0.652856	0.349852
H197	H	0.333460	-0.319523	0.683185
H198	H	0.666794	0.013810	1.016518
O199	O	0.000207	-1.060680	-0.242825
O200	O	0.333541	-0.727347	0.090508
O201	O	0.666874	-0.394013	0.423841
H202	H	0.000248	-1.113540	-0.203834
H203	H	0.333581	-0.780207	0.129499
H204	H	0.666914	-0.446874	0.462833
H205	H	0.000106	-0.784693	-0.212926
H206	H	0.333439	-0.451359	0.120407
H207	H	0.666772	-0.118026	0.453741
O208	O	0.000157	-1.108242	-0.445478
O209	O	0.333490	-0.774909	-0.112145
O210	O	0.666823	-0.441576	0.221188
H211	H	0.000142	-1.154293	-0.491271
H212	H	0.333475	-0.820960	-0.157937
H213	H	0.666809	-0.487626	0.175396
H214	H	0.000103	-0.830495	-0.437315
H215	H	0.333436	-0.497162	-0.103982
H216	H	0.666769	-0.163829	0.229352
H217	H	0.000123	-0.796677	-0.063793
H218	H	0.333456	-0.463343	0.269541
H219	H	0.666790	-0.130010	0.602874
