data_functionalizedCrystal
_audit_creation_method	'MofGen! by Chris Wilmer'
_symmetry_space_group_name_H-M	'P1'
_symmetry_Int_Tables_number	1
_symmetry_cell_setting	triclinic
loop_
_symmetry_equiv_pos_as_xyz
  x,y,z
_cell_length_a	19.288864
_cell_length_b	14.472310
_cell_length_c	19.288865
_cell_angle_alpha	90.006324
_cell_angle_beta	83.136245
_cell_angle_gamma	90.026857
loop_
_atom_site_label
_atom_site_type_symbol
_atom_site_fract_x
_atom_site_fract_y
_atom_site_fract_z
O1	O	0.921357	0.077148	0.086643
O2	O	0.719097	0.077086	0.098332
O3	O	0.826072	0.077100	-0.008643
O4	O	0.814383	0.077133	0.193618
O5	O	0.826044	-0.076582	-0.008637
O6	O	0.719069	-0.076596	0.098338
O7	O	0.921330	-0.076534	0.086649
Cu8	Cu	0.820197	-0.090598	0.092494
Cu9	Cu	0.820230	0.091149	0.092487
O10	O	0.814355	-0.076549	0.193624
C11	C	0.693207	0.000237	0.097959
C12	C	0.616103	0.000212	0.096830
N13	N	0.820179	-0.218428	0.092499
C14	C	0.571407	0.000237	0.159598
C15	C	0.498960	0.000247	0.158537
C16	C	0.471212	0.000251	0.094705
C17	C	0.515918	0.000221	0.031929
C18	C	0.588364	0.000202	0.032991
C19	C	0.362960	0.054116	0.044523
C20	C	0.290515	0.054141	0.043464
C21	C	0.247767	0.000306	0.091425
C22	C	0.277470	-0.053541	0.140458
C23	C	0.349915	-0.053560	0.141521
C24	C	0.392658	0.000271	0.093546
C25	C	0.124514	0.000341	0.153047
C26	C	0.052066	0.000345	0.151984
C27	C	0.069026	0.000328	0.025374
C28	C	0.141473	0.000315	0.026439
C29	C	0.169212	0.000325	0.090278
C30	C	0.820229	-0.592520	0.092484
C31	C	0.762798	-0.553362	0.149533
C32	C	0.762929	-0.446273	0.149740
C33	C	0.820204	-0.406929	0.092491
C34	C	0.892628	-0.445740	0.108094
C35	C	0.892305	-0.552862	0.108499
C36	C	0.805882	-0.553067	0.019661
C37	C	0.804218	-0.445940	0.020152
C38	C	0.820194	-0.302040	0.092494
C39	C	0.820243	-0.697408	0.092483
C40	C	0.947220	0.000317	0.087022
C41	C	1.024324	0.000347	0.088151
C42	C	0.825682	0.000257	-0.034516
C43	C	0.824553	0.000248	-0.111620
N44	N	0.820253	0.218980	0.092476
C45	C	0.887321	0.000263	-0.156316
C46	C	0.886260	0.000277	-0.228763
C47	C	0.822428	0.000258	-0.256511
C48	C	0.759652	0.000249	-0.211805
C49	C	0.760714	0.000244	-0.139359
C50	C	0.772239	-0.053589	-0.364796
C51	C	0.771179	-0.053589	-0.437241
C52	C	0.819148	0.000278	-0.479956
C53	C	0.868189	0.054134	-0.450221
C54	C	0.869252	0.054129	-0.377775
C55	C	0.821269	0.000264	-0.335065
C56	C	0.880770	0.000309	-0.603209
C57	C	0.879707	0.000329	-0.675657
C58	C	0.753097	0.000292	-0.658697
C59	C	0.754162	0.000281	-0.586250
C60	C	0.818001	0.000285	-0.558511
C61	C	0.814745	0.000297	0.219497
C62	C	0.815874	0.000312	0.296601
H63	H	0.593987	0.000248	0.211580
H64	H	0.374096	-0.097407	0.181443
H65	H	0.709088	-0.420036	0.140477
H66	H	0.708781	-0.579168	0.140426
H67	H	0.905614	-0.418889	0.160589
C68	C	0.950988	0.000325	-0.572692
H69	H	0.988220	0.000349	-0.609691
H70	H	0.954026	-0.053271	-0.544791
H71	H	0.954042	0.053921	-0.544776
H72	H	0.462561	0.000265	0.209652
C73	C	0.230459	-0.112765	0.193219
H74	H	0.258524	-0.144830	0.222574
H75	H	0.205395	-0.156057	0.168793
H76	H	0.198460	-0.073933	0.220851
C77	C	0.736088	-0.589618	-0.000669
H78	H	0.715043	-0.629285	0.035071
H79	H	0.744335	-0.622985	-0.043266
H80	H	0.705818	-0.539125	-0.006334
C81	C	0.155035	0.000341	0.223263
H82	H	0.204582	0.000339	0.214907
H83	H	0.139654	-0.053245	0.249101
H84	H	0.139703	0.053946	0.249096
H85	H	0.493322	0.000237	-0.020044
C86	C	0.691666	0.000219	-0.090191
H87	H	0.653497	0.000205	-0.117090
H88	H	0.689459	0.053805	-0.061568
H89	H	0.689442	-0.053387	-0.061588
C90	C	0.951751	-0.587855	0.054486
H91	H	0.975995	-0.536600	0.032398
H92	H	0.932760	-0.624349	0.020414
H93	H	0.983183	-0.624191	0.077333
C94	C	0.002900	0.000373	0.221032
H95	H	0.029799	0.000385	0.259201
H96	H	-0.025741	-0.053212	0.223257
H97	H	-0.025687	0.053979	0.223242
H98	H	0.046435	0.000389	-0.026600
H99	H	0.397761	0.097959	0.005466
C100	C	0.190641	0.000302	-0.042607
H101	H	0.163742	0.000313	-0.080776
H102	H	0.219229	-0.053297	-0.044824
H103	H	0.219279	0.053895	-0.044823
C104	C	0.923187	0.113367	-0.345063
H105	H	0.916951	0.105641	-0.295801
H106	H	0.916923	0.176547	-0.356110
H107	H	0.968967	0.094445	-0.363092
C108	C	0.257844	0.113373	-0.010465
H109	H	0.208575	0.105686	-0.004222
H110	H	0.275859	0.094432	-0.056245
H111	H	0.268934	0.176554	-0.004185
C112	C	0.957538	0.000271	-0.125803
H113	H	0.949183	0.000258	-0.076255
H114	H	0.983389	0.053868	-0.141155
H115	H	0.983358	-0.053324	-0.141166
C116	C	0.637535	0.000181	-0.036055
H117	H	0.684654	0.000167	-0.026279
H118	H	0.629171	0.053771	-0.062243
H119	H	0.629122	-0.053420	-0.062235
C120	C	0.775287	-0.411615	0.222743
H121	H	0.775408	-0.345972	0.223120
H122	H	0.819002	-0.433782	0.233776
H123	H	0.739070	-0.433698	0.256373
C124	C	0.732248	-0.411682	0.004147
H125	H	0.712023	-0.373758	0.041387
H126	H	0.702718	-0.463194	-0.000878
H127	H	0.737606	-0.376941	-0.037940
H128	H	0.771808	-0.580258	0.203274
H129	H	0.936376	-0.420250	0.067638
C130	C	0.909422	-0.586588	0.180236
H131	H	0.916503	-0.534822	0.208858
H132	H	0.950609	-0.623114	0.174255
H133	H	0.871700	-0.622622	0.201861
H134	H	0.937375	0.000293	-0.265162
H135	H	0.701123	0.000281	-0.681288
H136	H	0.703049	0.000264	-0.549857
H137	H	0.707679	0.000235	-0.234401
H138	H	0.843349	-0.419161	-0.024272
C139	C	0.717238	-0.112828	-0.469944
H140	H	0.688813	-0.144897	-0.434129
H141	H	0.740825	-0.156117	-0.501425
H142	H	0.688785	-0.074008	-0.494445
C143	C	0.862457	-0.587279	-0.037689
H144	H	0.894668	-0.625421	-0.017391
H145	H	0.886403	-0.535759	-0.059697
H146	H	0.841200	-0.621784	-0.071353
H147	H	0.907250	0.097998	-0.484999
C148	C	0.719468	-0.112846	-0.317815
H149	H	0.690117	-0.144928	-0.345899
H150	H	0.691844	-0.074041	-0.285793
H151	H	0.743893	-0.156138	-0.292776
C152	C	0.948753	0.000356	-0.724826
H153	H	0.938979	0.000372	-0.771946
H154	H	0.974929	-0.053230	-0.716448
H155	H	0.974945	0.053961	-0.716427
