data_functionalizedCrystal
_audit_creation_method	'MofGen! by Chris Wilmer'
_symmetry_space_group_name_H-M	'P1'
_symmetry_Int_Tables_number	1
_symmetry_cell_setting	triclinic
loop_
_symmetry_equiv_pos_as_xyz
  x,y,z
_cell_length_a	10.654550
_cell_length_b	15.944551
_cell_length_c	9.730223
_cell_angle_alpha	89.997716
_cell_angle_beta	89.996251
_cell_angle_gamma	83.991820
loop_
_atom_site_label
_atom_site_type_symbol
_atom_site_fract_x
_atom_site_fract_y
_atom_site_fract_z
O1	O	1.666308	0.117973	-0.114406
O2	O	1.300684	0.129213	-0.114384
O3	O	1.493480	0.001376	-0.114384
O4	O	1.473511	0.245810	-0.114407
O5	O	1.493478	0.001379	0.114196
O6	O	1.300681	0.129216	0.114196
O7	O	1.666305	0.117976	0.114174
Zn8	Zn	1.483493	0.123597	0.150477
Zn9	Zn	1.483496	0.123592	-0.150687
O10	O	1.473509	0.245813	0.114173
C11	C	1.253895	0.128389	-0.000092
C12	C	1.114484	0.125920	-0.000083
C13	C	1.034024	0.201188	-0.000110
C14	C	0.903034	0.198863	-0.000134
C15	C	0.932975	0.045995	-0.000108
C16	C	1.063963	0.048321	-0.000075
C17	C	1.084545	0.278788	-0.000118
C18	C	1.004084	0.354062	-0.000147
C19	C	0.873094	0.351737	-0.000170
C20	C	0.822564	0.274137	-0.000165
C21	C	1.492650	-0.029921	-0.000093
C22	C	1.490165	-0.123182	-0.000092
C23	C	1.364720	-0.338765	-0.000104
C24	C	1.422971	-0.399443	0.112596
C25	C	1.485668	-0.293934	-0.000103
C26	C	1.423002	-0.399430	-0.112765
C27	C	1.481317	-0.458872	-0.000119
C28	C	1.543953	-0.353384	0.112691
C29	C	1.543967	-0.353364	-0.112772
C30	C	1.602306	-0.414024	-0.000045
C31	C	1.488172	-0.198917	-0.000092
C32	C	1.478822	-0.553887	-0.000119
C33	C	1.713094	0.118800	-0.000122
C34	C	1.852505	0.121269	-0.000140
C35	C	1.474339	0.277110	-0.000120
C36	C	1.476824	0.370371	-0.000130
N37	N	1.483500	0.123599	0.356013
N38	N	1.483499	0.123583	-0.356224
C39	C	1.568892	0.067012	0.427939
C40	C	1.568889	0.067002	0.571822
C41	C	1.398098	0.180173	0.571840
C42	C	1.398096	0.180178	0.427959
C43	C	1.654296	0.010433	0.355993
C44	C	1.739696	-0.046158	0.427920
C45	C	1.739693	-0.046168	0.571803
C46	C	1.654290	0.010412	0.643759
H47	H	0.807585	0.413029	-0.000180
O48	O	1.141950	-0.024872	-0.000121
C49	C	1.069274	-0.093862	-0.000103
H50	H	0.971522	-0.073117	-0.043401
H51	H	1.059922	-0.117612	0.109556
C52	C	1.254630	-0.190644	-0.036550
C53	C	1.134572	-0.165166	-0.089740
H54	H	1.294909	-0.234629	-0.091837
H55	H	1.303594	-0.144165	-0.036557
H56	H	1.246819	-0.210430	0.054831
H57	H	1.142385	-0.145370	-0.181113
H58	H	1.085610	-0.211643	-0.089751
H59	H	1.328567	0.226239	0.630436
O60	O	1.244875	-0.299852	0.000093
C61	C	1.158550	-0.361103	0.001371
H62	H	1.206466	-0.422610	0.045212
H63	H	1.125550	-0.372196	-0.107960
C64	C	0.985251	-0.254395	0.037389
C65	C	1.044100	-0.329937	0.091246
H66	H	0.914650	-0.235171	0.092822
H67	H	1.043409	-0.213129	0.036523
H68	H	0.957762	-0.263650	-0.053720
H69	H	1.071601	-0.320680	0.182345
H70	H	0.985944	-0.371202	0.092129
H71	H	1.328561	0.226256	0.369396
O72	O	0.883684	-0.029308	-0.000176
C73	C	0.750817	-0.015221	-0.000181
H74	H	0.720077	0.050150	-0.043465
H75	H	0.714322	-0.019503	0.109470
C76	C	0.734261	-0.162641	-0.036674
C77	C	0.696505	-0.082354	-0.089848
H78	H	0.700756	-0.204054	-0.091979
H79	H	0.823776	-0.172133	-0.036666
H80	H	0.703845	-0.166197	0.054701
H81	H	0.726934	-0.078796	-0.181214
H82	H	0.606993	-0.072863	-0.089873
H83	H	1.191203	0.280689	-0.000105
O84	O	1.722245	-0.452777	-0.000164
C85	C	1.786260	-0.428228	-0.117961
H86	H	1.739119	-0.365207	-0.156859
H87	H	1.782604	-0.478042	-0.201504
C88	C	1.982703	-0.496655	-0.033465
C89	C	1.924811	-0.419248	-0.081233
H90	H	2.068169	-0.491120	-0.010813
H91	H	1.939575	-0.513197	0.045895
H92	H	1.979644	-0.538159	-0.103092
H93	H	1.927856	-0.377749	-0.011600
H94	H	1.967943	-0.402699	-0.160581
O95	O	1.604762	-0.329013	-0.226588
C96	C	1.540685	-0.352241	-0.345182
H97	H	1.438300	-0.359598	-0.318174
H98	H	1.588184	-0.414606	-0.386305
C99	C	1.670582	-0.274392	-0.488834
C100	C	1.544828	-0.283421	-0.455664
H101	H	1.673142	-0.231944	-0.556987
H102	H	1.713756	-0.258745	-0.408936
H103	H	1.710151	-0.326368	-0.523095
H104	H	1.505266	-0.231449	-0.421388
H105	H	1.501647	-0.299058	-0.535559
O106	O	1.361745	-0.423734	0.226169
C107	C	1.236541	-0.385039	0.225797
H108	H	1.207397	-0.366962	0.116125
H109	H	1.229961	-0.325999	0.292591
C110	C	1.183829	-0.469143	0.418015
C111	C	1.148029	-0.446948	0.283312
H112	H	1.129230	-0.507329	0.453498
H113	H	1.268182	-0.495211	0.418270
H114	H	1.178345	-0.419938	0.473660
H115	H	1.153529	-0.496152	0.227667
H116	H	1.063674	-0.420889	0.283049
H117	H	1.045235	0.417241	-0.000140
O118	O	1.822799	-0.101084	0.358153
C119	C	1.947123	-0.086662	0.393246
H120	H	1.947004	-0.054303	0.497724
H121	H	1.985945	-0.044599	0.312269
C122	C	2.030796	-0.211181	0.271510
C123	C	2.030650	-0.171444	0.399838
H124	H	2.082322	-0.263478	0.275571
H125	H	1.947037	-0.220896	0.247863
H126	H	2.063144	-0.176120	0.204043
H127	H	1.998288	-0.206501	0.467299
H128	H	2.114406	-0.161737	0.423497
H129	H	0.715901	0.272250	-0.000163
H130	H	1.595065	-0.333096	0.208074
H131	H	1.371831	-0.419804	-0.208051
H132	H	1.654309	0.010437	0.238836
H133	H	1.809220	-0.092252	0.630364
H134	H	1.654286	0.010393	0.760918
