data_functionalizedCrystal
_audit_creation_method	'MofGen! by Chris Wilmer'
_symmetry_space_group_name_H-M	'P1'
_symmetry_Int_Tables_number	1
_symmetry_cell_setting	triclinic
loop_
_symmetry_equiv_pos_as_xyz
  x,y,z
_cell_length_a	10.654550
_cell_length_b	11.792241
_cell_length_c	9.130313
_cell_angle_alpha	89.998583
_cell_angle_beta	89.996220
_cell_angle_gamma	84.339159
loop_
_atom_site_label
_atom_site_type_symbol
_atom_site_fract_x
_atom_site_fract_y
_atom_site_fract_z
O1	O	1.667383	0.159415	-0.121920
O2	O	1.301862	0.174603	-0.121897
O3	O	1.493493	0.001859	-0.121899
O4	O	1.475752	0.332159	-0.121918
O5	O	1.493490	0.001864	0.121700
O6	O	1.301859	0.174608	0.121702
O7	O	1.667381	0.159419	0.121678
Cu8	Cu	1.484620	0.167014	0.143933
Cu9	Cu	1.484623	0.167008	-0.144151
O10	O	1.475750	0.332164	0.121680
C11	C	1.255066	0.173490	-0.000095
C12	C	1.115632	0.170154	-0.000085
C13	C	1.492377	-0.040432	-0.000100
C14	C	1.489042	-0.166454	-0.000101
C15	C	1.035858	0.271863	-0.000113
C16	C	0.904847	0.268721	-0.000138
C17	C	0.933394	0.062152	-0.000114
C18	C	1.064404	0.065295	-0.000079
C19	C	1.019376	0.391124	-0.000133
C20	C	0.888364	0.387982	-0.000158
C21	C	1.482908	-0.397180	-0.000125
C22	C	1.486316	-0.268787	-0.000112
C23	C	1.714177	0.160532	-0.000127
C24	C	1.853611	0.163869	-0.000146
C25	C	1.476865	0.374455	-0.000122
C26	C	1.480201	0.500476	-0.000130
N27	N	1.484627	0.167017	0.346555
N28	N	1.484625	0.166996	-0.346774
C29	C	1.569503	0.090552	0.423206
C30	C	1.569500	0.090539	0.576543
C31	C	1.399740	0.243465	0.576564
C32	C	1.399739	0.243472	0.423230
C33	C	1.667516	0.002265	0.423195
C34	C	1.667513	0.002251	0.576532
H35	H	1.129352	-0.017527	-0.000036
C36	C	1.626612	-0.109118	0.640791
C37	C	1.591567	-0.204536	0.537876
C38	C	1.550662	-0.315900	0.602139
C39	C	1.544803	-0.331846	0.769316
C40	C	1.579849	-0.236425	0.872241
C41	C	1.620754	-0.125061	0.807979
H42	H	1.595903	-0.192734	0.414112
H43	H	1.524719	-0.386536	0.525946
H44	H	1.514523	-0.414284	0.816887
H45	H	1.575513	-0.248226	0.996005
H46	H	1.646697	-0.054425	0.884172
C47	C	0.877038	-0.053188	-0.000117
C48	C	0.790868	-0.083748	0.126360
C49	C	0.734515	-0.199091	0.126355
C50	C	0.764333	-0.283873	-0.000125
C51	C	0.850507	-0.253314	-0.126610
C52	C	0.906860	-0.137972	-0.126606
H53	H	0.768791	-0.020986	0.219996
H54	H	0.670723	-0.221712	0.219989
H55	H	0.722617	-0.369256	-0.000128
H56	H	0.872584	-0.316077	-0.220247
H57	H	0.970652	-0.115351	-0.220240
C58	C	1.058835	0.454134	0.137588
C59	C	0.958280	0.501751	0.248585
C60	C	0.997740	0.564759	0.386302
C61	C	1.137755	0.580150	0.413021
C62	C	1.238320	0.532532	0.302020
C63	C	1.198859	0.469524	0.164304
H64	H	0.854624	0.490358	0.228809
H65	H	0.923295	0.600008	0.468471
H66	H	1.166966	0.626792	0.514967
H67	H	1.341975	0.543925	0.321797
H68	H	1.273304	0.434275	0.082134
H69	H	1.758622	0.029909	0.375629
C70	C	1.797805	0.028530	0.632773
C71	C	1.916434	-0.050468	0.592029
C72	C	2.046717	-0.024186	0.648276
C73	C	2.058371	0.081093	0.745267
C74	C	1.939739	0.160098	0.786015
C75	C	1.809456	0.133816	0.729768
H76	H	1.907810	-0.128409	0.520226
H77	H	2.134536	-0.082672	0.618111
H78	H	2.154815	0.100549	0.786904
H79	H	1.948363	0.238039	0.857818
H80	H	1.721637	0.192301	0.759934
H81	H	0.842589	0.424026	0.105008
H82	H	1.054925	0.429096	-0.105307
C83	C	1.638873	-0.115584	0.366963
C84	C	1.726682	-0.222533	0.407696
C85	C	1.698038	-0.340378	0.351463
C86	C	1.581584	-0.351273	0.254499
C87	C	1.493767	-0.244321	0.213761
C88	C	1.522412	-0.126476	0.269993
H89	H	1.812895	-0.214471	0.479479
H90	H	1.763046	-0.419551	0.381620
H91	H	1.560379	-0.438509	0.212872
H92	H	1.407554	-0.252383	0.141977
H93	H	1.457403	-0.047303	0.239836
C94	C	0.831799	0.448670	-0.137893
C95	C	0.757774	0.382926	-0.248915
C96	C	0.701209	0.443608	-0.386645
C97	C	0.718668	0.570035	-0.413352
C98	C	0.792696	0.635786	-0.302327
C99	C	0.849262	0.575103	-0.164597
H100	H	0.744847	0.289331	-0.229148
H101	H	0.646408	0.394934	-0.468833
H102	H	0.676794	0.614955	-0.515308
H103	H	0.805624	0.729381	-0.322094
H104	H	0.904063	0.623778	-0.082409
H105	H	1.330615	0.305726	0.360822
H106	H	1.330625	0.305712	0.639010
