data_functionalizedCrystal
_audit_creation_method	'MofGen! by Chris Wilmer'
_symmetry_space_group_name_H-M	'P1'
_symmetry_Int_Tables_number	1
_symmetry_cell_setting	triclinic
loop_
_symmetry_equiv_pos_as_xyz
  x,y,z
_cell_length_a	15.297475
_cell_length_b	21.395361
_cell_length_c	21.395355
_cell_angle_alpha	89.978489
_cell_angle_beta	99.687451
_cell_angle_gamma	99.667694
loop_
_atom_site_label
_atom_site_type_symbol
_atom_site_fract_x
_atom_site_fract_y
_atom_site_fract_z
Zn1	Zn	1.379208	0.415565	0.519713
Zn2	Zn	1.379067	0.520308	0.414914
Zn3	Zn	1.228329	0.397400	0.396849
Zn4	Zn	1.228285	0.502138	0.501564
O5	O	1.303722	0.458853	0.458260
O6	O	1.505435	0.444666	0.520967
O7	O	1.359031	0.504006	0.324835
O8	O	1.248421	0.312141	0.413183
O9	O	1.505332	0.521620	0.443971
O10	O	1.359271	0.325487	0.503451
O11	O	1.248285	0.413706	0.311563
O12	O	1.102077	0.396087	0.395584
O13	O	1.248345	0.490652	0.591655
O14	O	1.102045	0.473038	0.472518
O15	O	1.359228	0.427047	0.604989
O16	O	1.358988	0.605566	0.426373
O17	O	1.248209	0.592217	0.490034
C18	C	1.069327	0.430620	0.430122
C19	C	0.969051	0.418557	0.418099
C20	C	1.303603	0.621626	0.458211
C21	C	1.303635	0.691271	0.458221
C22	C	1.303797	0.458849	0.621692
C23	C	1.303829	0.458847	0.691338
C24	C	0.686423	0.545073	0.544191
C25	C	0.780637	0.556412	0.555485
C26	C	0.827745	0.521949	0.521140
C27	C	0.780630	0.476146	0.475498
C28	C	0.686407	0.464810	0.464199
C29	C	0.827729	0.441685	0.441148
C30	C	0.780614	0.395882	0.395506
C31	C	0.686401	0.384548	0.384209
C32	C	0.639293	0.419011	0.418555
C33	C	0.921952	0.453021	0.452447
C34	C	0.921936	0.372758	0.372455
C35	C	0.827723	0.361420	0.361161
C36	C	1.539033	0.487196	0.486509
C37	C	1.639309	0.499274	0.498546
C38	C	1.303866	0.295447	0.458326
C39	C	1.303928	0.225813	0.458354
C40	C	1.361369	0.730920	0.425119
C41	C	1.361411	0.796361	0.425138
C42	C	1.303703	0.822147	0.458250
C43	C	1.245965	0.782490	0.491359
C44	C	1.245931	0.717051	0.491344
C45	C	1.222472	0.916083	0.453415
C46	C	1.222504	0.981519	0.453425
C47	C	1.303808	1.023981	0.458300
C48	C	1.385081	1.000998	0.463151
C49	C	1.385047	0.935559	0.463136
C50	C	1.303733	0.893103	0.458270
C51	C	1.361592	1.134589	0.425217
C52	C	1.361635	1.200031	0.425241
C53	C	1.246181	1.186157	0.491458
C54	C	1.246146	1.120717	0.491438
C55	C	1.303850	1.094937	0.458315
C56	C	1.303700	0.458817	0.295470
C57	C	1.303842	0.458663	0.225846
C58	C	1.361563	0.425726	0.730994
C59	C	1.361562	0.425699	0.796430
C60	C	1.303836	0.458806	0.822207
C61	C	1.246091	0.491928	0.782541
C62	C	1.246087	0.491949	0.717106
C63	C	1.296671	0.514358	0.925010
C64	C	1.296681	0.514339	0.990444
C65	C	1.303842	0.458740	1.024028
C66	C	1.311011	0.403161	0.992173
C67	C	1.311008	0.403181	0.926738
C68	C	1.303833	0.458786	0.893159
C69	C	1.361577	0.425587	1.134638
C70	C	1.361570	0.425558	1.200074
C71	C	1.246104	0.491793	1.186184
C72	C	1.246106	0.491815	1.120749
C73	C	1.303848	0.458714	1.094980
H74	H	0.904458	0.531183	0.530338
H75	H	0.960304	0.490314	0.489609
H76	H	1.198916	0.684767	0.518300
N77	N	1.288952	0.574281	1.024802
H78	H	1.341087	0.608608	1.019679
H79	H	1.230512	0.588510	1.006374
H80	H	0.789348	0.324126	0.323998
H81	H	0.818991	0.593706	0.592645
N82	N	0.635617	0.582246	0.581224
H83	H	0.568782	0.568116	0.567137
H84	H	0.652117	0.574551	0.627971
N85	N	1.183724	0.810298	0.527076
H86	H	1.192503	0.857769	0.522061
H87	H	1.119294	0.791146	0.509552
N88	N	1.423837	0.390024	0.703201
H89	H	1.460411	0.369038	0.738257
H90	H	1.387140	0.356616	0.671641
H91	H	1.316843	0.357926	0.900804
N92	N	1.472781	1.046786	0.468410
H93	H	1.503498	1.039102	0.431562
H94	H	1.460401	1.091708	0.467705
H95	H	1.199069	0.518919	0.684816
N96	N	1.423833	0.389974	0.839214
H97	H	1.460410	0.369008	0.812960
H98	H	1.465557	0.420501	0.871377
H99	H	1.408655	1.232314	0.398288
N100	N	1.423827	0.389819	1.242849
H101	H	1.460400	0.368853	1.216592
H102	H	1.465554	0.420335	1.275021
N103	N	1.183944	1.213961	0.527178
H104	H	1.192728	1.261433	0.522167
H105	H	1.119513	1.194813	0.509655
H106	H	1.408581	1.113598	0.398248
N107	N	0.635574	0.335146	0.334986
H108	H	0.596445	0.355856	0.301211
H109	H	0.679761	0.315044	0.314990
N110	N	1.288960	0.574332	0.888791
H111	H	1.284432	0.609538	0.918900
H112	H	1.343928	0.586771	0.868256
N113	N	1.183844	0.527499	1.213983
H114	H	1.197814	0.573953	1.204274
H115	H	1.119417	0.509958	1.194835
H116	H	1.199087	0.518881	0.803532
N117	N	0.537673	0.406791	0.406365
H118	H	0.515011	0.392615	0.446650
H119	H	0.515032	0.447044	0.392027
N120	N	0.972733	0.335586	0.335404
H121	H	1.039569	0.349716	0.349488
H122	H	0.956299	0.288875	0.343267
N123	N	1.423619	0.703118	0.389406
H124	H	1.386970	0.671593	0.355943
H125	H	1.460189	0.738210	0.368483
N126	N	1.423684	0.839137	0.389436
H127	H	1.460234	0.812875	0.368451
H128	H	1.386988	0.861906	0.356022
N129	N	1.472698	0.910768	0.468371
H130	H	1.524212	0.947592	0.471461
H131	H	1.481029	0.884597	0.507547
N132	N	1.183850	0.527543	1.077964
H133	H	1.142069	0.497051	1.045793
H134	H	1.147333	0.548514	1.104259
N135	N	1.183869	1.077947	0.527136
H136	H	1.147315	1.104210	0.548115
H137	H	1.142124	1.045813	0.496589
N138	N	1.134844	1.006299	0.448186
H139	H	1.104116	0.991210	0.485029
H140	H	1.147266	1.054193	0.448910
N141	N	1.318744	0.343188	1.028386
H142	H	1.317655	0.351605	1.074672
H143	H	1.266600	0.308898	1.010678
H144	H	1.156260	0.881515	0.449447
H145	H	1.408589	0.398629	1.113656
