data_functionalizedCrystal
_audit_creation_method	'MofGen! by Chris Wilmer'
_symmetry_space_group_name_H-M	'P1'
_symmetry_Int_Tables_number	1
_symmetry_cell_setting	triclinic
loop_
_symmetry_equiv_pos_as_xyz
  x,y,z
_cell_length_a	21.395364
_cell_length_b	17.637651
_cell_length_c	21.395356
_cell_angle_alpha	78.758589
_cell_angle_beta	89.976444
_cell_angle_gamma	101.214606
loop_
_atom_site_label
_atom_site_type_symbol
_atom_site_fract_x
_atom_site_fract_y
_atom_site_fract_z
Zn1	Zn	0.907466	-0.314865	-0.303760
Zn2	Zn	1.407466	0.185135	0.196240
Zn3	Zn	0.886213	-0.447078	-0.177777
Zn4	Zn	1.386213	0.052922	0.322223
Zn5	Zn	0.802681	-0.314876	-0.198995
Zn6	Zn	1.302681	0.185124	0.301005
Zn7	Zn	0.781501	-0.447026	-0.282526
Zn8	Zn	1.281501	0.052974	0.217474
O9	O	0.844466	-0.380961	-0.240765
O10	O	1.344466	0.119039	0.259235
O11	O	0.992322	-0.332420	-0.287055
O12	O	1.492322	0.167580	0.212945
O13	O	0.875102	-0.429567	-0.092910
O14	O	1.375102	0.070433	0.407090
O15	O	0.834340	-0.204238	-0.230659
O16	O	1.334340	0.295762	0.269341
O17	O	0.976708	-0.429556	-0.194496
O18	O	1.476708	0.070444	0.305504
O19	O	0.911325	-0.204229	-0.307629
O20	O	1.411325	0.295771	0.192371
O21	O	0.813731	-0.332439	-0.108499
O22	O	1.313731	0.167561	0.391501
O23	O	0.712197	-0.332390	-0.210069
O24	O	1.212197	0.167610	0.289931
O25	O	0.798241	-0.429468	-0.373025
O26	O	1.298241	0.070532	0.126975
O27	O	0.696636	-0.429480	-0.271438
O28	O	1.196636	0.070520	0.228562
O29	O	0.890787	-0.332370	-0.388626
O30	O	1.390787	0.167630	0.111374
O31	O	0.854564	-0.557708	-0.173906
O32	O	1.354564	-0.057708	0.326094
O33	O	0.777633	-0.557670	-0.250864
O34	O	1.277633	-0.057670	0.249136
C35	C	0.681683	-0.380931	-0.240752
C36	C	1.181683	0.119069	0.259248
C37	C	0.612041	-0.380937	-0.240759
C38	C	1.112041	0.119063	0.259241
C39	C	0.118351	-0.330502	-0.289015
C40	C	0.618351	0.169498	0.210985
C41	C	0.183788	-0.330496	-0.289016
C42	C	0.683788	0.169504	0.210984
C43	C	0.208394	-0.380985	-0.240775
C44	C	0.708394	0.119015	0.259225
C45	C	0.167557	-0.431499	-0.192538
C46	C	0.667557	0.068501	0.307462
C47	C	0.102121	-0.431509	-0.192543
C48	C	0.602121	0.068491	0.307457
C49	C	0.311050	-0.387119	-0.183324
C50	C	0.811050	0.112881	0.316676
C51	C	0.376486	-0.387103	-0.183320
C52	C	0.876486	0.112897	0.316680
C53	C	0.410219	-0.380959	-0.240762
C54	C	0.910219	0.119041	0.259238
C55	C	0.378512	-0.374814	-0.298213
C56	C	0.878512	0.125186	0.201787
C57	C	0.313076	-0.374824	-0.298217
C58	C	0.813076	0.125176	0.201783
C59	C	0.279348	-0.380980	-0.240765
C60	C	0.779348	0.119020	0.259235
C61	C	0.522002	-0.330446	-0.288999
C62	C	1.022002	0.169554	0.211001
C63	C	0.587439	-0.330446	-0.289000
C64	C	1.087439	0.169554	0.211000
C65	C	0.571207	-0.431445	-0.192517
C66	C	1.071207	0.068555	0.307483
C67	C	0.505771	-0.431449	-0.192521
C68	C	1.005771	0.068551	0.307479
C69	C	0.481173	-0.380946	-0.240762
C70	C	0.981173	0.119054	0.259238
C71	C	0.811511	-0.586376	-0.207792
C72	C	1.311511	-0.086376	0.292208
C73	C	0.797470	-0.674253	-0.193708
C74	C	1.297470	-0.174253	0.306292
C75	C	0.951539	-0.962953	-0.347962
C76	C	1.451539	-0.462953	0.152038
C77	C	0.938325	-1.045527	-0.334717
C78	C	1.438325	-0.545527	0.165283
C79	C	0.858214	-1.045643	-0.254490
C80	C	1.358214	-0.545643	0.245510
C81	C	0.871423	-0.963068	-0.267727
C82	C	1.371423	-0.463068	0.232273
C83	C	0.918085	-0.921729	-0.314464
C84	C	1.418085	-0.421729	0.185536
C85	C	0.837969	-0.921844	-0.234229
C86	C	1.337969	-0.421844	0.265771
C87	C	0.851175	-0.839275	-0.247467
C88	C	1.351175	-0.339275	0.252533
C89	C	0.897834	-0.797931	-0.294203
C90	C	1.397834	-0.297931	0.205797
C91	C	0.931291	-0.839161	-0.327702
C92	C	1.431291	-0.339161	0.172298
C93	C	0.791304	-0.963184	-0.187495
C94	C	1.291304	-0.463184	0.312505
C95	C	0.757851	-0.921960	-0.153996
C96	C	1.257851	-0.421960	0.346004
C97	C	0.771059	-0.839390	-0.167231
C98	C	1.271059	-0.339390	0.332769
C99	C	0.817718	-0.798045	-0.213968
C100	C	1.317718	-0.298045	0.286032
C101	C	0.737602	-0.798160	-0.133732
C102	C	1.237602	-0.298160	0.366268
C103	C	0.750808	-0.715591	-0.146970
C104	C	1.250808	-0.215591	0.353030
C105	C	0.830924	-0.715477	-0.227206
C106	C	1.330924	-0.215477	0.272794
C107	C	1.007884	-0.380992	-0.240778
C108	C	1.507884	0.119008	0.259222
C109	C	1.077523	-0.381005	-0.240783
C110	C	1.577523	0.118995	0.259217
C111	C	0.844523	-0.380912	-0.404196
C112	C	1.344523	0.119088	0.095804
C113	C	0.844547	-0.380891	-0.473841
C114	C	1.344547	0.119109	0.026159
C115	C	0.877566	-0.174745	-0.273880
C116	C	1.377566	0.325255	0.226120
C117	C	0.891671	-0.086867	-0.287991
C118	C	1.391671	0.413133	0.212009
C119	C	0.812603	-0.330311	-0.514662
C120	C	1.312603	0.169689	-0.014662
C121	C	0.812603	-0.330297	-0.580100
C122	C	1.312603	0.169703	-0.080100
C123	C	0.844560	-0.380854	-0.604715
C124	C	1.344560	0.119146	-0.104715
C125	C	0.876505	-0.431444	-0.563884
C126	C	1.376505	0.068556	-0.063884
C127	C	0.876499	-0.431462	-0.498447
C128	C	1.376499	0.068538	0.001553
C129	C	0.900016	-0.387075	-0.707403
C130	C	1.400016	0.112925	-0.207403
C131	C	0.900025	-0.387050	-0.772840
C132	C	1.400025	0.112950	-0.272840
C133	C	0.844579	-0.380800	-0.806544
C134	C	1.344579	0.119200	-0.306544
C135	C	0.789125	-0.374558	-0.774806
C136	C	1.289125	0.125442	-0.274806
C137	C	0.789119	-0.374577	-0.709369
C138	C	1.289119	0.125423	-0.209369
C139	C	0.844570	-0.380839	-0.675670
C140	C	1.344570	0.119161	-0.175670
C141	C	0.812632	-0.330202	-0.918321
C142	C	1.312632	0.169798	-0.418321
C143	C	0.812630	-0.330192	-0.983759
C144	C	1.312630	0.169808	-0.483759
C145	C	0.876539	-0.431335	-0.967543
C146	C	1.376539	0.068665	-0.467543
C147	C	0.876534	-0.431349	-0.902106
C148	C	1.376534	0.068651	-0.402106
C149	C	0.844582	-0.380778	-0.877499
C150	C	1.344582	0.119222	-0.377499
C151	C	0.844454	-0.380953	-0.077978
C152	C	1.344454	0.119047	0.422022
C153	C	0.844587	-0.380751	-0.008370
C154	C	1.344587	0.119249	0.491630
H155	H	0.287263	-0.369822	-0.344995
H156	H	0.787263	0.130178	0.155005
H157	H	0.908585	-0.730698	-0.304981
H158	H	1.408585	-0.230698	0.195019
C159	C	0.777490	-0.274545	-1.028664
C160	C	1.277490	0.225455	-0.528664
N161	N	0.751024	-0.232628	-1.062487
N162	N	1.251024	0.267372	-0.562487
C163	C	0.975130	-1.090871	-0.371572
C164	C	1.475130	-0.590871	0.128428
N165	N	1.002851	-1.125023	-0.399331
N166	N	1.502851	-0.625023	0.100669
H167	H	0.187595	-0.472610	-0.153262
H168	H	0.687595	0.027390	0.346738
H169	H	0.945179	-0.392130	-0.798677
H170	H	1.445179	0.107870	-0.298677
H171	H	0.405977	-0.369806	-0.344988
H172	H	0.905977	0.130194	0.155012
H173	H	0.902524	-0.472608	-0.583930
H174	H	1.402524	0.027392	-0.083930
H175	H	0.786583	-0.289135	-0.494631
H176	H	1.286583	0.210865	0.005369
C177	C	1.002869	-0.917476	-0.399377
C178	C	1.502869	-0.417476	0.100623
N179	N	1.041527	-0.883223	-0.438103
N180	N	1.541527	-0.383223	0.061897
C181	C	0.632351	-0.274883	-0.342061
C182	C	1.132351	0.225117	0.157939
N183	N	0.666180	-0.233030	-0.382026
N184	N	1.166180	0.266970	0.117974
H185	H	0.743967	-0.369496	-0.683530
H186	H	1.243967	0.130504	-0.183530
H187	H	0.902548	-0.472535	-0.868868
H188	H	1.402548	0.027465	-0.368868
H189	H	0.743977	-0.369463	-0.802247
H190	H	1.243977	0.130537	-0.302247
H191	H	0.501973	-0.289323	-0.328279
H192	H	1.001973	0.210677	0.171721
C193	C	0.911725	-0.486914	-0.994622
C194	C	1.411725	0.013086	-0.494622
N195	N	0.938241	-0.528765	-1.015023
N196	N	1.438241	-0.028765	-0.515023
C197	C	0.714013	-0.670242	-0.110115
C198	C	1.214013	-0.170242	0.389885
N199	N	0.686299	-0.636085	-0.082353
N200	N	1.186299	-0.136085	0.417647
C201	C	0.882254	-0.670000	-0.278621
C202	C	1.382254	-0.170000	0.221379
N203	N	0.920912	-0.635746	-0.317347
N204	N	1.420912	-0.135746	0.182653
H205	H	0.969293	-0.805501	-0.365756
H206	H	1.469293	-0.305501	0.134244
C207	C	0.777477	-0.274581	-0.891250
C208	C	1.277477	0.225419	-0.391250
N209	N	0.750997	-0.232689	-0.870862
N210	N	1.250997	0.267311	-0.370862
C211	C	0.961014	-0.393955	-0.670335
C212	C	1.461014	0.106045	-0.170335
N213	N	1.006956	-0.399139	-0.642415
N214	N	1.506956	0.100861	-0.142415
C215	C	0.911657	-0.487091	-0.453544
C216	C	1.411657	0.012909	0.046456
N217	N	0.938144	-0.528984	-0.419724
N218	N	1.438144	-0.028984	0.080276
C219	C	0.686307	-0.843643	-0.082291
C220	C	1.186307	-0.343643	0.417709
N221	N	0.647684	-0.877902	-0.043531
N222	N	1.147684	-0.377902	0.456469
C223	C	0.091297	-0.274953	-0.342086
C224	C	0.591297	0.225047	0.157914
N225	N	0.070918	-0.233115	-0.382060
N226	N	0.570918	0.266885	0.117940
C227	C	0.806926	-1.091125	-0.203041
C228	C	1.306926	-0.591125	0.296959
N229	N	0.768311	-1.125381	-0.164273
N230	N	1.268311	-0.625381	0.335727
C231	C	0.706563	-0.967441	-0.102547
C232	C	1.206563	-0.467441	0.397453
N233	N	0.667947	-1.001697	-0.063779
N234	N	1.167947	-0.501697	0.436221
C235	C	0.598270	-0.486986	-0.139452
C236	C	1.098270	0.013014	0.360548
N237	N	0.618657	-0.528822	-0.099483
N238	N	1.118657	-0.028822	0.400517
H239	H	0.780548	-1.030416	-0.176724
H240	H	1.280548	-0.530416	0.323276
H241	H	0.786592	-0.289104	-0.613343
H242	H	1.286592	0.210896	-0.113343
H243	H	0.472528	-0.472572	-0.153243
H244	H	0.972528	0.027428	0.346757
C245	C	0.228708	-0.274932	-0.342075
C246	C	0.728708	0.225068	0.157925
N247	N	0.262540	-0.233079	-0.382037
N248	N	0.762540	0.266921	0.117963
H249	H	0.068877	-0.472637	-0.153265
H250	H	0.568877	0.027363	0.346735
H251	H	0.283589	-0.392126	-0.136544
H252	H	0.783589	0.107874	0.363456
C253	C	0.411358	-0.393860	-0.120123
C254	C	0.911358	0.106140	0.379877
N255	N	0.437622	-0.398950	-0.072522
N256	N	0.937622	0.101050	0.427478
