data_functionalizedCrystal
_audit_creation_method	'MofGen! by Chris Wilmer'
_symmetry_space_group_name_H-M	'P1'
_symmetry_Int_Tables_number	1
_symmetry_cell_setting	triclinic
loop_
_symmetry_equiv_pos_as_xyz
  x,y,z
_cell_length_a	10.654545
_cell_length_b	10.654551
_cell_length_c	9.730223
_cell_angle_alpha	89.997362
_cell_angle_beta	89.997167
_cell_angle_gamma	84.484254
loop_
_atom_site_label
_atom_site_type_symbol
_atom_site_fract_x
_atom_site_fract_y
_atom_site_fract_z
O1	O	1.667843	0.176371	-0.114270
O2	O	1.302364	0.193183	-0.114276
O3	O	1.493506	0.002038	-0.114270
O4	O	1.476701	0.367517	-0.114276
O5	O	1.493493	0.002033	0.114310
O6	O	1.302352	0.193178	0.114304
O7	O	1.667831	0.176366	0.114310
Zn8	Zn	1.485089	0.184771	0.150599
Zn9	Zn	1.485106	0.184778	-0.150565
O10	O	1.476689	0.367511	0.114304
C11	C	1.255560	0.191948	0.000014
C12	C	1.116116	0.188258	0.000012
C13	C	1.050605	0.186518	0.124611
C14	C	0.919585	0.183031	0.124611
C15	C	0.919599	0.183028	-0.124599
C16	C	1.050618	0.186506	-0.124598
C17	C	1.492265	-0.044762	0.000018
C18	C	1.488573	-0.184205	0.000011
C19	C	1.486847	-0.249706	-0.124589
C20	C	1.483367	-0.380727	-0.124590
C21	C	1.483345	-0.380734	0.124620
C22	C	1.486816	-0.249715	0.124620
C23	C	1.714635	0.177602	0.000017
C24	C	1.854079	0.181292	0.000010
C25	C	1.477929	0.414312	0.000013
C26	C	1.481622	0.553755	0.000010
N27	N	1.485087	0.184766	0.356135
N28	N	1.485117	0.184774	-0.356101
C29	C	1.569754	0.100163	0.428064
C30	C	1.569766	0.100163	0.571947
C31	C	1.400442	0.269381	0.571960
C32	C	1.400424	0.269373	0.428080
H33	H	0.866254	0.181603	-0.226051
O34	O	1.488665	-0.185963	0.245577
C35	C	1.599264	-0.123477	0.253053
H36	H	1.635994	-0.108277	0.144870
H37	H	1.577276	-0.028357	0.305781
H38	H	1.673952	-0.183266	0.314552
H39	H	1.488274	-0.196372	-0.226053
O40	O	0.855787	0.181503	0.245558
C41	C	0.766728	0.288079	0.253026
H42	H	0.742675	0.323758	0.144841
H43	H	0.677583	0.261204	0.305760
H44	H	0.807908	0.365453	0.314517
O45	O	1.481752	-0.444167	-0.245750
C46	C	1.484012	-0.358241	-0.355724
H47	H	1.526180	-0.269705	-0.319190
H48	H	1.543881	-0.403539	-0.442868
H49	H	1.383807	-0.331998	-0.394042
H50	H	1.481916	-0.434089	0.226072
H51	H	1.638690	0.031268	0.369490
H52	H	1.103959	0.187920	-0.226068
O53	O	1.114261	0.188430	0.245616
C54	C	1.176788	0.299004	0.253064
H55	H	1.128025	0.373851	0.182356
H56	H	1.173807	0.335483	0.363270
H57	H	1.279090	0.277094	0.219592
H58	H	1.638708	0.031270	0.630507
O59	O	1.318333	0.351526	0.642063
C60	C	1.336483	0.333375	0.784480
H61	H	1.435925	0.287363	0.804116
H62	H	1.323342	0.428362	0.839150
H63	H	1.264860	0.269726	0.825337
O64	O	1.318128	0.351684	0.358412
C65	C	1.243392	0.426349	0.452761
H66	H	1.294903	0.428259	0.555315
H67	H	1.225093	0.526466	0.411174
H68	H	1.149750	0.384699	0.468088
