data_functionalizedCrystal
_audit_creation_method	'MofGen! by Chris Wilmer'
_symmetry_space_group_name_H-M	'P1'
_symmetry_Int_Tables_number	1
_symmetry_cell_setting	triclinic
loop_
_symmetry_equiv_pos_as_xyz
  x,y,z
_cell_length_a	27.732064
_cell_length_b	27.732046
_cell_length_c	10.065875
_cell_angle_alpha	81.290399
_cell_angle_beta	81.333551
_cell_angle_gamma	97.354298
loop_
_atom_site_label
_atom_site_type_symbol
_atom_site_fract_x
_atom_site_fract_y
_atom_site_fract_z
O1	O	0.648033	-0.050412	-0.113263
O2	O	0.981366	0.282921	0.220070
O3	O	1.314699	0.616255	0.553403
O4	O	0.507244	-0.059145	-0.113322
O5	O	0.840577	0.274188	0.220011
O6	O	1.173911	0.607521	0.553345
O7	O	0.582010	0.015616	-0.113260
O8	O	0.915343	0.348949	0.220073
O9	O	1.248676	0.682283	0.553406
O10	O	0.573267	-0.125173	-0.113325
O11	O	0.906601	0.208160	0.220008
O12	O	1.239934	0.541494	0.553342
O13	O	0.567752	0.001303	0.113717
O14	O	0.901086	0.334636	0.447050
O15	O	1.234419	0.667970	0.780383
O16	O	0.492987	-0.073458	0.113655
O17	O	0.826320	0.259875	0.446988
O18	O	1.159654	0.593209	0.780321
O19	O	0.633776	-0.064725	0.113714
O20	O	0.967109	0.268609	0.447047
O21	O	1.300442	0.601942	0.780380
Zn22	Zn	0.561118	-0.071364	0.149722
Zn23	Zn	0.894451	0.261970	0.483055
Zn24	Zn	1.227784	0.595303	0.816388
Zn25	Zn	0.579902	-0.052506	-0.149330
Zn26	Zn	0.913235	0.280827	0.184003
Zn27	Zn	1.246569	0.614161	0.517337
O28	O	0.559010	-0.139486	0.113652
O29	O	0.892344	0.193848	0.446985
O30	O	1.225677	0.527181	0.780318
C31	C	0.482109	-0.066117	0.000159
C32	C	0.815443	0.267217	0.333493
C33	C	1.148776	0.600550	0.666826
C34	C	0.428456	-0.065559	0.000138
C35	C	0.761789	0.267774	0.333472
C36	C	1.095123	0.601107	0.666805
C37	C	0.051377	-0.017598	0.000238
C38	C	0.384711	0.315735	0.333572
C39	C	0.718044	0.649068	0.666905
C40	C	0.253040	-0.019642	0.000202
C41	C	0.586373	0.313691	0.333535
C42	C	0.919707	0.647024	0.666868
O43	O	0.284288	0.017574	0.000270
O44	O	0.617622	0.350908	0.333603
O45	O	0.950955	0.684241	0.666937
N46	N	0.272169	-0.063975	0.000175
N47	N	0.605502	0.269358	0.333508
N48	N	0.938835	0.602692	0.666842
C49	C	0.240878	-0.107800	0.000167
C50	C	0.574211	0.225533	0.333500
C51	C	0.907545	0.558866	0.666833
O52	O	0.261775	-0.145556	0.000157
O53	O	0.595108	0.187778	0.333491
O54	O	0.928441	0.521111	0.666824
C55	C	0.039216	-0.105756	0.000213
C56	C	0.372549	0.227577	0.333546
C57	C	0.705882	0.560910	0.666880
C58	C	0.020091	-0.061420	0.000226
C59	C	0.353424	0.271913	0.333559
C60	C	0.686757	0.605247	0.666892
C61	C	0.032252	0.026734	0.000252
C62	C	0.365585	0.360068	0.333586
C63	C	0.698918	0.693401	0.666919
C64	C	-0.018161	0.027245	0.000254
C65	C	0.315173	0.360579	0.333587
C66	C	0.648506	0.693912	0.666921
C67	C	-0.049447	-0.016576	0.000242
C68	C	0.283886	0.316757	0.333575
C69	C	0.617220	0.650090	0.666908
C70	C	-0.030321	-0.060909	0.000227
C71	C	0.303012	0.272424	0.333561
C72	C	0.636345	0.605758	0.666894
C73	C	0.007925	-0.149582	0.000214
C74	C	0.341259	0.183751	0.333548
C75	C	0.674592	0.517085	0.666881
C76	C	-0.042493	-0.149067	0.000229
C77	C	0.290840	0.184266	0.333563
C78	C	0.624174	0.517599	0.666896
C79	C	-0.061618	-0.104731	0.000242
C80	C	0.271715	0.228602	0.333575
C81	C	0.605049	0.561936	0.666909
C82	C	-0.112020	-0.104220	0.000216
C83	C	0.221313	0.229113	0.333550
C84	C	0.554646	0.562447	0.666883
N85	N	-0.131149	-0.059887	0.000243
N86	N	0.202184	0.273446	0.333576
N87	N	0.535518	0.606779	0.666910
C88	C	-0.099863	-0.016065	0.000256
C89	C	0.233471	0.317268	0.333589
C90	C	0.566804	0.650601	0.666922
C91	C	0.346754	-0.108870	0.000140
C92	C	0.680087	0.224463	0.333473
C93	C	1.013421	0.557797	0.666806
C94	C	0.397170	-0.109381	0.000126
C95	C	0.730503	0.223952	0.333459
C96	C	1.063836	0.557286	0.666792
C97	C	0.409328	-0.021223	0.000163
C98	C	0.742661	0.312110	0.333497
C99	C	1.075995	0.645444	0.666830
C100	C	0.358912	-0.020712	0.000168
C101	C	0.692245	0.312621	0.333501
C102	C	1.025579	0.645955	0.666834
C103	C	0.327625	-0.064537	0.000166
C104	C	0.660959	0.268796	0.333500
C105	C	0.994292	0.602129	0.666833
C106	C	-0.205732	-0.014996	0.000258
C107	C	0.127601	0.318338	0.333591
C108	C	0.460934	0.651671	0.666925
C109	C	-0.256149	-0.014488	0.000254
C110	C	0.077184	0.318845	0.333587
C111	C	0.410518	0.652178	0.666921
C112	C	-0.268303	-0.102646	0.000223
C113	C	0.065030	0.230687	0.333557
C114	C	0.398363	0.564020	0.666890
C115	C	-0.217891	-0.103154	0.000220
C116	C	0.115443	0.230180	0.333554
C117	C	0.448776	0.563513	0.666887
C118	C	-0.186606	-0.059325	0.000242
C119	C	0.146727	0.274009	0.333575
C120	C	0.480061	0.607342	0.666909
O121	O	-0.143298	-0.141418	0.000164
O122	O	0.190035	0.191916	0.333497
O123	O	0.523369	0.525249	0.666830
O124	O	-0.120771	0.021683	0.000295
O125	O	0.212563	0.355016	0.333628
O126	O	0.545896	0.688349	0.666962
C127	C	0.101790	-0.018109	0.000237
C128	C	0.435123	0.315224	0.333570
C129	C	0.768456	0.648557	0.666903
C130	C	0.120915	-0.062442	0.000222
C131	C	0.454249	0.270891	0.333556
C132	C	0.787582	0.604225	0.666889
C133	C	0.089629	-0.106264	0.000210
C134	C	0.422962	0.227070	0.333543
C135	C	0.756295	0.560403	0.666876
C136	C	0.171331	-0.062953	0.000208
C137	C	0.504664	0.270380	0.333542
C138	C	0.837997	0.603714	0.666875
C139	C	0.202617	-0.019131	0.000221
C140	C	0.535951	0.314202	0.333554
C141	C	0.869284	0.647535	0.666888
C142	C	0.183488	0.025201	0.000247
C143	C	0.516822	0.358535	0.333581
C144	C	0.850155	0.691868	0.666914
C145	C	0.133076	0.025712	0.000249
C146	C	0.466409	0.359046	0.333582
C147	C	0.799743	0.692379	0.666916
C148	C	0.108757	-0.150596	0.000183
C149	C	0.442091	0.182737	0.333516
C150	C	0.775424	0.516070	0.666850
C151	C	0.159170	-0.151104	0.000180
C152	C	0.492504	0.182230	0.333513
C153	C	0.825837	0.515563	0.666847
C154	C	0.190457	-0.107282	0.000193
C155	C	0.523790	0.226051	0.333526
C156	C	0.857124	0.559385	0.666859
C157	C	0.574697	0.026466	0.000233
C158	C	0.908031	0.359799	0.333566
C159	C	1.241364	0.693133	0.666900
C160	C	0.574144	0.080120	0.000248
C161	C	0.907477	0.413453	0.333581
C162	C	1.240810	0.746787	0.666914
C163	C	0.614851	0.418935	0.000217
C164	C	0.948184	0.752268	0.333550
C165	C	1.281518	1.085602	0.666884
C166	C	0.612802	0.620595	0.000211
C167	C	0.946135	0.953929	0.333544
C168	C	1.279468	1.287262	0.666877
O169	O	0.650025	0.651851	0.000168
O170	O	0.983358	0.985185	0.333502
O171	O	1.316692	1.318518	0.666835
N172	N	0.568468	0.639723	0.000195
N173	N	0.901801	0.973056	0.333528
N174	N	1.235135	1.306389	0.666862
C175	C	0.524644	0.608432	0.000172
C176	C	0.857977	0.941765	0.333505
C177	C	1.191311	1.275099	0.666838
O178	O	0.486889	0.629329	0.000144
O179	O	0.820223	0.962663	0.333478
O180	O	1.153556	1.295996	0.666811
C181	C	0.526695	0.406773	0.000168
C182	C	0.860028	0.740107	0.333502
C183	C	1.193361	1.073440	0.666835
C184	C	0.571030	0.387648	0.000198
C185	C	0.904364	0.720981	0.333531
C186	C	1.237697	1.054315	0.666865
C187	C	0.659183	0.399809	0.000245
C188	C	0.992517	0.733143	0.333579
C189	C	1.325850	1.066476	0.666912
C190	C	0.659695	0.349397	0.000254
C191	C	0.993028	0.682730	0.333588
C192	C	1.326361	1.016063	0.666921
C193	C	0.615874	0.318110	0.000235
C194	C	0.949207	0.651443	0.333569
C195	C	1.282541	0.984777	0.666902
C196	C	0.571542	0.337236	0.000207
C197	C	0.904875	0.670569	0.333540
C198	C	1.238208	1.003902	0.666874
C199	C	0.482872	0.375484	0.000136
C200	C	0.816205	0.708818	0.333469
C201	C	1.149538	1.042151	0.666802
C202	C	0.483389	0.325067	0.000131
C203	C	0.816722	0.658401	0.333465
C204	C	1.150055	0.991734	0.666798
C205	C	0.527724	0.305942	0.000161
C206	C	0.861058	0.639275	0.333494
C207	C	1.194391	0.972609	0.666828
C208	C	0.528232	0.255536	0.000197
C209	C	0.861566	0.588869	0.333530
C210	C	1.194899	0.922203	0.666864
N211	N	0.572566	0.236409	0.000213
N212	N	0.905899	0.569742	0.333546
N213	N	1.239233	0.903075	0.666880
C214	C	0.616387	0.267696	0.000232
C215	C	0.949720	0.601029	0.333565
C216	C	1.283054	0.934362	0.666899
C217	C	0.523571	0.714306	0.000176
C218	C	0.856904	1.047639	0.333510
C219	C	1.190237	1.380973	0.666843
C220	C	0.523058	0.764720	0.000180
C221	C	0.856391	1.098054	0.333513
C222	C	1.189724	1.431387	0.666846
C223	C	0.611216	0.776880	0.000216
C224	C	0.944549	1.110214	0.333549
C225	C	1.277882	1.443547	0.666883
C226	C	0.611727	0.726464	0.000222
C227	C	0.945061	1.059798	0.333556
C228	C	1.278394	1.393131	0.666889
C229	C	0.567904	0.695179	0.000192
C230	C	0.901238	1.028512	0.333525
C231	C	1.234571	1.361845	0.666859
C232	C	0.617457	0.161825	0.000252
C233	C	0.950791	0.495158	0.333585
C234	C	1.284124	0.828492	0.666919
C235	C	0.617965	0.111407	0.000267
C236	C	0.951298	0.444740	0.333600
C237	C	1.284631	0.778074	0.666933
C238	C	0.529807	0.099252	0.000223
C239	C	0.863141	0.432585	0.333557
C240	C	1.196474	0.765919	0.666890
C241	C	0.529299	0.149665	0.000216
C242	C	0.862633	0.482998	0.333549
C243	C	1.195966	0.816332	0.666882
C244	C	0.573129	0.180951	0.000226
C245	C	0.906462	0.514284	0.333559
C246	C	1.239795	0.847618	0.666892
O247	O	0.491030	0.224253	0.000224
O248	O	0.824363	0.557586	0.333557
O249	O	1.157697	0.890919	0.666891
O250	O	0.654138	0.246791	0.000229
O251	O	0.987471	0.580124	0.333563
O252	O	1.320805	0.913458	0.666896
C253	C	0.614340	0.469348	0.000208
C254	C	0.947673	0.802681	0.333541
C255	C	1.281006	1.136014	0.666875
C256	C	0.570008	0.488473	0.000180
C257	C	0.903341	0.821807	0.333513
C258	C	1.236674	1.155140	0.666847
C259	C	0.526187	0.457186	0.000161
C260	C	0.859520	0.790520	0.333494
C261	C	1.192853	1.123853	0.666828
C262	C	0.569495	0.538888	0.000183
C263	C	0.902828	0.872221	0.333517
C264	C	1.236161	1.205554	0.666850
C265	C	0.613315	0.570174	0.000202
C266	C	0.946649	0.903508	0.333536
C267	C	1.279982	1.236841	0.666869
C268	C	0.657649	0.551047	0.000218
C269	C	0.990983	0.884380	0.333551
C270	C	1.324316	1.217714	0.666885
C271	C	0.658161	0.500635	0.000227
C272	C	0.991494	0.833968	0.333560
C273	C	1.324827	1.167301	0.666894
C274	C	0.481853	0.476314	0.000145
C275	C	0.815186	0.809647	0.333479
C276	C	1.148520	1.142981	0.666812
C277	C	0.481345	0.526727	0.000138
C278	C	0.814678	0.860060	0.333471
C279	C	1.148012	1.193394	0.666804
C280	C	0.525166	0.558014	0.000157
C281	C	0.858499	0.891347	0.333490
C282	C	1.191833	1.224680	0.666823
C283	C	0.658911	-0.057753	0.000229
C284	C	0.992244	0.275580	0.333563
C285	C	1.325577	0.608913	0.666896
C286	C	0.712564	-0.058310	0.000241
C287	C	1.045898	0.275023	0.333575
C288	C	1.379231	0.608357	0.666908
N289	N	0.548301	-0.084233	0.353817
N290	N	0.881635	0.249100	0.687150
N291	N	1.214968	0.582433	1.020483
C292	C	0.566323	0.849663	0.000172
C293	C	0.899657	1.182997	0.333505
C294	C	1.232990	1.516330	0.666839
C295	C	0.566878	0.796007	0.000199
C296	C	0.900212	1.129341	0.333532
C297	C	1.233545	1.462674	0.666865
N298	N	0.592722	-0.039633	-0.353425
N299	N	0.926056	0.293701	-0.020092
N300	N	1.259389	0.627034	0.313242
C301	C	0.575440	-0.056981	0.421618
C302	C	0.908773	0.276353	0.754951
C303	C	1.242107	0.609686	1.088285
C304	C	0.565580	-0.066889	0.578777
C305	C	0.898913	0.266444	0.912110
C306	C	1.232246	0.599777	1.245444
H307	H	-0.271717	0.021618	0.000261
H308	H	0.061616	0.354951	0.333594
H309	H	0.394949	0.688284	0.666927
H310	H	0.653148	0.187293	0.000255
H311	H	0.986481	0.520626	0.333588
H312	H	1.319815	0.853960	0.666921
H313	H	-0.293785	-0.138324	0.000206
H314	H	0.039548	0.195009	0.333540
H315	H	0.372881	0.528342	0.666873
H316	H	0.654069	0.095838	0.000294
H317	H	0.987403	0.429172	0.333628
H318	H	1.320736	0.762505	0.666961
H319	H	0.343344	0.015391	0.000179
H320	H	0.676678	0.348724	0.333512
H321	H	1.010011	0.682057	0.666846
H322	H	0.694263	0.485068	0.000251
H323	H	1.027597	0.818401	0.333584
H324	H	1.360930	1.151735	0.666917
N325	N	0.313028	-0.156153	0.000145
N326	N	0.646361	0.177181	0.333478
N327	N	0.979694	0.510514	0.666812
H328	H	0.297113	-0.152618	-0.083984
H329	H	0.630446	0.180716	0.249349
H330	H	0.963779	0.514049	0.582683
H331	H	0.286592	-0.163196	0.084353
H332	H	0.619925	0.170137	0.417686
H333	H	0.953258	0.503470	0.751019
H334	H	0.517765	-0.114899	0.412117
H335	H	0.851099	0.218434	0.745451
H336	H	1.184432	0.551768	1.078784
H337	H	0.486954	0.780286	0.000179
H338	H	0.820287	1.113619	0.333512
H339	H	1.153620	1.446952	0.666846
N340	N	0.434587	0.442572	0.000123
N341	N	0.767920	0.775906	0.333457
N342	N	1.101253	1.109239	0.666790
H343	H	0.406427	0.462344	0.000112
H344	H	0.739761	0.795677	0.333446
H345	H	1.073094	1.129011	0.666779
H346	H	0.427592	0.416091	0.084272
H347	H	0.760926	0.749425	0.417605
H348	H	1.094259	1.082758	0.750938
N349	N	0.704914	0.584800	0.000226
N350	N	1.038247	0.918133	0.333559
N351	N	1.371580	1.251466	0.666893
H352	H	0.733081	0.565038	0.000239
H353	H	1.066414	0.898372	0.333573
H354	H	1.399747	1.231705	0.666906
H355	H	0.701335	0.600683	0.084366
H356	H	1.034668	0.934016	0.417699
H357	H	1.368001	1.267350	0.751032
N358	N	0.179796	-0.198926	0.000145
N359	N	0.513129	0.134408	0.333479
N360	N	0.846463	0.467741	0.666812
H361	H	0.152322	-0.226606	0.000138
H362	H	0.485655	0.106727	0.333471
H363	H	0.818989	0.440060	0.666804
H364	H	0.195167	-0.206365	0.084287
H365	H	0.528501	0.126968	0.417621
H366	H	0.861834	0.460302	0.750954
H367	H	0.412737	-0.145483	0.000096
H368	H	0.746071	0.187850	0.333430
H369	H	1.079404	0.521184	0.666763
H370	H	-0.067965	-0.184757	0.000235
H371	H	0.265368	0.148577	0.333568
H372	H	0.598701	0.481910	0.666901
H373	H	0.695798	0.333830	0.000273
H374	H	1.029131	0.667164	0.333606
H375	H	1.362465	1.000497	0.666939
N376	N	0.476301	0.680565	0.000146
N377	N	0.809634	1.013898	0.333480
N378	N	1.142968	1.347232	0.666813
H379	H	0.448142	0.700337	0.000141
H380	H	0.781475	1.033670	0.333474
H381	H	1.114808	1.367003	0.666808
H382	H	0.469306	0.654081	0.084289
H383	H	0.802639	0.987414	0.417622
H384	H	1.135973	1.320748	0.750955
N385	N	0.706449	0.433552	0.000275
N386	N	1.039783	0.766885	0.333608
N387	N	1.373116	1.100218	0.666941
H388	H	0.731096	0.432736	-0.083851
H389	H	1.064430	0.766069	0.249482
H390	H	1.397763	1.099403	0.582816
H391	H	0.720475	0.422108	0.084485
H392	H	1.053809	0.755442	0.417819
H393	H	1.387142	1.088775	0.751152
N394	N	0.436118	0.291323	0.000137
N395	N	0.769451	0.624656	0.333470
N396	N	1.102784	0.957989	0.666803
H397	H	0.443165	0.256481	0.000152
H398	H	0.776498	0.589815	0.333486
H399	H	1.109832	0.923148	0.666819
H400	H	0.422061	0.302777	-0.084011
H401	H	0.755394	0.636110	0.249322
H402	H	1.088728	0.969443	0.582656
H403	H	0.535042	-0.097557	0.637073
H404	H	0.868375	0.235776	0.970406
H405	H	1.201709	0.569110	1.303739
N406	N	-0.171994	0.032275	0.000286
N407	N	0.161339	0.365609	0.333619
N408	N	0.494672	0.698942	0.666953
H409	H	-0.191767	0.060434	0.000294
H410	H	0.141567	0.393767	0.333627
H411	H	0.474900	0.727101	0.666961
H412	H	-0.145532	0.039291	-0.083858
H413	H	0.187802	0.372624	0.249475
H414	H	0.521135	0.705958	0.582808
H415	H	0.117510	0.061816	0.000260
H416	H	0.450843	0.395149	0.333593
H417	H	0.784176	0.728482	0.666926
N418	N	0.659546	0.705838	0.000255
N419	N	0.992879	1.039171	0.333589
N420	N	1.326212	1.372505	0.666922
H421	H	0.687225	0.733312	0.000272
H422	H	1.020559	1.066645	0.333605
H423	H	1.353892	1.399979	0.666939
H424	H	0.666968	0.690489	-0.083890
H425	H	1.000301	1.023823	0.249444
H426	H	1.333634	1.357156	0.582777
H427	H	0.494129	0.073769	0.000213
H428	H	0.827463	0.407102	0.333546
H429	H	1.160796	0.740436	0.666879
N430	N	0.633169	0.000996	0.569373
N431	N	0.966502	0.334329	0.902707
N432	N	1.299836	0.667663	1.236040
H433	H	0.634480	0.002317	0.468047
H434	H	0.967813	0.335651	0.801381
H435	H	1.301147	0.668984	1.134714
H436	H	0.665891	-0.005817	0.594268
H437	H	0.999224	0.327516	0.927601
H438	H	1.332557	0.660850	1.260934
H439	H	-0.033727	0.063348	0.000270
H440	H	0.299606	0.396681	0.333603
H441	H	0.632939	0.730015	0.666937
N442	N	0.658480	0.810630	0.000240
N443	N	0.991814	1.143963	0.333574
N444	N	1.325147	1.477296	0.666907
H445	H	0.651424	0.845468	0.000238
H446	H	0.984757	1.178801	0.333571
H447	H	1.318090	1.512134	0.666904
H448	H	0.683102	0.809777	-0.083900
H449	H	1.016435	1.143111	0.249433
H450	H	1.349768	1.476444	0.582766
H451	H	0.493195	0.165235	0.000230
H452	H	0.826529	0.498568	0.333563
H453	H	1.159862	0.831902	0.666896
N454	N	0.065992	0.074003	0.000276
N455	N	0.399325	0.407336	0.333610
N456	N	0.732658	0.740669	0.666943
H457	H	0.046217	0.102160	0.000290
H458	H	0.379551	0.435493	0.333624
H459	H	0.712884	0.768826	0.666957
H460	H	0.092452	0.081020	-0.083873
H461	H	0.425786	0.414353	0.249461
H462	H	0.759119	0.747686	0.582794
H463	H	0.605972	-0.026311	0.363319
H464	H	0.939306	0.307022	0.696652
H465	H	1.272639	0.640355	1.029986
N466	N	0.443077	0.026043	0.000176
N467	N	0.776411	0.359376	0.333509
N468	N	1.109744	0.692710	0.666842
H469	H	0.477916	0.018987	0.000166
H470	H	0.811249	0.352321	0.333499
H471	H	1.144583	0.685654	0.666833
H472	H	0.431643	0.040073	0.084335
H473	H	0.764976	0.373406	0.417669
H474	H	1.098310	0.706739	0.751002
N475	N	0.028546	-0.197401	0.000186
N476	N	0.361879	0.135932	0.333519
N477	N	0.695212	0.469265	0.666853
H478	H	0.001069	-0.225080	0.000184
H479	H	0.334402	0.108253	0.333517
H480	H	0.667736	0.441586	0.666850
H481	H	0.043919	-0.204843	0.084323
H482	H	0.377252	0.128491	0.417656
H483	H	0.710586	0.461824	0.750990
H484	H	0.208971	0.060883	0.000250
H485	H	0.542305	0.394216	0.333583
H486	H	0.875638	0.727550	0.666916
N487	N	-0.197258	-0.150971	0.000187
N488	N	0.136076	0.182363	0.333520
N489	N	0.469409	0.515696	0.666853
H490	H	-0.224729	-0.178653	0.000174
H491	H	0.108604	0.154680	0.333507
H492	H	0.441937	0.488014	0.666841
H493	H	-0.181889	-0.158408	0.084334
H494	H	0.151444	0.174925	0.417667
H495	H	0.484778	0.508259	0.751001
H496	H	0.083288	-0.186282	0.000175
H497	H	0.416621	0.147051	0.333508
H498	H	0.749955	0.480384	0.666841
N499	N	0.435051	0.396103	0.000121
N500	N	0.768384	0.729436	0.333454
N501	N	1.101718	1.062770	0.666788
H502	H	0.407373	0.368627	0.000106
H503	H	0.740707	0.701960	0.333439
H504	H	1.074040	1.035293	0.666772
H505	H	0.438199	0.422057	-0.084021
H506	H	0.771532	0.755390	0.249312
H507	H	1.104865	1.088723	0.582645
N508	N	0.433521	0.547350	0.000128
N509	N	0.766855	0.880684	0.333462
N510	N	1.100188	1.214017	0.666795
H511	H	0.405841	0.519876	0.000118
H512	H	0.739174	0.853209	0.333451
H513	H	1.072508	1.186542	0.666785
H514	H	0.436671	0.573302	-0.084019
H515	H	0.770005	0.906635	0.249314
H516	H	1.103338	1.239969	0.582647
