data_functionalizedCrystal
_audit_creation_method	'MofGen! by Chris Wilmer'
_symmetry_space_group_name_H-M	'P1'
_symmetry_Int_Tables_number	1
_symmetry_cell_setting	triclinic
loop_
_symmetry_equiv_pos_as_xyz
  x,y,z
_cell_length_a	6.394989
_cell_length_b	10.723024
_cell_length_c	9.198806
_cell_angle_alpha	89.996352
_cell_angle_beta	90.000201
_cell_angle_gamma	94.517210
loop_
_atom_site_label
_atom_site_type_symbol
_atom_site_fract_x
_atom_site_fract_y
_atom_site_fract_z
O1	O	-0.293022	1.660298	-0.120873
O2	O	-0.321070	1.297443	-0.120877
O3	O	-0.003055	1.484021	-0.120876
O4	O	-0.611036	1.473720	-0.120874
O5	O	-0.003054	1.484006	0.120909
O6	O	-0.321069	1.297428	0.120908
O7	O	-0.293021	1.660282	0.120912
Cu8	Cu	-0.307045	1.478854	0.142987
Cu9	Cu	-0.307046	1.478872	-0.142952
O10	O	-0.611035	1.473705	0.120911
C11	C	-0.319028	1.250914	0.000015
C12	C	-0.312921	1.112295	0.000013
N13	N	-0.307043	1.478850	0.344101
C14	C	-0.490865	1.039201	0.000013
C15	C	-0.484558	0.895931	0.000011
C16	C	0.074796	1.481977	0.000011
C17	C	0.311120	1.475752	0.000010
C18	C	-0.295062	1.706811	0.000017
C19	C	-0.301169	1.845430	0.000010
N20	N	-0.307031	1.478885	-0.344066
C21	C	-0.172929	1.557183	0.416299
C22	C	-0.172922	1.557202	0.583711
H23	H	-0.647879	1.082689	0.000022
C24	C	-0.017810	1.647769	0.332385
C25	C	-0.017835	1.647502	0.164980
C26	C	0.137291	1.738092	0.081073
C27	C	0.292442	1.828949	0.164571
C28	C	0.292474	1.829218	0.331985
C29	C	0.137348	1.738628	0.415893
H30	H	-0.132693	1.580242	0.103161
H31	H	0.137266	1.737892	-0.042859
H32	H	0.407276	1.896009	0.102457
H33	H	0.407331	1.896478	0.393804
H34	H	0.137372	1.738828	0.539824
H35	H	-0.636892	0.833115	0.000005
C36	C	-0.017797	1.647806	0.667574
C37	C	0.142252	1.596184	0.772311
C38	C	0.297383	1.686792	0.856177
C39	C	0.292465	1.829022	0.835308
C40	C	0.132410	1.880651	0.730566
C41	C	-0.022721	1.790043	0.646700
H42	H	0.145899	1.490891	0.787764
H43	H	0.415866	1.648572	0.933714
H44	H	0.407302	1.896095	0.897391
H45	H	0.128763	1.985944	0.715113
H46	H	-0.141204	1.828263	0.569163
H47	H	-0.148827	0.908239	0.000001
H48	H	-0.421866	1.411822	0.593857
H49	H	-0.155907	1.068806	-0.000025
H50	H	-0.421850	1.411796	0.406229
