data_functionalizedCrystal
_audit_creation_method	'MofGen! by Chris Wilmer'
_symmetry_space_group_name_H-M	'P1'
_symmetry_Int_Tables_number	1
_symmetry_cell_setting	triclinic
loop_
_symmetry_equiv_pos_as_xyz
  x,y,z
_cell_length_a	11.792254
_cell_length_b	14.971486
_cell_length_c	13.448316
_cell_angle_alpha	89.993189
_cell_angle_beta	89.993306
_cell_angle_gamma	83.906363
loop_
_atom_site_label
_atom_site_type_symbol
_atom_site_fract_x
_atom_site_fract_y
_atom_site_fract_z
O1	O	1.506112	0.122653	-0.082692
O2	O	1.175692	0.135276	-0.082694
O3	O	1.349758	-0.001200	-0.082686
O4	O	1.332046	0.259129	-0.082700
O5	O	1.349736	-0.001208	0.082698
O6	O	1.175670	0.135268	0.082690
O7	O	1.506090	0.122645	0.082692
Cu8	Cu	1.340878	0.128955	0.097792
Cu9	Cu	1.340904	0.128965	-0.097794
O10	O	1.332024	0.259120	0.082684
C11	C	1.348955	-0.034532	0.000006
C12	C	1.346581	-0.133838	0.000005
C13	C	1.133395	0.134477	-0.000002
C14	C	1.007398	0.132097	-0.000003
C15	C	1.448841	-0.190650	0.000007
C16	C	1.446603	-0.283959	-0.000003
C17	C	1.342106	-0.320454	-0.000008
C18	C	1.239839	-0.263634	-0.000012
C19	C	1.242077	-0.170328	-0.000009
C20	C	1.235180	-0.458116	-0.000016
C21	C	1.232942	-0.551429	-0.000017
C22	C	1.439707	-0.571747	-0.000010
C23	C	1.441945	-0.478440	-0.000007
C24	C	1.339678	-0.421627	-0.000010
C25	C	0.905073	0.130163	-0.000007
C26	C	0.776702	0.127745	-0.000007
C27	C	1.548387	0.123444	-0.000002
C28	C	1.674385	0.125824	-0.000007
C29	C	1.332827	0.292453	-0.000010
C30	C	1.335201	0.391759	-0.000015
N31	N	1.340868	0.128948	0.235356
N32	N	1.340923	0.128966	-0.235358
C33	C	1.417969	0.068541	0.287400
C34	C	1.417976	0.068541	0.391504
C35	C	1.340887	0.128951	0.443561
C36	C	1.263778	0.189361	0.391510
C37	C	1.263767	0.189356	0.287408
C38	C	1.263810	0.189367	0.608490
C39	C	1.263822	0.189372	0.712598
C40	C	1.418019	0.068551	0.712585
C41	C	1.418007	0.068547	0.608484
C42	C	1.340900	0.128957	0.556440
H43	H	1.529874	-0.330212	-0.000000
O44	O	1.131508	-0.586991	-0.000161
C45	C	1.124049	-0.640332	-0.085828
H46	H	1.213483	-0.663120	-0.114373
H47	H	1.078729	-0.701653	-0.066569
H48	H	1.073904	-0.599359	-0.145812
H49	H	1.480748	0.019352	0.245022
H50	H	1.201017	0.238557	0.566119
H51	H	1.201047	0.238564	0.754978
H52	H	1.158807	-0.124072	-0.000011
O53	O	1.492994	0.009839	0.441905
C54	C	1.561023	-0.043488	0.373635
H55	H	1.562327	-0.006812	0.299419
H56	H	1.651647	-0.056630	0.403694
H57	H	1.524107	-0.110142	0.362587
H58	H	1.154755	-0.293356	-0.000022
O59	O	1.188846	0.247920	0.442187
C60	C	1.118760	0.199643	0.502410
H61	H	1.163876	0.129892	0.518008
H62	H	1.100866	0.236884	0.575612
H63	H	1.034868	0.193115	0.462311
O64	O	1.188831	0.248124	0.237003
C65	C	1.120774	0.301431	0.305271
H66	H	1.167315	0.302696	0.379468
H67	H	1.103546	0.372770	0.275180
H68	H	1.036431	0.271935	0.316365
O69	O	1.492777	0.009652	0.558073
C70	C	1.474087	-0.078923	0.583710
H71	H	1.383179	-0.079724	0.612277
H72	H	1.487103	-0.123868	0.515354
H73	H	1.536863	-0.104802	0.644229
O74	O	1.550450	-0.155352	-0.000036
C75	C	1.640226	-0.225509	-0.000015
H76	H	1.608323	-0.289038	-0.031325
H77	H	1.713180	-0.205653	-0.048033
H78	H	1.671769	-0.238566	0.079326
H79	H	1.527036	-0.448730	0.000004
O80	O	1.538947	-0.627058	-0.000063
C81	C	1.514569	-0.717239	-0.000050
H82	H	1.425420	-0.721245	-0.031362
H83	H	1.579749	-0.759179	-0.048071
H84	H	1.518826	-0.744215	0.079289
O85	O	1.135733	-0.403055	0.000024
C86	C	1.043019	-0.455271	-0.000004
H87	H	1.071726	-0.524766	0.031306
H88	H	0.971356	-0.421210	0.048011
H89	H	1.011005	-0.462061	-0.079347
H90	H	1.480802	0.019363	0.754965
