data_functionalizedCrystal
_audit_creation_method	'MofGen! by Chris Wilmer'
_symmetry_space_group_name_H-M	'P1'
_symmetry_Int_Tables_number	1
_symmetry_cell_setting	triclinic
loop_
_symmetry_equiv_pos_as_xyz
  x,y,z
_cell_length_a	15.944499
_cell_length_b	14.971486
_cell_length_c	14.048226
_cell_angle_alpha	90.001501
_cell_angle_beta	89.996813
_cell_angle_gamma	96.454131
loop_
_atom_site_label
_atom_site_type_symbol
_atom_site_fract_x
_atom_site_fract_y
_atom_site_fract_z
O1	O	0.109466	-1.186807	-0.079044
O2	O	0.609466	-0.686807	0.420956
O3	O	0.122575	-0.926390	-0.079069
O4	O	0.622575	-0.426390	0.420931
O5	O	-0.006251	-1.063734	-0.079058
O6	O	0.493749	-0.563734	0.420942
O7	O	0.238291	-1.049463	-0.079056
O8	O	0.738291	-0.549463	0.420944
O9	O	-0.006258	-1.063718	0.079264
O10	O	0.493742	-0.563718	0.579264
O11	O	0.122567	-0.926374	0.079252
O12	O	0.622567	-0.426374	0.579252
O13	O	0.109458	-1.186791	0.079277
O14	O	0.609458	-0.686791	0.579277
Zn15	Zn	0.116011	-1.056580	0.104402
Zn16	Zn	0.616011	-0.556580	0.604402
Zn17	Zn	0.116021	-1.056601	-0.104194
Zn18	Zn	0.616021	-0.556601	0.395806
O19	O	0.238284	-1.049447	0.079266
O20	O	0.738284	-0.549447	0.579266
C21	C	0.121985	-0.893058	0.000088
C22	C	0.621985	-0.393058	0.500088
C23	C	0.120228	-0.793763	0.000078
C24	C	0.620228	-0.293763	0.500078
C25	C	-0.037550	-1.063142	0.000101
C26	C	0.462450	-0.563142	0.500101
C27	C	-0.130800	-1.061390	0.000093
C28	C	0.369200	-0.561390	0.500093
C29	C	-0.422260	-1.141183	0.000106
C30	C	0.077740	-0.641183	0.500106
C31	C	-0.361278	-1.099697	0.078166
C32	C	0.138722	-0.599697	0.578166
C33	C	-0.466442	-1.055026	0.000104
C34	C	0.033558	-0.555026	0.500104
C35	C	-0.361277	-1.099690	-0.077926
C36	C	0.138723	-0.599690	0.422074
C37	C	-0.301531	-1.058158	0.000097
C38	C	0.198469	-0.558158	0.500097
C39	C	-0.406688	-1.013516	0.078228
C40	C	0.093312	-0.513516	0.578228
C41	C	-0.406694	-1.013521	-0.077934
C42	C	0.093306	-0.513521	0.422066
C43	C	-0.345729	-0.971971	0.000145
C44	C	0.154271	-0.471971	0.500145
C45	C	-0.561444	-1.053225	0.000108
C46	C	-0.061444	-0.553225	0.500108
C47	C	-0.206530	-1.059952	0.000099
C48	C	0.293470	-0.559952	0.500099
C49	C	0.110048	-1.220123	0.000118
C50	C	0.610048	-0.720123	0.500118
C51	C	0.111805	-1.319418	0.000121
C52	C	0.611805	-0.819418	0.500121
C53	C	0.269583	-1.050039	0.000105
C54	C	0.769583	-0.550039	0.500105
C55	C	0.362833	-1.051791	0.000106
C56	C	0.862833	-0.551791	0.500106
N57	N	0.116004	-1.056571	0.246762
N58	N	0.616004	-0.556571	0.746762
C59	C	0.195909	-0.736441	0.000080
C60	C	0.695909	-0.236441	0.500080
C61	C	0.194253	-0.643144	0.000094
C62	C	0.694253	-0.143144	0.500094
C63	C	0.116915	-0.607170	0.000100
C64	C	0.616915	-0.107170	0.500100
C65	C	0.041228	-0.664500	0.000101
C66	C	0.541228	-0.164500	0.500101
C67	C	0.042885	-0.757795	0.000093
C68	C	0.542885	-0.257795	0.500093
C69	C	0.037781	-0.470042	0.000114
C70	C	0.537781	0.029958	0.500114
C71	C	0.036124	-0.376740	0.000119
C72	C	0.536124	0.123260	0.500119
C73	C	0.189149	-0.355390	0.000115
C74	C	0.689149	0.144610	0.500115
C75	C	0.190806	-0.448686	0.000107
C76	C	0.690806	0.051314	0.500107
C77	C	0.115118	-0.506009	0.000107
C78	C	0.615118	-0.006009	0.500107
N79	N	0.116022	-1.056617	-0.246554
N80	N	0.616022	-0.556617	0.253446
C81	C	0.058984	-1.117406	0.296585
C82	C	0.558984	-0.617406	0.796585
C83	C	0.058983	-1.117412	0.396243
C84	C	0.558983	-0.617412	0.896243
C85	C	0.116008	-1.056587	0.446076
C86	C	0.616008	-0.556587	0.946076
C87	C	0.173031	-0.995746	0.396246
C88	C	0.673031	-0.495746	0.896246
C89	C	0.173027	-0.995736	0.296590
C90	C	0.673027	-0.495736	0.796590
C91	C	0.173037	-0.995771	0.603960
C92	C	0.673037	-0.495771	1.103960
C93	C	0.173042	-0.995782	0.703623
C94	C	0.673042	-0.495782	1.203623
C95	C	0.058994	-1.117448	0.703613
C96	C	0.558994	-0.617448	1.203613
C97	C	0.058989	-1.117438	0.603957
C98	C	0.558989	-0.617438	1.103957
C99	C	0.116014	-1.056598	0.554134
C100	C	0.616014	-0.556598	1.054134
H101	H	-0.455522	-1.212685	0.000188
H102	H	0.044478	-0.712685	0.500188
H103	H	0.012551	-1.166941	0.256018
H104	H	0.512551	-0.666941	0.756018
Br105	Br	0.300874	-0.785253	0.000063
Br106	Br	0.800874	-0.285253	0.500063
Br107	Br	0.295766	-0.497507	0.000086
Br108	Br	0.795766	0.002493	0.500086
Br109	Br	-0.327730	-1.160424	0.188164
Br110	Br	0.172270	-0.660424	0.688164
H111	H	0.012553	-1.166948	0.436809
H112	H	0.512553	-0.666948	0.936809
H113	H	-0.426708	-0.977097	0.144291
H114	H	0.073292	-0.477097	0.644291
H115	H	-0.312615	-0.900408	0.000184
H116	H	0.187385	-0.400408	0.500184
H117	H	0.012560	-1.166971	0.563384
H118	H	0.512560	-0.666971	1.063384
H119	H	0.250777	-0.308713	0.000120
H120	H	0.750777	0.191287	0.500120
Br121	Br	0.250417	-0.913188	0.463872
Br122	Br	0.750417	-0.413188	0.963872
Br123	Br	-0.440272	-0.952842	-0.187943
Br124	Br	0.059728	-0.452842	0.312057
H125	H	0.012563	-1.166986	0.744185
H126	H	0.512563	-0.666986	1.244185
H127	H	0.219477	-0.946251	0.744191
H128	H	0.719477	-0.446251	1.244191
Br129	Br	0.250425	-0.913196	0.536345
Br130	Br	0.750425	-0.413196	1.036345
Br131	Br	-0.059830	-0.835591	0.000099
Br132	Br	0.440170	-0.335591	0.500099
H133	H	-0.341158	-1.136153	-0.143914
H134	H	0.158842	-0.636153	0.356086
H135	H	0.219457	-0.946197	0.256025
H136	H	0.719457	-0.446197	0.756025
H137	H	0.255881	-0.596476	0.000095
H138	H	0.755881	-0.096476	0.500095
Br139	Br	-0.068836	-0.327918	0.000159
Br140	Br	0.431164	0.172082	0.500159
Br141	Br	-0.064939	-0.547837	0.000118
Br142	Br	0.435061	-0.047837	0.500118
H143	H	-0.021742	-0.635203	0.000119
H144	H	0.478258	-0.135203	0.500119
