data_functionalizedCrystal
_audit_creation_method	'MofGen! by Chris Wilmer'
_symmetry_space_group_name_H-M	'P1'
_symmetry_Int_Tables_number	1
_symmetry_cell_setting	triclinic
loop_
_symmetry_equiv_pos_as_xyz
  x,y,z
_cell_length_a	14.908783
_cell_length_b	25.639239
_cell_length_c	14.908308
_cell_angle_alpha	86.738311
_cell_angle_beta	90.211273
_cell_angle_gamma	93.329934
loop_
_atom_site_label
_atom_site_type_symbol
_atom_site_fract_x
_atom_site_fract_y
_atom_site_fract_z
Zn1	Zn	1.345212	-0.182873	0.587804
Zn2	Zn	1.353747	-0.264999	0.437432
Zn3	Zn	1.203526	-0.182307	0.428775
Zn4	Zn	1.194767	-0.275011	0.579052
O5	O	1.274313	-0.226297	0.508266
O6	O	1.472174	-0.189814	0.575142
O7	O	1.341057	-0.249603	0.310461
O8	O	1.222415	-0.109215	0.449910
O9	O	1.478445	-0.250152	0.464665
O10	O	1.326511	-0.109631	0.566748
O11	O	1.230690	-0.188850	0.304101
O12	O	1.076534	-0.198558	0.441424
O13	O	1.207486	-0.267215	0.706036
O14	O	1.070099	-0.266667	0.551832
O15	O	1.318018	-0.199522	0.712465
O16	O	1.332564	-0.339494	0.456179
O17	O	1.215762	-0.346850	0.560227
C18	C	1.040690	-0.233638	0.494740
C19	C	0.940744	-0.236791	0.488975
C20	C	0.746393	-0.179985	0.593357
C21	C	0.652484	-0.182946	0.587943
C22	C	0.659017	-0.245672	0.472729
C23	C	0.752925	-0.242711	0.478143
C24	C	0.796610	-0.209867	0.538460
C25	C	0.890520	-0.206908	0.543878
C26	C	0.897051	-0.269631	0.428659
C27	C	0.803142	-0.272592	0.423245
C28	C	1.274162	-0.362143	0.508213
C29	C	1.274178	-0.420257	0.508226
C30	C	1.213484	-0.675290	0.562425
C31	C	1.213452	-0.620686	0.562412
O32	O	1.161702	-0.595717	0.608455
N33	N	1.274288	-0.589529	0.508279
C34	C	1.335167	-0.612979	0.454162
O35	O	1.386911	-0.581463	0.408118
C36	C	1.335203	-0.667581	0.454180
C37	C	1.274357	-0.698736	0.508310
C38	C	1.152643	-0.706444	0.616550
C39	C	1.152675	-0.761044	0.616561
C40	C	1.213548	-0.784489	0.562446
C41	C	1.274389	-0.753335	0.508321
C42	C	1.396086	-0.691030	0.400069
C43	C	1.396118	-0.745636	0.400092
C44	C	1.335271	-0.776791	0.454221
C45	C	1.335293	-0.831381	0.454217
N46	N	1.274457	-0.862538	0.508349
C47	C	1.213584	-0.839092	0.562464
C48	C	1.335087	-0.498310	0.454130
C49	C	1.335048	-0.443708	0.454107
C50	C	1.213333	-0.451419	0.562358
C51	C	1.213369	-0.506022	0.562376
C52	C	1.274251	-0.529466	0.508263
C53	C	1.213655	-0.953755	0.562482
C54	C	1.213690	-1.008360	0.562486
C55	C	1.335407	-1.000644	0.454238
C56	C	1.335370	-0.946044	0.454231
C57	C	1.274490	-0.922602	0.508360
O58	O	1.387019	-0.856386	0.408200
O59	O	1.161857	-0.870614	0.608510
C60	C	1.508848	-0.218929	0.521845
C61	C	1.608793	-0.215789	0.527632
C62	C	1.260823	-0.234549	0.742787
C63	C	1.255074	-0.238065	0.842726
C64	C	1.274488	-0.089921	0.508339
C65	C	1.274563	-0.031806	0.508371
C66	C	1.287802	-0.218039	0.274660
C67	C	1.293725	-0.214370	0.174731
C68	C	1.359366	-0.174171	1.037219
C69	C	1.353968	-0.177473	1.131121
C70	C	1.238875	-0.247967	1.124433
C71	C	1.244273	-0.244666	1.030531
C72	C	1.304522	-0.207767	0.986928
C73	C	1.309924	-0.204468	0.893024
C74	C	1.194828	-0.274960	0.886338
C75	C	1.189429	-0.278261	0.980240
H76	H	1.164083	-0.934675	0.606560
H77	H	0.611601	-0.158612	0.632644
H78	H	1.445699	-0.764722	0.356028
C79	C	1.123162	-0.318849	1.028205
H80	H	1.091269	-0.338383	0.984801
H81	H	1.155427	-0.341835	1.066818
H82	H	1.081895	-0.301366	1.062575
C83	C	1.146381	-0.425622	0.621894
H84	H	1.155086	-0.388641	0.614134
H85	H	1.086737	-0.436042	0.605200
H86	H	1.156034	-0.436260	0.683081
H87	H	1.150172	-0.302317	0.845381
H88	H	0.937947	-0.293967	0.383965
C89	C	0.938572	-0.170781	0.610220
H90	H	0.895212	-0.153405	0.642133
H91	H	0.972947	-0.191034	0.651450
H92	H	0.977193	-0.145605	0.578000
H93	H	0.623433	-0.272406	0.423612
C94	C	0.755084	-0.308719	0.356906
H95	H	0.691963	-0.306207	0.361547
H96	H	0.773941	-0.298410	0.297403
H97	H	0.769691	-0.343837	0.370856
H98	H	0.781961	-0.153244	0.642473
C99	C	1.401973	-0.409444	0.394559
H100	H	1.438232	-0.431233	0.362339
H101	H	1.369856	-0.387873	0.353357
H102	H	1.439138	-0.388094	0.431252
H103	H	1.408427	-0.144128	1.001717
C104	C	1.146761	-1.042627	0.622035
H105	H	1.110511	-1.020840	0.654269
H106	H	1.109599	-1.063980	0.585352
H107	H	1.178890	-1.064194	0.663238
C108	C	1.414300	-0.140520	1.186439
H109	H	1.450958	-0.118075	1.147018
H110	H	1.377828	-0.120108	1.221093
H111	H	1.451353	-0.160581	1.225324
H112	H	1.103126	-0.786405	0.660637
C113	C	1.172600	-0.288547	1.172407
H114	H	1.177243	-0.285700	1.235534
H115	H	1.113081	-0.282252	1.153522
H116	H	1.186602	-0.322727	1.157773
H117	H	1.445633	-0.665671	0.355992
H118	H	1.384908	-0.920677	0.410144
H119	H	1.103074	-0.687360	0.660621
H120	H	1.163827	-0.531385	0.606458
H121	H	1.384663	-0.517394	0.410057
C122	C	1.402369	-1.026441	0.394724
H123	H	1.393676	-1.063422	0.402497
H124	H	1.392743	-1.015806	0.333536
H125	H	1.462009	-1.016018	0.411443
H126	H	1.358983	-0.174423	0.857524
