data_functionalizedCrystal
_audit_creation_method	'MofGen! by Chris Wilmer'
_symmetry_space_group_name_H-M	'P1'
_symmetry_Int_Tables_number	1
_symmetry_cell_setting	triclinic
loop_
_symmetry_equiv_pos_as_xyz
  x,y,z
_cell_length_a	10.654551
_cell_length_b	10.654550
_cell_length_c	9.730223
_cell_angle_alpha	90.003749
_cell_angle_beta	90.001469
_cell_angle_gamma	95.514868
loop_
_atom_site_label
_atom_site_type_symbol
_atom_site_fract_x
_atom_site_fract_y
_atom_site_fract_z
O1	O	0.176393	-1.667835	-0.114394
O2	O	0.193199	-1.302356	-0.114371
O3	O	0.002057	-1.493498	-0.114383
O4	O	0.367535	-1.476693	-0.114381
O5	O	0.002062	-1.493496	0.114197
O6	O	0.193204	-1.302354	0.114209
O7	O	0.176398	-1.667832	0.114186
Zn8	Zn	0.184802	-1.485093	0.150490
Zn9	Zn	0.184795	-1.485096	-0.150674
O10	O	0.367540	-1.476691	0.114199
C11	C	0.191968	-1.255557	-0.000078
C12	C	0.188276	-1.116114	-0.000069
N13	N	0.184805	-1.485100	0.356026
C14	C	-0.044739	-1.492263	-0.000096
C15	C	-0.184182	-1.488570	-0.000105
C16	C	-0.249696	-1.486839	-0.124702
C17	C	-0.380717	-1.483359	-0.124695
C18	C	-0.380697	-1.483346	0.124515
C19	C	-0.249678	-1.486817	0.124507
C20	C	-0.184200	-1.488592	-0.249314
C21	C	-0.249715	-1.486862	-0.373921
C22	C	-0.380735	-1.483382	-0.373914
C23	C	-0.446241	-1.481631	-0.249301
C24	C	0.414336	-1.477926	-0.000091
C25	C	0.553779	-1.481619	-0.000091
C26	C	0.177629	-1.714632	-0.000109
C27	C	0.181321	-1.854075	-0.000127
C28	C	0.300817	-1.036629	-0.000089
C29	C	0.297341	-0.905608	-0.000113
C30	C	0.068771	-0.933570	-0.000104
C31	C	0.072249	-1.064589	-0.000070
C32	C	0.416844	-1.088154	-0.000088
C33	C	0.529395	-1.008667	-0.000109
C34	C	0.525918	-0.877647	-0.000133
C35	C	0.409891	-0.826112	-0.000136
N36	N	0.184782	-1.485099	-0.356211
C37	C	0.100197	-1.569760	0.427947
C38	C	0.100181	-1.569756	0.571830
C39	C	0.269395	-1.400430	0.571859
C40	C	0.269403	-1.400428	0.427979
C41	C	0.015599	-1.654431	0.355994
C42	C	-0.069016	-1.739099	0.427915
C43	C	-0.069031	-1.739095	0.571798
C44	C	0.015568	-1.654425	0.643760
H45	H	-0.196370	-1.488276	-0.475376
O46	O	-0.151390	-1.821214	0.358105
C47	C	-0.275894	-1.799718	0.393310
H48	H	-0.277421	-1.699155	0.432847
H49	H	-0.338812	-1.813628	0.298703
H50	H	-0.312129	-1.868986	0.476844
H51	H	0.407069	-0.719425	-0.000134
H52	H	0.623860	-1.050636	-0.000095
O53	O	-0.444565	-1.481636	-0.494826
C54	C	-0.574255	-1.478224	-0.468107
H55	H	-0.587288	-1.438049	-0.361021
H56	H	-0.616608	-1.416044	-0.547685
H57	H	-0.623739	-1.577817	-0.474009
H58	H	-0.025693	-0.891600	-0.000129
H59	H	0.338273	-1.331496	0.630460
H60	H	-0.552924	-1.478779	-0.249306
O61	O	-0.036953	-1.141989	0.000005
C62	C	-0.009000	-1.268676	0.000005
H63	H	0.089695	-1.274536	0.043282
H64	H	-0.080658	-1.327383	0.066384
H65	H	-0.013433	-1.306551	-0.109646
O66	O	-0.151350	-1.821157	0.641725
C67	C	-0.229453	-1.753238	0.724969
H68	H	-0.232497	-1.654179	0.681616
H69	H	-0.328800	-1.803619	0.726583
H70	H	-0.190218	-1.746994	0.834020
O71	O	-0.444442	-1.481481	0.245469
C72	C	-0.506925	-1.370880	0.252949
H73	H	-0.522135	-1.334164	0.144767
H74	H	-0.602041	-1.392858	0.305690
H75	H	-0.447130	-1.296185	0.314439
H76	H	0.015606	-1.654444	0.238837
H77	H	0.338298	-1.331490	0.369421
O78	O	-0.056901	-1.491745	-0.249396
C79	C	0.000147	-1.384353	-0.317784
H80	H	-0.066070	-1.306457	-0.315586
H81	H	0.092264	-1.350229	-0.264105
H82	H	0.020381	-1.409531	-0.428957
O83	O	-0.186226	-1.488525	0.245661
C84	C	-0.272122	-1.486198	0.355649
H85	H	-0.370372	-1.523445	0.319145
H86	H	-0.241682	-1.548032	0.442810
H87	H	-0.273770	-1.385240	0.393931
H88	H	0.419687	-1.194836	-0.000075
H89	H	0.617562	-0.812931	-0.000136
H90	H	0.015540	-1.654421	0.760919
