data_functionalizedCrystal
_audit_creation_method	'MofGen! by Chris Wilmer'
_symmetry_space_group_name_H-M	'P1'
_symmetry_Int_Tables_number	1
_symmetry_cell_setting	triclinic
loop_
_symmetry_equiv_pos_as_xyz
  x,y,z
_cell_length_a	10.654550
_cell_length_b	14.519709
_cell_length_c	9.730223
_cell_angle_alpha	89.997715
_cell_angle_beta	89.996251
_cell_angle_gamma	84.082524
loop_
_atom_site_label
_atom_site_type_symbol
_atom_site_fract_x
_atom_site_fract_y
_atom_site_fract_z
O1	O	1.666589	0.129528	-0.114406
O2	O	1.300991	0.141869	-0.114384
O3	O	1.493483	0.001510	-0.114384
O4	O	1.474097	0.269887	-0.114407
O5	O	1.493481	0.001514	0.114196
O6	O	1.300989	0.141873	0.114195
O7	O	1.666586	0.129532	0.114174
Zn8	Zn	1.483787	0.135703	0.150477
Zn9	Zn	1.483790	0.135698	-0.150687
O10	O	1.474094	0.269890	0.114173
C11	C	1.254201	0.140965	-0.000092
C12	C	1.114784	0.138254	-0.000083
C13	C	1.034504	0.220895	-0.000110
C14	C	0.903507	0.218342	-0.000134
C15	C	0.933085	0.050500	-0.000108
C16	C	1.064078	0.053054	-0.000075
C17	C	1.085209	0.306095	-0.000118
C18	C	1.004928	0.388743	-0.000147
C19	C	0.873931	0.386190	-0.000170
C20	C	0.823217	0.300989	-0.000165
C21	C	1.492579	-0.032852	-0.000093
C22	C	1.489871	-0.135247	-0.000092
C23	C	1.479904	-0.510195	-0.000127
C24	C	1.482672	-0.405873	-0.000117
C25	C	1.484887	-0.322725	-0.000109
C26	C	1.487656	-0.218396	-0.000101
C27	C	1.713377	0.130436	-0.000122
C28	C	1.852794	0.133147	-0.000140
C29	C	1.474999	0.304253	-0.000120
C30	C	1.477707	0.406648	-0.000130
N31	N	1.483795	0.135705	0.356013
N32	N	1.483793	0.135688	-0.356224
C33	C	1.569052	0.073576	0.427939
C34	C	1.569048	0.073565	0.571822
C35	C	1.398527	0.197821	0.571840
C36	C	1.398525	0.197827	0.427959
C37	C	1.654321	0.011455	0.355993
C38	C	1.739586	-0.050679	0.427920
C39	C	1.739583	-0.050691	0.571803
C40	C	1.654315	0.011432	0.643759
H41	H	1.191871	0.308183	-0.000105
C42	C	1.654176	0.011643	0.199778
C43	C	1.561281	0.079367	0.152185
C44	C	1.561125	0.079581	0.008290
H45	H	1.636823	-0.047360	0.167042
H46	H	1.734440	0.024871	0.167186
H47	H	1.481035	0.066134	0.184763
H48	H	1.578613	0.138381	0.184883
H49	H	1.641389	0.092808	-0.024302
H50	H	1.543775	0.020574	-0.024433
H51	H	1.498105	0.125536	-0.024020
C52	C	1.832048	-0.118062	0.349554
C53	C	1.813806	-0.104757	0.208154
C54	C	1.898947	-0.166824	0.135926
H55	H	1.818308	-0.179733	0.372994
H56	H	1.915927	-0.107504	0.373022
H57	H	1.729947	-0.115322	0.184696
H58	H	1.827556	-0.043098	0.184674
H59	H	1.982827	-0.156266	0.159393
H60	H	1.885200	-0.228491	0.159376
H61	H	1.886590	-0.157800	0.039979
C62	C	1.832288	-0.118190	0.649648
C63	C	1.906977	-0.172573	0.555839
C64	C	1.992409	-0.234753	0.627497
H65	H	1.787183	-0.156984	0.705780
H66	H	1.884700	-0.084680	0.705747
H67	H	1.854572	-0.206080	0.499764
H68	H	1.952110	-0.133804	0.499704
H69	H	2.044821	-0.201244	0.683595
H70	H	1.947293	-0.273541	0.683626
H71	H	2.043103	-0.271654	0.563858
H72	H	1.329100	0.248418	0.369396
C73	C	1.151040	-0.036771	-0.000128
C74	C	1.078601	-0.111932	-0.000181
C75	C	1.158667	-0.194694	-0.000246
H76	H	1.202765	-0.039394	0.079572
H77	H	1.202757	-0.039311	-0.079860
H78	H	1.026906	-0.109394	0.079542
H79	H	1.026879	-0.109340	-0.079876
H80	H	1.210383	-0.197234	-0.079977
H81	H	1.210387	-0.197307	0.079456
H82	H	1.109529	-0.245700	-0.000294
H83	H	0.808569	0.453485	-0.000180
H84	H	0.716549	0.298917	-0.000163
C85	C	1.060226	0.481150	-0.000221
C86	C	1.192128	0.465701	-0.000234
C87	C	1.243109	0.550806	-0.000322
H88	H	1.032806	0.515289	0.079458
H89	H	1.032769	0.515216	-0.079974
H90	H	1.219575	0.431649	0.079511
H91	H	1.219584	0.431576	-0.079908
H92	H	1.215651	0.584873	-0.080075
H93	H	1.215679	0.584939	0.079358
H94	H	1.332609	0.540336	-0.000344
C95	C	0.877954	-0.041971	-0.000402
C96	C	0.803677	-0.048348	-0.118040
C97	C	0.752886	-0.133525	-0.118373
H98	H	0.827357	-0.046547	0.079201
H99	H	0.944494	-0.090853	-0.000455
H100	H	0.737146	0.000520	-0.117974
H101	H	0.854246	-0.043789	-0.197662
H102	H	0.819426	-0.182407	-0.118426
H103	H	0.702295	-0.138094	-0.038765
H104	H	0.702493	-0.137867	-0.198195
H105	H	1.654311	0.011411	0.760918
C106	C	1.305902	0.265122	0.650138
C107	C	1.228951	0.215465	0.732774
C108	C	1.143624	0.277434	0.804934
H109	H	1.255000	0.302152	0.586853
H110	H	1.351130	0.303804	0.706342
H111	H	1.183726	0.176798	0.676576
H112	H	1.279817	0.178437	0.796084
H113	H	1.188851	0.316117	0.861138
H114	H	1.092731	0.314461	0.741640
H115	H	1.091410	0.243751	0.861021
