data_functionalizedCrystal
_audit_creation_method	'MofGen! by Chris Wilmer'
_symmetry_space_group_name_H-M	'P1'
_symmetry_Int_Tables_number	1
_symmetry_cell_setting	triclinic
loop_
_symmetry_equiv_pos_as_xyz
  x,y,z
_cell_length_a	10.654550
_cell_length_b	9.730223
_cell_length_c	10.654550
_cell_angle_alpha	89.995071
_cell_angle_beta	84.484931
_cell_angle_gamma	90.002803
loop_
_atom_site_label
_atom_site_type_symbol
_atom_site_fract_x
_atom_site_fract_y
_atom_site_fract_z
O1	O	-1.667834	0.114187	-0.176400
O2	O	-1.302355	0.114212	-0.193206
O3	O	-1.493497	0.114190	-0.002064
O4	O	-1.476691	0.114209	-0.367543
O5	O	-1.493496	-0.114390	-0.002055
O6	O	-1.302354	-0.114368	-0.193198
O7	O	-1.667832	-0.114393	-0.176392
Zn8	Zn	-1.485093	-0.150672	-0.184793
Zn9	Zn	-1.485095	0.150492	-0.184805
O10	O	-1.476690	-0.114371	-0.367534
C11	C	-1.255556	-0.000075	-0.191968
C12	C	-1.116113	-0.000065	-0.188276
N13	N	-1.485100	-0.356209	-0.184785
C14	C	-1.492263	-0.000099	0.044738
C15	C	-1.488571	-0.000096	0.184181
C16	C	-1.714631	-0.000103	-0.177630
C17	C	-1.854074	-0.000104	-0.181322
C18	C	-1.036628	-0.000064	-0.300818
C19	C	-0.905607	-0.000088	-0.297341
C20	C	-0.933570	-0.000109	-0.068772
C21	C	-1.064588	-0.000095	-0.072250
N22	N	-1.485097	0.356028	-0.184804
C23	C	-1.569895	0.427944	-0.100333
C24	C	-1.569900	0.571827	-0.100327
C25	C	-1.400298	0.571865	-0.269264
C26	C	-1.400300	0.427984	-0.269276
C27	C	-1.477925	-0.000079	-0.414336
C28	C	-1.481617	-0.000072	-0.553779
C29	C	-1.601112	-0.000104	0.263667
C30	C	-1.597636	-0.000087	0.394688
C31	C	-1.369066	-0.000061	0.366725
C32	C	-1.372544	-0.000068	0.235706
H33	H	-1.078574	-0.000049	-0.395294
O34	O	-1.251155	-0.000076	0.149960
H35	H	-1.169891	-0.000080	0.207797
O36	O	-0.877997	-0.000139	0.056368
H37	H	-0.818971	0.093026	0.063428
O38	O	-1.150335	-0.000100	0.049139
H39	H	-1.092498	-0.000104	0.130404
H40	H	-1.638944	0.369361	-0.031553
O41	O	-1.719018	-0.000112	0.480424
H42	H	-1.800277	-0.000146	0.422579
H43	H	-1.695588	-0.000124	0.221720
O44	O	-1.243927	-0.000041	0.422298
H45	H	-1.189791	-0.093197	0.390444
O46	O	-0.819871	-0.000082	-0.418724
H47	H	-0.877716	-0.000050	-0.499983
H48	H	-1.331256	0.630466	-0.338037
O49	O	-1.661352	0.649400	-0.009212
H50	H	-1.720305	0.575186	0.049528
O51	O	-1.308867	0.350401	-0.360419
H52	H	-1.249902	0.424606	-0.419155
