data_functionalizedCrystal
_audit_creation_method	'MofGen! by Chris Wilmer'
_symmetry_space_group_name_H-M	'P1'
_symmetry_Int_Tables_number	1
_symmetry_cell_setting	triclinic
loop_
_symmetry_equiv_pos_as_xyz
  x,y,z
_cell_length_a	10.489746
_cell_length_b	10.489716
_cell_length_c	15.455313
_cell_angle_alpha	92.696181
_cell_angle_beta	87.294324
_cell_angle_gamma	84.535218
loop_
_atom_site_label
_atom_site_type_symbol
_atom_site_fract_x
_atom_site_fract_y
_atom_site_fract_z
O1	O	1.699569	0.174478	-0.072064
O2	O	1.328374	0.191363	-0.072078
O3	O	1.522435	-0.002679	-0.072074
O4	O	1.505509	0.368521	-0.072068
O5	O	1.511337	0.008371	0.072188
O6	O	1.317276	0.202414	0.072184
O7	O	1.688472	0.185529	0.072198
Cu8	Cu	1.501861	0.194980	0.085363
Cu9	Cu	1.514985	0.181912	-0.085243
O10	O	1.494411	0.379571	0.072194
C11	C	1.275294	0.195612	0.000051
C12	C	1.133665	0.191791	0.000046
C13	C	0.980818	0.066067	0.000056
C14	C	1.052735	0.134373	0.071183
C15	C	1.063632	0.123508	-0.071048
C16	C	0.953227	0.253361	0.071253
C17	C	0.964124	0.242473	-0.071042
C18	C	1.035990	0.310868	0.000102
C19	C	1.515614	-0.044686	0.000055
C20	C	1.511810	-0.186318	0.000047
C21	C	1.630813	-0.283989	0.000059
C22	C	1.573401	-0.366799	-0.071070
C23	C	1.562432	-0.355868	0.071161
C24	C	1.454452	-0.267267	-0.071141
C25	C	1.443495	-0.256326	0.071154
C26	C	1.385996	-0.339089	0.000008
C27	C	1.741552	0.181280	0.000067
C28	C	1.883181	0.185100	0.000067
C29	C	1.501231	0.421578	0.000064
C30	C	1.505036	0.563209	0.000066
N31	N	1.492639	0.204171	0.205359
N32	N	1.524217	0.172711	-0.205238
C33	C	1.575112	0.121765	0.250754
C34	C	1.568150	0.128728	0.341562
C35	C	1.478720	0.218102	0.386972
C36	C	1.396238	0.300511	0.341570
C37	C	1.403195	0.293542	0.250764
C38	C	1.448692	0.248151	0.658553
C39	C	1.441744	0.255117	0.749366
C40	C	1.613654	0.083331	0.749351
C41	C	1.620608	0.076374	0.658544
C42	C	1.538122	0.158779	0.613149
N43	N	1.471604	0.225224	0.479792
N44	N	1.545233	0.151650	0.520331
H45	H	1.111705	0.068630	-0.131182
H46	H	0.905312	0.308187	0.131455
H47	H	1.091590	0.088730	0.131316
H48	H	1.282408	-0.363524	-0.000034
H49	H	1.381530	0.315250	0.621600
H50	H	1.388677	-0.208203	0.131288
H51	H	0.956101	-0.037430	0.000126
H52	H	1.680809	0.016240	0.786320
H53	H	1.734332	-0.259315	-0.000010
H54	H	1.608067	-0.394734	0.131293
H55	H	1.628263	-0.414899	-0.131202
H56	H	1.060454	0.414451	0.000143
H57	H	0.925245	0.288071	-0.131177
H58	H	1.408873	-0.228575	-0.131341
H59	H	1.647940	0.048993	0.213787
H60	H	1.635305	0.061626	0.378523
H61	H	1.693429	0.003599	0.621572
H62	H	1.368915	0.327901	0.786335
H63	H	1.323416	0.373278	0.378548
H64	H	1.336035	0.360643	0.213804
