data_functionalizedCrystal
_audit_creation_method	'MofGen! by Chris Wilmer'
_symmetry_space_group_name_H-M	'P1'
_symmetry_Int_Tables_number	1
_symmetry_cell_setting	triclinic
loop_
_symmetry_equiv_pos_as_xyz
  x,y,z
_cell_length_a	14.853566
_cell_length_b	19.188930
_cell_length_c	13.330367
_cell_angle_alpha	89.990231
_cell_angle_beta	89.995295
_cell_angle_gamma	83.389598
loop_
_atom_site_label
_atom_site_type_symbol
_atom_site_fract_x
_atom_site_fract_y
_atom_site_fract_z
O1	O	1.195863	0.091151	-0.083369
O2	O	0.933343	0.102011	-0.083387
O3	O	1.072178	-0.005050	-0.083358
O4	O	1.057027	0.198211	-0.083398
O5	O	1.072158	-0.005052	0.083489
O6	O	0.933323	0.102008	0.083460
O7	O	1.195843	0.091148	0.083478
Cu8	Cu	1.064581	0.096578	0.098704
Cu9	Cu	1.064605	0.096581	-0.098612
O10	O	1.057007	0.198209	0.083449
C11	C	0.899747	0.101518	0.000035
C12	C	0.799671	0.100043	0.000029
C13	C	0.376532	0.093810	-0.090901
C14	C	0.376531	0.093808	0.091002
C15	C	0.470558	0.095192	0.090999
C16	C	0.517575	0.095886	0.000044
C17	C	0.470567	0.095196	-0.090907
C18	C	0.517572	0.095889	0.181949
C19	C	0.611604	0.097274	0.181949
C20	C	0.658624	0.097964	0.090993
C21	C	0.611610	0.097273	0.000038
C22	C	0.658628	0.097967	-0.090916
C23	C	0.611616	0.097271	-0.181873
C24	C	0.517587	0.095886	-0.181863
C25	C	0.752653	0.099349	0.090983
C26	C	0.752662	0.099354	-0.090923
C27	C	1.071678	-0.031063	0.000069
C28	C	1.070205	-0.108573	0.000077
C29	C	1.151669	-0.153225	0.000088
C30	C	1.150285	-0.226054	0.000071
C31	C	1.067433	-0.254226	0.000065
C32	C	0.985958	-0.209564	0.000049
C33	C	0.987344	-0.136737	0.000055
N34	N	1.004095	-0.362443	0.056842
N35	N	1.002784	-0.431626	0.056838
C36	C	1.063252	-0.473649	0.000044
N37	N	1.125094	-0.443877	-0.056733
N38	N	1.126408	-0.374688	-0.056725
C39	C	1.065921	-0.333194	0.000058
C40	C	1.143221	-0.597271	0.000036
C41	C	1.141834	-0.670100	0.000013
C42	C	0.977504	-0.653609	0.000001
C43	C	0.978893	-0.580781	0.000013
C44	C	1.061754	-0.552617	0.000036
C45	C	1.229439	0.091642	0.000054
C46	C	1.329514	0.093116	0.000054
C47	C	1.057508	0.224223	0.000020
C48	C	1.058980	0.301732	0.000005
N49	N	1.064571	0.096576	0.237485
N50	N	1.064622	0.096578	-0.237394
C51	C	1.003125	0.143969	0.710095
C52	C	1.126108	0.049188	0.710089
C53	C	1.126098	0.049186	0.605071
C54	C	1.064601	0.096576	0.552560
C55	C	1.003115	0.143969	0.605067
C56	C	1.187589	0.001798	0.552555
C57	C	1.187582	0.001795	0.447531
C58	C	1.126080	0.049183	0.395018
C59	C	1.064591	0.096577	0.447532
C60	C	1.003095	0.143968	0.395021
C61	C	0.941600	0.191359	0.447533
C62	C	0.941614	0.191357	0.552554
C63	C	1.126067	0.049185	0.289996
C64	C	1.003085	0.143969	0.289993
H65	H	0.338251	0.093241	-0.164955
H66	H	1.176181	0.010607	0.752847
H67	H	0.891533	0.229948	0.404766
F68	F	1.253040	-0.048632	0.608441
H69	H	0.649874	0.097839	0.256011
F70	F	1.253026	-0.048643	0.391651
H71	H	0.918498	-0.232507	0.000042
F72	F	1.231408	-0.567294	0.000064
H73	H	0.910044	-0.676546	-0.000009
H74	H	0.921004	-0.100380	0.000047
F75	F	0.802682	0.100095	0.187778
F76	F	1.228544	-0.717624	0.000018
F77	F	0.892187	-0.533257	0.000006
H78	H	1.176139	0.010603	0.247246
H79	H	1.216626	-0.262417	0.000076
H80	H	1.219141	-0.130299	0.000102
H81	H	0.953003	0.182558	0.247245
H82	H	0.891548	0.229942	0.595316
F83	F	0.937678	0.194402	0.765980
F84	F	0.802696	0.100087	-0.187732
H85	H	0.338243	0.093247	0.165053
H86	H	0.649909	0.097841	-0.255928
H87	H	0.479301	0.095318	-0.255914
F88	F	0.467527	0.095158	0.278742
