data_functionalizedCrystal
_audit_creation_method	'MofGen! by Chris Wilmer'
_symmetry_space_group_name_H-M	'P1'
_symmetry_Int_Tables_number	1
_symmetry_cell_setting	triclinic
loop_
_symmetry_equiv_pos_as_xyz
  x,y,z
_cell_length_a	10.686154
_cell_length_b	19.805405
_cell_length_c	19.805399
_cell_angle_alpha	90.027486
_cell_angle_beta	85.649771
_cell_angle_gamma	94.406894
loop_
_atom_site_label
_atom_site_type_symbol
_atom_site_fract_x
_atom_site_fract_y
_atom_site_fract_z
Zn1	Zn	-1.929009	0.190043	-0.303456
Zn2	Zn	-1.429009	0.690043	0.196544
Zn3	Zn	-1.928845	0.303238	-0.190275
Zn4	Zn	-1.428845	0.803238	0.309725
Zn5	Zn	-1.718001	0.198751	-0.198951
Zn6	Zn	-1.218001	0.698751	0.301049
Zn7	Zn	-1.717929	0.311887	-0.312088
Zn8	Zn	-1.217929	0.811887	0.187912
O9	O	-1.823446	0.250980	-0.251193
O10	O	-1.323446	0.750980	0.248807
O11	O	-2.105564	0.197794	-0.281199
O12	O	-1.605564	0.697794	0.218801
O13	O	-1.900838	0.289402	-0.096711
O14	O	-1.400838	0.789402	0.403289
O15	O	-1.746091	0.102875	-0.212832
O16	O	-1.246091	0.602875	0.287168
O17	O	-2.105444	0.280958	-0.198045
O18	O	-1.605444	0.780958	0.301955
O19	O	-1.901117	0.096477	-0.289612
O20	O	-1.401117	0.596477	0.210388
O21	O	-1.745932	0.212636	-0.103085
O22	O	-1.245932	0.712636	0.396915
O23	O	-1.541415	0.221023	-0.221203
O24	O	-1.041415	0.721023	0.278797
O25	O	-1.745967	0.295700	-0.405658
O26	O	-1.245967	0.795700	0.094342
O27	O	-1.541362	0.304144	-0.304324
O28	O	-1.041362	0.804144	0.195676
O29	O	-1.901047	0.206181	-0.399316
O30	O	-1.401047	0.706181	0.100684
O31	O	-1.900768	0.399106	-0.206415
O32	O	-1.400768	0.899106	0.293585
O33	O	-1.745808	0.405461	-0.295911
O34	O	-1.245808	0.905461	0.204089
C35	C	-1.495604	0.264467	-0.264642
C36	C	-0.995604	0.764467	0.235358
C37	C	-1.355352	0.270253	-0.270412
C38	C	-0.855352	0.770253	0.229588
C39	C	-1.823296	0.426842	-0.251172
C40	C	-1.323296	0.926842	0.248828
C41	C	-1.823348	0.502072	-0.251180
C42	C	-1.323348	1.002072	0.248820
C43	C	-1.152568	0.237433	-0.237687
C44	C	-0.652568	0.737433	0.262313
C45	C	-1.292820	0.231644	-0.231920
C46	C	-0.792820	0.731644	0.268080
C47	C	-1.904112	0.534081	-0.204623
C48	C	-1.404112	1.034081	0.295377
C49	C	-1.904163	0.604768	-0.204638
C50	C	-1.404163	1.104768	0.295362
C51	C	-1.823442	0.643443	-0.251208
C52	C	-1.323442	1.143443	0.248792
C53	C	-1.742674	0.611429	-0.297770
C54	C	-1.242674	1.111429	0.202230
C55	C	-1.742631	0.540744	-0.297758
C56	C	-1.242631	1.040744	0.202242
C57	C	-1.742848	0.896495	-0.297822
C58	C	-1.242848	1.396495	0.202178
C59	C	-1.742895	0.967185	-0.297830
C60	C	-1.242895	1.467185	0.202170
C61	C	-1.904380	0.960519	-0.204703
C62	C	-1.404380	1.460519	0.295297
C63	C	-1.904337	0.889834	-0.204690
C64	C	-1.404337	1.389834	0.295310
C65	C	-1.823574	0.857825	-0.251255
C66	C	-1.323574	1.357825	0.248745
C67	C	-1.823522	0.781179	-0.251238
C68	C	-1.323522	1.281179	0.248762
C69	C	-1.823487	0.720089	-0.251222
C70	C	-1.323487	1.220089	0.248778
C71	C	-1.823517	0.250934	-0.427732
C72	C	-1.323517	0.750934	0.072268
C73	C	-1.823547	0.250915	-0.502963
C74	C	-1.323547	0.750915	-0.002963
C75	C	-1.823620	1.074430	-0.251236
C76	C	-1.323620	1.574430	0.248764
C77	C	-1.823666	0.999196	-0.251275
C78	C	-1.323666	1.499196	0.248725
C79	C	-1.904299	0.204300	-0.535006
C80	C	-1.404299	0.704300	-0.035006
C81	C	-1.904312	0.204280	-0.605694
C82	C	-1.404312	0.704280	-0.105694
C83	C	-1.823578	0.250878	-0.644338
C84	C	-1.323578	0.750878	-0.144338
C85	C	-1.742818	0.297495	-0.612290
C86	C	-1.242818	0.797495	-0.112290
C87	C	-1.742799	0.297511	-0.541604
C88	C	-1.242799	0.797511	-0.041604
C89	C	-1.742889	0.297429	-0.897361
C90	C	-1.242889	0.797429	-0.397361
C91	C	-1.742916	0.297410	-0.968052
C92	C	-1.242916	0.797410	-0.468052
C93	C	-1.904401	0.204197	-0.961451
C94	C	-1.404401	0.704197	-0.461451
C95	C	-1.904383	0.204214	-0.890765
C96	C	-1.404383	0.704214	-0.390765
C97	C	-1.823618	0.250828	-0.858724
C98	C	-1.323618	0.750828	-0.358724
C99	C	-1.823603	0.250849	-0.782076
C100	C	-1.323603	0.750849	-0.282076
C101	C	-1.823598	0.250861	-0.720984
C102	C	-1.323598	0.750861	-0.220984
C103	C	-1.823448	0.250973	-0.075337
C104	C	-1.323448	0.750973	0.424663
C105	C	-1.823662	0.250792	-0.000096
C106	C	-1.323662	0.750792	0.499904
H107	H	-1.346582	0.194163	-0.194551
H108	H	-0.846582	0.694163	0.305449
O109	O	-1.655736	0.347752	-0.653971
O110	O	-1.155736	0.847752	-0.153971
H111	H	-1.599571	0.380164	-0.619812
H112	H	-1.099571	0.880164	-0.119812
O113	O	-1.991195	0.492367	-0.154403
O114	O	-1.491195	0.992367	0.345597
H115	H	-1.934754	0.462533	-0.122245
H116	H	-1.434754	0.962533	0.377755
H117	H	-1.301584	0.307742	-0.307779
H118	H	-0.801584	0.807742	0.192221
O119	O	-1.991387	0.154044	-0.493329
O120	O	-1.491387	0.654044	0.006671
H121	H	-1.934944	0.121940	-0.463439
H122	H	-1.434944	0.621940	0.036561
H123	H	-1.677030	0.335464	-0.515516
H124	H	-1.177030	0.835464	-0.015516
H125	H	-1.970071	0.166323	-0.631780
H126	H	-1.470071	0.666323	-0.131780
H127	H	-1.970160	0.166240	-0.987548
H128	H	-1.470160	0.666240	-0.487548
H129	H	-1.969928	0.630826	-0.166726
H130	H	-1.469928	1.130826	0.333274
H131	H	-1.677168	0.335358	-0.999514
H132	H	-1.177168	0.835358	-0.499514
H133	H	-1.970063	0.858346	-0.166767
H134	H	-1.470063	1.358346	0.333233
H135	H	-1.677144	0.335394	-0.871281
H136	H	-1.177144	0.835394	-0.371281
O137	O	-1.991529	0.995039	-0.154495
O138	O	-1.491529	1.495039	0.345505
H139	H	-1.978023	1.050688	-0.162333
H140	H	-1.478023	1.550688	0.337667
O141	O	-1.655838	1.008904	-0.348065
O142	O	-1.155838	1.508904	0.151935
H143	H	-1.599680	0.974772	-0.380448
H144	H	-1.099680	1.474772	0.119552
H145	H	-1.970129	0.166271	-0.859304
H146	H	-1.470129	0.666271	-0.359304
H147	H	-1.677086	0.870440	-0.335735
H148	H	-1.177086	1.370440	0.164265
H149	H	-1.676955	0.642924	-0.335691
H150	H	-1.176955	1.142924	0.164309
H151	H	-1.676866	0.514682	-0.335670
H152	H	-1.176866	1.014682	0.164330
