data_functionalizedCrystal
_audit_creation_method	'MofGen! by Chris Wilmer'
_symmetry_space_group_name_H-M	'P1'
_symmetry_Int_Tables_number	1
_symmetry_cell_setting	triclinic
loop_
_symmetry_equiv_pos_as_xyz
  x,y,z
_cell_length_a	15.944551
_cell_length_b	14.185569
_cell_length_c	15.538191
_cell_angle_alpha	97.872928
_cell_angle_beta	65.385416
_cell_angle_gamma	76.840192
loop_
_atom_site_label
_atom_site_type_symbol
_atom_site_fract_x
_atom_site_fract_y
_atom_site_fract_z
O1	O	1.051947	0.083308	0.142818
O2	O	0.802822	0.083332	0.157803
O3	O	0.975877	0.083320	0.013184
O4	O	0.878892	0.083320	0.287437
O5	O	1.026997	-0.083518	-0.029533
O6	O	0.853942	-0.083506	0.115086
O7	O	1.103067	-0.083530	0.100101
Cu8	Cu	0.983172	-0.098752	0.103693
Cu9	Cu	0.922717	0.098554	0.154211
O10	O	0.930012	-0.083518	0.244720
C11	C	0.797277	-0.000084	0.135823
C12	C	0.704596	-0.000074	0.133961
N13	N	1.025700	-0.237526	0.068161
C14	C	0.755263	-0.605157	0.294088
C15	C	0.787482	-0.710181	0.267179
C16	C	0.940730	-0.710152	0.139167
C17	C	0.908523	-0.605126	0.166062
C18	C	0.815790	-0.552637	0.243523
C19	C	0.969049	-0.552606	0.115497
C20	C	0.936846	-0.447590	0.142394
C21	C	0.844117	-0.395093	0.219855
C22	C	0.783587	-0.447620	0.270420
C23	C	1.061785	-0.605098	0.038040
C24	C	1.122311	-0.552578	-0.012524
C25	C	1.090106	-0.447559	0.014368
C26	C	0.997377	-0.395062	0.091828
C27	C	1.150637	-0.395032	-0.036198
C28	C	1.118434	-0.290015	-0.009301
C29	C	0.965174	-0.290046	0.118725
C30	C	0.518439	-0.000094	0.039861
C31	C	0.418889	0.082166	0.104617
C32	C	0.534903	-0.000086	0.130586
C33	C	0.469306	-0.082323	0.062523
C34	C	0.370990	-0.000102	0.127317
C35	C	0.436553	0.082242	0.195385
C36	C	0.487003	-0.082321	0.153259
C37	C	0.387445	-0.000041	0.218086
C38	C	0.629329	-0.000076	0.132466
C39	C	0.276560	-0.000105	0.125446
C40	C	1.108611	-0.000112	0.122081
C41	C	1.201290	-0.000115	0.123944
C42	C	1.011584	-0.000097	-0.043269
C43	C	1.041807	-0.000090	-0.147839
N44	N	0.880198	0.237328	0.189735
C45	C	0.741525	-0.000082	-0.435646
C46	C	0.769948	-0.000087	-0.533912
C47	C	0.929822	-0.000102	-0.556348
C48	C	0.901410	-0.000092	-0.458082
C49	C	0.807261	-0.000083	-0.397738
C50	C	0.967147	-0.000093	-0.420174
C51	C	0.938738	-0.000089	-0.321917
C52	C	0.844593	-0.000083	-0.261568
C53	C	0.778852	-0.000079	-0.299482
C54	C	1.061298	-0.000109	-0.480521
C55	C	1.127034	-0.000111	-0.442613
C56	C	1.098624	-0.000099	-0.344352
C57	C	1.004479	-0.000093	-0.284004
C58	C	1.164365	-0.000103	-0.306439
C59	C	1.135957	-0.000099	-0.208182
C60	C	0.976071	-0.000088	-0.185747
C61	C	0.894305	-0.000099	0.301173
C62	C	0.864079	-0.000100	0.405745
H63	H	0.889657	-0.247307	0.181796
C64	C	0.446324	0.175899	-0.016485
C65	C	0.378760	0.176046	0.076857
H66	H	0.421549	0.233851	-0.033628
H67	H	0.505653	0.176271	-0.016081
H68	H	0.457576	0.117479	-0.063052
H69	H	0.367513	0.234462	0.123425
H70	H	0.319414	0.175682	0.076459
C71	C	1.237187	0.085678	-0.175075
C72	C	1.208204	-0.000088	-0.166498
H73	H	1.281786	0.085684	-0.149334
H74	H	1.267586	0.085666	-0.242223
H75	H	1.181845	0.143851	-0.139470
H76	H	1.263546	-0.058262	-0.202109
H77	H	1.177807	-0.000085	-0.099338
C78	C	1.273152	-0.300525	-0.138558
C79	C	1.184960	-0.232277	-0.064884
H80	H	1.314220	-0.264878	-0.172874
H81	H	1.303963	-0.341480	-0.109818
H82	H	1.261082	-0.341493	-0.182957
H83	H	1.197029	-0.191315	-0.020480
H84	H	1.154143	-0.191306	-0.093625
H85	H	1.006481	-0.000113	-0.605494
C86	C	0.871301	-0.244637	0.277448
C87	C	0.808715	-0.279656	0.249422
H88	H	0.849446	-0.173372	0.295696
H89	H	0.871713	-0.268394	0.331574
H90	H	0.935187	-0.268386	0.224073
H91	H	0.744830	-0.255913	0.302800
H92	H	0.808293	-0.255889	0.195291
C93	C	1.278907	-0.000126	-0.467027
C94	C	1.267853	-0.000117	-0.372777
H95	H	1.342795	-0.000129	-0.507977
H96	H	1.268544	-0.058302	-0.493402
H97	H	1.232886	0.058059	-0.463619
H98	H	1.313870	-0.058306	-0.376183
H99	H	1.278226	0.058065	-0.346395
C100	C	1.215823	-0.670668	-0.170953
C101	C	1.224238	-0.610283	-0.097673
H102	H	1.278748	-0.706287	-0.223525
H103	H	1.184391	-0.716971	-0.144682
H104	H	1.178634	-0.629693	-0.194362
H105	H	1.261422	-0.651259	-0.074260
H106	H	1.255685	-0.563975	-0.123948
C107	C	0.681298	-0.000877	-0.059197
C108	C	0.594381	0.000006	-0.061765
H109	H	0.728182	-0.000819	-0.121936
H110	H	0.669816	0.056967	-0.011845
H111	H	0.704851	-0.059389	-0.042084
H112	H	0.570824	0.058522	-0.078871
H113	H	0.605863	-0.057843	-0.109133
C114	C	0.661726	-0.487052	0.452516
C115	C	0.653325	-0.547444	0.379229
H116	H	0.598795	-0.451418	0.505072
H117	H	0.698892	-0.528016	0.475941
H118	H	0.693175	-0.440753	0.426238
H119	H	0.621881	-0.593748	0.405506
H120	H	0.616144	-0.506476	0.355802
H121	H	0.331289	0.000005	0.293468
H122	H	0.899402	-0.000074	-0.136609
H123	H	0.738186	-0.752937	0.308362
H124	H	0.516753	-0.151870	0.173792
C125	C	0.506507	0.175412	0.272229
C126	C	0.418947	0.176234	0.271205
H127	H	0.495639	0.233443	0.319030
H128	H	0.530511	0.117077	0.289303
H129	H	0.552749	0.175176	0.209048
H130	H	0.372707	0.176463	0.334383
H131	H	0.394929	0.234585	0.254136
H132	H	0.708070	-0.404881	0.333490
H133	H	1.016237	-0.752901	0.076098
C134	C	1.034610	-0.755550	-0.019574
C135	C	1.097189	-0.720535	0.008466
H136	H	1.056472	-0.826815	-0.037838
H137	H	0.970730	-0.731813	0.033790
H138	H	1.034202	-0.731779	-0.073704
H139	H	1.097592	-0.744299	0.062600
H140	H	1.161086	-0.744282	-0.044903
H141	H	0.821467	-0.000085	-0.181563
H142	H	1.084422	-0.000104	-0.560525
H143	H	1.226145	-0.437783	-0.099262
C144	C	0.554232	-0.176034	-0.106586
C145	C	0.486757	-0.176206	-0.013331
H146	H	0.565010	-0.233992	-0.153416
H147	H	0.529668	-0.117626	-0.123234
H148	H	0.613786	-0.176383	-0.106354
H149	H	0.427201	-0.175849	-0.013560
H150	H	0.511318	-0.234629	0.003321
C151	C	0.623648	-0.000052	-0.287157
C152	C	0.675357	-0.000059	-0.233140
H153	H	0.559760	-0.000045	-0.246200
H154	H	0.620231	0.058122	-0.311054
H155	H	0.655880	-0.058239	-0.340843
H156	H	0.643128	0.058132	-0.179457
H157	H	0.678770	-0.058239	-0.209228
C158	C	0.616136	0.085698	-0.523088
C159	C	0.697684	-0.000075	-0.575583
H160	H	0.571530	0.085705	-0.548821
H161	H	0.585747	0.085692	-0.455945
H162	H	0.635827	0.143866	-0.528912
H163	H	0.677994	-0.058244	-0.569754
H164	H	0.728077	-0.000078	-0.642743
H165	H	0.664856	-0.000067	-0.386509
H166	H	1.203692	-0.000122	-0.491758
