data_functionalizedCrystal
_audit_creation_method	'MofGen! by Chris Wilmer'
_symmetry_space_group_name_H-M	'P1'
_symmetry_Int_Tables_number	1
_symmetry_cell_setting	triclinic
loop_
_symmetry_equiv_pos_as_xyz
  x,y,z
_cell_length_a	12.759401
_cell_length_b	18.050589
_cell_length_c	12.759393
_cell_angle_alpha	89.969175
_cell_angle_beta	89.982620
_cell_angle_gamma	90.028382
loop_
_atom_site_label
_atom_site_type_symbol
_atom_site_fract_x
_atom_site_fract_y
_atom_site_fract_z
Zn1	Zn	1.606145	-0.295611	-0.593988
Zn2	Zn	1.606001	-0.419822	-0.418311
Zn3	Zn	1.430450	-0.295650	-0.418328
Zn4	Zn	1.430394	-0.419764	-0.593953
O5	O	1.518248	-0.357712	-0.506145
O6	O	1.753147	-0.312095	-0.570692
O7	O	1.582678	-0.403391	-0.271292
O8	O	1.453840	-0.191720	-0.441651
O9	O	1.753041	-0.403352	-0.441623
O10	O	1.582923	-0.191692	-0.570708
O11	O	1.453701	-0.312162	-0.271304
O12	O	1.283422	-0.312107	-0.441617
O13	O	1.453745	-0.403254	-0.740979
O14	O	1.283381	-0.403292	-0.570648
O15	O	1.582868	-0.312040	-0.741005
O16	O	1.582623	-0.523739	-0.441589
O17	O	1.453605	-0.523696	-0.570632
C18	C	1.245280	-0.357698	-0.506131
C19	C	1.128504	-0.357710	-0.506149
C20	C	1.073648	-0.405267	-0.573225
C21	C	0.963924	-0.405276	-0.573236
C22	C	0.963921	-0.310170	-0.439088
C23	C	1.073644	-0.310158	-0.439083
C24	C	1.128508	-0.452819	-0.640292
C25	C	1.073652	-0.500380	-0.707372
C26	C	0.963928	-0.500389	-0.707383
C27	C	0.909060	-0.452838	-0.640314
C28	C	1.518121	-0.550664	-0.506127
C29	C	1.518163	-0.633210	-0.506155
C30	C	1.448072	-0.832664	-0.576304
C31	C	1.422460	-0.882113	-0.480436
C32	C	1.518266	-0.784340	-0.506169
C33	C	1.543930	-0.881973	-0.602048
C34	C	1.518364	-0.930325	-0.506191
C35	C	1.492603	-0.832702	-0.410250
C36	C	1.614118	-0.832557	-0.531927
C37	C	1.588542	-0.881984	-0.435992
C38	C	1.518207	-0.700242	-0.506158
C39	C	1.518423	-1.014422	-0.506191
C40	C	1.792281	-0.357726	-0.506160
C41	C	1.909058	-0.357732	-0.506166
C42	C	1.518316	-0.357636	-0.780178
C43	C	1.518345	-0.357604	-0.896955
C44	C	1.518404	-0.164006	-0.506185
C45	C	1.518470	-0.081460	-0.506203
C46	C	1.451216	-0.310093	-0.951829
C47	C	1.451247	-0.310071	-1.061554
C48	C	1.585547	-0.405073	-1.061519
C49	C	1.585510	-0.405098	-0.951797
C50	C	1.384051	-0.262598	-0.896987
C51	C	1.316917	-0.215082	-0.951862
C52	C	1.316949	-0.215060	-1.061586
C53	C	1.384115	-0.262554	-1.116436
C54	C	1.518240	-0.357733	-0.233178
C55	C	1.518415	-0.357556	-0.116401
H56	H	1.118308	-0.271428	-0.384472
H57	H	1.262278	-0.176376	-1.106262
C58	C	1.243027	-0.162851	-0.891537
H59	H	1.203041	-0.134559	-0.939936
H60	H	1.283221	-0.130502	-0.848741
H61	H	1.197212	-0.191276	-0.848731
H62	H	1.384020	-0.262609	-0.807644
H63	H	0.819715	-0.452843	-0.640338
C64	C	0.903569	-0.257874	-0.365314
H65	H	0.830366	-0.264697	-0.374917
H66	H	0.921578	-0.207986	-0.380807
H67	H	0.921521	-0.268687	-0.294692
H68	H	1.384133	-0.262534	-1.205780
H69	H	1.388624	-0.811008	-0.635531
H70	H	1.565598	-0.903616	-0.683124
H71	H	1.217851	-0.452818	-0.640288
H72	H	1.341446	-0.903897	-0.458669
H73	H	1.470842	-0.811148	-0.329152
C74	C	1.659436	-0.457304	-1.121847
H75	H	1.699408	-0.485607	-1.073450
H76	H	1.705248	-0.428885	-1.164654
H77	H	1.619232	-0.489653	-1.164643
H78	H	1.118333	-0.539090	-0.761983
H79	H	1.640186	-0.443776	-0.907117
H80	H	0.919267	-0.539110	-0.762010
H81	H	1.695113	-0.810775	-0.553739
H82	H	1.647945	-0.903502	-0.376622
