data_functionalizedCrystal
_audit_creation_method	'MofGen! by Chris Wilmer'
_symmetry_space_group_name_H-M	'P1'
_symmetry_Int_Tables_number	1
_symmetry_cell_setting	triclinic
loop_
_symmetry_equiv_pos_as_xyz
  x,y,z
_cell_length_a	23.532355
_cell_length_b	23.532357
_cell_length_c	18.266242
_cell_angle_alpha	90.011897
_cell_angle_beta	90.003221
_cell_angle_gamma	82.827896
loop_
_atom_site_label
_atom_site_type_symbol
_atom_site_fract_x
_atom_site_fract_y
_atom_site_fract_z
O1	O	0.755270	0.068997	0.060790
O2	O	1.255270	0.568997	0.560790
O3	O	0.589401	0.079031	0.060815
O4	O	1.089401	0.579031	0.560815
O5	O	0.677352	-0.008921	0.060787
O6	O	1.177352	0.491079	0.560787
O7	O	0.667319	0.156949	0.060818
O8	O	1.167319	0.656949	0.560818
O9	O	0.677337	-0.008925	-0.060975
O10	O	1.177337	0.491075	0.439025
O11	O	0.589386	0.079027	-0.060947
O12	O	1.089386	0.579027	0.439053
O13	O	0.755255	0.068992	-0.060972
O14	O	1.255255	0.568992	0.439028
Zn15	Zn	0.672318	0.074009	-0.080292
Zn16	Zn	1.172318	0.574009	0.419708
Zn17	Zn	0.672338	0.074015	0.080135
Zn18	Zn	1.172338	0.574015	0.580135
O19	O	0.667304	0.156944	-0.060944
O20	O	1.167304	0.656944	0.439056
C21	C	0.568177	0.078778	-0.000063
C22	C	1.068177	0.578778	0.499937
C23	C	0.504958	0.078024	-0.000055
C24	C	1.004958	0.578024	0.499945
C25	C	0.112937	0.073283	-0.066459
C26	C	0.612937	0.573283	0.433541
C27	C	0.053538	0.072566	-0.066462
C28	C	0.553538	0.572566	0.433538
O29	O	0.022812	0.072173	-0.122908
O30	O	0.522812	0.572173	0.377092
N31	N	0.023837	0.072212	-0.000090
N32	N	0.523837	0.572212	0.499910
C33	C	0.053540	0.072571	0.066290
C34	C	0.553540	0.572571	0.566290
O35	O	0.022824	0.072204	0.122744
O36	O	0.522824	0.572204	0.622744
C37	C	0.112939	0.073284	0.066292
C38	C	0.612939	0.573284	0.566292
C39	C	0.142636	0.073643	-0.000084
C40	C	0.642636	0.573643	0.499916
C41	C	0.142634	0.073642	-0.132830
C42	C	0.642634	0.573642	0.367170
C43	C	0.202029	0.074360	-0.132827
C44	C	0.702029	0.574360	0.367173
C45	C	0.231727	0.074720	-0.066452
C46	C	0.731727	0.574720	0.433548
C47	C	0.202031	0.074362	-0.000081
C48	C	0.702031	0.574362	0.499919
C49	C	0.142641	0.073638	0.132671
C50	C	0.642641	0.573638	0.632671
C51	C	0.202044	0.074351	0.132667
C52	C	0.702044	0.574351	0.632667
C53	C	0.231741	0.074711	0.066291
C54	C	0.731741	0.574711	0.566291
C55	C	0.291124	0.075440	0.066296
C56	C	0.791124	0.575440	0.566296
N57	N	0.320824	0.075794	-0.000076
N58	N	0.820824	0.575794	0.499924
C59	C	0.291126	0.075434	-0.066450
C60	C	0.791126	0.575434	0.433550
C61	C	-0.071201	0.071072	0.066280
C62	C	0.428799	0.571072	0.566280
C63	C	-0.130599	0.070362	0.066279
C64	C	0.369401	0.570362	0.566279
C65	C	-0.130597	0.070356	-0.066473
C66	C	0.369403	0.570356	0.433527
C67	C	-0.071199	0.071070	-0.066471
C68	C	0.428801	0.571070	0.433529
C69	C	-0.041501	0.071425	-0.000092
C70	C	0.458499	0.571425	0.499908
C71	C	0.415860	0.076943	-0.066438
C72	C	0.915860	0.576943	0.433562
C73	C	0.475260	0.077664	-0.066429
C74	C	0.975260	0.577664	0.433571
C75	C	0.475253	0.077667	0.066322
C76	C	0.975253	0.577667	0.566322
C77	C	0.415858	0.076949	0.066314
C78	C	0.915858	0.576949	0.566314
C79	C	0.386163	0.076585	-0.000073
C80	C	0.886163	0.576585	0.499927
O81	O	0.321887	0.075831	0.122714
O82	O	0.821887	0.575831	0.622714
O83	O	0.321851	0.075793	-0.122895
O84	O	0.821851	0.575793	0.377105
C85	C	0.677094	-0.030140	-0.000097
C86	C	1.177094	0.469860	0.499903
C87	C	0.676339	-0.093358	-0.000103
C88	C	1.176339	0.406642	0.499897
C89	C	0.671610	-0.485366	0.066309
C90	C	1.171610	0.014634	0.566309
C91	C	0.670893	-0.544765	0.066314
C92	C	1.170893	-0.044765	0.566314
O93	O	0.670510	-0.575479	0.122761
O94	O	1.170510	-0.075479	0.622761
N95	N	0.670529	-0.574479	-0.000058
N96	N	1.170529	-0.074479	0.499942
C97	C	0.670877	-0.544789	-0.066438
C98	C	1.170877	-0.044789	0.433562
O99	O	0.670501	-0.575517	-0.122892
O100	O	1.170501	-0.075517	0.377108
C101	C	0.671590	-0.485390	-0.066442
C102	C	1.171590	0.014610	0.433558
C103	C	0.671960	-0.455681	-0.000066
C104	C	1.171960	0.044319	0.499934
C105	C	0.671979	-0.455656	0.132680
C106	C	1.171979	0.044344	0.632680
C107	C	0.672697	-0.396261	0.132675
C108	C	1.172697	0.103739	0.632675
C109	C	0.673047	-0.366576	0.066300
C110	C	1.173047	0.133424	0.566300
C111	C	0.672678	-0.396286	-0.000070
C112	C	1.172678	0.103714	0.499930
C113	C	0.671934	-0.455701	-0.132821
C114	C	1.171934	0.044299	0.367179
C115	C	0.672646	-0.396298	-0.132819
C116	C	1.172646	0.103702	0.367181
C117	C	0.673016	-0.366589	-0.066443
C118	C	1.173016	0.133411	0.433557
C119	C	0.673746	-0.307205	-0.066450
C120	C	1.173746	0.192795	0.433550
N121	N	0.674109	-0.277492	-0.000078
N122	N	1.174109	0.222508	0.499922
C123	C	0.673760	-0.307177	0.066297
C124	C	1.173760	0.192823	0.566297
C125	C	0.669378	-0.669530	-0.066426
C126	C	1.169378	-0.169530	0.433574
C127	C	0.668669	-0.728929	-0.066423
C128	C	1.168669	-0.228929	0.433577
C129	C	0.668684	-0.728901	0.066329
C130	C	1.168684	-0.228901	0.566329
C131	C	0.669397	-0.669502	0.066326
C132	C	1.169397	-0.169502	0.566326
C133	C	0.669742	-0.639817	-0.000054
C134	C	1.169742	-0.139817	0.499946
C135	C	0.675269	-0.182443	0.066282
C136	C	1.175269	0.317557	0.566282
C137	C	0.675990	-0.123043	0.066272
C138	C	1.175990	0.376957	0.566272
C139	C	0.675972	-0.123076	-0.066480
C140	C	1.175972	0.376924	0.433520
C141	C	0.675254	-0.182471	-0.066470
C142	C	1.175254	0.317529	0.433530
C143	C	0.674901	-0.212153	-0.000083
C144	C	1.174901	0.287847	0.499917
O145	O	0.674127	-0.276453	-0.122868
O146	O	1.174127	0.223547	0.377132
O147	O	0.674128	-0.276441	0.122741
O148	O	1.174128	0.223559	0.622741
C149	C	0.776479	0.069245	-0.000092
C150	C	1.276479	0.569245	0.499908
C151	C	0.839698	0.069999	-0.000096
C152	C	1.339698	0.569999	0.499904
C153	C	0.667562	0.178163	-0.000059
C154	C	1.167562	0.678163	0.499941
C155	C	0.668317	0.241381	-0.000047
C156	C	1.168317	0.741381	0.499953
N157	N	0.672309	0.074004	-0.189779
N158	N	1.172309	0.574004	0.310221
C159	C	0.711266	0.035078	-0.228100
C160	C	1.211266	0.535078	0.271900
C161	C	0.711270	0.035076	-0.304745
C162	C	1.211270	0.535076	0.195255
C163	C	0.672322	0.074009	-0.343066
C164	C	1.172322	0.574009	0.156934
C165	C	0.633357	0.112938	-0.304735
C166	C	1.133357	0.612938	0.195265
C167	C	0.633351	0.112936	-0.228092
C168	C	1.133351	0.612936	0.271908
N169	N	0.664778	0.124446	-0.463388
N170	N	1.164778	0.624446	0.036612
N171	N	0.664788	0.124447	-0.536196
N172	N	1.164788	0.624447	-0.036196
C173	C	0.672338	0.074017	-0.573988
C174	C	1.172338	0.574017	-0.073988
N175	N	0.679889	0.023585	-0.536222
N176	N	1.179889	0.523585	-0.036222
N177	N	0.679882	0.023586	-0.463407
N178	N	1.179882	0.523586	0.036593
C179	C	0.672324	0.074015	-0.426173
C180	C	1.172324	0.574015	0.073827
C181	C	0.711301	0.035085	-0.695417
C182	C	1.211301	0.535085	-0.195417
C183	C	0.711301	0.035081	-0.772063
C184	C	1.211301	0.535081	-0.272063
C185	C	0.633390	0.112949	-0.772052
C186	C	1.133390	0.612949	-0.272052
C187	C	0.633388	0.112947	-0.695407
C188	C	1.133388	0.612947	-0.195407
C189	C	0.672346	0.074016	-0.657094
C190	C	1.172346	0.574016	-0.157094
N191	N	0.672351	0.074014	0.189622
N192	N	1.172351	0.574014	0.689622
H193	H	-0.047024	0.071363	-0.120521
H194	H	0.452976	0.571363	0.379479
Cl195	Cl	0.760274	-0.013860	-0.647251
Cl196	Cl	1.260274	0.486140	-0.147251
Cl197	Cl	0.673156	-0.358920	0.216124
Cl198	Cl	1.173156	0.141080	0.716124
Cl199	Cl	0.671541	-0.492964	0.216134
Cl200	Cl	1.171541	0.007036	0.716134
H201	H	0.676292	-0.098856	0.120325
H202	H	1.176292	0.401144	0.620325
H203	H	-0.154789	0.070062	-0.120519
H204	H	0.345211	0.570062	0.379481
H205	H	0.743023	0.003380	-0.803265
H206	H	1.243023	0.503380	-0.303265
Cl207	Cl	0.584413	0.161888	-0.647227
Cl208	Cl	1.084413	0.661888	-0.147227
H209	H	0.499436	0.077958	-0.120483
H210	H	0.999436	0.577958	0.379517
Cl211	Cl	0.378538	0.076486	-0.149896
Cl212	Cl	0.878538	0.576486	0.350104
H213	H	0.601644	0.144637	-0.335940
H214	H	1.101644	0.644637	0.164060
H215	H	0.669661	-0.645365	-0.120483
H216	H	1.169661	-0.145365	0.379517
Cl217	Cl	0.760250	-0.013864	-0.352928
Cl218	Cl	1.260250	0.486136	0.147072
H219	H	-0.154774	0.070079	0.120329
H220	H	0.345226	0.570079	0.620329
H221	H	0.226203	0.074649	-0.186877
H222	H	0.726203	0.574649	0.313123
Cl223	Cl	-0.033873	0.071525	0.149737
Cl224	Cl	0.466127	0.571525	0.649737
H225	H	0.118460	0.073347	-0.186883
H226	H	0.618460	0.573347	0.313117
Cl227	Cl	0.105324	0.073185	0.216121
Cl228	Cl	0.605324	0.573185	0.716121
H229	H	0.226221	0.074641	0.186722
H230	H	0.726221	0.574641	0.686722
H231	H	0.601676	0.144647	-0.803252
H232	H	1.101676	0.644647	-0.303252
H233	H	0.391677	0.076666	0.120363
H234	H	0.891677	0.576666	0.620363
H235	H	0.672919	-0.372131	-0.186874
H236	H	1.172919	0.127869	0.313126
Cl237	Cl	0.674800	-0.219823	-0.149915
Cl238	Cl	1.174800	0.280177	0.350085
Cl239	Cl	0.676411	-0.085746	-0.149918
Cl240	Cl	1.176411	0.414254	0.350082
H241	H	0.601626	0.144635	-0.196890
H242	H	1.101626	0.644635	0.303110
H243	H	0.742987	0.003377	-0.196908
H244	H	1.242987	0.503377	0.303092
H245	H	0.674978	-0.206603	0.120341
H246	H	1.174978	0.293397	0.620341
Cl247	Cl	0.512600	0.078116	0.149760
Cl248	Cl	1.012600	0.578116	0.649760
H249	H	0.669697	-0.645316	0.120375
H250	H	1.169697	-0.145316	0.620375
H251	H	0.668398	-0.753081	0.120375
H252	H	1.168398	-0.253081	0.620375
H253	H	0.668377	-0.753115	-0.120473
H254	H	1.168377	-0.253115	0.379527
H255	H	0.671634	-0.479881	-0.186871
H256	H	1.171634	0.020119	0.313129
