data_functionalizedCrystal
_audit_creation_method	'MofGen! by Chris Wilmer'
_symmetry_space_group_name_H-M	'P1'
_symmetry_Int_Tables_number	1
_symmetry_cell_setting	triclinic
loop_
_symmetry_equiv_pos_as_xyz
  x,y,z
_cell_length_a	14.044190
_cell_length_b	9.065215
_cell_length_c	13.101018
_cell_angle_alpha	86.588348
_cell_angle_beta	93.660631
_cell_angle_gamma	89.103237
loop_
_atom_site_label
_atom_site_type_symbol
_atom_site_fract_x
_atom_site_fract_y
_atom_site_fract_z
O1	O	0.133966	1.983273	-0.085216
O2	O	0.145381	1.555254	-0.085222
O3	O	0.001635	1.762832	-0.085199
O4	O	0.277712	1.775696	-0.085239
O5	O	0.011957	1.747921	0.085230
O6	O	0.155704	1.540343	0.085207
O7	O	0.144288	1.968362	0.085213
Zn8	Zn	0.151635	1.751985	0.112269
Zn9	Zn	0.138034	1.771631	-0.112278
O10	O	0.288035	1.760785	0.085190
C11	C	0.149446	1.492691	-0.000008
C12	C	0.146167	1.328484	-0.000009
C13	C	-0.028567	1.749750	0.000019
C14	C	-0.133936	1.732969	0.000027
C15	C	-0.383467	1.821308	-0.000012
C16	C	-0.326858	1.702316	-0.000006
C17	C	-0.219507	1.719375	0.000013
C18	C	-0.490829	1.804251	-0.000030
C19	C	0.318236	1.773866	-0.000030
C20	C	0.423605	1.790649	-0.000045
C21	C	0.140223	2.030926	-0.000003
C22	C	0.143502	2.195133	-0.000009
N23	N	0.160916	1.738588	0.265517
N24	N	0.128746	1.785039	-0.265525
C25	C	0.116114	1.803258	0.525433
C26	C	0.173545	1.720374	0.474551
C27	C	0.166517	1.730511	0.358234
C28	C	0.123141	1.793123	0.641762
H29	H	-0.351309	1.935983	0.000000
N30	N	-0.369447	1.550398	-0.000017
H31	H	-0.441211	1.559583	-0.000027
H32	H	-0.343952	1.489474	0.063168
N33	N	0.245669	1.616292	0.532553
H34	H	0.240534	1.623711	0.608629
H35	H	0.312017	1.643890	0.513854
H36	H	0.061671	1.881827	0.481642
