data_functionalizedCrystal
_audit_creation_method	'MofGen! by Chris Wilmer'
_symmetry_space_group_name_H-M	'P1'
_symmetry_Int_Tables_number	1
_symmetry_cell_setting	triclinic
loop_
_symmetry_equiv_pos_as_xyz
  x,y,z
_cell_length_a	11.792254
_cell_length_b	14.519709
_cell_length_c	10.268362
_cell_angle_alpha	89.993769
_cell_angle_beta	89.995475
_cell_angle_gamma	83.939371
loop_
_atom_site_label
_atom_site_type_symbol
_atom_site_fract_x
_atom_site_fract_y
_atom_site_fract_z
O1	O	1.506199	0.126460	-0.108302
O2	O	2.006199	0.626460	0.391698
O3	O	1.175788	0.139475	-0.108305
O4	O	1.675788	0.639475	0.391695
O5	O	1.349754	-0.001238	-0.108292
O6	O	1.849754	0.498762	0.391708
O7	O	1.332233	0.267174	-0.108316
O8	O	1.832233	0.767174	0.391684
O9	O	1.349739	-0.001244	0.108309
O10	O	1.849739	0.498756	0.608309
O11	O	1.175773	0.139469	0.108295
O12	O	1.675773	0.639469	0.608295
O13	O	1.506184	0.126454	0.108298
O14	O	2.006184	0.626454	0.608298
Cu15	Cu	1.340977	0.132961	0.128074
Cu16	Cu	1.840977	0.632961	0.628074
Cu17	Cu	1.340995	0.132968	-0.128081
Cu18	Cu	1.840995	0.632968	0.371919
O19	O	1.332218	0.267168	0.108285
O20	O	1.832218	0.767168	0.608285
C21	C	1.133494	0.138652	-0.000005
C22	C	1.633494	0.638652	0.499995
C23	C	1.007495	0.136199	-0.000006
C24	C	1.507495	0.636199	0.499994
C25	C	0.905169	0.134205	-0.000012
C26	C	1.405169	0.634205	0.499988
C27	C	0.776796	0.131711	-0.000012
C28	C	1.276796	0.631711	0.499988
C29	C	1.348930	-0.035604	0.000009
C30	C	1.848930	0.464396	0.500009
C31	C	1.346483	-0.137994	0.000009
C32	C	1.846483	0.362006	0.500009
C33	C	1.337475	-0.512923	-0.000025
C34	C	1.837475	-0.012923	0.499975
C35	C	1.339976	-0.408606	-0.000015
C36	C	1.839976	0.091394	0.499985
C37	C	1.341979	-0.325462	-0.000006
C38	C	1.841979	0.174538	0.499994
C39	C	1.344481	-0.221138	0.000001
C40	C	1.844481	0.278862	0.500001
C41	C	1.548478	0.127277	-0.000004
C42	C	2.048478	0.627277	0.499996
C43	C	1.674477	0.129731	-0.000012
C44	C	2.174477	0.629731	0.499988
C45	C	1.333042	0.301534	-0.000018
C46	C	1.833042	0.801534	0.499982
C47	C	1.335489	0.403924	-0.000028
C48	C	1.835489	0.903924	0.499972
N49	N	1.340973	0.132956	0.308240
N50	N	1.840973	0.632956	0.808240
N51	N	1.341008	0.132966	-0.308247
N52	N	1.841008	0.632966	0.191753
C53	C	1.340989	0.132966	0.573911
C54	C	1.840989	0.632966	1.073911
C55	C	1.340976	0.132963	0.426073
C56	C	1.840976	0.632963	0.926073
