data_functionalizedCrystal
_audit_creation_method	'MofGen! by Chris Wilmer'
_symmetry_space_group_name_H-M	'P1'
_symmetry_Int_Tables_number	1
_symmetry_cell_setting	triclinic
loop_
_symmetry_equiv_pos_as_xyz
  x,y,z
_cell_length_a	16.109301
_cell_length_b	16.109301
_cell_length_c	9.130313
_cell_angle_alpha	89.997330
_cell_angle_beta	90.002129
_cell_angle_gamma	83.461532
loop_
_atom_site_label
_atom_site_type_symbol
_atom_site_fract_x
_atom_site_fract_y
_atom_site_fract_z
O1	O	1.103127	0.106864	-0.121724
O2	O	0.861065	0.120164	-0.121745
O3	O	0.988746	-0.007517	-0.121719
O4	O	0.975446	0.234545	-0.121750
O5	O	0.988744	-0.007514	0.121880
O6	O	0.861063	0.120167	0.121854
O7	O	1.103125	0.106868	0.121875
Cu8	Cu	0.982094	0.113518	0.144107
Cu9	Cu	0.982096	0.113514	-0.143977
O10	O	0.975445	0.234548	0.121849
C11	C	0.830089	0.119627	0.000052
C12	C	0.737794	0.118011	0.000045
C13	C	0.428796	0.188494	0.000061
C14	C	0.515516	0.190020	0.000052
C15	C	0.535389	0.038531	0.000052
C16	C	0.448671	0.037007	0.000050
C17	C	0.395376	0.111991	0.000062
C18	C	0.568815	0.115041	0.000055
C19	C	0.662841	0.116694	0.000046
C20	C	0.301344	0.110338	0.000069
C21	C	0.988206	-0.038490	0.000081
C22	C	0.986591	-0.130785	0.000083
C23	C	1.058599	-0.353058	0.000067
C24	C	1.057075	-0.439778	0.000054
C25	C	0.905586	-0.419904	0.000047
C26	C	0.907111	-0.333185	0.000049
C27	C	0.983620	-0.299765	0.000066
C28	C	0.980571	-0.473204	0.000052
C29	C	0.978918	-0.567230	0.000039
C30	C	0.985273	-0.205733	0.000076
C31	C	1.134101	0.107405	0.000075
C32	C	1.226396	0.109020	0.000073
C33	C	0.975984	0.265522	0.000046
C34	C	0.977599	0.357817	0.000034
N35	N	0.982099	0.113520	0.346730
N36	N	0.982098	0.113505	-0.346599
C37	C	1.038650	0.057002	0.423393
C38	C	1.038648	0.056992	0.576730
C39	C	0.925541	0.170025	0.576726
C40	C	0.925540	0.170031	0.423392
C41	C	1.103955	-0.008254	0.423397
C42	C	1.103952	-0.008264	0.576734
H43	H	0.421461	-0.025296	0.000047
Br44	Br	0.848776	0.246721	0.319345
Br45	Br	0.805346	-0.260852	0.000028
Br46	Br	0.607722	-0.063228	0.000048
Br47	Br	0.801758	-0.465266	0.000019
H48	H	1.118130	-0.483167	0.000052
H49	H	1.120897	-0.325850	0.000078
Br50	Br	1.210233	0.014513	0.646118
Br51	Br	0.848783	0.246713	0.680776
H52	H	1.090333	-0.072035	0.381783
H53	H	1.164140	0.011454	0.375841
Br54	Br	1.071177	-0.108612	0.656008
H55	H	0.385405	0.249551	0.000070
H56	H	0.542722	0.252317	0.000050
