data_functionalizedCrystal
_audit_creation_method	'MofGen! by Chris Wilmer'
_symmetry_space_group_name_H-M	'P1'
_symmetry_Int_Tables_number	1
_symmetry_cell_setting	triclinic
loop_
_symmetry_equiv_pos_as_xyz
  x,y,z
_cell_length_a	18.215405
_cell_length_b	12.759401
_cell_length_c	12.759393
_cell_angle_alpha	90.020566
_cell_angle_beta	89.963505
_cell_angle_gamma	89.976906
loop_
_atom_site_label
_atom_site_type_symbol
_atom_site_fract_x
_atom_site_fract_y
_atom_site_fract_z
Zn1	Zn	-0.292984	-1.606192	-0.593966
Zn2	Zn	-0.416068	-1.606052	-0.418268
Zn3	Zn	-0.293016	-1.430491	-0.418302
Zn4	Zn	-0.416009	-1.430451	-0.593906
O5	O	-0.354519	-1.518296	-0.506110
O6	O	-0.309322	-1.753194	-0.570670
O7	O	-0.399783	-1.582721	-0.271251
O8	O	-0.190027	-1.453873	-0.441644
O9	O	-0.399752	-1.753091	-0.441585
O10	O	-0.190004	-1.582960	-0.570703
O11	O	-0.309377	-1.453737	-0.271276
O12	O	-0.309320	-1.283464	-0.441586
O13	O	-0.399652	-1.453806	-0.740935
O14	O	-0.399683	-1.283436	-0.570601
O15	O	-0.309266	-1.582922	-0.740979
O16	O	-0.519044	-1.582683	-0.441527
O17	O	-0.519001	-1.453670	-0.570568
C18	C	-0.354499	-1.245329	-0.506091
C19	C	-0.354508	-1.128552	-0.506108
C20	C	-0.307505	-1.073745	-0.573425
C21	C	-0.307510	-0.964021	-0.573430
C22	C	-0.401527	-0.963922	-0.438798
C23	C	-0.401518	-1.073644	-0.438789
C24	C	-0.545726	-1.518186	-0.506060
C25	C	-0.627524	-1.518234	-0.506073
C26	C	-0.815716	-1.585569	-0.439005
C27	C	-0.892575	-1.585616	-0.439031
C28	C	-0.892570	-1.451158	-0.573291
C29	C	-0.815713	-1.451117	-0.573270
C30	C	-0.777288	-1.518321	-0.506121
C31	C	-0.931004	-1.518409	-0.506168
C32	C	-1.014338	-1.518460	-0.506196
C33	C	-0.693949	-1.518272	-0.506094
C34	C	-0.162566	-1.518436	-0.506184
C35	C	-0.080767	-1.518496	-0.506215
C36	C	-0.354449	-1.518375	-0.780144
C37	C	-0.354418	-1.518409	-0.896921
C38	C	-0.354533	-0.792330	-0.506126
C39	C	-0.354522	-0.909106	-0.506123
C40	C	-0.307347	-1.585644	-0.951807
C41	C	-0.307315	-1.585662	-1.061531
C42	C	-0.401433	-1.451206	-1.061473
C43	C	-0.401461	-1.451183	-0.951750
C44	C	-0.354537	-1.518279	-0.233143
C45	C	-0.354359	-1.518449	-0.116367
H46	H	-0.439794	-1.118269	-0.383965
H47	H	-0.923865	-1.396442	-0.627959
C48	C	-0.255792	-1.134141	-0.647465
H49	H	-0.227795	-1.085781	-0.687549
H50	H	-0.283976	-1.176954	-0.693165
H51	H	-0.223686	-1.176937	-0.607348
H52	H	-0.784432	-1.640292	-0.384331
C53	C	-0.453239	-0.903519	-0.364763
H54	H	-0.446519	-0.830322	-0.374417
H55	H	-0.442411	-0.921471	-0.294198
H56	H	-0.502700	-0.921490	-0.380017
C57	C	-0.773439	-1.377140	-0.647099
H58	H	-0.807330	-1.337111	-0.687083
H59	H	-0.743408	-1.417289	-0.692903
H60	H	-0.743505	-1.331368	-0.606851
C61	C	-0.934843	-1.659583	-0.365199
H62	H	-0.900949	-1.699593	-0.325202
H63	H	-0.964777	-1.705357	-0.405434
H64	H	-0.964873	-1.619427	-0.319391
C65	C	-0.453247	-1.377227	-0.891371
H66	H	-0.481268	-1.337206	-0.939739
H67	H	-0.425104	-1.331464	-0.848569
H68	H	-0.485327	-1.417397	-0.848566
H69	H	-0.269040	-1.640381	-0.907168
H70	H	-0.268983	-1.640410	-1.106215
C71	C	-0.453181	-1.377273	-1.121789
H72	H	-0.446430	-1.386923	-1.194997
H73	H	-0.442412	-1.306686	-1.103803
H74	H	-0.502636	-1.392618	-1.103787
H75	H	-0.269234	-0.919401	-0.628245
