data_functionalizedCrystal
_audit_creation_method	'MofGen! by Chris Wilmer'
_symmetry_space_group_name_H-M	'P1'
_symmetry_Int_Tables_number	1
_symmetry_cell_setting	triclinic
loop_
_symmetry_equiv_pos_as_xyz
  x,y,z
_cell_length_a	15.995350
_cell_length_b	14.971486
_cell_length_c	13.448316
_cell_angle_alpha	90.006811
_cell_angle_beta	90.003113
_cell_angle_gamma	83.553252
loop_
_atom_site_label
_atom_site_type_symbol
_atom_site_fract_x
_atom_site_fract_y
_atom_site_fract_z
O1	O	-1.111103	-0.115296	-0.082608
O2	O	-0.867342	-0.129533	-0.082629
O3	O	-0.995756	0.007793	-0.082611
O4	O	-0.982690	-0.252622	-0.082626
O5	O	-0.995740	0.007802	0.082773
O6	O	-0.867326	-0.129524	0.082755
O7	O	-1.111087	-0.115287	0.082776
Cu8	Cu	-0.989205	-0.122405	0.097866
Cu9	Cu	-0.989224	-0.122415	-0.097719
O10	O	-0.982673	-0.252613	0.082758
C11	C	-0.995164	0.041122	0.000081
C12	C	-0.993413	0.140417	0.000080
C13	C	-0.836139	-0.128940	0.000061
C14	C	-0.743187	-0.127175	0.000053
C15	C	-1.142291	-0.115880	0.000084
C16	C	-1.235243	-0.117645	0.000085
C17	C	-0.405433	-0.120838	0.000074
C18	C	-0.452769	-0.023037	0.000449
C19	C	-0.549461	-0.024802	0.000069
C20	C	-0.572997	-0.123982	0.000064
C21	C	-0.531967	-0.172225	-0.094377
C22	C	-0.435329	-0.169768	-0.094449
C23	C	-0.434974	-0.171780	0.093623
C24	C	-0.531919	-0.171756	0.094865
C25	C	-0.667696	-0.125763	0.000055
C26	C	-0.310733	-0.119060	0.000076
C27	C	-0.983266	-0.285942	0.000064
C28	C	-0.985017	-0.385237	0.000059
N29	N	-0.989198	-0.122397	0.235431
C30	C	-1.068852	0.197728	0.000087
C31	C	-1.067202	0.291026	0.000077
C32	C	-0.990111	0.327010	0.000067
C33	C	-0.914666	0.269691	0.000057
C34	C	-0.916317	0.176395	0.000060
C35	C	-0.911229	0.464150	0.000053
C36	C	-0.909577	0.557452	0.000052
C37	C	-1.062114	0.578780	0.000070
C38	C	-1.063766	0.485484	0.000073
C39	C	-0.988320	0.428172	0.000065
N40	N	-0.989238	-0.122415	-0.235284
C41	C	-1.046077	-0.061614	0.287479
C42	C	-1.046083	-0.061614	0.391582
C43	C	-0.989212	-0.122401	0.443635
C44	C	-0.932326	-0.183187	0.391580
C45	C	-0.932318	-0.183183	0.287478
C46	C	-0.932350	-0.183193	0.608560
C47	C	-0.932359	-0.183199	0.712668
C48	C	-1.046114	-0.061624	0.712664
C49	C	-1.046106	-0.061620	0.608562
C50	C	-0.989221	-0.122407	0.556514
H51	H	-0.577845	0.013120	0.067769
F52	F	-1.150905	0.159440	0.000107
H53	H	-0.846803	0.586747	0.000059
H54	H	-1.092431	-0.012129	0.755047
F55	F	-1.106638	0.003071	0.553163
H56	H	-0.886048	-0.232697	0.755045
F57	F	-0.871803	-0.247888	0.553170
H58	H	-0.403284	-0.243888	0.094259
F59	F	-0.871795	-0.247878	0.446979
F60	F	-1.142410	0.639777	0.000074
F61	F	-0.393270	-0.263620	-0.100056
H62	H	-0.886000	-0.232677	0.245101
F63	F	-0.427113	0.027827	-0.087576
H64	H	-0.559193	-0.136539	0.164732
H65	H	-1.126540	0.456189	0.000088
H66	H	-0.854886	0.129732	0.000054
H67	H	-0.577287	0.013369	-0.067744
F68	F	-0.830930	0.403155	0.000042
F69	F	-0.569017	-0.128438	-0.186242
F70	F	-0.428496	0.028065	0.088975
H71	H	-0.547356	-0.244081	0.100565
F72	F	-1.147496	0.352017	0.000086
H73	H	-1.092397	-0.012119	0.433959
F74	F	-0.832619	0.307991	0.000035
H75	H	-1.092392	-0.012118	0.245104
H76	H	-0.546165	-0.245090	-0.097892
F77	F	-0.411359	-0.123793	-0.186719
H78	H	-0.414399	-0.139802	0.165207
