data_functionalizedCrystal
_audit_creation_method	'MofGen! by Chris Wilmer'
_symmetry_space_group_name_H-M	'P1'
_symmetry_Int_Tables_number	1
_symmetry_cell_setting	triclinic
loop_
_symmetry_equiv_pos_as_xyz
  x,y,z
_cell_length_a	16.120484
_cell_length_b	16.120542
_cell_length_c	13.897441
_cell_angle_alpha	92.918134
_cell_angle_beta	92.866498
_cell_angle_gamma	89.836765
loop_
_atom_site_label
_atom_site_type_symbol
_atom_site_fract_x
_atom_site_fract_y
_atom_site_fract_z
Zn1	Zn	-0.395673	-1.254475	-0.642134
Zn2	Zn	0.104327	-0.754475	-0.142134
Zn3	Zn	-0.534738	-1.247318	-0.488563
Zn4	Zn	-0.034738	-0.747318	0.011437
Zn5	Zn	-0.388637	-1.115414	-0.472284
Zn6	Zn	0.111363	-0.615414	0.027716
Zn7	Zn	-0.527616	-1.108327	-0.641247
Zn8	Zn	-0.027616	-0.608327	-0.141247
O9	O	-0.461666	-1.181384	-0.561057
O10	O	0.038334	-0.681384	-0.061057
O11	O	-0.420046	-1.369891	-0.628946
O12	O	0.079954	-0.869891	-0.128946
O13	O	-0.515394	-1.229791	-0.351422
O14	O	-0.015394	-0.729791	0.148578
O15	O	-0.273208	-1.139822	-0.488374
O16	O	0.226792	-0.639822	0.011626
O17	O	-0.522217	-1.364633	-0.516118
O18	O	-0.022217	-0.864633	-0.016118
O19	O	-0.278377	-1.241989	-0.613161
O20	O	0.221623	-0.741989	-0.113161
O21	O	-0.408053	-1.132882	-0.339462
O22	O	0.091947	-0.632882	0.160538
O23	O	-0.401147	-0.998109	-0.487514
O24	O	0.098853	-0.498109	0.012486
O25	O	-0.510077	-1.127743	-0.776346
O26	O	-0.010077	-0.627743	-0.276346
O27	O	-0.503254	-0.992902	-0.611650
O28	O	-0.003254	-0.492902	-0.111650
O29	O	-0.413140	-1.235117	-0.776997
O30	O	0.086860	-0.735117	-0.276997
O31	O	-0.650156	-1.222919	-0.515258
O32	O	-0.150156	-0.722919	-0.015258
O33	O	-0.644923	-1.120803	-0.627434
O34	O	-0.144923	-0.620803	-0.127434
C35	C	-0.450665	-0.965333	-0.547720
C36	C	0.049335	-0.465333	-0.047720
C37	C	-0.445978	-0.872904	-0.542038
C38	C	0.054022	-0.372904	-0.042038
C39	C	-0.485951	-0.659935	-0.590475
C40	C	0.014049	-0.159935	-0.090475
C41	C	-0.437430	-0.703681	-0.531664
C42	C	0.062570	-0.203681	-0.031664
C43	C	-0.442188	-0.797846	-0.537438
C44	C	0.057812	-0.297846	-0.037438
C45	C	-0.481194	-0.565762	-0.584703
C46	C	0.018806	-0.065762	-0.084703
C47	C	-0.677712	-1.170338	-0.573039
C48	C	-0.177712	-0.670338	-0.073039
C49	C	-0.770141	-1.165689	-0.578202
C50	C	-0.270141	-0.665689	-0.078202
C51	C	-0.939371	-1.157206	-0.587648
C52	C	-0.439371	-0.657206	-0.087648
C53	C	-0.983128	-1.205710	-0.534491
C54	C	-0.483128	-0.705710	-0.034491
C55	C	-1.077293	-1.200990	-0.539747
C56	C	-0.577293	-0.700990	-0.039747
C57	C	-0.845197	-1.161925	-0.582393
C58	C	-0.345197	-0.661925	-0.082393
C59	C	-0.244777	-1.192495	-0.549051
C60	C	0.255223	-0.692495	-0.049051
C61	C	-0.152352	-1.197230	-0.543934
C62	C	0.347648	-0.697230	-0.043934
C63	C	-0.461599	-1.181438	-0.812649
C64	C	0.038401	-0.681438	-0.312649
C65	C	-0.461570	-1.181461	-0.919863
C66	C	0.038430	-0.681461	-0.419863
C67	C	-0.472706	-0.398278	-0.574433
C68	C	0.027294	0.101722	-0.074433
C69	C	-0.477400	-0.490706	-0.580098
C70	C	0.022600	0.009294	-0.080098
C71	C	-0.461547	-1.181479	-1.006932
C72	C	0.038453	-0.681479	-0.506932
C73	C	-0.461511	-1.181505	-1.116164
C74	C	0.038489	-0.681505	-0.616164
C75	C	-0.461675	-1.181380	-0.310443
C76	C	0.038325	-0.681380	0.189557
C77	C	-0.461478	-1.181530	-0.203227
C78	C	0.038522	-0.681530	0.296773
H79	H	-0.531061	-0.693200	-0.645157
H80	H	-0.031061	-0.193200	-0.145157
C81	C	-0.938203	-1.266591	-0.467665
C82	C	-0.438203	-0.766591	0.032335
C83	C	-0.842670	-1.271280	-0.462425
C84	C	-0.342670	-0.771280	0.037575
C85	C	-0.797741	-1.332154	-0.395596
C86	C	-0.297741	-0.832154	0.104404
C87	C	-0.848344	-1.388338	-0.334007
C88	C	-0.348344	-0.888338	0.165993
C89	C	-0.943882	-1.383651	-0.339244
C90	C	-0.443882	-0.883651	0.160756
C91	C	-0.988811	-1.322778	-0.406073
C92	C	-0.488811	-0.822778	0.093927
H93	H	-0.805206	-1.229687	-0.508019
H94	H	-0.305206	-0.729687	-0.008019
H95	H	-0.727017	-1.335623	-0.391720
H96	H	-0.227017	-0.835623	0.108280
H97	H	-0.815085	-1.433400	-0.284536
H98	H	-0.315085	-0.933400	0.215464
H99	H	-0.981347	-1.425244	-0.293650
H100	H	-0.481347	-0.925244	0.206350
H101	H	-1.059535	-1.319308	-0.409950
H102	H	-0.559535	-0.819308	0.090050
H103	H	-0.972629	-1.112137	-0.637099
H104	H	-0.472629	-0.612137	-0.137099
H105	H	-0.392316	-0.670413	-0.476977
H106	H	0.107684	-0.170413	0.023023
