data_functionalizedCrystal
_audit_creation_method	'MofGen! by Chris Wilmer'
_symmetry_space_group_name_H-M	'P1'
_symmetry_Int_Tables_number	1
_symmetry_cell_setting	triclinic
loop_
_symmetry_equiv_pos_as_xyz
  x,y,z
_cell_length_a	13.033293
_cell_length_b	12.759387
_cell_length_c	13.032721
_cell_angle_alpha	82.852552
_cell_angle_beta	74.815879
_cell_angle_gamma	82.790328
loop_
_atom_site_label
_atom_site_type_symbol
_atom_site_fract_x
_atom_site_fract_y
_atom_site_fract_z
Zn1	Zn	1.570238	-0.822551	0.216729
Zn2	Zn	2.070238	-0.322551	0.716729
Zn3	Zn	1.547550	-0.666640	0.394391
Zn4	Zn	2.047550	-0.166640	0.894391
Zn5	Zn	1.392595	-0.627044	0.239325
Zn6	Zn	1.892595	-0.127044	0.739325
Zn7	Zn	1.370017	-0.822430	0.416834
Zn8	Zn	1.870017	-0.322430	0.916834
O9	O	1.470100	-0.734666	0.316820
O10	O	1.970100	-0.234666	0.816820
O11	O	1.715871	-0.818490	0.221447
O12	O	2.215871	-0.318490	0.721447
O13	O	1.526949	-0.514368	0.373885
O14	O	2.026949	-0.014368	0.873885
O15	O	1.435103	-0.636458	0.087687
O16	O	1.935103	-0.136458	0.587687
O17	O	1.699202	-0.703943	0.351974
O18	O	2.199202	-0.203943	0.851974
O19	O	1.565617	-0.780096	0.071085
O20	O	2.065617	-0.280096	0.571085
O21	O	1.413104	-0.485278	0.259958
O22	O	1.913104	0.014722	0.759958
O23	O	1.240957	-0.636341	0.281721
O24	O	1.740957	-0.136341	0.781721
O25	O	1.396623	-0.969465	0.390226
O26	O	1.896623	-0.469465	0.890226
O27	O	1.224369	-0.779890	0.412137
O28	O	1.724369	-0.279890	0.912137
O29	O	1.543724	-0.969554	0.243209
O30	O	2.043724	-0.469554	0.743209
O31	O	1.505056	-0.703826	0.546008
O32	O	2.005056	-0.203826	1.046008
O33	O	1.374623	-0.818284	0.562498
O34	O	1.874623	-0.318284	1.062498
C35	C	1.194122	-0.703807	0.351817
C36	C	1.694122	-0.203807	0.851817
C37	C	1.076054	-0.690633	0.366815
C38	C	1.576054	-0.190633	0.866815
C39	C	1.031650	-0.741545	0.309019
C40	C	1.531650	-0.241545	0.809019
C41	C	0.909621	-0.727930	0.324518
C42	C	1.409621	-0.227930	0.824518
C43	C	1.470186	-1.008696	0.316701
C44	C	1.970186	-0.508696	0.816701
C45	C	1.470222	-1.125471	0.316650
C46	C	1.970222	-0.625471	0.816650
C47	C	1.351686	-1.095198	0.198008
C48	C	1.851686	-0.595198	0.698008
C49	C	1.292439	-1.134922	0.138664
C50	C	1.792439	-0.634922	0.638664
C51	C	1.292476	-1.244643	0.138622
C52	C	1.792476	-0.744643	0.638622
C53	C	1.351763	-1.314644	0.197933
C54	C	1.851763	-0.814644	0.697933
C55	C	1.411009	-1.274920	0.257277
C56	C	1.911009	-0.774920	0.757277
C57	C	1.410969	-1.165194	0.257310
C58	C	1.910969	-0.665194	0.757310
C59	C	1.529539	-1.305192	0.375923
C60	C	2.029539	-0.805192	0.875923
C61	C	1.529509	-1.195472	0.375961
C62	C	2.029509	-0.695472	0.875961
C63	C	1.588825	-1.375194	0.435234
C64	C	2.088825	-0.875194	0.935234
C65	C	1.648079	-1.335470	0.494574
C66	C	2.148079	-0.835470	0.994574
C67	C	1.648041	-1.225742	0.494613
C68	C	2.148041	-0.725742	0.994613
C69	C	1.588756	-1.155748	0.435305
C70	C	2.088756	-0.655748	0.935305
C71	C	1.747156	-0.765647	0.281686
C72	C	2.247156	-0.265647	0.781686
C73	C	1.865220	-0.778849	0.266714
C74	C	2.365220	-0.278849	0.766714
C75	C	1.434956	-0.765365	0.592790
C76	C	1.934956	-0.265365	1.092790
C77	C	1.420019	-0.778544	0.710839
C78	C	1.920019	-0.278544	1.210839
C79	C	1.470085	-0.461701	0.316854
C80	C	1.970085	0.038299	0.816854
C81	C	1.470292	-0.344916	0.316579
C82	C	1.970292	0.155084	0.816579
C83	C	1.505410	-0.703874	0.039768
C84	C	2.005410	-0.203874	0.539768
C85	C	1.520456	-0.690752	-0.078295
C86	C	2.020456	-0.190752	0.421705
C87	C	1.477952	-0.727842	0.755269
C88	C	1.977952	-0.227842	1.255269
C89	C	1.462515	-0.741461	0.877279
C90	C	1.962515	-0.241461	1.377279
H91	H	0.857298	-0.674256	0.385476
H92	H	1.357298	-0.174256	0.885476
Cl93	Cl	0.945994	-0.861706	0.172586
Cl94	Cl	1.445994	-0.361706	0.672586
Cl95	Cl	1.217931	-1.046917	0.064086
Cl96	Cl	1.717931	-0.546917	0.564086
Cl97	Cl	1.588860	-1.513129	0.435193
Cl98	Cl	2.088860	-1.013129	0.935193
Cl99	Cl	0.995276	-0.607765	0.460924
Cl100	Cl	1.495276	-0.107765	0.960924
Cl101	Cl	1.588707	-1.017810	0.435345
Cl102	Cl	2.088707	-0.517810	0.935345
Cl103	Cl	1.722594	-1.423473	0.569136
Cl104	Cl	2.222594	-0.923473	1.069136
Cl105	Cl	1.722520	-1.175813	0.569229
Cl106	Cl	2.222520	-0.675813	1.069229
Cl107	Cl	1.351650	-0.957260	0.198042
Cl108	Cl	1.851650	-0.457260	0.698042
Cl109	Cl	1.325800	-0.861139	0.791561
Cl110	Cl	1.825800	-0.361139	1.291561
H111	H	1.581492	-0.637262	0.869419
H112	H	2.081492	-0.137262	1.369419
Cl113	Cl	1.218000	-1.294584	0.064011
Cl114	Cl	1.718000	-0.794584	0.564011
H115	H	1.538984	-0.674355	0.702981
H116	H	2.038984	-0.174355	1.202981
Cl117	Cl	1.368292	-0.824061	0.957997
Cl118	Cl	1.868292	-0.324061	1.457997
H119	H	1.083976	-0.795208	0.248059
H120	H	1.583976	-0.295208	0.748059
H121	H	1.351777	-1.403983	0.197903
H122	H	1.851777	-0.903983	0.697903
