data_functionalizedCrystal
_audit_creation_method	'MofGen! by Chris Wilmer'
_symmetry_space_group_name_H-M	'P1'
_symmetry_Int_Tables_number	1
_symmetry_cell_setting	triclinic
loop_
_symmetry_equiv_pos_as_xyz
  x,y,z
_cell_length_a	11.792241
_cell_length_b	10.540539
_cell_length_c	10.268362
_cell_angle_alpha	89.996859
_cell_angle_beta	89.999626
_cell_angle_gamma	84.359454
loop_
_atom_site_label
_atom_site_type_symbol
_atom_site_fract_x
_atom_site_fract_y
_atom_site_fract_z
O1	O	1.507362	0.173992	-0.108167
O2	O	1.177067	0.191924	-0.108197
O3	O	1.349750	-0.001773	-0.108180
O4	O	1.334679	0.367689	-0.108184
O5	O	1.349735	-0.001781	0.108421
O6	O	1.177052	0.191916	0.108404
O7	O	1.507347	0.173984	0.108433
Cu8	Cu	1.342198	0.182949	0.128196
Cu9	Cu	1.342216	0.182959	-0.127959
O10	O	1.334664	0.367681	0.108416
C11	C	1.134766	0.190793	0.000100
C12	C	1.008743	0.187422	0.000088
C13	C	1.348612	-0.049076	0.000118
C14	C	1.345231	-0.190014	0.000111
C15	C	0.778015	0.181223	0.000126
C16	C	0.906409	0.184667	0.000105
C17	C	1.215660	-0.373018	-0.000387
C18	C	1.219087	-0.226411	0.000101
C19	C	1.405928	-0.251874	0.123806
C20	C	1.401623	-0.398404	0.123910
C21	C	1.404206	-0.398921	-0.122405
C22	C	1.405368	-0.251943	-0.124041
C23	C	1.549648	0.175114	0.000134
C24	C	1.675671	0.178486	0.000137
C25	C	1.335802	0.414984	0.000116
C26	C	1.339183	0.555921	0.000114
N27	N	1.342194	0.182942	0.308362
N28	N	1.342229	0.182956	-0.308125
C29	C	1.342210	0.182956	0.574032
C30	C	1.342197	0.182952	0.426195
H31	H	1.171327	-0.183649	-0.088569
C32	C	1.340996	-0.436319	0.248796
H33	H	1.337839	-0.526027	0.249963
H34	H	1.265818	-0.394691	0.250710
H35	H	1.381944	-0.411640	0.322769
C36	C	1.524170	-0.463611	0.131526
H37	H	1.576363	-0.400513	0.134554
H38	H	1.539411	-0.515834	0.056947
H39	H	1.532343	-0.514697	0.207806
H40	H	1.363386	-0.430338	-0.216158
H41	H	1.165836	-0.401453	-0.089091
H42	H	1.166026	-0.403067	0.087812
H43	H	1.498564	-0.229821	0.128413
C44	C	1.154104	-0.169780	0.120071
H45	H	1.155968	-0.079880	0.120772
H46	H	1.189003	-0.205140	0.197017
H47	H	1.077234	-0.189367	0.116425
C48	C	1.348945	-0.194167	0.248150
H49	H	1.288174	-0.132392	0.224947
H50	H	1.403462	-0.154774	0.298203
H51	H	1.320017	-0.259746	0.298000
C52	C	1.345463	-0.196440	-0.247664
H53	H	1.284062	-0.135772	-0.223731
H54	H	1.317048	-0.263187	-0.296234
H55	H	1.398322	-0.156089	-0.299286
H56	H	1.497336	-0.228021	-0.131502
C57	C	1.527285	-0.463128	-0.123532
H58	H	1.539035	-0.517200	-0.049743
H59	H	1.579075	-0.399612	-0.120815
H60	H	1.539664	-0.512214	-0.200726
