data_functionalizedCrystal
_audit_creation_method	'MofGen! by Chris Wilmer'
_symmetry_space_group_name_H-M	'P1'
_symmetry_Int_Tables_number	1
_symmetry_cell_setting	triclinic
loop_
_symmetry_equiv_pos_as_xyz
  x,y,z
_cell_length_a	17.019282
_cell_length_b	17.000383
_cell_length_c	10.868271
_cell_angle_alpha	89.995652
_cell_angle_beta	93.876905
_cell_angle_gamma	79.503712
loop_
_atom_site_label
_atom_site_type_symbol
_atom_site_fract_x
_atom_site_fract_y
_atom_site_fract_z
O1	O	1.039651	0.101355	0.007881
O2	O	1.539651	0.601355	0.507881
O3	O	0.809088	0.114299	-0.016560
O4	O	1.309088	0.614299	0.483440
O5	O	0.938685	-0.008056	-0.002817
O6	O	1.438685	0.491944	0.497183
O7	O	0.910055	0.223711	-0.005862
O8	O	1.410055	0.723711	0.494138
O9	O	0.938675	-0.008060	0.201826
O10	O	1.438675	0.491940	0.701826
O11	O	0.809079	0.114295	0.188083
O12	O	1.309079	0.614295	0.688083
O13	O	1.039642	0.101351	0.212525
O14	O	1.539642	0.601351	0.712525
Zn15	Zn	0.924359	0.107822	0.232796
Zn16	Zn	1.424359	0.607822	0.732796
Zn17	Zn	0.924371	0.107828	-0.036831
Zn18	Zn	1.424371	0.607828	0.463169
O19	O	0.910045	0.223706	0.198782
O20	O	1.410045	0.723706	0.698782
C21	C	0.779728	0.113808	0.082650
C22	C	1.279728	0.613808	0.582650
C23	C	0.692259	0.112342	0.073378
C24	C	1.192259	0.612342	0.573378
C25	C	0.651166	0.111649	0.180576
C26	C	1.151166	0.611649	0.680576
C27	C	0.568983	0.110259	0.171867
C28	C	1.068983	0.610259	0.671867
C29	C	0.527893	0.109568	0.055959
C30	C	1.027893	0.609568	0.555959
C31	C	0.568992	0.110259	-0.051247
C32	C	1.068992	0.610259	0.448753
C33	C	0.651175	0.111643	-0.042537
C34	C	1.151175	0.611643	0.457463
C35	C	0.279753	0.105383	0.024080
C36	C	0.779753	0.605383	0.524080
C37	C	0.197564	0.104001	0.015378
C38	C	0.697564	0.604001	0.515378
C39	C	0.197560	0.104000	0.238493
C40	C	0.697560	0.604000	0.738493
C41	C	0.279744	0.105389	0.247193
C42	C	0.779744	0.605389	0.747193
C43	C	0.320837	0.106075	0.139987
C44	C	0.820837	0.606075	0.639987
C45	C	0.443887	0.108150	0.047055
C46	C	0.943887	0.608150	0.547055
C47	C	0.404842	0.107488	0.148893
C48	C	0.904842	0.607488	0.648893
C49	C	0.940218	-0.037714	0.099666
C50	C	1.440218	0.462286	0.599666
C51	C	0.944790	-0.126077	0.100147
C52	C	1.444790	0.373923	0.600147
C53	C	0.974314	-0.626330	0.103272
C54	C	1.474314	-0.126330	0.603272
C55	C	0.970011	-0.543302	0.102823
C56	C	1.470011	-0.043302	0.602823
C57	C	0.895335	-0.492218	0.094901
C58	C	1.395335	0.007782	0.594901
C59	C	0.824956	-0.524166	0.087440
C60	C	1.324956	-0.024166	0.587440
C61	C	0.829259	-0.607192	0.087897
C62	C	1.329259	-0.107192	0.587897
C63	C	0.878714	-0.241052	0.093143
C64	C	1.378714	0.258948	0.593143
C65	C	0.874416	-0.158020	0.092682
C66	C	1.374416	0.341980	0.592682
C67	C	1.019472	-0.177162	0.108068
C68	C	1.519472	0.322838	0.608068
C69	C	1.023769	-0.260189	0.108517
C70	C	1.523769	0.239811	0.608517
C71	C	0.953390	-0.292130	0.101062
C72	C	1.453390	0.207870	0.601062
C73	C	0.890935	-0.407350	0.094438
C74	C	1.390935	0.092650	0.594438
C75	C	0.957790	-0.376997	0.101534
C76	C	1.457790	0.123003	0.601534
C77	C	1.069002	0.101842	0.113312
C78	C	1.569002	0.601842	0.613312
C79	C	1.156471	0.103308	0.122576
C80	C	1.656471	0.603308	0.622576
C81	C	0.908512	0.253364	0.096296
C82	C	1.408512	0.753364	0.596296
C83	C	0.903940	0.341728	0.095807
C84	C	1.403940	0.841728	0.595807
N85	N	0.924356	0.107817	0.416809
N86	N	1.424356	0.607817	0.916809
N87	N	0.924381	0.107827	-0.220844
N88	N	1.424381	0.607827	0.279156
C89	C	0.924367	0.107826	0.667817
C90	C	1.424367	0.607826	1.167817
C91	C	0.924358	0.107824	0.528138
C92	C	1.424358	0.607824	1.028138
H93	H	0.535531	0.109690	-0.145622
H94	H	1.035531	0.609690	0.354378
C95	C	0.152367	0.103240	-0.112135
C96	C	0.652367	0.603240	0.387865
N97	N	0.118324	0.102668	-0.208173
N98	N	0.618324	0.602668	0.291827
C99	C	0.450040	0.108270	0.276387
C100	C	0.950040	0.608270	0.776387
N101	N	0.484087	0.108871	0.372417
N102	N	0.984087	0.608871	0.872417
H103	H	0.684632	0.112209	-0.129829
H104	H	1.184632	0.612209	0.370171
C105	C	0.801295	-0.276176	0.084932
C106	C	1.301295	0.223824	0.584932
N107	N	0.742979	-0.302633	0.078745
N108	N	1.242979	0.197367	0.578745
C109	C	0.398679	0.107394	-0.080442
C110	C	0.898679	0.607394	0.419558
N111	N	0.364626	0.106823	-0.176472
N112	N	0.864626	0.606823	0.323528
H113	H	0.830134	-0.365748	0.087983
H114	H	1.330134	0.134252	0.587983
H115	H	1.027317	-0.517298	0.108903
H116	H	1.527317	-0.017298	0.608903
H117	H	1.035123	-0.667917	0.109712
H118	H	1.535123	-0.167917	0.609712
C119	C	1.039932	-0.433191	0.110247
C120	C	1.539932	0.066809	0.610247
N121	N	1.101802	-0.475524	0.116804
N122	N	1.601802	0.024476	0.616804
C123	C	0.324938	0.106145	0.374700
C124	C	0.824938	0.606145	0.874700
N125	N	0.358978	0.106715	0.470741
N126	N	0.858978	0.606715	0.970741
H127	H	1.084578	-0.301777	0.114973
H128	H	1.584578	0.198223	0.614973
H129	H	0.164094	0.103439	0.325774
H130	H	0.664094	0.603439	0.825774
C131	C	1.096884	-0.142020	0.116286
C132	C	1.596884	0.357980	0.616286
N133	N	1.155193	-0.115551	0.122484
N134	N	1.655193	0.384449	0.622484
C135	C	0.792263	-0.101829	0.083984
C136	C	1.292263	0.398171	0.583984
N137	N	0.730388	-0.059505	0.077437
N138	N	1.230388	0.440495	0.577437
H139	H	0.313202	0.105939	-0.063215
H140	H	0.813202	0.605939	0.436785
C141	C	0.742811	-0.467970	0.078722
C142	C	1.242811	0.032030	0.578722
N143	N	0.680937	-0.425645	0.072150
N144	N	1.180937	0.074355	0.572150
H145	H	0.771953	-0.633198	0.081829
H146	H	1.271953	-0.133198	0.581829
H147	H	0.535531	0.109681	0.259159
H148	H	1.035531	0.609681	0.759159
C149	C	0.696358	0.112409	0.308084
C150	C	1.196358	0.612409	0.808084
N151	N	0.730394	0.112977	0.404128
N152	N	1.230394	0.612977	0.904128
