data_functionalizedCrystal
_audit_creation_method	'MofGen! by Chris Wilmer'
_symmetry_space_group_name_H-M	'P1'
_symmetry_Int_Tables_number	1
_symmetry_cell_setting	triclinic
loop_
_symmetry_equiv_pos_as_xyz
  x,y,z
_cell_length_a	10.654562
_cell_length_b	27.732064
_cell_length_c	9.730223
_cell_angle_alpha	90.002793
_cell_angle_beta	89.996961
_cell_angle_gamma	83.569764
loop_
_atom_site_label
_atom_site_type_symbol
_atom_site_fract_x
_atom_site_fract_y
_atom_site_fract_z
O1	O	1.664980	0.067912	-0.114366
O2	O	1.299233	0.074374	-0.114348
O3	O	1.493455	0.000818	-0.114363
O4	O	1.470758	0.141468	-0.114351
O5	O	1.493453	0.000820	0.114217
O6	O	1.299231	0.074376	0.114232
O7	O	1.664978	0.067914	0.114214
Zn8	Zn	1.482104	0.071145	0.150515
Zn9	Zn	1.482107	0.071143	-0.150649
O10	O	1.470756	0.141470	0.114229
C11	C	1.252454	0.073899	-0.000056
C12	C	1.113071	0.072476	-0.000049
C13	C	1.047567	0.071813	0.124539
C14	C	0.916601	0.070479	0.124516
C15	C	0.916654	0.070474	-0.124695
C16	C	1.047619	0.071804	-0.124670
C17	C	1.047535	0.071818	0.268419
C18	C	0.916569	0.070485	0.268396
C19	C	1.492974	-0.017191	-0.000077
C20	C	1.491530	-0.070854	-0.000090
C21	C	1.366923	-0.448705	-0.000089
C22	C	1.372238	-0.247012	-0.000091
O23	O	1.275547	-0.216363	-0.000141
N24	N	1.487408	-0.227165	-0.000097
C25	C	1.601258	-0.257745	-0.000112
O26	O	1.699339	-0.236236	-0.000131
C27	C	1.595941	-0.459438	-0.000119
C28	C	1.480763	-0.479282	-0.000100
C29	C	1.251754	-0.468550	-0.000071
C30	C	1.250427	-0.518970	-0.000063
C31	C	1.364267	-0.549546	-0.000073
C32	C	1.479436	-0.529702	-0.000092
C33	C	1.709789	-0.490017	-0.000144
C34	C	1.708449	-0.540443	-0.000149
C35	C	1.593272	-0.560287	-0.000129
C36	C	1.591948	-0.610699	-0.000094
N37	N	1.476778	-0.630545	-0.000088
C38	C	1.362938	-0.599969	-0.000078
C39	C	1.604041	-0.151853	-0.000105
C40	C	1.605371	-0.101431	-0.000100
C41	C	1.376351	-0.090701	-0.000083
C42	C	1.375022	-0.141125	-0.000077
C43	C	1.488871	-0.171700	-0.000099
C44	C	1.360158	-0.705856	-0.000060
C45	C	1.358841	-0.756281	-0.000046
C46	C	1.587860	-0.767007	-0.000071
C47	C	1.589178	-0.716586	-0.000077
C48	C	1.475317	-0.686011	-0.000076
O49	O	1.688588	-0.641376	-0.000059
O50	O	1.264871	-0.621487	-0.000089
C51	C	1.368250	-0.398285	-0.000097
C52	C	1.483419	-0.378441	-0.000116
C53	C	1.597259	-0.409017	-0.000126
C54	C	1.484748	-0.328018	-0.000111
C55	C	1.370908	-0.297442	-0.000101
C56	C	1.255738	-0.317288	-0.000095
C57	C	1.254410	-0.367709	-0.000087
C58	C	1.712429	-0.389170	-0.000132
C59	C	1.713747	-0.338749	-0.000138
C60	C	1.599907	-0.308173	-0.000128
C61	C	1.711757	0.068389	-0.000082
C62	C	1.851140	0.069812	-0.000097
C63	C	1.471237	0.159479	-0.000060
C64	C	1.472681	0.213143	-0.000056
N65	N	1.482111	0.071147	0.356051
N66	N	1.482110	0.071138	-0.356185
C67	C	1.568134	0.038587	0.427971
C68	C	1.568131	0.038581	0.571854
C69	C	1.396078	0.103699	0.571885
C70	C	1.396076	0.103702	0.428005
C71	C	1.667472	0.000994	0.427953
C72	C	1.667468	0.000988	0.571836
H73	H	1.267441	-0.680968	-0.000059
O74	O	0.859422	0.110295	0.334260
C75	C	0.711471	0.182443	0.318085
C76	C	0.776133	0.137409	0.243234
H77	H	0.644137	0.204383	0.244515
H78	H	0.656253	0.170501	0.410023
H79	H	0.786235	0.205804	0.355114
H80	H	0.701452	0.114029	0.206115
H81	H	0.831377	0.149385	0.151360
O82	O	1.246840	-0.775477	-0.000093
C83	C	1.019826	-0.759503	0.000005
C84	C	1.146570	-0.737703	0.000029
H85	H	0.938724	-0.728974	0.000133
H86	H	1.013387	-0.782827	-0.095674
H87	H	1.013544	-0.782855	0.095647
H88	H	1.152937	-0.714329	-0.095547
H89	H	1.152954	-0.714407	0.095772
H90	H	1.163045	-0.292384	-0.000078
O91	O	1.782242	0.010893	0.618200
C92	C	1.991419	0.028880	0.558120
C93	C	1.861494	0.017681	0.505427
H94	H	2.055539	0.034361	0.466970
H95	H	1.979362	0.063278	0.623178
H96	H	2.035569	-0.002746	0.623237
H97	H	1.817272	0.049277	0.440253
H98	H	1.873633	-0.016734	0.440443
H99	H	1.156637	-0.535122	-0.000059
O100	O	1.701029	-0.697285	0.000157
C101	C	1.835431	-0.646559	0.118492
C102	C	1.708726	-0.668388	0.118432
H103	H	1.841685	-0.623183	0.214093
H104	H	1.916613	-0.677059	0.118580
H105	H	1.841761	-0.623249	0.022777
H106	H	1.702273	-0.691693	0.214131
H107	H	1.627606	-0.637865	0.118273
H108	H	1.326029	0.130204	0.630485
H109	H	1.159046	-0.443659	-0.000067
H110	H	1.680546	-0.791911	-0.000073
O111	O	1.142493	-0.386958	-0.000321
C112	C	0.946306	-0.393176	-0.118690
C113	C	1.073026	-0.371359	-0.118607
H114	H	0.890095	-0.380564	-0.214299
H115	H	0.964813	-0.434469	-0.118779
H116	H	0.890157	-0.380618	-0.022982
H117	H	1.129239	-0.383879	-0.214298
H118	H	1.054429	-0.330067	-0.118446
O119	O	1.111163	0.072527	-0.245732
C120	C	1.136209	0.114702	-0.458778
C121	C	1.064168	0.113950	-0.321706
H122	H	1.098224	0.148183	-0.520255
H123	H	1.241062	0.115798	-0.437445
H124	H	1.122616	0.080657	-0.520156
H125	H	1.077658	0.147988	-0.260259
H126	H	0.959342	0.112829	-0.343136
O127	O	1.263109	-0.160376	-0.000314
C128	C	1.066923	-0.166596	-0.118682
C129	C	1.193638	-0.144775	-0.118596
H130	H	1.010708	-0.153984	-0.214288
H131	H	1.085439	-0.207890	-0.118781
H132	H	1.010773	-0.154043	-0.022972
H133	H	1.249852	-0.157291	-0.214290
H134	H	1.175033	-0.103484	-0.118426
O135	O	0.852981	0.069909	-0.245708
C136	C	0.690074	0.110186	-0.390327
C137	C	0.762100	0.110890	-0.253242
H138	H	0.616563	0.143309	-0.396450
H139	H	0.759323	0.110920	-0.479426
H140	H	0.640955	0.075783	-0.396549
H141	H	0.811223	0.145287	-0.246886
H142	H	0.692793	0.110130	-0.164208
H143	H	1.696756	-0.176744	-0.000120
H144	H	1.283657	-0.065797	-0.000068
O145	O	1.717286	-0.082181	-0.000349
C146	C	1.913465	-0.075961	-0.118753
C147	C	1.786749	-0.097782	-0.118648
H148	H	1.969673	-0.088574	-0.214373
H149	H	1.894950	-0.034668	-0.118838
H150	H	1.969620	-0.088515	-0.023057
H151	H	1.730530	-0.085266	-0.214328
H152	H	1.805353	-0.139073	-0.118492
O153	O	1.104204	0.031933	0.334309
C154	C	1.075867	-0.042043	0.454502
C155	C	1.011529	0.003097	0.379893
H156	H	1.000966	-0.065364	0.491402
H157	H	1.143181	-0.063990	0.380911
H158	H	1.131091	-0.030172	0.546519
H159	H	0.956237	-0.008731	0.287879
H160	H	0.944286	0.025034	0.453575
O161	O	1.643672	-0.043344	0.381579
C162	C	1.600476	-0.124153	0.441638
C163	C	1.627389	-0.073962	0.494344
H164	H	1.587331	-0.148925	0.532781
H165	H	1.510913	-0.120090	0.376607
H166	H	1.683360	-0.140612	0.376489
H167	H	1.544583	-0.057476	0.559549
H168	H	1.716997	-0.078057	0.559300
O169	O	1.819127	-0.570094	-0.000351
C170	C	2.014421	-0.594714	-0.118842
C171	C	1.889143	-0.561100	-0.118773
H172	H	2.071052	-0.587461	-0.214590
H173	H	2.071244	-0.587437	-0.023257
H174	H	1.993667	-0.634159	-0.118769
H175	H	1.909782	-0.521644	-0.118894
H176	H	1.832358	-0.568419	-0.214350
H177	H	1.758162	0.012767	0.383324
H178	H	1.638426	-0.034119	0.616451
H179	H	0.888456	0.035236	0.313038
O180	O	1.081123	0.113893	0.321463
C181	C	1.185127	0.185429	0.281576
C182	C	1.147138	0.137799	0.221324
H183	H	1.238530	0.204765	0.200652
H184	H	1.096713	0.209807	0.313742
H185	H	1.248340	0.176956	0.374991
H186	H	1.083955	0.146226	0.127869
H187	H	1.235606	0.113435	0.189254
O188	O	1.825529	-0.319397	-0.000098
C189	C	1.929101	-0.246480	-0.000237
C190	C	1.802427	-0.268330	-0.000231
H191	H	1.910467	-0.205190	-0.000373
H192	H	1.985338	-0.259002	0.095436
H193	H	1.985288	-0.259078	-0.095885
H194	H	1.746138	-0.255743	0.095352
H195	H	1.746286	-0.255810	-0.095967
O196	O	1.822937	-0.418918	0.000044
C197	C	1.954402	-0.482045	0.118511
C198	C	1.829185	-0.448393	0.118459
H199	H	1.959506	-0.505877	0.214254
H200	H	1.959532	-0.505957	0.022920
H201	H	2.036916	-0.459185	0.118437
H202	H	1.746600	-0.471215	0.118582
H203	H	1.824165	-0.424478	0.214042
H204	H	1.803578	-0.473869	-0.000161
H205	H	1.326019	0.130210	0.369449
