data_functionalizedCrystal
_audit_creation_method	'MofGen! by Chris Wilmer'
_symmetry_space_group_name_H-M	'P1'
_symmetry_Int_Tables_number	1
_symmetry_cell_setting	triclinic
loop_
_symmetry_equiv_pos_as_xyz
  x,y,z
_cell_length_a	6.817900
_cell_length_b	11.452831
_cell_length_c	11.452834
_cell_angle_alpha	69.701345
_cell_angle_beta	108.697278
_cell_angle_gamma	108.696887
loop_
_atom_site_label
_atom_site_type_symbol
_atom_site_fract_x
_atom_site_fract_y
_atom_site_fract_z
V1	V	-4.058376	-0.092199	-0.361062
O2	O	-4.035231	0.091586	-0.392859
O3	O	-4.019348	-0.266638	-0.321402
O4	O	-4.019351	-0.052538	-0.535502
O5	O	-4.035229	-0.123996	-0.177277
V6	V	-4.539575	-0.074735	-0.343598
O7	O	-4.324733	-0.130508	-0.399372
O8	O	-4.723415	-0.036426	-0.305289
O9	O	-4.355396	0.099704	-0.383259
O10	O	-4.680116	-0.258520	-0.311801
O11	O	-4.680119	-0.042938	-0.527384
O12	O	-4.355393	-0.114395	-0.169159
C13	C	-3.866326	-0.310358	-0.306109
C14	C	-3.915766	-0.452718	-0.274844
C15	C	-4.034213	-0.657037	-0.336178
C16	C	-3.983116	-0.509900	-0.368499
C17	C	-3.866328	-0.037250	-0.579214
C18	C	-3.915766	-0.005978	-0.721575
C19	C	-3.983111	-0.099619	-0.778760
C20	C	-4.034209	-0.067300	-0.925897
C21	C	-4.171760	0.143416	-0.398546
C22	C	-4.101559	0.285777	-0.429819
C23	C	-4.171758	-0.129689	-0.125439
C24	C	-4.101558	-0.160955	0.016922
H25	H	-4.121378	-0.654252	-0.533916
C26	C	-4.009856	-0.428899	-0.509134
H27	H	-3.971993	-0.340633	-0.512408
H28	H	-3.920071	-0.444760	-0.547654
H29	H	-4.154008	-0.451322	-0.554095
C30	C	-4.009896	-0.240248	-0.697755
H31	H	-3.972023	-0.243521	-0.609488
H32	H	-4.154043	-0.285192	-0.720194
H33	H	-3.920106	-0.278786	-0.713598
H34	H	-3.895914	-0.512682	-0.170739
H35	H	-4.014389	0.036804	-0.985865
C36	C	-4.128356	-0.301592	-0.902081
H37	H	-4.090485	-0.304868	-0.813813
H38	H	-4.272503	-0.346532	-0.924522
H39	H	-4.038568	-0.340131	-0.917924
C40	C	-3.888971	0.134651	-0.802579
H41	H	-3.926815	0.137925	-0.890845
H42	H	-3.978732	0.173200	-0.786736
H43	H	-3.744805	0.179585	-0.780140
H44	H	-4.014375	-0.717007	-0.232080
