data_functionalizedCrystal
_audit_creation_method	'MofGen! by Chris Wilmer'
_symmetry_space_group_name_H-M	'P1'
_symmetry_Int_Tables_number	1
_symmetry_cell_setting	triclinic
loop_
_symmetry_equiv_pos_as_xyz
  x,y,z
_cell_length_a	15.072220
_cell_length_b	15.995350
_cell_length_c	15.995292
_cell_angle_alpha	96.519505
_cell_angle_beta	90.002061
_cell_angle_gamma	90.008851
loop_
_atom_site_label
_atom_site_type_symbol
_atom_site_fract_x
_atom_site_fract_y
_atom_site_fract_z
O1	O	-0.073701	-1.110973	0.107924
O2	O	0.426299	-0.610973	0.607924
O3	O	-0.073718	-0.867195	0.121252
O4	O	0.426282	-0.367195	0.621252
O5	O	-0.073711	-0.995774	-0.007303
O6	O	0.426289	-0.495774	0.492697
O7	O	-0.073709	-0.982395	0.236479
O8	O	0.426291	-0.482395	0.736479
O9	O	0.073855	-0.995742	-0.007296
O10	O	0.573855	-0.495742	0.492704
O11	O	0.073847	-0.867164	0.121259
O12	O	0.573847	-0.367164	0.621259
O13	O	0.073864	-1.110942	0.107931
O14	O	0.573864	-0.610942	0.607931
Zn15	Zn	0.097285	-0.989048	0.114596
Zn16	Zn	0.597285	-0.489048	0.614596
Zn17	Zn	-0.097139	-0.989089	0.114587
Zn18	Zn	0.402861	-0.489089	0.614587
O19	O	0.073856	-0.982363	0.236486
O20	O	0.573856	-0.482363	0.736486
C21	C	0.000062	-0.835985	0.120704
C22	C	0.500062	-0.335985	0.620704
C23	C	0.000055	-0.743035	0.119053
C24	C	0.500055	-0.243035	0.619053
N25	N	0.229973	-0.989025	0.114602
N26	N	0.729973	-0.489025	0.614602
N27	N	-0.229828	-0.989118	0.114574
N28	N	0.270172	-0.489118	0.614574
C29	C	0.589175	-0.989088	0.114584
C30	C	1.089175	-0.489088	0.614584
C31	C	0.551564	-0.920057	0.183140
C32	C	1.051564	-0.420057	0.683140
C33	C	0.448738	-0.920215	0.183390
C34	C	0.948738	-0.420215	0.683390
C35	C	0.410971	-0.989056	0.114593
C36	C	0.910971	-0.489056	0.614593
C37	C	0.448269	-1.076417	0.133675
C38	C	0.948269	-0.576417	0.633675
C39	C	0.551127	-1.076030	0.134162
C40	C	1.051127	-0.576030	0.634162
C41	C	0.551273	-0.971537	0.026742
C42	C	1.051273	-0.471537	0.526742
C43	C	0.448409	-0.969532	0.027328
C44	C	0.948409	-0.469532	0.527328
C45	C	0.310257	-0.989043	0.114596
C46	C	0.810257	-0.489043	0.614596
C47	C	0.689888	-0.989106	0.114582
C48	C	1.189888	-0.489106	0.614582
C49	C	0.000070	-0.995213	-0.038495
C50	C	0.500070	-0.495213	0.461505
C51	C	0.000063	-0.993581	-0.131448
C52	C	0.500063	-0.493581	0.368552
C53	C	0.000082	-1.142152	0.108479
C54	C	0.500082	-0.642152	0.608479
C55	C	0.000083	-1.235102	0.110130
C56	C	0.500083	-0.735102	0.610130
C57	C	0.000073	-0.405288	0.113120
C58	C	0.500073	0.094712	0.613120
C59	C	0.000402	-0.452742	0.021566
C60	C	0.500402	0.047258	0.521566
C61	C	0.000063	-0.549431	0.023218
C62	C	0.500063	-0.049431	0.523218
C63	C	0.000065	-0.572848	0.116063
C64	C	0.500065	-0.072848	0.616063
C65	C	-0.084198	-0.531770	0.161216
C66	C	0.415802	-0.031770	0.661216
C67	C	-0.084263	-0.435135	0.158916
C68	C	0.415737	0.064865	0.658916
C69	C	0.083546	-0.434759	0.160816
C70	C	0.583546	0.065241	0.660816
C71	C	0.084654	-0.531705	0.160795
C72	C	0.584654	-0.031705	0.660795
C73	C	0.000057	-0.667546	0.117731
C74	C	0.500057	-0.167546	0.617731
C75	C	0.000075	-0.310591	0.111455
C76	C	0.500075	0.189409	0.611455
C77	C	0.000071	-0.987580	-0.469186
C78	C	0.500071	-0.487580	0.030814
C79	C	0.000407	-1.080384	-0.445874
C80	C	0.500407	-0.580384	0.054126
C81	C	0.000071	-1.082148	-0.349199
C82	C	0.500071	-0.582148	0.150801
C83	C	0.000067	-0.990557	-0.301631
C84	C	0.500067	-0.490557	0.198369
C85	C	-0.084200	-0.944178	-0.330736
C86	C	0.415800	-0.444178	0.169264
C87	C	-0.084268	-0.943061	-0.427526
C88	C	0.415732	-0.443061	0.072474
C89	C	0.083541	-0.941129	-0.427375
C90	C	0.583541	-0.441129	0.072625
C91	C	0.084652	-0.944568	-0.330883
C92	C	0.584652	-0.444568	0.169117
C93	C	0.000062	-0.992235	-0.206934
C94	C	0.500062	-0.492235	0.293066
C95	C	0.000069	-0.985899	-0.563882
C96	C	0.500069	-0.485899	-0.063882
C97	C	0.000074	-0.982924	0.267678
C98	C	0.500074	-0.482924	0.767678
C99	C	0.000075	-0.984556	0.360631
C100	C	0.500075	-0.484556	0.860631
H101	H	0.423522	-0.855278	0.172021
H102	H	0.923522	-0.355278	0.672021
H103	H	0.423803	-1.129011	0.085070
H104	H	0.923803	-0.629011	0.585070
C105	C	0.585016	-0.832047	0.168047
C106	C	1.085016	-0.332047	0.668047
H107	H	0.622225	-0.836610	0.119804
H108	H	1.122225	-0.336610	0.619804
H109	H	0.535817	-0.796962	0.159296
H110	H	1.035817	-0.296962	0.659296
H111	H	0.617666	-0.808278	0.215730
H112	H	1.117666	-0.308278	0.715730
H113	H	0.084117	-0.402984	0.228319
H114	H	0.584117	0.097016	0.728319
H115	H	0.089745	-0.547054	0.228500
H116	H	0.589745	-0.047054	0.728500
H117	H	0.575594	-1.021878	-0.024276
H118	H	1.075594	-0.521878	0.475724
H119	H	0.575110	-1.091499	0.198225
H120	H	1.075110	-0.591499	0.698225
H121	H	-0.059681	-1.115969	-0.474895
H122	H	0.440319	-0.615969	0.025105
C123	C	-0.081672	-1.131533	-0.324332
C124	C	0.418328	-0.631533	0.175668
H125	H	-0.114809	-1.150588	-0.373343
H126	H	0.385191	-0.650588	0.126657
H127	H	-0.062885	-1.178515	-0.297502
H128	H	0.437115	-0.678515	0.202498
H129	H	-0.117768	-1.095953	-0.286818
H130	H	0.382232	-0.595953	0.213182
C131	C	-0.168921	-0.570120	0.118848
C132	C	0.331079	-0.070120	0.618848
H133	H	-0.219560	-0.544857	0.146624
H134	H	0.280440	-0.044857	0.646624
H135	H	-0.169681	-0.560164	0.061424
H136	H	0.330319	-0.060164	0.561424
H137	H	-0.169794	-0.629004	0.122370
H138	H	0.330206	-0.129004	0.622370
H139	H	0.060476	-1.118472	-0.330170
H140	H	0.560476	-0.618472	0.169830
C141	C	-0.080775	-0.426299	-0.027656
C142	C	0.419225	0.073701	0.472344
H143	H	-0.114868	-0.386468	0.007348
H144	H	0.385132	0.113532	0.507348
H145	H	-0.061397	-0.401762	-0.075853
H146	H	0.438603	0.098238	0.424147
H147	H	-0.116152	-0.474357	-0.044814
H148	H	0.383848	0.025643	0.455186
H149	H	0.577404	-0.931108	0.247959
H150	H	1.077404	-0.431108	0.747959
H151	H	0.060466	-0.577855	-0.012275
H152	H	0.560466	-0.077855	0.487725
H153	H	0.089738	-0.877715	-0.297913
H154	H	0.589738	-0.377715	0.202087
H155	H	0.060839	-1.116142	-0.473868
H156	H	0.560839	-0.616142	0.026132
H157	H	-0.060446	-0.577310	-0.012521
H158	H	0.439554	-0.077310	0.487479
C159	C	0.584740	-1.147501	0.069274
C160	C	1.084740	-0.647501	0.569274
H161	H	0.535531	-1.176648	0.042738
H162	H	1.035531	-0.676648	0.542738
H163	H	0.619768	-1.124487	0.028128
H164	H	1.119768	-0.624487	0.528128
H165	H	0.619646	-1.185471	0.096933
H166	H	1.119646	-0.685471	0.596933
C167	C	0.169829	-0.407010	0.120389
C168	C	0.669829	0.092990	0.620389
H169	H	0.155749	-0.377190	0.074037
H170	H	0.655749	0.122810	0.574037
H171	H	0.202729	-0.371523	0.160794
H172	H	0.702729	0.128477	0.660794
H173	H	0.204232	-0.455204	0.101374
H174	H	0.704232	0.044796	0.601374
C175	C	0.415482	-0.935357	0.271447
C176	C	0.915482	-0.435357	0.771447
H177	H	0.464836	-0.941444	0.307204
H178	H	0.964836	-0.441444	0.807204
H179	H	0.380501	-0.888854	0.294197
H180	H	0.880501	-0.388854	0.794197
H181	H	0.380604	-0.985133	0.267268
H182	H	0.880604	-0.485133	0.767268
C183	C	0.413469	-1.097815	0.219232
C184	C	0.913469	-0.597815	0.719232
H185	H	0.376221	-1.053629	0.243433
H186	H	0.876221	-0.553629	0.743433
H187	H	0.380597	-1.148776	0.211341
H188	H	0.880597	-0.648776	0.711341
H189	H	0.462129	-1.104223	0.255715
H190	H	0.962129	-0.604223	0.755715
H191	H	-0.146908	-0.976411	-0.310678
H192	H	0.353092	-0.476411	0.189322
H193	H	0.577259	-0.909218	0.008392
H194	H	1.077259	-0.409218	0.508392
H195	H	0.147416	-0.970342	-0.455461
H196	H	0.647416	-0.470342	0.044539
H197	H	0.424032	-0.905268	0.012846
H198	H	0.924032	-0.405268	0.512846
H199	H	0.422704	-1.016546	-0.026079
H200	H	0.922704	-0.516546	0.473921
H201	H	0.146991	-0.559015	0.127833
H202	H	0.646991	-0.059015	0.627833
C203	C	0.082032	-0.427709	-0.027872
C204	C	0.582032	0.072291	0.472128
H205	H	0.116643	-0.388088	0.006876
H206	H	0.616643	0.111912	0.506876
H207	H	0.116727	-0.476288	-0.044705
H208	H	0.616727	0.023712	0.455295
H209	H	0.063083	-0.403285	-0.076282
H210	H	0.563083	0.096715	0.423718
H211	H	-0.147256	-0.975207	-0.454346
H212	H	0.352744	-0.475207	0.045654
H213	H	-0.087336	-0.876780	-0.298868
H214	H	0.412664	-0.376780	0.201132
C215	C	-0.169350	-0.410425	0.114420
C216	C	0.330650	0.089575	0.614420
H217	H	-0.203549	-0.459425	0.097913
H218	H	0.296451	0.040575	0.597913
H219	H	-0.203038	-0.372450	0.151827
H220	H	0.296962	0.127550	0.651827
H221	H	-0.153951	-0.384171	0.066053
H222	H	0.346049	0.115829	0.566053
C223	C	-0.089451	-0.391548	0.249715
C224	C	0.410549	0.108452	0.749715
H225	H	-0.091516	-0.432924	0.287843
H226	H	0.408484	0.067076	0.787843
H227	H	-0.038641	-0.357019	0.261276
H228	H	0.461359	0.142981	0.761276
H229	H	-0.141419	-0.357822	0.256045
H230	H	0.358581	0.142178	0.756045
H231	H	-0.088088	-0.875016	-0.442077
H232	H	0.411912	-0.375016	0.057923
H233	H	-0.087331	-0.545881	0.229427
H234	H	0.412669	-0.045881	0.729427
H235	H	0.146992	-0.978340	-0.312314
H236	H	0.646992	-0.478340	0.187686
H237	H	0.084106	-0.872818	-0.441366
H238	H	0.584106	-0.372818	0.058634
