data_functionalizedCrystal
_audit_creation_method	'MofGen! by Chris Wilmer'
_symmetry_space_group_name_H-M	'P1'
_symmetry_Int_Tables_number	1
_symmetry_cell_setting	triclinic
loop_
_symmetry_equiv_pos_as_xyz
  x,y,z
_cell_length_a	15.995350
_cell_length_b	15.072220
_cell_length_c	19.288865
_cell_angle_alpha	89.993617
_cell_angle_beta	96.685689
_cell_angle_gamma	90.008851
loop_
_atom_site_label
_atom_site_type_symbol
_atom_site_fract_x
_atom_site_fract_y
_atom_site_fract_z
O1	O	1.110658	0.073718	-0.089526
O2	O	0.866841	0.073737	-0.100582
O3	O	0.995795	0.073709	0.006058
O4	O	0.981705	0.073746	-0.196166
O5	O	0.995763	-0.073856	0.006052
O6	O	0.866809	-0.073828	-0.100588
O7	O	1.110626	-0.073847	-0.089532
Zn8	Zn	0.988713	-0.097267	-0.095061
Zn9	Zn	0.988755	0.097157	-0.095053
O10	O	0.981673	-0.073819	-0.196172
C11	C	0.835632	-0.000043	-0.100128
C12	C	0.742687	-0.000036	-0.098757
N13	N	0.988690	-0.229955	-0.095066
C14	C	0.404958	-0.000056	-0.093836
C15	C	0.452679	-0.000398	-0.017889
C16	C	0.549364	-0.000059	-0.019260
C17	C	0.572509	-0.000047	-0.096277
C18	C	0.531299	0.084224	-0.133734
C19	C	0.434671	0.084288	-0.131826
C20	C	0.434290	-0.083521	-0.133402
C21	C	0.531235	-0.084629	-0.133384
C22	C	0.667202	-0.000038	-0.097661
C23	C	0.310266	-0.000058	-0.092455
C24	C	0.988753	-0.589157	-0.095050
C25	C	0.919522	-0.551535	-0.151920
C26	C	0.919680	-0.448709	-0.152127
C27	C	0.988721	-0.410953	-0.095058
C28	C	1.076026	-0.448248	-0.110887
C29	C	1.075638	-0.551106	-0.111291
C30	C	0.971458	-0.551269	-0.022183
C31	C	0.969452	-0.448405	-0.022669
C32	C	0.988709	-0.310240	-0.095061
C33	C	0.988771	-0.689870	-0.095049
C34	C	1.141835	-0.000065	-0.089986
C35	C	1.234781	-0.000066	-0.091356
C36	C	0.995326	-0.000076	0.031933
C37	C	0.993965	-0.000083	0.109040
N38	N	0.988784	0.229846	-0.095043
C39	C	0.982142	-0.000032	-0.222047
C40	C	0.983503	-0.000019	-0.299154
C41	C	1.069629	-0.000094	0.153540
C42	C	1.068350	-0.000080	0.225990
C43	C	0.991403	-0.000073	0.253937
C44	C	0.915729	-0.000058	0.209428
C45	C	0.917010	-0.000063	0.136979
C46	C	0.930903	-0.051757	0.362380
C47	C	0.929625	-0.051757	0.434828
C48	C	0.987450	-0.000053	0.477393
C49	C	1.046566	0.051640	0.447504
C50	C	1.047847	0.051635	0.375055
C51	C	0.990006	-0.000067	0.332495
C52	C	1.061733	-0.000047	0.600453
C53	C	1.060451	-0.000027	0.672904
C54	C	0.907827	-0.000014	0.656340
C55	C	0.909111	-0.000024	0.583890
C56	C	0.986066	-0.000045	0.555951
H57	H	0.577891	-0.060468	0.010183
H58	H	0.853078	-0.000050	0.232187
C59	C	0.867294	-0.108641	0.315561
C60	C	0.868701	-0.108651	0.235870
C61	C	0.805095	-0.165533	0.189053
C62	C	0.740082	-0.222405	0.221927
C63	C	0.738672	-0.222397	0.301622
C64	C	0.802278	-0.165515	0.348439
H65	H	0.916829	-0.066549	0.211531
H66	H	0.806139	-0.165539	0.130057
H67	H	0.692997	-0.264512	0.187270
H68	H	0.690544	-0.264499	0.325961
H69	H	0.801234	-0.165510	0.407435
C70	C	0.427780	-0.082035	0.023122
C71	C	0.443846	-0.176060	-0.003610
C72	C	0.418936	-0.257697	0.037401
C73	C	0.377960	-0.245310	0.105144
C74	C	0.361891	-0.151282	0.131880
C75	C	0.386802	-0.069644	0.090869
H76	H	0.474181	-0.185233	-0.053761
H77	H	0.430830	-0.327304	0.017609
H78	H	0.359520	-0.305744	0.135503
H79	H	0.331557	-0.142109	0.182031
H80	H	0.374907	-0.000038	0.110660
H81	H	0.930695	-0.424087	-0.206201
C82	C	0.426382	0.080774	0.022944
C83	C	0.361823	0.147276	-0.012371
C84	C	0.335526	0.228449	0.028460
C85	C	0.373787	0.243121	0.104604
C86	C	0.438349	0.176618	0.139923
C87	C	0.464647	0.095444	0.099092
H88	H	0.333496	0.136416	-0.068741
H89	H	0.287732	0.277680	0.002314
H90	H	0.354320	0.303211	0.134830
H91	H	0.466676	0.187477	0.196293
H92	H	0.512441	0.046213	0.125238
H93	H	0.855393	-0.000055	0.100746
H94	H	1.016622	-0.422708	0.021633
C95	C	0.831998	-0.414634	-0.139397
C96	C	0.781038	-0.356059	-0.194487
C97	C	0.693352	-0.321987	-0.181760
C98	C	0.656626	-0.346491	-0.113943
C99	C	0.707587	-0.405070	-0.058849
C100	C	0.795273	-0.439142	-0.071576
H101	H	0.808223	-0.337916	-0.244693
H102	H	0.655627	-0.278623	-0.222545
H103	H	0.591716	-0.321269	-0.104522
H104	H	0.680402	-0.423212	-0.008643
H105	H	0.832998	-0.482506	-0.030791
C106	C	0.823181	-0.000010	0.687070
C107	C	0.801296	-0.076634	0.734605
C108	C	0.716647	-0.076629	0.765337
C109	C	0.653882	0.000000	0.748534
C110	C	0.675766	0.076630	0.700997
C111	C	0.760416	0.076624	0.670265
H112	H	0.847759	-0.133364	0.747046
H113	H	0.700447	-0.133355	0.800528
H114	H	0.591220	0.000004	0.771284
H115	H	0.629303	0.133360	0.688556
H116	H	0.776615	0.133351	0.635074
H117	H	0.577346	0.060444	0.010387
H118	H	0.545211	0.087366	-0.190316
H119	H	0.413834	-0.147396	-0.108575
H120	H	0.416479	0.147272	-0.104506
H121	H	1.093652	0.093744	0.482160
H122	H	0.558641	-0.146971	-0.106041
C123	C	0.390815	0.089493	-0.207148
C124	C	0.443752	0.093581	-0.268840
C125	C	0.399901	0.098801	-0.344160
C126	C	0.303114	0.099932	-0.357787
C127	C	0.250172	0.095844	-0.296093
C128	C	0.294022	0.090624	-0.220773
H129	H	0.515404	0.092744	-0.258754
H130	H	0.439092	0.101828	-0.389830
H131	H	0.270653	0.103796	-0.413543
H132	H	0.178519	0.096681	-0.306179
H133	H	0.254831	0.087597	-0.175103
C134	C	1.112862	0.108504	0.342175
C135	C	1.176470	0.165383	0.388985
C136	C	1.241481	0.222256	0.356104
C137	C	1.242885	0.222251	0.276413
C138	C	1.179275	0.165369	0.229598
C139	C	1.114263	0.108496	0.262478
H140	H	1.175433	0.165389	0.447982
H141	H	1.288570	0.264364	0.390760
H142	H	1.291011	0.264352	0.252072
H143	H	1.180312	0.165363	0.170601
H144	H	1.067174	0.066388	0.227822
C145	C	0.569763	0.168941	-0.098576
C146	C	0.638510	0.161831	-0.035932
C147	C	0.676968	0.246545	-0.000766
C148	C	0.646678	0.338370	-0.028245
C149	C	0.577927	0.345484	-0.090893
C150	C	0.539469	0.260769	-0.126058
H151	H	0.660936	0.093853	-0.015587
H152	H	0.727862	0.241278	0.045610
H153	H	0.675147	0.401081	-0.002214
H154	H	0.555501	0.413461	-0.111238
H155	H	0.488575	0.266036	-0.172434
C156	C	0.391096	-0.084289	-0.209047
C157	C	0.444594	-0.081671	-0.270426
C158	C	0.401396	-0.082432	-0.346067
C159	C	0.304700	-0.085810	-0.360329
C160	C	0.251197	-0.088428	-0.298948
C161	C	0.294395	-0.087668	-0.223307
H162	H	0.516179	-0.079170	-0.259870
H163	H	0.441003	-0.080494	-0.391505
H164	H	0.272723	-0.086373	-0.416323
H165	H	0.179612	-0.090929	-0.309504
H166	H	0.254788	-0.089606	-0.177868
C167	C	0.934227	-0.586370	-0.224569
C168	C	1.008760	-0.648772	-0.232433
C169	C	1.023485	-0.683583	-0.305084
C170	C	0.963677	-0.655992	-0.369870
C171	C	0.889140	-0.593586	-0.362008
C172	C	0.874415	-0.558775	-0.289357
H173	H	1.053037	-0.669200	-0.184472
H174	H	1.078663	-0.729780	-0.310903
H175	H	0.974578	-0.681761	-0.423650
H176	H	0.844862	-0.573159	-0.409968
H177	H	0.819237	-0.512579	-0.283537
H178	H	0.854407	-0.576293	-0.142644
H179	H	0.905231	-0.424030	-0.010656
H180	H	1.090920	-0.575079	-0.164433
H181	H	0.546387	-0.089709	-0.189547
H182	H	1.128749	-0.575991	-0.071503
H183	H	1.128763	-0.423790	-0.070568
H184	H	1.021948	-0.575598	0.020138
H185	H	1.091680	-0.422471	-0.163423
H186	H	1.132291	-0.000108	0.130797
C187	C	0.887325	-0.586343	-0.001630
C188	C	0.833248	-0.649848	-0.050756
C189	C	0.749110	-0.684923	-0.030213
C190	C	0.719050	-0.656493	0.039457
C191	C	0.773128	-0.592984	0.088587
C192	C	0.857266	-0.557909	0.068044
H193	H	0.855499	-0.670897	-0.102334
H194	H	0.709079	-0.731937	-0.066583
H195	H	0.656767	-0.682457	0.054664
H196	H	0.750877	-0.571934	0.140165
H197	H	0.897297	-0.510895	0.104414
C198	C	1.151585	-0.000095	0.274952
C199	C	1.150174	-0.000091	0.354642
C200	C	1.233408	-0.000107	0.403602
C201	C	1.318054	-0.000128	0.372870
C202	C	1.319468	-0.000132	0.293176
C203	C	1.236234	-0.000116	0.244216
H204	H	1.087512	-0.000075	0.377395
H205	H	1.232361	-0.000104	0.462597
H206	H	1.379669	-0.000140	0.409113
H207	H	1.382130	-0.000148	0.270423
H208	H	1.237281	-0.000120	0.185221
C209	C	0.825878	-0.000029	0.534935
C210	C	0.741236	-0.000024	0.565671
C211	C	0.657998	-0.000028	0.516716
C212	C	0.659404	-0.000036	0.437024
C213	C	0.744049	-0.000041	0.406285
C214	C	0.827287	-0.000037	0.455240
H215	H	0.740193	-0.000018	0.624667
H216	H	0.595338	-0.000024	0.539472
H217	H	0.597786	-0.000038	0.400785
H218	H	0.745093	-0.000047	0.347289
H219	H	0.889947	-0.000041	0.432484
H220	H	1.124394	-0.000059	0.577704
H221	H	1.122068	-0.000031	0.709136
H222	H	0.881485	-0.093844	0.459157
