data_functionalizedCrystal
_audit_creation_method	'MofGen! by Chris Wilmer'
_symmetry_space_group_name_H-M	'P1'
_symmetry_Int_Tables_number	1
_symmetry_cell_setting	triclinic
loop_
_symmetry_equiv_pos_as_xyz
  x,y,z
_cell_length_a	10.489716
_cell_length_b	10.489711
_cell_length_c	9.565339
_cell_angle_alpha	89.997155
_cell_angle_beta	89.996907
_cell_angle_gamma	84.528072
loop_
_atom_site_label
_atom_site_type_symbol
_atom_site_fract_x
_atom_site_fract_y
_atom_site_fract_z
O1	O	1.694040	0.179815	0.116236
O2	O	1.322838	0.196741	0.116240
O3	O	1.516905	0.002677	0.116242
O4	O	1.499973	0.373879	0.116234
O5	O	1.516914	0.002683	-0.116278
O6	O	1.322847	0.196747	-0.116280
O7	O	1.694049	0.179821	-0.116284
Zn8	Zn	1.508449	0.188285	-0.153199
Zn9	Zn	1.508438	0.188277	0.153156
O10	O	1.499981	0.373885	-0.116286
C11	C	1.275311	0.195472	-0.000019
C12	C	1.133680	0.191667	-0.000017
C13	C	1.515639	-0.044852	-0.000014
C14	C	1.511837	-0.186483	-0.000002
C15	C	1.628543	-0.368880	-0.000018
C16	C	1.570251	-0.276728	-0.114660
C17	C	1.570211	-0.276758	0.114586
C18	C	1.446707	-0.346668	-0.114767
C19	C	1.446684	-0.346707	0.114583
C20	C	1.388302	-0.254583	-0.000088
C21	C	1.035994	0.310673	-0.000016
C22	C	0.958659	0.247791	-0.114666
C23	C	0.958657	0.247757	0.114581
C24	C	1.058211	0.128835	-0.114761
C25	C	1.058214	0.128818	0.114588
C26	C	0.980928	0.065849	-0.000089
C27	C	1.741576	0.181090	-0.000022
C28	C	1.883207	0.184895	-0.000014
C29	C	1.501248	0.421414	-0.000026
C30	C	1.505050	0.563045	-0.000029
N31	N	1.508466	0.188289	-0.362279
C32	C	1.598245	0.098547	-0.453444
C33	C	1.482750	0.072722	-0.546612
C34	C	1.623914	0.214031	-0.546666
C35	C	1.392913	0.162407	-0.453395
C36	C	1.534154	0.303766	-0.453441
C37	C	1.418577	0.277989	-0.546567
N38	N	1.508431	0.188263	0.362235
H39	H	1.730045	-0.418579	-0.000132
C40	C	0.900607	0.314535	-0.244014
C41	C	0.837881	0.227313	-0.323316
C42	C	0.784400	0.288757	-0.442478
H43	H	0.840941	0.383853	-0.216624
H44	H	0.966556	0.346044	-0.298461
H45	H	0.771940	0.195823	-0.268879
H46	H	0.897520	0.157992	-0.350741
H47	H	0.850349	0.320267	-0.496925
H48	H	0.724740	0.358074	-0.415075
H49	H	0.741844	0.229584	-0.496305
H50	H	1.101536	0.078629	-0.211784
H51	H	1.622508	-0.245743	-0.211584
C52	C	0.900841	0.314965	0.243777
C53	C	0.928293	0.442995	0.243240
C54	C	0.875081	0.504947	0.362240
H55	H	0.810683	0.311501	0.243432
H56	H	0.936304	0.273614	0.325218
H57	H	0.892825	0.484335	0.161821
H58	H	1.018441	0.446496	0.243607
H59	H	0.910544	0.463596	0.443681
H60	H	0.784926	0.501474	0.361885
H61	H	0.893710	0.591819	0.361899
C62	C	0.948304	-0.072260	0.000137
C63	C	0.877631	-0.094741	0.120336
C64	C	0.847579	-0.221957	0.120602
H65	H	0.899069	-0.087431	-0.080471
H66	H	1.025106	-0.128141	-0.000585
H67	H	0.800841	-0.038878	0.121046
H68	H	0.926842	-0.079598	0.200963
H69	H	0.924380	-0.277837	0.119880
H70	H	0.798348	-0.237116	0.039989
H71	H	0.799634	-0.237230	0.202161
C72	C	1.377279	-0.388036	0.243990
C73	C	1.442360	-0.353022	0.363712
C74	C	1.378482	-0.391092	0.482957
H75	H	1.292413	-0.347347	0.245009
H76	H	1.374687	-0.478315	0.242658
H77	H	1.444937	-0.262761	0.365044
H78	H	1.527222	-0.393707	0.362738
H79	H	1.375891	-0.481370	0.481625
H80	H	1.293618	-0.350400	0.483963
H81	H	1.422637	-0.367351	0.564202
H82	H	1.101712	0.078617	0.211521
C83	C	1.376950	-0.387882	-0.243982
C84	C	1.270069	-0.449211	-0.203220
C85	C	1.205792	-0.487210	-0.322212
H86	H	1.349820	-0.314745	-0.298744
H87	H	1.432981	-0.445219	-0.297580
H88	H	1.214049	-0.391878	-0.149645
H89	H	1.297163	-0.522363	-0.148475
H90	H	1.261822	-0.544547	-0.375810
H91	H	1.178670	-0.414066	-0.376966
H92	H	1.133273	-0.528836	-0.294572
H93	H	1.286710	-0.205109	-0.000150
H94	H	1.674094	0.022616	-0.412554
H95	H	1.622482	-0.245805	0.211506
H96	H	1.060652	0.414191	-0.000125
H97	H	1.342555	0.353874	-0.587198
C98	C	1.453538	-0.057504	-0.600997
C99	C	1.333525	-0.085073	-0.551680
C100	C	1.306590	-0.205036	-0.601728
H101	H	1.452859	-0.056476	-0.700294
H102	H	1.517350	-0.121215	-0.569077
H103	H	1.269729	-0.021379	-0.583608
H104	H	1.334174	-0.086128	-0.452389
H105	H	1.370402	-0.268747	-0.569808
H106	H	1.305917	-0.203996	-0.701024
H107	H	1.225165	-0.223762	-0.568264
H108	H	1.295242	0.140512	-0.412598
C109	C	1.563287	0.434019	-0.399089
C110	C	1.582564	0.514762	-0.512150
C111	C	1.609438	0.634754	-0.462134
H112	H	1.493357	0.470255	-0.344475
H113	H	1.638394	0.424408	-0.343097
H114	H	1.507466	0.524376	-0.568119
H115	H	1.652498	0.478567	-0.566776
H116	H	1.684544	0.625143	-0.406141
H117	H	1.539503	0.670977	-0.407519
H118	H	1.622532	0.689548	-0.538837
C119	C	1.754244	0.242947	-0.601036
C120	C	1.847876	0.148739	-0.553790
C121	C	1.967959	0.175350	-0.603798
H122	H	1.753297	0.243497	-0.700334
H123	H	1.773146	0.324353	-0.567682
H124	H	1.828980	0.067355	-0.587152
H125	H	1.848865	0.148174	-0.454498
H126	H	1.986860	0.256756	-0.570444
H127	H	1.966998	0.175900	-0.703095
H128	H	2.031504	0.111442	-0.571739
