data_functionalizedCrystal
_audit_creation_method	'MofGen! by Chris Wilmer'
_symmetry_space_group_name_H-M	'P1'
_symmetry_Int_Tables_number	1
_symmetry_cell_setting	triclinic
loop_
_symmetry_equiv_pos_as_xyz
  x,y,z
_cell_length_a	12.759401
_cell_length_b	12.759400
_cell_length_c	12.759393
_cell_angle_alpha	90.030447
_cell_angle_beta	90.018496
_cell_angle_gamma	90.013326
loop_
_atom_site_label
_atom_site_type_symbol
_atom_site_fract_x
_atom_site_fract_y
_atom_site_fract_z
Zn1	Zn	1.606267	-0.418200	0.593990
Zn2	Zn	1.606166	-0.593919	0.418313
Zn3	Zn	1.430569	-0.418255	0.418329
Zn4	Zn	1.430562	-0.593838	0.593955
O5	O	1.518391	-0.506053	0.506147
O6	O	1.753274	-0.441520	0.570694
O7	O	1.582833	-0.570673	0.271294
O8	O	1.453920	-0.271226	0.441652
O9	O	1.753200	-0.570620	0.441625
O10	O	1.583005	-0.271186	0.570709
O11	O	1.453822	-0.441614	0.271306
O12	O	1.283547	-0.441535	0.441618
O13	O	1.453909	-0.570482	0.740980
O14	O	1.283542	-0.570536	0.570649
O15	O	1.582998	-0.441442	0.741006
O16	O	1.582826	-0.740929	0.441591
O17	O	1.453811	-0.740870	0.570634
C18	C	1.245423	-0.506033	0.506132
C19	C	1.128647	-0.506050	0.506151
C20	C	1.073810	-0.573328	0.573227
C21	C	0.964086	-0.573342	0.573238
C22	C	0.964045	-0.438796	0.439089
C23	C	1.073767	-0.438778	0.439084
C24	C	1.073832	-0.651010	0.650673
C25	C	0.964108	-0.651024	0.650685
C26	C	1.518336	-0.779020	0.506130
C27	C	1.518408	-0.895797	0.506158
C28	C	1.585589	-0.950558	0.573413
C29	C	1.585638	-1.060282	0.573439
C30	C	1.451322	-1.060474	0.438945
C31	C	1.451269	-0.950752	0.438926
C32	C	1.663138	-0.950448	0.651059
C33	C	1.663187	-1.060172	0.651084
C34	C	1.792424	-0.506073	0.506161
C35	C	1.909201	-0.506082	0.506168
C36	C	1.518464	-0.505947	0.780180
C37	C	1.518496	-0.505902	0.896957
C38	C	1.518475	-0.232019	0.506186
C39	C	1.518510	-0.115243	0.506203
C40	C	1.518378	-0.506083	0.233179
C41	C	1.518550	-0.505832	0.116403
C42	C	1.585722	-0.438704	0.951834
C43	C	1.585747	-0.438666	1.061558
C44	C	1.451316	-0.573033	1.061518
C45	C	1.451287	-0.573064	0.951796
C46	C	1.663337	-0.361131	0.951858
C47	C	1.663362	-0.361093	1.061582
H48	H	0.919349	-0.384025	0.384487
O49	O	1.770994	-1.099586	0.622314
H50	H	1.792191	-1.070620	0.543094
H51	H	1.118412	-0.383987	0.384472
O52	O	1.624552	-1.105214	0.753445
H53	H	1.687108	-1.154102	0.788972
H54	H	0.930109	-0.621980	0.728036
O55	O	1.378726	-0.645487	0.892602
H56	H	1.331989	-0.692170	0.949171
O57	O	1.113332	-0.622254	0.758495
H58	H	1.045653	-0.608180	0.811285
O59	O	1.765515	-0.905315	0.612524
H60	H	1.761248	-0.818444	0.614086
O61	O	1.118906	-0.753335	0.611892
H62	H	1.054070	-0.807602	0.591341
H63	H	0.934314	-0.732373	0.628754
H64	H	1.396595	-0.627712	1.106182
H65	H	1.396556	-0.906166	0.384171
O66	O	1.634502	-0.253362	0.912424
H67	H	1.620396	-0.200576	0.980136
O68	O	1.378925	-1.119745	0.366415
H69	H	1.390254	-1.205242	0.377719
H70	H	1.641291	-0.920630	0.732406
O71	O	1.765694	-0.399748	0.906758
H72	H	1.819986	-0.420192	0.971581
H73	H	1.634247	-0.283784	1.095628
H74	H	1.744733	-0.382886	1.091361
