data_functionalizedCrystal
_audit_creation_method	'MofGen! by Chris Wilmer'
_symmetry_space_group_name_H-M	'P1'
_symmetry_Int_Tables_number	1
_symmetry_cell_setting	triclinic
loop_
_symmetry_equiv_pos_as_xyz
  x,y,z
_cell_length_a	14.446369
_cell_length_b	14.560438
_cell_length_c	14.560438
_cell_angle_alpha	60.001909
_cell_angle_beta	59.998281
_cell_angle_gamma	90.001320
loop_
_atom_site_label
_atom_site_type_symbol
_atom_site_fract_x
_atom_site_fract_y
_atom_site_fract_z
Zr1	Zr	0.891772	-0.120473	1.005224
O2	O	0.743962	-0.267121	1.196830
O3	O	0.937083	-0.075520	0.813622
O4	O	0.937083	-0.267117	1.005219
O5	O	0.743964	0.075615	1.005236
O6	O	1.089420	-0.267112	1.005211
O7	O	0.743963	-0.075523	1.005233
O8	O	1.089421	0.075621	0.662478
O9	O	0.743963	-0.267118	1.347968
O10	O	1.070096	-0.056341	0.892423
O11	O	0.956409	0.056448	0.892431
O12	O	0.956408	-0.169133	1.118012
O13	O	0.842721	-0.056345	1.118021
Zr14	Zr	1.134733	0.120584	1.005215
Zr15	Zr	1.134732	-0.120464	1.005211
Zr16	Zr	0.891773	0.120575	1.005228
Zr17	Zr	0.891773	-0.120468	1.246272
Zr18	Zr	1.134733	0.120580	0.764167
O19	O	1.089422	0.075631	1.196817
O20	O	1.089420	-0.267108	1.196812
O21	O	0.743964	0.075619	1.196836
O22	O	1.282543	0.267232	0.813609
O23	O	1.282541	-0.075507	0.813603
O24	O	0.937085	0.267220	0.813628
O25	O	1.282542	-0.075503	1.005204
O26	O	1.089423	0.267229	1.005220
O27	O	0.937086	0.267223	1.005228
O28	O	1.282543	0.075635	1.005206
O29	O	0.937083	-0.267111	1.347958
O30	O	1.089422	0.267222	0.662481
O31	O	1.282543	0.267229	0.662471
O32	O	1.282542	0.075628	0.662468
O33	O	0.743964	-0.075517	1.347972
O34	O	0.937084	-0.075510	1.347961
O35	O	1.070097	0.169245	0.892427
O36	O	1.183784	0.056456	0.892419
O37	O	1.070096	-0.056336	1.118008
O38	O	0.956410	0.056452	1.118016
C39	C	0.709347	0.000045	1.005236
C40	C	0.606204	0.000041	1.005242
C41	C	1.013252	0.000050	0.703706
C42	C	1.013252	0.000048	0.601375
C43	C	1.013254	0.301570	1.005225
C44	C	1.013255	0.403901	1.005226
C45	C	0.387835	-0.070739	1.147506
C46	C	0.495067	-0.071137	1.147602
C47	C	0.602880	-0.051850	0.934569
C48	C	0.495111	-0.052369	0.935472
C49	C	0.496475	0.122802	0.932545
C50	C	0.602445	0.122609	0.935227
C51	C	1.317159	0.000067	1.005203
C52	C	1.420302	0.000071	1.005197
C53	C	1.013251	-0.301459	1.005215
C54	C	1.013251	-0.403790	1.005213
C55	C	0.953913	0.393103	1.122980
C56	C	0.953907	0.489258	1.122974
C57	C	1.072595	0.607006	0.887451
C58	C	1.072593	0.510852	0.887458
C59	C	1.072593	-0.058826	0.553294
C60	C	1.072597	-0.058816	0.457135
C61	C	0.953911	0.058945	0.457149
C62	C	0.953914	0.058941	0.553300
C63	C	1.013253	0.000062	1.306733
C64	C	1.013254	0.000063	1.409064
C65	C	1.317158	0.000061	0.703689
C66	C	1.420301	0.000063	0.601353
C67	C	1.013254	0.301565	0.703711
C68	C	1.013254	0.403894	0.601382
C69	C	1.317160	0.301576	0.703694
C70	C	1.420303	0.403909	0.601359
C71	C	0.709346	-0.301464	1.306745
C72	C	0.606202	-0.403797	1.409080
C73	C	0.709347	0.000050	1.306750
C74	C	0.606205	0.000049	1.409087
C75	C	1.013252	-0.301453	1.306728
C76	C	1.013251	-0.403782	1.409058
C77	C	1.409417	-0.058812	0.553274
C78	C	1.506334	-0.058815	0.457126
C79	C	1.625017	0.058943	0.457139
C80	C	1.528101	0.058938	0.553292
C81	C	1.072597	0.510847	0.553303
C82	C	1.072585	0.606993	0.457163
C83	C	0.953884	0.489218	0.457185
C84	C	0.953891	0.393075	0.553330
C85	C	1.528103	0.393113	0.553276
C86	C	1.625014	0.489270	0.457130
C87	C	1.506309	0.607014	0.457156
C88	C	1.409402	0.510858	0.553306
H89	H	0.493307	-0.036600	1.203333
H90	H	1.497462	-0.106759	0.417987
C91	C	1.494330	0.724664	0.404277
N92	N	1.485305	0.813279	0.364446
H93	H	0.905583	0.480456	1.218860
H94	H	1.120930	0.519663	0.592429
H95	H	1.321645	-0.106764	0.592414
C96	C	1.137873	0.724642	0.404274
N97	N	1.187053	0.813257	0.364438
C98	C	1.290810	0.522738	0.606211
N99	N	1.201489	0.531684	0.646063
H100	H	0.905555	0.480422	0.418047
C101	C	1.137878	-0.123599	0.606163
N102	N	1.187056	-0.172384	0.645977
H103	H	0.905561	0.305982	0.592479
H104	H	1.712797	0.106879	0.417995
H105	H	1.120920	-0.106755	0.417989
H106	H	1.536972	0.106882	0.592441
H107	H	1.712787	0.480473	0.417984
H108	H	1.536985	0.306034	0.592400
C109	C	0.888624	0.275459	1.252528
N110	N	0.839439	0.186850	1.350108
C111	C	0.888648	0.123728	0.606174
N112	N	0.839500	0.172532	0.645990
H113	H	1.120908	0.694095	0.791568
H114	H	0.332850	-0.160727	1.203085
C115	C	0.314955	-0.023946	1.222959
N116	N	0.260063	0.011307	1.279788
H117	H	0.492620	-0.161672	1.203388
H118	H	0.444766	-0.142683	0.985694
H119	H	0.521765	-0.004129	0.831063
H120	H	1.120916	0.519653	0.791563
H121	H	0.681148	-0.002759	0.829896
H122	H	0.446452	0.166150	0.978080
C123	C	0.605732	-0.172713	1.000901
N124	N	0.607866	-0.263753	1.050876
H125	H	0.601927	0.161374	0.986756
H126	H	0.905598	0.106892	0.417996
H127	H	0.681603	0.179806	0.831366
H128	H	0.523914	0.175810	0.827714
