data_functionalizedCrystal
_audit_creation_method	'MofGen! by Chris Wilmer'
_symmetry_space_group_name_H-M	'P1'
_symmetry_Int_Tables_number	1
_symmetry_cell_setting	triclinic
loop_
_symmetry_equiv_pos_as_xyz
  x,y,z
_cell_length_a	17.699077
_cell_length_b	16.176319
_cell_length_c	19.288865
_cell_angle_alpha	89.987963
_cell_angle_beta	96.791588
_cell_angle_gamma	90.006860
loop_
_atom_site_label
_atom_site_type_symbol
_atom_site_fract_x
_atom_site_fract_y
_atom_site_fract_z
O1	O	1.003958	0.068745	-0.087818
O2	O	1.337292	0.402078	0.245515
O3	O	1.670625	0.735412	0.578849
O4	O	0.783563	0.068750	-0.099250
O5	O	1.116896	0.402084	0.234083
O6	O	1.450230	0.735417	0.567416
O7	O	0.900129	0.068731	0.007589
O8	O	1.233462	0.402065	0.340922
O9	O	1.566796	0.735398	0.674255
O10	O	0.887392	0.068764	-0.194657
O11	O	1.220726	0.402098	0.138676
O12	O	1.554059	0.735431	0.472010
O13	O	0.900113	-0.068762	0.007596
O14	O	1.233446	0.264571	0.340929
O15	O	1.566780	0.597905	0.674262
O16	O	0.783547	-0.068743	-0.099243
O17	O	1.116880	0.264591	0.234090
O18	O	1.450214	0.597924	0.567423
O19	O	1.003942	-0.068748	-0.087811
O20	O	1.337276	0.264585	0.245522
O21	O	1.670609	0.597919	0.578855
Cu22	Cu	0.893743	-0.081300	-0.093527
Cu23	Cu	1.227077	0.252034	0.239807
Cu24	Cu	1.560410	0.585367	0.573140
Cu25	Cu	0.893762	0.081302	-0.093535
Cu26	Cu	1.227095	0.414635	0.239799
Cu27	Cu	1.560429	0.747969	0.573132
O28	O	0.887376	-0.068729	-0.194650
O29	O	1.220710	0.264604	0.138683
O30	O	1.554043	0.597938	0.472016
C31	C	0.755359	0.000004	-0.098838
C32	C	1.088692	0.333338	0.234495
C33	C	1.422025	0.666671	0.567829
C34	C	0.671342	0.000006	-0.097611
C35	C	1.004675	0.333339	0.235722
C36	C	1.338009	0.666672	0.569056
N37	N	0.893735	-0.195665	-0.093521
N38	N	1.227069	0.137668	0.239813
N39	N	1.560402	0.471002	0.573146
C40	C	0.631867	-0.074943	-0.097029
C41	C	0.965200	0.258390	0.236304
C42	C	1.298533	0.591724	0.569637
C43	C	0.552926	-0.074944	-0.095866
C44	C	0.886259	0.258389	0.237468
C45	C	1.219593	0.591723	0.570801
C46	C	0.513461	0.000004	-0.095289
C47	C	0.846794	0.333338	0.238045
C48	C	1.180128	0.666671	0.571378
C49	C	0.552942	0.074959	-0.095868
C50	C	0.886275	0.408292	0.237465
C51	C	1.219609	0.741625	0.570798
C52	C	0.631882	0.074959	-0.097027
C53	C	0.965216	0.408292	0.236306
C54	C	1.298549	0.741625	0.569640
C55	C	0.234585	0.074959	-0.091194
C56	C	0.567919	0.408293	0.242139
C57	C	0.901252	0.741626	0.575473
C58	C	0.155639	0.074953	-0.090037
C59	C	0.488973	0.408287	0.243296
C60	C	0.822306	0.741620	0.576629
C61	C	0.155629	-0.074943	-0.090032
C62	C	0.488962	0.258390	0.243301
C63	C	0.822296	0.591723	0.576634
C64	C	0.234569	-0.074943	-0.091191
C65	C	0.567902	0.258390	0.242142
C66	C	0.901236	0.591723	0.575475
C67	C	0.274044	0.000011	-0.091767
C68	C	0.607377	0.333344	0.241566
C69	C	0.940711	0.666677	0.574899
C70	C	0.359641	0.000011	-0.093028
C71	C	0.692974	0.333344	0.240305
C72	C	1.026307	0.666677	0.573639
C73	C	0.427865	0.000005	-0.094033
C74	C	0.761198	0.333338	0.239300
C75	C	1.094531	0.666672	0.572634
C76	C	0.945366	-0.238938	-0.046232
C77	C	1.278700	0.094396	0.287102
C78	C	1.612033	0.427729	0.620435
C79	C	0.945370	-0.325485	-0.046231
C80	C	1.278703	0.007849	0.287102
C81	C	1.612037	0.341182	0.620436
C82	C	0.893746	-0.368757	-0.093523
C83	C	1.227080	-0.035424	0.239810
C84	C	1.560413	0.297909	0.573144
C85	C	0.842110	-0.325479	-0.140814
C86	C	1.175443	0.007855	0.192519
C87	C	1.508777	0.341188	0.525852
C88	C	0.842103	-0.238933	-0.140811
C89	C	1.175436	0.094400	0.192522
C90	C	1.508770	0.427733	0.525855
C91	C	0.842136	-0.674507	-0.140827
C92	C	1.175469	-0.341174	0.192506
C93	C	1.508802	-0.007840	0.525839
C94	C	0.842148	-0.761059	-0.140828
C95	C	1.175481	-0.427725	0.192505
C96	C	1.508815	-0.094392	0.525838
C97	C	0.945403	-0.761058	-0.046247
C98	C	1.278736	-0.427725	0.287086
C99	C	1.612070	-0.094392	0.620420
C100	C	0.945396	-0.674513	-0.046244
C101	C	1.278729	-0.341180	0.287089
C102	C	1.612063	-0.007846	0.620423
C103	C	0.893757	-0.631242	-0.093532
C104	C	1.227091	-0.297908	0.239801
C105	C	1.560424	0.035425	0.573134
C106	C	0.893753	-0.537398	-0.093532
C107	C	1.227086	-0.204064	0.239802
C108	C	1.560420	0.129269	0.573135
C109	C	0.893754	-0.462600	-0.093528
C110	C	1.227087	-0.129267	0.239806
C111	C	1.560420	0.204067	0.573139
C112	C	1.032147	-0.000000	-0.088224
C113	C	1.365480	0.333333	0.245110
C114	C	1.698813	0.666667	0.578443
C115	C	1.116163	0.000004	-0.089450
C116	C	1.449497	0.333337	0.243883
C117	C	1.782830	0.666671	0.577216
C118	C	0.899711	-0.000018	0.033469
C119	C	1.233045	0.333316	0.366802
C120	C	1.566378	0.666649	0.700136
C121	C	0.898481	-0.000025	0.110574
C122	C	1.231814	0.333308	0.443907
C123	C	1.565148	0.666642	0.777241
N124	N	0.893776	0.195667	-0.093535
N125	N	1.227109	0.529001	0.239798
N126	N	1.560443	0.862334	0.573131
C127	C	0.887794	0.000022	-0.220531
C128	C	1.221127	0.333355	0.112803
C129	C	1.554461	0.666689	0.446136
C130	C	0.889024	0.000035	-0.297636
C131	C	1.222358	0.333368	0.035698
C132	C	1.555691	0.666701	0.369031
C133	C	0.966877	-0.000031	0.155191
C134	C	1.300210	0.333303	0.488524
C135	C	1.633543	0.666636	0.821857
C136	C	0.965721	-0.000018	0.227639
C137	C	1.299054	0.333316	0.560973
C138	C	1.632387	0.666649	0.894306
C139	C	0.896166	-0.000015	0.255468
C140	C	1.229499	0.333318	0.588801
C141	C	1.562832	0.666651	0.922134
C142	C	0.827761	-0.000005	0.210841
C143	C	1.161094	0.333328	0.544175
C144	C	1.494428	0.666662	0.877508
C145	C	0.828919	-0.000010	0.138394
C146	C	1.162252	0.333323	0.471728
C147	C	1.495585	0.666657	0.805061
C148	C	0.841481	-0.048175	0.363821
C149	C	1.174815	0.285158	0.697154
C150	C	1.508148	0.618492	1.030488
C151	C	0.840327	-0.048175	0.436267
C152	C	1.173660	0.285158	0.769600
C153	C	1.506993	0.618491	1.102934
C154	C	0.892592	0.000003	0.478917
C155	C	1.225925	0.333336	0.812251
C156	C	1.559259	0.666670	1.145584
C157	C	0.946025	0.048171	0.449115
C158	C	1.279358	0.381505	0.782448
C159	C	1.612692	0.714838	1.115781
C160	C	0.947183	0.048166	0.376668
C161	C	1.280516	0.381500	0.710001
C162	C	1.613849	0.714833	1.043335
C163	C	0.894902	-0.000010	0.334023
C164	C	1.228236	0.333324	0.667356
C165	C	1.561569	0.666657	1.000690
C166	C	0.959739	0.000013	0.602092
C167	C	1.293072	0.333346	0.935425
C168	C	1.626406	0.666680	1.268758
C169	C	0.958580	0.000031	0.674541
C170	C	1.291914	0.333364	1.007874
C171	C	1.625247	0.666698	1.341208
C172	C	0.820618	0.000035	0.657741
C173	C	1.153952	0.333369	0.991075
C174	C	1.487285	0.666702	1.324408
C175	C	0.821779	0.000025	0.585294
C176	C	1.155112	0.333359	0.918627
C177	C	1.488446	0.666692	1.251960
C178	C	0.891341	0.000010	0.557473
C179	C	1.224675	0.333344	0.890807
C180	C	1.558008	0.666677	1.224140
H181	H	0.663993	-0.135975	-0.097505
H182	H	0.997326	0.197359	0.235828
H183	H	1.330659	0.530692	0.569162
Br184	Br	0.736089	0.000000	0.077839
Br185	Br	1.069422	0.333333	0.411172
Br186	Br	1.402755	0.666667	0.744505
H187	H	0.800091	-0.639282	-0.179332
H188	H	1.133425	-0.305949	0.154001
H189	H	1.466758	0.027384	0.487334
Br190	Br	0.288124	-0.176662	-0.091981
Br191	Br	0.621457	0.156671	0.241352
Br192	Br	0.954791	0.490004	0.574686
H193	H	0.763985	0.000041	0.680398
H194	H	1.097319	0.333375	1.013732
H195	H	1.430652	0.666708	1.347065
H196	H	1.014279	0.000031	0.710868
H197	H	1.347612	0.333364	1.044201
H198	H	1.680945	0.666698	1.377535
Br199	Br	0.767816	-0.113551	0.476707
Br200	Br	1.101150	0.219783	0.810040
Br201	Br	1.434483	0.553116	1.143374
Br202	Br	0.728951	0.000032	0.524738
Br203	Br	1.062284	0.333366	0.858071
Br204	Br	1.395618	0.666699	1.191405
H205	H	0.123480	-0.135974	-0.089560
H206	H	0.456813	0.197359	0.243773
H207	H	0.790146	0.530692	0.577106
H208	H	0.798919	-0.087412	0.329100
H209	H	1.132252	0.245921	0.662433
H210	H	1.465585	0.579255	0.995767
Br211	Br	1.015439	-0.384215	0.017950
Br212	Br	1.348772	-0.050881	0.351284
Br213	Br	1.682105	0.282452	0.684617
H214	H	0.664022	0.135990	-0.097502
H215	H	0.997355	0.469323	0.235831
H216	H	1.330688	0.802656	0.569165
H217	H	0.123509	0.135989	-0.089567
H218	H	0.456843	0.469322	0.243767
H219	H	0.790176	0.802656	0.577100
H220	H	0.520790	-0.135975	-0.095380
H221	H	0.854124	0.197359	0.237953
H222	H	1.187457	0.530692	0.571286
Br223	Br	0.772041	-0.384203	-0.204993
Br224	Br	1.105375	-0.050869	0.128340
Br225	Br	1.438708	0.282464	0.461673
Br226	Br	1.015437	-0.180219	0.017949
Br227	Br	1.348771	0.153114	0.351283
Br228	Br	1.682104	0.486447	0.684616
H229	H	0.266716	0.135991	-0.091661
H230	H	0.600050	0.469325	0.241673
H231	H	0.933383	0.802658	0.575006
Br232	Br	0.499388	0.176676	-0.095055
Br233	Br	0.832721	0.510009	0.238279
Br234	Br	1.166055	0.843342	0.571612
Br235	Br	1.015463	-0.615788	0.017936
Br236	Br	1.348796	-0.282455	0.351269
Br237	Br	1.682130	0.050879	0.684603
Br238	Br	1.015485	-0.819787	0.017933
Br239	Br	1.348818	-0.486454	0.351266
Br240	Br	1.682151	-0.153121	0.684600
Br241	Br	0.772083	-0.819786	-0.205015
Br242	Br	1.105416	-0.486453	0.128318
Br243	Br	1.438750	-0.153120	0.461651
H244	H	0.800059	-0.203701	-0.179318
H245	H	1.133392	0.129632	0.154015
H246	H	1.466726	0.462965	0.487349
H247	H	1.023520	-0.000040	0.132545
H248	H	1.356853	0.333293	0.465878
H249	H	1.690186	0.666626	0.799211
Br250	Br	1.058550	-0.000022	0.288202
Br251	Br	1.391883	0.333312	0.621536
Br252	Br	1.725216	0.666645	0.954869
H253	H	0.990688	0.087388	0.352406
H254	H	1.324022	0.420721	0.685739
H255	H	1.657355	0.754055	1.019072
Br256	Br	1.016963	0.113560	0.506989
Br257	Br	1.350296	0.446894	0.840322
Br258	Br	1.683629	0.780227	1.173655
H259	H	0.771129	-0.000001	0.233504
H260	H	1.104462	0.333332	0.566837
H261	H	1.437795	0.666665	0.900170
Br262	Br	1.054142	-0.000016	0.564331
Br263	Br	1.387476	0.333317	0.897664
Br264	Br	1.720809	0.666651	1.230997
