data_functionalizedCrystal
_audit_creation_method	'MofGen! by Chris Wilmer'
_symmetry_space_group_name_H-M	'P1'
_symmetry_Int_Tables_number	1
_symmetry_cell_setting	triclinic
loop_
_symmetry_equiv_pos_as_xyz
  x,y,z
_cell_length_a	11.169417
_cell_length_b	19.076808
_cell_length_c	11.169409
_cell_angle_alpha	87.662578
_cell_angle_beta	89.980487
_cell_angle_gamma	92.324818
loop_
_atom_site_label
_atom_site_type_symbol
_atom_site_fract_x
_atom_site_fract_y
_atom_site_fract_z
Zn1	Zn	1.815644	-0.280138	-0.659282
Zn2	Zn	1.807414	-0.397866	-0.450509
Zn3	Zn	1.614927	-0.280182	-0.458614
Zn4	Zn	1.606822	-0.397810	-0.651159
O5	O	1.711202	-0.338999	-0.554891
O6	O	1.982501	-0.295761	-0.631595
O7	O	1.781828	-0.382297	-0.283631
O8	O	1.648388	-0.181679	-0.492025
O9	O	1.976455	-0.382255	-0.478210
O10	O	1.795854	-0.181647	-0.639455
O11	O	1.640408	-0.295835	-0.289587
O12	O	1.445902	-0.295780	-0.484148
O13	O	1.634575	-0.382158	-0.820189
O14	O	1.439948	-0.382201	-0.625610
O15	O	1.787995	-0.295706	-0.826157
O16	O	1.773970	-0.496356	-0.470333
O17	O	1.626596	-0.496314	-0.617750
C18	C	1.399378	-0.338990	-0.554878
C19	C	1.265977	-0.339003	-0.554900
C20	C	1.698543	-0.521874	-0.542307
C21	C	1.693237	-0.600109	-0.536963
C22	C	1.767465	-0.636787	-0.611274
C23	C	1.762475	-0.710297	-0.606255
C24	C	1.683262	-0.747128	-0.526919
C25	C	1.609027	-0.710445	-0.452606
C26	C	1.614012	-0.636936	-0.457631
C27	C	1.660121	-0.966983	-0.503657
C28	C	1.655145	-1.040497	-0.498635
C29	C	1.808592	-1.040344	-0.652286
C30	C	1.813575	-0.966834	-0.657300
C31	C	1.739335	-0.930157	-0.582991
N32	N	1.678162	-0.822267	-0.521785
N33	N	1.744429	-0.855020	-0.588132
C34	C	2.024243	-0.339009	-0.554905
C35	C	2.157643	-0.339013	-0.554911
C36	C	1.711299	-0.338921	-0.867939
C37	C	1.711341	-0.338888	-1.001341
C38	C	1.723943	-0.155410	-0.567550
C39	C	1.729372	-0.077175	-0.572945
C40	C	1.711177	-0.339026	-0.243064
C41	C	1.711382	-0.338861	-0.109676
H42	H	1.831973	-0.606804	-0.675872
H43	H	1.822928	-0.740157	-0.666758
H44	H	1.878076	-0.936848	-0.721901
H45	H	1.599674	-0.937127	-0.443150
F46	F	1.887594	-1.079383	-0.731369
H47	H	1.553566	-0.607074	-0.397122
H48	H	1.544525	-0.740439	-0.388014
H49	H	1.590635	-1.070483	-0.434029
