data_functionalizedCrystal
_audit_creation_method	'MofGen! by Chris Wilmer'
_symmetry_space_group_name_H-M	'P1'
_symmetry_Int_Tables_number	1
_symmetry_cell_setting	triclinic
loop_
_symmetry_equiv_pos_as_xyz
  x,y,z
_cell_length_a	12.594516
_cell_length_b	10.686220
_cell_length_c	12.594517
_cell_angle_alpha	85.632607
_cell_angle_beta	90.001327
_cell_angle_gamma	94.397503
loop_
_atom_site_label
_atom_site_type_symbol
_atom_site_fract_x
_atom_site_fract_y
_atom_site_fract_z
Zn1	Zn	-0.298939	1.928914	0.477185
Zn2	Zn	-0.476876	1.928856	0.299217
Zn3	Zn	-0.312582	1.717968	0.312850
Zn4	Zn	-0.490555	1.717876	0.490785
O5	O	-0.394738	1.823403	0.395009
O6	O	-0.311108	2.105485	0.442180
O7	O	-0.455066	1.900895	0.152079
O8	O	-0.161822	1.746013	0.334664
O9	O	-0.441838	2.105442	0.311428
O10	O	-0.151799	1.900995	0.455400
O11	O	-0.334360	1.745957	0.162095
O12	O	-0.347625	1.541378	0.347851
O13	O	-0.465153	1.745856	0.637928
O14	O	-0.478381	1.541310	0.478579
O15	O	-0.324373	1.900906	0.627936
O16	O	-0.627640	1.900806	0.324615
O17	O	-0.637691	1.745800	0.465359
C18	C	-0.415968	1.495559	0.416171
C19	C	-0.425077	1.355306	0.425249
C20	C	-0.671284	1.823321	0.395004
C21	C	-0.789585	1.823401	0.395030
C22	C	-0.864343	1.739085	0.471531
C23	C	-0.937157	1.708379	0.376393
C24	C	-0.927563	1.854222	0.490178
C25	C	-0.860844	1.792634	0.299844
C26	C	-0.851240	1.938530	0.413691
C27	C	-0.924019	1.907868	0.318483
C28	C	-0.117110	1.823521	0.395035
C29	C	0.001199	1.823571	0.395047
C30	C	-0.394767	1.823377	0.672632
C31	C	-0.394779	1.823366	0.790938
C32	C	-0.373425	2.152528	0.373766
C33	C	-0.364343	2.292781	0.364713
C34	C	-0.471339	1.739034	0.865626
C35	C	-0.489915	1.854144	0.928976
C36	C	-0.376231	1.708262	0.938386
C37	C	-0.413401	1.938537	0.852726
C38	C	-0.299677	1.792578	0.862135
C39	C	-0.318211	1.907767	0.925448
C40	C	-0.394743	1.823402	1.118468
C41	C	-0.394760	1.823359	1.000166
H42	H	-0.837965	1.667654	0.536147
N43	N	-0.503193	1.284082	0.503098
H44	H	-0.485321	1.306964	0.577713
H45	H	-0.577715	1.306973	0.484883
H46	H	-0.950204	1.979244	0.253726
N47	N	-0.434294	2.067515	0.803394
H48	H	-0.434204	2.066713	0.723256
H49	H	-0.505860	2.090882	0.828348
H50	H	-0.536132	1.667808	0.839174
N51	N	-0.986810	1.579512	0.355469
H52	H	-0.965258	1.515814	0.413285
H53	H	-1.066904	1.580846	0.354912
N54	N	-0.822127	1.758051	0.193244
H55	H	-0.741929	1.758163	0.193905
H56	H	-0.854271	1.671454	0.179039
N57	N	-0.286220	1.363995	0.286876
H58	H	-0.246983	1.302348	0.247772
H59	H	-0.325947	1.418670	0.234047
H60	H	-0.813729	2.035792	0.429506
N61	N	-0.966483	1.888665	0.596746
H62	H	-0.944934	1.824848	0.654468
H63	H	-0.933947	1.974965	0.611334
N64	N	-0.232442	2.002332	0.960243
H65	H	-0.246592	2.089200	0.928749
H66	H	-0.232558	2.001173	1.040502
N67	N	-0.596429	1.888658	0.967953
H68	H	-0.654224	1.824910	0.946352
H69	H	-0.595308	1.889224	1.048098
N70	N	-0.193196	1.758035	0.823113
H71	H	-0.179260	1.671025	0.854432
H72	H	-0.193863	1.759183	0.742858
N73	N	-0.355452	1.579333	0.987908
H74	H	-0.413339	1.515708	0.966292
H75	H	-0.284164	1.555535	0.962570
