data_functionalizedCrystal
_audit_creation_method	'MofGen! by Chris Wilmer'
_symmetry_space_group_name_H-M	'P1'
_symmetry_Int_Tables_number	1
_symmetry_cell_setting	triclinic
loop_
_symmetry_equiv_pos_as_xyz
  x,y,z
_cell_length_a	16.109301
_cell_length_b	16.992695
_cell_length_c	15.186229
_cell_angle_alpha	89.995943
_cell_angle_beta	89.999362
_cell_angle_gamma	87.064852
loop_
_atom_site_label
_atom_site_type_symbol
_atom_site_fract_x
_atom_site_fract_y
_atom_site_fract_z
O1	O	1.109856	0.100784	-0.073174
O2	O	0.868631	0.113326	-0.073188
O3	O	0.988276	-0.007088	-0.073174
O4	O	0.990210	0.221197	-0.073188
O5	O	0.988268	-0.007089	0.073284
O6	O	0.868622	0.113324	0.073270
O7	O	1.109847	0.100782	0.073284
Zn8	Zn	0.989233	0.107053	0.096530
Zn9	Zn	0.989245	0.107055	-0.096434
O10	O	0.990202	0.221196	0.073270
C11	C	0.837618	0.112817	0.000039
C12	C	0.745221	0.111294	0.000034
C13	C	0.527480	0.179203	0.000040
C14	C	0.440664	0.177766	0.000046
C15	C	0.451005	0.034899	0.000051
C16	C	0.537819	0.036337	0.000051
C17	C	0.576055	0.108492	0.000042
C18	C	0.402424	0.105616	0.000047
C19	C	0.308294	0.104057	0.000053
C20	C	0.670191	0.110051	0.000037
C21	C	0.985784	-0.036300	0.000055
C22	C	0.978361	-0.123343	0.000054
C23	C	1.049987	-0.173601	0.000059
C24	C	1.043007	-0.255386	0.000050
C25	C	0.964400	-0.286911	0.000043
C26	C	0.892768	-0.236645	0.000035
C27	C	0.899749	-0.154862	0.000038
C28	C	0.935467	-0.530501	0.000029
C29	C	0.928491	-0.612291	0.000029
C30	C	1.078731	-0.631026	0.000043
C31	C	1.085704	-0.549240	0.000051
C32	C	1.014073	-0.498982	0.000038
N33	N	0.957263	-0.370508	0.000037
N34	N	1.021210	-0.415387	0.000038
C35	C	1.140860	0.101291	0.000055
C36	C	1.233257	0.102814	0.000054
C37	C	0.992694	0.250408	0.000039
C38	C	1.000118	0.337451	0.000034
N39	N	0.989232	0.107051	0.228223
N40	N	0.989253	0.107051	-0.228127
C41	C	1.042231	0.053750	0.453952
C42	C	1.042234	0.053748	0.546141
C43	C	0.936247	0.160355	0.546138
C44	C	0.936241	0.160352	0.453950
C45	C	0.989238	0.107051	0.407859
C46	C	0.989246	0.107051	0.592237
C47	C	0.989249	0.107050	0.692193
C48	C	0.989235	0.107051	0.307897
H49	H	0.419863	-0.023846	0.000064
O50	O	1.148224	-0.679958	0.000008
C51	C	1.125212	-0.758903	0.000026
H52	H	1.059702	-0.762020	-0.027703
H53	H	1.126791	-0.782562	0.070288
C54	C	1.266896	-0.805139	-0.023352
C55	C	1.186438	-0.808968	-0.057417
H56	H	1.304664	-0.836023	-0.058781
H57	H	1.282401	-0.751953	-0.023361
H58	H	1.268199	-0.824853	0.035199
H59	H	1.185133	-0.789244	-0.115962
H60	H	1.170934	-0.862152	-0.057419
O61	O	0.564756	0.249222	-0.000003
C62	C	0.651798	0.235333	0.000017
H63	H	0.668100	0.174141	-0.027709
H64	H	0.676190	0.239124	0.070280
C65	C	0.671884	0.372856	-0.023366
C66	C	0.691907	0.297701	-0.057427
H67	H	0.696627	0.411329	-0.058797
H68	H	0.613243	0.382215	-0.023377
H69	H	0.692212	0.376004	0.035185
H70	H	0.671570	0.294551	-0.115973
H71	H	0.750546	0.288343	-0.057428
O72	O	1.112562	-0.304236	-0.000101
C73	C	1.113021	-0.352107	-0.075946
H74	H	1.072499	-0.322139	-0.128963
H75	H	1.087554	-0.411577	-0.058806
C76	C	1.252432	-0.401350	-0.045217
C77	C	1.202668	-0.364541	-0.110336
H78	H	1.307730	-0.409024	-0.066429
H79	H	1.252122	-0.369102	0.005883
H80	H	1.231200	-0.450905	-0.030940
H81	H	1.223894	-0.314984	-0.124605
H82	H	1.202983	-0.396782	-0.161440
H83	H	0.841423	-0.113942	0.000033
O84	O	0.865802	-0.481799	0.000068
C85	C	0.794929	-0.527165	0.000045
H86	H	0.811980	-0.588211	0.027770
H87	H	0.771089	-0.532976	-0.070217
C88	C	0.705739	-0.411426	0.023432
C89	C	0.726679	-0.486402	0.057491
H90	H	0.663637	-0.386281	0.058863
H91	H	0.753487	-0.380861	0.023444
H92	H	0.685877	-0.416279	-0.035120
H93	H	0.746550	-0.481547	0.116037
H94	H	0.678932	-0.516965	0.057490
O95	O	0.884733	0.212025	0.591012
C96	C	0.830646	0.170021	0.644332
H97	H	0.859683	0.108674	0.658146
H98	H	0.768843	0.164678	0.608813
C99	C	0.780159	0.289574	0.714933
C100	C	0.815827	0.214228	0.731905
H101	H	0.771014	0.316844	0.768951
H102	H	0.816597	0.317874	0.679008
H103	H	0.728661	0.285111	0.685331
H104	H	0.867328	0.218693	0.761496
H105	H	0.779397	0.185930	0.767837
O106	O	1.093569	0.001906	0.409101
C107	C	1.045796	-0.046489	0.355831
H108	H	0.982833	-0.015247	0.342001
H109	H	1.036259	-0.104414	0.391402
C110	C	1.168877	-0.101680	0.285257
C111	C	1.091548	-0.063305	0.268265
H112	H	1.197100	-0.112056	0.231244
H113	H	1.201064	-0.069078	0.321148
H114	H	1.160919	-0.149947	0.314902
H115	H	1.099508	-0.015035	0.238630
H116	H	1.059364	-0.095899	0.232366
O117	O	0.816345	-0.267135	-0.000014
C118	C	0.754623	-0.205235	0.000001
H119	H	0.781624	-0.149682	-0.027723
H120	H	0.732261	-0.193661	0.070262
C121	C	0.647772	-0.296527	-0.023392
C122	C	0.680933	-0.228298	-0.057449
H123	H	0.602314	-0.310754	-0.058826
H124	H	0.689354	-0.338231	-0.023399
H125	H	0.629143	-0.286873	0.035158
H126	H	0.699570	-0.237956	-0.115994
H127	H	0.639351	-0.186596	-0.057453
O128	O	1.126410	-0.143112	0.000025
C129	C	1.188131	-0.205014	0.000047
H130	H	1.161132	-0.260562	-0.027681
H131	H	1.210485	-0.216598	0.070310
C132	C	1.294988	-0.113721	-0.023332
C133	C	1.261829	-0.181945	-0.057395
H134	H	1.340450	-0.099491	-0.058761
H135	H	1.253406	-0.072016	-0.023344
H136	H	1.313609	-0.123383	0.035220
H137	H	1.243198	-0.172279	-0.115941
H138	H	1.303409	-0.223648	-0.057395
O139	O	1.093755	0.002080	0.591012
C140	C	1.147849	0.044086	0.644315
H141	H	1.118811	0.105433	0.658124
H142	H	1.209646	0.049432	0.608782
C143	C	1.198353	-0.075465	0.714925
C144	C	1.162684	-0.000121	0.731892
H145	H	1.207507	-0.102735	0.768945
H146	H	1.161911	-0.103766	0.679012
H147	H	1.249846	-0.071000	0.685312
H148	H	1.111188	-0.004587	0.761494
H149	H	1.199118	0.028179	0.767812
O150	O	0.884735	0.212208	0.409306
C151	C	0.837950	0.259246	0.469753
H152	H	0.872097	0.260147	0.535466
H153	H	0.774500	0.233769	0.479566
C154	C	0.784489	0.342718	0.353050
C155	C	0.826433	0.343830	0.433757
H156	H	0.777381	0.394892	0.330845
H157	H	0.816006	0.311027	0.312325
H158	H	0.731619	0.321484	0.361238
H159	H	0.879306	0.365054	0.425566
H160	H	0.794924	0.375527	0.474480
H161	H	0.401118	0.235347	0.000046
O162	O	1.162043	-0.518578	0.000208
C163	C	1.170560	-0.471821	0.076049
H164	H	1.125829	-0.491158	0.129063
H165	H	1.155662	-0.407321	0.058900
C166	C	1.315350	-0.458001	0.045334
C167	C	1.260416	-0.481756	0.110449
H168	H	1.370778	-0.464126	0.066552
H169	H	1.309612	-0.489500	-0.005764
H170	H	1.302925	-0.404253	0.031049
H171	H	1.272834	-0.535506	0.124725
H172	H	1.266158	-0.450267	0.161550
H173	H	0.864477	-0.637954	0.000037
H174	H	0.577371	-0.021248	0.000055
