data_functionalizedCrystal
_audit_creation_method	'MofGen! by Chris Wilmer'
_symmetry_space_group_name_H-M	'P1'
_symmetry_Int_Tables_number	1
_symmetry_cell_setting	triclinic
loop_
_symmetry_equiv_pos_as_xyz
  x,y,z
_cell_length_a	14.853567
_cell_length_b	13.330367
_cell_length_c	14.853567
_cell_angle_alpha	89.999156
_cell_angle_beta	96.365070
_cell_angle_gamma	90.004582
loop_
_atom_site_label
_atom_site_type_symbol
_atom_site_fract_x
_atom_site_fract_y
_atom_site_fract_z
O1	O	-1.196369	-0.083346	0.117704
O2	O	-0.933909	-0.083362	0.131725
O3	O	-1.072150	-0.083356	-0.006515
O4	O	-1.058128	-0.083351	0.255944
O5	O	-1.072130	0.083491	-0.006519
O6	O	-0.933889	0.083485	0.131722
O7	O	-1.196349	0.083501	0.117700
Cu8	Cu	-1.065117	0.098728	0.124711
Cu9	Cu	-1.065141	-0.098588	0.124715
O10	O	-1.058108	0.083496	0.255941
C11	C	-1.071504	0.000064	-0.040106
C12	C	-1.069601	0.000055	-0.140189
C13	C	-0.900311	0.000060	0.131088
C14	C	-0.800227	0.000053	0.129184
C15	C	-1.229947	0.000078	0.118337
C16	C	-1.330031	0.000078	0.120241
N17	N	-1.065107	0.237509	0.124708
C18	C	-0.387693	0.000074	0.039019
C19	C	-0.366412	0.000076	0.203251
C20	C	-0.460446	0.000073	0.205042
C21	C	-0.518108	0.000069	0.123819
C22	C	-0.481736	0.000067	0.040806
C23	C	-0.496825	0.000064	0.288053
C24	C	-0.590864	0.000059	0.289846
C25	C	-0.648528	0.000062	0.208623
C26	C	-0.612150	0.000062	0.125607
C27	C	-0.669812	0.000058	0.044384
C28	C	-0.633437	0.000065	-0.038633
C29	C	-0.539399	0.000070	-0.040417
C30	C	-0.742565	0.000057	0.210407
C31	C	-0.763855	0.000052	0.046172
N32	N	-1.065158	-0.237370	0.124711
C33	C	-1.003925	0.710130	0.185903
C34	C	-1.126381	0.710103	0.063519
C35	C	-1.126371	0.605084	0.063516
C36	C	-1.065138	0.552584	0.124709
C37	C	-1.003915	0.605102	0.185904
C38	C	-1.187598	0.552559	0.002328
C39	C	-1.187591	0.447534	0.002323
C40	C	-1.126353	0.395031	0.063512
C41	C	-1.065127	0.447556	0.124710
C42	C	-1.003895	0.395055	0.185902
C43	C	-0.942664	0.447578	0.247096
C44	C	-0.942677	0.552599	0.247093
C45	C	-1.126340	0.290010	0.063515
C46	C	-1.003884	0.290027	0.185903
C47	C	-0.979435	0.000069	-0.552723
C48	C	-1.143668	0.000079	-0.574004
C49	C	-1.145458	0.000073	-0.479971
C50	C	-1.064235	0.000067	-0.422309
C51	C	-0.981223	0.000066	-0.458680
C52	C	-1.228469	0.000084	-0.443591
C53	C	-1.230262	0.000079	-0.349552
C54	C	-1.149039	0.000066	-0.291889
C55	C	-1.066023	0.000064	-0.328266
C56	C	-0.984800	0.000058	-0.270604
C57	C	-0.901783	0.000049	-0.306979
C58	C	-0.899999	0.000053	-0.401017
C59	C	-1.150823	0.000062	-0.197851
C60	C	-0.986588	0.000055	-0.176561
C61	C	-1.058754	0.000073	0.289531
C62	C	-1.060657	0.000075	0.389615
H63	H	-0.810798	0.000052	-0.019971
C64	C	-1.321582	0.000081	-0.309548
N65	N	-1.390365	0.000079	-0.279416
H66	H	-1.176239	0.752852	0.013702
H67	H	-0.920445	0.000045	-0.129618
H68	H	-0.319459	0.000071	0.269379
C69	C	-0.696877	0.000063	-0.127975
N70	N	-0.744663	0.000064	-0.195265
C71	C	-0.936545	0.232285	0.253245
N72	N	-0.885834	0.188794	0.303976
C73	C	-0.499379	0.000070	-0.131728
N74	N	-0.469231	0.000066	-0.200502
C75	C	-0.347680	0.000081	-0.052296
N76	N	-0.317540	0.000086	-0.121075
C77	C	-0.808688	0.000064	-0.441038
N78	N	-0.739914	0.000081	-0.471185
H79	H	-0.449870	0.000057	0.354180
H80	H	-1.237447	0.404776	-0.047504
H81	H	-1.218414	0.000076	-0.168238
H82	H	-1.176197	0.247251	0.013696
C83	C	-0.888120	0.000068	-0.592737
N84	N	-0.819342	0.000072	-0.622876
C85	C	-0.875311	0.389814	0.314407
N86	N	-0.824581	0.346302	0.365103
H87	H	-0.620472	0.000053	0.357443
H88	H	-0.892826	0.595370	0.296916
C89	C	-0.936568	0.767904	0.253207
N90	N	-0.885833	0.811422	0.303899
H91	H	-1.237457	0.595308	-0.047489
C92	C	-1.317807	0.000098	-0.507024
N93	N	-1.385100	0.000108	-0.554806
H94	H	-0.772178	0.000053	0.277998
H95	H	-1.209795	0.000092	-0.620958
H96	H	-0.835652	0.000051	-0.260019
