data_functionalizedCrystal
_audit_creation_method	'MofGen! by Chris Wilmer'
_symmetry_space_group_name_H-M	'P1'
_symmetry_Int_Tables_number	1
_symmetry_cell_setting	triclinic
loop_
_symmetry_equiv_pos_as_xyz
  x,y,z
_cell_length_a	14.044220
_cell_length_b	17.699083
_cell_length_c	16.176319
_cell_angle_alpha	90.007696
_cell_angle_beta	90.002285
_cell_angle_gamma	88.235946
loop_
_atom_site_label
_atom_site_type_symbol
_atom_site_fract_x
_atom_site_fract_y
_atom_site_fract_z
O1	O	-1.257290	-0.182444	-0.068662
O2	O	-0.981336	-0.175860	-0.068683
O3	O	-1.127110	-0.069501	-0.068664
O4	O	-1.111517	-0.288803	-0.068680
O5	O	-1.127090	-0.069492	0.068829
O6	O	-0.981316	-0.175851	0.068810
O7	O	-1.257270	-0.182435	0.068831
Cu8	Cu	-1.119291	-0.179142	0.081375
Cu9	Cu	-1.119315	-0.179153	-0.081227
O10	O	-1.111497	-0.288795	0.068813
C11	C	-0.946018	-0.172974	0.000061
C12	C	-0.840812	-0.164378	0.000054
C13	C	-1.126541	-0.041261	0.000082
C14	C	-1.124865	0.042873	0.000082
C15	C	-1.292588	-0.185321	0.000085
C16	C	-1.397794	-0.193917	0.000088
C17	C	-0.648187	-0.148663	0.000071
C18	C	-0.590414	-0.209629	0.000070
C19	C	-0.483230	-0.200885	0.000080
C20	C	-0.755381	-0.157406	0.000061
C21	C	-1.112066	-0.317035	0.000064
C22	C	-1.113742	-0.401168	0.000059
N23	N	-1.119282	-0.179135	0.195740
C24	C	-1.210431	0.085591	0.000090
C25	C	-1.208850	0.164644	0.000083
C26	C	-1.121702	0.200976	0.000073
C27	C	-1.036130	0.158252	0.000063
C28	C	-1.037712	0.079201	0.000065
C29	C	-1.029750	0.477055	0.000056
C30	C	-1.028175	0.556112	0.000057
C31	C	-1.200888	0.562498	0.000074
C32	C	-1.202470	0.483447	0.000075
C33	C	-1.116898	0.440730	0.000061
C34	C	-1.118613	0.355012	0.000067
C35	C	-1.119987	0.286692	0.000073
N36	N	-1.119332	-0.179155	-0.195592
C37	C	-1.183849	-0.132061	0.239013
C38	C	-1.183854	-0.132061	0.325560
C39	C	-1.119295	-0.179139	0.368833
C40	C	-1.054720	-0.226214	0.325555
C41	C	-1.054712	-0.226210	0.239009
C42	C	-1.054753	-0.226231	0.674583
C43	C	-1.054768	-0.226233	0.761134
C44	C	-1.183895	-0.132081	0.761133
C45	C	-1.183887	-0.132077	0.674588
C46	C	-1.119309	-0.179150	0.631317
C47	C	-1.119303	-0.179149	0.537473
C48	C	-1.119304	-0.179144	0.462675
H49	H	-0.621449	-0.268391	0.000062
H50	H	-1.278527	0.199422	0.000091
O51	O	-0.611013	-0.078619	0.000038
C52	C	-0.510720	-0.085374	0.000065
H53	H	-0.487491	-0.142894	-0.025962
H54	H	-0.483200	-0.079876	0.066029
C55	C	-0.498245	0.048170	-0.021889
C56	C	-0.469715	-0.022475	-0.053862
H57	H	-0.472950	0.086971	-0.055149
H58	H	-0.565814	0.052722	-0.021904
H59	H	-0.475310	0.052741	0.033081
H60	H	-0.492660	-0.027048	-0.108826
H61	H	-0.402148	-0.027026	-0.053857
O62	O	-1.287208	0.448275	0.000047
C63	C	-1.362394	0.502932	0.000072
H64	H	-1.335955	0.558343	-0.025960
H65	H	-1.388772	0.512329	0.066035
C66	C	-1.477079	0.407034	-0.021871
C67	C	-1.444608	0.475089	-0.053850
H68	H	-1.527795	0.389859	-0.055129
H69	H	-1.426426	0.370210	-0.021885
H70	H	-1.499054	0.414874	0.033098
H71	H	-1.422623	0.467246	-0.108815
H72	H	-1.495260	0.511911	-0.053848
O73	O	-1.246678	-0.086321	0.367466
C74	C	-1.303650	-0.044762	0.310714
H75	H	-1.304627	-0.075857	0.249013
H76	H	-1.273029	0.013553	0.301528
C77	C	-1.404728	0.002055	0.420257
C78	C	-1.405934	-0.036140	0.344478
H79	H	-1.467821	0.007377	0.441085
H80	H	-1.366343	-0.025941	0.458493
H81	H	-1.379206	0.050647	0.412592
H82	H	-1.431445	-0.084734	0.352145
H83	H	-1.444326	-0.008152	0.306244
H84	H	-1.236475	-0.093750	0.796374
H85	H	-1.281396	0.056016	0.000103
H86	H	-0.957205	0.585691	0.000051
H87	H	-1.002193	-0.264570	0.796366
H88	H	-1.236460	-0.093745	0.639358
H89	H	-1.002173	-0.264560	0.639359
O90	O	-0.992098	-0.271924	0.367716
C91	C	-1.005936	-0.261823	0.453383
H92	H	-1.081349	-0.238662	0.465199
H93	H	-0.952389	-0.220222	0.477959
C94	C	-0.898890	-0.366717	0.483287
C95	C	-0.991516	-0.338276	0.497800
H96	H	-0.889992	-0.413875	0.510687
H97	H	-0.889564	-0.373521	0.425572
H98	H	-0.854278	-0.332043	0.503768
H99	H	-1.036126	-0.372945	0.477311
H100	H	-1.000849	-0.331480	0.555513
O101	O	-0.991957	-0.272011	0.197100
C102	C	-0.934962	-0.313551	0.253850
H103	H	-0.973820	-0.317052	0.315537
H104	H	-0.864622	-0.284192	0.263069
C105	C	-0.867502	-0.389558	0.144292
C106	C	-0.915232	-0.393863	0.220055
H107	H	-0.855327	-0.439097	0.123445
H108	H	-0.905898	-0.361569	0.106057
H109	H	-0.808891	-0.365089	0.151985
H110	H	-0.973847	-0.418323	0.212359
H111	H	-0.876845	-0.421857	0.258288
O112	O	-1.283928	0.604109	0.000042
C113	C	-1.263853	0.681672	0.000055
H114	H	-1.189425	0.689722	-0.025984
H115	H	-1.267486	0.704268	0.066017
C116	C	-1.428969	0.715116	-0.021876
C117	C	-1.337558	0.725003	-0.053865
H118	H	-1.474436	0.741846	-0.055133
H119	H	-1.442496	0.662861	-0.021882
H120	H	-1.431984	0.733946	0.033091
H121	H	-1.334542	0.706166	-0.108827
H122	H	-1.324033	0.777257	-0.053869
H123	H	-0.960072	0.442284	0.000045
H124	H	-0.965173	0.187840	0.000051
O125	O	-0.954505	0.037816	0.000094
C126	C	-0.877246	0.086833	0.000065
H127	H	-0.901429	0.144122	0.026101
H128	H	-0.850540	0.094251	-0.065901
C129	C	-0.766559	-0.017398	0.021994
C130	C	-0.796260	0.052964	0.053979
H131	H	-0.716601	-0.038290	0.055247
H132	H	-0.818609	-0.050423	0.022011
H133	H	-0.744310	-0.011206	-0.032977
H134	H	-0.818519	0.046770	0.108944
H135	H	-0.744211	0.085987	0.053972
H136	H	-1.236425	-0.093729	0.203785
