data_functionalizedCrystal
_audit_creation_method	'MofGen! by Chris Wilmer'
_symmetry_space_group_name_H-M	'P1'
_symmetry_Int_Tables_number	1
_symmetry_cell_setting	triclinic
loop_
_symmetry_equiv_pos_as_xyz
  x,y,z
_cell_length_a	20.016444
_cell_length_b	14.446369
_cell_length_c	14.446369
_cell_angle_alpha	89.999182
_cell_angle_beta	120.005336
_cell_angle_gamma	60.001066
loop_
_atom_site_label
_atom_site_type_symbol
_atom_site_fract_x
_atom_site_fract_y
_atom_site_fract_z
Zr1	Zr	0.731231	0.891811	0.121464
O2	O	0.870624	0.744001	0.269286
O3	O	0.591851	0.937116	0.076147
O4	O	0.731242	0.937113	0.269277
O5	O	0.731219	0.744015	-0.076186
O6	O	0.731236	1.089450	0.269271
O7	O	0.731233	0.744005	0.076156
O8	O	0.481891	1.089456	-0.076203
O9	O	0.980565	0.744008	0.269288
O10	O	0.649171	1.070134	0.056818
O11	O	0.649165	0.956454	-0.056870
O12	O	0.813280	0.956449	0.170516
O13	O	0.813275	0.842770	0.056829
Zr14	Zr	0.731200	1.134787	-0.121513
Zr15	Zr	0.731221	1.134771	0.121455
Zr16	Zr	0.731209	0.891827	-0.121504
Zr17	Zr	0.906574	0.891823	0.121467
Zr18	Zr	0.555857	1.134776	-0.121516
O19	O	0.870579	1.089482	-0.076196
O20	O	0.870610	1.089459	0.269274
O21	O	0.870593	0.744024	-0.076184
O22	O	0.591807	1.282597	-0.269336
O23	O	0.591838	1.282574	0.076134
O24	O	0.591820	0.937139	-0.269323
O25	O	0.731212	1.282583	0.076137
O26	O	0.731188	1.089486	-0.269326
O27	O	0.731194	0.937149	-0.269321
O28	O	0.731198	1.282594	-0.076206
O29	O	0.980557	0.937129	0.269281
O30	O	0.481874	1.089469	-0.269330
O31	O	0.481866	1.282590	-0.269338
O32	O	0.481883	1.282577	-0.076210
O33	O	0.980547	0.744021	0.076161
O34	O	0.980540	0.937142	0.076154
O35	O	0.649151	1.070149	-0.170565
O36	O	0.649156	1.183829	-0.056878
O37	O	0.813266	1.070144	0.056820
O38	O	0.813260	0.956465	-0.056867
C39	C	0.511889	1.013285	-0.000028
C40	C	0.437451	1.013280	-0.000030
C41	C	0.326767	0.929371	0.083909
C42	C	0.256822	0.929378	0.083913
C43	C	0.135664	1.097236	-0.083962
C44	C	0.205608	1.097232	-0.083961
C45	C	0.301159	1.013293	-0.000026
C46	C	0.161271	1.013305	-0.000023
C47	C	0.085434	1.013314	-0.000019
C48	C	0.377002	1.013286	-0.000028
C49	C	0.731227	0.709393	-0.000013
C50	C	0.731232	0.606250	-0.000010
C51	C	0.834724	0.387883	0.071339
C52	C	0.834794	0.495115	0.071740
C53	C	0.679828	0.602920	0.052292
C54	C	0.680485	0.495151	0.052816
C55	C	0.678338	0.496526	-0.123751
C56	C	0.680289	0.602495	-0.123556
C57	C	0.950542	1.013314	-0.000021
C58	C	1.024980	1.013318	-0.000020
C59	C	0.731243	1.013279	0.303892
C60	C	0.731252	1.013272	0.407038
C61	C	0.731203	1.317205	-0.000036
C62	C	0.731199	1.420348	-0.000040
C63	C	0.834752	0.941218	0.625419
C64	C	0.834817	0.941527	0.518184
C65	C	0.679839	1.136802	0.410357
C66	C	0.680501	1.136410	0.518129
C67	C	0.678377	0.962802	0.516772
C68	C	0.680322	0.960300	0.410799
C69	C	0.731201	1.013307	0.696067
C70	C	0.731229	1.013278	0.592947
C71	C	0.511877	1.317191	-0.000040
C72	C	0.437435	1.420329	-0.000045
C73	C	0.511862	1.013305	-0.303945
C74	C	0.437415	1.013307	-0.407093
C75	C	0.511849	1.317211	-0.303956
C76	C	0.437399	1.420356	-0.407108
C77	C	0.950581	0.709387	0.303907
C78	C	1.025032	0.606242	0.407058
C79	C	0.950554	0.709408	-0.000010
C80	C	1.024996	0.606269	-0.000005
C81	C	0.950569	1.013293	0.303896
C82	C	1.025016	1.013291	0.407043
C83	C	0.402484	1.409416	0.059311
C84	C	0.332548	1.506316	0.059329
C85	C	0.297559	1.614127	-0.000016
C86	C	0.332517	1.625038	-0.059374
C87	C	0.402457	1.528139	-0.059384
C88	C	0.402446	1.072655	-0.514890
C89	C	0.332505	1.072653	-0.611818
C90	C	0.297530	1.013308	-0.600945
C91	C	0.332505	0.953952	-0.493137
C92	C	0.402450	0.953949	-0.396212
C93	C	0.402439	1.528144	-0.396205
C94	C	0.332494	1.625069	-0.493118
C95	C	0.297506	1.614203	-0.600932
C96	C	0.332473	1.506404	-0.611832
C97	C	0.402421	1.409482	-0.514921
C98	C	1.060001	0.498454	0.396156
C99	C	1.129967	0.401530	0.493068
C100	C	1.164959	0.412395	0.600882
C101	C	1.129988	0.520194	0.611783
C102	C	1.060027	0.617117	0.514871
C103	C	1.059954	0.617182	-0.059350
C104	C	1.129909	0.520283	-0.059341
C105	C	1.164900	0.412471	0.000007
C106	C	1.129939	0.401560	0.059360
C107	C	1.059990	0.498459	0.059357
C108	C	1.059969	1.072648	0.396135
C109	C	1.129911	1.072668	0.493044
C110	C	1.164902	1.013325	0.600860
C111	C	1.129942	0.953966	0.611767
C112	C	1.059997	0.953953	0.514859
H113	H	0.277681	0.861041	0.152262
H114	H	0.240549	1.693133	-0.679834
H115	H	0.604733	0.681653	-0.181212
H116	H	0.430916	1.537012	-0.308426
H117	H	0.430912	0.905624	-0.308442
H118	H	0.430916	1.120982	-0.523764
H119	H	0.304037	1.120992	-0.699591
H120	H	1.158429	0.313764	0.484171
N121	N	0.580233	1.022599	0.305950
H122	H	0.580912	1.018212	0.236620
H123	H	0.543447	1.104604	0.300312
H124	H	0.240577	1.013320	-0.679877
N125	N	0.294787	1.741328	-0.481347
H126	H	0.327562	1.733494	-0.398340
H127	H	0.224571	1.784127	-0.518978
N128	N	0.032610	1.187758	-0.174502
H129	H	0.018300	1.264807	-0.170843
H130	H	-0.007752	1.174928	-0.161724
H131	H	0.430971	1.321639	0.107651
H132	H	1.221925	0.333465	0.679785
N133	N	0.728901	0.428436	0.173397
H134	H	0.683565	0.420902	0.179384
H135	H	0.749616	0.469219	0.225644
N136	N	1.167732	0.531905	0.728071
H137	H	1.217354	0.454143	0.787800
H138	H	1.114321	0.574742	0.737055
N139	N	0.294772	0.889954	-0.481419
H140	H	0.245153	0.898977	-0.559184
H141	H	0.265798	0.921122	-0.438577
N142	N	1.022288	0.486680	0.123368
H143	H	1.055073	0.403676	0.160960
H144	H	0.952073	0.524291	0.068876
H145	H	0.303975	1.497574	-0.699627
H146	H	0.304019	1.712831	-0.107690
N147	N	0.177992	1.187760	-0.174488
H148	H	0.106849	1.240932	-0.227664
H149	H	0.204372	1.151060	-0.218500
H150	H	0.304094	1.497410	0.107665
N151	N	0.722195	0.430277	-0.181639
H152	H	0.776780	0.350202	-0.128248
H153	H	0.745810	0.467733	-0.203436
N154	N	1.022281	0.486705	0.279885
H155	H	1.034442	0.524279	0.237026
H156	H	0.952080	0.524238	0.237114
N157	N	0.440120	1.293226	-0.526688
H158	H	0.407334	1.301061	-0.609695
H159	H	0.427943	1.250433	-0.489073
H160	H	1.031556	0.704880	0.523762
H161	H	1.031469	0.704959	-0.107686
N162	N	1.167607	0.532065	-0.123362
H163	H	1.134815	0.615068	-0.160966
H164	H	1.155437	0.494441	-0.183022
N165	N	1.240346	0.307963	0.000005
H166	H	1.257175	0.331247	-0.046602
H167	H	1.215952	0.261360	-0.033746
H168	H	1.031490	1.120973	0.308354
H169	H	1.158440	0.313767	0.107680
H170	H	1.158442	0.905650	0.699564
H171	H	0.715543	0.605051	0.142463
H172	H	1.158368	1.121003	0.484141
H173	H	1.221856	1.013344	0.679760
N174	N	1.022302	0.889927	0.526633
H175	H	1.055089	0.852338	0.609641
H176	H	1.034481	0.830260	0.489022
N177	N	0.579881	0.530440	-0.011596
H178	H	0.535303	0.615870	-0.040198
H179	H	0.571668	0.497371	0.040339
N180	N	0.429824	0.838851	0.174443
H181	H	0.435429	0.785691	0.227619
H182	H	0.461478	0.875561	0.218450
H183	H	0.875331	0.493360	0.036930
H184	H	0.875349	0.333932	0.036433
H185	H	0.875163	0.332895	0.162046
H186	H	0.875384	0.492665	0.162997
H187	H	0.603682	0.681186	0.002807
H188	H	0.717037	1.176817	0.568476
N189	N	0.729924	0.601821	-0.175325
H190	H	0.785179	0.603941	-0.118995
H191	H	0.684274	0.670415	-0.245954
H192	H	0.875164	0.850563	0.519811
N193	N	0.577318	0.532886	-0.194528
H194	H	0.576405	0.463652	-0.197565
H195	H	0.543766	0.581828	-0.273872
N196	N	0.888587	0.820411	0.696903
H197	H	0.846396	0.811216	0.708938
H198	H	0.945752	0.801861	0.772679
N199	N	0.222116	1.718637	-0.000014
H200	H	0.246452	1.765287	0.033763
H201	H	0.205314	1.695266	0.046574
N202	N	0.888317	0.987149	0.698253
H203	H	0.845816	1.054432	0.710305
H204	H	0.909789	1.011468	0.659198
H205	H	0.875406	0.976541	0.520636
N206	N	0.579893	1.211405	0.482812
H207	H	0.571587	1.274785	0.515797
H208	H	0.565430	1.165028	0.511601
N209	N	0.578971	1.211001	0.306679
H210	H	0.578271	1.214289	0.236340
H211	H	0.547337	1.289960	0.310703
N212	N	0.727133	1.190711	0.407542
H213	H	0.781850	1.135324	0.404117
H214	H	0.751123	1.211754	0.478170
H215	H	0.711506	0.873215	0.566801
H216	H	0.717809	0.869293	0.411322
H217	H	0.602114	1.015039	0.489319
H218	H	0.430905	1.537041	-0.107725
