data_functionalizedCrystal
_audit_creation_method	'MofGen! by Chris Wilmer'
_symmetry_space_group_name_H-M	'P1'
_symmetry_Int_Tables_number	1
_symmetry_cell_setting	triclinic
loop_
_symmetry_equiv_pos_as_xyz
  x,y,z
_cell_length_a	17.640112
_cell_length_b	14.908520
_cell_length_c	14.908294
_cell_angle_alpha	83.639163
_cell_angle_beta	103.728131
_cell_angle_gamma	76.198570
loop_
_atom_site_label
_atom_site_type_symbol
_atom_site_fract_x
_atom_site_fract_y
_atom_site_fract_z
Zn1	Zn	1.191173	0.097933	-0.241325
Zn2	Zn	1.191082	0.240600	-0.098717
Zn3	Zn	1.063945	0.120417	-0.121090
Zn4	Zn	1.047317	0.284508	-0.285177
O5	O	1.123379	0.185865	-0.186577
O6	O	1.304572	0.089073	-0.194692
O7	O	1.181137	0.215692	0.026668
O8	O	1.087819	-0.010945	-0.128050
O9	O	1.304505	0.193890	-0.089919
O10	O	1.181293	-0.027464	-0.216386
O11	O	1.087731	0.127394	0.010231
O12	O	0.948328	0.169970	-0.170572
O13	O	1.059479	0.268725	-0.407713
O14	O	0.936112	0.290527	-0.291126
O15	O	1.165170	0.131649	-0.375495
O16	O	1.165014	0.374804	-0.132441
O17	O	1.059391	0.407064	-0.269432
C18	C	1.110409	0.424217	-0.203282
C19	C	1.104933	0.526170	-0.210441
C20	C	0.912814	0.237453	-0.238036
C21	C	0.822731	0.259547	-0.260073
C22	C	1.110480	0.202577	-0.425815
C23	C	1.104983	0.209698	-0.527764
C24	C	0.558147	0.018008	-0.019168
C25	C	0.473498	0.038787	-0.039889
C26	C	0.460834	0.164471	-0.165231
C27	C	0.545483	0.143699	-0.144524
C28	C	0.594133	0.070467	-0.071490
C29	C	0.581469	0.196158	-0.196846
C30	C	0.666111	0.175391	-0.176136
C31	C	0.714766	0.102164	-0.103105
C32	C	0.678775	0.049700	-0.050781
C33	C	0.532817	0.269394	-0.269875
C34	C	0.568804	0.321853	-0.322197
C35	C	0.653447	0.301082	-0.301492
C36	C	0.702103	0.227855	-0.228460
C37	C	0.689439	0.353546	-0.353816
C38	C	0.774081	0.332779	-0.333106
C39	C	0.786744	0.207088	-0.207751
C40	C	1.334767	0.134075	-0.134919
C41	C	1.424848	0.112006	-0.112905
C42	C	1.136421	-0.053423	-0.169822
C43	C	1.141979	-0.155393	-0.162682
C44	C	1.204730	0.684077	-0.081313
C45	C	1.199587	0.779869	-0.088036
C46	C	1.089510	0.813548	-0.230612
C47	C	1.094653	0.717755	-0.223889
C48	C	1.152263	0.653023	-0.149236
C49	C	1.157401	0.557229	-0.142511
C50	C	1.047329	0.590909	-0.285090
C51	C	1.042187	0.686701	-0.291813
C52	C	1.042211	0.291092	-0.688230
C53	C	1.047374	0.284408	-0.592441
C54	C	1.157431	0.141666	-0.558881
C55	C	1.152268	0.148350	-0.654670
C56	C	1.094657	0.223067	-0.719342
C57	C	1.089498	0.229754	-0.815132
C58	C	1.199552	0.087009	-0.781572
C59	C	1.204715	0.080325	-0.685782
C60	C	1.136279	0.169140	0.051746
C61	C	1.141947	0.161722	0.153750
H62	H	0.826358	0.147442	-0.148292
Cl63	Cl	0.969793	0.385024	-0.769533
Cl64	Cl	1.265549	0.818905	-0.002644
Cl65	Cl	0.819324	0.398730	-0.398881
H66	H	1.251633	0.631371	-0.020522
H67	H	0.463897	0.286300	-0.286734
Cl68	Cl	0.739941	-0.042371	0.041029
H69	H	1.042611	0.866267	-0.291395
Cl70	Cl	0.969768	0.768086	-0.385659
Cl71	Cl	0.981357	0.551867	-0.370475
Cl72	Cl	0.821175	0.076058	-0.077063
H73	H	1.204309	0.504525	-0.081723
H74	H	1.042590	0.290593	-0.867787
Cl75	Cl	0.981436	0.369928	-0.553332
Cl76	Cl	1.229805	0.047702	-0.477575
H77	H	0.649815	0.413177	-0.413273
H78	H	1.251618	0.019491	-0.633115
H79	H	1.242259	0.031619	-0.806911
H80	H	0.529182	0.381481	-0.381658
Cl81	Cl	0.428261	-0.027164	0.025902
H82	H	0.421211	0.224099	-0.224693
Cl83	Cl	0.619313	-0.074063	0.072641
