data_functionalizedCrystal
_audit_creation_method	'MofGen! by Chris Wilmer'
_symmetry_space_group_name_H-M	'P1'
_symmetry_Int_Tables_number	1
_symmetry_cell_setting	triclinic
loop_
_symmetry_equiv_pos_as_xyz
  x,y,z
_cell_length_a	14.395555
_cell_length_b	14.395555
_cell_length_c	20.016444
_cell_angle_alpha	59.998131
_cell_angle_beta	90.001603
_cell_angle_gamma	60.003201
loop_
_atom_site_label
_atom_site_type_symbol
_atom_site_fract_x
_atom_site_fract_y
_atom_site_fract_z
Zr1	Zr	0.894898	1.016838	-0.087701
O2	O	0.746572	1.210634	-0.194378
O3	O	0.940364	0.823042	-0.054997
O4	O	0.940359	1.016847	-0.194379
O5	O	0.746585	1.016822	0.054949
O6	O	1.093226	1.016854	-0.194382
O7	O	0.746577	1.016829	-0.054996
O8	O	1.093234	0.670172	0.054947
O9	O	0.746577	1.363504	-0.194380
O10	O	1.073842	0.902758	-0.041053
O11	O	0.959765	0.902748	0.040999
O12	O	0.959760	1.130928	-0.123105
O13	O	0.845683	1.130918	-0.041052
Zr14	Zr	1.138716	1.016838	0.087645
Zr15	Zr	1.138703	1.016849	-0.087705
Zr16	Zr	0.894911	1.016827	0.087649
Zr17	Zr	0.894905	1.260647	-0.087704
Zr18	Zr	1.138709	0.773028	0.087647
O19	O	1.093251	1.210633	0.054941
O20	O	1.093232	1.210650	-0.194384
O21	O	0.746590	1.210618	0.054947
O22	O	1.287042	0.823041	0.194321
O23	O	1.287024	0.823058	-0.055003
O24	O	0.940382	0.823026	0.194327
O25	O	1.287030	1.016854	-0.055005
O26	O	1.093255	1.016828	0.194323
O27	O	0.940388	1.016821	0.194325
O28	O	1.287038	1.016846	0.054940
O29	O	0.940370	1.363513	-0.194383
O30	O	1.093245	0.670163	0.194326
O31	O	1.287037	0.670172	0.194323
O32	O	1.287027	0.670181	0.054943
O33	O	0.746587	1.363495	-0.055000
O34	O	0.940380	1.363503	-0.055003
O35	O	1.073854	0.902747	0.123048
O36	O	1.187931	0.902758	0.040995
O37	O	1.073849	1.130928	-0.041056
O38	O	0.959772	1.130917	0.040997
C39	C	1.016798	0.711870	-0.000025
C40	C	1.016795	0.608366	-0.000024
C41	C	0.954599	0.547768	0.044718
C42	C	0.909513	0.562028	-0.032436
C43	C	1.061853	0.409711	0.077106
C44	C	0.971646	0.624052	-0.077223
C45	C	1.124047	0.471672	0.032375
C46	C	1.078987	0.485978	-0.044825
C47	C	0.711844	1.016824	-0.000023
C48	C	0.608342	1.016819	-0.000021
C49	C	0.609956	0.892411	0.044715
C50	C	0.516944	0.954600	0.077141
C51	C	0.516925	0.954636	-0.032423
C52	C	0.516693	1.079008	0.032449
C53	C	0.516688	1.079027	-0.077158
C54	C	0.423659	1.141306	-0.044752
C55	C	1.321771	1.016852	-0.000033
C56	C	1.425273	1.016856	-0.000035
C57	C	1.016791	1.016852	-0.219364
C58	C	1.016786	1.016857	-0.293805
C59	C	1.016816	1.321806	-0.000032
C60	C	1.016819	1.425309	-0.000033
C61	C	0.957256	1.135945	-0.507891
C62	C	0.957265	1.135939	-0.577832
C63	C	1.076366	0.897722	-0.492157
C64	C	1.076363	0.897729	-0.422218
C65	C	1.016801	1.016844	-0.430088
C66	C	1.016813	1.016832	-0.569969
C67	C	1.016824	1.016825	-0.645802
C68	C	1.016792	1.016851	-0.354250
C69	C	1.016823	1.016823	0.219308
C70	C	1.016829	1.016818	0.293748
C71	C	1.321762	0.711883	-0.000030
C72	C	1.425260	0.608385	-0.000031
C73	C	1.016814	0.711855	0.219311
C74	C	1.016816	0.608347	0.293753
C75	C	1.321778	0.711869	0.219306
C76	C	1.425282	0.608365	0.293746
C77	C	0.711837	1.321807	-0.219362
C78	C	0.608332	1.425310	-0.293802
C79	C	0.711853	1.321792	-0.000026
C80	C	0.608354	1.425291	-0.000026
C81	C	1.016800	1.321821	-0.219367
C82	C	1.016798	1.425329	-0.293809
C83	C	1.076371	0.559738	0.371547
C84	C	1.076369	0.462495	0.441500
C85	C	1.016818	0.413855	0.433656
C86	C	0.957256	0.462473	0.355853
C87	C	0.957253	0.559722	0.285902
C88	C	1.533446	0.559764	0.285873
C89	C	1.630708	0.462525	0.355810
C90	C	1.619804	0.413882	0.433620
C91	C	1.511629	0.462492	0.441491
C92	C	1.414369	0.559737	0.371554
C93	C	0.500168	1.473923	-0.285929
C94	C	0.402906	1.571193	-0.355867
C95	C	0.413810	1.619841	-0.433676
C96	C	0.521985	1.571224	-0.441548
C97	C	0.619245	1.473963	-0.371611
C98	C	1.076360	1.473938	-0.285939
C99	C	1.076380	1.571182	-0.355878
C100	C	1.016830	1.619822	-0.433687
C101	C	0.957267	1.571204	-0.441555
C102	C	0.957254	1.473955	-0.371617
C103	C	1.548051	0.547831	0.044681
C104	C	1.578909	0.409722	0.077085
C105	C	1.578811	0.562134	-0.032481
C106	C	1.454755	0.471576	0.032418
C107	C	1.454661	0.624061	-0.077191
C108	C	1.485445	0.485962	-0.044806
H109	H	1.214718	0.434508	0.059805
O110	O	0.515784	0.892079	-0.065250
C111	C	0.516504	0.956520	-0.146100
H112	H	0.481874	1.062488	-0.171350
H113	H	0.460887	0.955359	-0.185807
H114	H	0.607329	0.903824	-0.146523
O115	O	1.141897	0.453623	-0.089896
C116	C	1.232922	0.319346	-0.039748
H117	H	1.252095	0.284330	0.026928
H118	H	1.311500	0.304981	-0.058114
H119	H	1.208779	0.260147	-0.047508
H120	H	1.699009	0.334700	0.490560
H121	H	1.326301	0.599295	0.377976
H122	H	1.542346	0.599355	0.222522
H123	H	1.573494	0.574901	0.082574
H124	H	0.908746	1.434388	-0.378036
H125	H	1.502768	0.422873	0.504853
O126	O	0.891854	0.580371	0.089787
C127	C	0.893491	0.677503	0.089761
H128	H	0.971941	0.673086	0.076119
H129	H	0.896233	0.659414	0.152289
H130	H	0.813625	0.778549	0.040856
O131	O	0.899425	1.251530	-0.515388
C132	C	0.912209	1.226004	-0.436975
H133	H	0.934132	1.123645	-0.390609
H134	H	0.829321	1.302077	-0.437756
H135	H	0.983509	1.231649	-0.419155
O136	O	1.134297	1.426470	-0.210318
C137	C	1.217889	1.290205	-0.167306
H138	H	1.192846	1.248964	-0.194012
H139	H	1.225108	1.239811	-0.099992
H140	H	1.303306	1.271653	-0.173132
O141	O	0.899521	1.251516	-0.653471
C142	C	0.912273	1.225976	-0.713517
H143	H	0.992702	1.123614	-0.686255
H144	H	0.919101	1.302042	-0.767452
H145	H	0.835330	1.231620	-0.735400
O146	O	0.801361	0.606399	-0.065264
C147	C	0.792248	0.605641	-0.135098
H148	H	0.861868	0.609779	-0.160688
H149	H	0.705397	0.694631	-0.183460
H150	H	0.802108	0.511906	-0.117617
O151	O	0.518053	1.141524	-0.154909
C152	C	0.616960	1.054153	-0.161037
H153	H	0.684737	0.972836	-0.097837
H154	H	0.650243	1.109799	-0.203668
H155	H	0.595879	1.009173	-0.186562
O156	O	1.735695	0.415411	0.348008
C157	C	1.724450	0.479215	0.264332
H158	H	1.637661	0.519275	0.227049
H159	H	1.794186	0.406269	0.254577
H160	H	1.732412	0.563689	0.243709
H161	H	0.491268	1.434319	-0.222579
H162	H	0.707315	1.434383	-0.378031
O163	O	1.134034	0.782107	-0.346592
C164	C	1.057564	0.774980	-0.303589
H165	H	0.979190	0.878398	-0.330305
H166	H	1.100756	0.724569	-0.236275
H167	H	1.030912	0.716212	-0.309412
O168	O	1.134137	0.415169	0.517132
C169	C	1.121399	0.318886	0.577199
H170	H	1.040962	0.334847	0.549958
H171	H	1.114594	0.326793	0.631130
H172	H	1.198337	0.217164	0.599081
H173	H	1.124882	1.610757	-0.349456
O174	O	0.705027	0.766859	0.089839
C175	C	0.705143	0.700831	0.056361
H176	H	0.614285	0.751261	0.019329
H177	H	0.741931	0.594420	0.107892
H178	H	0.759304	0.703419	0.014792
H179	H	1.099950	0.318100	0.142338
O180	O	0.926238	0.733175	-0.155110
C181	C	0.991433	0.701097	-0.202273
H182	H	1.080926	0.609355	-0.160195
H183	H	0.996255	0.786286	-0.247194
H184	H	0.949837	0.681713	-0.237567
H185	H	0.908772	0.422856	0.349479
H186	H	1.632448	0.318081	0.142303
O187	O	0.297919	1.618213	-0.348064
C188	C	0.309164	1.554421	-0.264389
H189	H	0.395950	1.455854	-0.227106
H190	H	0.239424	1.537647	-0.254633
H191	H	0.301210	1.618178	-0.243766
H192	H	0.334605	1.699036	-0.490617
H193	H	0.517523	1.131547	0.059922
O194	O	0.532770	1.618241	-0.517073
C195	C	0.649093	1.554386	-0.509038
H196	H	0.700995	1.514466	-0.446685
H197	H	0.662637	1.627255	-0.559297
H198	H	0.677710	1.469804	-0.514636
H199	H	0.516021	0.902017	0.142369
O200	O	1.016921	1.714334	-0.501537
C201	C	1.082289	1.746776	-0.477895
H202	H	1.086756	1.719965	-0.413332
H203	H	1.041066	1.856692	-0.522076
H204	H	1.171899	1.689906	-0.479160
O205	O	1.391207	0.426888	0.065342
C206	C	1.380577	0.428611	0.134805
H207	H	1.453839	0.425301	0.160258
H208	H	1.382958	0.339585	0.183432
H209	H	1.296342	0.522336	0.116896
H210	H	1.124864	0.599330	0.377949
O211	O	0.899568	1.618259	-0.517124
C212	C	0.943314	1.514498	-0.526102
H213	H	1.034081	1.431815	-0.481810
H214	H	0.943166	1.551617	-0.591528
H215	H	0.888073	1.476160	-0.512230
H216	H	1.459786	0.458946	-0.082645
O217	O	1.390922	0.733473	-0.154977
C218	C	1.455369	0.782166	-0.188935
H219	H	1.525866	0.746507	-0.137640
H220	H	1.397766	0.894135	-0.229315
H221	H	1.494588	0.745232	-0.227308
O222	O	1.134114	0.782135	-0.484659
C223	C	1.121308	0.807657	-0.563070
H224	H	1.040855	0.910003	-0.609422
H225	H	1.114490	0.731563	-0.562263
H226	H	1.198220	0.802043	-0.580933
O227	O	1.016873	0.319258	0.501550
C228	C	1.064255	0.206728	0.501448
H229	H	1.056144	0.236084	0.436134
H230	H	1.016997	0.159644	0.527204
H231	H	1.157934	0.133460	0.540925
O232	O	1.642593	0.606633	-0.065099
C233	C	1.676682	0.637801	-0.017705
H234	H	1.615450	0.658363	0.017225
H235	H	1.675852	0.728594	-0.059559
H236	H	1.766309	0.551653	0.027542
H237	H	0.344032	1.246591	-0.082581
H238	H	0.908760	0.599286	0.222561
