data_functionalizedCrystal
_audit_creation_method	'MofGen! by Chris Wilmer'
_symmetry_space_group_name_H-M	'P1'
_symmetry_Int_Tables_number	1
_symmetry_cell_setting	triclinic
loop_
_symmetry_equiv_pos_as_xyz
  x,y,z
_cell_length_a	12.759401
_cell_length_b	12.594516
_cell_length_c	12.759393
_cell_angle_alpha	89.969200
_cell_angle_beta	89.980387
_cell_angle_gamma	90.012047
loop_
_atom_site_label
_atom_site_type_symbol
_atom_site_fract_x
_atom_site_fract_y
_atom_site_fract_z
Zn1	Zn	1.606276	-0.423673	-0.594018
Zn2	Zn	1.606180	-0.601692	-0.418341
Zn3	Zn	1.430578	-0.423729	-0.418354
Zn4	Zn	1.430576	-0.601610	-0.593979
O5	O	1.518403	-0.512676	-0.506173
O6	O	1.753285	-0.447298	-0.570725
O7	O	1.582846	-0.578142	-0.271321
O8	O	1.453927	-0.274775	-0.441679
O9	O	1.753213	-0.578088	-0.441656
O10	O	1.583011	-0.274734	-0.570738
O11	O	1.453833	-0.447394	-0.271331
O12	O	1.283557	-0.447314	-0.441640
O13	O	1.453922	-0.577949	-0.741005
O14	O	1.283555	-0.578003	-0.570671
O15	O	1.583009	-0.447219	-0.741034
O16	O	1.582844	-0.750627	-0.441617
O17	O	1.453829	-0.750567	-0.570658
C18	C	1.245435	-0.512657	-0.506153
C19	C	1.128659	-0.512674	-0.506170
C20	C	1.073763	-0.580667	-0.438872
C21	C	0.964039	-0.580686	-0.438890
C22	C	0.964116	-0.444708	-0.573508
C23	C	1.073838	-0.444696	-0.573494
C24	C	1.128584	-0.648645	-0.371548
C25	C	1.073689	-0.716643	-0.304243
C26	C	0.963964	-0.716661	-0.304262
C27	C	0.909136	-0.648682	-0.371584
C28	C	1.518354	-0.789217	-0.506155
C29	C	1.518429	-0.907522	-0.506182
C30	C	1.588682	-0.976769	-0.436072
C31	C	1.614358	-1.047461	-0.531965
C32	C	1.492885	-1.047630	-0.410350
C33	C	1.544154	-0.976655	-0.602125
C34	C	1.422637	-0.976818	-0.480446
C35	C	1.448276	-1.047478	-0.576405
C36	C	1.792436	-0.512696	-0.506193
C37	C	1.909212	-0.512705	-0.506202
C38	C	1.518476	-0.512569	-0.780206
C39	C	1.518508	-0.512523	-0.896983
C40	C	1.518480	-0.235055	-0.506214
C41	C	1.518513	-0.116750	-0.506232
C42	C	1.585732	-0.444445	-0.951862
C43	C	1.585757	-0.444407	-1.061586
C44	C	1.451330	-0.580533	-1.061543
C45	C	1.451300	-0.580565	-0.951821
C46	C	1.652939	-0.376403	-0.897024
C47	C	1.720170	-0.308321	-0.951903
C48	C	1.720195	-0.308282	-1.061628
C49	C	1.652989	-0.376326	-1.116473
C50	C	1.518390	-0.512706	-0.233206
C51	C	1.518562	-0.512452	-0.116429
H52	H	1.118535	-0.389328	-0.628291
O53	O	1.377324	-1.084345	-0.647094
C54	C	1.220985	-1.187835	-0.675194
C55	C	1.301240	-1.146130	-0.595023
H56	H	1.159464	-1.237816	-0.633129
H57	H	1.181247	-1.117942	-0.715756
H58	H	1.262881	-1.238685	-0.736070
H59	H	1.259424	-1.095298	-0.534084
H60	H	1.340975	-1.216071	-0.554540
H61	H	1.653003	-0.376277	-1.205818
H62	H	1.648102	-0.945721	-0.376835
O63	O	1.386158	-0.646600	-1.114979
C64	C	1.326595	-0.706841	-1.283995
C65	C	1.400469	-0.631979	-1.223612
H66	H	1.338124	-0.695030	-1.371835
H67	H	1.345018	-0.792697	-1.262479
H68	H	1.241888	-0.688165	-1.262361
H69	H	1.485201	-0.650559	-1.245213
H70	H	1.381955	-0.546145	-1.245133
H71	H	1.396544	-0.635983	-0.907137
O72	O	1.710978	-1.084520	-0.558160
C73	C	1.813259	-1.187989	-0.679669
C74	C	1.703779	-1.146090	-0.650137
H75	H	1.807472	-1.237796	-0.754022
H76	H	1.868412	-1.118196	-0.693757
H77	H	1.844936	-1.239058	-0.613036
H78	H	1.672008	-1.095039	-0.716733
H79	H	1.648696	-1.215932	-0.636012
H80	H	1.471245	-1.078804	-0.329286
H81	H	1.217927	-0.648636	-0.371523
H82	H	1.774930	-0.252839	-1.106307
O83	O	1.570118	-0.939453	-0.698789
C84	C	1.599137	-0.785518	-0.807225
C85	C	1.569739	-0.827508	-0.697703
H86	H	1.598819	-0.695006	-0.806389
H87	H	1.680604	-0.815168	-0.829345
H88	H	1.539673	-0.815307	-0.867048
H89	H	1.629133	-0.797737	-0.637807
H90	H	1.488246	-0.797867	-0.675671
O91	O	1.785335	-0.242070	-0.898681
C92	C	1.836423	-0.061036	-0.865205
C93	C	1.762542	-0.135946	-0.925522
H94	H	1.818036	0.024780	-0.886901
H95	H	1.824859	-0.072661	-0.777344
H96	H	1.921131	-0.079783	-0.886774
H97	H	1.677805	-0.117246	-0.904041
H98	H	1.774197	-0.124307	-1.013369
O99	O	1.326011	-0.939808	-0.454230
C100	C	1.189762	-0.933973	-0.323538
C101	C	1.299209	-0.975939	-0.353100
H102	H	1.168050	-0.963186	-0.241782
H103	H	1.190450	-0.843461	-0.324455
H104	H	1.129725	-0.964265	-0.382537
H105	H	1.359308	-0.945726	-0.294129
H106	H	1.298434	-1.066450	-0.352216
H107	H	1.118337	-0.771997	-0.249439
H108	H	0.919271	-0.772036	-0.249466
H109	H	0.819791	-0.648710	-0.371601
H110	H	1.652929	-0.376429	-0.807682
O111	O	0.910742	-0.378820	-0.638945
C112	C	0.786973	-0.364686	-0.780868
C113	C	0.847332	-0.439428	-0.706812
H114	H	0.735708	-0.413659	-0.835771
H115	H	0.735517	-0.308998	-0.732788
H116	H	0.845076	-0.316061	-0.828919
H117	H	0.789304	-0.488122	-0.658744
H118	H	0.898803	-0.495046	-0.754952
