data_functionalizedCrystal
_audit_creation_method	'MofGen! by Chris Wilmer'
_symmetry_space_group_name_H-M	'P1'
_symmetry_Int_Tables_number	1
_symmetry_cell_setting	triclinic
loop_
_symmetry_equiv_pos_as_xyz
  x,y,z
_cell_length_a	14.908520
_cell_length_b	18.215407
_cell_length_c	18.215399
_cell_angle_alpha	90.019833
_cell_angle_beta	86.730636
_cell_angle_gamma	93.321174
loop_
_atom_site_label
_atom_site_type_symbol
_atom_site_fract_x
_atom_site_fract_y
_atom_site_fract_z
Zn1	Zn	-0.359158	1.108178	0.433017
Zn2	Zn	-0.025825	1.441511	0.766351
Zn3	Zn	0.307508	1.774844	1.099684
Zn4	Zn	-0.510027	1.100989	0.317051
Zn5	Zn	-0.176694	1.434323	0.650384
Zn6	Zn	0.156639	1.767656	0.983717
Zn7	Zn	-0.359188	0.985109	0.309966
Zn8	Zn	-0.025855	1.318442	0.643299
Zn9	Zn	0.307479	1.651775	0.976633
Zn10	Zn	-0.509977	0.977982	0.440073
Zn11	Zn	-0.176644	1.311315	0.773407
Zn12	Zn	0.156689	1.644648	1.106740
O13	O	-0.434588	1.043064	0.375027
O14	O	-0.101254	1.376398	0.708360
O15	O	0.232079	1.709731	1.041693
O16	O	-0.379180	1.210208	0.417646
O17	O	-0.045847	1.543541	0.750979
O18	O	0.287487	1.876875	1.084313
O19	O	-0.490052	1.085592	0.213128
O20	O	-0.156718	1.418925	0.546461
O21	O	0.176615	1.752259	0.879795
O22	O	-0.232939	1.007425	0.320371
O23	O	0.100394	1.340758	0.653705
O24	O	0.433728	1.674092	0.987038
O25	O	-0.490023	1.204927	0.332446
O26	O	-0.156690	1.538260	0.665779
O27	O	0.176644	1.871593	0.999113
O28	O	-0.232917	1.097843	0.410776
O29	O	0.100416	1.431177	0.744110
O30	O	0.433749	1.764510	1.077443
O31	O	-0.379230	1.000455	0.207923
O32	O	-0.045897	1.333788	0.541256
O33	O	0.287436	1.667122	0.874590
O34	O	-0.379182	0.881180	0.327213
O35	O	-0.045848	1.214513	0.660546
O36	O	0.287485	1.547846	0.993880
O37	O	-0.489937	0.995278	0.542120
O38	O	-0.156604	1.328611	0.875453
O39	O	0.176729	1.661945	1.208787
O40	O	-0.489966	0.875943	0.422802
O41	O	-0.156633	1.209277	0.756136
O42	O	0.176701	1.542610	1.089469
O43	O	-0.379131	1.090932	0.536936
O44	O	-0.045798	1.424266	0.870269
O45	O	0.287535	1.757599	1.203603
O46	O	-0.636266	1.078681	0.339288
O47	O	-0.302933	1.412014	0.672621
O48	O	0.030401	1.745348	1.005954
O49	O	-0.636229	0.988308	0.429672
O50	O	-0.302896	1.321641	0.763005
O51	O	0.030438	1.654975	1.096339
C52	C	-0.434572	0.851859	0.375005
C53	C	-0.101239	1.185192	0.708338
C54	C	0.232094	1.518526	1.041672
C55	C	-0.434587	0.770059	0.375014
C56	C	-0.101254	1.103393	0.708347
C57	C	0.232079	1.436726	1.041681
C58	C	-0.668981	1.031961	0.386030
C59	C	-0.335648	1.365294	0.719364
C60	C	-0.002315	1.698628	1.052697
C61	C	-0.769256	1.027278	0.390762
C62	C	-0.435923	1.360612	0.724096
C63	C	-0.102589	1.693945	1.057429
C64	C	-0.492363	0.579154	0.424733
C65	C	-0.159030	0.912487	0.758066
C66	C	0.174303	1.245820	1.091399
C67	C	-0.492366	0.502295	0.424742
C68	C	-0.159033	0.835628	0.758075
C69	C	0.174300	1.168962	1.091409
C70	C	-0.376828	0.507726	0.325338
C71	C	-0.043495	0.841060	0.658671
C72	C	0.289838	1.174393	0.992005
C73	C	-0.376822	0.584584	0.325333
C74	C	-0.043488	0.917917	0.658666
C75	C	0.289845	1.251251	0.991999
C76	C	-0.434594	0.620295	0.375029
C77	C	-0.101261	0.953629	0.708362
C78	C	0.232072	1.286962	1.041696
C79	C	-0.434604	0.466579	0.375044
C80	C	-0.101271	0.799912	0.708377
C81	C	0.232063	1.133246	1.041710
C82	C	-0.434606	0.383245	0.375053
C83	C	-0.101273	0.716578	0.708387
C84	C	0.232060	1.049912	1.041720
C85	C	-0.434591	0.703635	0.375021
C86	C	-0.101257	1.036968	0.708354
C87	C	0.232076	1.370301	1.041687
C88	C	-0.957660	1.112681	0.305613
C89	C	-0.624326	1.446015	0.638946
C90	C	-0.290993	1.779348	0.972280
C91	C	-1.051877	1.108284	0.310057
C92	C	-0.718543	1.441617	0.643390
C93	C	-0.385210	1.774951	0.976723
C94	C	-1.051908	1.014091	0.404097
C95	C	-0.718575	1.347424	0.737430
C96	C	-0.385242	1.680757	1.070763
C97	C	-0.957691	1.018488	0.399653
C98	C	-0.624358	1.351821	0.732986
C99	C	-0.291025	1.685155	1.066320
C100	C	-0.910570	1.067784	0.350409
C101	C	-0.577237	1.401118	0.683742
C102	C	-0.243904	1.734451	1.017075
C103	C	-0.816352	1.072177	0.345962
C104	C	-0.483018	1.405511	0.679295
C105	C	-0.149685	1.738844	1.012628
C106	C	-0.816385	0.977988	0.440005
C107	C	-0.483052	1.311321	0.773338
C108	C	-0.149718	1.644655	1.106671
C109	C	-0.910602	0.973591	0.444449
C110	C	-0.577269	1.306924	0.777782
C111	C	-0.243935	1.640257	1.111115
C112	C	-0.199279	1.054231	0.363996
C113	C	0.134054	1.387564	0.697330
C114	C	0.467388	1.720898	1.030663
C115	C	-0.099004	1.058990	0.359296
C116	C	0.234329	1.392323	0.692629
C117	C	0.567662	1.725656	1.025963
C118	C	-0.434526	1.043112	0.566977
C119	C	-0.101192	1.376445	0.900310
C120	C	0.232141	1.709779	1.233644
C121	C	-0.434499	1.043133	0.648775
C122	C	-0.101166	1.376466	0.982108
C123	C	0.232168	1.709799	1.315441
C124	C	-0.434604	1.235017	0.375049
C125	C	-0.101271	1.568350	0.708383
C126	C	0.232063	1.901683	1.041716
C127	C	-0.434611	1.316815	0.375059
C128	C	-0.101277	1.650148	0.708392
C129	C	0.232056	1.983482	1.041725
C130	C	-0.434585	1.043062	0.183820
C131	C	-0.101251	1.376396	0.517154
C132	C	0.232082	1.709729	0.850487
C133	C	-0.434357	1.043196	0.102011
C134	C	-0.101024	1.376530	0.435345
C135	C	0.232310	1.709863	0.768678
C136	C	-0.376748	1.092959	0.834268
C137	C	-0.043415	1.426293	1.167601
C138	C	0.289918	1.759626	1.500935
C139	C	-0.376722	1.092969	0.911126
C140	C	-0.043389	1.426303	1.244459
C141	C	0.289945	1.759636	1.577792
C142	C	-0.492110	0.993364	0.916513
C143	C	-0.158777	1.326698	1.249846
C144	C	0.174557	1.660031	1.583179
C145	C	-0.492131	0.993351	0.839656
C146	C	-0.158798	1.326685	1.172989
C147	C	0.174535	1.660018	1.506323
C148	C	-0.434452	1.043153	0.798536
C149	C	-0.101118	1.376486	1.131869
C150	C	0.232215	1.709820	1.465203
C151	C	-0.434404	1.043176	0.952250
C152	C	-0.101071	1.376509	1.285583
C153	C	0.232262	1.709843	1.618917
C154	C	-0.434376	1.043186	1.035582
C155	C	-0.101043	1.376520	1.368916
C156	C	0.232290	1.709853	1.702249
C157	C	-0.434478	1.043142	0.715198
C158	C	-0.101145	1.376475	1.048531
C159	C	0.232188	1.709808	1.381865
H160	H	-0.539406	0.468801	0.465216
H161	H	-0.206073	0.802134	0.798550
H162	H	0.127260	1.135467	1.131883
H163	H	-0.329780	1.133509	0.800790
H164	H	0.003554	1.466842	1.134123
H165	H	0.336887	1.800176	1.467456
O166	O	-0.314487	1.146685	0.949673
O167	O	0.018846	1.480019	1.283006
O168	O	0.352180	1.813352	1.616339
H169	H	-0.329971	1.203709	0.935669
H170	H	0.003362	1.537043	1.269002
H171	H	0.336695	1.870376	1.602335
H172	H	-0.329773	0.618083	0.284858
H173	H	0.003560	0.951416	0.618191
H174	H	0.336893	1.284749	0.951524
O175	O	-0.554322	0.939652	0.960862
O176	O	-0.220989	1.272985	1.294196
O177	O	0.112345	1.606319	1.627529
H178	H	-0.544619	0.948031	1.020309
H179	H	-0.211286	1.281364	1.353643
H180	H	0.122048	1.614698	1.686976
H181	H	-0.539403	0.608228	0.465200
H182	H	-0.206070	0.941561	0.798534
H183	H	0.127263	1.274895	1.131867
O184	O	-0.765519	1.125352	0.292861
O185	O	-0.432186	1.458685	0.626195
O186	O	-0.098852	1.792018	0.959528
H187	H	-0.783658	1.111934	0.235942
H188	H	-0.450325	1.445267	0.569276
H189	H	-0.116992	1.778601	0.902609
O190	O	-0.765583	0.929557	0.488313
O191	O	-0.432250	1.262890	0.821646
O192	O	-0.098916	1.596223	1.154979
H193	H	-0.783738	0.870961	0.476476
H194	H	-0.450404	1.204295	0.809810
H195	H	-0.117071	1.537628	1.143143
H196	H	-1.090213	1.144846	0.273581
H197	H	-0.756880	1.478179	0.606914
H198	H	-0.423547	1.811512	0.940247
H199	H	-0.329793	0.478640	0.284876
H200	H	0.003540	0.811974	0.618209
H201	H	0.336873	1.145307	0.951542
O202	O	-0.961433	0.920425	0.497559
O203	O	-0.628100	1.253758	0.830892
O204	O	-0.294766	1.587092	1.164225
H205	H	-0.912857	0.889947	0.527964
H206	H	-0.579524	1.223280	0.861297
H207	H	-0.246191	1.556613	1.194631
O208	O	-0.906827	1.165846	0.252503
O209	O	-0.573493	1.499180	0.585837
O210	O	-0.240160	1.832513	0.919170
H211	H	-0.955401	1.196331	0.222101
H212	H	-0.622067	1.529664	0.555435
H213	H	-0.288734	1.862997	0.888768
O214	O	-1.102737	0.960916	0.457199
O215	O	-0.769404	1.294249	0.790532
O216	O	-0.436071	1.627582	1.123865
H217	H	-1.176163	0.965399	0.452755
H218	H	-0.842829	1.298732	0.786088
H219	H	-0.509496	1.632065	1.119422
H220	H	-0.539119	0.952788	0.810563
H221	H	-0.205786	1.286121	1.143896
H222	H	0.127547	1.619455	1.477229
