data_functionalizedCrystal
_audit_creation_method	'MofGen! by Chris Wilmer'
_symmetry_space_group_name_H-M	'P1'
_symmetry_Int_Tables_number	1
_symmetry_cell_setting	triclinic
loop_
_symmetry_equiv_pos_as_xyz
  x,y,z
_cell_length_a	19.121102
_cell_length_b	25.639239
_cell_length_c	19.121175
_cell_angle_alpha	92.412705
_cell_angle_beta	85.212968
_cell_angle_gamma	87.592882
loop_
_atom_site_label
_atom_site_type_symbol
_atom_site_fract_x
_atom_site_fract_y
_atom_site_fract_z
Zn1	Zn	1.092540	-0.257000	-0.443656
Zn2	Zn	1.087414	-0.340536	-0.325985
Zn3	Zn	0.969867	-0.249219	-0.320995
Zn4	Zn	0.974814	-0.340501	-0.438597
O5	O	1.031158	-0.296814	-0.382308
O6	O	1.190322	-0.271353	-0.432253
O7	O	1.067605	-0.325180	-0.226860
O8	O	0.986215	-0.177089	-0.337295
O9	O	1.186556	-0.332726	-0.345800
O10	O	1.076342	-0.182806	-0.427414
O11	O	0.981244	-0.258090	-0.223194
O12	O	0.872061	-0.258056	-0.332389
O13	O	0.994646	-0.332667	-0.537731
O14	O	0.875695	-0.325121	-0.418791
O15	O	1.081138	-0.271319	-0.541448
O16	O	1.072402	-0.413693	-0.340895
O17	O	0.989675	-0.413668	-0.423630
C18	C	0.848348	-0.290741	-0.374500
C19	C	0.770141	-0.288156	-0.371176
C20	C	0.735307	-0.321907	-0.414529
C21	C	0.661824	-0.319471	-0.411409
C22	C	0.623176	-0.283287	-0.364933
C23	C	0.658015	-0.249533	-0.321578
C24	C	0.731497	-0.251966	-0.324702
C25	C	0.401212	-0.274188	-0.353257
C26	C	0.327725	-0.271758	-0.350136
C27	C	0.331539	-0.341697	-0.439968
C28	C	0.405022	-0.344129	-0.443084
C29	C	0.439855	-0.310373	-0.399733
C30	C	0.548064	-0.280798	-0.361741
C31	C	0.514965	-0.312860	-0.402928
C32	C	1.031039	-0.432652	-0.382271
C33	C	1.031053	-0.490766	-0.382281
C34	C	1.074355	-0.851141	-0.339310
C35	C	1.074383	-0.905746	-0.339320
O36	O	1.111075	-0.933987	-0.302743
N37	N	1.031284	-0.933059	-0.382360
C38	C	0.988160	-0.905763	-0.425398
O39	O	0.951505	-0.934009	-0.462008
C40	C	0.988137	-0.851159	-0.425390
C41	C	1.031233	-0.823849	-0.382342
C42	C	1.117448	-0.823831	-0.296265
C43	C	1.117419	-0.769229	-0.296254
C44	C	1.074297	-0.741937	-0.339287
C45	C	1.031204	-0.769247	-0.382331
C46	C	0.945017	-0.823865	-0.468431
C47	C	0.944998	-0.769257	-0.468420
C48	C	0.988094	-0.741947	-0.425372
C49	C	0.988053	-0.687353	-0.425352
N50	N	1.031152	-0.660041	-0.382312
C51	C	1.074274	-0.687333	-0.339279
C52	C	0.988214	-1.020436	-0.425411
C53	C	0.988233	-1.075039	-0.425415
C54	C	1.074457	-1.075018	-0.339338
C55	C	1.074433	-1.020414	-0.339331
C56	C	1.031312	-0.993123	-0.382371
C57	C	1.074210	-0.572665	-0.339258
C58	C	1.074175	-0.518058	-0.339249
C59	C	0.987954	-0.518084	-0.425328
C60	C	0.987986	-0.572686	-0.425335
C61	C	1.031119	-0.599975	-0.382298
O62	O	0.951381	-0.659078	-0.461912
O63	O	1.110930	-0.659081	-0.302682
C64	C	1.214683	-0.302911	-0.390148
C65	C	1.292891	-0.305509	-0.393488
C66	C	1.039016	-0.302857	-0.565834
C67	C	1.042364	-0.305433	-0.644042
C68	C	1.031298	-0.160447	-0.382362
C69	C	1.031358	-0.102336	-0.382385
C70	C	0.998975	-0.271713	-0.678874
C71	C	1.002119	-0.274137	-0.752359
C72	C	1.048654	-0.310279	-0.791009
C73	C	1.092045	-0.344002	-0.756171
C74	C	1.088897	-0.341580	-0.682688
C75	C	1.060404	-0.319341	-1.012976
C76	C	1.063549	-0.321759	-1.086464
C77	C	0.973622	-0.251895	-1.082646
C78	C	0.970481	-0.249474	-1.009162
C79	C	1.013869	-0.283199	-0.974331
C80	C	1.051870	-0.312756	-0.866122
C81	C	1.010649	-0.280724	-0.899219
C82	C	1.023372	-0.290758	-0.199498
C83	C	1.020161	-0.288040	-0.121297
H84	H	0.633465	-0.346955	-0.446711
C85	C	0.948332	-0.232536	-0.636945
C86	C	0.879469	-0.242207	-0.651830
C87	C	0.832794	-0.206133	-0.613213
H88	H	0.959084	-0.198123	-0.649409
H89	H	0.952623	-0.235924	-0.588184
H90	H	0.875180	-0.238814	-0.700581
H91	H	0.868694	-0.276613	-0.639364
H92	H	0.837085	-0.209522	-0.564451
H93	H	0.843552	-0.171723	-0.625680
H94	H	0.786064	-0.212694	-0.623302
H95	H	1.095725	-0.346808	-0.984625
H96	H	1.152514	-0.746996	-0.261203
C97	C	0.777356	-0.361113	-0.465036
C98	C	0.821523	-0.334447	-0.511989
C99	C	0.860273	-0.370546	-0.558523
H100	H	0.746167	-0.380881	-0.490480
H101	H	0.804884	-0.383918	-0.439304
H102	H	0.793997	-0.311651	-0.537718
H103	H	0.852726	-0.314681	-0.486565
H104	H	0.887801	-0.393350	-0.532791
H105	H	0.829079	-0.390311	-0.583962
H106	H	0.890249	-0.352458	-0.590382
C107	C	0.954914	-0.237614	-0.790202
C108	C	0.911574	-0.267113	-0.830425
C109	C	0.868065	-0.233487	-0.865285
H110	H	0.982990	-0.216659	-0.820087
H111	H	0.926711	-0.215754	-0.756674
H112	H	0.939773	-0.288963	-0.863950
H113	H	0.883483	-0.288067	-0.800557
H114	H	0.839863	-0.211627	-0.831756
H115	H	0.896147	-0.212533	-0.895166
H116	H	0.838649	-0.253496	-0.892575
C117	C	0.926544	-0.215347	-1.120592
C118	C	0.939244	-0.225211	-1.193217
C119	C	0.895877	-0.191558	-1.228194
H120	H	0.936318	-0.180144	-1.109088
H121	H	0.878732	-0.221039	-1.106565
H122	H	0.987045	-0.219514	-1.207239
H123	H	0.929465	-0.260407	-1.204743
H124	H	0.848065	-0.197250	-1.214167
H125	H	0.905655	-0.156357	-1.216684
H126	H	0.904484	-0.198249	-1.277473
H127	H	0.909885	-0.747039	-0.503471
H128	H	1.152567	-0.846046	-0.261223
H129	H	0.436484	-0.373595	-0.480929
C130	C	1.114097	-0.361056	-1.128304
C131	C	1.151408	-0.390083	-1.082072
C132	C	1.197970	-0.426289	-1.120589
H133	H	1.146066	-0.343079	-1.158290
H134	H	1.088398	-0.383911	-1.155798
H135	H	1.177105	-0.367231	-1.054590
H136	H	1.119457	-0.408071	-1.052085
H137	H	1.172271	-0.449144	-1.148084
H138	H	1.229934	-0.408308	-1.150574
H139	H	1.223286	-0.445991	-1.089227
H140	H	1.089759	-0.342183	-0.897599
C141	C	0.293591	-0.378279	-0.487006
C142	C	0.220967	-0.368396	-0.474340
C143	C	0.185989	-0.402080	-0.517669
H144	H	0.305075	-0.413472	-0.477177
H145	H	0.307637	-0.372630	-0.534826
H146	H	0.206928	-0.374049	-0.426531
H147	H	0.209463	-0.333209	-0.484173
H148	H	0.200035	-0.396432	-0.565489
H149	H	0.197479	-0.437272	-0.507836
H150	H	0.136711	-0.395376	-0.509086
C151	C	0.898347	-0.853576	-0.515224
C152	C	0.940100	-0.887694	-0.562051
C153	C	0.897131	-0.915076	-0.605167
H154	H	0.872658	-0.829555	-0.540917
H155	H	0.866572	-0.873038	-0.487011
H156	H	0.971863	-0.868233	-0.590261
H157	H	0.965789	-0.911725	-0.536378
H158	H	0.865355	-0.934538	-0.576953
H159	H	0.871444	-0.891051	-0.630854
H160	H	0.925453	-0.938231	-0.636939
H161	H	1.129932	-0.373432	-0.787646
C162	C	0.941346	-1.104707	-0.472028
C163	C	0.894573	-1.133285	-0.430236
C164	C	0.851367	-1.160614	-0.473155
H165	H	0.969478	-1.127920	-0.503873
H166	H	0.915620	-1.080643	-0.497639
H167	H	0.920296	-1.157347	-0.404637
H168	H	0.866425	-1.110084	-0.398392
H169	H	0.825641	-1.136550	-0.498766
H170	H	0.879505	-1.183824	-0.504998
H171	H	0.819622	-1.180003	-0.444806
C172	C	1.136086	-0.378218	-0.644997
C173	C	1.177527	-0.410380	-0.694572
C174	C	1.221009	-0.444136	-0.659878
H175	H	1.107993	-0.399207	-0.615175
H176	H	1.165576	-0.358309	-0.617663
H177	H	1.148040	-0.430288	-0.721894
H178	H	1.205634	-0.389406	-0.724396
H179	H	1.250499	-0.424227	-0.632544
H180	H	1.192910	-0.465121	-0.630057
H181	H	1.249136	-0.465959	-0.693509
C182	C	0.941310	-0.990901	-0.472160
C183	C	0.903562	-1.026511	-0.509836
C184	C	0.860343	-0.999326	-0.552901
H185	H	0.969424	-0.971471	-0.504048
H186	H	0.909472	-0.967737	-0.443922
H187	H	0.935396	-1.049665	-0.538071
H188	H	0.875434	-1.045942	-0.477966
H189	H	0.828505	-0.976162	-0.524664
H190	H	0.888462	-0.979897	-0.584784
H191	H	0.834721	-1.023483	-0.578464
C192	C	0.557015	-0.352065	-0.453431
C193	C	0.601182	-0.325399	-0.500385
C194	C	0.639941	-0.361498	-0.546911
H195	H	0.525832	-0.371838	-0.478876
H196	H	0.584543	-0.374865	-0.427693
H197	H	0.573656	-0.302608	-0.526121
H198	H	0.632379	-0.305628	-0.474961
H199	H	0.667470	-0.384298	-0.521173
H200	H	0.608753	-0.381269	-0.572350
H201	H	0.669917	-0.343411	-0.578770
H202	H	0.296260	-0.242287	-0.312293
H203	H	0.932585	-0.220045	-0.977698
H204	H	0.972758	-0.251299	-0.867747
H205	H	1.109526	-0.998181	-0.304278
C206	C	0.941172	-0.602247	-0.472146
C207	C	0.903413	-0.566656	-0.509841
C208	C	0.860294	-0.593866	-0.552984
H209	H	0.909335	-0.621684	-0.443983
H210	H	0.969378	-0.625406	-0.504018
H211	H	0.875209	-0.543507	-0.477973
H212	H	0.935232	-0.547218	-0.538018
H213	H	0.888500	-0.617024	-0.584856
H214	H	0.828461	-0.613301	-0.524816
H215	H	0.834674	-0.569722	-0.578570
H216	H	0.429564	-0.246705	-0.317952
H217	H	0.626542	-0.220069	-0.283739
H218	H	0.759858	-0.224480	-0.289403
C219	C	0.506054	-0.241595	-0.311199
C220	C	0.461905	-0.268260	-0.264228
C221	C	0.423197	-0.232161	-0.217659
H222	H	0.478512	-0.218774	-0.336880
H223	H	0.537292	-0.221844	-0.285778
H224	H	0.430670	-0.288001	-0.289646
H225	H	0.489428	-0.291078	-0.238531
H226	H	0.454435	-0.212411	-0.192239
H227	H	0.395660	-0.209343	-0.243347
H228	H	0.393242	-0.250248	-0.185780
H229	H	0.952843	-0.495854	-0.460363
H230	H	1.109571	-1.097249	-0.304301
C231	C	1.121014	-0.488346	-0.292625
C232	C	1.167761	-0.459747	-0.334417
C233	C	1.210912	-0.432367	-0.291494
H234	H	1.146767	-0.512365	-0.266987
H235	H	1.092820	-0.465144	-0.260803
H236	H	1.195952	-0.482947	-0.366227
H237	H	1.142027	-0.435719	-0.360054
H238	H	1.182717	-0.409165	-0.259672
H239	H	1.236660	-0.456390	-0.265858
H240	H	1.242630	-0.412956	-0.319842
C241	C	1.121059	-0.602192	-0.292454
C242	C	1.158773	-0.566578	-0.254746
C243	C	1.201926	-0.593758	-0.211612
H244	H	1.152923	-0.625367	-0.320625
H245	H	1.092880	-0.621607	-0.260590
H246	H	1.186950	-0.547171	-0.286605
H247	H	1.126927	-0.543402	-0.226561
H248	H	1.173747	-0.613173	-0.179749
H249	H	1.233786	-0.616932	-0.239789
H250	H	1.227515	-0.569597	-0.186017
