data_functionalizedCrystal
_audit_creation_method	'MofGen! by Chris Wilmer'
_symmetry_space_group_name_H-M	'P1'
_symmetry_Int_Tables_number	1
_symmetry_cell_setting	triclinic
loop_
_symmetry_equiv_pos_as_xyz
  x,y,z
_cell_length_a	19.805407
_cell_length_b	29.839131
_cell_length_c	19.805399
_cell_angle_alpha	89.962782
_cell_angle_beta	89.982197
_cell_angle_gamma	90.032545
loop_
_atom_site_label
_atom_site_type_symbol
_atom_site_fract_x
_atom_site_fract_y
_atom_site_fract_z
Zn1	Zn	1.034694	-0.178896	-0.382642
Zn2	Zn	1.368027	0.154437	-0.049309
Zn3	Zn	1.701361	0.487771	0.284024
Zn4	Zn	1.034592	-0.254024	-0.269435
Zn5	Zn	1.367925	0.079310	0.063898
Zn6	Zn	1.701258	0.412643	0.397232
Zn7	Zn	0.921509	-0.178905	-0.269470
Zn8	Zn	1.254842	0.154429	0.063863
Zn9	Zn	1.588175	0.487762	0.397196
Zn10	Zn	0.921455	-0.253996	-0.382585
Zn11	Zn	1.254788	0.079337	-0.049252
Zn12	Zn	1.588122	0.412671	0.284081
O13	O	0.978062	-0.216455	-0.326033
O14	O	1.311396	0.116878	0.007300
O15	O	1.644729	0.450212	0.340633
O16	O	1.129397	-0.188870	-0.367634
O17	O	1.462730	0.144464	-0.034301
O18	O	1.796064	0.477797	0.299032
O19	O	1.019571	-0.244074	-0.174723
O20	O	1.352904	0.089259	0.158610
O21	O	1.686237	0.422593	0.491944
O22	O	0.936589	-0.116036	-0.284522
O23	O	1.269922	0.217297	0.048812
O24	O	1.603255	0.550630	0.382145
O25	O	1.129322	-0.244065	-0.284461
O26	O	1.462655	0.089268	0.048872
O27	O	1.795988	0.422601	0.382205
O28	O	1.019745	-0.116030	-0.367668
O29	O	1.353079	0.217303	-0.034335
O30	O	1.686412	0.550637	0.298998
O31	O	0.936489	-0.188885	-0.174749
O32	O	1.269822	0.144449	0.158584
O33	O	1.603156	0.477782	0.491918
O34	O	0.826785	-0.188858	-0.284466
O35	O	1.160118	0.144475	0.048867
O36	O	1.493452	0.477809	0.382200
O37	O	0.936497	-0.244019	-0.477309
O38	O	1.269830	0.089315	-0.143976
O39	O	1.603163	0.422648	0.189357
O40	O	0.826745	-0.244027	-0.367571
O41	O	1.160079	0.089306	-0.034238
O42	O	1.493412	0.422639	0.299095
O43	O	1.019693	-0.188843	-0.477351
O44	O	1.353026	0.144490	-0.144018
O45	O	1.686360	0.477824	0.189315
O46	O	1.019518	-0.316887	-0.284406
O47	O	1.352852	0.016446	0.048927
O48	O	1.686185	0.349780	0.382261
O49	O	0.936397	-0.316867	-0.367537
O50	O	1.269731	0.016466	-0.034204
O51	O	1.603064	0.349800	0.299130
C52	C	0.802206	-0.216441	-0.326017
C53	C	1.135540	0.116892	0.007317
C54	C	1.468873	0.450226	0.340650
C55	C	0.726974	-0.216446	-0.326026
C56	C	1.060308	0.116888	0.007308
C57	C	1.393641	0.450221	0.340641
C58	C	0.691670	-0.187756	-0.369400
C59	C	1.025003	0.145577	-0.036066
C60	C	1.358337	0.478911	0.297267
C61	C	0.620982	-0.187758	-0.369402
C62	C	0.954315	0.145575	-0.036069
C63	C	1.287648	0.478908	0.297264
C64	C	0.585599	-0.216453	-0.326034
C65	C	0.918932	0.116880	0.007299
C66	C	1.252265	0.450214	0.340633
C67	C	0.620908	-0.245144	-0.282655
C68	C	0.954241	0.088189	0.050678
C69	C	1.287575	0.421523	0.384011
C70	C	0.691595	-0.245139	-0.282650
C71	C	1.024928	0.088194	0.050684
C72	C	1.358262	0.421528	0.384017
C73	C	0.335835	-0.245164	-0.282676
C74	C	0.669168	0.088169	0.050657
C75	C	1.002501	0.421502	0.383991
C76	C	0.265143	-0.245168	-0.282686
C77	C	0.598476	0.088165	0.050647
C78	C	0.931809	0.421499	0.383980
C79	C	0.265221	-0.187784	-0.369429
C80	C	0.598555	0.145550	-0.036095
C81	C	0.931888	0.478883	0.297238
C82	C	0.335908	-0.187779	-0.369423
C83	C	0.669242	0.145555	-0.036090
C84	C	1.002575	0.478888	0.297244
C85	C	0.371211	-0.216468	-0.326042
C86	C	0.704545	0.116866	0.007291
C87	C	1.037878	0.450199	0.340624
C88	C	0.447860	-0.216464	-0.326039
C89	C	0.781193	0.116869	0.007294
C90	C	1.114526	0.450202	0.340628
C91	C	0.508952	-0.216459	-0.326040
C92	C	0.842285	0.116874	0.007293
C93	C	1.175618	0.450207	0.340627
C94	C	0.977959	-0.333178	-0.325976
C95	C	1.311292	0.000156	0.007357
C96	C	1.644626	0.333489	0.340690
C97	C	0.977977	-0.383112	-0.325974
C98	C	1.311310	-0.049779	0.007359
C99	C	1.644644	0.283555	0.340692
C100	C	1.021353	-0.692717	-0.369390
C101	C	1.354686	-0.359384	-0.036056
C102	C	1.688019	-0.026051	0.297277
C103	C	1.021426	-0.880390	-0.369430
C104	C	1.354759	-0.547057	-0.036097
C105	C	1.688093	-0.213724	0.297236
O106	O	1.058205	-0.904622	-0.406301
O107	O	1.391538	-0.571289	-0.072968
O108	O	1.724871	-0.237956	0.260366
N109	N	0.978177	-0.903897	-0.326108
N110	N	1.311511	-0.570564	0.007225
N111	N	1.644844	-0.237230	0.340558
C112	C	0.934904	-0.880483	-0.282776
C113	C	1.268237	-0.547150	0.050557
C114	C	1.601571	-0.213816	0.383890
O115	O	0.898115	-0.904783	-0.245934
O116	O	1.231448	-0.571450	0.087399
O117	O	1.564782	-0.238117	0.420732
C118	C	0.934828	-0.692811	-0.282740
C119	C	1.268161	-0.359477	0.050594
C120	C	1.601494	-0.026144	0.383927
C121	C	0.978084	-0.669306	-0.326059
C122	C	1.311417	-0.335973	0.007274
C123	C	1.644751	-0.002640	0.340607
C124	C	1.064605	-0.669213	-0.412706
C125	C	1.397938	-0.335879	-0.079373
C126	C	1.731272	-0.002546	0.253960
C127	C	1.064589	-0.622297	-0.412693
C128	C	1.397922	-0.288964	-0.079360
C129	C	1.731256	0.044369	0.253973
C130	C	1.021320	-0.598886	-0.369363
C131	C	1.354654	-0.265553	-0.036030
C132	C	1.687987	0.067780	0.297304
C133	C	0.978068	-0.622391	-0.326046
C134	C	1.311401	-0.289057	0.007287
C135	C	1.644734	0.044276	0.340620
C136	C	0.891551	-0.669397	-0.239412
C137	C	1.224885	-0.336064	0.093922
C138	C	1.558218	-0.002731	0.427255
C139	C	0.891535	-0.622476	-0.239407
C140	C	1.224868	-0.289143	0.093926
C141	C	1.558201	0.044190	0.427259
C142	C	0.934791	-0.598972	-0.282727
C143	C	1.268125	-0.265639	0.050606
C144	C	1.601458	0.067695	0.383939
C145	C	0.934783	-0.552064	-0.282703
C146	C	1.268116	-0.218731	0.050630
C147	C	1.601450	0.114602	0.383964
N148	N	0.978032	-0.528558	-0.326025
N149	N	1.311365	-0.195224	0.007308
N150	N	1.644698	0.138109	0.340642
C151	C	1.021300	-0.551968	-0.369355
C152	C	1.354634	-0.218635	-0.036022
C153	C	1.687967	0.114698	0.297312
C154	C	0.934948	-0.979013	-0.282798
C155	C	1.268281	-0.645680	0.050536
C156	C	1.601615	-0.312347	0.383869
C157	C	0.934968	-1.025931	-0.282806
C158	C	1.268301	-0.692598	0.050527
C159	C	1.601634	-0.359265	0.383861
C160	C	1.021489	-1.025835	-0.369461
C161	C	1.354823	-0.692502	-0.036128
C162	C	1.688156	-0.359169	0.297206
C163	C	1.021472	-0.978917	-0.369449
C164	C	1.354806	-0.645583	-0.036115
C165	C	1.688139	-0.312250	0.297218
C166	C	0.978197	-0.955507	-0.326120
C167	C	1.311530	-0.622173	0.007214
C168	C	1.644863	-0.288840	0.340547
C169	C	1.021264	-0.453443	-0.369324
C170	C	1.354597	-0.120109	-0.035990
C171	C	1.687930	0.213224	0.297343
C172	C	1.021246	-0.406523	-0.369304
C173	C	1.354579	-0.073190	-0.035971
C174	C	1.687912	0.260144	0.297362
C175	C	0.934722	-0.406623	-0.282652
C176	C	1.268055	-0.073290	0.050681
C177	C	1.601388	0.260044	0.384014
C178	C	0.934742	-0.453539	-0.282669
C179	C	1.268075	-0.120205	0.050665
C180	C	1.601409	0.213128	0.383998
C181	C	0.978015	-0.476947	-0.326010
C182	C	1.311349	-0.143614	0.007324
C183	C	1.644682	0.189719	0.340657
O184	O	0.898018	-0.527803	-0.245857
O185	O	1.231352	-0.194470	0.087476
O186	O	1.564685	0.138863	0.420810
O187	O	1.058073	-0.527660	-0.406202
O188	O	1.391407	-0.194327	-0.072869
O189	O	1.724740	0.139007	0.260465
C190	C	1.021369	-0.739633	-0.369403
C191	C	1.354702	-0.406299	-0.036069
C192	C	1.688036	-0.072966	0.297264
C193	C	0.978116	-0.763137	-0.326086
C194	C	1.311450	-0.429804	0.007247
C195	C	1.644783	-0.096470	0.340581
C196	C	0.934848	-0.739726	-0.282756
C197	C	1.268181	-0.406393	0.050577
C198	C	1.601514	-0.073060	0.383911
C199	C	0.978136	-0.810055	-0.326094
C200	C	1.311470	-0.476722	0.007239
C201	C	1.644803	-0.143388	0.340573
C202	C	1.021405	-0.833466	-0.369424
C203	C	1.354738	-0.500133	-0.036091
C204	C	1.688072	-0.166799	0.297243
C205	C	1.064654	-0.809959	-0.412746
C206	C	1.397987	-0.476626	-0.079413
C207	C	1.731320	-0.143292	0.253921
C208	C	1.064637	-0.763044	-0.412733
C209	C	1.397971	-0.429710	-0.079399
C210	C	1.731304	-0.096377	0.253934
C211	C	0.891599	-0.763233	-0.239434
C212	C	1.224932	-0.429900	0.093899
C213	C	1.558266	-0.096566	0.427233
C214	C	0.891619	-0.810149	-0.239450
C215	C	1.224953	-0.476815	0.093883
C216	C	1.558286	-0.143482	0.427216
C217	C	0.934888	-0.833560	-0.282780
C218	C	1.268221	-0.500226	0.050553
C219	C	1.601555	-0.166893	0.383886
C220	C	1.154605	-0.216470	-0.326050
C221	C	1.487938	0.116864	0.007283
C222	C	1.821272	0.450197	0.340617
C223	C	1.229837	-0.216476	-0.326057
C224	C	1.563170	0.116858	0.007276
C225	C	1.896504	0.450191	0.340609
C226	C	0.978100	-0.216427	-0.502576
C227	C	1.311434	0.116907	-0.169243
C228	C	1.644767	0.450240	0.164091
C229	C	0.978117	-0.216415	-0.577808
C230	C	1.311450	0.116919	-0.244475
C231	C	1.644783	0.450252	0.088859
C232	C	0.978184	-0.099277	-0.326105
C233	C	1.311518	0.234057	0.007228
C234	C	1.644851	0.567390	0.340561
C235	C	0.978236	-0.049342	-0.326136
C236	C	1.311570	0.283991	0.007197
C237	C	1.644903	0.617324	0.340531
C238	C	1.021438	-0.187683	-0.613175
C239	C	1.354771	0.145650	-0.279842
C240	C	1.688104	0.478983	0.053492
C241	C	1.021445	-0.187670	-0.683864
C242	C	1.354778	0.145663	-0.350530
C243	C	1.688111	0.478996	-0.017197
C244	C	0.978133	-0.216391	-0.719184
C245	C	1.311467	0.116942	-0.385850
C246	C	1.644800	0.450275	-0.052517
C247	C	0.934807	-0.245124	-0.683812
C248	C	1.268141	0.088209	-0.350478
C249	C	1.601474	0.421543	-0.017145
C250	C	0.934797	-0.245134	-0.613125
C251	C	1.268131	0.088199	-0.279791
C252	C	1.601464	0.421532	0.053542
C253	C	0.934845	-0.245082	-0.968885
C254	C	1.268179	0.088251	-0.635552
C255	C	1.601512	0.421585	-0.302219
C256	C	0.934860	-0.245070	-1.039577
C257	C	1.268193	0.088263	-0.706244
C258	C	1.601527	0.421596	-0.372911
C259	C	1.021493	-0.187618	-1.039624
C260	C	1.354826	0.145715	-0.706291
C261	C	1.688160	0.479049	-0.372958
C262	C	1.021483	-0.187628	-0.968937
C263	C	1.354816	0.145705	-0.635604
C264	C	1.688150	0.479038	-0.302270
C265	C	0.978155	-0.216359	-0.933571
C266	C	1.311488	0.116974	-0.600238
C267	C	1.644821	0.450307	-0.266905
C268	C	0.978147	-0.216372	-0.856923
C269	C	1.311480	0.116961	-0.523589
C270	C	1.644813	0.450294	-0.190256
C271	C	0.978144	-0.216381	-0.795831
C272	C	1.311477	0.116953	-0.462498
C273	C	1.644811	0.450286	-0.129164
C274	C	0.978063	-0.216451	-0.150177
C275	C	1.311397	0.116882	0.183156
C276	C	1.644730	0.450216	0.516489
C277	C	0.978178	-0.216336	-0.074946
C278	C	1.311512	0.116997	0.258388
C279	C	1.644845	0.450330	0.591721
H280	H	1.056473	-0.387387	-0.404581
H281	H	1.389806	-0.054054	-0.071247
H282	H	1.723139	0.279280	0.262086
C283	C	1.069147	-0.156008	-1.078533
C284	C	1.402480	0.177326	-0.745200
C285	C	1.735814	0.510659	-0.411866
N286	N	1.105039	-0.132199	-1.107838
N287	N	1.438372	0.201134	-0.774505
N288	N	1.771706	0.534468	-0.441171
H289	H	1.056754	-0.164242	-0.940183
H290	H	1.390087	0.169091	-0.606850
H291	H	1.723421	0.502424	-0.273516
H292	H	0.364714	-0.164414	-0.404740
H293	H	0.698047	0.168919	-0.071407
H294	H	1.031380	0.502253	0.261926
C295	C	0.887162	-0.479394	-0.235011
C296	C	1.220495	-0.146061	0.098322
C297	C	1.553829	0.187272	0.431655
N298	N	0.851318	-0.498866	-0.199119
N299	N	1.184652	-0.165532	0.134214
N300	N	1.517985	0.167801	0.467547
C301	C	0.887388	-1.051781	-0.235145
C302	C	1.220721	-0.718448	0.098188
C303	C	1.554054	-0.385114	0.431521
N304	N	0.851545	-1.071249	-0.199249
N305	N	1.184879	-0.737916	0.134084
N306	N	1.518212	-0.404583	0.467418
H307	H	0.899540	-0.268508	-0.712575
H308	H	1.232873	0.064826	-0.379242
H309	H	1.566206	0.398159	-0.045908
C310	C	1.112177	-0.596448	-0.460347
C311	C	1.445511	-0.263115	-0.127013
C312	C	1.778844	0.070218	0.206320
N313	N	1.148024	-0.576982	-0.496241
N314	N	1.481357	-0.243649	-0.162908
N315	N	1.814691	0.089685	0.170426
H316	H	0.364570	-0.268525	-0.247353
H317	H	0.697903	0.064808	0.085980
H318	H	1.031237	0.398142	0.419313
H319	H	1.056723	-0.164275	-0.712656
H320	H	1.390056	0.169058	-0.379323
H321	H	1.723390	0.502391	-0.045990
H322	H	0.592094	-0.268506	-0.247341
H323	H	0.925427	0.064828	0.085993
H324	H	1.258760	0.398161	0.419326
H325	H	0.592240	-0.164397	-0.404723
H326	H	0.925573	0.168936	-0.071390
H327	H	1.258907	0.502269	0.261944
C328	C	0.887207	-0.276664	-1.078428
C329	C	1.220540	0.056669	-0.745095
C330	C	1.553874	0.390002	-0.411761
N331	N	0.851316	-0.300459	-1.107690
N332	N	1.184650	0.032874	-0.774357
N333	N	1.517983	0.366208	-0.441024
H334	H	0.899575	-0.268483	-0.940099
H335	H	1.232908	0.064850	-0.606765
H336	H	1.566241	0.398184	-0.273432
C337	C	1.068871	-0.479185	-0.416996
C338	C	1.402204	-0.145852	-0.083663
C339	C	1.735537	0.187481	0.249670
N340	N	1.104733	-0.498574	-0.452900
N341	N	1.438066	-0.165241	-0.119566
N342	N	1.771399	0.168092	0.213767
C343	C	0.843928	-0.596728	-0.191740
C344	C	1.177261	-0.263395	0.141594
C345	C	1.510594	0.069938	0.474927
N346	N	0.808072	-0.577336	-0.155835
N347	N	1.141405	-0.244002	0.177498
N348	N	1.474738	0.089331	0.510832
H349	H	0.236469	-0.164422	-0.404749
H350	H	0.569802	0.168911	-0.071416
H351	H	0.903136	0.502245	0.261917
C352	C	0.226223	-0.276732	-0.234970
C353	C	0.559556	0.056601	0.098364
C354	C	0.892890	0.389935	0.431697
N355	N	0.196908	-0.300504	-0.199030
N356	N	0.530242	0.032829	0.134303
N357	N	0.863575	0.366162	0.467636
C358	C	0.887142	-0.276742	-0.574221
C359	C	1.220475	0.056591	-0.240888
C360	C	1.553808	0.389925	0.092446
N361	N	0.851245	-0.300549	-0.544920
N362	N	1.184578	0.032784	-0.211587
N363	N	1.517911	0.366118	0.121747
H364	H	0.720474	-0.164391	-0.404717
H365	H	1.053807	0.168943	-0.071384
H366	H	1.387140	0.502276	0.261949
H367	H	0.720339	-0.268501	-0.247330
H368	H	1.053672	0.064832	0.086004
H369	H	1.387006	0.398166	0.419337
H370	H	1.099839	-0.688269	-0.447995
H371	H	1.433173	-0.354936	-0.114662
H372	H	1.766506	-0.021602	0.218672
H373	H	1.056695	-0.959782	-0.404724
H374	H	1.390028	-0.626449	-0.071390
H375	H	1.723362	-0.293115	0.261943
H376	H	1.056721	-1.044905	-0.404741
H377	H	1.390055	-0.711571	-0.071408
H378	H	1.723388	-0.378238	0.261926
H379	H	0.856327	-0.688527	-0.204136
H380	H	1.189661	-0.355193	0.129198
H381	H	1.522994	-0.021860	0.462531
C382	C	0.887331	-0.953268	-0.235136
C383	C	1.220665	-0.619935	0.098197
C384	C	1.553998	-0.286602	0.431531
N385	N	0.851465	-0.933879	-0.199238
N386	N	1.184798	-0.600546	0.134096
N387	N	1.518131	-0.267212	0.467429
C388	C	0.887126	-0.380862	-0.234994
C389	C	1.220459	-0.047529	0.098339
C390	C	1.553792	0.285805	0.431672
N391	N	0.851272	-0.361457	-0.199102
N392	N	1.184605	-0.028124	0.134231
N393	N	1.517938	0.305209	0.467564
H394	H	1.099861	-0.743910	-0.448008
H395	H	1.433194	-0.410576	-0.114675
H396	H	1.766527	-0.077243	0.218659
C397	C	1.112248	-0.835720	-0.460410
C398	C	1.445582	-0.502387	-0.127077
C399	C	1.778915	-0.169053	0.206256
N400	N	1.148092	-0.855126	-0.496312
N401	N	1.481425	-0.521792	-0.162978
N402	N	1.814758	-0.188459	0.170355
H403	H	0.856396	-0.829282	-0.204168
H404	H	1.189729	-0.495949	0.129166
H405	H	1.523062	-0.162615	0.462499
C406	C	0.843989	-0.737488	-0.191773
C407	C	1.177323	-0.404154	0.141561
C408	C	1.510656	-0.070821	0.474894
N409	N	0.808126	-0.718098	-0.155871
N410	N	1.141460	-0.384765	0.177462
N411	N	1.474793	-0.051431	0.510795
C412	C	1.069084	-0.156087	-0.574330
C413	C	1.402417	0.177246	-0.240996
C414	C	1.735751	0.510580	0.092337
N415	N	1.104970	-0.132286	-0.545073
N416	N	1.438304	0.201047	-0.211740
N417	N	1.771637	0.534381	0.121594
