data_functionalizedCrystal
_audit_creation_method	'MofGen! by Chris Wilmer'
_symmetry_space_group_name_H-M	'P1'
_symmetry_Int_Tables_number	1
_symmetry_cell_setting	triclinic
loop_
_symmetry_equiv_pos_as_xyz
  x,y,z
_cell_length_a	19.188933
_cell_length_b	19.188924
_cell_length_c	7.088929
_cell_angle_alpha	83.795552
_cell_angle_beta	96.183987
_cell_angle_gamma	83.143767
loop_
_atom_site_label
_atom_site_type_symbol
_atom_site_fract_x
_atom_site_fract_y
_atom_site_fract_z
O1	O	0.918955	0.094371	-0.158935
O2	O	0.715642	0.106105	-0.158954
O3	O	0.823169	-0.001419	-0.158921
O4	O	0.811428	0.201895	-0.158967
O5	O	0.837539	-0.015821	0.159059
O6	O	0.730012	0.091703	0.159026
O7	O	0.933325	0.079969	0.159045
Cu8	Cu	0.832981	0.084521	0.188069
Cu9	Cu	0.815986	0.101553	-0.187978
O10	O	0.825798	0.187493	0.159012
C11	C	0.696816	0.098524	0.000034
C12	C	0.619312	0.097383	0.000028
C13	C	0.058224	0.097087	-0.173281
C14	C	0.131048	0.098156	-0.173288
C15	C	0.175298	0.090842	0.000042
C16	C	0.146721	0.082442	0.173392
C17	C	0.073900	0.081367	0.173395
N18	N	0.290147	0.126418	0.129050
N19	N	0.359324	0.127442	0.129035
C20	C	0.394707	0.094080	0.000044
N21	N	0.358297	0.059667	-0.128961
N22	N	0.289113	0.058647	-0.128953
C23	C	0.254262	0.092007	0.000058
C24	C	0.502240	0.103633	-0.173304
C25	C	0.575066	0.104697	-0.173304
C26	C	0.590737	0.088991	0.173381
C27	C	0.517913	0.087920	0.173377
C28	C	0.473668	0.095245	0.000029
C29	C	0.829975	-0.034631	0.000070
C30	C	0.828836	-0.112136	0.000075
C31	C	0.820472	-0.140685	-0.173256
C32	C	0.819391	-0.213507	-0.173270
C33	C	0.826690	-0.257780	0.000056
C34	C	0.835051	-0.229223	0.173410
C35	C	0.836125	-0.156401	0.173420
N36	N	0.870567	-0.383286	0.129062
N37	N	0.869549	-0.452463	0.129041
C38	C	0.823455	-0.477188	0.000037
N39	N	0.778425	-0.430122	-0.128974
N40	N	0.779447	-0.360939	-0.128959
C41	C	0.825526	-0.336744	0.000065
C42	C	0.813917	-0.584698	-0.173322
C43	C	0.812832	-0.657521	-0.173329
C44	C	0.828500	-0.673237	0.173356
C45	C	0.829577	-0.600414	0.173359
C46	C	0.822289	-0.556149	0.000015
C47	C	0.952150	0.087550	0.000053
C48	C	1.029655	0.088692	0.000047
C49	C	0.818992	0.220705	0.000017
C50	C	0.820130	0.298211	-0.000001
N51	N	0.844938	0.072541	0.452561
N52	N	0.804034	0.113527	-0.452470
H53	H	0.494652	0.081086	0.314519
C54	C	0.805892	-0.536003	-0.363988
H55	H	0.800745	-0.563436	-0.467224
H56	H	0.846692	-0.512720	-0.371189
H57	H	0.765275	-0.501817	-0.371189
C58	C	0.746763	0.170904	0.437225
H59	H	0.747577	0.170078	0.303719
H60	H	0.755734	0.215996	0.469925
H61	H	0.701640	0.162028	0.469952
C62	C	0.812443	-0.091995	-0.363926
H63	H	0.807299	-0.119431	-0.467159
H64	H	0.853239	-0.068706	-0.371134
H65	H	0.771821	-0.057815	-0.371128
C66	C	0.843081	-0.277920	0.364064
H67	H	0.841251	-0.325381	0.339234
H68	H	0.805769	-0.263767	0.435283
H69	H	0.887187	-0.274664	0.435288
H70	H	0.887339	0.030070	0.534230
H71	H	0.022204	0.103049	-0.314434
C72	C	0.810194	-0.244922	-0.363936
H73	H	0.810595	-0.294631	-0.339111
H74	H	0.847860	-0.235209	-0.435143
H75	H	0.766441	-0.224311	-0.435170
C76	C	0.162482	0.107399	-0.363955
H77	H	0.125701	0.111613	-0.467192
H78	H	0.196018	0.067443	-0.371176
H79	H	0.185109	0.148859	-0.371138
H80	H	0.050639	0.074533	0.314543
C81	C	0.195392	0.074401	0.364050
H82	H	0.242854	0.076251	0.339225
H83	H	0.192131	0.030292	0.435279
H84	H	0.181224	0.111710	0.435261
C85	C	0.639401	0.080945	0.364047
H86	H	0.611953	0.075789	0.467279
H87	H	0.662686	0.121742	0.371251
H88	H	0.673583	0.040325	0.371254
C89	C	0.803628	-0.688924	-0.364003
H90	H	0.799446	-0.652130	-0.467231
H91	H	0.762175	-0.711552	-0.371227
H92	H	0.843594	-0.722457	-0.371199
C93	C	0.453568	0.111693	-0.363973
H94	H	0.481017	0.116839	-0.467206
H95	H	0.419390	0.152311	-0.371168
H96	H	0.430280	0.070894	-0.371189
H97	H	0.598326	0.111529	-0.314454
C98	C	0.836523	-0.721928	0.364013
H99	H	0.834687	-0.769388	0.339185
H100	H	0.799210	-0.707769	0.435224
H101	H	0.880628	-0.718676	0.435244
H102	H	0.842933	-0.133158	0.314571
C103	C	0.838790	-0.569011	0.364025
H104	H	0.842989	-0.605807	0.467253
H105	H	0.798831	-0.535478	0.371238
H106	H	0.880248	-0.546383	0.371231
