data_functionalizedCrystal
_audit_creation_method	'MofGen! by Chris Wilmer'
_symmetry_space_group_name_H-M	'P1'
_symmetry_Int_Tables_number	1
_symmetry_cell_setting	triclinic
loop_
_symmetry_equiv_pos_as_xyz
  x,y,z
_cell_length_a	10.489741
_cell_length_b	17.699083
_cell_length_c	16.176319
_cell_angle_alpha	89.992304
_cell_angle_beta	89.995299
_cell_angle_gamma	83.911094
loop_
_atom_site_label
_atom_site_type_symbol
_atom_site_fract_x
_atom_site_fract_y
_atom_site_fract_z
O1	O	1.692075	0.106782	-0.068697
O2	O	1.320693	0.116805	-0.068710
O3	O	1.516876	0.001673	-0.068696
O4	O	1.495891	0.221914	-0.068711
O5	O	1.516849	0.001665	0.068797
O6	O	1.320666	0.116798	0.068783
O7	O	1.692048	0.106775	0.068796
Cu8	Cu	1.506354	0.111785	0.081344
Cu9	Cu	1.506386	0.111794	-0.081258
O10	O	1.495864	0.221907	0.068782
C11	C	1.516111	-0.026533	0.000051
C12	C	1.513855	-0.110565	0.000051
C13	C	1.273162	0.116044	0.000035
C14	C	1.131574	0.113779	0.000030
C15	C	1.629011	-0.158433	0.000056
C16	C	1.626883	-0.237390	0.000049
C17	C	1.509599	-0.268478	0.000042
C18	C	1.394435	-0.220605	0.000034
C19	C	1.396563	-0.141649	0.000036
C20	C	1.385848	-0.539024	0.000027
C21	C	1.383729	-0.617986	0.000028
C22	C	1.616168	-0.634765	0.000040
C23	C	1.618297	-0.555810	0.000042
C24	C	1.503133	-0.507943	0.000030
C25	C	1.505441	-0.422328	0.000036
C26	C	1.507290	-0.354091	0.000041
C27	C	1.064795	0.040524	0.000043
C28	C	0.972039	0.075133	-0.067749
C29	C	0.972046	0.075143	0.067808
C30	C	1.040683	0.148418	-0.067818
C31	C	1.040700	0.148418	0.067800
C32	C	0.947970	0.183080	-0.000008
C33	C	1.739579	0.107535	0.000049
C34	C	1.881166	0.109800	0.000048
C35	C	1.496630	0.250112	0.000033
C36	C	1.498886	0.334145	0.000028
N37	N	1.506341	0.111779	0.195709
N38	N	1.506409	0.111795	-0.195623
C39	C	1.593237	0.060819	0.238979
C40	C	1.593244	0.060819	0.325526
C41	C	1.506359	0.111781	0.368801
C42	C	1.419454	0.162743	0.325525
C43	C	1.419442	0.162740	0.238979
C44	C	1.419498	0.162758	0.674553
C45	C	1.419518	0.162759	0.761105
C46	C	1.593299	0.060837	0.761100
C47	C	1.593288	0.060833	0.674555
C48	C	1.506378	0.111792	0.631286
C49	C	1.506371	0.111791	0.537441
C50	C	1.506372	0.111786	0.462644
H51	H	1.720655	-0.276362	0.000055
O52	O	1.076686	0.185489	-0.136214
C53	C	1.015614	0.260395	-0.136385
H54	H	0.987330	0.277921	-0.070531
H55	H	0.926116	0.263308	-0.176726
C56	C	1.142749	0.293086	-0.251920
C57	C	1.108019	0.314614	-0.171036
H58	H	1.199745	0.326531	-0.273297
H59	H	1.183892	0.242620	-0.251807
H60	H	1.068158	0.295514	-0.285526
H61	H	1.182608	0.312178	-0.137429
H62	H	1.066892	0.365082	-0.171144
H63	H	0.897426	0.243364	-0.000049
H64	H	1.713801	-0.530502	0.000051
O65	O	1.677792	0.011298	0.367431
C66	C	1.754466	-0.033689	0.310677
H67	H	1.755781	-0.002653	0.248977
H68	H	1.713256	-0.090162	0.301492
C69	C	1.890498	-0.086589	0.420217
C70	C	1.892122	-0.048467	0.344438
H71	H	1.975409	-0.095708	0.441043
H72	H	1.838839	-0.056283	0.458454
H73	H	1.856150	-0.133646	0.412553
H74	H	1.926454	-0.001407	0.352105
H75	H	1.943790	-0.078765	0.306203
O76	O	1.677559	0.011168	0.632624
C77	C	1.656963	-0.063832	0.653903
H78	H	1.554817	-0.064717	0.677664
H79	H	1.727649	-0.085618	0.704196
C80	C	1.802422	-0.114048	0.547927
C81	C	1.676960	-0.115135	0.577105
H82	H	1.814762	-0.145696	0.500556
H83	H	1.816302	-0.063520	0.533592
H84	H	1.861312	-0.132201	0.589845
H85	H	1.618073	-0.096974	0.535191
H86	H	1.663071	-0.165662	0.591430
H87	H	1.071159	0.179386	0.125113
O88	O	1.269903	-0.648311	0.000050
C89	C	1.292727	-0.728263	0.000033
H90	H	1.392310	-0.746257	0.026076
H91	H	1.286645	-0.750266	-0.065930
C92	C	1.069043	-0.739470	0.021953
C93	C	1.191349	-0.761570	0.053947
H94	H	1.006506	-0.760016	0.055206
H95	H	1.053665	-0.685604	0.021962
H96	H	1.063993	-0.757807	-0.033016
H97	H	1.196403	-0.743225	0.108910
H98	H	1.206726	-0.815434	0.053949
H99	H	1.724517	-0.133128	0.000066
H100	H	1.115604	-0.019696	-0.000038
H101	H	0.941612	0.044140	-0.125059
H102	H	0.941633	0.044131	0.125121
O103	O	1.273865	-0.492642	0.000063
C104	C	1.169897	-0.537015	0.000043
H105	H	1.202458	-0.595761	0.026071
H106	H	1.133941	-0.542824	-0.065919
C107	C	1.020924	-0.426131	0.021997
C108	C	1.060913	-0.498282	0.053972
H109	H	0.953694	-0.402238	0.055260
H110	H	1.090968	-0.396235	0.022008
H111	H	0.990969	-0.430982	-0.032971
H112	H	1.090881	-0.493430	0.108935
H113	H	0.990870	-0.528176	0.053972
H114	H	1.709940	-0.673748	0.000046
O115	O	1.280473	-0.250766	-0.000121
C116	C	1.210292	-0.226345	-0.071323
H117	H	1.278891	-0.209545	-0.121091
H118	H	1.139053	-0.175284	-0.055228
C119	C	1.052940	-0.311974	-0.042491
C120	C	1.137196	-0.291345	-0.103619
H121	H	1.007847	-0.352067	-0.062411
H122	H	1.100219	-0.328425	0.005481
H123	H	0.993587	-0.269417	-0.029084
H124	H	1.196558	-0.333898	-0.117017
H125	H	1.089925	-0.274902	-0.151594
H126	H	1.302792	-0.102675	0.000031
H127	H	1.663994	0.019323	0.203750
O128	O	1.334875	0.212170	0.367525
C129	C	1.208660	0.199141	0.346380
H130	H	1.208231	0.138540	0.322599
H131	H	1.171052	0.240873	0.296141
C132	C	1.122695	0.284830	0.452478
C133	C	1.122167	0.210397	0.423277
H134	H	1.069339	0.291776	0.499909
H135	H	1.207728	0.293610	0.466722
H136	H	1.091358	0.319598	0.410605
H137	H	1.153518	0.175630	0.465145
H138	H	1.037137	0.201611	0.409041
H139	H	1.664062	0.019341	0.796339
H140	H	1.348762	0.204260	0.796338
H141	H	1.348736	0.204251	0.639330
H142	H	1.348681	0.204235	0.203749
