data_functionalizedCrystal
_audit_creation_method	'MofGen! by Chris Wilmer'
_symmetry_space_group_name_H-M	'P1'
_symmetry_Int_Tables_number	1
_symmetry_cell_setting	triclinic
loop_
_symmetry_equiv_pos_as_xyz
  x,y,z
_cell_length_a	10.654553
_cell_length_b	13.262508
_cell_length_c	11.804365
_cell_angle_alpha	62.674773
_cell_angle_beta	101.965012
_cell_angle_gamma	84.459961
loop_
_atom_site_label
_atom_site_type_symbol
_atom_site_fract_x
_atom_site_fract_y
_atom_site_fract_z
O1	O	1.681118	0.135755	0.055068
O2	O	1.314320	0.150833	0.050184
O3	O	1.520467	-0.020693	0.105735
O4	O	1.474971	0.307282	-0.000483
O5	O	1.466200	0.024417	-0.106931
O6	O	1.260054	0.195944	-0.162482
O7	O	1.626851	0.180866	-0.157597
Cu8	Cu	1.438497	0.192524	-0.179458
Cu9	Cu	1.502674	0.139175	0.072044
O10	O	1.420705	0.352392	-0.213149
C11	C	1.240486	0.172281	-0.055790
C12	C	1.101333	0.168966	-0.054717
C13	C	0.875623	0.188875	-0.169117
C14	C	1.006369	0.191998	-0.170135
C15	C	1.065543	0.142822	0.061723
C16	C	0.934797	0.139708	0.062737
C17	C	0.841462	0.217262	-0.302977
C18	C	0.972208	0.220384	-0.303995
C19	C	1.495773	-0.040135	0.013006
C20	C	1.503029	-0.165271	0.053540
C21	C	1.405150	-0.419660	-0.295912
C22	C	1.398322	-0.302087	-0.333997
C23	C	1.424498	-0.267877	-0.237116
C24	C	1.457503	-0.351252	-0.102143
C25	C	1.464322	-0.468835	-0.064054
C26	C	1.483671	-0.317052	-0.005259
C27	C	1.516675	-0.400427	0.129714
C28	C	1.523493	-0.517998	0.167796
C29	C	1.497317	-0.552208	0.070915
C30	C	1.476852	-0.199469	-0.043348
C31	C	1.536024	-0.248644	0.188510
C32	C	1.542852	-0.366217	0.226595
C33	C	1.700686	0.159417	-0.051620
C34	C	1.839841	0.162730	-0.052685
C35	C	1.445398	0.371833	-0.120416
C36	C	1.438145	0.496967	-0.160942
N37	N	1.393368	0.230045	-0.356350
C38	C	1.656188	0.011519	-0.659526
C39	C	1.690327	-0.016871	-0.525670
C40	C	1.616090	0.044856	-0.483333
C41	C	1.507708	0.134977	-0.574866
C42	C	1.473572	0.163376	-0.708738
C43	C	1.433474	0.196713	-0.532544
C44	C	1.325092	0.286834	-0.624078
C45	C	1.290961	0.315228	-0.757935
C46	C	1.365198	0.253501	-0.800272
C47	C	1.467610	0.168314	-0.398673
C48	C	1.284994	0.320170	-0.447884
C49	C	1.250855	0.348560	-0.581741
N50	N	1.547814	0.101645	0.248939
H51	H	0.905668	0.118433	0.157542
N52	N	1.504678	-0.679019	0.111976
H53	H	1.416243	-0.689157	0.072866
H54	H	1.529601	-0.726580	0.212183
N55	N	0.753738	0.334864	-0.404452
H56	H	0.687155	0.326499	-0.472413
H57	H	0.808989	0.389537	-0.450372
H58	H	0.808481	0.143873	-0.317887
H59	H	1.550357	-0.585880	0.277700
H60	H	1.449968	-0.131594	-0.153244
N61	N	0.987806	0.340938	-0.394281
H62	H	0.933340	0.368864	-0.488318
H63	H	1.083429	0.338752	-0.391623
H64	H	1.012192	0.153394	-0.330160
N65	N	1.417155	-0.141072	-0.278175
H66	H	1.348673	-0.113878	-0.244587
H67	H	1.392324	-0.093527	-0.378380
N68	N	1.652906	0.014218	-0.338955
H69	H	1.577136	-0.009735	-0.301190
H70	H	1.673447	0.084137	-0.331647
H71	H	1.383831	-0.447526	-0.374778
N72	N	1.204899	0.386751	-0.402245
H73	H	1.207184	0.471805	-0.451477
H74	H	1.243008	0.354992	-0.303545
H75	H	1.371463	-0.234212	-0.443892
N76	N	1.564274	-0.211760	0.293012
H77	H	1.586208	-0.282416	0.384295
H78	H	1.484271	-0.155519	0.279499
H79	H	1.569724	-0.434117	0.336492
N80	N	1.807215	-0.114063	-0.426950
H81	H	1.849063	-0.148860	-0.474079
H82	H	1.777213	-0.176072	-0.355151
H83	H	1.555855	0.094937	-0.324158
H84	H	1.202719	0.388618	-0.832466
N85	N	1.736259	-0.055039	-0.705192
H86	H	1.698190	-0.023369	-0.803884
H87	H	1.733959	-0.140080	-0.655873
H88	H	1.337399	0.276613	-0.909267
H89	H	1.162608	0.421940	-0.656283
H90	H	1.142871	0.124081	0.155694
