data_functionalizedCrystal
_audit_creation_method	'MofGen! by Chris Wilmer'
_symmetry_space_group_name_H-M	'P1'
_symmetry_Int_Tables_number	1
_symmetry_cell_setting	triclinic
loop_
_symmetry_equiv_pos_as_xyz
  x,y,z
_cell_length_a	14.519710
_cell_length_b	10.654550
_cell_length_c	9.130313
_cell_angle_alpha	90.000110
_cell_angle_beta	90.000703
_cell_angle_gamma	95.917476
loop_
_atom_site_label
_atom_site_type_symbol
_atom_site_fract_x
_atom_site_fract_y
_atom_site_fract_z
O1	O	1.224716	-0.164617	-0.121763
O2	O	0.956339	-0.184004	-0.121773
O3	O	1.096698	0.008488	-0.121763
O4	O	1.084357	-0.357109	-0.121774
O5	O	1.096696	0.008483	0.121836
O6	O	0.956338	-0.184009	0.121826
O7	O	1.224714	-0.164623	0.121835
Cu8	Cu	1.090526	-0.174316	0.144073
Cu9	Cu	1.090528	-0.174310	-0.144011
O10	O	1.084355	-0.357114	0.121825
C11	C	0.921974	-0.183103	0.000025
C12	C	0.819579	-0.180396	0.000022
C13	C	1.259079	-0.165524	0.000034
C14	C	1.361475	-0.168231	0.000028
C15	C	1.095791	0.055275	0.000035
C16	C	1.093080	0.194692	0.000030
C17	C	1.736422	-0.178198	0.000027
C18	C	1.632100	-0.175430	0.000027
C19	C	1.548952	-0.173215	0.000026
C20	C	1.444623	-0.170446	0.000029
C21	C	1.085262	-0.403901	0.000024
C22	C	1.087973	-0.543318	0.000020
N23	N	1.090531	-0.174320	0.346696
C24	C	1.175721	0.274972	0.000037
C25	C	1.173168	0.405968	0.000027
C26	C	1.005326	0.376391	0.000008
C27	C	1.007880	0.245397	0.000008
C28	C	1.272623	0.292049	0.000054
C29	C	1.270070	0.423046	0.000044
N30	N	1.090530	-0.174297	-0.346633
C31	C	1.152698	-0.089113	0.423352
C32	C	1.152695	-0.089098	0.576689
C33	C	1.028356	-0.259507	0.576699
C34	C	1.028355	-0.259515	0.423365
C35	C	1.224487	0.009267	0.423348
C36	C	1.224484	0.009283	0.576685
H37	H	0.940586	0.180037	-0.000019
H38	H	0.935959	0.417692	-0.000011
O39	O	1.203640	0.136921	0.368165
H40	H	1.134632	0.157170	0.408691
O41	O	1.313504	0.245247	0.139374
H42	H	1.261520	0.177455	0.194461
O43	O	1.318353	-0.018335	0.631817
H44	H	1.310619	-0.105405	0.699355
H45	H	1.291445	-0.020677	0.375791
O46	O	1.308857	0.483899	-0.139269
H47	H	1.305181	0.587322	-0.133524
H48	H	1.202078	0.100290	0.624233
O49	O	0.961296	-0.351402	0.340675
H50	H	0.973663	-0.449344	0.370098
H51	H	1.310526	0.263058	-0.101883
H52	H	1.306581	0.465155	0.101989
O53	O	0.961303	-0.351405	0.659390
H54	H	0.971751	-0.337092	0.778893
