data_functionalizedCrystal
_audit_creation_method	'MofGen! by Chris Wilmer'
_symmetry_space_group_name_H-M	'P1'
_symmetry_Int_Tables_number	1
_symmetry_cell_setting	triclinic
loop_
_symmetry_equiv_pos_as_xyz
  x,y,z
_cell_length_a	15.944493
_cell_length_b	19.188924
_cell_length_c	18.266242
_cell_angle_alpha	90.006564
_cell_angle_beta	90.005061
_cell_angle_gamma	83.308504
loop_
_atom_site_label
_atom_site_type_symbol
_atom_site_fract_x
_atom_site_fract_y
_atom_site_fract_z
O1	O	1.114217	0.089855	0.060875
O2	O	1.364217	0.339855	0.310875
O3	O	1.614217	0.589855	0.560875
O4	O	1.864217	0.839855	0.810875
O5	O	0.869619	0.100999	0.060879
O6	O	1.119619	0.350999	0.310879
O7	O	1.369619	0.600999	0.560879
O8	O	1.619619	0.850999	0.810879
O9	O	0.998979	-0.006212	0.060868
O10	O	1.248979	0.243788	0.310868
O11	O	1.498979	0.493788	0.560868
O12	O	1.748979	0.743788	0.810868
O13	O	0.984856	0.197066	0.060885
O14	O	1.234856	0.447066	0.310885
O15	O	1.484856	0.697066	0.560885
O16	O	1.734856	0.947066	0.810885
O17	O	0.998966	-0.006214	-0.060894
O18	O	1.248966	0.243786	0.189106
O19	O	1.498966	0.493786	0.439106
O20	O	1.748966	0.743786	0.689106
O21	O	0.869605	0.100997	-0.060883
O22	O	1.119605	0.350997	0.189117
O23	O	1.369605	0.600997	0.439117
O24	O	1.619605	0.850997	0.689117
O25	O	1.114203	0.089853	-0.060887
O26	O	1.364203	0.339853	0.189113
O27	O	1.614203	0.589853	0.439113
O28	O	1.864203	0.839853	0.689113
Zn29	Zn	0.991902	0.095424	-0.080218
Zn30	Zn	1.241902	0.345424	0.169782
Zn31	Zn	1.491902	0.595424	0.419782
Zn32	Zn	1.741902	0.845424	0.669782
Zn33	Zn	0.991920	0.095428	0.080209
Zn34	Zn	1.241920	0.345428	0.330209
Zn35	Zn	1.491920	0.595428	0.580209
Zn36	Zn	1.741920	0.845428	0.830209
O37	O	0.984842	0.197064	-0.060877
O38	O	1.234842	0.447064	0.189123
O39	O	1.484842	0.697064	0.439123
O40	O	1.734842	0.947064	0.689123
C41	C	0.838319	0.100543	-0.000002
C42	C	1.088319	0.350543	0.249998
C43	C	1.338319	0.600543	0.499998
C44	C	1.588319	0.850543	0.749998
C45	C	0.745075	0.099177	-0.000001
C46	C	0.995075	0.349177	0.249999
C47	C	1.245075	0.599177	0.499999
C48	C	1.495075	0.849177	0.749999
C49	C	0.509077	0.162284	0.000005
C50	C	0.759077	0.412284	0.250005
C51	C	1.009077	0.662284	0.500005
C52	C	1.259077	0.912284	0.750005
C53	C	0.458640	0.128252	-0.060036
C54	C	0.708640	0.378252	0.189964
C55	C	0.958640	0.628252	0.439964
C56	C	1.208640	0.878252	0.689964
C57	C	0.574364	0.096647	-0.000002
C58	C	0.824364	0.346647	0.249998
C59	C	1.074364	0.596647	0.499998
C60	C	1.324364	0.846647	0.749998
C61	C	0.458659	0.128239	0.060012
C62	C	0.708659	0.378239	0.310012
C63	C	0.958659	0.628239	0.560012
C64	C	1.208659	0.878239	0.810012
C65	C	0.409463	0.094207	-0.000001
C66	C	0.659463	0.344207	0.249999
C67	C	0.909463	0.594207	0.499999
C68	C	1.159463	0.844207	0.749999
C69	C	0.525155	0.062632	-0.060093
C70	C	0.775155	0.312632	0.189907
C71	C	1.025155	0.562632	0.439907
C72	C	1.275155	0.812632	0.689907
C73	C	0.525177	0.062629	0.060009
C74	C	0.775177	0.312629	0.310009
C75	C	1.025177	0.562629	0.560009
C76	C	1.275177	0.812629	0.810009
C77	C	0.474773	0.028548	-0.000047
C78	C	0.724773	0.278548	0.249953
C79	C	0.974773	0.528548	0.499953
C80	C	1.224773	0.778548	0.749953
C81	C	0.669358	0.098054	-0.000004
C82	C	0.919358	0.348054	0.249996
C83	C	1.169358	0.598054	0.499996
C84	C	1.419358	0.848054	0.749996
C85	C	0.314472	0.092795	-0.000004
C86	C	0.564472	0.342795	0.249996
C87	C	0.814472	0.592795	0.499996
C88	C	1.064472	0.842795	0.749996
C89	C	0.998516	-0.032225	-0.000014
C90	C	1.248516	0.217775	0.249986
C91	C	1.498516	0.467775	0.499986
C92	C	1.748516	0.717775	0.749986
C93	C	0.997146	-0.109733	-0.000016
C94	C	1.247146	0.140267	0.249984
C95	C	1.497146	0.390267	0.499984
C96	C	1.747146	0.640267	0.749984
C97	C	0.996514	-0.146132	0.066357
C98	C	1.246514	0.103868	0.316357
C99	C	1.496514	0.353868	0.566357
C100	C	1.746514	0.603868	0.816357
C101	C	0.995215	-0.218958	0.066363
C102	C	1.245215	0.031042	0.316363
C103	C	1.495215	0.281042	0.566363
C104	C	1.745215	0.531042	0.816363
C105	C	0.994565	-0.255384	-0.000008
C106	C	1.244565	-0.005384	0.249992
C107	C	1.494565	0.244616	0.499992
C108	C	1.744565	0.494616	0.749992
C109	C	0.995192	-0.218976	-0.066390
C110	C	1.245192	0.031024	0.183610
C111	C	1.495192	0.281024	0.433610
C112	C	1.745192	0.531024	0.683610
C113	C	0.996482	-0.146150	-0.066393
C114	C	1.246482	0.103850	0.183607
C115	C	1.496482	0.353850	0.433607
C116	C	1.746482	0.603850	0.683607
N117	N	1.040333	-0.374938	-0.049407
N118	N	1.290333	-0.124938	0.200593
N119	N	1.540333	0.125062	0.450593
N120	N	1.790333	0.375062	0.700593
N121	N	1.039109	-0.444119	-0.049399
N122	N	1.289109	-0.194119	0.200601
N123	N	1.539109	0.055881	0.450601
N124	N	1.789109	0.305881	0.700601
C125	C	0.990674	-0.474803	-0.000001
C126	C	1.240674	-0.224803	0.249999
C127	C	1.490674	0.025197	0.499999
C128	C	1.740674	0.275197	0.749999
N129	N	0.943520	-0.433692	0.049400
N130	N	1.193520	-0.183692	0.299400
N131	N	1.443520	0.066308	0.549400
N132	N	1.693520	0.316308	0.799400
N133	N	0.944748	-0.364505	0.049394
N134	N	1.194748	-0.114505	0.299394
N135	N	1.444748	0.135495	0.549394
N136	N	1.694748	0.385495	0.799394
C137	C	0.993164	-0.334351	-0.000012
C138	C	1.243164	-0.084351	0.249988
C139	C	1.493164	0.165649	0.499988
C140	C	1.743164	0.415649	0.749988
C141	C	0.988632	-0.590168	0.066382
C142	C	1.238632	-0.340168	0.316382
C143	C	1.488632	-0.090168	0.566382
C144	C	1.738632	0.159832	0.816382
C145	C	0.987328	-0.662994	0.066385
C146	C	1.237328	-0.412994	0.316385
C147	C	1.487328	-0.162994	0.566385
C148	C	1.737328	0.087006	0.816385
C149	C	0.987313	-0.663011	-0.066369
C150	C	1.237313	-0.413011	0.183631
C151	C	1.487313	-0.163011	0.433631
C152	C	1.737313	0.086989	0.683631
C153	C	0.988609	-0.590185	-0.066370
C154	C	1.238609	-0.340185	0.183630
C155	C	1.488609	-0.090185	0.433630
C156	C	1.738609	0.159815	0.683630
C157	C	0.989272	-0.553768	0.000008
C158	C	1.239272	-0.303768	0.250008
C159	C	1.489272	-0.053768	0.500008
C160	C	1.739272	0.196232	0.750008
C161	C	1.145503	0.090309	-0.000005
C162	C	1.395503	0.340309	0.249995
C163	C	1.645503	0.590309	0.499995
C164	C	1.895503	0.840309	0.749995
C165	C	1.238747	0.091675	-0.000002
C166	C	1.488747	0.341675	0.249998
C167	C	1.738747	0.591675	0.499998
C168	C	1.988747	0.841675	0.749998
C169	C	0.985306	0.223077	0.000007
C170	C	1.235306	0.473077	0.250007
C171	C	1.485306	0.723077	0.500007
C172	C	1.735306	0.973077	0.750007
C173	C	0.986676	0.300585	0.000013
C174	C	1.236676	0.550585	0.250013
C175	C	1.486676	0.800585	0.500013
C176	C	1.736676	1.050585	0.750013
N177	N	0.991895	0.095422	-0.189705
N178	N	1.241895	0.345422	0.060295
N179	N	1.491895	0.595422	0.310295
N180	N	1.741895	0.845422	0.560295
C181	C	1.049215	0.047965	-0.771987
C182	C	1.299215	0.297965	-0.521987
C183	C	1.549215	0.547965	-0.271987
C184	C	1.799215	0.797965	-0.021987
C185	C	1.049217	0.047966	-0.695342
C186	C	1.299217	0.297966	-0.445342
C187	C	1.549217	0.547966	-0.195342
C188	C	1.799217	0.797966	0.054658
C189	C	0.991921	0.095421	-0.657017
C190	C	1.241921	0.345421	-0.407017
C191	C	1.491921	0.595421	-0.157017
C192	C	1.741921	0.845421	0.092983
C193	C	0.934634	0.142890	-0.695344
C194	C	1.184634	0.392890	-0.445344
C195	C	1.434634	0.642890	-0.195344
C196	C	1.684634	0.892890	0.054656
C197	C	0.934640	0.142892	-0.771987
C198	C	1.184640	0.392892	-0.521987
C199	C	1.434640	0.642892	-0.271987
C200	C	1.684640	0.892892	-0.021987
N201	N	0.917556	0.104290	-0.536689
N202	N	1.167556	0.354290	-0.286689
N203	N	1.417556	0.604290	-0.036689
N204	N	1.667556	0.854290	0.213311
N205	N	0.917553	0.104284	-0.463881
N206	N	1.167553	0.354284	-0.213881
N207	N	1.417553	0.604284	0.036119
N208	N	1.667553	0.854284	0.286119
C209	C	0.991900	0.095420	-0.426095
C210	C	1.241900	0.345420	-0.176095
C211	C	1.491900	0.595420	0.073905
C212	C	1.741900	0.845420	0.323905
N213	N	1.066253	0.086548	-0.463867
N214	N	1.316253	0.336548	-0.213867
N215	N	1.566253	0.586548	0.036133
N216	N	1.816253	0.836548	0.286133
N217	N	1.066256	0.086550	-0.536682
N218	N	1.316256	0.336550	-0.286682
N219	N	1.566256	0.586550	-0.036682
N220	N	1.816256	0.836550	0.213318
C221	C	0.991908	0.095425	-0.573910
C222	C	1.241908	0.345425	-0.323910
C223	C	1.491908	0.595425	-0.073910
C224	C	1.741908	0.845425	0.176090
C225	C	1.049188	0.047959	-0.304670
C226	C	1.299188	0.297959	-0.054670
C227	C	1.549188	0.547959	0.195330
C228	C	1.799188	0.797959	0.445330
C229	C	1.049191	0.047965	-0.228024
C230	C	1.299191	0.297965	0.021976
C231	C	1.549191	0.547965	0.271976
C232	C	1.799191	0.797965	0.521976
C233	C	0.934601	0.142886	-0.228028
C234	C	1.184601	0.392886	0.021972
C235	C	1.434601	0.642886	0.271972
C236	C	1.684601	0.892886	0.521972
C237	C	0.934606	0.142883	-0.304672
C238	C	1.184606	0.392883	-0.054672
C239	C	1.434606	0.642883	0.195328
C240	C	1.684606	0.892883	0.445328
C241	C	0.991899	0.095416	-0.342989
C242	C	1.241899	0.345416	-0.092989
C243	C	1.491899	0.595416	0.157011
C244	C	1.741899	0.845416	0.407011
N245	N	0.991933	0.095425	0.189696
N246	N	1.241933	0.345425	0.439696
N247	N	1.491933	0.595425	0.689696
N248	N	1.741933	0.845425	0.939696
H249	H	0.524488	0.218823	-0.000046
H250	H	0.774488	0.468823	0.249954
H251	H	1.024488	0.718823	0.499954
H252	H	1.274488	0.968823	0.749954
F253	F	0.986616	-0.701773	-0.137007
F254	F	1.236616	-0.451773	0.112993
F255	F	1.486616	-0.201773	0.362993
F256	F	1.736616	0.048227	0.612993
H257	H	0.459520	-0.028034	-0.000087
H258	H	0.709520	0.221966	0.249913
H259	H	0.959520	0.471966	0.499913
H260	H	1.209520	0.721966	0.749913
F261	F	0.997216	-0.107378	0.137002
F262	F	1.247216	0.142622	0.387002
F263	F	1.497216	0.392622	0.637002
F264	F	1.747216	0.642622	0.887002
H265	H	0.989130	-0.560549	-0.120418
H266	H	1.239130	-0.310549	0.129582
H267	H	1.489130	-0.060549	0.379582
H268	H	1.739130	0.189451	0.629582
F269	F	0.986649	-0.701732	0.137032
F270	F	1.236649	-0.451732	0.387032
F271	F	1.486649	-0.201732	0.637032
F272	F	1.736649	0.048268	0.887032
F273	F	0.994542	-0.257705	0.137008
F274	F	1.244542	-0.007705	0.387008
F275	F	1.494542	0.242295	0.637008
F276	F	1.744542	0.492295	0.887008
F277	F	0.563167	0.026432	0.126352
F278	F	0.813167	0.276432	0.376352
F279	F	1.063167	0.526432	0.626352
F280	F	1.313167	0.776432	0.876352
F281	F	0.562960	0.026422	-0.126507
F282	F	0.812960	0.276422	0.123493
F283	F	1.062960	0.526422	0.373493
F284	F	1.312960	0.776422	0.623493
F285	F	0.420706	0.164487	0.126350
F286	F	0.670706	0.414487	0.376350
F287	F	0.920706	0.664487	0.626350
F288	F	1.170706	0.914487	0.876350
F289	F	1.110165	-0.002547	-0.187242
F290	F	1.360165	0.247453	0.062758
F291	F	1.610165	0.497453	0.312758
F292	F	1.860165	0.747453	0.562758
H293	H	0.994660	-0.248638	-0.120429
H294	H	1.244660	0.001362	0.129571
H295	H	1.494660	0.251362	0.379571
H296	H	1.744660	0.501362	0.629571
H297	H	1.095842	0.009310	-0.335869
H298	H	1.345842	0.259310	-0.085869
H299	H	1.595842	0.509310	0.164131
H300	H	1.845842	0.759310	0.414131
F301	F	0.873670	0.193407	-0.812769
F302	F	1.123670	0.443407	-0.562769
F303	F	1.373670	0.693407	-0.312769
F304	F	1.623670	0.943407	-0.062769
F305	F	0.873635	0.193393	-0.345456
F306	F	1.123635	0.443393	-0.095456
F307	F	1.373635	0.693393	0.154544
F308	F	1.623635	0.943393	0.404544
H309	H	1.095868	0.009316	-0.803182
H310	H	1.345868	0.259316	-0.553182
H311	H	1.595868	0.509316	-0.303182
H312	H	1.845868	0.759316	-0.053182
F313	F	1.110187	-0.002550	-0.654555
F314	F	1.360187	0.247450	-0.404555
F315	F	1.610187	0.497450	-0.154555
F316	F	1.860187	0.747450	0.095445
F317	F	0.873628	0.193395	-0.187243
F318	F	1.123628	0.443395	0.062757
F319	F	1.373628	0.693395	0.312757
F320	F	1.623628	0.943395	0.562757
F321	F	0.420671	0.164480	-0.126375
F322	F	0.670671	0.414480	0.123625
F323	F	0.920671	0.664480	0.373625
F324	F	1.170671	0.914480	0.623625
F325	F	0.997153	-0.107410	-0.137039
F326	F	1.247153	0.142590	0.112961
F327	F	1.497153	0.392590	0.362961
F328	F	1.747153	0.642590	0.612961
H329	H	0.989167	-0.560515	0.120431
H330	H	1.239167	-0.310515	0.370431
H331	H	1.489167	-0.060515	0.620431
H332	H	1.739167	0.189485	0.870431
F333	F	0.873659	0.193398	-0.654556
F334	F	1.123659	0.443398	-0.404556
F335	F	1.373659	0.693398	-0.154556
F336	F	1.623659	0.943398	0.095444
