data_functionalizedCrystal
_audit_creation_method	'MofGen! by Chris Wilmer'
_symmetry_space_group_name_H-M	'P1'
_symmetry_Int_Tables_number	1
_symmetry_cell_setting	triclinic
loop_
_symmetry_equiv_pos_as_xyz
  x,y,z
_cell_length_a	17.766277
_cell_length_b	19.288862
_cell_length_c	19.288857
_cell_angle_alpha	96.865805
_cell_angle_beta	90.008526
_cell_angle_gamma	89.973986
loop_
_atom_site_label
_atom_site_type_symbol
_atom_site_fract_x
_atom_site_fract_y
_atom_site_fract_z
O1	O	0.062888	-0.921352	0.086641
O2	O	0.562888	-0.421352	0.586641
O3	O	0.062826	-0.719091	0.098332
O4	O	0.562826	-0.219091	0.598332
O5	O	0.062850	-0.826068	-0.008644
O6	O	0.562850	-0.326068	0.491356
O7	O	0.062864	-0.814374	0.193617
O8	O	0.562864	-0.314374	0.693617
O9	O	-0.062339	-0.826050	-0.008650
O10	O	0.437661	-0.326050	0.491350
O11	O	-0.062362	-0.719072	0.098326
O12	O	0.437638	-0.219072	0.598326
O13	O	-0.062300	-0.921333	0.086636
O14	O	0.437700	-0.421333	0.586636
Cu15	Cu	-0.073762	-0.820201	0.092481
Cu16	Cu	0.426238	-0.320201	0.592481
Cu17	Cu	0.074288	-0.820223	0.092487
Cu18	Cu	0.574288	-0.320223	0.592487
O19	O	-0.062324	-0.814355	0.193612
O20	O	0.437676	-0.314355	0.693612
C21	C	0.000224	-0.693205	0.097953
C22	C	0.500224	-0.193205	0.597953
C23	C	0.000200	-0.616101	0.096825
C24	C	0.500200	-0.116101	0.596825
N25	N	-0.177892	-0.820190	0.092476
N26	N	0.322108	-0.320190	0.592476
C27	C	0.000214	-0.571403	0.159593
C28	C	0.500214	-0.071403	0.659593
C29	C	0.000219	-0.498956	0.158533
C30	C	0.500219	0.001044	0.658533
C31	C	0.000224	-0.471210	0.094701
C32	C	0.500224	0.028790	0.594701
C33	C	0.000206	-0.515918	0.031924
C34	C	0.500206	-0.015918	0.531924
C35	C	0.000194	-0.588363	0.032986
C36	C	0.500194	-0.088363	0.532986
C37	C	0.044099	-0.362956	0.044525
C38	C	0.544099	0.137044	0.544525
C39	C	0.044116	-0.290511	0.043465
C40	C	0.544116	0.209489	0.543465
C41	C	0.000257	-0.247764	0.091423
C42	C	0.500257	0.252236	0.591423
C43	C	-0.043607	-0.277469	0.140452
C44	C	0.456393	0.222531	0.640452
C45	C	-0.043619	-0.349915	0.141514
C46	C	0.456381	0.150085	0.641514
C47	C	0.000237	-0.392656	0.093543
C48	C	0.500237	0.107344	0.593543
C49	C	0.000275	-0.124510	0.153047
C50	C	0.500275	0.375490	0.653047
C51	C	0.000275	-0.052062	0.151984
C52	C	0.500275	0.447938	0.651984
C53	C	0.000270	-0.069026	0.025373
C54	C	0.500270	0.430974	0.525373
C55	C	0.000262	-0.141472	0.026438
C56	C	0.500262	0.358528	0.526438
C57	C	0.000269	-0.169210	0.090276
C58	C	0.500269	0.330790	0.590276
C59	C	-0.217269	-0.867575	0.045130
C60	C	0.282731	-0.367575	0.545130
C61	C	-0.296071	-0.867579	0.045127
C62	C	0.203929	-0.367579	0.545127
C63	C	-0.335493	-0.820205	0.092481
C64	C	0.164507	-0.320205	0.592481
C65	C	-0.296107	-0.772811	0.139831
C66	C	0.203893	-0.272811	0.639831
C67	C	-0.217307	-0.772804	0.139828
C68	C	0.282693	-0.272804	0.639828
C69	C	-0.460328	-0.810904	0.155769
C70	C	0.039672	-0.310904	0.655769
C71	C	-0.539127	-0.810916	0.155773
C72	C	-0.039127	-0.310916	0.655773
C73	C	-0.578539	-0.820223	0.092490
C74	C	-0.078539	-0.320223	0.592490
C75	C	-0.539143	-0.829533	0.029200
C76	C	-0.039143	-0.329533	0.529200
C77	C	-0.460343	-0.829526	0.029197
C78	C	0.039657	-0.329526	0.529197
C79	C	-0.420939	-0.820207	0.092489
C80	C	0.079061	-0.320207	0.592489
C81	C	-0.703362	-0.867615	0.045136
C82	C	-0.203362	-0.367615	0.545136
C83	C	-0.782165	-0.867615	0.045132
C84	C	-0.282165	-0.367615	0.545132
C85	C	-0.782200	-0.772850	0.139842
C86	C	-0.282200	-0.272850	0.639842
C87	C	-0.703398	-0.772847	0.139840
C88	C	-0.203398	-0.272847	0.639840
C89	C	-0.663984	-0.820234	0.092488
C90	C	-0.163984	-0.320234	0.592488
N91	N	0.178418	-0.820239	0.092486
N92	N	0.678418	-0.320239	0.592486
C93	C	0.000290	0.052781	0.087017
C94	C	0.500290	0.552781	0.587017
C95	C	0.000279	-0.024321	0.088151
C96	C	0.500279	0.475679	0.588151
C97	C	0.000255	-0.825684	-0.034523
C98	C	0.500255	-0.325684	0.465477
C99	C	0.000252	-0.824557	-0.111627
C100	C	0.500252	-0.324557	0.388373
C101	C	0.068493	-0.824041	-0.147835
C102	C	0.568493	-0.324041	0.352165
C103	C	0.068498	-0.822972	-0.220281
C104	C	0.568498	-0.322972	0.279719
C105	C	0.000259	-0.822433	-0.256518
C106	C	0.500259	-0.322433	0.243482
C107	C	-0.067990	-0.822945	-0.220302
C108	C	0.432010	-0.322945	0.279698
C109	C	-0.067994	-0.824007	-0.147856
C110	C	0.432006	-0.324007	0.352144
C111	C	-0.052004	-0.861427	-0.376752
C112	C	0.447996	-0.361427	0.123248
C113	C	-0.051998	-0.860370	-0.449197
C114	C	0.448002	-0.360370	0.050803
C115	C	0.000267	-0.819156	-0.479964
C116	C	0.500267	-0.319156	0.020036
C117	C	0.052537	-0.779008	-0.438279
C118	C	0.552537	-0.279008	0.061721
C119	C	0.052534	-0.780069	-0.365833
C120	C	0.552534	-0.280069	0.134167
C121	C	0.000255	-0.821282	-0.335073
C122	C	0.500255	-0.321282	0.164927
C123	C	0.068517	-0.817480	-0.594726
C124	C	0.568517	-0.317480	-0.094726
C125	C	0.068520	-0.816407	-0.667173
C126	C	0.568520	-0.316407	-0.167173
C127	C	-0.067970	-0.816387	-0.667193
C128	C	0.432030	-0.316387	-0.167193
C129	C	-0.067971	-0.817453	-0.594747
C130	C	0.432029	-0.317453	-0.094747
C131	C	0.000275	-0.818003	-0.558518
C132	C	0.500275	-0.318003	-0.058518
C133	C	0.000273	-0.814740	0.219491
C134	C	0.500273	-0.314740	0.719491
C135	C	0.000280	-0.815867	0.296595
C136	C	0.500280	-0.315867	0.796595
H137	H	0.000221	-0.593982	0.211576
H138	H	0.500221	-0.093982	0.711576
F139	F	0.000179	-0.635937	-0.033824
F140	F	0.500179	-0.135937	0.466176
H141	H	0.000282	-0.015669	0.203100
H142	H	0.500282	0.484331	0.703100
H143	H	0.124091	-0.815984	-0.696651
H144	H	0.624091	-0.315984	-0.196651
H145	H	-0.671269	-0.906198	0.006577
H146	H	-0.171269	-0.406198	0.506577
F147	F	-0.140602	-0.818002	-0.556210
F148	F	0.359398	-0.318002	-0.056210
H149	H	-0.428245	-0.803313	0.207305
H150	H	0.071755	-0.303313	0.707305
H151	H	0.124064	-0.824487	-0.118342
H152	H	0.624064	-0.324487	0.381658
F153	F	0.090781	-0.408444	-0.006523
F154	F	0.590781	0.091556	0.493477
H155	H	0.000228	-0.462556	0.209648
H156	H	0.500228	0.037444	0.709648
F157	F	-0.175323	-0.918005	-0.005268
F158	F	0.324677	-0.418005	0.494732
H159	H	-0.328137	-0.906167	0.006570
H160	H	0.171863	-0.406167	0.506570
H161	H	-0.814226	-0.906199	0.006574
H162	H	-0.314226	-0.406199	0.506574
F163	F	0.108161	-0.737341	-0.321471
F164	F	0.608161	-0.237341	0.178529
F165	F	-0.107622	-0.905310	-0.344018
F166	F	0.392378	-0.405310	0.155982
F167	F	-0.090288	-0.231980	0.191497
F168	F	0.409712	0.268020	0.691497
F169	F	-0.140615	-0.822367	-0.258868
F170	F	0.359385	-0.322367	0.241132
F171	F	-0.338063	-0.722389	0.190227
F172	F	0.161937	-0.222389	0.690227
F173	F	-0.175398	-0.722368	0.190222
F174	F	0.324602	-0.222368	0.690222
H175	H	-0.123565	-0.824424	-0.118376
H176	H	0.376435	-0.324424	0.381624
H177	H	-0.079338	-0.374097	0.181433
H178	H	0.420662	0.125903	0.681433
H179	H	0.000255	-0.177867	-0.024675
H180	H	0.500255	0.322133	0.475325
H181	H	-0.571197	-0.803341	0.207307
H182	H	-0.071197	-0.303341	0.707307
H183	H	-0.814297	-0.734274	0.178396
H184	H	-0.314297	-0.234274	0.678396
H185	H	0.000270	-0.147095	0.205028
H186	H	0.500270	0.352905	0.705028
F187	F	-0.661487	-0.722416	0.190235
F188	F	-0.161487	-0.222416	0.690235
H189	H	-0.428270	-0.837104	-0.022335
H190	H	0.071730	-0.337104	0.477665
H191	H	-0.123532	-0.815943	-0.696696
H192	H	0.376468	-0.315943	-0.196696
F193	F	0.000268	-0.039502	-0.042562
F194	F	0.500268	0.460498	0.457438
H195	H	0.079836	-0.266331	0.003546
H196	H	0.579836	0.233669	0.503546
F197	F	0.141131	-0.822423	-0.258824
F198	F	0.641131	-0.322423	0.241176
H199	H	0.000220	-0.493323	-0.020048
H200	H	0.500220	0.006677	0.479952
H201	H	-0.571231	-0.837111	-0.022332
H202	H	-0.071231	-0.337111	0.477668
H203	H	0.095096	-0.745447	-0.463327
H204	H	0.595096	-0.245447	0.036673
H205	H	0.124087	-0.817924	-0.565227
H206	H	0.624087	-0.317924	-0.065227
F207	F	-0.107626	-0.903101	-0.493556
F208	F	0.392374	-0.403101	0.006444
