data_functionalizedCrystal
_audit_creation_method	'MofGen! by Chris Wilmer'
_symmetry_space_group_name_H-M	'P1'
_symmetry_Int_Tables_number	1
_symmetry_cell_setting	triclinic
loop_
_symmetry_equiv_pos_as_xyz
  x,y,z
_cell_length_a	14.853567
_cell_length_b	10.489716
_cell_length_c	13.930277
_cell_angle_alpha	89.999515
_cell_angle_beta	89.995755
_cell_angle_gamma	84.082033
loop_
_atom_site_label
_atom_site_type_symbol
_atom_site_fract_x
_atom_site_fract_y
_atom_site_fract_z
O1	O	1.197292	0.166530	-0.079756
O2	O	0.934942	0.186368	-0.079771
O3	O	1.072098	-0.009218	-0.079767
O4	O	1.060136	0.362116	-0.079760
O5	O	1.072079	-0.009223	0.079895
O6	O	0.934923	0.186363	0.079891
O7	O	1.197273	0.166526	0.079906
Zn8	Zn	1.066095	0.176444	0.105248
Zn9	Zn	1.066120	0.176449	-0.105113
O10	O	1.060117	0.362111	0.079901
C11	C	0.901339	0.185467	0.000058
C12	C	0.801240	0.182773	0.000051
C13	C	0.387999	0.055204	0.000071
C14	C	0.368007	0.287565	0.000074
C15	C	0.462054	0.290098	0.000071
C16	C	0.519079	0.175182	0.000066
C17	C	0.482056	0.057734	0.000065
C18	C	0.499085	0.407544	0.000062
C19	C	0.593138	0.410081	0.000058
C20	C	0.650164	0.295164	0.000061
C21	C	0.613136	0.177711	0.000060
C22	C	0.670160	0.062795	0.000056
C23	C	0.633134	-0.054659	0.000062
C24	C	0.539082	-0.057183	0.000067
C25	C	0.744216	0.297689	0.000056
C26	C	0.764217	0.065325	0.000050
C27	C	1.071190	-0.056743	0.000061
C28	C	1.068501	-0.198343	0.000052
C29	C	1.152609	-0.296961	0.000066
C30	C	1.108174	-0.373821	-0.078656
C31	C	1.108135	-0.373789	0.078758
C32	C	1.024101	-0.273338	-0.078734
C33	C	1.024075	-0.273301	0.078750
C34	C	0.979577	-0.350111	0.000009
C35	C	1.230876	0.167426	0.000075
C36	C	1.330974	0.170120	0.000075
C37	C	1.061025	0.409636	0.000071
C38	C	1.063714	0.551236	0.000074
N39	N	1.066084	0.176439	0.248814
N40	N	1.066138	0.176444	-0.248679
C41	C	1.005385	0.263021	0.701081
C42	C	1.126880	0.089868	0.701055
C43	C	1.126869	0.089864	0.600559
C44	C	1.066116	0.176441	0.550320
C45	C	1.005374	0.263022	0.600576
C46	C	1.187617	0.003293	0.550295
C47	C	1.187609	0.003287	0.449793
C48	C	1.126851	0.089859	0.399552
C49	C	1.066106	0.176442	0.449815
C50	C	1.005353	0.263019	0.399576
C51	C	0.944602	0.349597	0.449836
C52	C	0.944616	0.349594	0.550335
C53	C	1.126837	0.089862	0.299053
C54	C	1.005342	0.263020	0.299071
H55	H	0.357848	-0.040424	0.000080
H56	H	0.321572	0.381124	0.000069
C57	C	0.826083	-0.059486	-0.000154
C58	C	0.809249	-0.130178	-0.082306
C59	C	0.866230	-0.245151	-0.082534
H60	H	0.814832	-0.107789	0.055460
H61	H	0.887414	-0.041216	-0.000214
H62	H	0.747933	-0.148452	-0.082238
H63	H	0.820506	-0.081914	-0.137934
H64	H	0.927561	-0.226881	-0.082594
H65	H	0.854974	-0.293443	-0.026916
H66	H	0.854822	-0.293124	-0.138277
H67	H	0.452649	0.501102	0.000056
H68	H	0.508926	-0.152809	0.000095
H69	H	0.988592	-0.229386	0.145303
H70	H	0.623276	0.505720	0.000053
H71	H	1.237074	-0.067211	0.408877
H72	H	0.955866	0.333518	0.258172
C73	C	0.695009	-0.179462	-0.000144
C74	C	0.678180	-0.250157	-0.082296
C75	C	0.735173	-0.365119	-0.082527
H76	H	0.683765	-0.227769	0.055470
H77	H	0.756336	-0.161177	-0.000206
H78	H	0.616867	-0.268445	-0.082226
H79	H	0.689429	-0.201888	-0.137924
H80	H	0.796501	-0.346834	-0.082589
H81	H	0.723925	-0.413415	-0.026910
H82	H	0.723769	-0.413094	-0.138270
H83	H	1.176348	0.019386	0.741963
H84	H	0.895140	0.420095	0.408920
H85	H	1.143651	-0.417662	0.145310
H86	H	0.906363	-0.373719	-0.000037
H87	H	1.237084	-0.067189	0.591203
C88	C	0.784591	0.425066	0.000002
C89	C	0.879162	0.402688	-0.000023
C90	C	0.916385	0.520004	-0.000083
H91	H	0.765166	0.472489	0.055663
H92	H	0.765124	0.472397	-0.055700
H93	H	0.898621	0.355377	0.055673
H94	H	0.898612	0.355285	-0.055680
H95	H	0.896918	0.567335	-0.055785
H96	H	0.896954	0.567418	0.055579
H97	H	0.980555	0.504837	-0.000109
C98	C	1.192827	-0.004267	0.244658
C99	C	1.246023	-0.080102	0.310166
C100	C	1.306817	-0.166846	0.260093
H101	H	1.230724	0.041569	0.205439
H102	H	1.160078	-0.057525	0.205484
H103	H	1.278770	-0.026851	0.349324
H104	H	1.208151	-0.125967	0.349387
H105	H	1.274068	-0.220103	0.220919
H106	H	1.344708	-0.120998	0.220876
H107	H	1.342912	-0.218317	0.304532
C108	C	0.878771	0.443539	0.605078
C109	C	0.891806	0.425033	0.703843
C110	C	0.831178	0.511565	0.754305
H111	H	0.818472	0.429620	0.588743
H112	H	0.889114	0.528720	0.588658
H113	H	0.881455	0.339872	0.720256
H114	H	0.952092	0.438962	0.720207
H115	H	0.841522	0.596746	0.737885
H116	H	0.770883	0.497639	0.737962
H117	H	0.840020	0.499029	0.821322
H118	H	1.225769	-0.273106	-0.000010
C119	C	1.155348	-0.432389	-0.167477
C120	C	1.093707	-0.494433	-0.221934
C121	C	1.137133	-0.548379	-0.303766
H122	H	1.204343	-0.492595	-0.148679
H123	H	1.177612	-0.366678	-0.204858
H124	H	1.071456	-0.560137	-0.184561
H125	H	1.044710	-0.434255	-0.240757
H126	H	1.159397	-0.482668	-0.341147
H127	H	1.186127	-0.608579	-0.284959
H128	H	1.095314	-0.590472	-0.340729
C129	C	0.976890	-0.214844	-0.167554
C130	C	0.980052	-0.081911	-0.166563
C131	C	0.936590	-0.027985	-0.248376
H132	H	0.915591	-0.233204	-0.167877
H133	H	1.006576	-0.250066	-0.223404
H134	H	0.950364	-0.046700	-0.110727
H135	H	1.041340	-0.063514	-0.166254
H136	H	0.966276	-0.063207	-0.304227
H137	H	0.875294	-0.046354	-0.248693
H138	H	0.938738	0.062214	-0.247720
H139	H	0.955920	0.333508	0.742006
