data_functionalizedCrystal
_audit_creation_method	'MofGen! by Chris Wilmer'
_symmetry_space_group_name_H-M	'P1'
_symmetry_Int_Tables_number	1
_symmetry_cell_setting	triclinic
loop_
_symmetry_equiv_pos_as_xyz
  x,y,z
_cell_length_a	14.971486
_cell_length_b	16.992695
_cell_length_c	13.448316
_cell_angle_alpha	89.993283
_cell_angle_beta	89.998199
_cell_angle_gamma	87.141176
loop_
_atom_site_label
_atom_site_type_symbol
_atom_site_fract_x
_atom_site_fract_y
_atom_site_fract_z
O1	O	1.194127	0.102190	-0.082578
O2	O	0.934587	0.114427	-0.082605
O3	O	1.063317	-0.005835	-0.082584
O4	O	1.065398	0.222452	-0.082599
O5	O	1.063299	-0.005843	0.082800
O6	O	0.934569	0.114420	0.082779
O7	O	1.194110	0.102182	0.082806
Cu8	Cu	1.064338	0.108300	0.097893
Cu9	Cu	1.064359	0.108309	-0.097692
O10	O	1.065380	0.222445	0.082785
C11	C	0.901215	0.113876	0.000083
C12	C	0.801803	0.112236	0.000073
C13	C	1.060631	-0.035054	0.000108
C14	C	1.052644	-0.122105	0.000107
C15	C	0.749541	0.182887	0.000070
C16	C	0.656133	0.181341	0.000085
C17	C	0.614988	0.109144	0.000096
C18	C	0.667257	0.038488	0.000102
C19	C	0.760663	0.040034	0.000095
C20	C	0.472568	0.035269	0.000116
C21	C	0.379155	0.033723	0.000122
C22	C	0.368038	0.176577	0.000106
C23	C	0.461445	0.178123	0.000099
C24	C	0.513707	0.107466	0.000103
C25	C	1.129708	-0.172274	0.000116
C26	C	1.122198	-0.254067	0.000106
C27	C	1.037623	-0.285691	0.000093
C28	C	0.960553	-0.235517	0.000081
C29	C	0.968064	-0.153724	0.000084
C30	C	1.006493	-0.529318	0.000076
C31	C	0.998988	-0.611117	0.000076
C32	C	1.160634	-0.629662	0.000099
C33	C	1.168138	-0.547867	0.000108
C34	C	1.091068	-0.497700	0.000090
N35	N	1.029945	-0.369297	0.000086
N36	N	1.098747	-0.414095	0.000091
C37	C	1.227482	0.102733	0.000115
C38	C	1.326894	0.104373	0.000119
C39	C	1.068066	0.251664	0.000091
C40	C	1.076053	0.338715	0.000085
N41	N	1.064329	0.108294	0.235457
N42	N	1.064374	0.108310	-0.235257
C43	C	1.121351	0.055064	0.287507
C44	C	1.121357	0.055063	0.391611
C45	C	1.064344	0.108297	0.443662
C46	C	1.007316	0.161530	0.391605
C47	C	1.007307	0.161526	0.287504
C48	C	1.007341	0.161535	0.608585
C49	C	1.007352	0.161540	0.712694
C50	C	1.121392	0.055072	0.712692
C51	C	1.121382	0.055068	0.608591
C52	C	1.064355	0.108302	0.556541
H53	H	0.783034	0.241679	0.000060
H54	H	0.960901	0.204881	0.566209
C55	C	0.598650	0.259063	0.000099
N56	N	0.555353	0.317607	0.000117
C57	C	0.944593	0.220080	0.448865
N58	N	0.897348	0.264182	0.491993
H59	H	0.345658	-0.025067	0.000133
H60	H	1.167788	0.011718	0.433989
C61	C	1.206976	-0.309249	0.000132
N62	N	1.270834	-0.350813	0.000156
H63	H	0.494942	0.236912	0.000080
H64	H	1.167781	0.011718	0.245134
C65	C	1.184099	-0.003492	0.551336
N66	N	1.231335	-0.047602	0.508212
C67	C	1.184119	-0.003489	0.769949
N68	N	1.231365	-0.047594	0.813079
C69	C	0.944586	0.220090	0.230249
N70	N	0.897343	0.264202	0.187127
H71	H	0.325482	0.234108	0.000107
C72	C	0.530054	-0.042457	0.000117
N73	N	0.573353	-0.101000	0.000112
C74	C	1.261177	-0.513088	0.000122
N75	N	1.331256	-0.486892	0.000137
H76	H	0.633749	-0.020297	0.000126
C77	C	0.944630	0.220095	0.769948
N78	N	0.897385	0.264199	0.813072
H79	H	0.803213	-0.017497	0.000097
H80	H	1.198578	-0.146533	0.000132
H81	H	1.223380	-0.670517	0.000111
C82	C	0.905945	-0.645900	0.000055
N83	N	0.835869	-0.672099	0.000039
C84	C	0.921713	-0.474144	0.000052
N85	N	0.857852	-0.432584	0.000031
H86	H	0.905310	-0.112878	0.000077
C87	C	0.867519	-0.270306	0.000076
N88	N	0.797444	-0.296508	0.000080
