data_functionalizedCrystal
_audit_creation_method	'MofGen! by Chris Wilmer'
_symmetry_space_group_name_H-M	'P1'
_symmetry_Int_Tables_number	1
_symmetry_cell_setting	triclinic
loop_
_symmetry_equiv_pos_as_xyz
  x,y,z
_cell_length_a	10.723024
_cell_length_b	17.666332
_cell_length_c	10.723024
_cell_angle_alpha	90.005257
_cell_angle_beta	84.467869
_cell_angle_gamma	90.009033
loop_
_atom_site_label
_atom_site_type_symbol
_atom_site_fract_x
_atom_site_fract_y
_atom_site_fract_z
O1	O	1.657197	0.062941	0.175029
O2	O	1.294045	0.062944	0.191783
O3	O	1.483998	0.062940	0.001830
O4	O	1.467244	0.062945	0.364982
O5	O	1.483964	-0.062957	0.001819
O6	O	1.294011	-0.062953	0.191772
O7	O	1.657163	-0.062955	0.175019
Cu8	Cu	1.475584	-0.074450	0.183395
Cu9	Cu	1.475624	0.074438	0.183407
O10	O	1.467211	-0.062951	0.364972
C11	C	1.247528	-0.000004	0.190558
C12	C	1.108974	-0.000003	0.186911
N13	N	1.475565	-0.179169	0.183385
C14	C	1.033991	-0.000001	0.293198
C15	C	0.890788	-0.000000	0.289431
C16	C	1.559704	-0.218781	0.099316
C17	C	1.559711	-0.298028	0.099310
C18	C	1.475592	-0.337661	0.183395
C19	C	1.391437	-0.298040	0.267471
C20	C	1.391424	-0.218794	0.267466
N21	N	1.460652	-0.462078	0.293680
N22	N	1.460672	-0.537358	0.293681
C23	C	1.475625	-0.576425	0.183413
N24	N	1.490581	-0.537368	0.073140
N25	N	1.490568	-0.462080	0.073141
C26	C	1.475596	-0.423590	0.183409
C27	C	1.559776	-0.701966	0.099330
C28	C	1.559775	-0.781215	0.099322
C29	C	1.391506	-0.781226	0.267494
C30	C	1.391502	-0.701978	0.267491
C31	C	1.475643	-0.662353	0.183410
C32	C	1.703680	-0.000006	0.176243
C33	C	1.842234	-0.000002	0.179891
C34	C	1.482762	-0.000008	-0.044675
C35	C	1.479114	-0.000005	-0.183229
N36	N	1.475653	0.179157	0.183407
C37	C	1.585401	-0.000005	-0.258212
C38	C	1.581634	-0.000002	-0.401415
C39	C	1.468447	-0.000002	0.411477
C40	C	1.472094	0.000000	0.550031
H41	H	1.075814	-0.000004	0.386984
O42	O	1.650481	-0.340763	0.008644
H43	H	1.633778	-0.325565	-0.088793
O44	O	1.354878	-0.000003	-0.238618
H45	H	1.277593	0.000001	-0.161909
H46	H	1.679187	-0.000010	-0.216390
H47	H	0.826355	0.000005	0.380421
O48	O	1.300753	-0.659255	0.358180
H49	H	1.239644	-0.623171	0.305089
H50	H	1.381099	-0.000005	-0.385544
O51	O	1.650436	-0.176040	0.008618
H52	H	1.708936	-0.216904	-0.049852
O53	O	1.053597	-0.000010	0.062669
H54	H	0.994953	0.051305	0.055747
H55	H	1.322943	-0.330313	0.335932
O56	O	1.300775	-0.823959	0.358193
H57	H	1.314923	-0.885720	0.344080
O58	O	1.702173	-0.000003	-0.486748
H59	H	1.680298	0.000003	-0.585834
H60	H	1.322906	-0.186542	0.335926
H61	H	1.628286	-0.669702	0.030863
O62	O	1.650542	-0.823945	0.008657
H63	H	1.709057	-0.783075	-0.049793
H64	H	0.906659	0.000001	0.088896
