data_functionalizedCrystal
_audit_creation_method	'MofGen! by Chris Wilmer'
_symmetry_space_group_name_H-M	'P1'
_symmetry_Int_Tables_number	1
_symmetry_cell_setting	triclinic
loop_
_symmetry_equiv_pos_as_xyz
  x,y,z
_cell_length_a	13.033293
_cell_length_b	16.120531
_cell_length_c	13.032268
_cell_angle_alpha	80.361611
_cell_angle_beta	89.079182
_cell_angle_gamma	79.562967
loop_
_atom_site_label
_atom_site_type_symbol
_atom_site_fract_x
_atom_site_fract_y
_atom_site_fract_z
Zn1	Zn	1.479864	0.262706	-0.795768
Zn2	Zn	1.813198	0.596039	-0.462435
Zn3	Zn	2.146531	0.929373	-0.129101
Zn4	Zn	1.493017	0.384052	-0.630393
Zn5	Zn	1.826350	0.717385	-0.297060
Zn6	Zn	2.159683	1.050719	0.036273
Zn7	Zn	1.330040	0.258247	-0.601701
Zn8	Zn	1.663374	0.591580	-0.268368
Zn9	Zn	1.996707	0.924914	0.064966
Zn10	Zn	1.296775	0.419252	-0.782348
Zn11	Zn	1.630109	0.752586	-0.449014
Zn12	Zn	1.963442	1.085919	-0.115681
O13	O	1.399924	0.331064	-0.702553
O14	O	1.733257	0.664398	-0.369219
O15	O	2.066591	0.997731	-0.035886
O16	O	1.626438	0.265938	-0.791455
O17	O	1.959772	0.599271	-0.458122
O18	O	2.293105	0.932604	-0.124788
O19	O	1.490823	0.350766	-0.481776
O20	O	1.824157	0.684099	-0.148443
O21	O	2.157490	1.017433	0.184890
O22	O	1.358332	0.140674	-0.621053
O23	O	1.691665	0.474007	-0.287720
O24	O	2.024999	0.807340	0.045614
O25	O	1.636101	0.355090	-0.669955
O26	O	1.969435	0.688423	-0.336622
O27	O	2.302768	1.021757	-0.003288
O28	O	1.468407	0.143950	-0.763633
O29	O	1.801740	0.477283	-0.430300
O30	O	2.135074	0.810616	-0.096966
O31	O	1.371085	0.258338	-0.460696
O32	O	1.704418	0.591671	-0.127363
O33	O	2.037752	0.925004	0.205970
O34	O	1.180798	0.292470	-0.608040
O35	O	1.514131	0.625803	-0.274707
O36	O	1.847465	0.959137	0.058627
O37	O	1.301637	0.415084	-0.928939
O38	O	1.634970	0.748417	-0.595606
O39	O	1.968303	1.081751	-0.262272
O40	O	1.156359	0.410760	-0.740760
O41	O	1.489692	0.744093	-0.407427
O42	O	1.823025	1.077427	-0.074094
O43	O	1.436151	0.300070	-0.938799
O44	O	1.769485	0.633403	-0.605465
O45	O	2.102818	0.966737	-0.272132
O46	O	1.458568	0.506886	-0.656942
O47	O	1.791901	0.840220	-0.323609
O48	O	2.125234	1.173553	0.009725
O49	O	1.314390	0.532748	-0.768582
O50	O	1.647723	0.866081	-0.435249
O51	O	1.981057	1.199415	-0.101915
C52	C	1.131025	0.354952	-0.669831
C53	C	1.464359	0.688285	-0.336498
C54	C	1.797692	1.021618	-0.003164
C55	C	1.015985	0.365194	-0.655858
C56	C	1.349318	0.698527	-0.322525
C57	C	1.682651	1.031861	0.010809
C58	C	0.959896	0.325740	-0.709846
C59	C	1.293229	0.659074	-0.376513
C60	C	1.626563	0.992407	-0.043179
C61	C	0.840995	0.336325	-0.695406
C62	C	1.174329	0.669658	-0.362072
C63	C	1.507662	1.002992	-0.028739
C64	C	1.384321	0.550456	-0.714445
C65	C	1.717655	0.883790	-0.381112
C66	C	2.050988	1.217123	-0.047778
C67	C	1.377737	0.644308	-0.719579
C68	C	1.711070	0.977642	-0.386246
C69	C	2.044403	1.310975	-0.052912
C70	C	1.365717	0.816138	-0.728974
C71	C	1.699051	1.149471	-0.395641
C72	C	2.032384	1.482805	-0.062307
C73	C	1.434178	0.845140	-0.676077
C74	C	1.767511	1.178473	-0.342744
C75	C	2.100844	1.511807	-0.009410
C76	C	1.427490	0.940752	-0.681305
C77	C	1.760823	1.274085	-0.347971
C78	C	2.094157	1.607419	-0.014638
C79	C	1.372403	0.720518	-0.723748
C80	C	1.705737	1.053851	-0.390414
C81	C	2.039070	1.387185	-0.057081
C82	C	1.669873	0.307085	-0.735403
C83	C	2.003206	0.640418	-0.402069
C84	C	2.336539	0.973751	-0.068736
C85	C	1.784909	0.296866	-0.749401
C86	C	2.118242	0.630199	-0.416068
C87	C	2.451575	0.963533	-0.082735
C88	C	1.363716	0.362001	-0.972467
C89	C	1.697050	0.695334	-0.639133
C90	C	2.030383	1.028668	-0.305800
C91	C	1.348287	0.375184	-1.087488
C92	C	1.681620	0.708517	-0.754154
C93	C	2.014953	1.041851	-0.420821
C94	C	1.415579	1.110817	-0.690616
C95	C	1.748912	1.444150	-0.357283
C96	C	2.082245	1.777484	-0.023949
C97	C	1.422162	1.016964	-0.685469
C98	C	1.755495	1.350297	-0.352136
C99	C	2.088829	1.683630	-0.018803
C100	C	1.407963	0.324155	-1.143646
C101	C	1.741296	0.657488	-0.810313
C102	C	2.074630	0.990822	-0.476980
C103	C	1.392017	0.337779	-1.262527
C104	C	1.725351	0.671113	-0.929194
C105	C	2.058684	1.004446	-0.595860
C106	C	1.436055	0.300182	-0.433693
C107	C	1.769388	0.633515	-0.100359
C108	C	2.102722	0.966849	0.232974
C109	C	1.451702	0.286743	-0.318683
C110	C	1.785035	0.620077	0.014650
C111	C	2.118368	0.953410	0.347983
H112	H	0.800994	0.377940	-0.638488
H113	H	1.134327	0.711273	-0.305155
H114	H	1.467661	1.044607	0.028179
F115	F	0.837189	0.242462	-0.823788
F116	F	1.170522	0.575795	-0.490454
F117	F	1.503855	0.909128	-0.157121
H118	H	0.975979	0.406806	-0.598944
H119	H	1.309312	0.740139	-0.265611
H120	H	1.642646	1.073472	0.067722
H121	H	1.497810	0.798163	-0.626864
H122	H	1.831143	1.131496	-0.293531
H123	H	2.164477	1.464829	0.039803
F124	F	1.282548	0.877537	-0.793292
F125	F	1.615882	1.210870	-0.459959
F126	F	1.949215	1.544204	-0.126626
F127	F	1.012182	0.271343	-0.784232
F128	F	1.345515	0.604677	-0.450899
F129	F	1.678848	0.938010	-0.117566
F130	F	1.266070	0.445469	-1.139674
F131	F	1.599403	0.778802	-0.806341
F132	F	1.932737	1.112136	-0.473008
F133	F	1.533928	0.216458	-1.266504
F134	F	1.867262	0.549791	-0.933171
F135	F	2.200595	0.883124	-0.599837
F136	F	1.490155	0.253851	-1.091455
F137	F	1.823488	0.587184	-0.758122
F138	F	2.156822	0.920518	-0.424789
H139	H	1.329111	0.391553	-1.302453
H140	H	1.662444	0.724886	-0.969119
H141	H	1.995777	1.058219	-0.635786
