data_functionalizedCrystal
_audit_creation_method	'MofGen! by Chris Wilmer'
_symmetry_space_group_name_H-M	'P1'
_symmetry_Int_Tables_number	1
_symmetry_cell_setting	triclinic
loop_
_symmetry_equiv_pos_as_xyz
  x,y,z
_cell_length_a	16.120484
_cell_length_b	14.908610
_cell_length_c	14.908308
_cell_angle_alpha	89.826017
_cell_angle_beta	95.986071
_cell_angle_gamma	90.215361
loop_
_atom_site_label
_atom_site_type_symbol
_atom_site_fract_x
_atom_site_fract_y
_atom_site_fract_z
Zn1	Zn	-0.434983	-1.320094	-0.609992
Zn2	Zn	-0.101649	-0.986761	-0.276658
Zn3	Zn	0.231684	-0.653428	0.056675
Zn4	Zn	-0.566804	-1.321037	-0.466415
Zn5	Zn	-0.233471	-0.987704	-0.133081
Zn6	Zn	0.099862	-0.654371	0.200252
Zn7	Zn	-0.418969	-1.179337	-0.450162
Zn8	Zn	-0.085635	-0.846004	-0.116829
Zn9	Zn	0.247698	-0.512671	0.216504
Zn10	Zn	-0.565807	-1.162123	-0.608012
Zn11	Zn	-0.232474	-0.828789	-0.274678
Zn12	Zn	0.100860	-0.495456	0.058655
O13	O	-0.496641	-1.245648	-0.533645
O14	O	-0.163307	-0.912314	-0.200312
O15	O	0.170026	-0.578981	0.133022
O16	O	-0.459588	-1.445633	-0.598576
O17	O	-0.126255	-1.112299	-0.265243
O18	O	0.207078	-0.778966	0.068091
O19	O	-0.540909	-1.309839	-0.338111
O20	O	-0.207576	-0.976506	-0.004778
O21	O	0.125758	-0.643173	0.328556
O22	O	-0.304473	-1.204819	-0.465391
O23	O	0.028861	-0.871485	-0.132058
O24	O	0.362194	-0.538152	0.201275
O25	O	-0.556437	-1.446326	-0.493091
O26	O	-0.223104	-1.112992	-0.159757
O27	O	0.110230	-0.779659	0.173576
O28	O	-0.316238	-1.308232	-0.582817
O29	O	0.017095	-0.974899	-0.249484
O30	O	0.350429	-0.641565	0.083850
O31	O	-0.432295	-1.205733	-0.326170
O32	O	-0.098961	-0.872400	0.007163
O33	O	0.234372	-0.539066	0.340496
O34	O	-0.431328	-1.051640	-0.463471
O35	O	-0.097994	-0.718307	-0.130138
O36	O	0.235339	-0.384973	0.203195
O37	O	-0.554737	-1.175479	-0.734422
O38	O	-0.221404	-0.842146	-0.401089
O39	O	0.111929	-0.508812	-0.067755
O40	O	-0.539209	-1.038993	-0.579442
O41	O	-0.205876	-0.705659	-0.246109
O42	O	0.127458	-0.372326	0.087224
O43	O	-0.458621	-1.291540	-0.735877
O44	O	-0.125288	-0.958207	-0.402543
O45	O	0.208045	-0.624873	-0.069210
O46	O	-0.683292	-1.293147	-0.491171
O47	O	-0.349959	-0.959814	-0.157837
O48	O	-0.016625	-0.626480	0.175496
O49	O	-0.682559	-1.176393	-0.595201
O50	O	-0.349226	-0.843060	-0.261868
O51	O	-0.015893	-0.509727	0.071465
C52	C	-0.483423	-1.012798	-0.519479
C53	C	-0.150090	-0.679465	-0.186146
C54	C	0.183244	-0.346131	0.147188
C55	C	-0.477790	-0.913181	-0.513441
C56	C	-0.144456	-0.579848	-0.180108
C57	C	0.188877	-0.246515	0.153226
C58	C	-0.713166	-1.233028	-0.544756
C59	C	-0.379833	-0.899694	-0.211423
C60	C	-0.046500	-0.566361	0.121911
C61	C	-0.805803	-1.227709	-0.549544
C62	C	-0.472470	-0.894376	-0.216211
C63	C	-0.139137	-0.561042	0.117122
C64	C	-0.413608	-0.779334	-0.444641
C65	C	-0.080275	-0.446000	-0.111308
C66	C	0.253058	-0.112667	0.222025
C67	C	-0.418897	-0.872933	-0.450311
C68	C	-0.085564	-0.539599	-0.116977
C69	C	0.247770	-0.206266	0.216356
C70	C	-0.531396	-0.859824	-0.570908
C71	C	-0.198063	-0.526490	-0.237574
C72	C	0.135271	-0.193157	0.095759
C73	C	-0.526107	-0.766225	-0.565238
C74	C	-0.192774	-0.432891	-0.231905
C75	C	0.140559	-0.099558	0.101428
C76	C	-0.467212	-0.725983	-0.502102
C77	C	-0.133879	-0.392650	-0.168769
C78	C	0.199454	-0.059316	0.164564
C79	C	-0.461928	-0.632382	-0.496429
C80	C	-0.128595	-0.299049	-0.163096
C81	C	0.204738	0.034285	0.170237
C82	C	-0.574423	-0.619275	-0.617030
C83	C	-0.241089	-0.285941	-0.283697
C84	C	0.092244	0.047392	0.049637
C85	C	-0.579711	-0.712874	-0.622699
C86	C	-0.246378	-0.379541	-0.289366
C87	C	0.086955	-0.046207	0.043967
C88	C	-0.975413	-1.218002	-0.558305
C89	C	-0.642080	-0.884669	-0.224972
C90	C	-0.308746	-0.551336	0.108361
C91	C	-1.017037	-1.273453	-0.509009
C92	C	-0.683704	-0.940120	-0.175676
C93	C	-0.350371	-0.606786	0.157657
C94	C	-1.111414	-1.268052	-0.513884
C95	C	-0.778081	-0.934719	-0.180551
C96	C	-0.444747	-0.601386	0.152783
C97	C	-0.881028	-1.223402	-0.553432
C98	C	-0.547694	-0.890069	-0.220098
C99	C	-0.214361	-0.556735	0.113235
C100	C	-0.279272	-1.258340	-0.522512
C101	C	0.054062	-0.925007	-0.189179
C102	C	0.387395	-0.591674	0.144155
C103	C	-0.186642	-1.263749	-0.517768
C104	C	0.146691	-0.930416	-0.184435
C105	C	0.480025	-0.597083	0.148899
C106	C	-0.508354	-1.231484	-0.768773
C107	C	-0.175021	-0.898151	-0.435439
C108	C	0.158312	-0.564817	-0.102106
C109	C	-0.513346	-1.225448	-0.868970
C110	C	-0.180013	-0.892115	-0.535637
C111	C	0.153321	-0.558782	-0.202303
C112	C	-0.509903	-0.479408	-0.547859
C113	C	-0.176569	-0.146074	-0.214526
C114	C	0.156764	0.187259	0.118807
C115	C	-0.515535	-0.579024	-0.553896
C116	C	-0.182201	-0.245691	-0.220563
C117	C	0.151132	0.087642	0.112771
C118	C	-0.422621	-1.334959	-1.058767
C119	C	-0.089287	-1.001626	-0.725434
C120	C	0.244046	-0.668293	-0.392100
C121	C	-0.427308	-1.329291	-1.152912
C122	C	-0.093975	-0.995958	-0.819578
C123	C	0.239359	-0.662624	-0.486245
C124	C	-0.527403	-1.208440	-1.151405
C125	C	-0.194070	-0.875107	-0.818071
C126	C	0.139263	-0.541773	-0.484738
C127	C	-0.522716	-1.214108	-1.057260
C128	C	-0.189383	-0.880775	-0.723927
C129	C	0.143951	-0.547442	-0.390594
C130	C	-0.470324	-1.277371	-1.010945
C131	C	-0.136990	-0.944038	-0.677612
C132	C	0.196343	-0.610704	-0.344278
C133	C	-0.465641	-1.283043	-0.916799
C134	C	-0.132308	-0.949709	-0.583466
C135	C	0.201025	-0.616376	-0.250133
C136	C	-0.565731	-1.162188	-0.915294
C137	C	-0.232398	-0.828855	-0.581960
C138	C	0.100935	-0.495521	-0.248627
C139	C	-0.570419	-1.156520	-1.009438
C140	C	-0.237086	-0.823187	-0.676105
C141	C	0.096248	-0.489853	-0.342771
C142	C	-0.484915	-1.259812	-0.299432
C143	C	-0.151582	-0.926478	0.033901
C144	C	0.181752	-0.593145	0.367235
C145	C	-0.479699	-1.266035	-0.199234
C146	C	-0.146365	-0.932701	0.134100
C147	C	0.186968	-0.599368	0.467433
H148	H	-0.413973	-0.599619	-0.445021
H149	H	-0.080639	-0.266286	-0.111688
H150	H	0.252694	0.067047	0.221646
H151	H	-1.010654	-1.166477	-0.604166
H152	H	-0.677321	-0.833144	-0.270832
H153	H	-0.343987	-0.499810	0.062501
H154	H	-0.422982	-1.334555	-0.879091
H155	H	-0.089649	-1.001222	-0.545758
H156	H	0.243685	-0.667889	-0.212424
O157	O	-0.970363	-1.341712	-0.448253
O158	O	-0.637030	-1.008378	-0.114920
O159	O	-0.303696	-0.675045	0.218414
H160	H	-0.926201	-1.306620	-0.397909
H161	H	-0.592868	-0.973286	-0.064576
H162	H	-0.259534	-0.639953	0.268757
O163	O	-0.366119	-1.403190	-1.008803
O164	O	-0.032786	-1.069856	-0.675470
O165	O	0.300547	-0.736523	-0.342136
H166	H	-0.333733	-1.442282	-1.057874
H167	H	-0.000400	-1.108949	-0.724541
H168	H	0.332933	-0.775616	-0.391208
H169	H	-0.388461	-1.376183	-1.191845
H170	H	-0.055128	-1.042850	-0.858511
H171	H	0.278206	-0.709517	-0.525178
H172	H	-0.365655	-0.746569	-0.393232
H173	H	-0.032322	-0.413235	-0.059899
H174	H	0.301011	-0.079902	0.273435
O175	O	-0.583894	-1.140197	-1.201363
O176	O	-0.250561	-0.806864	-0.868030
O177	O	0.082773	-0.473530	-0.534696
H178	H	-0.579134	-1.145931	-1.274861
H179	H	-0.245800	-0.812598	-0.941528
H180	H	0.087533	-0.479265	-0.608194
O181	O	-0.361095	-0.930480	-0.388324
O182	O	-0.027761	-0.597147	-0.054990
O183	O	0.305572	-0.263813	0.278343
H184	H	-0.319263	-0.886769	-0.343464
H185	H	0.014071	-0.553435	-0.010131
H186	H	0.347404	-0.220102	0.323203
H187	H	-0.579341	-0.892605	-0.622314
H188	H	-0.246008	-0.559272	-0.288981
H189	H	0.087325	-0.225938	0.044352
O190	O	-0.643228	-0.756286	-0.690793
O191	O	-0.309895	-0.422952	-0.357459
O192	O	0.023439	-0.089619	-0.024126
H193	H	-0.679611	-0.703459	-0.729800
H194	H	-0.346277	-0.370126	-0.396467
H195	H	-0.012944	-0.036793	-0.063133
H196	H	-0.613073	-1.105012	-1.047161
H197	H	-0.279740	-0.771678	-0.713827
H198	H	0.053593	-0.438345	-0.380494
H199	H	-0.618071	-0.575826	-0.663819
H200	H	-0.284738	-0.242493	-0.330485
H201	H	0.048595	0.090840	0.002848
H202	H	-0.604577	-1.115297	-0.876347
H203	H	-0.271244	-0.781964	-0.543014
H204	H	0.062089	-0.448631	-0.209680
