data_functionalizedCrystal
_audit_creation_method	'MofGen! by Chris Wilmer'
_symmetry_space_group_name_H-M	'P1'
_symmetry_Int_Tables_number	1
_symmetry_cell_setting	triclinic
loop_
_symmetry_equiv_pos_as_xyz
  x,y,z
_cell_length_a	19.188930
_cell_length_b	23.532407
_cell_length_c	17.666332
_cell_angle_alpha	89.988854
_cell_angle_beta	89.976766
_cell_angle_gamma	82.996728
loop_
_atom_site_label
_atom_site_type_symbol
_atom_site_fract_x
_atom_site_fract_y
_atom_site_fract_z
O1	O	0.925923	0.071102	-0.063199
O2	O	1.425923	0.571102	0.436801
O3	O	0.722581	0.080673	-0.063148
O4	O	1.222581	0.580673	0.436852
O5	O	0.830384	-0.007031	-0.063161
O6	O	1.330384	0.492969	0.436839
O7	O	0.818120	0.158806	-0.063186
O8	O	1.318120	0.658806	0.436814
O9	O	0.830365	-0.007036	0.062735
O10	O	1.330365	0.492964	0.562735
O11	O	0.722562	0.080669	0.062748
O12	O	1.222562	0.580669	0.562748
O13	O	0.925904	0.071097	0.062697
O14	O	1.425904	0.571097	0.562697
Cu15	Cu	0.824231	0.075883	0.074218
Cu16	Cu	1.324231	0.575883	0.574218
Cu17	Cu	0.824253	0.075888	-0.074669
Cu18	Cu	1.324253	0.575888	0.425331
O19	O	0.818101	0.158802	0.062711
O20	O	1.318101	0.658802	0.562711
C21	C	0.696561	0.080361	-0.000193
C22	C	1.196561	0.580361	0.499807
C23	C	0.619060	0.079431	-0.000173
C24	C	1.119060	0.579431	0.499827
C25	C	0.573972	0.130893	-0.000193
C26	C	1.073972	0.630893	0.499807
C27	C	0.501151	0.130019	-0.000201
C28	C	1.001151	0.630019	0.499799
C29	C	0.473421	0.077680	-0.000205
C30	C	0.973421	0.577680	0.499795
C31	C	0.518519	0.026211	-0.000181
C32	C	1.018519	0.526211	0.499819
C33	C	0.591339	0.027086	-0.000165
C34	C	1.091339	0.527086	0.499835
N35	N	0.365575	0.037674	-0.043078
N36	N	0.865575	0.537674	0.456922
N37	N	0.296399	0.036846	-0.043094
N38	N	0.796399	0.536846	0.456906
C39	C	0.254021	0.075038	-0.000251
C40	C	0.754021	0.575038	0.499749
N41	N	0.283431	0.114099	0.042600
N42	N	0.783431	0.614099	0.542600
N43	N	0.352613	0.114929	0.042614
N44	N	0.852613	0.614929	0.542614
C45	C	0.394462	0.076724	-0.000222
C46	C	0.894462	0.576724	0.499778
C47	C	0.129971	0.125556	-0.000278
C48	C	0.629971	0.625556	0.499722
C49	C	0.057149	0.124680	-0.000282
C50	C	0.557149	0.624680	0.499718
C51	C	0.074520	0.020870	-0.000269
C52	C	0.574520	0.520870	0.499731
C53	C	0.147340	0.021748	-0.000258
C54	C	0.647340	0.521748	0.499742
C55	C	0.175061	0.074092	-0.000266
C56	C	0.675061	0.574092	0.499734
C57	C	0.830062	-0.028250	-0.000211
C58	C	1.330062	0.471750	0.499789
C59	C	0.829123	-0.091469	-0.000205
C60	C	1.329123	0.408531	0.499795
C61	C	0.887029	-0.490449	-0.000261
C62	C	1.387029	0.009551	0.499739
C63	C	0.886157	-0.549851	-0.000267
C64	C	1.386157	-0.049851	0.499733
O65	O	0.939837	-0.586482	-0.000308
O66	O	1.439837	-0.086482	0.499692
N67	N	0.822068	-0.572613	-0.000250
N68	N	1.322068	-0.072613	0.499750
C69	C	0.758848	-0.535970	-0.000236
C70	C	1.258848	-0.035970	0.499764
O71	O	0.704255	-0.560786	-0.000223
O72	O	1.204255	-0.060786	0.499777
C73	C	0.759721	-0.476569	-0.000235
C74	C	1.259721	0.023431	0.499765
C75	C	0.823814	-0.453810	-0.000244
C76	C	1.323814	0.046190	0.499756
C77	C	0.951117	-0.467690	-0.000271
C78	C	1.451117	0.032310	0.499729
C79	C	0.951989	-0.408292	-0.000264
C80	C	1.451989	0.091708	0.499736
C81	C	0.888773	-0.371653	-0.000247
C82	C	1.388773	0.128347	0.499753
C83	C	0.824685	-0.394412	-0.000237
C84	C	1.324685	0.105588	0.499763
C85	C	0.696501	-0.439927	-0.000226
C86	C	1.196501	0.060073	0.499774
C87	C	0.697379	-0.380523	-0.000227
C88	C	1.197379	0.119477	0.499773
C89	C	0.761472	-0.357764	-0.000236
C90	C	1.261472	0.142236	0.499764
C91	C	0.762342	-0.298376	-0.000214
C92	C	1.262342	0.201624	0.499786
N93	N	0.826430	-0.275614	-0.000230
N94	N	1.326430	0.224386	0.499770
C95	C	0.889646	-0.312252	-0.000247
C96	C	1.389646	0.187748	0.499753
C97	C	0.757019	-0.660717	-0.000237
C98	C	1.257019	-0.160717	0.499763
C99	C	0.756146	-0.720116	-0.000232
C100	C	1.256146	-0.220116	0.499768
C101	C	0.883455	-0.733993	-0.000264
C102	C	1.383455	-0.233993	0.499736
C103	C	0.884328	-0.674592	-0.000264
C104	C	1.384328	-0.174592	0.499736
C105	C	0.821108	-0.637954	-0.000254
C106	C	1.321108	-0.137954	0.499746
C107	C	0.891472	-0.187512	-0.000232
C108	C	1.391472	0.312488	0.499768
C109	C	0.892339	-0.128108	-0.000222
C110	C	1.392339	0.371892	0.499778
C111	C	0.765029	-0.114236	-0.000193
C112	C	1.265029	0.385764	0.499807
C113	C	0.764163	-0.173634	-0.000199
C114	C	1.264163	0.326366	0.499801
C115	C	0.827390	-0.210272	-0.000221
C116	C	1.327390	0.289728	0.499779
O117	O	0.708690	-0.261710	-0.000176
O118	O	1.208690	0.238290	0.499824
O119	O	0.944230	-0.287428	-0.000270
O120	O	1.444230	0.212572	0.499730
C121	C	0.951923	0.071410	-0.000259
C122	C	1.451923	0.571410	0.499741
C123	C	1.029425	0.072340	-0.000284
C124	C	1.529425	0.572340	0.499716
C125	C	0.818423	0.180021	-0.000241
C126	C	1.318423	0.680021	0.499759
C127	C	0.819362	0.243240	-0.000252
C128	C	1.319362	0.743240	0.499748
N129	N	0.824221	0.075878	0.178938
N130	N	1.324221	0.575878	0.678938
N131	N	0.824270	0.075888	-0.179389
N132	N	1.324270	0.575888	0.320611
C133	C	0.871971	0.037062	0.218542
C134	C	1.371971	0.537062	0.718542
C135	C	0.871975	0.037059	0.297789
C136	C	1.371975	0.537059	0.797789
C137	C	0.824236	0.075883	0.337430
C138	C	1.324236	0.575883	0.837430
C139	C	0.776476	0.114702	0.297816
C140	C	1.276476	0.614702	0.797816
C141	C	0.776469	0.114700	0.218570
C142	C	1.276469	0.614700	0.718570
N143	N	0.814998	0.126298	0.461842
N144	N	1.314998	0.626298	0.961842
N145	N	0.815010	0.126298	0.537123
N146	N	1.315010	0.626298	1.037123
C147	C	0.824254	0.075891	0.576194
C148	C	1.324254	0.575891	1.076194
N149	N	0.833500	0.025481	0.537141
N150	N	1.333500	0.525481	1.037141
N151	N	0.833493	0.025482	0.461853
N152	N	1.333493	0.525482	0.961853
C153	C	0.824238	0.075889	0.423359
C154	C	1.324238	0.575889	0.923359
C155	C	0.872011	0.037068	0.701727
C156	C	1.372011	0.537068	1.201727
C157	C	0.872010	0.037064	0.780976
C158	C	1.372010	0.537064	1.280976
C159	C	0.776515	0.114713	0.781002
C160	C	1.276515	0.614713	1.281002
C161	C	0.776512	0.114711	0.701754
C162	C	1.276512	0.614711	1.201754
C163	C	0.824264	0.075889	0.662122
C164	C	1.324264	0.575889	1.162122
H165	H	0.628050	-0.014822	-0.000150
H166	H	1.128050	0.485178	0.499850
H167	H	0.942958	-0.217335	-0.000252
H168	H	1.442958	0.282665	0.499748
H169	H	0.737605	0.146312	0.330096
H170	H	1.237605	0.646312	0.830096
H171	H	0.944533	-0.109581	-0.000227
H172	H	1.444533	0.390419	0.499773
H173	H	1.004180	-0.389768	-0.000274
H174	H	1.504180	0.110232	0.499726
C175	C	0.953894	-0.649854	-0.000126
C176	C	1.453894	-0.149854	0.499874
C177	C	0.958120	-0.616177	0.064651
C178	C	1.458120	-0.116177	0.564651
C179	C	1.022201	-0.593389	0.064807
C180	C	1.522201	-0.093389	0.564807
H181	H	0.956960	-0.626928	-0.043980
H182	H	1.456960	-0.126928	0.456020
H183	H	0.991435	-0.680172	-0.000094
H184	H	1.491435	-0.180172	0.499906
H185	H	0.920590	-0.585863	0.064612
H186	H	1.420590	-0.085863	0.564612
H187	H	0.955067	-0.639090	0.108516
H188	H	1.455067	-0.139090	0.608516
H189	H	1.059741	-0.623707	0.064839
H190	H	1.559741	-0.123707	0.564839
H191	H	1.025260	-0.570465	0.020951
H192	H	1.525260	-0.070465	0.520951
H193	H	1.025079	-0.570541	0.108761
H194	H	1.525079	-0.070541	0.608761
H195	H	0.737642	0.146321	0.813277
H196	H	1.237642	0.646321	1.313277
C197	C	0.923879	-0.005148	0.658828
C198	C	1.423879	0.494852	1.158828
C199	C	0.965682	-0.039158	0.710478
C200	C	1.465682	0.460842	1.210478
C201	C	1.013463	-0.078059	0.670990
C202	C	1.513463	0.421941	1.170990
H203	H	0.952865	0.015213	0.627891
H204	H	1.452865	0.515213	1.127891
H205	H	0.898944	-0.028836	0.627950
H206	H	1.398944	0.471164	1.127950
H207	H	0.990615	-0.015473	0.741343
H208	H	1.490615	0.484527	1.241343
H209	H	0.936716	-0.059532	0.741417
H210	H	1.436716	0.440468	1.241417
H211	H	0.988529	-0.101747	0.640111
H212	H	1.488529	0.398253	1.140111
H213	H	1.042444	-0.057694	0.640054
H214	H	1.542444	0.442306	1.140054
H215	H	1.041828	-0.101143	0.706028
H216	H	1.541828	0.398857	1.206028
H217	H	1.002598	-0.497516	-0.000287
H218	H	1.502598	0.002484	0.499713
C219	C	0.724642	0.156925	0.658887
C220	C	1.224642	0.656925	1.158887
C221	C	0.682845	0.190936	0.710561
C222	C	1.182845	0.690936	1.210561
C223	C	0.635058	0.229835	0.671100
C224	C	1.135058	0.729835	1.171100
H225	H	0.695653	0.136563	0.627992
H226	H	1.195653	0.636563	1.127992
H227	H	0.749572	0.180613	0.627969
H228	H	1.249572	0.680613	1.127969
H229	H	0.657917	0.167251	0.741466
H230	H	1.157917	0.667251	1.241466
H231	H	0.711815	0.211310	0.741458
H232	H	1.211815	0.711310	1.241458
H233	H	0.659987	0.253522	0.640182
H234	H	1.159987	0.753522	1.140182
H235	H	0.606073	0.209468	0.640207
H236	H	1.106073	0.709468	1.140207
H237	H	0.606697	0.252919	0.706155
H238	H	1.106697	0.752919	1.206155
H239	H	0.596537	0.173516	-0.000201
H240	H	1.096537	0.673516	0.499799
C241	C	0.724595	0.156913	0.175704
C242	C	1.224595	0.656913	0.675704
C243	C	0.682795	0.190923	0.227376
C244	C	1.182795	0.690923	0.727376
C245	C	0.635008	0.229822	0.187914
C246	C	1.135008	0.729822	0.687914
H247	H	0.695608	0.136551	0.144806
H248	H	1.195608	0.636551	0.644806
H249	H	0.749525	0.180602	0.144788
H250	H	1.249525	0.680602	0.644788
H251	H	0.657866	0.167237	0.258279
H252	H	1.157866	0.667237	0.758279
H253	H	0.711763	0.211297	0.258275
H254	H	1.211763	0.711297	0.758275
H255	H	0.659939	0.253510	0.156998
H256	H	1.159939	0.753510	0.656998
H257	H	0.606026	0.209455	0.157018
H258	H	1.106026	0.709455	0.657018
H259	H	0.606645	0.252905	0.222968
H260	H	1.106645	0.752905	0.722968
H261	H	0.713561	-0.084394	-0.000177
H262	H	1.213561	0.415606	0.499823
C263	C	0.488456	-0.030633	-0.000032
C264	C	0.988456	0.469367	0.499968
C265	C	0.511355	-0.061729	0.064757
C266	C	1.011355	0.438271	0.564757
C267	C	0.483669	-0.114095	0.064928
C268	C	0.983669	0.385905	0.564928
H269	H	0.503966	-0.051882	-0.043878
H270	H	1.003966	0.448118	0.456122
H271	H	0.438627	-0.023808	-0.000006
H272	H	0.938627	0.476192	0.499994
H273	H	0.561174	-0.068555	0.064724
H274	H	1.061174	0.431445	0.564724
H275	H	0.495846	-0.040497	0.108613
H276	H	0.995846	0.459503	0.608613
H277	H	0.433840	-0.107270	0.064954
H278	H	0.933840	0.392730	0.564954
H279	H	0.499181	-0.135339	0.021080
H280	H	0.999181	0.364661	0.521080
H281	H	0.499197	-0.135198	0.108890
H282	H	0.999197	0.364802	0.608890
C283	C	0.159939	0.182443	-0.000239
C284	C	0.659939	0.682443	0.499761
C285	C	0.104862	0.227326	-0.000230
C286	C	0.604862	0.727326	0.499770
C287	C	0.132439	0.279737	-0.000184
C288	C	0.632439	0.779737	0.499816
H289	H	0.187996	0.185026	-0.044126
H290	H	0.687996	0.685026	0.455874
H291	H	0.187943	0.184970	0.043686
H292	H	0.687943	0.684970	0.543686
H293	H	0.076870	0.224800	-0.044151
H294	H	0.576870	0.724800	0.455849
H295	H	0.076801	0.224761	0.043653
H296	H	0.576801	0.724761	0.543653
H297	H	0.160443	0.282265	0.043741
H298	H	0.660443	0.782265	0.543741
H299	H	0.160495	0.282315	-0.044072
H300	H	0.660495	0.782315	0.455928
H301	H	0.095074	0.310197	-0.000171
H302	H	0.595074	0.810197	0.499829
C303	C	0.686487	-0.744711	-0.000252
C304	C	1.186487	-0.244711	0.499748
C305	C	0.631317	-0.699904	-0.000254
C306	C	1.131317	-0.199904	0.499746
C307	C	0.567135	-0.722536	-0.000288
C308	C	1.067135	-0.222536	0.499712
H309	H	0.683390	-0.767594	0.043637
H310	H	1.183390	-0.267594	0.543637
H311	H	0.683465	-0.767569	-0.044175
H312	H	1.183465	-0.267569	0.455825
H313	H	0.634336	-0.677055	0.043664
H314	H	1.134336	-0.177055	0.543664
H315	H	0.634391	-0.677017	-0.044140
H316	H	1.134391	-0.177017	0.455860
H317	H	0.564114	-0.745394	-0.044211
H318	H	1.064114	-0.245394	0.455789
H319	H	0.564045	-0.745419	0.043602
H320	H	1.064045	-0.245419	0.543602
H321	H	0.529695	-0.692138	-0.000296
H322	H	1.029695	-0.192138	0.499704
H323	H	0.910892	0.005452	0.813222
H324	H	1.410892	0.505452	1.313222
C325	C	0.688396	-0.620913	-0.000370
C326	C	1.188396	-0.120913	0.499630
C327	C	0.685170	-0.586405	-0.065148
C328	C	1.185170	-0.086405	0.434852
C329	C	0.621962	-0.549739	-0.065303
C330	C	1.121962	-0.049739	0.434697
H331	H	0.686014	-0.597404	0.043483
H332	H	1.186014	-0.097404	0.543483
H333	H	0.650087	-0.642961	-0.000400
H334	H	1.150087	-0.142961	0.499600
H335	H	0.723468	-0.564358	-0.065111
H336	H	1.223468	-0.064358	0.434889
H337	H	0.687540	-0.609897	-0.109012
H338	H	1.187540	-0.109897	0.390988
H339	H	0.583652	-0.571788	-0.065333
H340	H	1.083652	-0.071788	0.434667
H341	H	0.619585	-0.526235	-0.021447
H342	H	1.119585	-0.026235	0.478553
H343	H	0.619761	-0.526325	-0.109257
H344	H	1.119761	-0.026325	0.390743
C345	C	0.626840	-0.464515	-0.000260
C346	C	1.126840	0.035485	0.499740
C347	C	0.571675	-0.419704	-0.000270
C348	C	1.071675	0.080296	0.499730
C349	C	0.507490	-0.442331	-0.000312
C350	C	1.007490	0.057669	0.499688
H351	H	0.623736	-0.487397	0.043629
H352	H	1.123736	0.012603	0.543629
H353	H	0.623822	-0.487374	-0.044182
H354	H	1.123822	0.012626	0.455818
H355	H	0.574692	-0.396856	0.043649
H356	H	1.074692	0.103144	0.543649
H357	H	0.574757	-0.396818	-0.044155
H358	H	1.074757	0.103182	0.455845
H359	H	0.504472	-0.465190	-0.044235
H360	H	1.004472	0.034810	0.455765
H361	H	0.504393	-0.465213	0.043578
H362	H	1.004393	0.034787	0.543578
H363	H	0.470053	-0.411931	-0.000326
H364	H	0.970053	0.088069	0.499674
H365	H	0.910860	0.005449	0.330041
H366	H	1.410860	0.505449	0.830041
H367	H	0.464433	0.171927	-0.000215
H368	H	0.964433	0.671927	0.499785
C369	C	0.044520	-0.035999	-0.000390
C370	C	0.544520	0.464001	0.499610
C371	C	0.067522	-0.067103	-0.065144
C372	C	0.567522	0.432897	0.434856
C373	C	0.039907	-0.119498	-0.065272
C374	C	0.539907	0.380502	0.434728
H375	H	-0.005303	-0.029233	-0.000439
H376	H	0.494697	0.470767	0.499561
H377	H	0.060021	-0.057213	0.043495
H378	H	0.560021	0.442787	0.543495
H379	H	0.052018	-0.045893	-0.109018
H380	H	0.552018	0.454107	0.390982
H381	H	0.117342	-0.073883	-0.065108
H382	H	0.617342	0.426117	0.434892
H383	H	0.055407	-0.140712	-0.021387
H384	H	0.555407	0.359288	0.478613
H385	H	-0.009916	-0.112726	-0.065320
H386	H	0.490084	0.387274	0.434680
H387	H	0.055515	-0.140610	-0.109203
H388	H	0.555515	0.359390	0.390797
H389	H	0.645897	-0.350694	-0.000220
H390	H	1.145897	0.149306	0.499780
H391	H	0.020438	0.166588	-0.000293
H392	H	0.520438	0.666588	0.499707
C393	C	0.196379	-0.034084	-0.000367
C394	C	0.696379	0.465916	0.499633
C395	C	0.238738	-0.036603	-0.065120
C396	C	0.738738	0.463397	0.434880
C397	C	0.283927	-0.088026	-0.065239
C398	C	0.783927	0.411974	0.434761
H399	H	0.169524	-0.065428	-0.000410
H400	H	0.669524	0.434572	0.499590
H401	H	0.225165	-0.035908	0.043519
H402	H	0.725165	0.464092	0.543519
H403	H	0.209955	-0.034785	-0.108995
H404	H	0.709955	0.465215	0.391005
H405	H	0.265608	-0.005271	-0.065090
H406	H	0.765608	0.494729	0.434910
H407	H	0.312713	-0.089850	-0.021353
H408	H	0.812713	0.410150	0.478647
H409	H	0.257067	-0.119366	-0.065280
H410	H	0.757067	0.380634	0.434720
H411	H	0.312678	-0.089739	-0.109169
H412	H	0.812678	0.410261	0.390831
H413	H	0.934929	-0.763836	-0.000281
H414	H	1.434929	-0.263836	0.499719
H415	H	0.711973	-0.192165	-0.000171
H416	H	1.211973	0.307835	0.499829
H417	H	0.910852	0.005450	0.186275
H418	H	1.410852	0.505450	0.686275
