data_functionalizedCrystal
_audit_creation_method	'MofGen! by Chris Wilmer'
_symmetry_space_group_name_H-M	'P1'
_symmetry_Int_Tables_number	1
_symmetry_cell_setting	triclinic
loop_
_symmetry_equiv_pos_as_xyz
  x,y,z
_cell_length_a	21.295419
_cell_length_b	25.639240
_cell_length_c	21.295411
_cell_angle_alpha	90.021594
_cell_angle_beta	89.975461
_cell_angle_gamma	89.942036
loop_
_atom_site_label
_atom_site_type_symbol
_atom_site_fract_x
_atom_site_fract_y
_atom_site_fract_z
Zn1	Zn	0.962300	0.208004	-0.355911
Zn2	Zn	0.962179	0.295424	-0.250637
Zn3	Zn	0.857023	0.208027	-0.250656
Zn4	Zn	0.856970	0.295433	-0.355869
O5	O	0.909618	0.251722	-0.303268
O6	O	1.050374	0.219587	-0.341956
O7	O	0.948202	0.283836	-0.162550
O8	O	0.871062	0.134859	-0.264645
O9	O	1.050285	0.283814	-0.264611
O10	O	0.948408	0.134842	-0.341975
O11	O	0.870945	0.219626	-0.162564
O12	O	0.768927	0.219635	-0.264603
O13	O	0.870970	0.283829	-0.443964
O14	O	0.768887	0.283851	-0.341902
O15	O	0.948356	0.219596	-0.443995
O16	O	0.948150	0.368590	-0.264570
O17	O	0.870853	0.368597	-0.341883
C18	C	0.746066	0.251747	-0.303251
C19	C	0.676098	0.251770	-0.303258
C20	C	0.643300	0.218382	-0.343594
C21	C	0.577558	0.218368	-0.343596
C22	C	0.544616	0.251752	-0.303269
C23	C	0.577422	0.285142	-0.262926
C24	C	0.643163	0.285152	-0.262920
N25	N	0.441328	0.297498	-0.298350
N26	N	0.378877	0.297487	-0.298359
C27	C	0.346541	0.251724	-0.303283
N28	N	0.379016	0.205972	-0.308211
N29	N	0.441473	0.205983	-0.308205
C30	C	0.473331	0.251745	-0.303271
C31	C	0.242458	0.218318	-0.343624
C32	C	0.176714	0.218303	-0.343622
C33	C	0.176579	0.285082	-0.262955
C34	C	0.242322	0.285092	-0.262954
C35	C	0.275257	0.251711	-0.303291
C36	C	0.909499	0.387564	-0.303234
C37	C	0.909506	0.445679	-0.303240
C38	C	0.949920	0.806026	-0.263056
C39	C	0.949939	0.860630	-0.263062
O40	O	0.984216	0.888853	-0.228876
N41	N	0.909669	0.887961	-0.303282
C42	C	0.869381	0.860685	-0.343504
O43	O	0.835131	0.888946	-0.377716
C44	C	0.869366	0.806081	-0.343501
C45	C	0.909634	0.778753	-0.303273
C46	C	0.990185	0.778697	-0.222832
C47	C	0.990165	0.724097	-0.222825
C48	C	0.949879	0.696825	-0.263042
C49	C	0.909614	0.724153	-0.303266
C50	C	0.829082	0.778806	-0.383725
C51	C	0.829070	0.724199	-0.383719
C52	C	0.869338	0.696871	-0.343491
C53	C	0.869308	0.642280	-0.343477
N54	N	0.909578	0.614949	-0.303256
C55	C	0.949864	0.642221	-0.263039
C56	C	0.869418	0.975355	-0.343509
C57	C	0.869430	1.029958	-0.343509
C58	C	0.949989	1.029899	-0.263068
C59	C	0.949973	0.975296	-0.263064
C60	C	0.909688	0.948024	-0.303288
C61	C	0.949818	0.527556	-0.263028
C62	C	0.949792	0.472951	-0.263023
C63	C	0.869236	0.473014	-0.343466
C64	C	0.869259	0.527615	-0.343469
C65	C	0.909555	0.554884	-0.303248
O66	O	0.835050	0.614022	-0.377646
O67	O	0.984114	0.613953	-0.228839
C68	C	1.073808	0.251697	-0.303286
C69	C	1.143777	0.251686	-0.303294
C70	C	0.909670	0.251711	-0.467459
C71	C	0.909693	0.251706	-0.537427
C72	C	0.909731	1.115349	-0.303306
C73	C	0.909718	1.057235	-0.303294
C74	C	0.949986	0.218258	-0.570311
C75	C	0.949985	0.218236	-0.636053
C76	C	0.909698	0.251670	-0.668909
C77	C	0.869397	0.285120	-0.636017
C78	C	0.869394	0.285138	-0.570276
N79	N	0.904829	0.297409	-0.772125
N80	N	0.904835	0.297391	-0.834576
C81	C	0.909702	0.251617	-0.866984
N82	N	0.914574	0.205862	-0.834581
N83	N	0.914572	0.205881	-0.772124
C84	C	0.909695	0.251654	-0.740195
C85	C	0.949996	0.218142	-0.971154
C86	C	0.949991	0.218118	-1.036898
C87	C	0.869406	0.285008	-1.036860
C88	C	0.869408	0.285027	-0.971118
C89	C	0.909706	0.251594	-0.938268
C90	C	0.909602	0.251695	-0.139717
C91	C	0.909702	0.251553	-0.069749
H92	H	0.269275	0.191134	-0.376465
Br93	Br	0.532717	0.330445	-0.208192
Br94	Br	0.814721	0.330378	-1.081443
Br95	Br	0.132201	0.172982	-0.398364
Br96	Br	0.687678	0.330465	-0.208171
H97	H	0.982583	0.450702	-0.230262
H98	H	0.550849	0.191176	-0.376441
Br99	Br	0.131879	0.330384	-0.208218
H100	H	0.269026	0.312283	-0.230111
H101	H	1.022994	0.800897	-0.190082
Br102	Br	0.814737	0.938350	-0.398099
H103	H	0.982793	1.052114	-0.230323
Br104	Br	0.814722	0.330424	-0.926486
H105	H	0.982763	0.953048	-0.230308
Br106	Br	1.004505	0.564556	-0.208441
H107	H	0.836434	0.450801	-0.376209
H108	H	0.796266	0.701998	-0.416476
Br109	Br	1.044827	0.687017	-0.168237
H110	H	0.836634	1.052204	-0.376261
H111	H	0.796288	0.801048	-0.416480
Br112	Br	0.814594	0.564704	-0.398049
Br113	Br	1.004657	0.172826	-0.680692
Br114	Br	0.814716	0.330493	-0.680606
Br115	Br	1.004689	0.172728	-1.081528
Br116	Br	1.004674	0.172884	-0.525732
Br117	Br	0.814705	0.330535	-0.525644
H118	H	0.982806	0.190916	-0.944406
H119	H	0.670112	0.191200	-0.376439
