data_functionalizedCrystal
_audit_creation_method	'MofGen! by Chris Wilmer'
_symmetry_space_group_name_H-M	'P1'
_symmetry_Int_Tables_number	1
_symmetry_cell_setting	triclinic
loop_
_symmetry_equiv_pos_as_xyz
  x,y,z
_cell_length_a	6.817900
_cell_length_b	12.908943
_cell_length_c	19.551786
_cell_angle_alpha	96.124405
_cell_angle_beta	101.662645
_cell_angle_gamma	100.860631
loop_
_atom_site_label
_atom_site_type_symbol
_atom_site_fract_x
_atom_site_fract_y
_atom_site_fract_z
V1	V	-3.987266	-0.329167	-0.095801
O2	O	-3.984824	-0.322397	0.005501
O3	O	-3.930115	-0.327400	-0.190820
O4	O	-3.925717	-0.472507	-0.093934
O5	O	-3.989252	-0.176286	-0.092056
V6	V	-4.473731	-0.310822	-0.083731
O7	O	-4.242069	-0.369407	-0.122278
O8	O	-4.669125	-0.270582	-0.057253
O9	O	-4.307675	-0.312589	0.011289
O10	O	-4.593570	-0.317592	-0.185033
O11	O	-4.589141	-0.463703	-0.087475
O12	O	-4.312073	-0.167482	-0.085598
C13	C	-3.773413	-0.322332	-0.213996
C14	C	-3.807885	-0.321843	-0.291674
C15	C	-4.027819	-0.221851	-0.841695
C16	C	-3.995411	-0.222300	-0.768708
C17	C	-4.007712	-0.319055	-0.741892
C18	C	-4.052375	-0.415366	-0.788070
C19	C	-4.084761	-0.414914	-0.861055
C20	C	-4.094943	-0.397758	-0.636021
C21	C	-4.062568	-0.398207	-0.563037
C22	C	-3.907815	-0.320454	-0.516782
C23	C	-3.785460	-0.242235	-0.543518
C24	C	-3.817846	-0.241783	-0.616503
C25	C	-3.972597	-0.319556	-0.662753
C26	C	-3.828004	-0.224635	-0.391472
C27	C	-3.795584	-0.225088	-0.318484
C28	C	-3.852569	-0.418157	-0.337848
C29	C	-3.884967	-0.417701	-0.410834
C30	C	-3.872691	-0.320937	-0.437642
C31	C	-3.767801	-0.507429	-0.090407
C32	C	-3.798704	-0.624614	-0.089509
C33	C	-4.219386	-0.855587	-0.094755
C34	C	-4.248431	-0.965692	-0.093911
C35	C	-3.885840	-0.954931	-0.086973
C36	C	-3.856795	-0.844826	-0.087817
C37	C	-4.023576	-0.795158	-0.091709
C38	C	-3.994531	-0.685051	-0.092557
C39	C	-3.631940	-0.674291	-0.085614
C40	C	-3.660985	-0.784397	-0.084770
C41	C	-4.127719	-0.317654	0.034461
C42	C	-4.072485	-0.318150	0.112138
C43	C	-4.133331	-0.132554	-0.089127
C44	C	-4.081667	-0.015369	-0.090022
H45	H	-3.718216	-0.178097	-0.638268
H46	H	-3.817994	-0.145844	-0.413300
Cl47	Cl	-3.385766	-0.598318	-0.081789
Cl48	Cl	-4.012384	-0.100206	-0.875392
Cl49	Cl	-3.939255	-0.101230	-0.710658
H50	H	-4.355190	-0.815148	-0.097931
H51	H	-3.759203	-0.146666	-0.280894
H52	H	-3.862575	-0.496936	-0.316016
H53	H	-4.121131	-0.493334	-0.898645
Cl54	Cl	-4.216389	-0.496535	-0.529434
Cl55	Cl	-3.941066	-0.538768	-0.468876
Cl56	Cl	-3.590876	-0.144495	-0.485376
H57	H	-4.220960	-0.461080	-0.673679
H58	H	-4.062384	-0.494144	-0.766232
H59	H	-4.407876	-1.014890	-0.096392
Cl60	Cl	-3.676204	-1.017390	-0.082085
H61	H	-3.525203	-0.824851	-0.081599
Cl62	Cl	-4.204197	-0.622613	-0.097452
