data_functionalizedCrystal
_audit_creation_method	'MofGen! by Chris Wilmer'
_symmetry_space_group_name_H-M	'P1'
_symmetry_Int_Tables_number	1
_symmetry_cell_setting	triclinic
loop_
_symmetry_equiv_pos_as_xyz
  x,y,z
_cell_length_a	19.077105
_cell_length_b	18.215406
_cell_length_c	18.215399
_cell_angle_alpha	89.984834
_cell_angle_beta	87.683200
_cell_angle_gamma	87.697670
loop_
_atom_site_label
_atom_site_type_symbol
_atom_site_fract_x
_atom_site_fract_y
_atom_site_fract_z
Zn1	Zn	1.076119	-0.338271	-0.461340
Zn2	Zn	1.409453	-0.004938	-0.128006
Zn3	Zn	1.742786	0.328396	0.205327
Zn4	Zn	1.076081	-0.461341	-0.338299
Zn5	Zn	1.409415	-0.128007	-0.004966
Zn6	Zn	1.742748	0.205326	0.328367
Zn7	Zn	0.958420	-0.333342	-0.333348
Zn8	Zn	1.291753	-0.000008	-0.000014
Zn9	Zn	1.625086	0.333325	0.333319
Zn10	Zn	0.958436	-0.456349	-0.456387
Zn11	Zn	1.291770	-0.123015	-0.123054
Zn12	Zn	1.625103	0.210318	0.210279
O13	O	1.017264	-0.397325	-0.397343
O14	O	1.350598	-0.063992	-0.064010
O15	O	1.683931	0.269341	0.269323
O16	O	1.174607	-0.358748	-0.449163
O17	O	1.507940	-0.025415	-0.115829
O18	O	1.841274	0.307918	0.217504
O19	O	1.060450	-0.444387	-0.234657
O20	O	1.393784	-0.111054	0.098676
O21	O	1.727117	0.222279	0.432010
O22	O	0.974042	-0.231012	-0.350327
O23	O	1.307375	0.102322	-0.016993
O24	O	1.640708	0.435655	0.316340
O25	O	1.174579	-0.449167	-0.358766
O26	O	1.507912	-0.115834	-0.025432
O27	O	1.841246	0.217500	0.307901
O28	O	1.060515	-0.234633	-0.444362
O29	O	1.393849	0.098700	-0.111028
O30	O	1.727182	0.432034	0.222305
O31	O	0.974005	-0.350347	-0.231019
O32	O	1.307338	-0.017014	0.102314
O33	O	1.640671	0.316319	0.435647
O34	O	0.859929	-0.345507	-0.345525
O35	O	1.193263	-0.012173	-0.012191
O36	O	1.526596	0.321160	0.321142
O37	O	0.974070	-0.440659	-0.560029
O38	O	1.307404	-0.107326	-0.226696
O39	O	1.640737	0.226008	0.106637
O40	O	0.859942	-0.435879	-0.435921
O41	O	1.193275	-0.102546	-0.102588
O42	O	1.526608	0.230787	0.230746
O43	O	1.060532	-0.353908	-0.563668
O44	O	1.393865	-0.020575	-0.230335
O45	O	1.727198	0.312759	0.102999
O46	O	1.060467	-0.563662	-0.353963
O47	O	1.393800	-0.230329	-0.020630
O48	O	1.727133	0.103004	0.312703
O49	O	0.974033	-0.559995	-0.440722
O50	O	1.307367	-0.226661	-0.107389
O51	O	1.640700	0.106672	0.225944
C52	C	0.834397	-0.389617	-0.389649
C53	C	1.167731	-0.056284	-0.056315
C54	C	1.501064	0.277050	0.277018
C55	C	0.756166	-0.386337	-0.386374
C56	C	1.089500	-0.053004	-0.053041
C57	C	1.422833	0.280330	0.280293
C58	C	1.017267	-0.588532	-0.397360
C59	C	1.350600	-0.255198	-0.064026
C60	C	1.683933	0.078135	0.269307
C61	C	1.017332	-0.670333	-0.397394
C62	C	1.350666	-0.337000	-0.064060
C63	C	1.683999	-0.003667	0.269273
C64	C	1.017307	-0.397276	-0.589298
C65	C	1.350640	-0.063943	-0.255965
C66	C	1.683974	0.269390	0.077368
C67	C	1.017325	-0.397256	-0.671098
C68	C	1.350659	-0.063922	-0.337765
C69	C	1.683992	0.269411	-0.004431
C70	C	0.719438	-0.431919	-0.431826
C71	C	1.052771	-0.098586	-0.098493
C72	C	1.386105	0.234747	0.234840
C73	C	0.645931	-0.428828	-0.428753
C74	C	0.979265	-0.095494	-0.095420
C75	C	1.312598	0.237839	0.237913
C76	C	0.609155	-0.380157	-0.380223
C77	C	0.942488	-0.046824	-0.046890
C78	C	1.275821	0.286510	0.286443
C79	C	0.645888	-0.334570	-0.334769
C80	C	0.979221	-0.001236	-0.001436
C81	C	1.312555	0.332097	0.331897
C82	C	0.719393	-0.337658	-0.337847
C83	C	1.052727	-0.004325	-0.004513
C84	C	1.386060	0.329008	0.328820
C85	C	0.389315	-0.365864	-0.365984
C86	C	0.722648	-0.032530	-0.032651
C87	C	1.055982	0.300803	0.300682
C88	C	0.315805	-0.362780	-0.362909
C89	C	0.649138	-0.029447	-0.029575
C90	C	0.982471	0.303886	0.303758
C91	C	0.315853	-0.457037	-0.456894
C92	C	0.649186	-0.123704	-0.123561
C93	C	0.982520	0.209629	0.209773
C94	C	0.389360	-0.460125	-0.459964
C95	C	0.722693	-0.126791	-0.126631
C96	C	1.056026	0.206542	0.206703
C97	C	0.426087	-0.414535	-0.414513
C98	C	0.759420	-0.081201	-0.081179
C99	C	1.092753	0.252132	0.252154
N100	N	0.534019	-0.376997	-0.377079
N101	N	0.867352	-0.043664	-0.043746
N102	N	1.200686	0.289669	0.289587
N103	N	0.501221	-0.417691	-0.417661
N104	N	0.834554	-0.084358	-0.084328
N105	N	1.167887	0.248976	0.249006
C106	C	1.200845	-0.405064	-0.405069
C107	C	1.534178	-0.071731	-0.071736
C108	C	1.867512	0.261602	0.261598
C109	C	1.279076	-0.408362	-0.408361
C110	C	1.612410	-0.075029	-0.075028
C111	C	1.945743	0.258304	0.258306
C112	C	1.017281	-0.205373	-0.397344
C113	C	1.350614	0.127960	-0.064011
C114	C	1.683947	0.461293	0.269322
C115	C	1.017288	-0.123575	-0.397345
C116	C	1.350621	0.209759	-0.064011
C117	C	1.683955	0.543092	0.269322
C118	C	0.972283	0.066505	-0.348408
C119	C	1.305617	0.399839	-0.015075
C120	C	1.638950	0.733172	0.318259
C121	C	0.972289	0.143364	-0.348417
C122	C	1.305623	0.476697	-0.015084
C123	C	1.638956	0.810030	0.318250
C124	C	1.062339	0.139581	-0.446336
C125	C	1.395672	0.472915	-0.113002
C126	C	1.729005	0.806248	0.220331
C127	C	1.062329	0.062724	-0.446329
C128	C	1.395662	0.396058	-0.112996
C129	C	1.728995	0.729391	0.220337
C130	C	1.017302	0.026188	-0.397361
C131	C	1.350636	0.359522	-0.064028
C132	C	1.683969	0.692855	0.269305
C133	C	1.017318	0.179904	-0.397377
C134	C	1.350651	0.513237	-0.064044
C135	C	1.683985	0.846570	0.269290
C136	C	1.017325	0.263237	-0.397387
C137	C	1.350658	0.596570	-0.064054
C138	C	1.683991	0.929904	0.269279
C139	C	1.017294	-0.057150	-0.397352
C140	C	1.350628	0.276183	-0.064019
C141	C	1.683961	0.609516	0.269315
C142	C	1.062362	-0.352041	-0.861188
C143	C	1.395695	-0.018708	-0.527855
C144	C	1.729029	0.314626	-0.194522
C145	C	1.062370	-0.352020	-0.938048
C146	C	1.395704	-0.018687	-0.604714
C147	C	1.729037	0.314647	-0.271381
C148	C	0.972339	-0.442359	-0.934248
C149	C	1.305672	-0.109025	-0.600914
C150	C	1.639005	0.224308	-0.267581
C151	C	0.972327	-0.442375	-0.857390
C152	C	1.305660	-0.109042	-0.524056
C153	C	1.638994	0.224291	-0.190723
C154	C	1.017343	-0.397218	-0.820862
C155	C	1.350676	-0.063884	-0.487529
C156	C	1.684009	0.269449	-0.154196
C157	C	1.017363	-0.397180	-0.974579
C158	C	1.350696	-0.063847	-0.641246
C159	C	1.684029	0.269487	-0.307913
C160	C	1.017371	-0.397157	-1.057913
C161	C	1.350705	-0.063824	-0.724580
C162	C	1.684038	0.269509	-0.391247
C163	C	1.017333	-0.397239	-0.737523
C164	C	1.350667	-0.063906	-0.404190
C165	C	1.684000	0.269428	-0.070856
C166	C	1.017262	-0.397323	-0.206137
C167	C	1.350595	-0.063989	0.127196
C168	C	1.683929	0.269344	0.460530
C169	C	1.017380	-0.397142	-0.124344
C170	C	1.350713	-0.063809	0.208990
C171	C	1.684047	0.269525	0.542323
H172	H	0.749376	-0.471555	-0.471342
H173	H	1.082710	-0.138221	-0.138009
H174	H	1.416043	0.195112	0.195325
H175	H	0.616030	-0.465946	-0.465765
H176	H	0.949364	-0.132613	-0.132431
H177	H	1.282697	0.200720	0.200902
H178	H	0.419298	-0.499759	-0.499480
H179	H	0.752632	-0.166426	-0.166147
H180	H	1.085965	0.166908	0.167186
C181	C	1.111874	-0.302360	-0.821011
C182	C	1.445207	0.030974	-0.487677
C183	C	1.778541	0.364307	-0.154344
N184	N	1.149166	-0.264935	-0.790751
N185	N	1.482499	0.068398	-0.457418
N186	N	1.815832	0.401731	-0.124084
C187	C	0.922759	0.187709	-0.294570
C188	C	1.256092	0.521043	0.038763
C189	C	1.589426	0.854376	0.372096
N190	N	0.885448	0.221110	-0.254013
N191	N	1.218781	0.554444	0.079320
N192	N	1.552115	0.887777	0.412654
H193	H	1.098999	0.169337	-0.486203
H194	H	1.432333	0.502670	-0.152870
H195	H	1.765666	0.836003	0.180463
H196	H	0.419209	-0.328747	-0.328969
H197	H	0.752543	0.004587	0.004364
H198	H	1.085876	0.337920	0.337698
C199	C	0.922798	-0.492073	-0.813028
C200	C	1.256131	-0.158740	-0.479695
C201	C	1.589465	0.174593	-0.146361
N202	N	0.885492	-0.529502	-0.779615
N203	N	1.218826	-0.196169	-0.446282
N204	N	1.552159	0.137164	-0.112948
C205	C	0.275351	-0.309236	-0.309521
C206	C	0.608685	0.024098	0.023812
C207	C	0.942018	0.357431	0.357146
N208	N	0.244882	-0.268909	-0.269310
N209	N	0.578215	0.064425	0.064023
N210	N	0.911549	0.397758	0.397356
C211	C	0.922747	0.026319	-0.294548
C212	C	1.256081	0.359652	0.038786
C213	C	1.589414	0.692985	0.372119
N214	N	0.885433	-0.003948	-0.253981
N215	N	1.218766	0.329386	0.079353
N216	N	1.552099	0.662719	0.412686
C217	C	1.111859	0.018373	-0.500182
C218	C	1.445192	0.351706	-0.166848
C219	C	1.778525	0.685039	0.166485
N220	N	1.149163	-0.015033	-0.540741
N221	N	1.482497	0.318301	-0.207408
N222	N	1.815830	0.651634	0.125925
C223	C	1.111896	-0.302324	-0.982403
C224	C	1.445230	0.031010	-0.649070
C225	C	1.778563	0.364343	-0.315736
N226	N	1.149202	-0.264890	-1.015811
N227	N	1.482535	0.068443	-0.682478
N228	N	1.815869	0.401777	-0.349145
C229	C	0.922823	-0.492028	-0.974435
C230	C	1.256156	-0.158694	-0.641102
C231	C	1.589489	0.174639	-0.307768
N232	N	0.885526	-0.529439	-1.004703
N233	N	1.218859	-0.196106	-0.671370
N234	N	1.552193	0.137227	-0.338037
H235	H	0.285942	-0.494153	-0.493899
H236	H	0.619275	-0.160820	-0.160566
H237	H	0.952609	0.172514	0.172768
H238	H	0.615938	-0.294938	-0.295259
H239	H	0.949272	0.038395	0.038075
H240	H	1.282605	0.371729	0.371408
H241	H	0.749296	-0.300536	-0.300838
H242	H	1.082630	0.032797	0.032495
H243	H	1.415963	0.366130	0.365828
