data_functionalizedCrystal
_audit_creation_method	'MofGen! by Chris Wilmer'
_symmetry_space_group_name_H-M	'P1'
_symmetry_Int_Tables_number	1
_symmetry_cell_setting	triclinic
loop_
_symmetry_equiv_pos_as_xyz
  x,y,z
_cell_length_a	29.839134
_cell_length_b	15.297327
_cell_length_c	15.296720
_cell_angle_alpha	72.680778
_cell_angle_beta	99.652568
_cell_angle_gamma	80.296475
loop_
_atom_site_label
_atom_site_type_symbol
_atom_site_fract_x
_atom_site_fract_y
_atom_site_fract_z
Zn1	Zn	0.596149	0.461371	-0.590063
Zn2	Zn	0.596098	0.589993	-0.461457
Zn3	Zn	0.536751	0.434485	-0.434558
Zn4	Zn	0.505292	0.616813	-0.616866
O5	O	0.558573	0.525666	-0.525736
O6	O	0.659004	0.478461	-0.573043
O7	O	0.601370	0.546888	-0.327770
O8	O	0.557817	0.307918	-0.432711
O9	O	0.658966	0.572959	-0.478557
O10	O	0.601457	0.327671	-0.546960
O11	O	0.557768	0.432637	-0.308007
O12	O	0.469717	0.458643	-0.458701
O13	O	0.504200	0.618670	-0.743430
O14	O	0.446604	0.592599	-0.592643
O15	O	0.570953	0.504468	-0.723737
O16	O	0.570866	0.723684	-0.504547
O17	O	0.504151	0.743389	-0.618726
C18	C	0.534099	0.767282	-0.567484
C19	C	0.523667	0.870652	-0.585376
C20	C	0.441861	0.525615	-0.525662
C21	C	0.391927	0.525619	-0.525656
C22	C	0.534073	0.567560	-0.768265
C23	C	0.523633	0.585412	-0.871617
C24	C	0.070246	0.595492	-0.595422
C25	C	-0.117434	0.595525	-0.595468
O26	O	-0.151926	0.654883	-0.654737
N27	N	-0.128880	0.525712	-0.525812
C28	C	-0.093402	0.455882	-0.456143
O29	O	-0.107443	0.396496	-0.396904
C30	C	0.094277	0.455845	-0.456102
C31	C	0.105719	0.525669	-0.525757
C32	C	0.081689	0.665309	-0.665071
C33	C	0.128606	0.665303	-0.665056
C34	C	0.164080	0.595480	-0.595391
C35	C	0.152637	0.525663	-0.525742
C36	C	0.129754	0.386012	-0.386438
C37	C	0.176676	0.386008	-0.386436
C38	C	0.188118	0.455831	-0.456090
C39	C	0.235028	0.455833	-0.456062
N40	N	0.246474	0.525647	-0.525718
C41	C	0.211000	0.595470	-0.595382
C42	C	-0.191937	0.455907	-0.456169
C43	C	-0.238856	0.455917	-0.456178
C44	C	-0.262886	0.595559	-0.595503
C45	C	-0.215965	0.595553	-0.595490
C46	C	-0.180491	0.525720	-0.525825
C47	C	0.309530	0.595452	-0.595345
C48	C	0.356453	0.595442	-0.595321
C49	C	0.380478	0.455797	-0.455999
C50	C	0.333560	0.455809	-0.456019
C51	C	0.298086	0.525641	-0.525700
O52	O	0.269543	0.396501	-0.396829
O53	O	0.225051	0.654834	-0.654625
C54	C	0.023328	0.595498	-0.595437
C55	C	0.011885	0.525681	-0.525787
C56	C	0.047359	0.455858	-0.456122
C57	C	-0.035035	0.525691	-0.525796
C58	C	-0.070509	0.595514	-0.595461
C59	C	-0.059063	0.665327	-0.665117
C60	C	-0.012146	0.665321	-0.665102
C61	C	0.035913	0.386044	-0.386467
C62	C	-0.011005	0.386057	-0.386487
C63	C	-0.046479	0.455880	-0.456152
C64	C	0.675740	0.525718	-0.525811
C65	C	0.725670	0.525740	-0.525843
C66	C	0.583152	0.283109	-0.483845
C67	C	0.593626	0.179746	-0.465994
C68	C	0.633284	1.120902	-0.398182
C69	C	0.643086	1.023779	-0.381368
C70	C	0.613232	0.985493	-0.432368
C71	C	0.573575	1.044338	-0.500186
C72	C	0.563771	1.141469	-0.516997
C73	C	0.543718	1.006060	-0.551183
C74	C	0.504061	1.064905	-0.619001
C75	C	0.494259	1.162026	-0.635809
C76	C	0.524112	1.200313	-0.584809
C77	C	0.553523	0.908929	-0.534372
C78	C	0.484009	0.929497	-0.653187
C79	C	0.474207	1.026619	-0.670002
C80	C	0.633224	0.397907	-1.121938
C81	C	0.643036	0.381135	-1.024834
C82	C	0.613186	0.432202	-0.986525
C83	C	0.573523	0.500045	-1.045329
C84	C	0.563712	0.516824	-1.142443
C85	C	0.543674	0.551120	-1.007030
C86	C	0.504010	0.618963	-1.065834
C87	C	0.494201	0.635738	-1.162939
C88	C	0.524051	0.584670	-1.201248
C89	C	0.553484	0.534341	-0.909916
C90	C	0.483972	0.653258	-0.930422
C91	C	0.474160	0.670030	-1.027525
C92	C	0.583010	0.483868	-0.284139
C93	C	0.593563	0.465753	-0.180743
H94	H	0.365765	0.652304	-0.652044
O95	O	0.211151	0.318096	-0.318873
C96	C	0.239025	0.267284	-0.361534
H97	H	0.218074	0.274310	-0.433812
H98	H	0.271357	0.296576	-0.369640
C99	C	0.279831	0.154088	-0.210777
C100	C	0.254097	0.162711	-0.299547
H101	H	0.289131	0.089583	-0.172539
H102	H	0.261053	0.188322	-0.182034
H103	H	0.306772	0.178504	-0.217545
H104	H	0.227155	0.138307	-0.292779
H105	H	0.272871	0.128470	-0.328287
H106	H	0.461963	1.209934	-0.691020
H107	H	-0.002835	0.722178	-0.721822
O108	O	0.455709	0.701650	-1.220203
C109	C	0.453448	0.705497	-1.314125
H110	H	0.489861	0.677335	-1.322145
H111	H	0.429031	0.660739	-1.333126
C112	C	0.390048	0.842795	-1.370371
C113	C	0.434772	0.808212	-1.380223
H114	H	0.378526	0.906153	-1.411145
H115	H	0.391570	0.840201	-1.307094
H116	H	0.369707	0.805487	-1.386204
H117	H	0.455113	0.845512	-1.364379
H118	H	0.433253	0.810815	-1.443499
O119	O	0.662297	1.158169	-0.348773
C120	C	0.680265	1.223481	-0.411469
H121	H	0.678595	1.206829	-0.479634
H122	H	0.658605	1.297647	-0.427399
C123	C	0.733459	1.237582	-0.282637
C124	C	0.731411	1.217125	-0.366355
H125	H	0.765008	1.233666	-0.254809
H126	H	0.721353	1.193583	-0.240397
H127	H	0.715406	1.299386	-0.295924
H128	H	0.749459	1.155318	-0.353066
H129	H	0.743522	1.261114	-0.408593
O130	O	0.435723	1.083767	-0.736000
C131	C	0.438537	1.075981	-0.824576
H132	H	0.476642	1.050044	-0.824719
H133	H	0.417676	1.023826	-0.839080
C134	C	0.371512	1.204821	-0.901373
C135	C	0.418315	1.172972	-0.901550
H136	H	0.359036	1.264648	-0.948855
H137	H	0.369615	1.210064	-0.841697
H138	H	0.354134	1.161350	-0.913456
H139	H	0.435693	1.216437	-0.889455
H140	H	0.420214	1.167738	-0.961226
O141	O	0.592046	0.468561	-0.852778
C142	C	0.621365	0.511802	-0.805744
H143	H	0.613765	0.590101	-0.847653
H144	H	0.614585	0.502282	-0.732692
C145	C	0.682152	0.369958	-0.744961
C146	C	0.672820	0.466125	-0.796439
H147	H	0.713891	0.341780	-0.739217
H148	H	0.662398	0.340824	-0.776646
H149	H	0.676498	0.362037	-0.684090
H150	H	0.678467	0.474044	-0.857312
H151	H	0.692575	0.495259	-0.764764
O152	O	0.681625	0.966539	-0.315610
C153	C	0.710949	0.919465	-0.358881
H154	H	0.689432	0.917081	-0.426795
H155	H	0.739428	0.958616	-0.375637
C156	C	0.760006	0.821306	-0.208360
C157	C	0.733577	0.818370	-0.291769
H158	H	0.773966	0.758947	-0.166962
H159	H	0.740251	0.853022	-0.179207
H160	H	0.783734	0.853936	-0.222336
H161	H	0.709846	0.785751	-0.277794
H162	H	0.753329	0.786646	-0.320919
O163	O	0.275035	0.663312	-0.662909
C164	C	0.247177	0.714159	-0.620252
H165	H	0.250570	0.669088	-0.544160
H166	H	0.259332	0.781264	-0.621812
C167	C	0.191574	0.795292	-0.767795
C168	C	0.195739	0.739932	-0.674339
H169	H	0.159845	0.811195	-0.801160
H170	H	0.210344	0.761039	-0.796536
H171	H	0.201706	0.851206	-0.769082
H172	H	0.185613	0.684015	-0.673053
H173	H	0.176966	0.774177	-0.645600
O174	O	-0.204794	0.663252	-0.663180
C175	C	-0.178382	0.620787	-0.714207
H176	H	-0.160916	0.544616	-0.669341
H177	H	-0.202395	0.622583	-0.781382
C178	C	-0.162141	0.768425	-0.794913
C179	C	-0.140685	0.674872	-0.739805
H180	H	-0.138889	0.801789	-0.810708
H181	H	-0.179936	0.797036	-0.760538
H182	H	-0.182151	0.769908	-0.850886
H183	H	-0.120680	0.673390	-0.683829
H184	H	-0.122885	0.646263	-0.774171
O185	O	-0.157537	0.388024	-0.388396
C186	C	-0.177708	0.326404	-0.326940
H187	H	-0.214677	0.363940	-0.330257
H188	H	-0.179002	0.261731	-0.348911
C189	C	-0.102646	0.249647	-0.221573
C190	C	-0.148051	0.295753	-0.225642
H191	H	-0.084352	0.230735	-0.159088
H192	H	-0.089056	0.291159	-0.262979
H193	H	-0.103731	0.195759	-0.239888
H194	H	-0.146966	0.349646	-0.207339
H195	H	-0.161640	0.254248	-0.184231
H196	H	-0.291777	0.652412	-0.652227
O197	O	0.435653	0.736047	-1.084573
C198	C	0.438479	0.824643	-1.076878
H199	H	0.462673	0.814402	-1.006714
H200	H	0.452881	0.865415	-1.136954
C201	C	0.359716	0.892756	-1.168273
C202	C	0.389428	0.880178	-1.082093
H203	H	0.329458	0.927015	-1.171495
H204	H	0.357812	0.833068	-1.173461
H205	H	0.371722	0.926729	-1.218328
H206	H	0.377424	0.846195	-1.032041
H207	H	0.391328	0.939861	-1.076897
O208	O	0.070312	0.318171	-0.318697
C209	C	0.050142	0.256547	-0.257243
H210	H	0.013171	0.294079	-0.260565
H211	H	0.048852	0.191872	-0.279213
C212	C	0.125203	0.179800	-0.151869
C213	C	0.079796	0.225900	-0.155943
H214	H	0.143495	0.160892	-0.089383
H215	H	0.138792	0.221315	-0.193273
H216	H	0.124122	0.125911	-0.170183
H217	H	0.080877	0.279795	-0.137641
H218	H	0.066207	0.184394	-0.114534
O219	O	0.047290	0.733236	-0.732792
C220	C	0.067463	0.794831	-0.794269
H221	H	0.104431	0.791386	-0.756706
H222	H	0.068762	0.773098	-0.859080
C223	C	-0.007599	0.900356	-0.870750
C224	C	0.037804	0.896131	-0.824612
H225	H	-0.025894	0.962843	-0.889471
H226	H	-0.021190	0.858857	-0.829335
H227	H	-0.006510	0.882241	-0.924754
H228	H	0.036715	0.914235	-0.770603
H229	H	0.051395	0.937636	-0.866019
H230	H	0.621215	0.906411	-0.418673
H231	H	-0.087955	0.722182	-0.721838
H232	H	0.459699	0.898325	-0.694715
H233	H	0.120447	0.329156	-0.329716
O234	O	0.414984	0.388096	-0.388309
C235	C	0.442831	0.430555	-0.337280
H236	H	0.439419	0.506729	-0.382139
H237	H	0.430681	0.428750	-0.270098
C238	C	0.498464	0.282917	-0.256595
C239	C	0.494276	0.376474	-0.311695
H240	H	0.530198	0.249556	-0.240809
H241	H	0.479702	0.254310	-0.290971
H242	H	0.488337	0.281426	-0.200617
H243	H	0.504398	0.377964	-0.367677
H244	H	0.513041	0.405080	-0.277328
O245	O	0.591994	0.851716	-0.468396
C246	C	0.578179	0.785196	-0.398581
H247	H	0.540426	0.813512	-0.397835
H248	H	0.581150	0.716542	-0.414584
C249	C	0.656442	0.732246	-0.302627
C250	C	0.610074	0.767027	-0.301705
H251	H	0.676118	0.721034	-0.242869
H252	H	0.665751	0.777059	-0.349663
H253	H	0.658911	0.675038	-0.315966
H254	H	0.607605	0.824240	-0.288378
H255	H	0.600766	0.722224	-0.254664
O256	O	0.514619	1.294686	-0.601294
C257	C	0.513837	1.342475	-0.696050
H258	H	0.535169	1.293097	-0.724836
H259	H	0.476211	1.366697	-0.739250
C260	C	0.508792	1.489303	-0.666959
C261	C	0.534997	1.428659	-0.702312
H262	H	0.521843	1.542469	-0.670824
H263	H	0.509317	1.457109	-0.603120
H264	H	0.477439	1.509478	-0.702964
H265	H	0.566348	1.408476	-0.666300
H266	H	0.534478	1.460853	-0.766145
H267	H	0.459666	0.694844	-0.899231
H268	H	0.137917	0.722159	-0.721778
H269	H	0.621177	0.418543	-0.907458
O270	O	0.681569	0.315172	-0.967844
C271	C	0.705818	0.273712	-1.022479
H272	H	0.680752	0.282440	-1.091132
H273	H	0.735439	0.309568	-1.038711
C274	C	0.756939	0.157474	-0.883171
C275	C	0.726152	0.168188	-0.967489
H276	H	0.769484	0.092383	-0.849250
H277	H	0.740604	0.185409	-0.846362
H278	H	0.781620	0.187361	-0.896710
H279	H	0.701469	0.138312	-0.953948
H280	H	0.742483	0.140245	-1.004295
H281	H	-0.248167	0.399067	-0.399450
H282	H	0.324243	0.398955	-0.399299
H283	H	-0.020315	0.329198	-0.329758
H284	H	0.657526	0.356340	-1.153140
H285	H	0.516064	0.598323	-1.280317
