data_functionalizedCrystal
_audit_creation_method	'MofGen! by Chris Wilmer'
_symmetry_space_group_name_H-M	'P1'
_symmetry_Int_Tables_number	1
_symmetry_cell_setting	triclinic
loop_
_symmetry_equiv_pos_as_xyz
  x,y,z
_cell_length_a	15.995350
_cell_length_b	11.792241
_cell_length_c	10.868271
_cell_angle_alpha	90.005281
_cell_angle_beta	89.999330
_cell_angle_gamma	96.157105
loop_
_atom_site_label
_atom_site_type_symbol
_atom_site_fract_x
_atom_site_fract_y
_atom_site_fract_z
O1	O	1.111649	-0.146296	-0.102218
O2	O	1.611649	0.353704	0.397782
O3	O	0.867956	-0.164362	-0.102244
O4	O	1.367956	0.335638	0.397756
O5	O	0.995716	0.009891	-0.102222
O6	O	1.495716	0.509891	0.397778
O7	O	0.983889	-0.320549	-0.102240
O8	O	1.483889	0.179451	0.397760
O9	O	0.995706	0.009898	0.102423
O10	O	1.495706	0.509898	0.602423
O11	O	0.867946	-0.164355	0.102401
O12	O	1.367946	0.335645	0.602401
O13	O	1.111639	-0.146289	0.102426
O14	O	1.611639	0.353711	0.602426
Zn15	Zn	0.989790	-0.155321	0.134905
Zn16	Zn	1.489790	0.344679	0.634905
Zn17	Zn	0.989804	-0.155330	-0.134723
Zn18	Zn	1.489804	0.344670	0.365277
O19	O	0.983878	-0.320542	0.102404
O20	O	1.483878	0.179458	0.602404
C21	C	0.836753	-0.163612	0.000075
C22	C	1.336753	0.336388	0.500075
C23	C	0.743792	-0.161372	0.000066
C24	C	1.243792	0.338628	0.500066
C25	C	0.406008	-0.153331	0.000092
C26	C	0.906008	0.346669	0.500092
C27	C	0.452879	-0.029232	0.000555
C28	C	0.952879	0.470768	0.500555
C29	C	0.549579	-0.031471	0.000085
C30	C	1.049579	0.468529	0.500085
C31	C	0.573587	-0.157320	0.000080
C32	C	1.073587	0.342680	0.500080
C33	C	0.532784	-0.218534	-0.116781
C34	C	1.032784	0.281466	0.383219
C35	C	0.436134	-0.215416	-0.116870
C36	C	0.936134	0.284584	0.383130
C37	C	0.435794	-0.217973	0.115849
C38	C	0.935794	0.282027	0.615849
C39	C	0.532740	-0.217943	0.117385
C40	C	1.032740	0.282057	0.617385
C41	C	0.668295	-0.159581	0.000069
C42	C	1.168295	0.340419	0.500069
C43	C	0.311300	-0.151074	0.000095
C44	C	0.811300	0.348926	0.500095
C45	C	0.994968	0.052179	0.000100
C46	C	1.494968	0.552179	0.500100
C47	C	0.992745	0.178174	0.000099
C48	C	1.492745	0.678174	0.500099
C49	C	1.142842	-0.147040	0.000104
C50	C	1.642842	0.352960	0.500104
C51	C	1.235803	-0.149279	0.000106
C52	C	1.735803	0.350721	0.500106
C53	C	0.984627	-0.362830	0.000080
C54	C	1.484627	0.137170	0.500080
C55	C	0.986850	-0.488825	0.000073
C56	C	1.486850	0.011175	0.500073
N57	N	0.989787	-0.155314	0.318919
N58	N	1.489787	0.344686	0.818919
C59	C	0.988655	0.408852	0.000078
C60	C	1.488655	0.908852	0.500078
C61	C	0.990927	0.280486	0.000089
C62	C	1.490927	0.780486	0.500089
N63	N	0.989814	-0.155328	-0.318737
N64	N	1.489814	0.344672	0.181263
C65	C	0.989800	-0.155328	0.569925
C66	C	1.489800	0.344672	1.069925
C67	C	0.989790	-0.155324	0.430248
C68	C	1.489790	0.344676	0.930248
H69	H	0.433065	0.020143	-0.082783
H70	H	0.933065	0.520143	0.417217
Cl71	Cl	0.574490	-0.148838	0.250862
Cl72	Cl	1.074490	0.351162	0.750862
Cl73	Cl	0.423923	0.047362	0.129945
Cl74	Cl	0.923923	0.547362	0.629945
H75	H	0.560969	-0.176023	-0.203747
H76	H	1.060969	0.323977	0.296253
H77	H	0.404448	-0.309470	0.116635
H78	H	0.904448	0.190530	0.616635
Cl79	Cl	0.557096	-0.359640	0.128275
Cl80	Cl	1.057096	0.140360	0.628275
H81	H	0.577785	0.016646	0.083857
H82	H	1.077785	0.516646	0.583857
H83	H	0.547328	-0.310992	-0.121130
H84	H	1.047328	0.189008	0.378870
Cl85	Cl	0.592232	0.042984	-0.129690
Cl86	Cl	1.092232	0.542984	0.370310
H87	H	0.417627	-0.170782	-0.204222
H88	H	0.917627	0.329218	0.295778
Cl89	Cl	0.386980	-0.356082	-0.125067
Cl90	Cl	0.886980	0.143918	0.374933
H91	H	0.415070	-0.177399	0.204427
H92	H	0.915070	0.322601	0.704427
