data_functionalizedCrystal
_audit_creation_method	'MofGen! by Chris Wilmer'
_symmetry_space_group_name_H-M	'P1'
_symmetry_Int_Tables_number	1
_symmetry_cell_setting	triclinic
loop_
_symmetry_equiv_pos_as_xyz
  x,y,z
_cell_length_a	9.065218
_cell_length_b	10.967829
_cell_length_c	7.540329
_cell_angle_alpha	77.868523
_cell_angle_beta	89.996962
_cell_angle_gamma	84.859494
loop_
_atom_site_label
_atom_site_type_symbol
_atom_site_fract_x
_atom_site_fract_y
_atom_site_fract_z
O1	O	1.959361	0.182986	-0.203407
O2	O	1.529992	0.197996	-0.207996
O3	O	1.754579	0.008953	-0.150213
O4	O	1.734774	0.372029	-0.261190
O5	O	1.754565	0.008950	0.144753
O6	O	1.529978	0.197993	0.086970
O7	O	1.959348	0.182984	0.091559
Cu8	Cu	1.744662	0.190488	0.116197
Cu9	Cu	1.744678	0.190491	-0.232634
O10	O	1.734761	0.372026	0.033776
C11	C	1.475006	0.196552	-0.060073
C12	C	1.311188	0.192239	-0.058755
C13	C	1.753130	-0.037554	0.011481
C14	C	1.748816	-0.176128	0.053826
C15	C	1.746899	-0.237901	-0.080098
C16	C	1.742440	-0.381123	-0.036336
C17	C	2.014333	0.184427	-0.056368
C18	C	2.178152	0.188741	-0.057697
C19	C	1.736210	0.418534	-0.127922
C20	C	1.740524	0.557107	-0.170279
N21	N	1.744661	0.190485	0.361546
N22	N	1.744690	0.190484	-0.477981
H23	H	1.740770	-0.434264	0.110730
H24	H	1.748553	-0.184754	-0.227154
O25	O	1.742432	-0.379309	-0.345634
C26	C	1.748260	-0.178551	-0.549143
C27	C	1.746232	-0.250416	-0.350477
H28	H	1.751301	-0.074325	-0.553125
H29	H	1.850512	-0.214166	-0.617780
H30	H	1.644350	-0.193960	-0.623613
H31	H	1.850071	-0.235038	-0.275855
H32	H	1.643912	-0.214787	-0.281978
O33	O	1.746879	-0.239716	0.229170
C34	C	1.740494	-0.440422	0.432654
C35	C	1.742727	-0.368574	0.233996
H36	H	1.737105	-0.544613	0.436620
H37	H	1.844377	-0.425256	0.507400
H38	H	1.638230	-0.404563	0.501017
H39	H	1.844923	-0.404388	0.165476
H40	H	1.638776	-0.383739	0.159384
