data_functionalizedCrystal
_audit_creation_method	'MofGen! by Chris Wilmer'
_symmetry_space_group_name_H-M	'P1'
_symmetry_Int_Tables_number	1
_symmetry_cell_setting	triclinic
loop_
_symmetry_equiv_pos_as_xyz
  x,y,z
_cell_length_a	9.065215
_cell_length_b	10.967829
_cell_length_c	8.140239
_cell_angle_alpha	77.868595
_cell_angle_beta	89.997810
_cell_angle_gamma	84.859043
loop_
_atom_site_label
_atom_site_type_symbol
_atom_site_fract_x
_atom_site_fract_y
_atom_site_fract_z
O1	O	1.959363	0.182969	-0.188388
O2	O	2.459363	0.682969	0.311612
O3	O	1.529993	0.197982	-0.192645
O4	O	2.029993	0.697982	0.307355
O5	O	1.754580	0.008937	-0.139117
O6	O	2.254580	0.508937	0.360883
O7	O	1.734776	0.372013	-0.241916
O8	O	2.234776	0.872013	0.258084
O9	O	1.754568	0.008935	0.134110
O10	O	2.254568	0.508935	0.634110
O11	O	1.529980	0.197980	0.080582
O12	O	2.029980	0.697980	0.580582
O13	O	1.959351	0.182967	0.084840
O14	O	2.459351	0.682967	0.584840
Zn15	Zn	1.744664	0.190473	0.126092
Zn16	Zn	2.244664	0.690473	0.626092
Zn17	Zn	1.744680	0.190476	-0.233898
Zn18	Zn	2.244680	0.690476	0.266102
O19	O	1.734763	0.372011	0.031311
O20	O	2.234763	0.872011	0.531311
C21	C	1.475008	0.196539	-0.055624
C22	C	1.975008	0.696539	0.444376
C23	C	1.311189	0.192227	-0.054406
C24	C	1.811189	0.692227	0.445594
C25	C	1.753132	-0.037570	0.010660
C26	C	2.253132	0.462430	0.510660
C27	C	1.748818	-0.176143	0.049885
C28	C	2.248818	0.323857	0.549885
C29	C	1.746901	-0.237916	-0.074170
C30	C	2.246901	0.262084	0.425830
C31	C	1.742442	-0.381139	-0.033633
C32	C	2.242442	0.118861	0.466367
C33	C	2.014335	0.184410	-0.052185
C34	C	2.514335	0.684410	0.447815
C35	C	2.178154	0.188721	-0.053414
C36	C	2.678154	0.688721	0.446586
C37	C	1.736211	0.418518	-0.118470
C38	C	2.236211	0.918518	0.381530
C39	C	1.740526	0.557092	-0.157705
C40	C	2.240526	1.057092	0.342295
N41	N	1.744663	0.190470	0.371775
N42	N	2.244663	0.690470	0.871775
N43	N	1.744692	0.190469	-0.479578
N44	N	2.244692	0.690469	0.020422
H45	H	1.748555	-0.184770	-0.210388
H46	H	2.248555	0.315230	0.289612
H47	H	1.747149	-0.229288	0.186102
H48	H	2.247149	0.270712	0.686102
H49	H	1.742168	-0.389767	-0.293933
H50	H	2.242168	0.110233	0.206067
C51	C	1.736199	-0.580862	0.154835
C52	C	2.236199	-0.080862	0.654835
C53	C	1.740188	-0.452865	0.150273
C54	C	2.240188	0.047135	0.650273
H55	H	1.734812	-0.625140	0.268369
H56	H	2.234812	-0.125140	0.768369
H57	H	1.649658	-0.593578	0.097200
H58	H	2.149658	-0.093578	0.597200
H59	H	1.821440	-0.610675	0.102050
H60	H	2.321440	-0.110675	0.602050
H61	H	1.654941	-0.423049	0.203047
H62	H	2.154941	0.076951	0.703047
H63	H	1.826738	-0.440140	0.207931
H64	H	2.326738	0.059860	0.707931
