data_functionalizedCrystal
_audit_creation_method	'MofGen! by Chris Wilmer'
_symmetry_space_group_name_H-M	'P1'
_symmetry_Int_Tables_number	1
_symmetry_cell_setting	triclinic
loop_
_symmetry_equiv_pos_as_xyz
  x,y,z
_cell_length_a	6.817900
_cell_length_b	11.229577
_cell_length_c	7.076028
_cell_angle_alpha	91.862350
_cell_angle_beta	117.700652
_cell_angle_gamma	70.576613
loop_
_atom_site_label
_atom_site_type_symbol
_atom_site_fract_x
_atom_site_fract_y
_atom_site_fract_z
V1	V	-4.229725	0.172693	-0.665017
O2	O	-4.182041	-0.010368	-0.652343
O3	O	-4.209989	0.344411	-0.660483
O4	O	-4.256094	0.169128	-0.955047
O5	O	-4.135616	0.166128	-0.355739
V6	V	-4.699950	0.150904	-0.628023
O7	O	-4.520153	0.220489	-0.746166
O8	O	-4.859719	0.103108	-0.546874
O9	O	-4.496479	-0.020815	-0.632557
O10	O	-4.865031	0.333965	-0.640697
O11	O	-4.911455	0.157468	-0.937300
O12	O	-4.450373	0.154468	-0.337993
C13	C	-4.059544	0.386301	-0.649996
C14	C	-4.125193	0.526678	-0.648222
C15	C	-4.331219	0.595342	-0.657547
C16	C	-4.399075	0.740428	-0.655714
C17	C	-4.317232	0.937302	-0.643034
C18	C	-4.251583	0.796925	-0.644807
C19	C	-4.251439	0.160890	-0.267290
C20	C	-4.125319	0.162700	-0.025731
H21	H	-4.075075	0.737906	-0.636817
O22	O	-3.974344	0.584506	-0.636783
C23	C	-3.756748	0.531925	-0.445101
H24	H	-3.734834	0.432405	-0.387456
H25	H	-3.754824	0.595427	-0.315701
C26	C	-3.578175	0.645372	-0.559188
C27	C	-3.551251	0.523136	-0.488396
H28	H	-3.451413	0.639955	-0.585888
H29	H	-3.724775	0.680801	-0.688324
H30	H	-3.576577	0.698278	-0.451343
H31	H	-3.552879	0.470237	-0.596251
H32	H	-3.404645	0.487697	-0.359279
H33	H	-4.457376	0.546717	-0.666899
H34	H	-4.575563	0.799453	-0.663672
