data_functionalizedCrystal
_audit_creation_method	'MofGen! by Chris Wilmer'
_symmetry_space_group_name_H-M	'P1'
_symmetry_Int_Tables_number	1
_symmetry_cell_setting	triclinic
loop_
_symmetry_equiv_pos_as_xyz
  x,y,z
_cell_length_a	19.077105
_cell_length_b	19.121063
_cell_length_c	19.076919
_cell_angle_alpha	85.393653
_cell_angle_beta	89.923776
_cell_angle_gamma	90.263052
loop_
_atom_site_label
_atom_site_type_symbol
_atom_site_fract_x
_atom_site_fract_y
_atom_site_fract_z
Zn1	Zn	1.043169	-0.339734	0.454309
Zn2	Zn	1.543169	0.160266	0.954309
Zn3	Zn	1.042790	-0.452646	0.341419
Zn4	Zn	1.542790	0.047354	0.841419
Zn5	Zn	0.930805	-0.330327	0.331718
Zn6	Zn	1.430805	0.169673	0.831718
Zn7	Zn	0.920631	-0.452222	0.454155
Zn8	Zn	1.420631	0.047778	0.954155
O9	O	0.984349	-0.393732	0.395400
O10	O	1.484349	0.106268	0.895400
O11	O	1.141268	-0.358826	0.443459
O12	O	1.641268	0.141174	0.943459
O13	O	1.032035	-0.432660	0.241647
O14	O	1.532035	0.067340	0.741647
O15	O	0.950127	-0.233307	0.343985
O16	O	1.450127	0.266693	0.843985
O17	O	1.140989	-0.441782	0.360519
O18	O	1.640989	0.058218	0.860519
O19	O	1.032681	-0.240219	0.434052
O20	O	1.532681	0.259781	0.934052
O21	O	0.949760	-0.342793	0.234520
O22	O	1.449760	0.157207	0.734520
O23	O	0.831307	-0.342382	0.343835
O24	O	1.331307	0.157618	0.843835
O25	O	0.932786	-0.441060	0.552660
O26	O	1.432786	0.058940	1.052660
O27	O	0.823831	-0.431938	0.433788
O28	O	1.323831	0.068062	0.933788
O29	O	1.022815	-0.358416	0.552774
O30	O	1.522815	0.141584	1.052774
O31	O	1.022169	-0.550857	0.360369
O32	O	1.522169	-0.050857	0.860369
O33	O	0.932419	-0.550546	0.443195
O34	O	1.432419	-0.050546	0.943195
C35	C	0.802120	-0.386094	0.387742
C36	C	1.302120	0.113906	0.887742
C37	C	0.724160	-0.382844	0.384484
C38	C	1.224160	0.117156	0.884484
C39	C	0.683661	-0.428009	0.429719
C40	C	1.183661	0.071991	0.929719
C41	C	0.610410	-0.424946	0.426660
C42	C	1.110410	0.075054	0.926660
C43	C	0.577659	-0.376721	0.378362
C44	C	1.077659	0.123279	0.878362
C45	C	0.618164	-0.331551	0.333125
C46	C	1.118164	0.168449	0.833125
C47	C	0.691414	-0.334611	0.336188
C48	C	1.191414	0.165389	0.836188
C49	C	0.359002	-0.362559	0.364190
C50	C	0.859002	0.137441	0.864190
C51	C	0.285746	-0.359503	0.361130
C52	C	0.785746	0.140497	0.861130
C53	C	0.277998	-0.452898	0.454666
C54	C	0.777998	0.047102	0.954666
C55	C	0.351249	-0.455957	0.457722
C56	C	0.851249	0.044043	0.957722
C57	C	0.391747	-0.410784	0.412487
C58	C	0.891747	0.089216	0.912487
N59	N	0.502785	-0.373590	0.375233
N60	N	1.002785	0.126410	0.875233
N61	N	0.466620	-0.413912	0.415620
N62	N	0.966620	0.086088	0.915620
C63	C	0.976167	-0.576182	0.402834
C64	C	1.476167	-0.076182	0.902834
C65	C	0.972730	-0.654239	0.406041
C66	C	1.472730	-0.154239	0.906041
C67	C	1.017877	-0.691052	0.364463
C68	C	1.517877	-0.191052	0.864463
C69	C	1.014648	-0.764395	0.367483
C70	C	1.514648	-0.264395	0.867483
C71	C	0.966269	-0.800923	0.412078
C72	C	1.466269	-0.300923	0.912078
C73	C	0.921120	-0.764105	0.453660
C74	C	1.421120	-0.264105	0.953660
C75	C	0.924353	-0.690764	0.450644
C76	C	1.424353	-0.190764	0.950644
C77	C	0.954173	-1.022359	0.423346
C78	C	1.454173	-0.522359	0.923346
C79	C	0.950942	-1.095705	0.426358
C80	C	1.450942	-0.595705	0.926358
C81	C	1.044471	-1.095990	0.340181
C82	C	1.544471	-0.595990	0.840181
C83	C	1.047697	-1.022647	0.337165
C84	C	1.547697	-0.522647	0.837165
C85	C	1.002551	-0.985836	0.378750
C86	C	1.502551	-0.485836	0.878750
C87	C	0.962966	-0.875891	0.415164
C88	C	1.462966	-0.375891	0.915164
C89	C	1.005857	-0.910869	0.375667
C90	C	1.505857	-0.410869	0.875667
C91	C	1.167289	-0.401401	0.403088
C92	C	1.667289	0.098599	0.903088
C93	C	1.245247	-0.404669	0.406365
C94	C	1.745247	0.095331	0.906365
C95	C	0.976708	-0.400740	0.578967
C96	C	1.476708	0.099260	1.078967
C97	C	0.973452	-0.403726	0.657192
C98	C	1.473452	0.096274	1.157192
C99	C	0.992581	-0.210571	0.387953
C100	C	1.492581	0.289429	0.887953
C101	C	0.996089	-0.132518	0.384780
C102	C	1.496089	0.367482	0.884780
C103	C	0.992003	-0.386702	0.212547
C104	C	1.492003	0.113298	0.712547
C105	C	0.995403	-0.383524	0.134320
C106	C	1.495403	0.116476	0.634320
C107	C	1.018793	-0.362103	0.694003
C108	C	1.518793	0.137897	1.194003
C109	C	1.015725	-0.364906	0.767503
C110	C	1.515725	0.135094	1.267503
C111	C	0.967319	-0.409336	0.804192
C112	C	1.467319	0.090664	1.304192
C113	C	0.921973	-0.450962	0.767376
C114	C	1.421973	0.049038	1.267376
C115	C	0.925038	-0.448154	0.693877
C116	C	1.425038	0.051846	1.193877
C117	C	0.953123	-0.422342	1.024005
C118	C	1.453123	0.077658	1.524005
C119	C	0.950063	-0.425148	1.097510
C120	C	1.450063	0.074852	1.597510
C121	C	1.043814	-0.339090	1.097632
C122	C	1.543814	0.160910	1.597632
C123	C	1.046877	-0.336290	1.024131
C124	C	1.546877	0.163710	1.524131
C125	C	1.001529	-0.377913	0.987321
C126	C	1.501529	0.122087	1.487321
N127	N	0.964183	-0.412204	0.879321
N128	N	1.464183	0.087796	1.379321
N129	N	1.004662	-0.375041	0.912193
N130	N	1.504662	0.124959	1.412193
H131	H	0.577438	-0.461725	0.463495
H132	H	1.077438	0.038275	0.963495
H133	H	0.882558	-0.487135	0.797254
H134	H	1.382558	0.012865	1.297254
H135	H	1.080733	-0.305203	1.127610
H136	H	1.580733	0.194797	1.627610
N137	N	0.250410	-0.307498	0.309031
N138	N	0.750410	0.192502	0.809031
H139	H	0.264931	-0.258287	0.318525
H140	H	0.764931	0.241713	0.818525
H141	H	0.197872	-0.312493	0.313988
H142	H	0.697872	0.187507	0.813988
H143	H	0.917412	-0.992393	0.457205
H144	H	1.417412	-0.492393	0.957205
H145	H	0.911554	-1.125446	0.462685
H146	H	1.411554	-0.625446	0.962685
H147	H	0.888110	-0.482041	0.663906
H148	H	1.388110	0.017959	1.163906
N149	N	0.718984	-0.480022	0.481812
N150	N	1.218984	0.019978	0.981812
H151	H	0.749104	-0.512697	0.455752
H152	H	1.249104	-0.012697	0.955752
H153	H	0.682169	-0.508119	0.509992
H154	H	1.182169	-0.008119	1.009992
N155	N	1.093170	-1.135696	0.295342
N156	N	1.593170	-0.635696	0.795342
H157	H	1.124309	-1.101426	0.266635
H158	H	1.624309	-0.601426	0.766635
H159	H	1.064664	-1.163726	0.262802
H160	H	1.564664	-0.663726	0.762802
H161	H	0.391967	-0.325781	0.327352
H162	H	0.891967	0.174219	0.827352
N163	N	0.868939	-0.803505	0.501756
N164	N	1.368939	-0.303505	1.001756
H165	H	0.819853	-0.788269	0.488156
H166	H	1.319853	-0.288269	0.988156
H167	H	0.878323	-0.793074	0.551963
H168	H	1.378323	-0.293074	1.051963
N169	N	0.386572	-0.507975	0.509810
N170	N	0.886572	-0.007975	1.009810
H171	H	0.349800	-0.536123	0.538003
H172	H	0.849800	-0.036123	1.038003
H173	H	0.416894	-0.481958	0.542536
H174	H	0.916894	0.018042	1.042536
H175	H	1.087091	-0.992907	0.300852
H176	H	1.587091	-0.492907	0.800852
N177	N	1.070061	-0.651654	0.316369
N178	N	1.570061	-0.151654	0.816369
H179	H	1.044284	-0.618824	0.281283
H180	H	1.544284	-0.118824	0.781283
H181	H	1.098160	-0.686151	0.290539
H182	H	1.598160	-0.186151	0.790539
N183	N	0.582844	-0.279548	0.281019
N184	N	1.082844	0.220452	0.781019
H185	H	0.530295	-0.284469	0.285934
H186	H	1.030295	0.215531	0.785934
H187	H	0.597255	-0.289032	0.231722
H188	H	1.097255	0.210968	0.731722
H189	H	0.887591	-0.660792	0.484502
H190	H	1.387591	-0.160792	0.984502
H191	H	0.245016	-0.489674	0.491494
H192	H	0.745016	0.010326	0.991494
H193	H	0.724388	-0.297829	0.299356
H194	H	1.224388	0.202171	0.799356
H195	H	1.058212	-0.325924	0.664136
H196	H	1.558212	0.174076	1.164136
N197	N	1.063342	-0.804101	0.322639
N198	N	1.563342	-0.304101	0.822639
H199	H	1.094476	-0.769831	0.293927
H200	H	1.594476	-0.269831	0.793927
H201	H	1.034829	-0.832131	0.290103
H202	H	1.534829	-0.332131	0.790103
H203	H	1.045250	-0.881126	0.339361
H204	H	1.545250	-0.381126	0.839361
H205	H	0.923575	-0.905641	0.451472
H206	H	1.423575	-0.405641	0.951472
N207	N	1.064625	-0.319997	0.807194
N208	N	1.564625	0.180003	1.307194
H209	H	1.114782	-0.332513	0.796958
H210	H	1.614782	0.167487	1.296958
H211	H	1.055281	-0.328522	0.859310
H212	H	1.555281	0.171478	1.359310
N213	N	1.099089	-0.288371	0.984561
N214	N	1.599089	0.211629	1.484561
H215	H	1.127347	-0.262427	1.019034
H216	H	1.627347	0.237573	1.519034
H217	H	1.073272	-0.253512	0.951542
H218	H	1.573272	0.246488	1.451542
H219	H	0.910642	-0.461330	1.127379
H220	H	1.410642	0.038670	1.627379
N221	N	0.904192	-0.467209	0.984306
N222	N	1.404192	0.032791	1.484306
H223	H	0.873058	-0.495774	1.018703
H224	H	1.373058	0.004226	1.518703
H225	H	0.932526	-0.499746	0.956317
H226	H	1.432526	0.000254	1.456317
