data_functionalizedCrystal
_audit_creation_method	'MofGen! by Chris Wilmer'
_symmetry_space_group_name_H-M	'P1'
_symmetry_Int_Tables_number	1
_symmetry_cell_setting	triclinic
loop_
_symmetry_equiv_pos_as_xyz
  x,y,z
_cell_length_a	21.295420
_cell_length_b	21.295417
_cell_length_c	21.295411
_cell_angle_alpha	89.979403
_cell_angle_beta	89.975408
_cell_angle_gamma	90.025484
loop_
_atom_site_label
_atom_site_type_symbol
_atom_site_fract_x
_atom_site_fract_y
_atom_site_fract_z
Zn1	Zn	0.962359	-0.250752	-0.355917
Zn2	Zn	1.295692	0.082582	-0.022583
Zn3	Zn	1.629025	0.415915	0.310750
Zn4	Zn	0.962263	-0.356004	-0.250644
Zn5	Zn	1.295596	-0.022670	0.082690
Zn6	Zn	1.628929	0.310663	0.416023
Zn7	Zn	0.857082	-0.250744	-0.250661
Zn8	Zn	1.190415	0.082589	0.082672
Zn9	Zn	1.523749	0.415922	0.416005
Zn10	Zn	0.857053	-0.355979	-0.355875
Zn11	Zn	1.190386	-0.022646	-0.022542
Zn12	Zn	1.523720	0.310687	0.310791
O13	O	0.909689	-0.303370	-0.303274
O14	O	1.243022	0.029964	0.030059
O15	O	1.576356	0.363297	0.363392
O16	O	1.050435	-0.264727	-0.341962
O17	O	1.383769	0.068606	-0.008628
O18	O	1.717102	0.401940	0.324705
O19	O	0.948282	-0.342048	-0.162557
O20	O	1.281616	-0.008715	0.170777
O21	O	1.614949	0.324619	0.504110
O22	O	0.871100	-0.162656	-0.264648
O23	O	1.204433	0.170677	0.068685
O24	O	1.537766	0.504011	0.402018
O25	O	1.050365	-0.342055	-0.264618
O26	O	1.383698	-0.008722	0.068715
O27	O	1.717031	0.324612	0.402048
O28	O	0.948446	-0.162661	-0.341979
O29	O	1.281779	0.170672	-0.008645
O30	O	1.615113	0.504005	0.324688
O31	O	0.871006	-0.264714	-0.162570
O32	O	1.204340	0.068619	0.170764
O33	O	1.537673	0.401952	0.504097
O34	O	0.768989	-0.264691	-0.264609
O35	O	1.102322	0.068642	0.068725
O36	O	1.435655	0.401976	0.402058
O37	O	0.871050	-0.342014	-0.443970
O38	O	1.204383	-0.008680	-0.110637
O39	O	1.537717	0.324653	0.222696
O40	O	0.768967	-0.342006	-0.341909
O41	O	1.102301	-0.008673	-0.008576
O42	O	1.435634	0.324660	0.324758
O43	O	0.948418	-0.264703	-0.444000
O44	O	1.281751	0.068630	-0.110667
O45	O	1.615084	0.401963	0.222666
O46	O	0.948254	-0.444090	-0.264578
O47	O	1.281587	-0.110756	0.068755
O48	O	1.614921	0.222577	0.402088
O49	O	0.870957	-0.444072	-0.341892
O50	O	1.204290	-0.110739	-0.008558
O51	O	1.537623	0.222595	0.324775
C52	C	0.746138	-0.303346	-0.303257
C53	C	1.079471	0.029988	0.030077
C54	C	1.412804	0.363321	0.363410
C55	C	0.676169	-0.303351	-0.303264
C56	C	1.009503	0.029983	0.030069
C57	C	1.342836	0.363316	0.363403
C58	C	0.176748	-0.263200	-0.343622
C59	C	0.510081	0.070133	-0.010289
C60	C	0.843414	0.403467	0.323045
C61	C	0.242490	-0.263195	-0.343622
C62	C	0.575823	0.070138	-0.010289
C63	C	0.909157	0.403471	0.323045
C64	C	0.275330	-0.303389	-0.303289
C65	C	0.608663	0.029944	0.030044
C66	C	0.941997	0.363278	0.363378
C67	C	0.242422	-0.343602	-0.262965
C68	C	0.575755	-0.010268	0.070369
C69	C	0.909089	0.323065	0.403702
C70	C	0.176681	-0.343610	-0.262970
C71	C	0.510014	-0.010276	0.070363
C72	C	0.843347	0.323057	0.403696
N73	N	0.378520	-0.308125	-0.248169
N74	N	0.711853	0.025209	0.085164
N75	N	1.045187	0.358542	0.418497
N76	N	0.440971	-0.308113	-0.248166
N77	N	0.774305	0.025220	0.085168
N78	N	1.107638	0.358553	0.418501
C79	C	0.473405	-0.303368	-0.303270
C80	C	0.806738	0.029965	0.030063
C81	C	1.140071	0.363298	0.363396
N82	N	0.441027	-0.298623	-0.358380
N83	N	0.774361	0.034711	-0.025047
N84	N	1.107694	0.368044	0.308287
N85	N	0.378570	-0.298631	-0.358383
N86	N	0.711903	0.034703	-0.025050
N87	N	1.045237	0.368036	0.308284
C88	C	0.346615	-0.303385	-0.303279
C89	C	0.679949	0.029948	0.030055
C90	C	1.013282	0.363282	0.363388
C91	C	0.577590	-0.263156	-0.343595
C92	C	0.910924	0.070177	-0.010262
C93	C	1.244257	0.403511	0.323071
C94	C	0.643334	-0.263156	-0.343596
C95	C	0.976667	0.070178	-0.010263
C96	C	1.310001	0.403511	0.323070
C97	C	0.643265	-0.343559	-0.262933
C98	C	0.976598	-0.010226	0.070400
C99	C	1.309931	0.323108	0.403733
C100	C	0.577522	-0.343562	-0.262938
C101	C	0.910856	-0.010229	0.070395
C102	C	1.244189	0.323104	0.403729
C103	C	0.544689	-0.303358	-0.303268
C104	C	0.878022	0.029976	0.030065
C105	C	1.211356	0.363309	0.363398
C106	C	0.909609	-0.466921	-0.303242
C107	C	1.242942	-0.133588	0.030091
C108	C	1.576276	0.199745	0.363424
C109	C	0.909632	-0.536890	-0.303250
C110	C	1.242966	-0.203556	0.030083
C111	C	1.576299	0.129777	0.363417
C112	C	0.949883	-0.569702	-0.343545
C113	C	1.283217	-0.236368	-0.010211
C114	C	1.616550	0.096965	0.323122
C115	C	0.949906	-0.635444	-0.343560
C116	C	1.283239	-0.302111	-0.010227
C117	C	1.616572	0.031222	0.323107
C118	C	0.909683	-0.668372	-0.303270
C119	C	1.243017	-0.335039	0.030064
C120	C	1.576350	-0.001705	0.363397
C121	C	0.869424	-0.635552	-0.262972
C122	C	1.202758	-0.302218	0.070361
C123	C	1.536091	0.031115	0.403695
C124	C	0.869399	-0.569811	-0.262962
C125	C	1.202732	-0.236477	0.070371
C126	C	1.536065	0.096856	0.403704
N127	N	0.904924	-0.771624	-0.248179
N128	N	1.238257	-0.438291	0.085155
N129	N	1.571590	-0.104957	0.418488
N130	N	0.904952	-0.834075	-0.248190
N131	N	1.238285	-0.500742	0.085143
N132	N	1.571618	-0.167409	0.418477
C133	C	0.909757	-0.866447	-0.303298
C134	C	1.243090	-0.533113	0.030035
C135	C	1.576423	-0.199780	0.363369
N136	N	0.914545	-0.834007	-0.358396
N137	N	1.247878	-0.500674	-0.025063
N138	N	1.581212	-0.167341	0.308271
N139	N	0.914520	-0.771550	-0.358384
N140	N	1.247854	-0.438217	-0.025051
N141	N	1.581187	-0.104883	0.308283
C142	C	0.909706	-0.739657	-0.303276
C143	C	1.243039	-0.406324	0.030057
C144	C	1.576373	-0.072991	0.363390
C145	C	0.950034	-0.970544	-0.343613
C146	C	1.283368	-0.637211	-0.010280
C147	C	1.616701	-0.303878	0.323054
C148	C	0.950052	-1.036288	-0.343630
C149	C	1.283385	-0.702955	-0.010296
C150	C	1.616719	-0.369622	0.323037
C151	C	0.869574	-1.036394	-0.263036
C152	C	1.202907	-0.703061	0.070297
C153	C	1.536241	-0.369728	0.403631
C154	C	0.869553	-0.970652	-0.263025
C155	C	1.202886	-0.637319	0.070308
C156	C	1.536219	-0.303985	0.403642
C157	C	0.909786	-0.937731	-0.303313
C158	C	1.243120	-0.604398	0.030021
C159	C	1.576453	-0.271064	0.363354
C160	C	1.073879	-0.303394	-0.303293
C161	C	1.407213	0.029939	0.030041
C162	C	1.740546	0.363272	0.363374
C163	C	1.143847	-0.303405	-0.303300
C164	C	1.477181	0.029928	0.030033
C165	C	1.810514	0.363262	0.363366
C166	C	0.909741	-0.303357	-0.467465
C167	C	1.243075	0.029977	-0.134131
C168	C	1.576408	0.363310	0.199202
C169	C	0.909764	-0.303351	-0.537433
C170	C	1.243097	0.029982	-0.204099
C171	C	1.576430	0.363316	0.129234
C172	C	0.909787	-0.139180	-0.303320
C173	C	1.243120	0.194154	0.030013
C174	C	1.576453	0.527487	0.363347
C175	C	0.909828	-0.069211	-0.303340
C176	C	1.243162	0.264122	0.029994
C177	C	1.576495	0.597455	0.363327
C178	C	0.950047	-0.263094	-0.570316
C179	C	1.283381	0.070240	-0.236983
C180	C	1.616714	0.403573	0.096351
C181	C	0.950046	-0.263066	-0.636059
C182	C	1.283380	0.070267	-0.302725
C183	C	1.616713	0.403600	0.030608
C184	C	0.909769	-0.303308	-0.668915
C185	C	1.243102	0.030026	-0.335582
C186	C	1.576435	0.363359	-0.002249
C187	C	0.869477	-0.343568	-0.636024
C188	C	1.202810	-0.010234	-0.302691
C189	C	1.536144	0.323099	0.030643
C190	C	0.869475	-0.343589	-0.570283
C191	C	1.202808	-0.010256	-0.236949
C192	C	1.536141	0.323077	0.096384
N193	N	0.904913	-0.358375	-0.772132
N194	N	1.238246	-0.025042	-0.438798
N195	N	1.571579	0.308292	-0.105465
N196	N	0.904919	-0.358353	-0.834583
N197	N	1.238252	-0.025019	-0.501250
N198	N	1.571585	0.308314	-0.167917
C199	C	0.909773	-0.303244	-0.866990
C200	C	1.243106	0.030090	-0.533657
C201	C	1.576439	0.363423	-0.200324
N202	N	0.914632	-0.248157	-0.834586
N203	N	1.247966	0.085177	-0.501253
N204	N	1.581299	0.418510	-0.167920
N205	N	0.914630	-0.248180	-0.772129
N206	N	1.247963	0.085153	-0.438796
N207	N	1.581296	0.418487	-0.105463
C208	C	0.909766	-0.303288	-0.740201
C209	C	1.243100	0.030045	-0.406867
C210	C	1.576433	0.363378	-0.073534
C211	C	0.950057	-0.262953	-0.971159
C212	C	1.283391	0.070380	-0.637826
C213	C	1.616724	0.403713	-0.304492
C214	C	0.950052	-0.262925	-1.036903
C215	C	1.283385	0.070408	-0.703570
C216	C	1.616719	0.403742	-0.370236
C217	C	0.869486	-0.343432	-1.036867
C218	C	1.202819	-0.010099	-0.703534
C219	C	1.536153	0.323235	-0.370200
C220	C	0.869488	-0.343455	-0.971125
C221	C	1.202821	-0.010121	-0.637791
C222	C	1.536155	0.323212	-0.304458
C223	C	0.909777	-0.303216	-0.938275
C224	C	1.243110	0.030117	-0.604941
C225	C	1.576444	0.363450	-0.271608
C226	C	0.909673	-0.303338	-0.139723
C227	C	1.243007	0.029996	0.193611
C228	C	1.576340	0.363329	0.526944
C229	C	0.909773	-0.303166	-0.069755
C230	C	1.243106	0.030167	0.263578
C231	C	1.576440	0.363501	0.596912
H232	H	0.550735	-0.376299	-0.230101
H233	H	0.884068	-0.042966	0.103232
H234	H	1.217401	0.290368	0.436566
C235	C	0.278187	-0.387172	-0.219197
C236	C	0.611520	-0.053838	0.114136
C237	C	0.944854	0.279495	0.447469
C238	C	0.342803	-0.378547	-0.227809
C239	C	0.676136	-0.045214	0.105524
C240	C	1.009470	0.288119	0.438858
C241	C	0.375768	-0.418671	-0.187497
C242	C	0.709102	-0.085337	0.145837
C243	C	1.042435	0.247996	0.479170
H244	H	0.267481	-0.429507	-0.228296
H245	H	0.600815	-0.096174	0.105037
H246	H	0.934148	0.237159	0.438371
H247	H	0.267429	-0.377895	-0.176906
H248	H	0.600762	-0.044561	0.156427
H249	H	0.934096	0.288772	0.489761
H250	H	0.353557	-0.387829	-0.270091
H251	H	0.686890	-0.054495	0.063242
H252	H	1.020223	0.278838	0.396576
H253	H	0.353527	-0.336220	-0.218706
H254	H	0.686861	-0.002887	0.114628
H255	H	1.020194	0.330446	0.447961
H256	H	0.365010	-0.409394	-0.145205
H257	H	0.698344	-0.076060	0.188128
H258	H	1.031677	0.257273	0.521461
H259	H	0.365058	-0.461004	-0.196599
H260	H	0.698391	-0.127670	0.136734
H261	H	1.031724	0.205663	0.470068
H262	H	0.419613	-0.412820	-0.193330
H263	H	0.752947	-0.079487	0.140003
H264	H	1.086280	0.253846	0.473336
H265	H	0.150019	-0.230465	-0.376464
H266	H	0.483352	0.102869	-0.043131
H267	H	0.816685	0.436202	0.290202
H268	H	0.982855	-0.230139	-1.063675
H269	H	1.316188	0.103194	-0.730342
H270	H	1.649522	0.436528	-0.397009
H271	H	0.836685	-0.376191	-1.063618
H272	H	1.170018	-0.042857	-0.730285
H273	H	1.503351	0.290476	-0.396952
H274	H	0.836820	-1.063204	-0.230235
H275	H	1.170153	-0.729870	0.103099
H276	H	1.503487	-0.396537	0.436432
H277	H	0.982853	-0.230328	-0.543574
H278	H	1.316186	0.103006	-0.210240
H279	H	1.649520	0.436339	0.123093
H280	H	0.982678	-0.662165	-0.376380
H281	H	1.316011	-0.328832	-0.043047
H282	H	1.649344	0.004501	0.290286
H283	H	0.982849	-0.230281	-0.662838
H284	H	1.316182	0.103053	-0.329504
H285	H	1.649516	0.436386	0.003829
H286	H	0.982793	-0.943739	-0.376420
H287	H	1.316126	-0.610406	-0.043086
H288	H	1.649460	-0.277072	0.290247
H289	H	0.149894	-0.376351	-0.230135
H290	H	0.483227	-0.043017	0.103199
H291	H	0.816560	0.290316	0.436532
H292	H	0.550856	-0.230419	-0.376434
H293	H	0.884189	0.102914	-0.043101
H294	H	1.217523	0.436248	0.290232
H295	H	0.982642	-0.542899	-0.376351
H296	H	1.315976	-0.209566	-0.043017
H297	H	1.649309	0.123767	0.290316
C298	C	0.678944	-0.219433	-0.387401
C299	C	1.012277	0.113901	-0.054068
C300	C	1.345610	0.447234	0.279266
C301	C	0.636115	-0.184215	-0.422706
C302	C	0.969448	0.149118	-0.089373
C303	C	1.302782	0.482452	0.243961
C304	C	0.668896	-0.143924	-0.463059
C305	C	1.002229	0.189410	-0.129725
C306	C	1.335563	0.522743	0.203608
H307	H	0.704597	-0.243476	-0.414843
H308	H	1.037930	0.089858	-0.081510
H309	H	1.371263	0.423191	0.251824
H310	H	0.704574	-0.191937	-0.363379
H311	H	1.037907	0.141396	-0.030045
H312	H	1.371240	0.474729	0.303288
H313	H	0.610496	-0.211707	-0.446726
H314	H	0.943829	0.121627	-0.113393
H315	H	1.277162	0.454960	0.219940
H316	H	0.610461	-0.160159	-0.395280
H317	H	0.943794	0.173174	-0.061947
H318	H	1.277127	0.506508	0.271386
H319	H	0.694526	-0.116428	-0.439037
H320	H	1.027859	0.216905	-0.105703
H321	H	1.361193	0.550238	0.227630
H322	H	0.694548	-0.167972	-0.490497
H323	H	1.027881	0.165361	-0.157163
H324	H	1.361215	0.498695	0.176170
H325	H	0.639842	-0.120020	-0.487014
H326	H	0.973175	0.213314	-0.153681
H327	H	1.306509	0.546647	0.179653
H328	H	0.836668	-0.376371	-0.543509
H329	H	1.170001	-0.043037	-0.210176
H330	H	1.503335	0.290296	0.123157
C331	C	0.679025	-0.387132	-0.219168
C332	C	1.012358	-0.053799	0.114165
C333	C	1.345691	0.279534	0.447498
C334	C	0.743641	-0.378512	-0.227784
C335	C	1.076974	-0.045179	0.105550
C336	C	1.410308	0.288154	0.438883
C337	C	0.776605	-0.418639	-0.187474
C338	C	1.109939	-0.085306	0.145859
C339	C	1.443272	0.248027	0.479193
H340	H	0.668316	-0.429467	-0.228267
H341	H	1.001649	-0.096134	0.105066
H342	H	1.334982	0.237200	0.438399
H343	H	0.668270	-0.377855	-0.176876
H344	H	1.001603	-0.044522	0.156457
H345	H	1.334937	0.288811	0.489790
H346	H	0.754391	-0.387794	-0.270066
H347	H	1.087725	-0.054461	0.063267
H348	H	1.421058	0.278873	0.396600
H349	H	0.754369	-0.336186	-0.218680
H350	H	1.087702	-0.002853	0.114653
H351	H	1.421035	0.330480	0.447986
H352	H	0.765851	-0.409362	-0.145182
H353	H	1.099184	-0.076029	0.188152
H354	H	1.432517	0.257304	0.521485
H355	H	0.765891	-0.460971	-0.196576
H356	H	1.099224	-0.127638	0.136757
H357	H	1.432558	0.205696	0.470090
H358	H	0.820451	-0.412792	-0.193310
H359	H	1.153784	-0.079459	0.140023
H360	H	1.487117	0.253875	0.473357
H361	H	0.836779	-0.943934	-0.230211
H362	H	1.170112	-0.610601	0.103123
H363	H	1.503446	-0.277268	0.436456
C364	C	0.825822	-0.671412	-0.219252
C365	C	1.159156	-0.338079	0.114082
C366	C	1.492489	-0.004745	0.447415
C367	C	0.834472	-0.736009	-0.227871
C368	C	1.167805	-0.402676	0.105462
C369	C	1.501139	-0.069343	0.438795
C370	C	0.794319	-0.769062	-0.187602
C371	C	1.127652	-0.435729	0.145731
C372	C	1.460986	-0.102396	0.479064
H373	H	0.783493	-0.660746	-0.228385
H374	H	1.116826	-0.327413	0.104949
H375	H	1.450159	0.005921	0.438282
H376	H	0.835057	-0.660687	-0.176949
H377	H	1.168390	-0.327354	0.156384
H378	H	1.501723	0.005979	0.489717
H379	H	0.825233	-0.746730	-0.270164
H380	H	1.158567	-0.413397	0.063169
H381	H	1.491900	-0.080063	0.396503
H382	H	0.876793	-0.746694	-0.218734
H383	H	1.210126	-0.413361	0.114600
H384	H	1.543460	-0.080028	0.447933
H385	H	0.803553	-0.758337	-0.145300
H386	H	1.136886	-0.425004	0.188033
H387	H	1.470220	-0.091671	0.521367
H388	H	0.751992	-0.758391	-0.196739
H389	H	1.085325	-0.425058	0.136594
H390	H	1.418659	-0.091724	0.469928
H391	H	0.800186	-0.812895	-0.193441
H392	H	1.133520	-0.479561	0.139892
H393	H	1.466853	-0.146228	0.473225
C394	C	0.825817	-0.387237	-0.671807
C395	C	1.159150	-0.053904	-0.338474
C396	C	1.492484	0.279430	-0.005141
C397	C	0.834454	-0.378616	-0.736420
C398	C	1.167788	-0.045282	-0.403087
C399	C	1.501121	0.288051	-0.069753
C400	C	0.794248	-0.418838	-0.769402
C401	C	1.127582	-0.085505	-0.436068
C402	C	1.460915	0.247828	-0.102735
H403	H	0.783500	-0.378062	-0.661095
H404	H	1.116834	-0.044729	-0.327762
H405	H	1.450167	0.288605	0.005571
H406	H	0.835011	-0.429550	-0.661070
H407	H	1.168344	-0.096217	-0.327736
H408	H	1.501677	0.237116	0.005597
H409	H	0.825256	-0.336312	-0.747153
H410	H	1.158589	-0.002979	-0.413820
H411	H	1.491923	0.330355	-0.080486
H412	H	0.876762	-0.387795	-0.747151
H413	H	1.210096	-0.054462	-0.413817
H414	H	1.543429	0.278872	-0.080484
H415	H	0.803442	-0.461152	-0.758664
H416	H	1.136776	-0.127818	-0.425331
H417	H	1.470109	0.205515	-0.091998
H418	H	0.751935	-0.409660	-0.758685
H419	H	1.085268	-0.076327	-0.425351
H420	H	1.418601	0.257007	-0.092018
H421	H	0.800107	-0.412999	-0.813245
H422	H	1.133441	-0.079665	-0.479911
H423	H	1.466774	0.253668	-0.146578
C424	C	0.278107	-0.219473	-0.387426
C425	C	0.611440	0.113860	-0.054093
C426	C	0.944774	0.447194	0.279241
C427	C	0.235282	-0.184257	-0.422737
C428	C	0.568615	0.149076	-0.089403
C429	C	0.901949	0.482410	0.243930
C430	C	0.268067	-0.143969	-0.463090
C431	C	0.601400	0.189364	-0.129756
C432	C	0.934733	0.522698	0.203577
H433	H	0.303762	-0.243518	-0.414864
H434	H	0.637095	0.089815	-0.081531
H435	H	0.970429	0.423148	0.251802
H436	H	0.303735	-0.191977	-0.363403
H437	H	0.637069	0.141357	-0.030070
H438	H	0.970402	0.474690	0.303263
H439	H	0.209664	-0.211750	-0.446758
H440	H	0.542998	0.121583	-0.113424
H441	H	0.876331	0.454916	0.219909
H442	H	0.209626	-0.160199	-0.395315
H443	H	0.542959	0.173134	-0.061982
H444	H	0.876292	0.506468	0.271352
H445	H	0.293695	-0.116472	-0.439067
H446	H	0.627029	0.216861	-0.105734
H447	H	0.960362	0.550194	0.227600
H448	H	0.293721	-0.168019	-0.490524
H449	H	0.627054	0.165314	-0.157190
H450	H	0.960387	0.498647	0.176143
H451	H	0.239015	-0.120066	-0.487049
H452	H	0.572348	0.213267	-0.153715
H453	H	0.905682	0.546601	0.179618
H454	H	0.982860	-0.230185	-0.944411
H455	H	1.316193	0.103148	-0.611078
H456	H	1.649526	0.436481	-0.277745
H457	H	0.836688	-0.376240	-0.944351
H458	H	1.170022	-0.042907	-0.611017
H459	H	1.503355	0.290426	-0.277684
H460	H	0.982829	-1.063003	-0.376445
H461	H	1.316163	-0.729670	-0.043112
H462	H	1.649496	-0.396336	0.290221
H463	H	0.836621	-0.543094	-0.230149
H464	H	1.169954	-0.209761	0.103184
H465	H	1.503287	0.123572	0.436518
