data_functionalizedCrystal
_audit_creation_method	'MofGen! by Chris Wilmer'
_symmetry_space_group_name_H-M	'P1'
_symmetry_Int_Tables_number	1
_symmetry_cell_setting	triclinic
loop_
_symmetry_equiv_pos_as_xyz
  x,y,z
_cell_length_a	10.967926
_cell_length_b	11.026607
_cell_length_c	9.565339
_cell_angle_alpha	90.000712
_cell_angle_beta	102.131966
_cell_angle_gamma	96.380568
loop_
_atom_site_label
_atom_site_type_symbol
_atom_site_fract_x
_atom_site_fract_y
_atom_site_fract_z
O1	O	1.693989	0.170520	0.291875
O2	O	1.334358	0.186841	0.205228
O3	O	1.484367	0.001779	0.241372
O4	O	1.543979	0.355582	0.255731
O5	O	1.484377	0.001785	0.473895
O6	O	1.334367	0.186846	0.437751
O7	O	1.693999	0.170525	0.524398
Zn8	Zn	1.514184	0.178687	0.517992
Zn9	Zn	1.514172	0.178680	0.211634
O10	O	1.543989	0.355587	0.488253
C11	C	1.287606	0.185656	0.310224
C12	C	1.148284	0.182102	0.276657
C13	C	1.086175	0.180520	0.382145
C14	C	0.942178	0.176846	0.347454
C15	C	1.473375	-0.043521	0.354981
C16	C	1.440592	-0.178508	0.347075
C17	C	1.740750	0.171711	0.419398
C18	C	1.880072	0.175265	0.452957
C19	C	1.554981	0.400887	0.374641
C20	C	1.587765	0.535874	0.382538
N21	N	1.514202	0.178691	0.727076
C22	C	1.497244	0.608926	0.360728
C23	C	1.531125	0.748442	0.368889
N24	N	1.514162	0.178666	0.002552
C25	C	1.583606	0.093112	0.834964
C26	C	1.465332	0.068557	0.899638
C27	C	1.632414	0.203167	0.939942
C28	C	1.395858	0.154081	0.789681
C29	C	1.563026	0.288739	0.829997
C30	C	1.444681	0.264230	0.894612
H31	H	0.888752	0.175478	0.231451
H32	H	1.338003	0.780754	0.322353
H33	H	1.690346	0.576620	0.407202
H34	H	1.295825	0.133263	0.724785
N35	N	1.156929	0.182330	0.535801
H36	H	1.204465	0.108482	0.552829
H37	H	1.217965	0.259000	0.555992
N38	N	0.950829	0.177089	0.606618
H39	H	0.889595	0.175532	0.672247
H40	H	0.998366	0.103239	0.623524
N41	N	1.366806	0.360077	0.929683
H42	H	1.367807	0.360023	1.035508
H43	H	1.402935	0.442954	0.902892
N44	N	1.667014	0.802400	0.401636
H45	H	1.710064	0.774465	0.498206
H46	H	1.709962	0.774449	0.325734
H47	H	1.094853	0.180733	0.160662
N48	N	1.661255	-0.002790	0.799506
H49	H	1.624195	-0.085899	0.824474
H50	H	1.661353	-0.001475	0.693955
H51	H	1.394663	0.568180	0.336005
N52	N	1.410594	-0.054725	0.940677
H53	H	1.463092	-0.119308	0.919465
H54	H	1.410229	-0.053465	1.046163
N55	N	1.617788	0.411990	0.788921
H56	H	1.707150	0.430413	0.844315
H57	H	1.616538	0.411220	0.683046
H58	H	1.732403	0.223880	1.005000
