data_functionalizedCrystal
_audit_creation_method	'MofGen! by Chris Wilmer'
_symmetry_space_group_name_H-M	'P1'
_symmetry_Int_Tables_number	1
_symmetry_cell_setting	triclinic
loop_
_symmetry_equiv_pos_as_xyz
  x,y,z
_cell_length_a	12.645331
_cell_length_b	12.645330
_cell_length_c	14.908308
_cell_angle_alpha	86.729519
_cell_angle_beta	86.722342
_cell_angle_gamma	90.017906
loop_
_atom_site_label
_atom_site_type_symbol
_atom_site_fract_x
_atom_site_fract_y
_atom_site_fract_z
Zn1	Zn	1.586096	-0.456606	0.510125
Zn2	Zn	1.596219	-0.623669	0.359279
Zn3	Zn	1.419052	-0.446420	0.359282
Zn4	Zn	1.408795	-0.633826	0.510087
O5	O	1.502541	-0.540130	0.434693
O6	O	1.735785	-0.478779	0.490129
O7	O	1.581247	-0.591642	0.233038
O8	O	1.441267	-0.299426	0.379309
O9	O	1.743223	-0.601519	0.379304
O10	O	1.563993	-0.306909	0.490133
O11	O	1.451083	-0.461419	0.233040
O12	O	1.269345	-0.471268	0.379272
O13	O	1.423785	-0.618832	0.636333
O14	O	1.261809	-0.608955	0.490067
O15	O	1.554047	-0.488629	0.636361
O16	O	1.571301	-0.773362	0.379266
O17	O	1.433601	-0.780825	0.490064
C18	C	1.227113	-0.540109	0.434666
C19	C	1.109282	-0.540127	0.434676
C20	C	1.069098	-0.453389	0.365089
C21	C	0.946522	-0.453102	0.365327
C22	C	0.934987	-0.516791	0.529908
C23	C	1.057614	-0.516148	0.529474
C24	C	1.065747	-0.650508	0.409931
C25	C	0.943279	-0.649783	0.407866
C26	C	1.502464	-0.815559	0.434680
C27	C	1.502526	-0.933391	0.434705
C28	C	1.416222	-1.105709	0.504623
C29	C	1.415820	-0.983134	0.504398
C30	C	1.478736	-0.971540	0.339631
C31	C	1.478209	-1.094167	0.340056
C32	C	1.613172	-1.102133	0.459090
C33	C	1.612342	-0.979667	0.461169
C34	C	1.779044	-0.540152	0.434720
C35	C	1.896873	-0.540162	0.434732
C36	C	1.486643	-0.556000	0.669996
C37	C	1.479868	-0.562762	0.770268
C38	C	1.502645	-0.263627	0.434725
C39	C	1.502689	-0.145798	0.434739
C40	C	1.518438	-0.524246	0.200306
C41	C	1.525418	-0.517185	0.100034
C42	C	1.602776	-0.439865	0.958720
C43	C	1.596414	-0.446215	1.052935
C44	C	1.460777	-0.581807	1.052913
C45	C	1.467139	-0.575457	0.958698
C46	C	1.538142	-0.504485	0.911605
C47	C	1.544509	-0.498140	0.817389
C48	C	1.408867	-0.633726	0.817369
C49	C	1.402505	-0.640076	0.911583
H50	H	0.921169	-0.466925	0.294766
H51	H	1.356239	-0.686347	0.778998
H52	H	1.098823	-0.371926	0.381306
H53	H	0.916097	-0.371191	0.381761
H54	H	1.103308	-0.466981	0.294289
H55	H	1.538805	-1.120174	0.286211
H56	H	1.397638	-1.121461	0.319427
H57	H	1.084812	-0.435669	0.550391
F58	F	1.434447	-1.150421	0.597072
H59	H	0.902861	-0.437246	0.551200
H60	H	1.679640	-0.945817	0.413976
H61	H	1.344694	-0.697858	0.949939
F62	F	1.112142	-0.680052	0.320723
H63	H	1.334691	-1.135530	0.488696
H64	H	1.660595	-0.382082	0.920377
F65	F	0.899163	-0.738055	0.469276
H66	H	1.083687	-0.576953	0.583117
H67	H	0.902269	-0.578326	0.583197
H68	H	0.918896	-0.667530	0.337820
H69	H	1.091345	-0.715048	0.460615
H70	H	1.333784	-0.952806	0.488265
H71	H	1.677513	-1.127670	0.408191
H72	H	1.602325	-0.440352	0.779048
H73	H	1.402969	-0.639589	1.091272
H74	H	1.429957	-0.957759	0.574895
F75	F	1.558815	-0.928691	0.269711
F76	F	1.643187	-1.148485	0.548167
F77	F	1.374571	-0.929675	0.312180
F78	F	1.665205	-0.377437	1.103075
F79	F	1.635949	-0.947766	0.552625
