data_functionalizedCrystal
_audit_creation_method	'MofGen! by Chris Wilmer'
_symmetry_space_group_name_H-M	'P1'
_symmetry_Int_Tables_number	1
_symmetry_cell_setting	triclinic
loop_
_symmetry_equiv_pos_as_xyz
  x,y,z
_cell_length_a	15.995343
_cell_length_b	15.995350
_cell_length_c	14.048226
_cell_angle_alpha	89.995798
_cell_angle_beta	89.997860
_cell_angle_gamma	83.490779
loop_
_atom_site_label
_atom_site_type_symbol
_atom_site_fract_x
_atom_site_fract_y
_atom_site_fract_z
O1	O	1.110992	0.107897	-0.079060
O2	O	1.444325	0.441231	0.254273
O3	O	1.777658	0.774564	0.587606
O4	O	0.867216	0.121232	-0.079083
O5	O	1.200549	0.454565	0.254251
O6	O	1.533882	0.787898	0.587584
O7	O	0.995767	-0.007323	-0.079070
O8	O	1.329101	0.326010	0.254263
O9	O	1.662434	0.659343	0.587597
O10	O	0.982440	0.236452	-0.079073
O11	O	1.315773	0.569786	0.254260
O12	O	1.649107	0.903119	0.587594
O13	O	0.995752	-0.007331	0.079251
O14	O	1.329085	0.326002	0.412585
O15	O	1.662419	0.659336	0.745918
O16	O	0.867200	0.121224	0.079239
O17	O	1.200534	0.454557	0.412572
O18	O	1.533867	0.787891	0.745905
O19	O	1.110976	0.107890	0.079261
O20	O	1.444310	0.441223	0.412594
O21	O	1.777643	0.774556	0.745928
Zn22	Zn	0.989086	0.114556	0.104387
Zn23	Zn	1.322419	0.447889	0.437720
Zn24	Zn	1.655752	0.781222	0.771053
Zn25	Zn	0.989106	0.114566	-0.104208
Zn26	Zn	1.322439	0.447899	0.229125
Zn27	Zn	1.655773	0.781232	0.562458
O28	O	0.982424	0.236445	0.079248
O29	O	1.315758	0.569778	0.412582
O30	O	1.649091	0.903111	0.745915
C31	C	0.836013	0.120678	0.000075
C32	C	1.169346	0.454011	0.333408
C33	C	1.502680	0.787344	0.666742
C34	C	0.743062	0.119028	0.000067
C35	C	1.076396	0.452362	0.333400
C36	C	1.409729	0.785695	0.666733
C37	C	0.995209	-0.038522	0.000089
C38	C	1.328542	0.294811	0.333422
C39	C	1.661875	0.628145	0.666756
C40	C	0.993557	-0.131472	0.000083
C41	C	1.326890	0.201861	0.333417
C42	C	1.660224	0.535194	0.666750
C43	C	0.572876	0.116035	0.000079
C44	C	0.906209	0.449368	0.333413
C45	C	1.239543	0.782702	0.666746
C46	C	0.549530	0.023238	0.000080
C47	C	0.882864	0.356571	0.333414
C48	C	1.216197	0.689905	0.666747
C49	C	0.452852	0.021492	0.000445
C50	C	0.786186	0.354825	0.333778
C51	C	1.119519	0.688159	0.667112
C52	C	0.405316	0.113086	0.000091
C53	C	0.738649	0.446420	0.333424
C54	C	1.071983	0.779753	0.666757
C55	C	0.434399	0.159742	0.090320
C56	C	0.767732	0.493075	0.423653
C57	C	1.101065	0.826409	0.756986
C58	C	0.531191	0.160842	0.090390
C59	C	0.864525	0.494176	0.423723
C60	C	1.197858	0.827509	0.757056
C61	C	0.531119	0.162210	-0.089657
C62	C	0.864453	0.495543	0.243676
C63	C	1.197786	0.828876	0.577009
C64	C	0.434624	0.158784	-0.090838
C65	C	0.767958	0.492117	0.242496
C66	C	1.101291	0.825451	0.575829
C67	C	0.310618	0.111425	0.000100
C68	C	0.643951	0.444758	0.333434
C69	C	0.977284	0.778092	0.666767
C70	C	0.667574	0.117699	0.000076
C71	C	1.000907	0.451032	0.333409
C72	C	1.334240	0.784366	0.666743
C73	C	0.987625	-0.469220	0.000086
C74	C	1.320958	-0.135886	0.333419
C75	C	1.654291	0.197447	0.666753
C76	C	0.896072	-0.421783	-0.000277
C77	C	1.229406	-0.088450	0.333056
C78	C	1.562739	0.244884	0.666389
C79	C	0.897725	-0.325093	0.000080
C80	C	1.231058	0.008241	0.333413
C81	C	1.564391	0.341574	0.666746
C82	C	0.990567	-0.301659	0.000084
C83	C	1.323901	0.031674	0.333417
C84	C	1.657234	0.365008	0.666751
C85	C	1.035715	-0.342742	0.090496
C86	C	1.369049	-0.009409	0.423829
C87	C	1.702382	0.323924	0.757162
C88	C	1.033415	-0.439378	0.090571
C89	C	1.366749	-0.106045	0.423905
C90	C	1.700082	0.227289	0.757238
C91	C	1.035324	-0.439727	-0.089470
C92	C	1.368658	-0.106394	0.243864
C93	C	1.701991	0.226939	0.577197
C94	C	1.035303	-0.342782	-0.090664
C95	C	1.368636	-0.009449	0.242669
C96	C	1.701969	0.323885	0.576002
C97	C	0.992235	-0.206962	0.000086
C98	C	1.325568	0.126372	0.333420
C99	C	1.658902	0.459705	0.666753
C100	C	0.985960	-0.563917	0.000090
C101	C	1.319293	-0.230584	0.333424
C102	C	1.652626	0.102749	0.666757
C103	C	1.142179	0.108444	0.000101
C104	C	1.475512	0.441777	0.333434
C105	C	1.808846	0.775110	0.666768
C106	C	1.235130	0.110093	0.000104
C107	C	1.568463	0.443426	0.333437
C108	C	1.901796	0.776759	0.666770
C109	C	0.982983	0.267643	0.000087
C110	C	1.316317	0.600977	0.333421
C111	C	1.649650	0.934310	0.666754
C112	C	0.984635	0.360594	0.000087
C113	C	1.317968	0.693927	0.333420
C114	C	1.651302	1.027260	0.666753
N115	N	0.989078	0.114548	0.246747
N116	N	1.322411	0.447882	0.580081
N117	N	1.655745	0.781215	0.913414
N118	N	0.989121	0.114566	-0.246569
N119	N	1.322454	0.447900	0.086764
N120	N	1.655787	0.781233	0.420098
C121	C	1.046019	0.057648	0.296571
C122	C	1.379352	0.390981	0.629904
C123	C	1.712685	0.724314	0.963238
C124	C	1.046024	0.057647	0.396229
C125	C	1.379358	0.390981	0.729562
C126	C	1.712691	0.724314	1.062895
C127	C	0.989093	0.114552	0.446061
C128	C	1.322426	0.447885	0.779394
C129	C	1.655759	0.781219	1.112728
C130	C	0.932146	0.171455	0.396230
C131	C	1.265479	0.504789	0.729564
C132	C	1.598813	0.838122	1.062897
C133	C	0.932137	0.171451	0.296575
C134	C	1.265470	0.504785	0.629908
C135	C	1.598804	0.838118	0.963241
C136	C	0.932170	0.171461	0.603945
C137	C	1.265503	0.504795	0.937278
C138	C	1.598837	0.838128	1.270611
C139	C	0.932180	0.171467	0.703607
C140	C	1.265513	0.504800	1.036941
C141	C	1.598847	0.838134	1.370274
C142	C	1.046057	0.057657	0.703599
C143	C	1.379391	0.390991	1.036932
C144	C	1.712724	0.724324	1.370266
C145	C	1.046048	0.057653	0.603943
C146	C	1.379382	0.390987	0.937276
C147	C	1.712715	0.724320	1.270610
C148	C	0.989103	0.114558	0.554119
C149	C	1.322436	0.447891	0.887453
C150	C	1.655769	0.781225	1.220786
H151	H	0.433839	-0.015030	-0.064221
H152	H	0.767173	0.318303	0.269112
H153	H	1.100506	0.651637	0.602445
Cl154	Cl	0.842930	-0.281201	-0.099983
Cl155	Cl	1.176263	0.052132	0.233351
Cl156	Cl	1.509596	0.385466	0.566684
Cl157	Cl	0.594265	-0.031399	0.099831
Cl158	Cl	0.927599	0.301934	0.433165
Cl159	Cl	1.260932	0.635268	0.766498
H160	H	1.004345	-0.314363	0.157774
H161	H	1.337678	0.018970	0.491107
H162	H	1.671012	0.352304	0.824440
Cl163	Cl	0.860603	0.243006	0.766246
Cl164	Cl	1.193937	0.576339	1.099579
Cl165	Cl	1.527270	0.909673	1.432913
Cl166	Cl	0.592781	-0.032296	-0.099803
Cl167	Cl	0.926115	0.301037	0.233531
Cl168	Cl	1.259448	0.634371	0.566864
H169	H	0.861983	-0.297230	0.064994
H170	H	1.195317	0.036103	0.398328
H171	H	1.528650	0.369436	0.731661
H172	H	1.092424	0.011324	0.744171
H173	H	1.425758	0.344657	1.077504
H174	H	1.759091	0.677990	1.410838
H175	H	0.859486	-0.440311	-0.065114
H176	H	1.192820	-0.106977	0.268220
H177	H	1.526153	0.226356	0.601553
H178	H	0.885769	0.217784	0.256009
H179	H	1.219102	0.551118	0.589342
H180	H	1.552436	0.884451	0.922676
Cl181	Cl	0.406012	0.106311	-0.193901
Cl182	Cl	0.739346	0.439644	0.139432
Cl183	Cl	1.072679	0.772978	0.472765
Cl184	Cl	0.424369	-0.034622	0.100905
Cl185	Cl	0.757702	0.298711	0.434238
Cl186	Cl	1.091036	0.632045	0.767571
Cl187	Cl	0.860577	0.242999	0.541313
Cl188	Cl	1.193910	0.576332	0.874646
Cl189	Cl	1.527243	0.909666	1.207980
Cl190	Cl	1.139539	-0.488768	-0.090406
Cl191	Cl	1.472872	-0.155434	0.242928
Cl192	Cl	1.806206	0.177899	0.576261
Cl193	Cl	0.403374	0.110310	0.194390
Cl194	Cl	0.736707	0.443643	0.527723
Cl195	Cl	1.070040	0.776977	0.861056
Cl196	Cl	1.117598	-0.013891	0.233935
Cl197	Cl	1.450932	0.319443	0.567269
Cl198	Cl	1.784265	0.652776	0.900602
H199	H	0.859636	-0.441379	0.064191
H200	H	1.192969	-0.108046	0.397524
H201	H	1.526303	0.225288	0.730858
H202	H	0.557970	0.128903	0.158095
H203	H	0.891304	0.462236	0.491428
H204	H	1.224637	0.795570	0.824761
Cl205	Cl	0.553696	0.265904	0.096336
Cl206	Cl	0.887029	0.599237	0.429670
Cl207	Cl	1.220362	0.932571	0.763003
Cl208	Cl	0.982562	-0.467641	0.194907
Cl209	Cl	1.315895	-0.134307	0.528240
Cl210	Cl	1.649228	0.199026	0.861574
Cl211	Cl	0.989112	-0.471419	-0.195270
Cl212	Cl	1.322445	-0.138086	0.138063
Cl213	Cl	1.655779	0.195247	0.471397
H214	H	0.885787	0.217786	0.436809
H215	H	1.219120	0.551119	0.770143
H216	H	1.552454	0.884452	1.103476
Cl217	Cl	0.385233	0.263820	0.095113
Cl218	Cl	0.718566	0.597153	0.428447
Cl219	Cl	1.051899	0.930486	0.761780
H220	H	0.559396	0.132936	-0.158070
H221	H	0.892729	0.466269	0.175264
H222	H	1.226063	0.799602	0.508597
Cl223	Cl	0.984758	-0.300216	-0.193946
Cl224	Cl	1.318091	0.033117	0.139388
Cl225	Cl	1.651425	0.366450	0.472721
Cl226	Cl	1.139835	-0.319064	-0.099094
Cl227	Cl	1.473168	0.014269	0.234239
Cl228	Cl	1.806502	0.347603	0.567572
H229	H	1.092389	0.011314	0.436795
H230	H	1.425722	0.344647	0.770128
H231	H	1.759056	0.677981	1.103461
H232	H	0.401668	0.225617	-0.096566
H233	H	0.735001	0.558950	0.236767
H234	H	1.068335	0.892284	0.570100
Cl235	Cl	1.141025	-0.320939	0.095698
Cl236	Cl	1.474358	0.012395	0.429031
Cl237	Cl	1.807692	0.345728	0.762365
H238	H	1.100631	-0.471628	0.094677
H239	H	1.433965	-0.138295	0.428010
H240	H	1.767298	0.195039	0.761343
Cl241	Cl	0.552717	0.267677	-0.090977
Cl242	Cl	0.886050	0.601011	0.242357
Cl243	Cl	1.219384	0.934344	0.575690
Cl244	Cl	1.117625	-0.013879	0.541295
Cl245	Cl	1.450958	0.319454	0.874628
Cl246	Cl	1.784291	0.652787	1.207962
