data_functionalizedCrystal
_audit_creation_method	'MofGen! by Chris Wilmer'
_symmetry_space_group_name_H-M	'P1'
_symmetry_Int_Tables_number	1
_symmetry_cell_setting	triclinic
loop_
_symmetry_equiv_pos_as_xyz
  x,y,z
_cell_length_a	15.995350
_cell_length_b	14.853567
_cell_length_c	13.930277
_cell_angle_alpha	90.000757
_cell_angle_beta	90.003570
_cell_angle_gamma	83.563652
loop_
_atom_site_label
_atom_site_type_symbol
_atom_site_fract_x
_atom_site_fract_y
_atom_site_fract_z
O1	O	-1.111124	-0.116206	-0.079741
O2	O	-0.867365	-0.130556	-0.079760
O3	O	-0.995756	0.007858	-0.079753
O4	O	-0.982734	-0.254619	-0.079748
O5	O	-0.995738	0.007861	0.079909
O6	O	-0.867348	-0.130553	0.079902
O7	O	-1.111106	-0.116203	0.079921
Zn8	Zn	-0.989224	-0.123377	0.105261
Zn9	Zn	-0.989248	-0.123381	-0.105100
O10	O	-0.982716	-0.254616	0.079914
C11	C	-0.836161	-0.129961	0.000068
C12	C	-0.743209	-0.128182	0.000061
C13	C	-0.995157	0.041447	0.000075
C14	C	-0.993389	0.141528	0.000067
C15	C	-1.142311	-0.116798	0.000090
C16	C	-1.235263	-0.118576	0.000091
C17	C	-0.405454	-0.121795	0.000081
C18	C	-0.452773	-0.023220	0.000435
C19	C	-0.549465	-0.024999	0.000069
C20	C	-0.573018	-0.124963	0.000071
C21	C	-0.531998	-0.173586	-0.091099
C22	C	-0.435359	-0.171110	-0.091168
C23	C	-0.435002	-0.173143	0.090397
C24	C	-0.531947	-0.173119	0.091595
C25	C	-0.667717	-0.126759	0.000063
C26	C	-0.310754	-0.120002	0.000083
C27	C	-0.983315	-0.288206	0.000083
C28	C	-0.985083	-0.388287	0.000085
N29	N	-0.989214	-0.123374	0.248827
C30	C	-0.909648	0.553949	0.000078
C31	C	-1.062178	0.575436	0.000090
C32	C	-1.063841	0.481405	0.000084
C33	C	-0.988406	0.423641	0.000077
C34	C	-0.911308	0.459909	0.000076
C35	C	-1.140937	0.445129	0.000096
C36	C	-1.142603	0.351093	0.000091
C37	C	-1.067167	0.293327	0.000077
C38	C	-0.990066	0.329600	0.000075
C39	C	-0.914631	0.271837	0.000068
C40	C	-0.837529	0.308108	0.000058
C41	C	-0.835872	0.402144	0.000062
C42	C	-1.068824	0.199292	0.000074
C43	C	-0.916291	0.177796	0.000065
N44	N	-0.989264	-0.123377	-0.248667
C45	C	-0.932394	-0.184647	0.701093
C46	C	-1.046124	-0.062109	0.701069
C47	C	-1.046114	-0.062106	0.600573
C48	C	-0.989244	-0.123375	0.550333
C49	C	-0.932384	-0.184648	0.600588
C50	C	-1.102979	-0.000841	0.550310
C51	C	-1.102972	-0.000836	0.449808
C52	C	-1.046097	-0.062102	0.399566
C53	C	-0.989234	-0.123376	0.449828
C54	C	-0.932364	-0.184646	0.399587
C55	C	-0.875496	-0.245916	0.449847
C56	C	-0.875509	-0.245913	0.550346
C57	C	-1.046084	-0.062105	0.299067
C58	C	-0.932354	-0.184646	0.299082
H59	H	-0.577843	0.013221	0.065423
O60	O	-0.430469	0.023805	0.078358
C61	C	-0.317892	0.082538	0.164831
C62	C	-0.343049	0.029287	0.076528
H63	H	-0.247210	0.086971	0.163391
H64	H	-0.352909	0.153737	0.163503
H65	H	-0.334933	0.046269	0.233015
H66	H	-0.326010	0.065478	0.008298
H67	H	-0.308039	-0.041913	0.077940
H68	H	-0.560340	-0.139817	-0.158951
H69	H	-0.776110	0.261065	0.000059
H70	H	-0.829210	-0.295798	0.591274
O71	O	-0.413619	-0.128752	-0.172498
C72	C	-0.461596	-0.054548	-0.319486
C73	C	-0.486328	-0.102485	-0.227408
H74	H	-0.520364	-0.033315	-0.363916
H75	H	-0.430041	0.007986	-0.299553
H76	H	-0.416053	-0.102891	-0.363187
H77	H	-0.531894	-0.054214	-0.183664
H78	H	-0.517836	-0.165032	-0.247407
H79	H	-1.131599	0.169764	0.000088
O80	O	-1.158329	0.058595	0.599060
C81	C	-1.303848	0.111403	0.629739
C82	C	-1.241260	0.044015	0.574488
H83	H	-1.370911	0.099651	0.609878
H84	H	-1.294159	0.100896	0.710215
H85	H	-1.292799	0.183604	0.609977
H86	H	-1.252270	-0.028213	0.594170
H87	H	-1.250963	0.054601	0.494025
O88	O	-1.101236	-0.002481	0.250277
C89	C	-1.150177	0.154239	0.219531
C90	C	-1.087655	0.086816	0.274834
H91	H	-1.139230	0.226449	0.239380
H92	H	-1.140392	0.143782	0.139063
H93	H	-1.217243	0.142390	0.239258
H94	H	-1.020564	0.098623	0.255187
H95	H	-1.097513	0.097289	0.355288
O96	O	-0.760928	0.437269	0.000186
C97	C	-0.630064	0.447715	0.082923
C98	C	-0.714898	0.407855	0.082889
H99	H	-0.592832	0.423965	0.149792
H100	H	-0.592731	0.423907	0.016146
H101	H	-0.641856	0.524845	0.082884
H102	H	-0.703183	0.330725	0.082962
H103	H	-0.752205	0.431735	0.149660
O104	O	-1.101438	-0.002553	0.749719
C105	C	-1.214185	0.119052	0.739097
C106	C	-1.151606	0.051629	0.683876
H107	H	-1.254751	0.162888	0.685887
H108	H	-1.256125	0.080161	0.786117
H109	H	-1.177962	0.164063	0.786178
H110	H	-1.187760	0.006601	0.636743
H111	H	-1.109667	0.090576	0.636916
H112	H	-0.559215	-0.137625	0.159043
O113	O	-1.158121	0.058890	0.401134
C114	C	-1.206928	0.215708	0.370754
C115	C	-1.144416	0.148111	0.425855
H116	H	-1.195882	0.287858	0.390736
H117	H	-1.197234	0.205392	0.290255
H118	H	-1.273996	0.203908	0.390528
H119	H	-1.077323	0.159870	0.406161
H120	H	-1.154184	0.158444	0.506341
O121	O	-0.834827	0.589327	0.000113
C122	C	-0.764660	0.724664	0.000044
C123	C	-0.849452	0.684719	0.000028
H124	H	-0.776456	0.801794	-0.000045
H125	H	-0.727358	0.700942	0.066876
H126	H	-0.727388	0.700819	-0.066761
H127	H	-0.886793	0.708547	0.066788
H128	H	-0.886691	0.708437	-0.066848
O129	O	-1.135428	0.631582	-0.000070
C130	C	-1.222056	0.750273	-0.082741
C131	C	-1.139075	0.686720	-0.082690
H132	H	-1.225023	0.794881	-0.149522
H133	H	-1.277478	0.708244	-0.082804
H134	H	-1.225071	0.794788	-0.015888
H135	H	-1.135978	0.642192	-0.149531
H136	H	-1.083692	0.728803	-0.082577
O137	O	-0.877078	-0.244252	0.250431
C138	C	-0.764235	-0.365755	0.261062
C139	C	-0.826802	-0.298315	0.316278
H140	H	-0.723559	-0.409469	0.314275
H141	H	-0.800385	-0.410883	0.214033
H142	H	-0.722401	-0.326788	0.213990
H143	H	-0.868651	-0.337208	0.363403
H144	H	-0.790600	-0.253188	0.363246
O145	O	-0.397116	-0.257498	-0.096163
C146	C	-0.415241	-0.416161	-0.105023
C147	C	-0.458654	-0.318375	-0.099378
H148	H	-0.464974	-0.465408	-0.107604
H149	H	-0.374794	-0.424417	-0.172510
H150	H	-0.373805	-0.431053	-0.039059
H151	H	-0.500132	-0.303417	-0.165293
H152	H	-0.499049	-0.310169	-0.031850
O153	O	-0.410656	-0.134721	0.172946
C154	C	-0.454607	-0.060843	0.321475
C155	C	-0.482256	-0.104349	0.228022
H156	H	-0.512482	-0.036259	0.366021
H157	H	-0.412156	-0.113035	0.364288
H158	H	-0.418708	-0.000965	0.303265
H159	H	-0.518190	-0.164219	0.246145
H160	H	-0.524666	-0.052100	0.185235
O161	O	-0.549098	-0.261149	-0.095198
C162	C	-0.656143	-0.362824	-0.103787
C163	C	-0.636893	-0.263620	-0.099173
H164	H	-0.727124	-0.364855	-0.106982
H165	H	-0.625745	-0.396603	-0.170598
H166	H	-0.629801	-0.400462	-0.037122
H167	H	-0.663232	-0.225906	-0.165790
H168	H	-0.667275	-0.229910	-0.032320
O169	O	-0.582520	0.020893	-0.078107
C170	C	-0.554975	0.105964	-0.219704
C171	C	-0.517428	0.053999	-0.131216
H172	H	-0.502368	0.132761	-0.262656
H173	H	-0.588671	0.058521	-0.266639
H174	H	-0.601699	0.165141	-0.195284
H175	H	-0.470670	-0.005178	-0.155550
H176	H	-0.483785	0.101503	-0.084301
O177	O	-0.550473	-0.260043	0.098301
C178	C	-0.614887	-0.369786	0.192204
C179	C	-0.593976	-0.271309	0.184732
H180	H	-0.650046	-0.378931	0.262088
H181	H	-0.655953	-0.385534	0.128840
H182	H	-0.554078	-0.417817	0.191241
H183	H	-0.654740	-0.223213	0.185722
H184	H	-0.552876	-0.255637	0.248093
O185	O	-1.214132	0.501367	0.000068
C186	C	-1.279167	0.655761	0.000141
C187	C	-1.196209	0.592171	0.000149
H188	H	-1.264705	0.729189	0.000228
H189	H	-1.317128	0.642644	-0.066685
H190	H	-1.317090	0.642517	0.066951
H191	H	-1.158218	0.605377	-0.066616
H192	H	-1.158311	0.605301	0.067020
O193	O	-0.397312	-0.259887	0.091268
C194	C	-0.381397	-0.403543	0.173442
C195	C	-0.424159	-0.305342	0.172570
H196	H	-0.403073	-0.440316	0.239178
H197	H	-0.399192	-0.439886	0.105610
H198	H	-0.310212	-0.403105	0.176211
H199	H	-0.495350	-0.305696	0.169836
H200	H	-0.406296	-0.269039	0.240399
O201	O	-0.877039	-0.244071	0.749868
C202	C	-0.731515	-0.296833	0.780593
C203	C	-0.794112	-0.229473	0.725311
H204	H	-0.664455	-0.285067	0.760744
H205	H	-0.741213	-0.286308	0.861064
H206	H	-0.742544	-0.369044	0.760845
H207	H	-0.783120	-0.157236	0.744978
H208	H	-0.784399	-0.240077	0.644854
O209	O	-1.217568	0.316012	0.000052
C210	C	-1.368685	0.347256	0.000119
C211	C	-1.283846	0.387107	0.000145
H212	H	-1.422293	0.404717	0.000215
H213	H	-1.373340	0.303808	-0.066719
H214	H	-1.373224	0.303732	0.066917
H215	H	-1.279250	0.430672	-0.066608
H216	H	-1.279228	0.430504	0.067027
H217	H	-0.829196	-0.295806	0.408930
O218	O	-0.842933	0.121816	0.000099
C219	C	-0.691466	0.110429	0.000019
C220	C	-0.774480	0.173928	0.000004
H221	H	-0.636100	0.152535	-0.000078
H222	H	-0.688360	0.065884	0.066853
H223	H	-0.688487	0.065848	-0.066783
H224	H	-0.777514	0.218566	0.066761
H225	H	-0.777551	0.218412	-0.066874
H226	H	-0.433141	0.016001	-0.064587
