data_functionalizedCrystal
_audit_creation_method	'MofGen! by Chris Wilmer'
_symmetry_space_group_name_H-M	'P1'
_symmetry_Int_Tables_number	1
_symmetry_cell_setting	triclinic
loop_
_symmetry_equiv_pos_as_xyz
  x,y,z
_cell_length_a	10.723024
_cell_length_b	10.723024
_cell_length_c	12.503572
_cell_angle_alpha	93.558067
_cell_angle_beta	93.554583
_cell_angle_gamma	95.532131
loop_
_atom_site_label
_atom_site_type_symbol
_atom_site_fract_x
_atom_site_fract_y
_atom_site_fract_z
O1	O	-1.650035	0.182175	0.089309
O2	O	-1.286883	0.198928	0.089312
O3	O	-1.476836	0.008975	0.089309
O4	O	-1.460082	0.372128	0.089312
O5	O	-1.491128	-0.005328	-0.089333
O6	O	-1.301174	0.184625	-0.089330
O7	O	-1.664327	0.167872	-0.089333
Cu8	Cu	-1.484056	0.174942	-0.105643
Cu9	Cu	-1.467154	0.191858	0.105622
O10	O	-1.474374	0.357825	-0.089330
C11	C	-1.247529	0.190558	-0.000009
C12	C	-1.108975	0.186910	-0.000007
C13	C	-1.482762	-0.044676	-0.000010
C14	C	-1.479114	-0.183230	-0.000005
C15	C	-1.703681	0.176243	-0.000010
C16	C	-1.842234	0.179891	-0.000005
N17	N	-1.495952	0.163044	-0.254236
C18	C	-1.033992	0.293198	-0.000006
C19	C	-0.890788	0.289430	-0.000004
C20	C	-1.468447	0.411476	-0.000009
C21	C	-1.472095	0.550030	-0.000007
C22	C	-1.365807	0.625013	-0.000006
C23	C	-1.369575	0.768217	-0.000004
N24	N	-1.455267	0.203746	0.254214
C25	C	-1.437770	0.221234	0.473330
C26	C	-1.513445	0.145561	0.526656
C27	C	-1.503710	0.155291	0.648579
C28	C	-1.447504	0.211505	0.351395
H29	H	-1.075814	0.386983	-0.000011
H30	H	-0.906659	0.088896	0.000001
O31	O	-1.599285	0.059414	0.471843
C32	C	-1.536883	-0.023252	0.406767
H33	H	-1.435779	-0.023546	0.440743
H34	H	-1.587024	-0.122106	0.405349
H35	H	-1.537388	0.009047	0.321590
H36	H	-1.570110	0.752345	-0.000011
O37	O	-1.583899	0.600070	0.000136
C38	C	-1.585188	0.681943	0.092673
H39	H	-1.484611	0.715860	0.123520
H40	H	-1.637204	0.766018	0.071867
H41	H	-1.634791	0.630161	0.157457
O42	O	-1.351916	0.307292	0.528213
C43	C	-1.414302	0.390004	0.593258
H44	H	-1.510206	0.342490	0.609957
H45	H	-1.356169	0.415487	0.672401
H46	H	-1.426977	0.478918	0.550014
O47	O	-0.813792	0.397917	0.000142
C48	C	-0.730282	0.410057	0.092678
H49	H	-0.720509	0.313398	0.123523
H50	H	-0.634470	0.453925	0.071874
H51	H	-0.768335	0.472666	0.157464
O52	O	-1.059229	0.074953	0.000137
C53	C	-1.091985	0.014088	0.092671
H54	H	-1.180142	0.051213	0.123517
H55	H	-1.110688	-0.091355	0.071864
H56	H	-1.011613	0.033187	0.157457
H57	H	-1.278585	0.832649	-0.000010
O58	O	-1.254026	0.574922	-0.000053
C59	C	-1.275148	0.443093	-0.000025
H60	H	-1.375005	0.410780	-0.033846
H61	H	-1.205535	0.398239	-0.051889
H62	H	-1.261983	0.413660	0.085679
