data_functionalizedCrystal
_audit_creation_method	'MofGen! by Chris Wilmer'
_symmetry_space_group_name_H-M	'P1'
_symmetry_Int_Tables_number	1
_symmetry_cell_setting	triclinic
loop_
_symmetry_equiv_pos_as_xyz
  x,y,z
_cell_length_a	27.440280
_cell_length_b	14.395555
_cell_length_c	14.395555
_cell_angle_alpha	60.002011
_cell_angle_beta	90.005780
_cell_angle_gamma	60.000070
loop_
_atom_site_label
_atom_site_type_symbol
_atom_site_fract_x
_atom_site_fract_y
_atom_site_fract_z
Zr1	Zr	0.469517	1.016679	-0.121805
O2	O	0.391701	1.210483	-0.270149
O3	O	0.493370	0.822881	-0.076327
O4	O	0.493373	1.016664	-0.270121
O5	O	0.391699	1.016709	0.076511
O6	O	0.573576	1.016646	-0.270102
O7	O	0.391698	1.016700	-0.076355
O8	O	0.573571	0.670003	0.076560
O9	O	0.391704	1.363352	-0.270151
O10	O	0.563400	0.902578	-0.056920
O11	O	0.503546	0.902598	0.057148
O12	O	0.503549	1.130753	-0.171020
O13	O	0.443695	1.130774	-0.056952
Zr14	Zr	0.597432	1.016666	0.122029
Zr15	Zr	0.597431	1.016651	-0.121774
Zr16	Zr	0.469518	1.016695	0.121998
Zr17	Zr	0.469521	1.260488	-0.121809
Zr18	Zr	0.597428	0.772857	0.122033
O19	O	0.573579	1.210465	0.076552
O20	O	0.573579	1.210442	-0.270105
O21	O	0.391702	1.210505	0.076508
O22	O	0.675248	0.822863	0.270373
O23	O	0.675247	0.822840	-0.076284
O24	O	0.493370	0.822903	0.270329
O25	O	0.675251	1.016636	-0.076287
O26	O	0.573576	1.016681	0.270346
O27	O	0.493373	1.016699	0.270326
O28	O	0.675251	1.016646	0.076579
O29	O	0.493378	1.363330	-0.270127
O30	O	0.573571	0.670016	0.270351
O31	O	0.675245	0.669993	0.270375
O32	O	0.675245	0.669981	0.076584
O33	O	0.391704	1.363365	-0.076360
O34	O	0.493379	1.363342	-0.076336
O35	O	0.563400	0.902592	0.171244
O36	O	0.623254	0.902572	0.057176
O37	O	0.563403	1.130747	-0.056924
O38	O	0.503549	1.130768	0.057144
C39	C	0.533470	0.711705	0.000117
C40	C	0.533468	0.608201	0.000118
C41	C	0.500835	0.547620	0.062317
C42	C	0.477183	0.561875	-0.044963
C43	C	0.557106	0.409551	0.107365
C44	C	0.509783	0.623882	-0.107225
C45	C	0.589737	0.471495	0.045181
C46	C	0.566099	0.485796	-0.062163
C47	C	0.373473	1.016709	0.000074
C48	C	0.319170	1.016721	0.000061
C49	C	0.013714	0.897546	0.059702
C50	C	-0.037304	0.897539	0.059712
O51	O	-0.037122	0.796244	0.110400
N52	N	-0.094062	1.016643	0.000152
C53	C	-0.099802	1.135762	-0.059412
O54	O	-0.152764	1.237068	-0.110071
C55	C	-0.048784	1.135767	-0.059415
C56	C	0.007974	1.016656	0.000140
C57	C	0.070470	0.778444	0.119253
C58	C	0.121484	0.778451	0.119241
C59	C	0.115744	0.897561	0.059678
C60	C	0.058989	1.016663	0.000127
C61	C	-0.054523	1.254885	-0.118972
C62	C	-0.003499	1.254881	-0.118969
C63	C	0.053258	1.135769	-0.059415
C64	C	0.104263	1.135781	-0.059447
N65	N	0.161022	1.016677	0.000113
C66	C	0.166762	0.897567	0.059675
C67	C	-0.206940	1.135740	-0.059400
C68	C	-0.257958	1.135736	-0.059405
C69	C	-0.195456	0.897512	0.059722
C70	C	-0.144439	0.897518	0.059719
C71	C	-0.150182	1.016636	0.000160
C72	C	0.273894	0.897592	0.059645
C73	C	0.324911	0.897611	0.059624
C74	C	0.262406	1.135833	-0.059498
C75	C	0.211393	1.135816	-0.059482
C76	C	0.217142	1.016685	0.000098
O77	O	0.104127	1.237024	-0.110105
O78	O	0.219726	0.796278	0.110338
C79	C	0.693476	1.016637	0.000150
C80	C	0.747779	1.016625	0.000163
C81	C	0.533474	1.016653	-0.304849
C82	C	0.533474	1.016647	-0.408349
C83	C	0.533479	1.321641	0.000107
C84	C	0.533481	1.425144	0.000106
C85	C	0.566110	0.892258	-0.468648
C86	C	0.589768	0.954412	-0.437770
C87	C	0.509843	0.954461	-0.437836
C88	C	0.557166	1.078854	-0.561913
C89	C	0.477210	1.078885	-0.561975
C90	C	0.500854	1.141129	-0.531171
C91	C	0.533475	1.016692	0.305073
C92	C	0.533475	1.016699	0.408574
C93	C	0.693471	0.711669	0.000155
C94	C	0.747772	0.608153	0.000169
C95	C	0.533470	0.711724	0.305077
C96	C	0.533469	0.608227	0.408580
C97	C	0.693471	0.711688	0.305115
C98	C	0.747773	0.608180	0.408631
C99	C	0.373478	1.321657	-0.304891
C100	C	0.319176	1.425166	-0.408407
C101	C	0.373478	1.321677	0.000069
C102	C	0.319177	1.425192	0.000055
C103	C	0.533479	1.321621	-0.304853
C104	C	0.533481	1.425118	-0.408356
C105	C	0.742029	0.559544	-0.059391
C106	C	0.793046	0.462294	-0.059400
C107	C	0.849805	0.413648	0.000158
C108	C	0.855547	0.462266	0.059721
C109	C	0.804531	0.559521	0.059723
C110	C	0.804522	0.559560	0.397701
C111	C	0.855549	0.462316	0.494955
C112	C	0.849825	0.413687	0.603139
C113	C	0.793070	0.462316	0.614067
C114	C	0.742044	0.559565	0.516813
C115	C	0.262427	1.473797	-0.397477
C116	C	0.211400	1.571072	-0.494731
C117	C	0.217124	1.619706	-0.602914
C118	C	0.273879	1.571071	-0.613842
C119	C	0.324905	1.473805	-0.516589
C120	C	0.324920	1.473811	0.059605
C121	C	0.273903	1.571088	0.059587
C122	C	0.217144	1.619738	0.000025
C123	C	0.211402	1.571115	-0.059533
C124	C	0.262418	1.473846	-0.059521
C125	C	0.500831	0.547650	0.406959
C126	C	0.557112	0.409542	0.499991
C127	C	0.477205	0.561892	0.499977
C128	C	0.589782	0.471420	0.500249
C129	C	0.509835	0.623844	0.500221
C130	C	0.566149	0.485746	0.593270
H131	H	0.429602	0.599068	-0.083088
O132	O	0.467914	0.580240	0.124971
C133	C	0.468773	0.677372	0.124935
H134	H	0.509932	0.672941	0.105980
H135	H	0.470209	0.659292	0.211873
H136	H	0.426872	0.778423	0.056926
H137	H	0.891378	0.334500	0.682319
H138	H	0.695817	0.599151	-0.107905
H139	H	0.577108	0.317917	0.500924
H140	H	0.901757	0.422732	0.486037
O141	O	0.379985	1.426661	-0.527418
C142	C	0.374087	1.490473	-0.643761
H143	H	0.328550	1.530567	-0.695618
H144	H	0.410669	1.417522	-0.657329
H145	H	0.378274	1.574928	-0.672413
O146	O	0.380097	1.426385	0.117445
C147	C	0.423903	1.330129	0.104674
H148	H	0.404022	1.287586	0.082754
H149	H	0.463248	1.248320	0.187570
H150	H	0.439861	1.376643	0.033373
H151	H	0.637352	0.901809	-0.384250
H152	H	0.788359	0.422721	-0.107903
O153	O	0.156242	1.618276	-0.484245
C154	C	0.124857	1.594503	-0.536923
H155	H	0.144329	1.582419	-0.603213
H156	H	0.075754	1.680888	-0.580092
H157	H	0.129108	1.500982	-0.470062
O158	O	0.279415	1.618270	0.117542
C159	C	0.251782	1.594493	0.201131
H160	H	0.216998	1.582431	0.176077
H161	H	0.229144	1.680865	0.208356
H162	H	0.286860	1.500958	0.286553
O163	O	0.581171	1.141323	-0.625476
C164	C	0.631823	1.053673	-0.636161
H165	H	0.650399	0.948318	-0.562914
H166	H	0.667297	1.072697	-0.633795
H167	H	0.618731	1.069127	-0.720411
O168	O	0.646559	0.427013	0.499236
C169	C	0.660741	0.508744	0.498900
H170	H	0.617870	0.609320	0.463633
H171	H	0.689723	0.520186	0.443296
H172	H	0.686097	0.462816	0.589495
H173	H	0.371126	0.800611	0.108124
H174	H	0.695838	0.599138	0.525729
H175	H	-0.211625	1.232746	-0.107906
H176	H	0.901768	0.422644	0.108211
H177	H	0.257755	1.434205	-0.309397
H178	H	0.175571	1.698906	-0.682095
H179	H	0.593790	0.458715	0.672905
O180	O	0.167635	1.714345	-0.000014
C181	C	0.167733	1.826847	-0.047385
H182	H	0.215381	1.797454	-0.039293
H183	H	0.148976	1.873906	-0.000103
H184	H	0.138923	1.900150	-0.141063
H185	H	0.257734	1.434264	-0.108011
O186	O	0.468016	1.266737	-0.561783
C187	C	0.493125	1.331841	-0.626056
H188	H	0.542245	1.256349	-0.605595
H189	H	0.489013	1.400686	-0.603954
H190	H	0.468422	1.391134	-0.720588
O191	O	0.485867	0.733238	0.498995
C192	C	0.426518	0.781886	0.497544
H193	H	0.408245	0.746229	0.461869
H194	H	0.397983	0.893858	0.441739
H195	H	0.425334	0.744911	0.587848
H196	H	0.788418	0.422708	0.702163
H197	H	0.278584	0.800585	0.108161
H198	H	0.278533	1.610681	-0.701937
H199	H	0.489856	0.901852	-0.384350
O200	O	0.156309	1.618265	-0.117475
C201	C	0.162170	1.554474	-0.170012
H202	H	0.207692	1.514393	-0.181821
H203	H	0.125565	1.627436	-0.256512
H204	H	0.157991	1.470012	-0.114187
H205	H	0.473275	0.574735	0.327194
O206	O	-0.189991	0.781922	0.117576
C207	C	-0.247193	0.807472	0.104783
H208	H	-0.281011	0.909844	0.082835
H209	H	-0.246630	0.731417	0.187680
H210	H	-0.260195	0.801813	0.033494
O211	O	0.485955	0.733126	-0.215450
C212	C	0.528660	0.760480	-0.242467
H213	H	0.562925	0.714018	-0.160743
H214	H	0.505494	0.871335	-0.297717
H215	H	0.552093	0.718209	-0.290788
H216	H	0.891341	0.334455	0.000149
O217	O	0.598941	0.453836	-0.125175
C218	C	0.573833	0.565997	-0.238137
H219	H	0.524712	0.639168	-0.256285
H220	H	0.577951	0.536080	-0.299160
H221	H	0.598532	0.613438	-0.250310
O222	O	0.420457	1.141395	-0.625694
C223	C	0.395696	1.075462	-0.561237
H224	H	0.433119	0.969290	-0.490763
H225	H	0.366223	1.077275	-0.618846
H226	H	0.367723	1.126503	-0.521982
H227	H	0.809194	0.599140	0.309621
O228	O	0.646487	0.427019	0.090882
C229	C	0.671248	0.315336	0.204010
H230	H	0.633825	0.316189	0.238827
H231	H	0.700717	0.316743	0.258407
H232	H	0.699225	0.222768	0.206275
O233	O	0.580900	0.300407	0.215641
C234	C	0.546340	0.332223	0.280906
H235	H	0.520864	0.442027	0.240234
H236	H	0.576881	0.274853	0.370863
H237	H	0.513331	0.305516	0.284396
H238	H	0.809215	0.599086	0.108230
H239	H	0.429622	0.599076	0.500881
H240	H	0.075154	0.681445	0.167762
O241	O	0.176571	0.662628	0.177201
C242	C	0.170685	0.557512	0.229746
H243	H	0.125155	0.592447	0.241526
H244	H	0.207277	0.474209	0.316261
H245	H	0.174863	0.520879	0.173944
O246	O	-0.089351	0.781697	0.117678
C247	C	-0.095234	0.676575	0.170219
H248	H	-0.140764	0.711504	0.181998
H249	H	-0.058641	0.593272	0.256734
H250	H	-0.091053	0.639946	0.114413
H251	H	-0.100730	1.351879	-0.167467
O252	O	-0.313044	1.251558	-0.117286
C253	C	-0.307162	1.356679	-0.169881
H254	H	-0.261630	1.321757	-0.123172
H255	H	-0.343752	1.439992	-0.166686
H256	H	-0.311346	1.393294	-0.262314
O257	O	-0.009156	1.370680	-0.176747
C258	C	-0.040614	1.443121	-0.132938
H259	H	-0.068765	1.409241	-0.089315
H260	H	-0.070951	1.552085	-0.205417
H261	H	-0.007564	1.426618	-0.068658
O262	O	0.156301	1.251635	-0.117374
C263	C	0.162178	1.356765	-0.169986
H264	H	0.207706	1.321859	-0.123278
H265	H	0.125582	1.440086	-0.166806
H266	H	0.157998	1.393361	-0.262414
H267	H	0.257742	1.232810	-0.107996
H268	H	0.593741	0.787070	-0.443238
