data_functionalizedCrystal
_audit_creation_method	'MofGen! by Chris Wilmer'
_symmetry_space_group_name_H-M	'P1'
_symmetry_Int_Tables_number	1
_symmetry_cell_setting	triclinic
loop_
_symmetry_equiv_pos_as_xyz
  x,y,z
_cell_length_a	19.188930
_cell_length_b	19.188930
_cell_length_c	15.455313
_cell_angle_alpha	92.650876
_cell_angle_beta	87.313934
_cell_angle_gamma	83.144779
loop_
_atom_site_label
_atom_site_type_symbol
_atom_site_fract_x
_atom_site_fract_y
_atom_site_fract_z
O1	O	0.929227	0.084092	-0.072420
O2	O	1.262560	0.417425	0.260913
O3	O	1.595893	0.750759	0.594247
O4	O	0.725913	0.095829	-0.072362
O5	O	1.059246	0.429162	0.260972
O6	O	1.392580	0.762495	0.594305
O7	O	0.833436	-0.011695	-0.072376
O8	O	1.166770	0.321639	0.260958
O9	O	1.500103	0.654972	0.594291
O10	O	0.821703	0.191615	-0.072406
O11	O	1.155037	0.524949	0.260927
O12	O	1.488370	0.858282	0.594261
O13	O	0.827288	-0.005571	0.071887
O14	O	1.160621	0.327762	0.405221
O15	O	1.493954	0.661095	0.738554
O16	O	0.719764	0.101952	0.071901
O17	O	1.053098	0.435285	0.405234
O18	O	1.386431	0.768619	0.738568
O19	O	0.923078	0.090215	0.071843
O20	O	1.256412	0.423549	0.405176
O21	O	1.589745	0.756882	0.738510
Cu22	Cu	0.820860	0.096643	0.085044
Cu23	Cu	1.154193	0.429976	0.418378
Cu24	Cu	1.487527	0.763310	0.751711
Cu25	Cu	0.828131	0.089401	-0.085563
Cu26	Cu	1.161465	0.422735	0.247770
Cu27	Cu	1.494798	0.756068	0.581103
O28	O	0.815555	0.197739	0.071857
O29	O	1.148888	0.531072	0.405190
O30	O	1.482221	0.864405	0.738523
C31	C	0.696827	0.098511	-0.000223
C32	C	1.030161	0.431844	0.333111
C33	C	1.363494	0.765177	0.666444
C34	C	0.619322	0.097371	-0.000200
C35	C	0.952655	0.430704	0.333134
C36	C	1.285989	0.764038	0.666467
C37	C	0.574399	0.160461	-0.000223
C38	C	0.907732	0.493794	0.333111
C39	C	1.241066	0.827128	0.666444
C40	C	0.501576	0.159389	-0.000232
C41	C	0.834909	0.492722	0.333101
C42	C	1.168242	0.826056	0.666435
C43	C	0.473679	0.095223	-0.000236
C44	C	0.807012	0.428556	0.333097
C45	C	1.140346	0.761889	0.666431
C46	C	0.518612	0.032125	-0.000208
C47	C	0.851945	0.365458	0.333125
C48	C	1.185278	0.698791	0.666459
C49	C	0.591433	0.033199	-0.000190
C50	C	0.924766	0.366532	0.333144
C51	C	1.258100	0.699866	0.666477
N52	N	0.367793	0.044090	-0.049362
N53	N	0.701126	0.377424	0.283971
N54	N	1.034459	0.710757	0.617304
N55	N	0.298615	0.043074	-0.049381
N56	N	0.631948	0.376407	0.283952
N57	N	0.965282	0.709741	0.617285
C58	C	0.254273	0.091982	-0.000288
C59	C	0.587606	0.425316	0.333045
C60	C	0.920939	0.758649	0.666378
N61	N	0.281721	0.141955	0.048813
N62	N	0.615054	0.475288	0.382147
N63	N	0.948387	0.808622	0.715480
N64	N	0.350905	0.142973	0.048829
N65	N	0.684238	0.476307	0.382162
N66	N	1.017571	0.809640	0.715495
C67	C	0.394717	0.094051	-0.000255
C68	C	0.728051	0.427384	0.333078
C69	C	1.061384	0.760717	0.666412
C70	C	0.130386	0.153914	-0.000320
C71	C	0.463719	0.487247	0.333013
C72	C	0.797052	0.820581	0.666346
C73	C	0.057561	0.152840	-0.000324
C74	C	0.390894	0.486173	0.333009
C75	C	0.724228	0.819506	0.666342
C76	C	0.074599	0.025573	-0.000309
C77	C	0.407933	0.358907	0.333024
C78	C	0.741266	0.692240	0.666358
C79	C	0.147422	0.026650	-0.000296
C80	C	0.480755	0.359983	0.333037
C81	C	0.814089	0.693317	0.666371
C82	C	0.175311	0.090822	-0.000306
C83	C	0.508644	0.424155	0.333027
C84	C	0.841977	0.757489	0.666361
C85	C	0.829982	-0.034644	-0.000242
C86	C	1.163315	0.298690	0.333092
C87	C	1.496649	0.632023	0.666425
C88	C	0.828841	-0.112148	-0.000234
C89	C	1.162174	0.221185	0.333100
C90	C	1.495508	0.554519	0.666433
C91	C	0.891932	-0.157072	-0.000248
C92	C	1.225266	0.176261	0.333086
C93	C	1.558599	0.509594	0.666419
C94	C	0.890861	-0.229897	-0.000261
C95	C	1.224195	0.103436	0.333072
C96	C	1.557528	0.436770	0.666405
C97	C	0.826694	-0.257793	-0.000243
C98	C	1.160028	0.075541	0.333090
C99	C	1.493361	0.408874	0.666423
C100	C	0.763595	-0.212859	-0.000234
C101	C	1.096928	0.120475	0.333099
C102	C	1.430262	0.453808	0.666432
C103	C	0.764668	-0.140036	-0.000230
C104	C	1.098001	0.193297	0.333104
C105	C	1.431335	0.526630	0.666437
N106	N	0.775554	-0.363713	0.048866
N107	N	1.108887	-0.030380	0.382199
N108	N	1.442221	0.302953	0.715533
N109	N	0.774539	-0.432892	0.048863
N110	N	1.107872	-0.099559	0.382196
N111	N	1.441205	0.233775	0.715530
C112	C	0.823457	-0.477202	-0.000260
C113	C	1.156790	-0.143869	0.333073
C114	C	1.490124	0.189465	0.666407
N115	N	0.873439	-0.449721	-0.049370
N116	N	1.206773	-0.116388	0.283964
N117	N	1.540106	0.216946	0.617297
N118	N	0.874456	-0.380536	-0.049363
N119	N	1.207790	-0.047203	0.283970
N120	N	1.541123	0.286131	0.617304
C121	C	0.825524	-0.336755	-0.000249
C122	C	1.158857	-0.003422	0.333084
C123	C	1.492190	0.329911	0.666417
C124	C	0.885391	-0.601092	-0.000290
C125	C	1.218725	-0.267758	0.333043
C126	C	1.552058	0.065575	0.666377
C127	C	0.884318	-0.673917	-0.000309
C128	C	1.217651	-0.340584	0.333024
C129	C	1.550985	-0.007251	0.666358
C130	C	0.757049	-0.656877	-0.000273
C131	C	1.090383	-0.323544	0.333060
C132	C	1.423716	0.009790	0.666393
C133	C	0.758125	-0.584053	-0.000263
C134	C	1.091458	-0.250720	0.333070
C135	C	1.424792	0.082613	0.666403
C136	C	0.822298	-0.556165	-0.000267
C137	C	1.155631	-0.222832	0.333066
C138	C	1.488965	0.110501	0.666399
C139	C	0.952164	0.087533	-0.000298
C140	C	1.285497	0.420867	0.333035
C141	C	1.618831	0.754200	0.666369
C142	C	1.029670	0.088673	-0.000327
C143	C	1.363003	0.422006	0.333007
C144	C	1.696336	0.755339	0.666340
C145	C	0.819009	0.220688	-0.000279
C146	C	1.152343	0.554021	0.333054
C147	C	1.485676	0.887355	0.666388
C148	C	0.820151	0.298192	-0.000293
C149	C	1.153484	0.631525	0.333041
C150	C	1.486817	0.964859	0.666374
N151	N	0.815751	0.101736	0.205041
N152	N	1.149084	0.435069	0.538374
N153	N	1.482417	0.768403	0.871707
N154	N	0.833246	0.084303	-0.205559
N155	N	1.166579	0.417636	0.127774
N156	N	1.499913	0.750969	0.461107
C157	C	0.861446	0.056073	0.250429
C158	C	1.194779	0.389406	0.583762
C159	C	1.528113	0.722740	0.917096
C160	C	0.857589	0.059931	0.341237
C161	C	1.190922	0.393264	0.674571
C162	C	1.524255	0.726598	1.007904
C163	C	0.808039	0.109456	0.386656
C164	C	1.141372	0.442789	0.719989
C165	C	1.474705	0.776122	1.053322
C166	C	0.762338	0.155121	0.341261
C167	C	1.095672	0.488454	0.674594
C168	C	1.429005	0.821787	1.007928
C169	C	0.766193	0.151259	0.250454
C170	C	1.099526	0.484592	0.583788
C171	C	1.432860	0.817926	0.917121
C172	C	0.791400	0.126106	0.658239
C173	C	1.124734	0.459439	0.991573
C174	C	1.458067	0.792773	1.324906
C175	C	0.787551	0.129966	0.749052
C176	C	1.120884	0.463299	1.082386
C177	C	1.454217	0.796632	1.415719
C178	C	0.882801	0.034775	0.749022
C179	C	1.216134	0.368108	1.082356
C180	C	1.549467	0.701441	1.415689
C181	C	0.886654	0.030920	0.658214
C182	C	1.219987	0.364253	0.991547
C183	C	1.553320	0.697587	1.324880
C184	C	0.840951	0.076582	0.612827
C185	C	1.174284	0.409916	0.946160
C186	C	1.507618	0.743249	1.279494
N187	N	0.804096	0.113402	0.479476
N188	N	1.137429	0.446735	0.812810
N189	N	1.470762	0.780068	1.146143
N190	N	0.844891	0.072633	0.520008
N191	N	1.178224	0.405966	0.853341
N192	N	1.511558	0.739299	1.186675
H193	H	0.153093	0.206167	-0.000316
H194	H	0.486427	0.539501	0.333018
H195	H	0.819760	0.872834	0.666351
H196	H	0.754189	0.163288	0.621293
H197	H	1.087522	0.496621	0.954626
H198	H	1.420855	0.829954	1.287959
Br199	Br	0.440596	0.245017	-0.000258
Br200	Br	0.773930	0.578350	0.333075
Br201	Br	1.107263	0.911684	0.666408
H202	H	0.927001	-0.009407	0.621236
H203	H	1.260335	0.323926	0.954569
H204	H	1.593668	0.657260	1.287903
Br205	Br	0.036747	-0.061511	-0.000299
Br206	Br	0.370081	0.271823	0.333034
Br207	Br	0.703414	0.605156	0.666367
H208	H	0.721990	0.195443	0.378246
H209	H	1.055323	0.528776	0.711579
H210	H	1.388657	0.862109	1.044913
H211	H	0.728982	0.188442	0.213500
H212	H	1.062315	0.521775	0.546833
H213	H	1.395649	0.855108	0.880167
H214	H	0.935697	-0.710495	-0.000325
H215	H	1.269030	-0.377162	0.333008
H216	H	1.602364	-0.043829	0.666342
H217	H	0.706749	-0.547474	-0.000247
H218	H	1.040082	-0.214141	0.333086
H219	H	1.373416	0.119192	0.666420
H220	H	0.184000	-0.024725	-0.000282
H221	H	0.517333	0.308608	0.333051
H222	H	0.850666	0.641942	0.666385
Br223	Br	0.480754	-0.054959	-0.000204
Br224	Br	0.814087	0.278375	0.333129
Br225	Br	1.147421	0.611708	0.666463
H226	H	0.628010	-0.018178	-0.000171
H227	H	0.961344	0.315155	0.333162
H228	H	1.294677	0.648488	0.666495
Br229	Br	0.612245	0.247551	-0.000235
Br230	Br	0.945578	0.580884	0.333099
Br231	Br	1.278912	0.914218	0.666432
Br232	Br	0.928701	-0.011138	0.188799
Br233	Br	1.262035	0.322195	0.522132
Br234	Br	1.595368	0.655529	0.855466
H235	H	0.020984	0.204217	-0.000338
H236	H	0.354318	0.537551	0.332995
H237	H	0.687651	0.870884	0.666328
H238	H	0.894797	0.022748	0.378192
H239	H	1.228130	0.356081	0.711525
H240	H	1.561464	0.689415	1.044859
Br241	Br	0.979024	-0.119228	-0.000277
Br242	Br	1.312358	0.214105	0.333056
Br243	Br	1.645691	0.547438	0.666389
Br244	Br	0.944821	-0.027194	0.810621
Br245	Br	1.278155	0.306139	1.143955
Br246	Br	1.611488	0.639472	1.477288
Br247	Br	0.669964	-0.694728	-0.000258
Br248	Br	1.003298	-0.361394	0.333075
Br249	Br	1.336631	-0.028061	0.666409
H250	H	0.747199	0.170298	0.786028
H251	H	1.080532	0.503631	1.119361
H252	H	1.413865	0.836964	1.452695
H253	H	0.711350	-0.235576	-0.000222
H254	H	1.044683	0.097757	0.333111
H255	H	1.378016	0.431091	0.666445
Br256	Br	0.679037	-0.079063	-0.000213
Br257	Br	1.012371	0.254271	0.333120
Br258	Br	1.345704	0.587604	0.666454
Br259	Br	0.976491	-0.290878	-0.000284
Br260	Br	1.309825	0.042455	0.333049
Br261	Br	1.643158	0.375789	0.666383
H262	H	0.937645	-0.578384	-0.000297
H263	H	1.270978	-0.245051	0.333036
H264	H	1.604312	0.088282	0.666369
