data_functionalizedCrystal
_audit_creation_method	'MofGen! by Chris Wilmer'
_symmetry_space_group_name_H-M	'P1'
_symmetry_Int_Tables_number	1
_symmetry_cell_setting	triclinic
loop_
_symmetry_equiv_pos_as_xyz
  x,y,z
_cell_length_a	12.759401
_cell_length_b	16.625545
_cell_length_c	12.759393
_cell_angle_alpha	90.032830
_cell_angle_beta	90.019596
_cell_angle_gamma	90.025835
loop_
_atom_site_label
_atom_site_type_symbol
_atom_site_fract_x
_atom_site_fract_y
_atom_site_fract_z
Zn1	Zn	1.606187	-0.320957	0.593965
Zn2	Zn	2.106187	0.179043	1.093965
Zn3	Zn	1.606045	-0.455811	0.418278
Zn4	Zn	2.106045	0.044189	0.918278
Zn5	Zn	1.430486	-0.320997	0.418305
Zn6	Zn	1.930486	0.179003	0.918305
Zn7	Zn	1.430444	-0.455752	0.593920
Zn8	Zn	1.930444	0.044248	1.093920
O9	O	1.518291	-0.388379	0.506117
O10	O	2.018291	0.111621	1.006117
O11	O	1.753189	-0.338853	0.570668
O12	O	2.253189	0.161147	1.070668
O13	O	1.582714	-0.437969	0.271261
O14	O	2.082714	0.062031	0.771261
O15	O	1.453870	-0.208159	0.441637
O16	O	1.953870	0.291841	0.941637
O17	O	1.753085	-0.437930	0.441592
O18	O	2.253085	0.062070	0.941592
O19	O	1.582957	-0.208130	0.570694
O20	O	2.082957	0.291870	1.070694
O21	O	1.453732	-0.338922	0.271280
O22	O	1.953732	0.161078	0.771280
O23	O	1.283459	-0.338864	0.441592
O24	O	1.783459	0.161136	0.941592
O25	O	1.453799	-0.437829	0.740947
O26	O	1.953799	0.062171	1.240947
O27	O	1.283429	-0.437868	0.570616
O28	O	1.783429	0.062132	1.070616
O29	O	1.582917	-0.338796	0.740980
O30	O	2.082917	0.161204	1.240980
O31	O	1.582674	-0.568635	0.441547
O32	O	2.082674	-0.068635	0.941547
O33	O	1.453661	-0.568592	0.570590
O34	O	1.953661	-0.068592	1.070590
C35	C	1.245323	-0.388365	0.506103
C36	C	1.745323	0.111635	1.006103
C37	C	1.128547	-0.388378	0.506121
C38	C	1.628547	0.111622	1.006121
C39	C	0.963965	-0.440020	0.573205
C40	C	1.463965	0.059980	1.073205
C41	C	1.073689	-0.440011	0.573194
C42	C	1.573689	0.059989	1.073194
C43	C	1.073674	-0.336756	0.439047
C44	C	1.573674	0.163244	0.939047
C45	C	0.963952	-0.336770	0.439054
C46	C	1.463952	0.163230	0.939054
C47	C	1.518176	-0.597870	0.506084
C48	C	2.018176	-0.097870	1.006084
C49	C	1.518224	-0.687491	0.506105
C50	C	2.018224	-0.187491	1.006105
C51	C	1.518264	-0.760273	0.506126
C52	C	2.018264	-0.260273	1.006126
C53	C	1.518326	-0.851582	0.506149
C54	C	2.018326	-0.351582	1.006149
C55	C	1.518380	-0.924358	0.506162
C56	C	2.018380	-0.424358	1.006162
C57	C	1.518440	-1.015672	0.506184
C58	C	2.018440	-0.515672	1.006184
C59	C	1.792324	-0.388394	0.506132
C60	C	2.292324	0.111606	1.006132
C61	C	1.909100	-0.388400	0.506139
C62	C	2.409100	0.111600	1.006139
C63	C	1.518369	-0.388302	0.780151
C64	C	2.018369	0.111698	1.280151
C65	C	1.518403	-0.388269	0.896927
C66	C	2.018403	0.111731	1.396927
C67	C	1.518434	-0.178070	0.506173
C68	C	2.018434	0.321930	1.006173
C69	C	1.518495	-0.088449	0.506197
C70	C	2.018495	0.411551	1.006197
C71	C	1.518273	-0.388398	0.233150
C72	C	2.018273	0.111602	0.733150
C73	C	1.518443	-0.388204	0.116374
C74	C	2.018443	0.111796	0.616374
C75	C	1.585639	-0.336694	0.951808
C76	C	2.085639	0.163306	1.451808
C77	C	1.585657	-0.336659	1.061533
C78	C	2.085657	0.163341	1.561533
C79	C	1.451199	-0.439781	1.061485
C80	C	1.951199	0.060219	1.561485
C81	C	1.451177	-0.439811	0.951763
C82	C	1.951177	0.060189	1.451763
H83	H	0.919308	-0.482061	0.627830
H84	H	1.419308	0.017939	1.127830
H85	H	1.396468	-0.481747	1.106145
H86	H	1.896468	0.018253	1.606145
H87	H	1.118355	-0.482045	0.627806
H88	H	1.618355	0.017955	1.127806
H89	H	1.396417	-0.481809	0.907077
H90	H	1.896417	0.018191	1.407077
H91	H	0.919280	-0.294734	0.384435
H92	H	1.419280	0.205266	0.884435
C93	C	1.241865	-0.290881	0.379482
C94	C	1.741865	0.209119	0.879482
C95	C	1.133971	-0.279998	0.365321
C96	C	1.633971	0.220002	0.865321
H97	H	1.279086	-0.255834	0.333970
H98	H	1.779086	0.244166	0.833970
H99	H	1.259817	-0.345032	0.363975
H100	H	1.759817	0.154968	0.863975
H101	H	1.259865	-0.279143	0.450103
H102	H	1.759865	0.220857	0.950103
H103	H	1.115969	-0.291741	0.294701
H104	H	1.615969	0.208259	0.794701
H105	H	1.116012	-0.225834	0.380820
H106	H	1.616012	0.274166	0.880820
H107	H	1.640406	-0.294660	1.106212
H108	H	2.140406	0.205340	1.606212
C109	C	1.718536	-0.234752	0.962881
C110	C	2.218536	0.265248	1.462881
C111	C	1.659522	-0.280031	0.891532
C112	C	2.159522	0.219969	1.391532
H113	H	1.764142	-0.199766	0.925669
H114	H	2.264142	0.300234	1.425669
H115	H	1.758708	-0.269872	1.005668
H116	H	2.258708	0.230128	1.505668
H117	H	1.672777	-0.203900	1.005681
H118	H	2.172777	0.296100	1.505681
H119	H	1.705281	-0.310888	0.848737
H120	H	2.205281	0.189112	1.348737
H121	H	1.619347	-0.244906	0.848727
H122	H	2.119347	0.255094	1.348727
