data_functionalizedCrystal
_audit_creation_method	'MofGen! by Chris Wilmer'
_symmetry_space_group_name_H-M	'P1'
_symmetry_Int_Tables_number	1
_symmetry_cell_setting	triclinic
loop_
_symmetry_equiv_pos_as_xyz
  x,y,z
_cell_length_a	8.497374
_cell_length_b	8.497374
_cell_length_c	21.295420
_cell_angle_alpha	90.004018
_cell_angle_beta	90.003125
_cell_angle_gamma	90.004389
loop_
_atom_site_label
_atom_site_type_symbol
_atom_site_fract_x
_atom_site_fract_y
_atom_site_fract_z
Zn1	Zn	0.628494	0.892186	0.962356
Zn2	Zn	0.892243	0.628451	0.962350
Zn3	Zn	0.628452	0.628404	0.857117
Zn4	Zn	0.892206	0.892174	0.857103
O5	O	0.760349	0.760304	0.909732
O6	O	0.663514	0.857225	1.050445
O7	O	0.857249	0.407683	0.948395
O8	O	0.407695	0.663381	0.871086
O9	O	0.857290	0.663461	1.050441
O10	O	0.407726	0.857180	0.948404
O11	O	0.663442	0.407648	0.871080
O12	O	0.663406	0.663369	0.769026
O13	O	0.857226	1.112938	0.871061
O14	O	0.857186	0.857160	0.769015
O15	O	0.663478	1.112946	0.948391
O16	O	1.113001	0.663450	0.948381
O17	O	1.112974	0.857206	0.871056
C18	C	0.760288	0.760259	0.746180
C19	C	0.760301	0.760278	0.676212
C20	C	1.170229	0.760327	0.909724
C21	C	1.348873	0.760301	0.909741
C22	C	0.760374	1.350424	0.909735
C23	C	0.760367	1.171780	0.909729
C24	C	0.659688	0.861385	0.176756
C25	C	0.659676	0.861385	0.242498
C26	C	0.760397	0.760341	0.275373
C27	C	0.861166	0.659318	0.242499
C28	C	0.861186	0.659332	0.176758
N29	N	0.772252	0.622208	0.378585
N30	N	0.772224	0.622200	0.441036
C31	C	0.760345	0.760294	0.473447
N32	N	0.748464	0.898401	0.441048
N33	N	0.748484	0.898408	0.378591
C34	C	0.760387	0.760315	0.346658
C35	C	0.659578	0.861318	0.577598
C36	C	0.659577	0.861321	0.643342
C37	C	0.861058	0.659240	0.643342
C38	C	0.861067	0.659251	0.577599
C39	C	0.760318	0.760288	0.544732
C40	C	0.760411	0.760350	1.073922
C41	C	0.760437	0.760369	1.143890
H42	H	0.577657	0.943664	0.149999
C43	C	0.548775	0.972470	0.541439
C44	C	0.437967	1.083610	0.577594
C45	C	0.327166	1.194763	0.541436
C46	C	0.327173	1.194775	0.469123
C47	C	0.437985	1.083630	0.432964
C48	C	0.548787	0.972478	0.469122
H49	H	0.437958	1.083605	0.631128
H50	H	0.245135	1.277040	0.568204
H51	H	0.245151	1.277057	0.442357
H52	H	0.437995	1.083636	0.379430
H53	H	0.630817	0.890201	0.442354
C54	C	0.548746	0.972454	0.679494
C55	C	0.561879	1.151777	0.670458
C56	C	0.451045	1.262914	0.706609
C57	C	0.327079	1.194728	0.751796
C58	C	0.313941	1.015395	0.760834
C59	C	0.424775	0.904258	0.724683
H60	H	0.653650	1.202261	0.637007
H61	H	0.460772	1.395668	0.699919
H62	H	0.245034	1.276998	0.778557
H63	H	0.222169	0.964912	0.794285
H64	H	0.415048	0.771504	0.731373
H65	H	0.577627	0.943642	0.269262
H66	H	0.943177	0.577051	0.269270
H67	H	0.943231	0.577071	0.149999
H68	H	0.943080	0.576980	0.670108
H69	H	0.943101	0.576986	0.550840
