data_functionalizedCrystal
_audit_creation_method	'MofGen! by Chris Wilmer'
_symmetry_space_group_name_H-M	'P1'
_symmetry_Int_Tables_number	1
_symmetry_cell_setting	triclinic
loop_
_symmetry_equiv_pos_as_xyz
  x,y,z
_cell_length_a	13.635800
_cell_length_b	17.106168
_cell_length_c	17.253971
_cell_angle_alpha	71.967758
_cell_angle_beta	102.660081
_cell_angle_gamma	100.225200
loop_
_atom_site_label
_atom_site_type_symbol
_atom_site_fract_x
_atom_site_fract_y
_atom_site_fract_z
V1	V	1.950408	-0.129098	0.259657
O2	O	2.002369	-0.011575	0.246821
O3	O	1.871771	-0.238880	0.265473
O4	O	1.923756	-0.134913	0.369439
O5	O	1.950024	-0.116262	0.142135
V6	V	2.199593	-0.114119	0.244678
O7	O	2.064752	-0.161955	0.292514
O8	O	2.310348	-0.081262	0.211821
O9	O	2.166627	-0.004337	0.238863
O10	O	2.206330	-0.231641	0.257515
O11	O	2.258675	-0.126955	0.362201
O12	O	2.114642	-0.108303	0.134896
V13	V	2.450408	-0.129098	0.259657
O14	O	2.502369	-0.011575	0.246821
O15	O	2.371771	-0.238880	0.265473
O16	O	2.423756	-0.134913	0.369439
O17	O	2.450024	-0.116262	0.142135
V18	V	2.699593	-0.114119	0.244678
O19	O	2.564752	-0.161955	0.292514
O20	O	2.810348	-0.081262	0.211821
O21	O	2.666627	-0.004337	0.238863
O22	O	2.706330	-0.231641	0.257515
O23	O	2.758675	-0.126955	0.362201
O24	O	2.614642	-0.108303	0.134896
C25	C	2.281107	-0.265398	0.263335
C26	C	2.257440	-0.355197	0.268822
C27	C	2.234139	-0.380768	0.196597
C28	C	2.211910	-0.465144	0.201755
C29	C	2.212975	-0.523948	0.279139
C30	C	2.236280	-0.498372	0.351370
C31	C	2.258516	-0.413998	0.346211
C32	C	2.147786	-0.778075	0.302589
C33	C	2.125545	-0.862454	0.307742
C34	C	2.101179	-0.829220	0.158127
C35	C	2.123410	-0.744845	0.152975
C36	C	2.146719	-0.719277	0.225206
N37	N	2.190251	-0.610194	0.284413
N38	N	2.169449	-0.633032	0.219931
C39	C	1.781107	-0.265398	0.263335
C40	C	1.757440	-0.355197	0.268822
C41	C	1.847420	-0.132777	0.395954
C42	C	1.865910	-0.138258	0.485751
C43	C	2.088959	0.022178	0.240998
C44	C	2.102245	0.111975	0.235517
C45	C	2.022648	-0.110441	0.108378
C46	C	1.993778	-0.104956	0.018579
C47	C	2.347420	-0.132777	0.395954
C48	C	2.365910	-0.138258	0.485751
C49	C	1.891514	-0.066034	0.511323
C50	C	1.908882	-0.071192	0.595699
C51	C	1.900653	-0.148576	0.654502
C52	C	1.875043	-0.220806	0.628925
C53	C	1.857669	-0.215647	0.544550
C54	C	1.950795	-0.172027	0.908628
C55	C	1.968175	-0.177181	0.993008
C56	C	2.002010	-0.027566	0.959775
C57	C	1.984640	-0.022414	0.875401
C58	C	1.959027	-0.094644	0.849831
N59	N	1.918408	-0.153850	0.740748
N60	N	1.941265	-0.089368	0.763586
C61	C	2.588959	0.022178	0.240998
C62	C	2.602245	0.111975	0.235517
C63	C	2.522648	-0.110441	0.108378
C64	C	2.493778	-0.104956	0.018579
C65	C	1.835228	-0.401765	0.275720
C66	C	1.813005	-0.486144	0.280887
C67	C	1.712993	-0.523951	0.279152
C68	C	1.635199	-0.477377	0.272257
C69	C	1.657423	-0.393002	0.267095
C70	C	2.463538	-0.145144	0.532317
C71	C	2.480928	-0.150284	0.616689
C72	C	2.400689	-0.148543	0.654495
C73	C	2.303054	-0.141654	0.607923
C74	C	2.285666	-0.136509	0.523551
C75	C	2.696950	0.158543	0.228622
C76	C	2.709444	0.242921	0.223458
C77	C	2.627234	0.280728	0.225195
C78	C	2.532521	0.234155	0.232088
C79	C	2.520026	0.149780	0.237246
C80	C	2.391791	-0.106689	-0.019207
C81	C	2.364653	-0.101526	-0.103583
C82	C	2.439502	-0.094635	-0.150171
C83	C	2.541498	-0.092899	-0.112380
C84	C	2.568635	-0.098057	-0.028006
H85	H	2.233261	-0.332894	0.133582
H86	H	2.237152	-0.546257	0.414378
Cl87	Cl	2.071883	-0.861369	0.067329
H88	H	2.560432	-0.155896	0.654598
Cl89	Cl	2.564428	-0.147333	0.484807
Cl90	Cl	2.297676	-0.115349	0.039343
H91	H	1.594073	-0.355091	0.261474
H92	H	2.414861	-0.152734	0.723197
H93	H	2.237728	-0.140238	0.638718
Cl94	Cl	2.405368	-0.088156	-0.256241
H95	H	1.929716	-0.012378	0.616513
Cl96	Cl	1.957829	-0.274471	1.066932
H97	H	2.651684	-0.096650	0.002753
H98	H	2.206166	-0.130904	0.485643
Cl99	Cl	1.910816	-0.544675	0.289550
H100	H	2.465589	0.264950	0.233501
H101	H	2.763902	0.127772	0.227207
H102	H	1.991345	0.040600	0.827527
Cl103	Cl	2.828519	0.301452	0.214795
Cl104	Cl	2.126961	-0.936383	0.405036
H105	H	2.602433	-0.087286	-0.150325
Cl106	Cl	2.034201	0.063231	0.991925
H107	H	1.694910	-0.592656	0.283356
H108	H	2.637422	0.349432	0.220994
Cl109	Cl	1.509472	-0.524918	0.270071
H110	H	2.442907	0.111869	0.242868
H111	H	2.122546	-0.696971	0.089961
Cl112	Cl	2.177075	-0.745942	0.393394
Cl113	Cl	2.182630	-0.497287	0.110954
Cl114	Cl	2.287814	-0.381852	0.437013
H115	H	1.929947	-0.230842	0.887821
Cl116	Cl	1.901878	0.031253	0.437407
Cl117	Cl	1.864725	-0.318091	0.702850
Cl118	Cl	1.960969	-0.354256	0.277911
Cl119	Cl	2.236425	-0.103716	-0.151073
H120	H	1.836817	-0.274460	0.523732
