data_functionalizedCrystal
_audit_creation_method	'MofGen! by Chris Wilmer'
_symmetry_space_group_name_H-M	'P1'
_symmetry_Int_Tables_number	1
_symmetry_cell_setting	triclinic
loop_
_symmetry_equiv_pos_as_xyz
  x,y,z
_cell_length_a	18.101398
_cell_length_b	21.295417
_cell_length_c	21.295412
_cell_angle_alpha	89.969332
_cell_angle_beta	89.971180
_cell_angle_gamma	90.025773
loop_
_atom_site_label
_atom_site_type_symbol
_atom_site_fract_x
_atom_site_fract_y
_atom_site_fract_z
Zn1	Zn	1.132157	-0.250704	-0.356000
Zn2	Zn	1.632157	0.249296	0.144000
Zn3	Zn	1.132044	-0.355973	-0.250726
Zn4	Zn	1.632044	0.144027	0.249274
Zn5	Zn	1.008306	-0.250713	-0.250736
Zn6	Zn	1.508306	0.249287	0.249264
Zn7	Zn	1.008268	-0.355931	-0.355948
Zn8	Zn	1.508268	0.144069	0.144052
O9	O	1.070194	-0.303330	-0.303352
O10	O	1.570194	0.196670	0.196648
O11	O	1.235775	-0.264682	-0.342053
O12	O	1.735775	0.235318	0.157947
O13	O	1.115599	-0.342031	-0.162638
O14	O	1.615599	0.157969	0.337362
O15	O	1.024798	-0.162622	-0.264726
O16	O	1.524798	0.337378	0.235274
O17	O	1.235692	-0.342023	-0.264709
O18	O	1.735692	0.157977	0.235291
O19	O	1.115791	-0.162616	-0.342063
O20	O	1.615791	0.337384	0.157937
O21	O	1.024689	-0.264697	-0.162645
O22	O	1.524689	0.235303	0.337355
O23	O	0.904668	-0.264656	-0.264674
O24	O	1.404668	0.235344	0.235326
O25	O	1.024733	-0.341951	-0.444044
O26	O	1.524733	0.158049	0.055956
O27	O	0.904640	-0.341959	-0.341973
O28	O	1.404640	0.158041	0.158027
O29	O	1.115754	-0.264642	-0.444083
O30	O	1.615754	0.235358	0.055917
O31	O	1.115562	-0.444057	-0.264658
O32	O	1.615562	0.055943	0.235342
O33	O	1.024624	-0.444026	-0.341964
O34	O	1.524624	0.055974	0.158036
C35	C	0.877783	-0.303305	-0.303320
C36	C	1.377783	0.196695	0.196680
C37	C	0.795469	-0.303309	-0.303321
C38	C	1.295469	0.196691	0.196679
C39	C	0.496378	-0.303348	-0.303373
C40	C	0.996378	0.196652	0.196627
C41	C	0.527696	-0.254468	-0.254976
C42	C	1.027696	0.245532	0.245024
C43	C	0.613315	-0.254599	-0.254770
C44	C	1.113315	0.245401	0.245230
C45	C	0.644761	-0.303328	-0.303347
C46	C	1.144761	0.196672	0.196653
C47	C	0.613642	-0.369638	-0.285216
C48	C	1.113642	0.130362	0.214784
C49	C	0.527997	-0.369367	-0.284880
C50	C	1.027997	0.130633	0.215120
C51	C	0.527999	-0.286495	-0.370015
C52	C	1.027999	0.213505	0.129985
C53	C	0.613650	-0.285018	-0.369652
C54	C	1.113650	0.214982	0.130348
C55	C	0.728620	-0.303321	-0.303333
C56	C	1.228620	0.196679	0.196667
C57	C	0.412519	-0.303360	-0.303386
C58	C	0.912519	0.196640	0.196614
C59	C	1.070097	-0.466882	-0.303318
C60	C	1.570097	0.033118	0.196682
C61	C	1.070123	-0.536850	-0.303324
C62	C	1.570123	-0.036850	0.196676
C63	C	1.117516	-0.569712	-0.263112
C64	C	1.617516	-0.069712	0.236888
C65	C	1.117551	-0.635454	-0.263126
C66	C	1.617551	-0.135454	0.236874
C67	C	1.070179	-0.668332	-0.303345
C68	C	1.570179	-0.168332	0.196655
C69	C	1.022782	-0.635463	-0.343565
C70	C	1.522782	-0.135463	0.156435
C71	C	1.022754	-0.569721	-0.343554
C72	C	1.522754	-0.069721	0.156446
N73	N	1.005395	-0.771594	-0.308133
N74	N	1.505395	-0.271594	0.191867
N75	N	1.005424	-0.834045	-0.308140
N76	N	1.505424	-0.334045	0.191860
C77	C	1.070262	-0.866407	-0.303382
C78	C	1.570262	-0.366407	0.196618
N79	N	1.135072	-0.833958	-0.298604
N80	N	1.635072	-0.333958	0.201396
N81	N	1.135042	-0.771501	-0.298594
N82	N	1.635042	-0.271501	0.201406
C83	C	1.070205	-0.739618	-0.303362
C84	C	1.570205	-0.239618	0.196638
C85	C	1.117697	-0.970554	-0.263183
C86	C	1.617697	-0.470554	0.236817
C87	C	1.117733	-1.036298	-0.263201
C88	C	1.617733	-0.536298	0.236799
C89	C	1.022958	-1.036305	-0.343637
C90	C	1.522958	-0.536305	0.156363
C91	C	1.022928	-0.970563	-0.343622
C92	C	1.522928	-0.470563	0.156378
C93	C	1.070297	-0.937691	-0.303391
C94	C	1.570297	-0.437691	0.196609
C95	C	1.263356	-0.303356	-0.303386
C96	C	1.763356	0.196644	0.196614
C97	C	1.345670	-0.303367	-0.303400
C98	C	1.845670	0.196633	0.196600
C99	C	1.070252	-0.303291	-0.467543
C100	C	1.570252	0.196709	0.032457
C101	C	1.070276	-0.303274	-0.537511
C102	C	1.570276	0.196726	-0.037511
C103	C	1.070311	-0.139140	-0.303401
C104	C	1.570311	0.360860	0.196599
C105	C	1.070362	-0.069172	-0.303422
C106	C	1.570362	0.430828	0.196578
C107	C	1.022952	-0.263002	-0.570371
C108	C	1.522952	0.236998	-0.070371
C109	C	1.022950	-0.262990	-0.636114
C110	C	1.522950	0.237010	-0.136114
C111	C	1.070284	-0.303244	-0.668994
C112	C	1.570284	0.196756	-0.168994
C113	C	1.117612	-0.343525	-0.636125
C114	C	1.617612	0.156475	-0.136125
C115	C	1.117608	-0.343540	-0.570384
C116	C	1.617608	0.156460	-0.070384
N117	N	1.135112	-0.308056	-0.772237
N118	N	1.635112	0.191944	-0.272237
N119	N	1.135114	-0.308039	-0.834688
N120	N	1.635114	0.191961	-0.334688
C121	C	1.070298	-0.303202	-0.867068
C122	C	1.570298	0.196798	-0.367068
N123	N	1.005479	-0.298373	-0.834638
N124	N	1.505479	0.201627	-0.334638
N125	N	1.005478	-0.298387	-0.772180
N126	N	1.505478	0.201613	-0.272180
C127	C	1.070294	-0.303233	-0.740279
C128	C	1.570294	0.196767	-0.240279
C129	C	1.022967	-0.262915	-0.971214
C130	C	1.522967	0.237085	-0.471214
C131	C	1.022963	-0.262908	-1.036958
C132	C	1.522963	0.237092	-0.536958
C133	C	1.117632	-0.343439	-1.036968
C134	C	1.617632	0.156561	-0.536968
C135	C	1.117629	-0.343450	-0.971226
C136	C	1.617629	0.156550	-0.471226
C137	C	1.070298	-0.303184	-0.938353
C138	C	1.570298	0.196816	-0.438353
C139	C	1.070179	-0.303324	-0.139801
C140	C	1.570179	0.196676	0.360199
C141	C	1.070298	-0.303163	-0.069833
C142	C	1.570298	0.196837	0.430167
H143	H	0.507980	-0.383660	-0.236161
H144	H	1.007980	0.116340	0.263839
N145	N	1.168665	-0.386938	-0.671590
N146	N	1.668665	0.113062	-0.171590
H147	H	1.221585	-0.377174	-0.660172
H148	H	1.721585	0.122826	-0.160172
H149	H	1.157066	-0.431899	-0.660121
H150	H	1.657066	0.068101	-0.160121
N151	N	1.168652	-0.386979	-0.534937
N152	N	1.668652	0.113021	-0.034937
H153	H	1.198637	-0.412480	-0.565740
H154	H	1.698637	0.087520	-0.065740
H155	H	1.202942	-0.361366	-0.507684
H156	H	1.702942	0.138634	-0.007684
H157	H	1.156089	-0.542950	-0.230355
H158	H	1.656089	-0.042950	0.269645
H159	H	0.984213	-0.662236	-0.376314
H160	H	1.484213	-0.162236	0.123686
N161	N	0.971900	-0.219585	-0.534909
N162	N	1.471900	0.280415	-0.034909
H163	H	1.002018	-0.190426	-0.507652
H164	H	1.502018	0.309574	-0.007652
H165	H	0.941925	-0.194110	-0.565739
H166	H	1.441925	0.305890	-0.065739
H167	H	0.984421	-0.230115	-1.063712
H168	H	1.484421	0.269885	-0.563712
N169	N	0.971908	-0.219498	-0.935755
N170	N	1.471908	0.280502	-0.435755
H171	H	0.979090	-0.225615	-0.889121
H172	H	1.479090	0.274385	-0.389121
H173	H	0.983465	-0.174539	-0.947267
H174	H	1.483465	0.325461	-0.447267
N175	N	0.641997	-0.388905	-0.221381
N176	N	1.141997	0.111095	0.278619
H177	H	0.674992	-0.354782	-0.204115
H178	H	1.174992	0.145218	0.295885
H179	H	0.598877	-0.395666	-0.192026
H180	H	1.098877	0.104334	0.307974
H181	H	0.984333	-0.943805	-0.376364
H182	H	1.484333	-0.443805	0.123636
H183	H	0.984160	-0.542965	-0.376301
H184	H	1.484160	-0.042965	0.123699
N185	N	0.500441	-0.189134	-0.269854
N186	N	1.000441	0.310866	0.230146
H187	H	0.544005	-0.160752	-0.278465
H188	H	1.044005	0.339248	0.221535
H189	H	0.467517	-0.190643	-0.308099
H190	H	0.967517	0.309357	0.191901
N191	N	1.168682	-0.386862	-1.072421
N192	N	1.668682	0.113138	-0.572421
H193	H	1.161502	-0.380744	-1.119055
H194	H	1.661502	0.119256	-0.619055
H195	H	1.221579	-0.377076	-1.060955
H196	H	1.721579	0.122924	-0.560955
N197	N	1.168675	-0.386884	-0.935778
N198	N	1.668675	0.113116	-0.435778
H199	H	1.198662	-0.412384	-0.966581
H200	H	1.698662	0.087616	-0.466581
H201	H	1.202963	-0.361271	-0.908522
H202	H	1.702963	0.138729	-0.408522
N203	N	0.971905	-0.219553	-0.671567
N204	N	1.471905	0.280447	-0.171567
H205	H	0.941919	-0.194049	-0.640767
H206	H	1.441919	0.305951	-0.140767
H207	H	1.002079	-0.190423	-0.698863
H208	H	1.502079	0.309577	-0.198863
H209	H	0.507278	-0.407019	-0.318593
H210	H	1.007278	0.092981	0.181407
H211	H	0.506428	-0.238983	-0.386499
H212	H	1.006428	0.261017	0.113501
H213	H	1.156270	-0.943789	-0.230426
H214	H	1.656270	-0.443789	0.269574
N215	N	1.168850	-1.071743	-0.219823
N216	N	1.668850	-0.571743	0.280177
H217	H	1.161684	-1.118378	-0.225936
H218	H	1.661684	-0.618378	0.274064
H219	H	1.221731	-1.060206	-0.229659
H220	H	1.721731	-0.560206	0.270341
N221	N	0.971868	-1.071757	-0.387023
N222	N	1.471868	-0.571757	0.112977
H223	H	0.979078	-1.118391	-0.380931
H224	H	1.479078	-0.618391	0.119069
H225	H	0.918978	-1.060311	-0.377180
H226	H	1.418978	-0.560311	0.122820
H227	H	0.634356	-0.205427	-0.266135
H228	H	1.134356	0.294573	0.233865
N229	N	0.498880	-0.268880	-0.189992
N230	N	0.998880	0.231120	0.310008
H231	H	0.465658	-0.306955	-0.191761
H232	H	0.965658	0.193045	0.308239
H233	H	0.541721	-0.277540	-0.160888
H234	H	1.041721	0.222460	0.339112
H235	H	0.635059	-0.318025	-0.407644
H236	H	1.135059	0.181975	0.092356
N237	N	0.640402	-0.269356	-0.189359
N238	N	1.140402	0.230644	0.310641
H239	H	0.621515	-0.311998	-0.176140
H240	H	1.121515	0.188002	0.323860
H241	H	0.696194	-0.269466	-0.188994
H242	H	1.196194	0.230534	0.311006
H243	H	1.156147	-0.662215	-0.230381
H244	H	1.656147	-0.162215	0.269619
N245	N	0.640591	-0.419173	-0.330459
N246	N	1.140591	0.080827	0.169541
H247	H	0.673314	-0.399059	-0.363219
H248	H	1.173314	0.100941	0.136781
H249	H	0.669598	-0.452016	-0.306749
H250	H	1.169598	0.047984	0.193251
H251	H	0.633994	-0.236221	-0.383323
H252	H	1.133994	0.263779	0.116677
H253	H	0.507746	-0.322097	-0.406076
H254	H	1.007746	0.177903	0.093924
