data_functionalizedCrystal
_audit_creation_method	'MofGen! by Chris Wilmer'
_symmetry_space_group_name_H-M	'P1'
_symmetry_Int_Tables_number	1
_symmetry_cell_setting	triclinic
loop_
_symmetry_equiv_pos_as_xyz
  x,y,z
_cell_length_a	16.959455
_cell_length_b	29.839131
_cell_length_c	16.959447
_cell_angle_alpha	90.033915
_cell_angle_beta	90.014322
_cell_angle_gamma	90.038367
loop_
_atom_site_label
_atom_site_type_symbol
_atom_site_fract_x
_atom_site_fract_y
_atom_site_fract_z
Zn1	Zn	1.208267	-0.178881	0.446889
Zn2	Zn	1.541600	0.154452	0.780222
Zn3	Zn	1.874933	0.487786	1.113556
Zn4	Zn	1.208140	-0.254014	0.314702
Zn5	Zn	1.541473	0.079319	0.648035
Zn6	Zn	1.874806	0.412652	0.981369
Zn7	Zn	1.076095	-0.178895	0.314726
Zn8	Zn	1.409428	0.154438	0.648060
Zn9	Zn	1.742762	0.487772	0.981393
Zn10	Zn	1.076010	-0.253981	0.446841
Zn11	Zn	1.409344	0.079353	0.780174
Zn12	Zn	1.742677	0.412686	1.113507
O13	O	1.142128	-0.216443	0.380790
O14	O	1.475461	0.116890	0.714123
O15	O	1.808795	0.450224	1.047456
O16	O	1.318861	-0.188856	0.429364
O17	O	1.652194	0.144478	0.762697
O18	O	1.985527	0.477811	1.096031
O19	O	1.190606	-0.244070	0.204094
O20	O	1.523939	0.089264	0.537428
O21	O	1.857273	0.422597	0.870761
O22	O	1.093716	-0.116026	0.332288
O23	O	1.427050	0.217307	0.665622
O24	O	1.760383	0.550641	0.998955
O25	O	1.318767	-0.244056	0.332247
O26	O	1.652101	0.089277	0.665580
O27	O	1.985434	0.422611	0.998914
O28	O	1.190822	-0.116016	0.429388
O29	O	1.524155	0.217318	0.762721
O30	O	1.857489	0.550651	1.096054
O31	O	1.093593	-0.188880	0.204112
O32	O	1.426927	0.144453	0.537446
O33	O	1.760260	0.477787	0.870779
O34	O	0.965473	-0.188847	0.332242
O35	O	1.298806	0.144486	0.665575
O36	O	1.632140	0.477819	0.998908
O37	O	1.093572	-0.243999	0.557458
O38	O	1.426905	0.089335	0.890791
O39	O	1.760239	0.422668	1.224125
O40	O	0.965411	-0.244012	0.429305
O41	O	1.298744	0.089321	0.762639
O42	O	1.632077	0.422654	1.095972
O43	O	1.190740	-0.188823	0.557493
O44	O	1.524073	0.144510	0.890827
O45	O	1.857407	0.477843	1.224160
O46	O	1.190524	-0.316877	0.332200
O47	O	1.523857	0.016456	0.665533
O48	O	1.857191	0.349790	0.998867
O49	O	1.093449	-0.316852	0.429282
O50	O	1.426783	0.016481	0.762615
O51	O	1.760116	0.349814	1.095948
C52	C	0.936762	-0.216428	0.380771
C53	C	1.270095	0.116905	0.714105
C54	C	1.603428	0.450239	1.047438
C55	C	0.848905	-0.216433	0.380782
C56	C	1.182238	0.116901	0.714116
C57	C	1.515572	0.450234	1.047449
C58	C	0.477437	-0.187695	0.330354
C59	C	0.810771	0.145638	0.663687
C60	C	1.144104	0.478972	0.997021
C61	C	0.477421	-0.245228	0.431270
C62	C	0.810755	0.088106	0.764604
C63	C	1.144088	0.421439	1.097937
C64	C	0.559967	-0.245221	0.431265
C65	C	0.893301	0.088112	0.764599
C66	C	1.226634	0.421445	1.097932
C67	C	0.601252	-0.216452	0.380803
C68	C	0.934585	0.116882	0.714137
C69	C	1.267919	0.450215	1.047470
C70	C	0.559991	-0.187688	0.330346
C71	C	0.893324	0.145645	0.663679
C72	C	1.226658	0.478978	0.997013
C73	C	0.601235	-0.273987	0.481716
C74	C	0.934568	0.059346	0.815050
C75	C	1.267901	0.392679	1.148383
C76	C	0.683786	-0.273982	0.481713
C77	C	1.017119	0.059351	0.815046
C78	C	1.350452	0.392684	1.148379
C79	C	0.725072	-0.245210	0.431254
C80	C	1.058405	0.088123	0.764587
C81	C	1.391739	0.421457	1.097921
C82	C	0.683806	-0.216445	0.380795
C83	C	1.017139	0.116888	0.714129
C84	C	1.350472	0.450221	1.047462
C85	C	0.725090	-0.187676	0.330333
C86	C	1.058424	0.145658	0.663666
C87	C	1.391757	0.478991	0.997000
C88	C	0.683826	-0.158908	0.279878
C89	C	1.017159	0.174425	0.613211
C90	C	1.350492	0.507758	0.946544
C91	C	0.601277	-0.158916	0.279887
C92	C	0.934610	0.174417	0.613220
C93	C	1.267944	0.507750	0.946554
C94	C	0.807620	-0.245202	0.431245
C95	C	1.140954	0.088131	0.764578
C96	C	1.474287	0.421464	1.097911
C97	C	0.807644	-0.187669	0.330325
C98	C	1.140977	0.145664	0.663658
C99	C	1.474311	0.478997	0.996992
C100	C	1.141985	-0.333165	0.380750
C101	C	1.475319	0.000168	0.714084
C102	C	1.808652	0.333501	1.047417
C103	C	1.141996	-0.383100	0.380760
C104	C	1.475330	-0.049767	0.714093
C105	C	1.808663	0.283567	1.047427
C106	C	1.192767	-0.692743	0.330313
C107	C	1.526100	-0.359410	0.663646
C108	C	1.859433	-0.026077	0.996980
C109	C	1.192864	-0.880416	0.330344
C110	C	1.526198	-0.547083	0.663677
C111	C	1.859531	-0.213750	0.997010
O112	O	1.235918	-0.904681	0.287422
O113	O	1.569251	-0.571348	0.620755
O114	O	1.902584	-0.238015	0.954088
N115	N	1.142292	-0.903885	0.380849
N116	N	1.475625	-0.570552	0.714182
N117	N	1.808958	-0.237218	1.047516
C118	C	1.091695	-0.880432	0.431354
C119	C	1.425028	-0.547099	0.764688
C120	C	1.758362	-0.213766	1.098021
O121	O	1.048688	-0.904700	0.474319
O122	O	1.382021	-0.571366	0.807652
O123	O	1.715355	-0.238033	1.140985
C124	C	1.091602	-0.692760	0.431327
C125	C	1.424935	-0.359427	0.764660
C126	C	1.758269	-0.026093	1.097994
C127	C	1.142172	-0.669294	0.380812
C128	C	1.475505	-0.335961	0.714146
C129	C	1.808839	-0.002627	1.047479
C130	C	1.243333	-0.669277	0.279803
C131	C	1.576667	-0.335944	0.613137
C132	C	1.910000	-0.002611	0.946470
C133	C	1.243305	-0.622362	0.279793
C134	C	1.576639	-0.289029	0.613126
C135	C	1.909972	0.044305	0.946460
C136	C	1.192711	-0.598913	0.330293
C137	C	1.526044	-0.265579	0.663626
C138	C	1.859377	0.067754	0.996959
C139	C	1.142144	-0.622379	0.380802
C140	C	1.475478	-0.289045	0.714136
C141	C	1.808811	0.044288	1.047469
C142	C	1.041010	-0.669308	0.481835
C143	C	1.374343	-0.335975	0.815169
C144	C	1.707676	-0.002641	1.148502
C145	C	1.040992	-0.622387	0.481826
C146	C	1.374326	-0.289054	0.815159
C147	C	1.707659	0.044280	1.148492
C148	C	1.091563	-0.598921	0.431311
C149	C	1.424896	-0.265588	0.764644
C150	C	1.758229	0.067746	1.097978
C151	C	1.091522	-0.552014	0.431292
C152	C	1.424855	-0.218680	0.764625
C153	C	1.758188	0.114653	1.097958
N154	N	1.142094	-0.528545	0.380786
N155	N	1.475427	-0.195212	0.714119
N156	N	1.808761	0.138121	1.047453
C157	C	1.192689	-0.551995	0.330287
C158	C	1.526022	-0.218661	0.663620
C159	C	1.859355	0.114672	0.996953
C160	C	1.091746	-0.978963	0.431364
C161	C	1.425080	-0.645629	0.764697
C162	C	1.758413	-0.312296	1.098031
C163	C	1.091768	-1.025881	0.431370
C164	C	1.425102	-0.692547	0.764703
C165	C	1.758435	-0.359214	1.098036
C166	C	1.192939	-1.025862	0.330360
C167	C	1.526272	-0.692528	0.663693
C168	C	1.859606	-0.359195	0.997027
C169	C	1.192912	-0.978943	0.330351
C170	C	1.526246	-0.645610	0.663684
C171	C	1.859579	-0.312276	0.997017
C172	C	1.142319	-0.955494	0.380858
C173	C	1.475652	-0.622161	0.714192
C174	C	1.808985	-0.288828	1.047525
C175	C	1.192626	-0.453469	0.330268
C176	C	1.525959	-0.120136	0.663602
C177	C	1.859292	0.213198	0.996935
C178	C	1.192591	-0.406549	0.330260
C179	C	1.525924	-0.073216	0.663594
C180	C	1.859258	0.260117	0.996927
C181	C	1.091424	-0.406572	0.431273
C182	C	1.424757	-0.073239	0.764606
C183	C	1.758090	0.260094	1.097939
C184	C	1.091455	-0.453488	0.431278
C185	C	1.424789	-0.120154	0.764612
C186	C	1.758122	0.213179	1.097945
C187	C	1.142063	-0.476935	0.380773
C188	C	1.475396	-0.143602	0.714107
C189	C	1.808729	0.189732	1.047440
O190	O	1.048497	-0.527720	0.474197
O191	O	1.381830	-0.194386	0.807531
O192	O	1.715164	0.138947	1.140864
O193	O	1.235702	-0.527719	0.287341
O194	O	1.569035	-0.194386	0.620674
O195	O	1.902368	0.138948	0.954008
C196	C	1.192795	-0.739659	0.330323
C197	C	1.526128	-0.406326	0.663656
C198	C	1.859461	-0.072992	0.996990
C199	C	1.142228	-0.763125	0.380833
C200	C	1.475561	-0.429792	0.714166
C201	C	1.808895	-0.096458	1.047500
C202	C	1.091633	-0.739675	0.431332
C203	C	1.424967	-0.406342	0.764666
C204	C	1.758300	-0.073009	1.097999
C205	C	1.142250	-0.810043	0.380839
C206	C	1.475583	-0.476709	0.714172
C207	C	1.808917	-0.143376	1.047506
C208	C	1.192845	-0.833492	0.330339
C209	C	1.526178	-0.500159	0.663673
C210	C	1.859511	-0.166825	0.997006
C211	C	1.243417	-0.810024	0.279834
C212	C	1.576750	-0.476690	0.613167
C213	C	1.910084	-0.143357	0.946501
C214	C	1.243389	-0.763108	0.279824
C215	C	1.576723	-0.429775	0.613157
C216	C	1.910056	-0.096442	0.946490
C217	C	1.041061	-0.763144	0.481838
C218	C	1.374394	-0.429811	0.815171
C219	C	1.707728	-0.096477	1.148505
C220	C	1.041092	-0.810059	0.481843
C221	C	1.374426	-0.476726	0.815177
C222	C	1.707759	-0.143393	1.148510
C223	C	1.091687	-0.833509	0.431344
C224	C	1.425020	-0.500175	0.764677
C225	C	1.758354	-0.166842	1.098010
C226	C	1.348296	-0.216458	0.380808
C227	C	1.681629	0.116875	0.714141
C228	C	2.014963	0.450209	1.047475
C229	C	1.436153	-0.216465	0.380816
C230	C	1.769486	0.116869	0.714149
C231	C	2.102819	0.450202	1.047483
C232	C	1.142161	-0.216406	0.586958
C233	C	1.475494	0.116928	0.920291
C234	C	1.808827	0.450261	1.253624
C235	C	1.142175	-0.216390	0.674814
C236	C	1.475508	0.116944	1.008148
C237	C	1.808842	0.450277	1.341481
C238	C	1.142293	-0.099264	0.380846
C239	C	1.475626	0.234069	0.714179
C240	C	1.808959	0.567402	1.047513
C241	C	1.142363	-0.049330	0.380870
C242	C	1.475696	0.284003	0.714204
C243	C	1.809030	0.617337	1.047537
C244	C	1.142141	-0.216447	0.175423
C245	C	1.475474	0.116886	0.508757
C246	C	1.808807	0.450219	0.842090
C247	C	1.142280	-0.216337	0.087567
C248	C	1.475613	0.116997	0.420900
C249	C	1.808946	0.450330	0.754234
C250	C	1.091678	-0.245070	1.046274
C251	C	1.425012	0.088264	1.379608
C252	C	1.758345	0.421597	1.712941
C253	C	1.192860	-0.187615	1.046306
C254	C	1.526194	0.145718	1.379640
C255	C	1.859527	0.479052	1.712973
C256	C	1.192839	-0.187625	0.963760
C257	C	1.526173	0.145709	1.297094
C258	C	1.859506	0.479042	1.630427
C259	C	1.142238	-0.216358	0.922468
C260	C	1.475571	0.116976	1.255801
C261	C	1.808904	0.450309	1.589134
C262	C	1.091657	-0.245081	0.963721
C263	C	1.424991	0.088252	1.297054
C264	C	1.758324	0.421586	1.630387
C265	C	1.243424	-0.158905	0.922501
C266	C	1.576758	0.174428	1.255834
C267	C	1.910091	0.507762	1.589168
C268	C	1.243406	-0.158914	0.839950
C269	C	1.576739	0.174420	1.173283
C270	C	1.910073	0.507753	1.506617
C271	C	1.192800	-0.187645	0.798656
C272	C	1.526133	0.145689	1.131989
C273	C	1.859467	0.479022	1.465322
C274	C	1.142217	-0.216369	0.839914
C275	C	1.475550	0.116964	1.173247
C276	C	1.808884	0.450298	1.506581
C277	C	1.091615	-0.245102	0.798621
C278	C	1.424949	0.088231	1.131955
C279	C	1.758282	0.421565	1.465288
C280	C	1.041028	-0.273824	0.839878
C281	C	1.374361	0.059509	1.173211
C282	C	1.707694	0.392842	1.506545
C283	C	1.041051	-0.273812	0.922426
C284	C	1.374385	0.059521	1.255760
C285	C	1.707718	0.392855	1.589093
C286	C	1.192776	-0.187657	0.716107
C287	C	1.526110	0.145676	1.049441
C288	C	1.859443	0.479010	1.382774
C289	C	1.091594	-0.245113	0.716068
C290	C	1.424928	0.088220	1.049401
C291	C	1.758261	0.421553	1.382734
H292	H	0.567615	-0.297413	0.522794
H293	H	0.900948	0.035920	0.856127
H294	H	1.234281	0.369254	1.189461
H295	H	1.233771	-0.387445	0.289123
H296	H	1.567104	-0.054111	0.622456
H297	H	1.900438	0.279222	0.955789
H298	H	1.284611	-0.829124	0.238713
H299	H	1.617944	-0.495791	0.572046
H300	H	1.951278	-0.162458	0.905380
H301	H	1.234091	-0.959840	0.289218
H302	H	1.567424	-0.626506	0.622551
H303	H	1.900758	-0.293173	0.955885
H304	H	1.233837	-0.472554	0.289144
H305	H	1.567170	-0.139221	0.622478
H306	H	1.900503	0.194113	0.955811
H307	H	1.050381	-0.268507	0.682453
H308	H	1.383714	0.064826	1.015786
H309	H	1.717048	0.398159	1.349119
H310	H	1.284486	-0.603259	0.238662
H311	H	1.617819	-0.269925	0.571996
H312	H	1.951153	0.063408	0.905329
H313	H	1.284538	-0.688365	0.238680
H314	H	1.617871	-0.355032	0.572014
H315	H	1.951204	-0.021698	0.905347
H316	H	0.999826	-0.688406	0.522966
H317	H	1.333160	-0.355073	0.856299
H318	H	1.666493	-0.021739	1.189633
H319	H	1.234135	-1.044962	0.289242
H320	H	1.567469	-0.711629	0.622575
H321	H	1.900802	-0.378295	0.955908
H322	H	0.999832	-0.297221	0.806247
H323	H	1.333165	0.036113	1.139580
H324	H	1.666498	0.369446	1.472913
H325	H	1.233966	-0.164273	0.682520
H326	H	1.567299	0.169061	1.015853
H327	H	1.900633	0.502394	1.349186
H328	H	0.999868	-0.297198	0.956025
H329	H	1.333202	0.036136	1.289358
H330	H	1.666535	0.369469	1.622692
H331	H	0.999862	-0.744055	0.522962
H332	H	1.333195	-0.410722	0.856295
H333	H	1.666528	-0.077388	1.189628
H334	H	1.284597	-0.135526	0.806366
H335	H	1.617930	0.197807	1.139699
H336	H	1.951264	0.531141	1.473032
H337	H	0.841252	-0.164238	0.289237
H338	H	1.174585	0.169095	0.622570
H339	H	1.507919	0.502428	0.955903
H340	H	0.717376	-0.297406	0.522797
H341	H	1.050710	0.035927	0.856130
H342	H	1.384043	0.369260	1.189464
H343	H	1.050582	-1.044983	0.472496
H344	H	1.383915	-0.711649	0.805830
H345	H	1.717248	-0.378316	1.139163
H346	H	0.999905	-0.829161	0.522978
H347	H	1.333239	-0.495828	0.856311
H348	H	1.666572	-0.162495	1.189644
H349	H	1.050545	-0.959874	0.472494
H350	H	1.383878	-0.626541	0.805828
H351	H	1.717212	-0.293207	1.139161
H352	H	1.284568	-0.744006	0.238690
H353	H	1.617902	-0.410672	0.572024
H354	H	1.951235	-0.077339	0.905357
H355	H	0.999794	-0.603298	0.522958
H356	H	1.333127	-0.269964	0.856291
H357	H	1.666461	0.063369	1.189624
H358	H	1.050279	-0.472595	0.472414
H359	H	1.383613	-0.139261	0.805747
H360	H	1.716946	0.194072	1.139080
H361	H	1.050228	-0.387473	0.472387
H362	H	1.383561	-0.054139	0.805720
H363	H	1.716894	0.279194	1.139053
H364	H	1.050489	-0.268453	1.079869
H365	H	1.383822	0.064880	1.413202
H366	H	1.717156	0.398213	1.746536
H367	H	1.234062	-0.164225	1.079932
H368	H	1.567395	0.169109	1.413265
H369	H	1.900729	0.502442	1.746598
H370	H	1.284626	-0.135515	0.956128
H371	H	1.617959	0.197818	1.289461
H372	H	1.951293	0.531152	1.622794
H373	H	0.717450	-0.135486	0.238788
H374	H	1.050784	0.197847	0.572121
H375	H	1.384117	0.531181	0.905455
H376	H	0.567672	-0.135496	0.238808
H377	H	0.901005	0.197837	0.572141
H378	H	1.234339	0.531171	0.905475
H379	H	0.443836	-0.164272	0.289277
H380	H	0.777169	0.169061	0.622610
H381	H	1.110503	0.502395	0.955943
H382	H	0.443803	-0.268653	0.472350
H383	H	0.777136	0.064680	0.805683
H384	H	1.110469	0.398013	1.139016
H385	H	0.841214	-0.268625	0.472322
H386	H	1.174548	0.064708	0.805655
H387	H	1.507881	0.398041	1.138989
