data_functionalizedCrystal
_audit_creation_method	'MofGen! by Chris Wilmer'
_symmetry_space_group_name_H-M	'P1'
_symmetry_Int_Tables_number	1
_symmetry_cell_setting	triclinic
loop_
_symmetry_equiv_pos_as_xyz
  x,y,z
_cell_length_a	10.540535
_cell_length_b	11.804917
_cell_length_c	13.339070
_cell_angle_alpha	74.891556
_cell_angle_beta	79.923532
_cell_angle_gamma	78.034349
loop_
_atom_site_label
_atom_site_type_symbol
_atom_site_fract_x
_atom_site_fract_y
_atom_site_fract_z
O1	O	1.716108	0.098949	-0.163170
O2	O	1.351282	0.098965	-0.176644
O3	O	1.491826	0.098955	-0.022341
O4	O	1.575564	0.098958	-0.317473
O5	O	1.528818	-0.099085	0.018223
O6	O	1.388275	-0.099076	-0.136080
O7	O	1.753100	-0.099092	-0.122606
Cu8	Cu	1.574065	-0.117166	-0.125639
Cu9	Cu	1.530317	0.117039	-0.173611
O10	O	1.612557	-0.099082	-0.276909
C11	C	1.322131	-0.000053	-0.155354
C12	C	1.180153	-0.000047	-0.152335
N13	N	1.604845	-0.281894	-0.091898
C14	C	1.678748	-0.344209	-0.010823
C15	C	1.702023	-0.468861	0.014736
C16	C	1.651406	-0.531210	-0.040782
C17	C	1.577509	-0.468895	-0.121864
C18	C	1.554223	-0.344231	-0.147420
C19	C	1.526881	-0.531232	-0.177379
C20	C	1.452984	-0.468917	-0.258460
C21	C	1.429703	-0.344265	-0.284013
C22	C	1.480320	-0.281916	-0.228495
C23	C	1.550167	-0.655896	-0.151822
C24	C	1.425642	-0.655918	-0.288419
C25	C	1.402367	-0.531266	-0.313978
C26	C	1.105083	-0.000053	-0.039675
C27	C	0.957486	-0.000514	-0.036403
C28	C	1.009432	-0.112931	-0.180640
C29	C	1.157030	-0.113014	-0.183020
C30	C	1.115403	0.112203	-0.230790
C31	C	0.967006	0.113674	-0.225881
C32	C	1.782251	-0.000071	-0.143897
C33	C	1.924228	-0.000069	-0.146917
C34	C	1.496176	-0.000063	0.035731
C35	C	1.454011	-0.000056	0.148336
N36	N	1.499545	0.281767	-0.207344
C37	C	1.608206	-0.000061	-0.334982
C38	C	1.650369	-0.000060	-0.447588
C39	C	1.781856	-0.000071	0.510768
C40	C	1.821477	-0.000084	0.404972
C41	C	1.729614	-0.000077	0.340808
C42	C	1.598123	-0.000057	0.382450
C43	C	1.558500	-0.000054	0.488258
C44	C	1.506258	-0.000059	0.318298
C45	C	1.374767	-0.000040	0.359940
C46	C	1.335150	-0.000035	0.465738
C47	C	1.427013	-0.000043	0.529902
C48	C	1.545881	-0.000063	0.212490
C49	C	1.322525	-0.000045	0.189980
C50	C	1.282903	-0.000032	0.295776
H51	H	1.610333	-0.706622	-0.085806
H52	H	0.990511	-0.116809	-0.261148
H53	H	1.247722	-0.000045	0.137738
H54	H	1.129895	0.197778	-0.213164
H55	H	1.762187	-0.519593	0.080752
H56	H	1.670360	-0.632707	-0.019968
H57	H	1.719945	-0.293436	0.034377
H58	H	1.461375	-0.180414	-0.249307
H59	H	1.761882	-0.000088	0.254665
H60	H	1.369520	-0.293528	-0.350026
H61	H	1.342198	-0.480514	-0.379996
H62	H	1.394759	-0.000028	0.616049
H63	H	1.384422	-0.706682	-0.333625
H64	H	0.944088	0.120841	-0.307939
H65	H	0.897887	0.080373	-0.008519
H66	H	1.117190	0.080871	-0.012989
H67	H	1.928537	-0.000102	0.371075
H68	H	0.908708	0.197171	-0.201619
H69	H	1.856639	-0.000087	0.563021
H70	H	1.228083	-0.000028	0.499640
H71	H	1.175841	-0.000017	0.329696
H72	H	1.149138	-0.080870	0.019416
H73	H	0.929158	-0.081897	0.024501
H74	H	1.199936	-0.197705	-0.127287
H75	H	1.209111	-0.117836	-0.264620
H76	H	1.165636	0.113295	-0.313903
H77	H	0.980987	-0.197248	-0.124373
H78	H	1.652942	-0.000079	0.178596
