data_functionalizedCrystal
_audit_creation_method	'MofGen! by Chris Wilmer'
_symmetry_space_group_name_H-M	'P1'
_symmetry_Int_Tables_number	1
_symmetry_cell_setting	triclinic
loop_
_symmetry_equiv_pos_as_xyz
  x,y,z
_cell_length_a	13.897449
_cell_length_b	12.594516
_cell_length_c	12.594509
_cell_angle_alpha	89.972125
_cell_angle_beta	89.980142
_cell_angle_gamma	90.013095
loop_
_atom_site_label
_atom_site_type_symbol
_atom_site_fract_x
_atom_site_fract_y
_atom_site_fract_z
Zn1	Zn	1.474734	-0.423674	-0.601821
Zn2	Zn	1.474647	-0.601684	-0.423844
Zn3	Zn	1.313425	-0.423724	-0.423854
Zn4	Zn	1.313421	-0.601615	-0.601778
O5	O	1.394057	-0.512674	-0.512824
O6	O	1.609704	-0.447295	-0.578225
O7	O	1.453226	-0.578127	-0.274899
O8	O	1.334861	-0.274771	-0.447485
O9	O	1.609640	-0.578079	-0.447466
O10	O	1.453374	-0.274735	-0.578236
O11	O	1.334777	-0.447381	-0.274907
O12	O	1.178443	-0.447313	-0.447443
O13	O	1.334854	-0.577960	-0.750730
O14	O	1.178440	-0.578009	-0.578163
O15	O	1.453370	-0.447228	-0.750761
O16	O	1.453222	-0.750620	-0.447425
O17	O	1.334770	-0.750570	-0.578152
C18	C	1.143442	-0.512660	-0.512800
C19	C	1.036228	-0.512679	-0.512815
C20	C	0.839933	-0.512683	-0.512843
C21	C	0.949166	-0.512678	-0.512824
C22	C	1.394012	-0.789215	-0.512806
C23	C	1.394081	-0.907520	-0.512833
C24	C	1.458582	-0.976763	-0.441806
C25	C	1.482154	-1.047458	-0.538955
C26	C	1.370630	-1.047623	-0.415747
C27	C	1.417698	-0.976658	-0.610033
C28	C	1.306133	-0.976817	-0.486759
C29	C	1.329672	-1.047481	-0.583975
C30	C	1.645650	-0.512689	-0.512849
C31	C	1.752864	-0.512695	-0.512860
C32	C	1.394121	-0.512581	-0.790445
C33	C	1.394149	-0.512541	-0.908751
C34	C	1.394128	-0.235053	-0.512866
C35	C	1.394158	-0.116748	-0.512884
C36	C	1.329708	-0.583606	-0.977987
C37	C	1.417725	-0.609610	-1.048775
C38	C	1.306201	-0.486473	-1.048762
C39	C	1.482212	-0.538596	-0.977981
C40	C	1.370628	-0.415414	-0.977961
C41	C	1.458705	-0.441381	-1.048718
C42	C	1.394048	-0.512690	-0.236283
C43	C	1.394207	-0.512430	-0.117978
H44	H	1.513137	-0.945710	-0.381795
C45	C	1.444662	-0.934730	-0.721013
N46	N	1.464975	-0.903146	-0.804600
H47	H	1.350763	-1.078794	-0.333620
C48	C	1.582752	-0.568457	-0.936158
N49	N	1.658476	-0.590952	-0.904654
H50	H	1.275159	-1.078336	-0.644131
H51	H	1.275256	-0.643797	-0.946931
C52	C	1.532442	-0.360127	-1.090412
N53	N	1.587984	-0.298931	-1.121818
H54	H	1.350676	-0.333346	-0.946833
H55	H	1.437652	-0.691701	-1.079880
C56	C	1.205688	-0.456743	-1.090760
N57	N	1.129979	-0.434358	-1.122388
H58	H	1.556563	-1.078491	-0.561038
H59	H	1.231746	-0.945761	-0.464647
