data_functionalizedCrystal
_audit_creation_method	'MofGen! by Chris Wilmer'
_symmetry_space_group_name_H-M	'P1'
_symmetry_Int_Tables_number	1
_symmetry_cell_setting	triclinic
loop_
_symmetry_equiv_pos_as_xyz
  x,y,z
_cell_length_a	18.215407
_cell_length_b	18.101395
_cell_length_c	18.101390
_cell_angle_alpha	89.968753
_cell_angle_beta	89.982404
_cell_angle_gamma	90.031552
loop_
_atom_site_label
_atom_site_type_symbol
_atom_site_fract_x
_atom_site_fract_y
_atom_site_fract_z
Zn1	Zn	1.125024	-0.294793	-0.418745
Zn2	Zn	1.375024	-0.044793	-0.168745
Zn3	Zn	1.625024	0.205207	0.081255
Zn4	Zn	1.875024	0.455207	0.331255
Zn5	Zn	1.124924	-0.418650	-0.294906
Zn6	Zn	1.374924	-0.168650	-0.044906
Zn7	Zn	1.624924	0.081350	0.205094
Zn8	Zn	1.874924	0.331350	0.455094
Zn9	Zn	1.001961	-0.294828	-0.294917
Zn10	Zn	1.251961	-0.044828	-0.044917
Zn11	Zn	1.501961	0.205172	0.205083
Zn12	Zn	1.751961	0.455172	0.455083
Zn13	Zn	1.001909	-0.418598	-0.418706
Zn14	Zn	1.251909	-0.168598	-0.168706
Zn15	Zn	1.501909	0.081402	0.081294
Zn16	Zn	1.751909	0.331402	0.331294
O17	O	1.063455	-0.356717	-0.356818
O18	O	1.313455	-0.106717	-0.106818
O19	O	1.563455	0.143283	0.143182
O20	O	1.813455	0.393283	0.393182
O21	O	1.227995	-0.311230	-0.402329
O22	O	1.477995	-0.061230	-0.152329
O23	O	1.727995	0.188770	0.097671
O24	O	1.977995	0.438770	0.347671
O25	O	1.108592	-0.402261	-0.191275
O26	O	1.358592	-0.152261	0.058725
O27	O	1.608592	0.097739	0.308725
O28	O	1.858592	0.347739	0.558725
O29	O	1.018350	-0.191190	-0.311363
O30	O	1.268350	0.058810	-0.061363
O31	O	1.518350	0.308810	0.188637
O32	O	1.768350	0.558810	0.438637
O33	O	1.227921	-0.402227	-0.311345
O34	O	1.477921	-0.152227	-0.061345
O35	O	1.727921	0.097773	0.188655
O36	O	1.977921	0.347773	0.438655
O37	O	1.108763	-0.191165	-0.402339
O38	O	1.358763	0.058835	-0.152339
O39	O	1.608763	0.308835	0.097661
O40	O	1.858763	0.558835	0.347661
O41	O	1.018252	-0.311289	-0.191283
O42	O	1.268252	-0.061289	0.058717
O43	O	1.518252	0.188711	0.308717
O44	O	1.768252	0.438711	0.558717
O45	O	0.898970	-0.311239	-0.311326
O46	O	1.148970	-0.061239	-0.061326
O47	O	1.398970	0.188761	0.188674
O48	O	1.648970	0.438761	0.438674
O49	O	1.018261	-0.402139	-0.522344
O50	O	1.268261	-0.152139	-0.272344
O51	O	1.518261	0.097861	-0.022344
O52	O	1.768261	0.347861	0.227656
O53	O	0.898932	-0.402173	-0.402274
O54	O	1.148932	-0.152173	-0.152274
O55	O	1.398932	0.097827	0.097726
O56	O	1.648932	0.347827	0.347726
O57	O	1.108713	-0.311180	-0.522372
O58	O	1.358713	-0.061180	-0.272372
O59	O	1.608713	0.188820	-0.022372
O60	O	1.858713	0.438820	0.227628
O61	O	1.108542	-0.522276	-0.311308
O62	O	1.358542	-0.272276	-0.061308
O63	O	1.608542	-0.022276	0.188692
O64	O	1.858542	0.227724	0.438692
O65	O	1.018163	-0.522238	-0.402263
O66	O	1.268163	-0.272238	-0.152263
O67	O	1.518163	-0.022238	0.097737
O68	O	1.768163	0.227762	0.347737
C69	C	0.872248	-0.356705	-0.356797
C70	C	1.122248	-0.106705	-0.106797
C71	C	1.372248	0.143295	0.143203
C72	C	1.622248	0.393295	0.393203
C73	C	0.790449	-0.356717	-0.356806
C74	C	1.040449	-0.106717	-0.106806
C75	C	1.290449	0.143283	0.143194
C76	C	1.540449	0.393283	0.393194
C77	C	1.063356	-0.549128	-0.356797
C78	C	1.313356	-0.299128	-0.106797
C79	C	1.563356	-0.049128	0.143203
C80	C	1.813356	0.200872	0.393203
C81	C	1.063381	-0.631442	-0.356812
C82	C	1.313381	-0.381442	-0.106812
C83	C	1.563381	-0.131442	0.143188
C84	C	1.813381	0.118558	0.393188
C85	C	0.602255	-0.404141	-0.404103
C86	C	0.852255	-0.154141	-0.154103
C87	C	1.102255	0.095859	0.095897
C88	C	1.352255	0.345859	0.345897
C89	C	0.525396	-0.404143	-0.404112
C90	C	0.775396	-0.154143	-0.154112
C91	C	1.025396	0.095857	0.095888
C92	C	1.275396	0.345857	0.345888
C93	C	0.525406	-0.309307	-0.309551
C94	C	0.775406	-0.059307	-0.059551
C95	C	1.025406	0.190693	0.190449
C96	C	1.275406	0.440693	0.440449
C97	C	0.602264	-0.309302	-0.309546
C98	C	0.852264	-0.059302	-0.059546
C99	C	1.102264	0.190698	0.190454
C100	C	1.352264	0.440698	0.440454
C101	C	0.640686	-0.356723	-0.356821
C102	C	0.890686	-0.106723	-0.106821
C103	C	1.140686	0.143277	0.143179
C104	C	1.390686	0.393277	0.393179
C105	C	0.486970	-0.356731	-0.356835
C106	C	0.736970	-0.106731	-0.106835
C107	C	0.986970	0.143269	0.143165
C108	C	1.236970	0.393269	0.393165
C109	C	0.403636	-0.356733	-0.356844
C110	C	0.653636	-0.106733	-0.106844
C111	C	0.903636	0.143267	0.143156
C112	C	1.153636	0.393267	0.393156
C113	C	0.724025	-0.356720	-0.356812
C114	C	0.974025	-0.106720	-0.106812
C115	C	1.224025	0.143280	0.143188
C116	C	1.474025	0.393280	0.393188
C117	C	1.063543	-0.930533	-0.356852
C118	C	1.313543	-0.680533	-0.106852
C119	C	1.563543	-0.430533	0.143148
C120	C	1.813543	-0.180533	0.393148
C121	C	1.006811	-0.899215	-0.414221
C122	C	1.256811	-0.649215	-0.164221
C123	C	1.506811	-0.399215	0.085779
C124	C	1.756811	-0.149215	0.335779
C125	C	1.006541	-0.813597	-0.414041
C126	C	1.256541	-0.563597	-0.164041
C127	C	1.506541	-0.313597	0.085959
C128	C	1.756541	-0.063597	0.335959
C129	C	1.063463	-0.782150	-0.356833
C130	C	1.313463	-0.532150	-0.106833
C131	C	1.563463	-0.282150	0.143167
C132	C	1.813463	-0.032150	0.393167
C133	C	1.042468	-0.813307	-0.278783
C134	C	1.292468	-0.563307	-0.028783
C135	C	1.542468	-0.313307	0.221217
C136	C	1.792468	-0.063307	0.471217
C137	C	1.042102	-0.898952	-0.279127
C138	C	1.292102	-0.648952	-0.029127
C139	C	1.542102	-0.398952	0.220873
C140	C	1.792102	-0.148952	0.470873
C141	C	1.141394	-0.898875	-0.376846
C142	C	1.391394	-0.648875	-0.126846
C143	C	1.641394	-0.398875	0.123154
C144	C	1.891394	-0.148875	0.373154
C145	C	1.140936	-0.813223	-0.378558
C146	C	1.390936	-0.563223	-0.128558
C147	C	1.640936	-0.313223	0.121442
C148	C	1.890936	-0.063223	0.371442
C149	C	1.063419	-0.698291	-0.356817
C150	C	1.313419	-0.448291	-0.106817
C151	C	1.563419	-0.198291	0.143183
C152	C	1.813419	0.051709	0.393183
C153	C	1.063585	-1.014392	-0.356862
C154	C	1.313585	-0.764392	-0.106862
C155	C	1.563585	-0.514392	0.143138
C156	C	1.813585	-0.264392	0.393138
C157	C	1.255407	-0.356731	-0.356840
C158	C	1.505407	-0.106731	-0.106840
C159	C	1.755407	0.143269	0.143160
C160	C	2.005407	0.393269	0.393160
C161	C	1.337206	-0.356736	-0.356850
C162	C	1.587206	-0.106736	-0.106850
C163	C	1.837206	0.143264	0.143150
C164	C	2.087206	0.393264	0.393150
C165	C	1.063492	-0.356650	-0.549980
C166	C	1.313492	-0.106650	-0.299980
C167	C	1.563492	0.143350	-0.049980
C168	C	1.813492	0.393350	0.200020
C169	C	1.063508	-0.356621	-0.632295
C170	C	1.313508	-0.106621	-0.382295
C171	C	1.563508	0.143379	-0.132295
C172	C	1.813508	0.393379	0.117705
C173	C	1.063573	-0.163555	-0.356857
C174	C	1.313573	0.086445	-0.106857
C175	C	1.563573	0.336445	0.143143
C176	C	1.813573	0.586445	0.393143
C177	C	1.063624	-0.081241	-0.356873
C178	C	1.313624	0.168759	-0.106873
C179	C	1.563624	0.418759	0.143127
C180	C	1.813624	0.668759	0.393127
C181	C	1.063534	-0.356598	-0.783003
C182	C	1.313534	-0.106598	-0.533003
C183	C	1.563534	0.143402	-0.283003
C184	C	1.813534	0.393402	-0.033003
C185	C	1.120446	-0.299364	-0.814375
C186	C	1.370446	-0.049364	-0.564375
C187	C	1.620446	0.200636	-0.314375
C188	C	1.870446	0.450636	-0.064375
C189	C	1.120684	-0.299519	-0.899993
C190	C	1.370684	-0.049519	-0.649993
C191	C	1.620684	0.200481	-0.399993
C192	C	1.870684	0.450481	-0.149993
C193	C	1.063560	-0.356574	-0.931386
C194	C	1.313560	-0.106574	-0.681386
C195	C	1.563560	0.143426	-0.431386
C196	C	1.813560	0.393426	-0.181386
C197	C	1.084305	-0.434685	-0.900277
C198	C	1.334305	-0.184685	-0.650277
C199	C	1.584305	0.065315	-0.400277
C200	C	1.834305	0.315315	-0.150277
C201	C	1.084703	-0.434368	-0.814633
C202	C	1.334703	-0.184368	-0.564633
C203	C	1.584703	0.065632	-0.314633
C204	C	1.834703	0.315632	-0.064633
C205	C	0.985739	-0.336399	-0.814560
C206	C	1.235739	-0.086399	-0.564560
C207	C	1.485739	0.163601	-0.314560
C208	C	1.735739	0.413601	-0.064560
C209	C	0.986171	-0.334663	-0.900211
C210	C	1.236171	-0.084663	-0.650211
C211	C	1.486171	0.165337	-0.400211
C212	C	1.736171	0.415337	-0.150211
C213	C	1.063573	-0.356565	-1.015245
C214	C	1.313573	-0.106565	-0.765245
C215	C	1.563573	0.143435	-0.515245
C216	C	1.813573	0.393435	-0.265245
C217	C	1.063522	-0.356612	-0.699144
C218	C	1.313522	-0.106612	-0.449144
C219	C	1.563522	0.143388	-0.199144
C220	C	1.813522	0.393388	0.050856
C221	C	1.063460	-0.356731	-0.164408
C222	C	1.313460	-0.106731	0.085592
C223	C	1.563460	0.143269	0.335592
C224	C	1.813460	0.393269	0.585592
C225	C	1.063586	-0.356551	-0.082094
C226	C	1.313586	-0.106551	0.167906
C227	C	1.563586	0.143449	0.417906
C228	C	1.813586	0.393449	0.667906
H229	H	0.633536	-0.442752	-0.442599
H230	H	0.883536	-0.192752	-0.192599
H231	H	1.133536	0.057248	0.057401
H232	H	1.383536	0.307248	0.307401
H233	H	0.633555	-0.270684	-0.271043
H234	H	0.883555	-0.020684	-0.021043
H235	H	1.133555	0.229316	0.228957
H236	H	1.383555	0.479316	0.478957
H237	H	1.044130	-0.478488	-0.920608
H238	H	1.294130	-0.228488	-0.670608
H239	H	1.544130	0.021512	-0.420608
H240	H	1.794130	0.271512	-0.170608
H241	H	1.019816	-0.919758	-0.472281
H242	H	1.269816	-0.669758	-0.222281
H243	H	1.519816	-0.419758	0.027719
H244	H	1.769816	-0.169758	0.277719
H245	H	1.160535	-0.920419	-0.432790
H246	H	1.410535	-0.670419	-0.182790
H247	H	1.660535	-0.420419	0.067210
H248	H	1.910535	-0.170419	0.317210
H249	H	1.082489	-0.792940	-0.234874
H250	H	1.332489	-0.542940	0.015126
H251	H	1.582489	-0.292940	0.265126
H252	H	1.832489	-0.042940	0.515126
H253	H	0.986162	-0.791924	-0.261543
H254	H	1.236162	-0.541924	-0.011543
H255	H	1.486162	-0.291924	0.238457
H256	H	1.736162	-0.041924	0.488457
H257	H	1.019676	-0.792529	-0.471914
H258	H	1.269676	-0.542529	-0.221914
H259	H	1.519676	-0.292529	0.028086
H260	H	1.769676	-0.042529	0.278086
H261	H	0.494109	-0.442754	-0.442615
H262	H	0.744109	-0.192754	-0.192615
H263	H	0.994109	0.057246	0.057385
H264	H	1.244109	0.307246	0.307385
H265	H	0.949457	-0.920802	-0.401143
H266	H	1.199457	-0.670802	-0.151143
H267	H	1.449457	-0.420802	0.098857
H268	H	1.699457	-0.170802	0.348857
H269	H	0.494114	-0.270700	-0.271060
H270	H	0.744114	-0.020700	-0.021060
H271	H	0.994114	0.229300	0.228940
H272	H	1.244114	0.479300	0.478940
H273	H	0.985194	-0.918997	-0.262190
H274	H	1.235194	-0.668997	-0.012190
H275	H	1.485194	-0.418997	0.237810
H276	H	1.735194	-0.168997	0.487810
H277	H	0.948836	-0.793175	-0.400797
H278	H	1.198836	-0.543175	-0.150797
H279	H	1.448836	-0.293175	0.099203
H280	H	1.698836	-0.043175	0.349203
H281	H	1.156768	-0.792856	-0.435998
H282	H	1.406768	-0.542856	-0.185998
H283	H	1.656768	-0.292856	0.064002
H284	H	1.906768	-0.042856	0.314002
H285	H	1.081631	-0.919672	-0.234925
H286	H	1.331631	-0.669672	0.015075
H287	H	1.581631	-0.419672	0.265075
H288	H	1.831631	-0.169672	0.515075
H289	H	1.185440	-0.791813	-0.339819
H290	H	1.435440	-0.541813	-0.089819
H291	H	1.685440	-0.291813	0.160181
H292	H	1.935440	-0.041813	0.410181
H293	H	1.183661	-0.919127	-0.335062
H294	H	1.433661	-0.669127	-0.085062
H295	H	1.683661	-0.419127	0.164938
H296	H	1.933661	-0.169127	0.414938
H297	H	1.107723	-0.241610	-0.921028
H298	H	1.357723	0.008390	-0.671028
H299	H	1.607723	0.258390	-0.421028
H300	H	1.857723	0.508390	-0.171028
H301	H	1.107641	-0.241276	-0.793801
H302	H	1.357641	0.008724	-0.543801
H303	H	1.607641	0.258724	-0.293801
H304	H	1.857641	0.508724	-0.043801
H305	H	1.177764	-0.312592	-0.792861
H306	H	1.427764	-0.062592	-0.542861
H307	H	1.677764	0.187408	-0.292861
H308	H	1.927764	0.437408	-0.042861
H309	H	1.178337	-0.312903	-0.920490
H310	H	1.428337	-0.062903	-0.670490
H311	H	1.678337	0.187097	-0.420490
H312	H	1.928337	0.437097	-0.170490
H313	H	1.141562	-0.451454	-0.794663
H314	H	1.391562	-0.201454	-0.544663
H315	H	1.641562	0.048546	-0.294663
H316	H	1.891562	0.298546	-0.044663
H317	H	1.045022	-0.478464	-0.793877
H318	H	1.295022	-0.228464	-0.543877
H319	H	1.545022	0.021536	-0.293877
H320	H	1.795022	0.271536	-0.043877
H321	H	0.970522	-0.277179	-0.920546
H322	H	1.220522	-0.027179	-0.670546
H323	H	1.470522	0.222821	-0.420546
H324	H	1.720522	0.472821	-0.170546
H325	H	1.140536	-0.452070	-0.921751
H326	H	1.390536	-0.202070	-0.671751
H327	H	1.640536	0.047930	-0.421751
H328	H	1.890536	0.297930	-0.171751
H329	H	0.966786	-0.280419	-0.792965
H330	H	1.216786	-0.030419	-0.542965
H331	H	1.466786	0.219581	-0.292965
H332	H	1.716786	0.469581	-0.042965
H333	H	0.941530	-0.373283	-0.921578
H334	H	1.191530	-0.123283	-0.671578
H335	H	1.441530	0.126717	-0.421578
H336	H	1.691530	0.376717	-0.171578
H337	H	0.943340	-0.378082	-0.794268
H338	H	1.193340	-0.128082	-0.544268
H339	H	1.443340	0.121918	-0.294268
H340	H	1.693340	0.371918	-0.044268
