data_functionalizedCrystal
_audit_creation_method	'MofGen! by Chris Wilmer'
_symmetry_space_group_name_H-M	'P1'
_symmetry_Int_Tables_number	1
_symmetry_cell_setting	triclinic
loop_
_symmetry_equiv_pos_as_xyz
  x,y,z
_cell_length_a	6.817900
_cell_length_b	17.253917
_cell_length_c	11.102193
_cell_angle_alpha	97.514798
_cell_angle_beta	108.604059
_cell_angle_gamma	102.659311
loop_
_atom_site_label
_atom_site_type_symbol
_atom_site_fract_x
_atom_site_fract_y
_atom_site_fract_z
V1	V	-4.088148	-0.111300	-0.408321
O2	O	-4.071669	0.005342	-0.388135
O3	O	-4.041960	-0.220684	-0.417466
O4	O	-4.065281	-0.109591	-0.580957
O5	O	-4.048187	-0.106520	-0.223512
V6	V	-4.568180	-0.097348	-0.384766
O7	O	-4.357062	-0.141905	-0.459990
O8	O	-4.749463	-0.066743	-0.333097
O9	O	-4.391161	0.012036	-0.375621
O10	O	-4.702056	-0.213990	-0.404951
O11	O	-4.725538	-0.102128	-0.569574
O12	O	-4.367841	-0.099057	-0.212130
C13	C	-3.886673	-0.247349	-0.414105
C14	C	-3.930366	-0.336771	-0.422733
C15	C	-3.893139	-0.367293	-0.309156
C16	C	-3.934214	-0.451315	-0.317267
C17	C	-4.012502	-0.504815	-0.438956
C18	C	-4.049737	-0.474288	-0.552542
C19	C	-4.008676	-0.390268	-0.544430
C20	C	-4.141511	-0.757334	-0.475832
C21	C	-4.182564	-0.841360	-0.483936
C22	C	-4.067041	-0.818381	-0.248660
C23	C	-4.025973	-0.734360	-0.240558
C24	C	-4.063222	-0.703841	-0.354144
N25	N	-4.054482	-0.590700	-0.447250
N26	N	-4.021256	-0.617958	-0.345850
C27	C	-3.916419	-0.105638	-0.622652
C28	C	-3.979021	-0.104964	-0.763862
C29	C	-4.068418	-0.252297	-0.816157
C30	C	-4.142519	-0.325643	-0.908643
C31	C	-4.201339	-0.325006	-1.041319
C32	C	-4.186061	-0.251013	-1.081511
C33	C	-4.111960	-0.177667	-0.989026
C34	C	-4.053138	-0.178312	-0.856348
C35	C	-4.022579	-0.030336	-0.936731
C36	C	-3.963743	-0.030972	-0.804053
C37	C	-4.007301	0.043656	-0.976923
C38	C	-3.933184	0.117005	-0.884436
C39	C	-3.874360	0.116364	-0.751752
C40	C	-3.889643	0.042375	-0.711568
C41	C	-4.209790	0.038697	-0.378979
C42	C	-4.145336	0.128118	-0.370359
C43	C	-4.180043	-0.103013	-0.170428
C44	C	-4.096679	-0.103683	-0.029217
H45	H	-4.036723	-0.843240	-0.156185
O46	O	-4.258899	-0.893421	-0.602085
C47	C	-4.546419	-1.005489	-0.754240
C48	C	-4.460212	-0.946593	-0.620404
H49	H	-4.709212	-1.048482	-0.769104
H50	H	-4.428040	-1.042311	-0.758734
H51	H	-4.565881	-0.969229	-0.834009
H52	H	-4.440756	-0.982789	-0.540558
H53	H	-4.578628	-0.909770	-0.616021
O54	O	-4.177701	-0.727828	-0.586289
C55	C	-4.296712	-0.759496	-0.820509
C56	C	-4.255780	-0.793024	-0.695512
H57	H	-4.359888	-0.812191	-0.908849
H58	H	-4.139784	-0.717620	-0.817473
H59	H	-4.420917	-0.723850	-0.827738
H60	H	-4.131648	-0.828707	-0.688204
H61	H	-4.412802	-0.834856	-0.698601
H62	H	-4.113497	-0.517855	-0.651624
H63	H	-3.903902	-0.476161	-0.224781
H64	H	-4.261680	-0.384731	-1.116623
O65	O	-3.802431	0.187539	-0.661748
C66	C	-3.672082	0.251860	-0.434176
C67	C	-3.753547	0.171194	-0.535962
H68	H	-3.632493	0.238674	-0.332454
H69	H	-3.802233	0.285231	-0.452577
H70	H	-3.521052	0.291403	-0.442148
H71	H	-3.904539	0.131587	-0.528049
H72	H	-3.623263	0.137887	-0.517530
O73	O	-4.156767	-0.397514	-0.869614
C74	C	-4.039987	-0.519576	-0.866831
C75	C	-4.023954	-0.438246	-0.911217
H76	H	-3.932590	-0.552522	-0.900425
H77	H	-4.214023	-0.559071	-0.911002
H78	H	-3.985107	-0.507313	-0.756108
H79	H	-4.078726	-0.450433	-1.021928
H80	H	-3.849898	-0.398776	-0.866950
H81	H	-4.055214	0.044170	-1.084958
O82	O	-4.243214	-0.250537	-1.210441
C83	C	-4.376829	-0.330463	-1.429537
C84	C	-4.312126	-0.331120	-1.283566
H85	H	-4.432602	-0.395608	-1.488702
H86	H	-4.232395	-0.294603	-1.448762
H87	H	-4.513545	-0.300684	-1.459216
H88	H	-4.175464	-0.360913	-1.253786
H89	H	-4.456675	-0.366955	-1.264421
O90	O	-3.918319	0.188942	-0.923260
C91	C	-3.823352	0.335014	-0.857398
C92	C	-3.840122	0.253601	-0.813247
H93	H	-3.760088	0.387313	-0.768475
H94	H	-3.989281	0.335959	-0.923445
H95	H	-3.708121	0.342040	-0.912969
H96	H	-3.955260	0.246523	-0.757623
H97	H	-3.674114	0.252693	-0.747264
O98	O	-3.817195	-0.315442	-0.190845
C99	C	-3.706876	-0.301527	0.041660
C100	C	-3.792915	-0.360336	-0.092246
H101	H	-3.687176	-0.337799	0.121415
H102	H	-3.825389	-0.264777	0.046208
H103	H	-3.544207	-0.258454	0.056491
H104	H	-3.955553	-0.403458	-0.107164
H105	H	-3.674257	-0.397027	-0.096731
H106	H	-3.962239	-0.690805	-0.141467
H107	H	-4.039014	-0.365420	-0.636917
H108	H	-4.020497	-0.252823	-0.708126
H109	H	-3.841737	0.041846	-0.603538
