data_functionalizedCrystal
_audit_creation_method	'MofGen! by Chris Wilmer'
_symmetry_space_group_name_H-M	'P1'
_symmetry_Int_Tables_number	1
_symmetry_cell_setting	triclinic
loop_
_symmetry_equiv_pos_as_xyz
  x,y,z
_cell_length_a	17.699097
_cell_length_b	19.188930
_cell_length_c	16.176319
_cell_angle_alpha	89.988074
_cell_angle_beta	89.988988
_cell_angle_gamma	83.216605
loop_
_atom_site_label
_atom_site_type_symbol
_atom_site_fract_x
_atom_site_fract_y
_atom_site_fract_z
O1	O	1.003956	0.088339	-0.068825
O2	O	1.337289	0.421672	0.264509
O3	O	1.670623	0.755005	0.597842
O4	O	0.783564	0.099816	-0.068812
O5	O	1.116897	0.433149	0.264521
O6	O	1.450231	0.766483	0.597854
O7	O	0.900120	-0.007571	-0.068803
O8	O	1.233453	0.325762	0.264531
O9	O	1.566787	0.659096	0.597864
O10	O	0.887400	0.195726	-0.068834
O11	O	1.220733	0.529059	0.264499
O12	O	1.554067	0.862392	0.597832
O13	O	0.900104	-0.007578	0.068691
O14	O	1.233437	0.325756	0.402024
O15	O	1.566771	0.659089	0.735357
O16	O	0.783548	0.099809	0.068681
O17	O	1.116881	0.433143	0.402014
O18	O	1.450215	0.766476	0.735348
O19	O	1.003940	0.088332	0.068669
O20	O	1.337273	0.421665	0.402002
O21	O	1.670607	0.754998	0.735335
Cu22	Cu	0.893743	0.094070	0.081229
Cu23	Cu	1.227076	0.427403	0.414562
Cu24	Cu	1.560409	0.760737	0.747896
Cu25	Cu	0.893762	0.094078	-0.081373
Cu26	Cu	1.227095	0.427411	0.251961
Cu27	Cu	1.560428	0.760745	0.585294
O28	O	0.887384	0.195719	0.068659
O29	O	1.220717	0.529052	0.401992
O30	O	1.554051	0.862385	0.735326
C31	C	0.755360	0.099400	-0.000064
C32	C	1.088693	0.432733	0.333269
C33	C	1.422026	0.766067	0.666603
C34	C	0.671344	0.098161	-0.000059
C35	C	1.004677	0.431495	0.333275
C36	C	1.338010	0.764828	0.666608
C37	C	0.899700	-0.033586	-0.000054
C38	C	1.233034	0.299748	0.333280
C39	C	1.566367	0.633081	0.666613
C40	C	0.898464	-0.111092	-0.000046
C41	C	1.231797	0.222242	0.333287
C42	C	1.565130	0.555575	0.666620
C43	C	0.155644	0.090574	-0.075038
C44	C	0.488978	0.423907	0.258295
C45	C	0.822311	0.757240	0.591628
C46	C	0.234587	0.091732	-0.075034
C47	C	0.567920	0.425066	0.258299
C48	C	0.901254	0.758399	0.591632
C49	C	0.274043	0.092309	-0.000084
C50	C	0.607377	0.425643	0.333250
C51	C	0.940710	0.758976	0.666583
C52	C	0.234554	0.091720	0.074868
C53	C	0.567888	0.425053	0.408202
C54	C	0.901221	0.758387	0.741535
C55	C	0.155614	0.090556	0.074863
C56	C	0.488947	0.423890	0.408197
C57	C	0.822280	0.757223	0.741530
C58	C	0.552912	0.096413	0.074889
C59	C	0.886245	0.429747	0.408223
C60	C	1.219579	0.763080	0.741556
C61	C	0.631858	0.097579	0.074888
C62	C	0.965191	0.430913	0.408222
C63	C	1.298524	0.764246	0.741555
C64	C	0.631885	0.097589	-0.075009
C65	C	0.965218	0.430923	0.258325
C66	C	1.298552	0.764256	0.591658
C67	C	0.552945	0.096426	-0.075013
C68	C	0.886278	0.429759	0.258320
C69	C	1.219611	0.763092	0.591653
C70	C	0.513463	0.095833	-0.000062
C71	C	0.846796	0.429166	0.333271
C72	C	1.180130	0.762499	0.666605
C73	C	0.427865	0.094575	-0.000067
C74	C	0.761198	0.427908	0.333266
C75	C	1.094531	0.761241	0.666599
C76	C	0.359639	0.093572	-0.000078
C77	C	0.692973	0.426906	0.333256
C78	C	1.026306	0.760239	0.666589
C79	C	0.966855	-0.155936	-0.000046
C80	C	1.300188	0.177397	0.333287
C81	C	1.633522	0.510731	0.666620
C82	C	0.965693	-0.228761	-0.000059
C83	C	1.299027	0.104572	0.333274
C84	C	1.632360	0.437905	0.666607
C85	C	0.896136	-0.256739	-0.000056
C86	C	1.229470	0.076595	0.333277
C87	C	1.562803	0.409928	0.666610
C88	C	0.827736	-0.211885	-0.000061
C89	C	1.161069	0.121449	0.333272
C90	C	1.494403	0.454782	0.666606
C91	C	0.828900	-0.139061	-0.000056
C92	C	1.162233	0.194272	0.333277
C93	C	1.495566	0.527606	0.666610
N94	N	0.842963	-0.364808	0.046738
N95	N	1.176296	-0.031475	0.380072
N96	N	1.509630	0.301859	0.713405
N97	N	0.841862	-0.433988	0.046735
N98	N	1.175196	-0.100655	0.380069
N99	N	1.508529	0.232679	0.713402
C100	C	0.892626	-0.476151	-0.000073
C101	C	1.225960	-0.142818	0.333261
C102	C	1.559293	0.190515	0.666594
N103	N	0.944544	-0.446523	-0.046868
N104	N	1.277877	-0.113190	0.286466
N105	N	1.611211	0.220143	0.619799
N106	N	0.945647	-0.377337	-0.046861
N107	N	1.278980	-0.044004	0.286472
N108	N	1.612314	0.289329	0.619806
C109	C	0.894867	-0.335703	-0.000062
C110	C	1.228200	-0.002369	0.333271
C111	C	1.561534	0.330964	0.666605
C112	C	0.959763	-0.599962	-0.000088
C113	C	1.293096	-0.266628	0.333245
C114	C	1.626429	0.066705	0.666579
C115	C	0.958598	-0.672788	-0.000106
C116	C	1.291931	-0.339455	0.333227
C117	C	1.625265	-0.006121	0.666560
C118	C	0.820639	-0.655910	-0.000100
C119	C	1.153972	-0.322576	0.333234
C120	C	1.487306	0.010757	0.666567
C121	C	0.821805	-0.583085	-0.000090
C122	C	1.155139	-0.249752	0.333244
C123	C	1.488472	0.083582	0.666577
C124	C	0.891369	-0.555116	-0.000080
C125	C	1.224703	-0.221782	0.333253
C126	C	1.558036	0.111551	0.666587
C127	C	1.032144	0.088748	-0.000082
C128	C	1.365478	0.422081	0.333252
C129	C	1.698811	0.755415	0.666585
C130	C	1.116160	0.089987	-0.000092
C131	C	1.449494	0.423320	0.333241
C132	C	1.782827	0.756653	0.666574
C133	C	0.887804	0.221734	-0.000092
C134	C	1.221137	0.555067	0.333241
C135	C	1.554471	0.888400	0.666575
C136	C	0.889040	0.299240	-0.000104
C137	C	1.222374	0.632573	0.333229
C138	C	1.555707	0.965906	0.666562
N139	N	0.893735	0.094064	0.195594
N140	N	1.227068	0.427397	0.528928
N141	N	1.560402	0.760730	0.862261
N142	N	0.893775	0.094079	-0.195738
N143	N	1.227109	0.427412	0.137595
N144	N	1.560442	0.760745	0.470929
C145	C	0.945361	0.046532	0.238863
C146	C	1.278695	0.379866	0.572196
C147	C	1.612028	0.713199	0.905529
C148	C	0.945365	0.046531	0.325410
C149	C	1.278699	0.379865	0.658743
C150	C	1.612032	0.713198	0.992076
C151	C	0.893746	0.094066	0.368687
C152	C	1.227079	0.427400	0.702020
C153	C	1.560412	0.760733	1.035353
C154	C	0.842114	0.141600	0.325412
C155	C	1.175447	0.474933	0.658746
C156	C	1.508780	0.808267	0.992079
C157	C	0.842107	0.141597	0.238867
C158	C	1.175440	0.474930	0.572200
C159	C	1.508773	0.808264	0.905533
C160	C	0.842139	0.141613	0.674441
C161	C	1.175473	0.474946	1.007774
C162	C	1.508806	0.808280	1.341107
C163	C	0.842152	0.141614	0.760992
C164	C	1.175485	0.474947	1.094325
C165	C	1.508818	0.808281	1.427659
C166	C	0.945398	0.046548	0.760984
C167	C	1.278731	0.379881	1.094317
C168	C	1.612065	0.713214	1.427650
C169	C	0.945391	0.046545	0.674438
C170	C	1.278724	0.379878	1.007771
C171	C	1.612058	0.713211	1.341105
C172	C	0.893757	0.094076	0.631171
C173	C	1.227090	0.427409	0.964504
C174	C	1.560423	0.760742	1.297838
C175	C	0.893752	0.094075	0.537327
C176	C	1.227086	0.427408	0.870660
C177	C	1.560419	0.760742	1.203994
C178	C	0.893753	0.094071	0.462529
C179	C	1.227086	0.427404	0.795863
C180	C	1.560420	0.760737	1.129196
H181	H	0.123524	0.090109	-0.136072
H182	H	0.456857	0.423442	0.197261
H183	H	0.790190	0.756775	0.530594
H184	H	0.766114	-0.546572	-0.000085
H185	H	1.099447	-0.213238	0.333248
H186	H	1.432780	0.120095	0.666582
C187	C	0.675259	0.098208	0.157344
C188	C	1.008593	0.431541	0.490677
C189	C	1.341926	0.764874	0.824011
N190	N	0.707949	0.098680	0.219447
N191	N	1.041283	0.432013	0.552780
N192	N	1.374616	0.765347	0.886113
C193	C	0.509489	0.095782	0.157338
C194	C	0.842823	0.429116	0.490671
C195	C	1.176156	0.762449	0.824005
N196	N	0.476780	0.095314	0.219442
N197	N	0.810113	0.428648	0.552776
N198	N	1.143446	0.761981	0.886109
H199	H	0.266732	0.092206	-0.136063
H200	H	0.600065	0.425540	0.197270
H201	H	0.933398	0.758873	0.530604
C202	C	0.509548	0.095787	-0.157465
C203	C	0.842881	0.429120	0.175868
C204	C	1.176214	0.762453	0.509202
N205	N	0.476863	0.095301	-0.219569
N206	N	0.810196	0.428634	0.113764
N207	N	1.143529	0.761967	0.447097
C208	C	1.002140	-0.005774	0.373001
C209	C	1.335474	0.327560	0.706334
C210	C	1.668807	0.660893	1.039668
N211	N	1.044899	-0.045179	0.408846
N212	N	1.378232	0.288154	0.742180
N213	N	1.711566	0.621488	1.075513
C214	C	0.753660	-0.089730	-0.000054
C215	C	1.086994	0.243603	0.333279
C216	C	1.420327	0.576937	0.666613
N217	N	0.696989	-0.052573	-0.000051
N218	N	1.030322	0.280761	0.333283
N219	N	1.363656	0.614094	0.666616
H220	H	0.664041	0.098069	-0.136038
H221	H	0.997374	0.431403	0.197296
H222	H	1.330708	0.764736	0.530629
C223	C	0.277955	0.092384	0.157315
C224	C	0.611288	0.425717	0.490648
C225	C	0.944622	0.759051	0.823982
N226	N	0.310642	0.092898	0.219416
N227	N	0.643975	0.426231	0.552749
N228	N	0.977308	0.759565	0.886083
H229	H	0.800114	0.180324	0.796227
H230	H	1.133447	0.513657	1.129560
H231	H	1.466781	0.846991	1.462893
H232	H	0.123466	0.090085	0.135892
H233	H	0.456799	0.423419	0.469226
H234	H	0.790133	0.756752	0.802559
H235	H	1.023499	-0.133169	-0.000041
H236	H	1.356833	0.200165	0.333292
H237	H	1.690166	0.533498	0.666625
H238	H	0.800098	0.180316	0.639219
H239	H	1.133432	0.513649	0.972553
H240	H	1.466765	0.846982	1.305886
H241	H	1.021387	-0.265280	-0.000063
H242	H	1.354721	0.068053	0.333271
H243	H	1.688054	0.401386	0.666604
C244	C	0.785324	0.193882	0.373020
C245	C	1.118658	0.527216	0.706353
C246	C	1.451991	0.860549	1.039687
N247	N	0.742549	0.233262	0.408878
N248	N	1.075882	0.566596	0.742211
N249	N	1.409216	0.899929	1.075544
C250	C	1.002191	-0.005744	0.808585
C251	C	1.335524	0.327589	1.141918
C252	C	1.668858	0.660923	1.475252
N253	N	1.044966	-0.045129	0.844437
N254	N	1.378300	0.288205	1.177770
N255	N	1.711633	0.621538	1.511104
C256	C	0.751223	-0.242661	-0.000051
C257	C	1.084557	0.090672	0.333282
C258	C	1.417890	0.424005	0.666615
N259	N	0.693591	-0.265842	-0.000045
N260	N	1.026925	0.067491	0.333289
N261	N	1.360258	0.400825	0.666622
C262	C	1.036284	-0.569193	-0.000090
C263	C	1.369617	-0.235860	0.333243
C264	C	1.702950	0.097474	0.666577
N265	N	1.093920	-0.546020	-0.000094
N266	N	1.427253	-0.212687	0.333239
N267	N	1.760587	0.120647	0.666573
H268	H	1.014293	-0.709300	-0.000111
H269	H	1.347626	-0.375967	0.333223
H270	H	1.680960	-0.042633	0.666556
C271	C	0.744125	-0.686681	-0.000099
C272	C	1.077458	-0.353347	0.333234
C273	C	1.410792	-0.020014	0.666568
N274	N	0.686493	-0.709861	-0.000100
N275	N	1.019826	-0.376527	0.333233
N276	N	1.353159	-0.043194	0.666566
C277	C	1.002148	-0.005761	0.191266
C278	C	1.335481	0.327572	0.524599
C279	C	1.668814	0.660906	0.857933
N280	N	1.044919	-0.045152	0.155418
N281	N	1.378252	0.288181	0.488752
N282	N	1.711585	0.621514	0.822085
C283	C	1.002175	-0.005749	0.626838
C284	C	1.335508	0.327585	0.960171
C285	C	1.668842	0.660918	1.293505
N286	N	1.044943	-0.045140	0.590987
N287	N	1.378276	0.288193	0.924320
N288	N	1.711610	0.621527	1.257654
C289	C	0.785320	0.193891	0.191272
C290	C	1.118653	0.527224	0.524605
C291	C	1.451986	0.860558	0.857939
N292	N	0.742546	0.233281	0.155425
N293	N	1.075879	0.566614	0.488758
N294	N	1.409213	0.899948	0.822091
