data_functionalizedCrystal
_audit_creation_method	'MofGen! by Chris Wilmer'
_symmetry_space_group_name_H-M	'P1'
_symmetry_Int_Tables_number	1
_symmetry_cell_setting	triclinic
loop_
_symmetry_equiv_pos_as_xyz
  x,y,z
_cell_length_a	12.594517
_cell_length_b	21.295416
_cell_length_c	12.594509
_cell_angle_alpha	90.033772
_cell_angle_beta	89.978673
_cell_angle_gamma	89.969869
loop_
_atom_site_label
_atom_site_type_symbol
_atom_site_fract_x
_atom_site_fract_y
_atom_site_fract_z
Zn1	Zn	1.627161	0.250594	-0.601819
Zn2	Zn	1.627008	0.355872	-0.423823
Zn3	Zn	1.449165	0.250621	-0.423848
Zn4	Zn	1.449103	0.355829	-0.601753
O5	O	1.538109	0.303229	-0.512811
O6	O	1.776087	0.264566	-0.578225
O7	O	1.603378	0.341940	-0.274881
O8	O	1.472867	0.162528	-0.447494
O9	O	1.775974	0.341914	-0.447452
O10	O	1.603640	0.162508	-0.578249
O11	O	1.472718	0.264612	-0.274899
O12	O	1.300211	0.264570	-0.447430
O13	O	1.472761	0.341839	-0.750708
O14	O	1.300166	0.341865	-0.578137
O15	O	1.603580	0.264524	-0.750756
O16	O	1.603318	0.443956	-0.447388
O17	O	1.472612	0.443924	-0.578113
C18	C	1.261568	0.303216	-0.512780
C19	C	1.143263	0.303226	-0.512791
C20	C	1.074004	0.261127	-0.441836
C21	C	1.003169	0.318547	-0.415646
C22	C	1.003299	0.245834	-0.538999
C23	C	1.073986	0.360676	-0.486551
C24	C	1.074123	0.287924	-0.609949
C25	C	1.003320	0.345384	-0.583796
C26	C	1.537971	0.466780	-0.512764
C27	C	1.538009	0.536748	-0.512779
C28	C	1.606128	0.569611	-0.444783
C29	C	1.606178	0.635353	-0.444812
C30	C	1.538090	0.668231	-0.512826
C31	C	1.469966	0.635361	-0.580835
C32	C	1.469925	0.569619	-0.580812
N33	N	1.444980	0.771496	-0.520937
N34	N	1.445022	0.833948	-0.520953
C35	C	1.538210	0.866306	-0.512901
N36	N	1.631358	0.833853	-0.504812
N37	N	1.631315	0.771396	-0.504791
C38	C	1.538127	0.739516	-0.512859
C39	C	1.606390	0.970454	-0.444933
C40	C	1.606442	1.036197	-0.444969
C41	C	1.470220	1.036203	-0.580986
C42	C	1.470178	0.970461	-0.580956
C43	C	1.538261	0.937590	-0.512923
C44	C	1.815730	0.303242	-0.512843
C45	C	1.934036	0.303247	-0.512857
C46	C	1.538181	0.303174	-0.790432
C47	C	1.538211	0.303150	-0.908737
C48	C	1.538279	1.139038	-0.512900
C49	C	1.538354	1.069070	-0.512984
C50	C	1.467081	0.345178	-0.977964
C51	C	1.564195	0.360559	-1.048752
C52	C	1.441173	0.287731	-1.048749
C53	C	1.635376	0.318561	-0.977967
C54	C	1.512288	0.245707	-0.977957
C55	C	1.609469	0.261066	-1.048713
C56	C	1.538100	0.303238	-0.236270
C57	C	1.538276	0.303084	-0.117965
H58	H	1.661568	0.542849	-0.389390
C59	C	0.961448	0.335908	-0.306229
C60	C	0.900290	0.390659	-0.313493
C61	C	0.861812	0.406653	-0.212724
H62	H	0.918820	0.302650	-0.279666
H63	H	1.019468	0.342886	-0.259510
H64	H	0.842278	0.383678	-0.360195
H65	H	0.942895	0.423928	-0.340037
H66	H	0.919833	0.413630	-0.166005
H67	H	0.819189	0.373391	-0.186170
H68	H	0.820321	0.443806	-0.217638
C69	C	1.689967	0.213720	-1.089826
C70	C	1.791390	0.230120	-1.053788
C71	C	1.865575	0.186528	-1.091654
H72	H	1.672260	0.173036	-1.064537
H73	H	1.689211	0.213719	-1.165256
H74	H	1.792143	0.230114	-0.978374
H75	H	1.809130	0.270797	-1.079074
H76	H	1.864818	0.186527	-1.167085
H77	H	1.847857	0.145846	-1.066363
H78	H	1.934399	0.197652	-1.067216
C79	C	1.483044	0.181025	-0.936240
C80	C	1.484382	0.181794	-0.825086
C81	C	1.457450	0.122219	-0.786616
H82	H	1.414018	0.170089	-0.960316
H83	H	1.532912	0.151027	-0.961457
H84	H	1.434517	0.211783	-0.799879
H85	H	1.553399	0.192719	-0.800981
H86	H	1.507317	0.092221	-0.811833
H87	H	1.388424	0.111288	-0.810700
H88	H	1.458364	0.122731	-0.711195
C89	C	1.386783	0.392592	-0.936680
C90	C	1.285526	0.376938	-0.974104
C91	C	1.211537	0.420606	-0.936105
H92	H	1.386727	0.392057	-0.861266
H93	H	1.405330	0.433371	-0.960954
H94	H	1.266984	0.336170	-0.949825
H95	H	1.285547	0.377477	-1.049514
H96	H	1.230084	0.461385	-0.960378
H97	H	1.211491	0.420068	-0.860691
H98	H	1.142827	0.409995	-0.961499
C99	C	1.680200	0.934647	-0.371124
C100	C	1.665560	0.870039	-0.385630
C101	C	1.733526	0.837036	-0.317647
H102	H	1.751756	0.945298	-0.386707
H103	H	1.664662	0.945428	-0.299575
H104	H	1.681105	0.859262	-0.457163
H105	H	1.594018	0.859369	-0.370039
H106	H	1.717988	0.847818	-0.246098
H107	H	1.805077	0.847692	-0.333236
H108	H	1.723595	0.793196	-0.327474
C109	C	1.396125	1.071811	-0.654771
C110	C	1.290816	1.055877	-0.631512
C111	C	1.222533	1.088664	-0.699475
H112	H	1.405762	1.115681	-0.645117
H113	H	1.411593	1.060981	-0.726314
H114	H	1.275354	1.066712	-0.559986
H115	H	1.281145	1.012013	-0.641173
H116	H	1.238002	1.077833	-0.771018
H117	H	1.232180	1.132532	-0.689815
H118	H	1.151075	1.077853	-0.683709
C119	C	1.396267	0.934858	-0.654943
C120	C	1.419372	0.950799	-0.760281
C121	C	1.351296	0.918022	-0.828472
H122	H	1.405923	0.890987	-0.645334
H123	H	1.324751	0.945693	-0.639364
H124	H	1.490871	0.939961	-0.775856
H125	H	1.409709	0.994664	-0.769924
H126	H	1.279780	0.928856	-0.812893
H127	H	1.360958	0.874152	-0.818854
H128	H	1.366957	0.928837	-0.899951
C129	C	1.115413	0.425373	-0.456867
C130	C	1.226575	0.424595	-0.457111
C131	C	1.264777	0.484178	-0.429756
H132	H	1.090758	0.455361	-0.506936
H133	H	1.090588	0.436326	-0.388061
H134	H	1.251390	0.413651	-0.525907
H135	H	1.251258	0.394620	-0.407041
H136	H	1.239951	0.495131	-0.360949
H137	H	1.240115	0.514161	-0.479827
H138	H	1.340203	0.483657	-0.429908
C139	C	1.396136	0.533902	-0.654767
C140	C	1.456342	0.496105	-0.723044
C141	C	1.388402	0.463199	-0.791194
H142	H	1.349744	0.508251	-0.614121
H143	H	1.355611	0.562876	-0.695345
H144	H	1.496848	0.467135	-0.682471
H145	H	1.502731	0.521741	-0.763714
H146	H	1.347877	0.492173	-0.831772
H147	H	1.342013	0.437551	-0.750539
H148	H	1.429242	0.437555	-0.837534
C149	C	0.962337	0.392872	-0.663998
C150	C	0.999900	0.377217	-0.765260
C151	C	0.962180	0.420955	-0.839160
H152	H	0.886920	0.392418	-0.664141
H153	H	0.986705	0.433617	-0.645302
H154	H	0.975526	0.336483	-0.783952
H155	H	1.075312	0.377675	-0.765151
H156	H	0.986548	0.461700	-0.820464
H157	H	0.886764	0.420498	-0.839294
H158	H	0.987669	0.410343	-0.907873
H159	H	1.717491	0.331630	-0.947006
C160	C	1.680628	1.071765	-0.371205
C161	C	1.785886	1.055652	-0.394497
C162	C	1.854277	1.088384	-0.326559
H163	H	1.671102	1.115643	-0.380862
H164	H	1.665154	1.061011	-0.299656
H165	H	1.801355	1.066410	-0.466028
H166	H	1.795446	1.011780	-0.384833
H167	H	1.838803	1.077629	-0.255010
H168	H	1.844742	1.132259	-0.336221
H169	H	1.925702	1.077451	-0.342346
C170	C	0.961685	0.181142	-0.568457
C171	C	0.850530	0.182154	-0.569007
C172	C	0.812162	0.122569	-0.596114
H173	H	0.986907	0.169915	-0.636977
H174	H	0.985826	0.151264	-0.517932
H175	H	0.826400	0.212022	-0.619529
H176	H	0.825280	0.193371	-0.500496
H177	H	0.836302	0.092691	-0.545589
H178	H	0.837391	0.111346	-0.664633
H179	H	0.736740	0.123246	-0.596481
C180	C	1.680175	0.670929	-0.370862
C181	C	1.739772	0.628071	-0.311261
C182	C	1.807936	0.660819	-0.243117
H183	H	1.726641	0.696536	-0.411505
H184	H	1.639514	0.696603	-0.324406
H185	H	1.780430	0.602409	-0.357711
H186	H	1.693334	0.602464	-0.270596
H187	H	1.767275	0.686492	-0.196661
H188	H	1.854395	0.686424	-0.283769
H189	H	1.848374	0.631745	-0.202663
H190	H	1.414530	0.662134	-0.636214
C191	C	1.593302	0.425287	-1.090376
C192	C	1.510217	0.448353	-1.153074
C193	C	1.536988	0.507976	-1.191442
H194	H	1.605029	0.452927	-1.032334
H195	H	1.656092	0.422443	-1.131935
H196	H	1.447445	0.451201	-1.111517
H197	H	1.498478	0.420731	-1.211131
H198	H	1.599777	0.505132	-1.233001
H199	H	1.548715	0.535610	-1.133394
H200	H	1.480623	0.523632	-1.233994
C201	C	1.115337	0.213785	-0.361565
C202	C	1.079399	0.230114	-0.260018
C203	C	1.117464	0.186524	-0.186044
H204	H	1.090116	0.173086	-0.379343
H205	H	1.190765	0.213846	-0.362480
H206	H	1.003986	0.230045	-0.259106
H207	H	1.104616	0.270805	-0.242208
H208	H	1.192893	0.186586	-0.186959
H209	H	1.092241	0.145828	-0.203832
H210	H	1.093094	0.197601	-0.117135
C211	C	1.115662	0.270499	-0.719399
C212	C	1.079934	0.210325	-0.746395
C213	C	1.118192	0.194242	-0.847206
H214	H	1.090434	0.299934	-0.770115
H215	H	1.191089	0.270961	-0.718747
H216	H	1.004523	0.209868	-0.747055
H217	H	1.105159	0.180877	-0.695707
H218	H	1.193619	0.194704	-0.846554
H219	H	1.092961	0.223681	-0.897913
H220	H	1.093964	0.153411	-0.865532
H221	H	1.359082	0.274717	-1.079841
