data_functionalizedCrystal
_audit_creation_method	'MofGen! by Chris Wilmer'
_symmetry_space_group_name_H-M	'P1'
_symmetry_Int_Tables_number	1
_symmetry_cell_setting	triclinic
loop_
_symmetry_equiv_pos_as_xyz
  x,y,z
_cell_length_a	16.992694
_cell_length_b	22.610064
_cell_length_c	16.992695
_cell_angle_alpha	89.995894
_cell_angle_beta	90.668223
_cell_angle_gamma	90.003118
loop_
_atom_site_label
_atom_site_type_symbol
_atom_site_fract_x
_atom_site_fract_y
_atom_site_fract_z
O1	O	1.050855	0.049111	0.166906
O2	O	0.822455	0.049128	0.165075
O3	O	0.935740	0.049115	0.051791
O4	O	0.937571	0.049124	0.280191
O5	O	0.935719	-0.049254	0.051807
O6	O	0.822435	-0.049241	0.165091
O7	O	1.050835	-0.049258	0.166923
Zn8	Zn	0.936632	-0.064868	0.166010
Zn9	Zn	0.936659	0.064738	0.165988
O10	O	0.937551	-0.049245	0.280207
C11	C	0.793085	-0.000054	0.162727
C12	C	0.705600	-0.000047	0.155699
N13	N	0.936619	-0.153320	0.166024
C14	C	0.659610	-0.000045	0.223517
C15	C	0.577409	-0.000054	0.216908
C16	C	0.541201	-0.000060	0.142480
C17	C	0.587198	-0.000064	0.074657
C18	C	0.669397	-0.000060	0.081267
C19	C	0.295886	-0.000077	0.115086
C20	C	0.213681	-0.000079	0.108481
C21	C	0.203898	-0.000070	0.250732
C22	C	0.286099	-0.000062	0.257336
C23	C	0.332089	-0.000069	0.189512
N24	N	0.457178	-0.000067	0.135723
N25	N	0.416110	-0.000067	0.196270
C26	C	0.986824	-0.561967	0.115834
C27	C	0.986827	-0.623887	0.115829
O28	O	1.029480	-0.655911	0.073165
N29	N	0.936657	-0.654857	0.165972
C30	C	0.886474	-0.623904	0.216118
O31	O	0.843800	-0.655932	0.258767
C32	C	0.886467	-0.561985	0.216119
C33	C	0.936646	-0.531019	0.165978
C34	C	1.036999	-0.531001	0.065697
C35	C	1.036996	-0.469085	0.065704
C36	C	0.986818	-0.438136	0.115847
C37	C	0.936643	-0.469103	0.165985
C38	C	0.836280	-0.531033	0.266260
C39	C	0.836277	-0.469110	0.266256
C40	C	0.886456	-0.438144	0.216116
C41	C	0.886463	-0.376239	0.216135
N42	N	0.936634	-0.345269	0.165992
C43	C	0.986811	-0.376217	0.115848
C44	C	0.886491	-0.753938	0.216111
C45	C	0.886502	-0.815855	0.216115
C46	C	0.986855	-0.815834	0.115825
C47	C	0.986848	-0.753916	0.115825
C48	C	0.936662	-0.722968	0.165968
C49	C	0.986802	-0.246190	0.115867
C50	C	0.986797	-0.184269	0.115880
C51	C	0.886441	-0.184295	0.216167
C52	C	0.886449	-0.246211	0.216157
C53	C	0.936632	-0.277157	0.166000
O54	O	0.843830	-0.344175	0.258775
O55	O	1.029471	-0.344182	0.073199
C56	C	1.080205	-0.000075	0.169270
C57	C	1.167690	-0.000077	0.176299
C58	C	0.933374	-0.000069	0.022439
C59	C	0.926345	-0.000069	-0.065046
N60	N	0.936677	0.153190	0.165968
C61	C	0.994163	-0.000074	-0.111037
C62	C	0.987554	-0.000068	-0.193238
C63	C	0.913127	-0.000061	-0.229446
C64	C	0.845303	-0.000053	-0.183449
C65	C	0.851913	-0.000055	-0.101250
C66	C	0.885732	-0.000050	-0.474760
C67	C	0.879127	-0.000050	-0.556966
C68	C	1.021379	-0.000064	-0.566749
C69	C	1.027982	-0.000070	-0.484547
C70	C	0.960159	-0.000059	-0.438558
N71	N	0.906369	-0.000056	-0.313468
N72	N	0.966917	-0.000059	-0.354537
C73	C	0.939917	-0.000059	0.309559
C74	C	0.946945	-0.000056	0.397044
H75	H	0.689084	-0.000039	0.284124
H76	H	1.027664	-0.271379	0.075024
O77	O	1.066480	0.000024	-0.075903
C78	C	1.190109	0.050963	-0.059161
C79	C	1.108226	0.050929	-0.098983
H80	H	1.223890	0.092108	-0.077819
H81	H	1.183232	0.051000	0.007495
H82	H	1.223844	0.009776	-0.077722
H83	H	1.074446	0.092109	-0.080486
H84	H	1.115159	0.050860	-0.165633
H85	H	0.845626	-0.728743	0.256950
O86	O	0.552065	-0.000174	0.002339
C87	C	0.535319	-0.051121	-0.121275
C88	C	0.575139	-0.051081	-0.039391
H89	H	0.553972	-0.092269	-0.155044
H90	H	0.468662	-0.051159	-0.114400
H91	H	0.553886	-0.009936	-0.155022
H92	H	0.556635	-0.092259	-0.005600
H93	H	0.641789	-0.051012	-0.046322
H94	H	1.027708	-0.728706	0.074996
H95	H	0.539966	-0.000051	0.272133
O96	O	1.100240	0.000005	-0.449291
C97	C	1.190292	0.050978	-0.362213
C98	C	1.108428	0.050962	-0.402073
H99	H	1.196944	0.092178	-0.324041
H100	H	1.196953	0.009838	-0.323919
H101	H	1.237611	0.050947	-0.409223
H102	H	1.061059	0.051014	-0.355117
H103	H	1.101834	0.092099	-0.440383
H104	H	0.795419	-0.556238	0.307089
H105	H	0.166444	-0.000065	0.305950
O106	O	1.053412	0.000031	-0.237943
C107	C	1.128504	0.050975	-0.336454
C108	C	1.053893	0.050941	-0.285861
H109	H	1.128910	0.092125	-0.375220
H110	H	1.182860	0.051005	-0.296489
H111	H	1.128952	0.009792	-0.375148
H112	H	1.053369	0.092117	-0.247161
H113	H	0.999571	0.050880	-0.325872
O114	O	0.321294	0.000062	0.329623
C115	C	0.408420	0.051055	0.419608
C116	C	0.368607	0.050980	0.337721
H117	H	0.446695	0.092211	0.426175
H118	H	0.361449	0.051100	0.466967
H119	H	0.446635	0.009878	0.426284
H120	H	0.330396	0.092150	0.330969
H121	H	0.415618	0.050904	0.290403
H122	H	0.184203	-0.000084	0.047870
H123	H	0.333322	-0.000083	0.059859
O124	O	0.806764	-0.000010	-0.592013
C125	C	0.666366	-0.000018	-0.573640
C126	C	0.748263	-0.000050	-0.533847
H127	H	0.619046	-0.000063	-0.526631
H128	H	0.659684	0.041160	-0.611858
H129	H	0.659743	-0.041174	-0.611900
H130	H	0.754942	0.041079	-0.495548
H131	H	0.754908	-0.041255	-0.495677
H132	H	0.706842	-0.000061	0.026042
O133	O	1.035567	-0.154280	0.067095
C134	C	1.135137	-0.160806	-0.032346
C135	C	1.079936	-0.194838	0.022849
H136	H	1.171035	-0.193582	-0.068121
H137	H	1.098726	-0.131831	-0.073871
H138	H	1.176555	-0.131802	0.004142
H139	H	1.038507	-0.223874	-0.013575
H140	H	1.116395	-0.223775	0.064377
O141	O	1.085759	-0.439100	0.016916
C142	C	1.185320	-0.445637	-0.082532
C143	C	1.130124	-0.479663	-0.027326
H144	H	1.221216	-0.478418	-0.118304
H145	H	1.148907	-0.416667	-0.124060
H146	H	1.226742	-0.416630	-0.046053
H147	H	1.088691	-0.508703	-0.063741
H148	H	1.166586	-0.508596	0.014205
H149	H	1.077859	-0.556194	0.024860
H150	H	1.076596	-0.000072	-0.604202
O151	O	0.819872	0.000061	-0.430062
C152	C	0.744798	0.051013	-0.331560
C153	C	0.819412	0.050968	-0.382149
H154	H	0.744410	0.092160	-0.292797
H155	H	0.690445	0.051054	-0.371527
H156	H	0.744330	0.009828	-0.292862
H157	H	0.819957	0.092146	-0.420853
H158	H	0.873732	0.050896	-0.342136
H159	H	0.796688	-0.000050	-0.063804
H160	H	1.027711	-0.841044	0.074993
O161	O	0.772987	0.000061	-0.218584
C162	C	0.649380	0.051018	-0.235338
C163	C	0.731261	0.050971	-0.195514
H164	H	0.615614	0.092168	-0.216688
H165	H	0.656258	0.051055	-0.301995
H166	H	0.615627	0.009835	-0.216771
H167	H	0.765058	0.092147	-0.214018
H168	H	0.724326	0.050903	-0.128865
O169	O	0.837689	-0.845841	0.264852
C170	C	0.738186	-0.839310	0.364358
C171	C	0.793419	-0.805281	0.309193
H172	H	0.702391	-0.806531	0.400234
H173	H	0.696679	-0.868281	0.327922
H174	H	0.774644	-0.868317	0.405800
H175	H	0.757024	-0.776242	0.267741
H176	H	0.834928	-0.776347	0.345679
H177	H	0.795407	-0.443916	0.307088
H178	H	0.845596	-0.271425	0.256994
H179	H	0.845590	-0.159087	0.256996
