data_functionalizedCrystal
_audit_creation_method	'MofGen! by Chris Wilmer'
_symmetry_space_group_name_H-M	'P1'
_symmetry_Int_Tables_number	1
_symmetry_cell_setting	triclinic
loop_
_symmetry_equiv_pos_as_xyz
  x,y,z
_cell_length_a	10.723022
_cell_length_b	14.044190
_cell_length_c	9.798715
_cell_angle_alpha	89.992011
_cell_angle_beta	89.996609
_cell_angle_gamma	88.829502
loop_
_atom_site_label
_atom_site_type_symbol
_atom_site_fract_x
_atom_site_fract_y
_atom_site_fract_z
O1	O	1.670502	0.133033	-0.113499
O2	O	1.308624	0.145769	-0.113506
O3	O	1.484127	0.001381	-0.113476
O4	O	1.495000	0.277421	-0.113529
O5	O	1.484113	0.001380	0.113507
O6	O	1.308610	0.145769	0.113477
O7	O	1.670488	0.133032	0.113483
Zn8	Zn	1.489547	0.139400	0.149518
Zn9	Zn	1.489566	0.139401	-0.149541
O10	O	1.494985	0.277421	0.113453
C11	C	1.262025	0.144842	-0.000015
C12	C	1.123193	0.142070	-0.000016
C13	C	1.066299	0.058806	-0.000001
C14	C	0.922809	0.055939	-0.000002
C15	C	1.479363	-0.033965	0.000019
C16	C	1.465175	-0.139283	0.000031
C17	C	1.539861	-0.389084	-0.000021
C18	C	1.439257	-0.332109	-0.000013
C19	C	1.453681	-0.224811	0.000011
C20	C	1.525438	-0.496392	-0.000046
C21	C	1.717088	0.133959	-0.000011
C22	C	1.855919	0.136731	-0.000018
C23	C	1.499749	0.312766	-0.000045
C24	C	1.513937	0.418084	-0.000066
N25	N	1.489543	0.139400	0.353618
N26	N	1.489578	0.139394	-0.353640
C27	C	1.563205	0.078508	0.421407
C28	C	1.563225	0.078505	0.578570
H29	H	1.342294	-0.363914	-0.000023
O30	O	1.134857	-0.023734	-0.000230
C31	C	1.106257	-0.076921	-0.117759
H32	H	1.067235	-0.027169	-0.199931
H33	H	1.033919	-0.132330	-0.091170
C34	C	1.273375	-0.188484	-0.070134
C35	C	1.225456	-0.127377	-0.171063
H36	H	1.346900	-0.219612	-0.103012
H37	H	1.292641	-0.152654	0.009051
H38	H	1.213082	-0.234650	-0.047985
H39	H	1.285743	-0.081205	-0.193197
H40	H	1.206203	-0.163201	-0.250253
H41	H	0.873863	-0.015350	-0.000023
O42	O	1.414512	0.201635	0.576683
C43	C	1.488177	0.260425	0.494034
H44	H	1.581571	0.223112	0.472753
H45	H	1.504682	0.330586	0.549008
C46	C	1.305485	0.326098	0.384375
C47	C	1.420188	0.280267	0.358228
H48	H	1.263545	0.338342	0.300607
H49	H	1.255854	0.286494	0.440061
H50	H	1.319255	0.384561	0.430190
H51	H	1.406416	0.221801	0.312430
H52	H	1.469815	0.319863	0.302532
O53	O	1.638645	0.016400	0.648043
C54	C	1.764063	0.032367	0.613171
H55	H	1.773434	0.108269	0.573791
H56	H	1.794750	-0.020072	0.530336
C57	C	1.835437	-0.075110	0.788538
C58	C	1.846950	0.018116	0.740181
H59	H	1.886568	-0.083905	0.866880
H60	H	1.750942	-0.085871	0.812029
H61	H	1.861009	-0.118798	0.719497
H62	H	1.821364	0.061802	0.809215
H63	H	1.931444	0.028884	0.716704
O64	O	1.655441	-0.350992	0.000065
C65	C	1.644291	-0.250787	0.000055
H66	H	1.549372	-0.228323	0.043016
H67	H	1.653367	-0.223169	-0.108830
C68	C	1.864653	-0.236572	0.036336
C69	C	1.748076	-0.208981	0.089111
H70	H	1.928675	-0.210782	0.091264
H71	H	1.872167	-0.304082	0.036337
H72	H	1.872199	-0.213555	-0.054402
H73	H	1.740526	-0.232008	0.179840
H74	H	1.740564	-0.141473	0.089127
O75	O	1.414253	0.201462	0.423325
C76	C	1.331426	0.150247	0.505976
H77	H	1.372653	0.076266	0.527243
H78	H	1.238338	0.143399	0.451011
C79	C	1.260372	0.294353	0.615661
C80	C	1.311012	0.203491	0.641791
H81	H	1.247773	0.327198	0.699435
H82	H	1.316170	0.328859	0.559974
H83	H	1.182804	0.288634	0.569853
H84	H	1.388585	0.209212	0.687581
H85	H	1.255226	0.168988	0.697488
H86	H	0.904858	0.208025	-0.000024
H87	H	1.626251	0.026374	0.363095
O88	O	1.054450	0.224522	-0.000217
C89	C	0.978710	0.228117	-0.117794
H90	H	0.963870	0.152767	-0.156972
H91	H	1.026318	0.271766	-0.200118
C92	C	0.869939	0.367415	-0.033980
C93	C	0.851704	0.274867	-0.082093
H94	H	0.791598	0.396256	-0.011961
H95	H	0.920970	0.364996	0.045232
H96	H	0.909616	0.403777	-0.102591
H97	H	0.812042	0.238504	-0.013476
H98	H	0.800663	0.277282	-0.161293
