data_functionalizedCrystal
_audit_creation_method	'MofGen! by Chris Wilmer'
_symmetry_space_group_name_H-M	'P1'
_symmetry_Int_Tables_number	1
_symmetry_cell_setting	triclinic
loop_
_symmetry_equiv_pos_as_xyz
  x,y,z
_cell_length_a	10.654541
_cell_length_b	16.992695
_cell_length_c	15.455313
_cell_angle_alpha	87.152573
_cell_angle_beta	92.705766
_cell_angle_gamma	87.576076
loop_
_atom_site_label
_atom_site_type_symbol
_atom_site_fract_x
_atom_site_fract_y
_atom_site_fract_z
O1	O	-1.682527	-0.106780	-0.072105
O2	O	-1.182527	0.393220	0.427895
O3	O	-1.317956	-0.117280	-0.072113
O4	O	-0.817956	0.382720	0.427887
O5	O	-1.498779	0.002120	-0.072102
O6	O	-0.998779	0.502120	0.427898
O7	O	-1.501703	-0.226181	-0.072116
O8	O	-1.001703	0.273819	0.427884
O9	O	-1.488436	-0.004680	0.072159
O10	O	-0.988436	0.495320	0.572159
O11	O	-1.307612	-0.124080	0.072149
O12	O	-0.807612	0.375920	0.572149
O13	O	-1.672183	-0.113580	0.072156
O14	O	-1.172183	0.386420	0.572156
Cu15	Cu	-1.488954	-0.119451	0.085325
Cu16	Cu	-0.988954	0.380549	0.585325
Cu17	Cu	-1.501185	-0.111410	-0.085281
Cu18	Cu	-1.001185	0.388590	0.414719
O19	O	-1.491360	-0.232980	0.072146
O20	O	-0.991360	0.267020	0.572146
C21	C	-1.265919	-0.119909	0.000017
C22	C	-0.765919	0.380091	0.500017
C23	C	-1.126277	-0.117604	0.000014
C24	C	-0.626277	0.382396	0.500014
C25	C	-1.489847	0.027953	0.000029
C26	C	-0.989847	0.527953	0.500029
C27	C	-1.478628	0.115058	0.000028
C28	C	-0.978628	0.615058	0.500028
C29	C	-1.724220	-0.110951	0.000025
C30	C	-1.224220	0.389049	0.500025
C31	C	-1.863863	-0.113256	0.000022
C32	C	-1.363863	0.386744	0.500022
C33	C	-1.110646	-0.260379	-0.000005
C34	C	-0.610646	0.239621	0.499995
C35	C	-1.037228	-0.330680	-0.000018
C36	C	-0.537228	0.169320	0.499982
C37	C	-0.906022	-0.328509	-0.000019
C38	C	-0.406022	0.171491	0.499981
C39	C	-0.848232	-0.256029	-0.000004
C40	C	-0.348232	0.243971	0.499996
C41	C	-0.921650	-0.185728	0.000009
C42	C	-0.421650	0.314272	0.500009
C43	C	-1.052858	-0.187907	0.000007
C44	C	-0.552858	0.312093	0.500007
C45	C	-0.937281	-0.042955	0.000035
C46	C	-0.437281	0.457045	0.500035
C47	C	-1.068487	-0.045124	0.000029
C48	C	-0.568487	0.454876	0.500029
C49	C	-0.879491	0.029525	0.000050
C50	C	-0.379491	0.529525	0.500050
C51	C	-0.952910	0.099828	0.000057
C52	C	-0.452910	0.599828	0.500057
C53	C	-1.084123	0.097653	0.000057
C54	C	-0.584123	0.597653	0.500057
C55	C	-1.141905	0.025177	0.000043
C56	C	-0.641905	0.525177	0.500043
C57	C	-1.500292	-0.258813	0.000013
C58	C	-1.000292	0.241187	0.500013
C59	C	-1.511512	-0.345918	0.000008
C60	C	-1.011512	0.154082	0.500008
N61	N	-1.480359	-0.125106	0.205320
N62	N	-0.980359	0.374894	0.705320
C63	C	-1.586879	0.164711	0.000031
C64	C	-1.086879	0.664711	0.500031
C65	C	-1.576330	0.246555	0.000023
C66	C	-1.076330	0.746555	0.500023
C67	C	-1.457529	0.278745	0.000017
C68	C	-0.957529	0.778745	0.500017
C69	C	-1.349271	0.229087	0.000012
C70	C	-0.849271	0.729087	0.500012
C71	C	-1.359821	0.147244	0.000014
C72	C	-0.859821	0.647244	0.500014
C73	C	-1.413803	0.522581	0.000005
C74	C	-0.913803	1.022581	0.500005
C75	C	-1.403261	0.604430	0.000005
C76	C	-0.903261	1.104430	0.500005
C77	C	-1.630322	0.621892	0.000014
C78	C	-1.130322	1.121892	0.500014
C79	C	-1.640861	0.540047	0.000022
C80	C	-1.140861	1.040047	0.500022
C81	C	-1.532603	0.490396	0.000012
C82	C	-1.032603	0.990396	0.500012
N83	N	-1.446744	0.362403	0.000011
N84	N	-0.946744	0.862403	0.500011
N85	N	-1.543390	0.406740	0.000011
N86	N	-1.043390	0.906740	0.500011
N87	N	-1.509789	-0.105748	-0.205276
N88	N	-1.009789	0.394252	0.294724
C89	C	-1.557210	-0.074400	0.250719
C90	C	-1.057210	0.425600	0.750719
C91	C	-1.550723	-0.078684	0.341526
C92	C	-1.050723	0.421316	0.841526
C93	C	-1.467391	-0.133679	0.386933
C94	C	-0.967391	0.366321	0.886933
C95	C	-1.390532	-0.184387	0.341528
C96	C	-0.890532	0.315613	0.841528
C97	C	-1.397013	-0.180099	0.250722
C98	C	-0.897013	0.319901	0.750722
C99	C	-1.439412	-0.152168	0.658513
C100	C	-0.939412	0.347832	1.158513
C101	C	-1.432938	-0.156455	0.749325
C102	C	-0.932938	0.343545	1.249325
C103	C	-1.593129	-0.050749	0.749317
C104	C	-1.093129	0.449251	1.249317
C105	C	-1.599608	-0.046469	0.658509
C106	C	-1.099608	0.453531	1.158509
C107	C	-1.522745	-0.097175	0.613112
C108	C	-1.022745	0.402825	1.113112
N109	N	-1.460761	-0.138061	0.479753
N110	N	-0.960761	0.361939	0.979753
N111	N	-1.529369	-0.092788	0.520294
N112	N	-1.029369	0.407212	1.020294
H113	H	-1.217481	-0.262153	-0.000024
H114	H	-0.717481	0.237847	0.499976
H115	H	-1.664480	0.286979	0.000027
H116	H	-1.164480	0.786979	0.500027
Cl117	Cl	-0.714545	0.032254	0.000053
Cl118	Cl	-0.214545	0.532254	0.500053
Cl119	Cl	-1.223728	0.084824	0.000007
Cl120	Cl	-0.723728	0.584824	0.500007
Cl121	Cl	-1.689747	0.012994	0.806391
Cl122	Cl	-1.189747	0.512994	1.306391
Cl123	Cl	-1.253900	0.644895	0.000003
Cl124	Cl	-0.753900	1.144895	0.500003
Cl125	Cl	-1.277705	0.460173	-0.000011
Cl126	Cl	-0.777705	0.960173	0.499989
H127	H	-0.741396	-0.254268	0.000006
H128	H	-0.241396	0.245732	0.500006
H129	H	-1.376828	-0.193456	0.621558
H130	H	-0.876828	0.306544	1.121558
Cl131	Cl	-0.880253	0.190934	0.000083
Cl132	Cl	-0.380253	0.690934	0.500083
Cl133	Cl	-1.199921	0.269555	-0.000006
Cl134	Cl	-0.699921	0.769555	0.499994
H135	H	-1.613300	-0.037394	0.378489
H136	H	-1.113300	0.462606	0.878489
Cl137	Cl	-1.661983	-0.005263	0.193645
Cl138	Cl	-1.161983	0.494737	0.693645
Cl139	Cl	-1.704371	0.022667	0.601426
Cl140	Cl	-1.204371	0.522667	1.101426
Cl141	Cl	-1.176409	0.186038	0.000080
Cl142	Cl	-0.676409	0.686038	0.500080
H143	H	-1.322674	-0.229163	0.378504
H144	H	-0.822674	0.270837	0.878504
H145	H	-1.365076	-0.201241	0.786292
H146	H	-0.865076	0.298759	1.286292
Cl147	Cl	-1.109883	-0.421792	-0.000038
Cl148	Cl	-0.609883	0.078208	0.499962
H149	H	-0.846244	-0.385754	-0.000023
H150	H	-0.346244	0.114246	0.499977
Cl151	Cl	-1.306850	0.022438	0.000037
Cl152	Cl	-0.806850	0.522438	0.500037
H153	H	-1.334432	-0.221388	0.213760
H154	H	-0.834432	0.278612	0.713760
H155	H	-1.683619	0.138508	0.000041
H156	H	-1.183619	0.638508	0.500041
H157	H	-1.737601	0.513845	0.000026
H158	H	-1.237601	1.013845	0.500026
H159	H	-1.718459	0.662327	0.000021
H160	H	-1.218459	1.162327	0.500021
