data_functionalizedCrystal
_audit_creation_method	'MofGen! by Chris Wilmer'
_symmetry_space_group_name_H-M	'P1'
_symmetry_Int_Tables_number	1
_symmetry_cell_setting	triclinic
loop_
_symmetry_equiv_pos_as_xyz
  x,y,z
_cell_length_a	23.532409
_cell_length_b	12.837943
_cell_length_c	11.295483
_cell_angle_alpha	94.538773
_cell_angle_beta	94.072292
_cell_angle_gamma	91.160750
loop_
_atom_site_label
_atom_site_type_symbol
_atom_site_fract_x
_atom_site_fract_y
_atom_site_fract_z
O1	O	0.144515	-1.380948	-0.098988
O2	O	0.137205	-1.079218	-0.098996
O3	O	0.058450	-1.239180	-0.098993
O4	O	0.223269	-1.220985	-0.098990
O5	O	0.065355	-1.225131	0.099058
O6	O	0.144110	-1.065168	0.099055
O7	O	0.151420	-1.366898	0.099063
Cu8	Cu	0.148396	-1.214750	0.117143
Cu9	Cu	0.140229	-1.231365	-0.117075
O10	O	0.230175	-1.206935	0.099060
C11	C	0.138188	-1.033598	0.000029
C12	C	0.130824	-0.918597	0.000025
C13	C	0.040660	-1.231692	0.000029
C14	C	-0.022637	-1.230298	0.000021
C15	C	0.150436	-1.412518	0.000036
C16	C	0.157801	-1.527520	0.000032
C17	C	-0.299987	-1.232029	-0.107942
C18	C	-0.240512	-1.233323	-0.107942
O19	O	-0.212948	-1.240542	-0.199752
N20	N	-0.207009	-1.226306	0.000017
C21	C	-0.232984	-1.218003	0.107983
O22	O	-0.199025	-1.212154	0.199811
C23	C	-0.292457	-1.216716	0.107982
C24	C	-0.325957	-1.223724	0.000016
C25	C	-0.333487	-1.239037	-0.215899
C26	C	-0.392957	-1.237741	-0.215899
C27	C	-0.418927	-1.229436	-0.107941
C28	C	-0.385428	-1.222427	0.000017
C29	C	-0.318431	-1.208421	0.215947
C30	C	-0.377909	-1.207135	0.215937
C31	C	-0.411409	-1.214143	0.107971
C32	C	-0.470868	-1.212826	0.107976
N33	N	-0.504371	-1.219844	0.000016
C34	C	-0.478401	-1.228149	-0.107942
C35	C	-0.108085	-1.220708	0.107977
C36	C	-0.048613	-1.221988	0.107980
C37	C	-0.056146	-1.237310	-0.107946
C38	C	-0.115619	-1.236023	-0.107948
C39	C	-0.141588	-1.227726	0.000018
C40	C	-0.603293	-1.225424	-0.107932
C41	C	-0.662768	-1.224123	-0.107922
C42	C	-0.655230	-1.208806	0.108003
C43	C	-0.595760	-1.210102	0.107994
C44	C	-0.569793	-1.218415	0.000016
O45	O	-0.498472	-1.205614	0.199739
O46	O	-0.512366	-1.234010	-0.199754
C47	C	0.247965	-1.214424	0.000035
C48	C	0.311262	-1.215818	0.000036
N49	N	0.154140	-1.203071	0.281879
C50	C	0.219358	-0.676727	0.000044
C51	C	0.212441	-0.568672	0.000042
C52	C	0.110074	-0.594430	0.000027
C53	C	0.116991	-0.702485	0.000029
C54	C	0.171634	-0.743629	0.000036
C55	C	0.178551	-0.851686	0.000030
C56	C	0.076184	-0.877442	0.000024
C57	C	0.069268	-0.769387	0.000022
N58	N	0.134481	-1.243053	-0.281811
C59	C	0.093102	-1.327124	0.531170
C60	C	0.097447	-1.318305	0.655834
C61	C	0.167172	-1.176611	0.655871
C62	C	0.162826	-1.185430	0.531208
C63	C	0.125791	-1.260690	0.468862
C64	C	0.121449	-1.269512	0.344196
C65	C	0.191171	-1.127814	0.344236
C66	C	0.195516	-1.118996	0.468899
H67	H	-0.690041	-1.229826	-0.195845
H68	H	0.070827	-1.372401	0.706562
N69	N	0.024712	-0.949611	0.000023
H70	H	0.003689	-0.931233	0.073438
H71	H	-0.001386	-0.941616	-0.073445
N72	N	-0.305491	-1.247971	-0.332362
H73	H	-0.279866	-1.184607	-0.337174
H74	H	-0.282135	-1.313110	-0.337144
N75	N	-0.136093	-1.211752	0.224433
H76	H	-0.105841	-1.207501	0.292817
H77	H	-0.159481	-1.146649	0.229139
N78	N	-0.282308	-1.200871	0.332398
H79	H	-0.307794	-1.195424	0.400778
H80	H	-0.258597	-1.265311	0.337098
N81	N	0.207106	-1.095432	0.723126
H82	H	0.204894	-1.099926	0.811554
H83	H	0.247381	-1.108519	0.701348
H84	H	0.225668	-1.057718	0.519676
N85	N	0.226436	-1.056161	0.277033
H86	H	0.218066	-1.073167	0.188598
H87	H	0.216613	-0.981190	0.298835
H88	H	-0.582158	-1.232195	-0.195858
N89	N	-0.405918	-1.198192	0.332388
H90	H	-0.375668	-1.193950	0.400776
H91	H	-0.429304	-1.133088	0.337099
N92	N	0.237486	-0.896063	0.000049
H93	H	0.234628	-0.974668	0.000047
H94	H	0.256071	-0.876757	-0.073365
N95	N	-0.559618	-1.202533	0.224432
H96	H	-0.567193	-1.134726	0.271631
H97	H	-0.569467	-1.263238	0.271540
N98	N	-0.429087	-1.245424	-0.332348
H99	H	-0.403603	-1.250924	-0.400730
H100	H	-0.455021	-1.309491	-0.336957
H101	H	0.065589	-0.560904	0.000120
H102	H	-0.142891	-1.241727	-0.195863
N103	N	0.278290	-0.721114	0.000032
H104	H	0.307474	-0.662335	0.000029
H105	H	0.285951	-0.760179	0.073451
H106	H	0.251303	-0.514203	0.000051
H107	H	-0.021341	-1.216262	0.195897
N108	N	-0.028129	-1.246255	-0.224392
H109	H	0.014630	-1.246005	-0.207999
H110	H	-0.041288	-1.313605	-0.271545
H111	H	0.024779	-0.735871	0.000030
H112	H	-0.676386	-1.202040	0.195900
H113	H	0.091295	-1.330795	0.293435
H114	H	0.062950	-1.388410	0.480407
