data_functionalizedCrystal
_audit_creation_method	'MofGen! by Chris Wilmer'
_symmetry_space_group_name_H-M	'P1'
_symmetry_Int_Tables_number	1
_symmetry_cell_setting	triclinic
loop_
_symmetry_equiv_pos_as_xyz
  x,y,z
_cell_length_a	8.497374
_cell_length_b	8.497374
_cell_length_c	13.033293
_cell_angle_alpha	82.827197
_cell_angle_beta	97.195196
_cell_angle_gamma	90.005237
loop_
_atom_site_label
_atom_site_type_symbol
_atom_site_fract_x
_atom_site_fract_y
_atom_site_fract_z
Zn1	Zn	1.198918	0.322442	1.597595
Zn2	Zn	0.935182	0.586189	1.597586
Zn3	Zn	0.901594	0.355866	1.422890
Zn4	Zn	1.165359	0.619629	1.422865
O5	O	1.050263	0.471031	1.510234
O6	O	1.192034	0.329446	1.743830
O7	O	0.709965	0.555629	1.574419
O8	O	0.941022	0.130667	1.446079
O9	O	0.998268	0.523220	1.743824
O10	O	1.159465	0.106110	1.574434
O11	O	0.685288	0.386412	1.446071
O12	O	0.908481	0.418837	1.276650
O13	O	1.390571	0.580213	1.446036
O14	O	1.102268	0.612623	1.276631
O15	O	1.415227	0.361871	1.574409
O16	O	0.965727	0.811390	1.574395
O17	O	1.134837	0.835958	1.446028
C18	C	0.998089	0.522987	1.238723
C19	C	0.975807	0.545251	1.122570
C20	C	1.061892	0.459451	1.070788
C21	C	1.038864	0.482460	0.950737
C22	C	1.461742	0.471035	1.510226
C23	C	1.640386	0.471051	1.510228
C24	C	1.050283	0.880914	1.510221
C25	C	1.050263	1.059552	1.510248
C26	C	1.102641	0.418874	1.782804
C27	C	1.124962	0.396648	1.898958
H28	H	0.948105	0.572955	0.906197
H29	H	1.215710	0.306142	0.943497
H30	H	0.885054	0.635739	1.078025
C31	C	1.184494	0.337192	1.130948
C32	C	1.169038	0.160673	1.116021
C33	C	1.291642	0.038409	1.176176
C34	C	1.429702	0.092664	1.251258
C35	C	1.445163	0.269192	1.266188
C36	C	1.322559	0.391456	1.206033
H37	H	1.066833	0.120502	1.060438
H38	H	1.280196	-0.092269	1.165123
H39	H	1.520461	0.002157	1.295788
H40	H	1.547369	0.309363	1.321771
H41	H	1.334005	0.522134	1.217086
