data_functionalizedCrystal
_audit_creation_method	'MofGen! by Chris Wilmer'
_symmetry_space_group_name_H-M	'P1'
_symmetry_Int_Tables_number	1
_symmetry_cell_setting	triclinic
loop_
_symmetry_equiv_pos_as_xyz
  x,y,z
_cell_length_a	19.077399
_cell_length_b	19.077068
_cell_length_c	12.759393
_cell_angle_alpha	92.261232
_cell_angle_beta	92.273371
_cell_angle_gamma	94.530727
loop_
_atom_site_label
_atom_site_type_symbol
_atom_site_fract_x
_atom_site_fract_y
_atom_site_fract_z
Zn1	Zn	1.066437	-0.237326	-0.544444
Zn2	Zn	1.061603	-0.355236	-0.376103
Zn3	Zn	0.948545	-0.242097	-0.376114
Zn4	Zn	0.943778	-0.359913	-0.559065
O5	O	1.005091	-0.298643	-0.463931
O6	O	1.164445	-0.249012	-0.515990
O7	O	1.046578	-0.340267	-0.229087
O8	O	0.968202	-0.142812	-0.392328
O9	O	1.160893	-0.335640	-0.392310
O10	O	1.054817	-0.139307	-0.516000
O11	O	0.963515	-0.257145	-0.229095
O12	O	0.849264	-0.261681	-0.406506
O13	O	0.960077	-0.343613	-0.704143
O14	O	0.845762	-0.348240	-0.540920
O15	O	1.050194	-0.253548	-0.693401
O16	O	1.041956	-0.454508	-0.406488
O17	O	0.955390	-0.457945	-0.540910
C18	C	0.821935	-0.305986	-0.475301
C19	C	0.743579	-0.309144	-0.480191
C20	C	0.708573	-0.265493	-0.412613
C21	C	0.634949	-0.268467	-0.417208
C22	C	0.596333	-0.315088	-0.489387
C23	C	0.631344	-0.358744	-0.556969
C24	C	0.704966	-0.355773	-0.552368
C25	C	0.375951	-0.328816	-0.510635
C26	C	0.302324	-0.331782	-0.515233
C27	C	0.305934	-0.241505	-0.375470
C28	C	0.379558	-0.238536	-0.370880
C29	C	0.414562	-0.282194	-0.438458
N30	N	0.521077	-0.318128	-0.494088
N31	N	0.489816	-0.279158	-0.433751
C32	C	0.997650	-0.481805	-0.475306
C33	C	0.994531	-0.560160	-0.480204
C34	C	1.038171	-0.595157	-0.412572
C35	C	1.035242	-0.668780	-0.417184
C36	C	0.988669	-0.707404	-0.489424
C37	C	0.945027	-0.672402	-0.557063
C38	C	0.947961	-0.598780	-0.552455
C39	C	0.975063	-0.927783	-0.510708
C40	C	0.972132	-1.001410	-0.515309
C41	C	1.062348	-0.997783	-0.375431
C42	C	1.065274	-0.924160	-0.370825
C43	C	1.021635	-0.889164	-0.438468
N44	N	0.985672	-0.782658	-0.494137
N45	N	1.024636	-0.813911	-0.433759
C46	C	1.188963	-0.291272	-0.452518
C47	C	1.267318	-0.288131	-0.447654
C48	C	1.005143	-0.298570	-0.737957
C49	C	1.005165	-0.298539	-0.854731
C50	C	1.012580	-0.114765	-0.452534
C51	C	1.015772	-0.036407	-0.447677
C52	C	1.052096	-0.251638	-0.904001
C53	C	1.052114	-0.251612	-1.013722
C54	C	0.958268	-0.345394	-1.024895
C55	C	0.958248	-0.345416	-0.915176
C56	C	1.106279	-0.197495	-0.897551
C57	C	1.106297	-0.197469	-1.007272
C58	C	1.005082	-0.298663	-0.190966
C59	C	1.005204	-0.298490	-0.074172
H60	H	0.599896	-0.396707	-0.615734
C61	C	1.082771	-0.128437	-1.050553
N62	N	1.065059	-0.076440	-1.083153
C63	C	1.116490	-0.881679	-0.291330
N64	N	1.155058	-0.849683	-0.231442
C65	C	0.893794	-0.714891	-0.636524
N66	N	0.855201	-0.746894	-0.696371
H67	H	1.097877	-1.026284	-0.320362
H68	H	1.093878	-0.143487	-0.865306
H69	H	0.740009	-0.227524	-0.353844
C70	C	1.179254	-0.214268	-1.044151
N71	N	1.234204	-0.226923	-1.071928
H72	H	1.157336	-0.214985	-0.861509
H73	H	0.410994	-0.200577	-0.312097
H74	H	0.920068	-0.383558	-1.074123
C75	C	0.743472	-0.403792	-0.626712
N76	N	0.772474	-0.439962	-0.682708
C77	C	0.414447	-0.376841	-0.584974
N78	N	0.443444	-0.413017	-0.640969
C79	C	0.920900	-1.043895	-0.594788
N80	N	0.882315	-1.075895	-0.654649
C81	C	0.596446	-0.220441	-0.342875
N82	N	0.567446	-0.184263	-0.286886
C83	C	1.089404	-0.552677	-0.333100
N84	N	1.127996	-0.520683	-0.273241
C85	C	0.267423	-0.193489	-0.301133
N86	N	0.238416	-0.157323	-0.245137
H87	H	1.070778	-0.697271	-0.362110
H88	H	0.939529	-0.899296	-0.565784
C89	C	0.899953	-0.560284	-0.626856
N90	N	0.863795	-0.531289	-0.682900
H91	H	0.270884	-0.369746	-0.574016
H92	H	0.920030	-0.383605	-0.875065
