data_functionalizedCrystal
_audit_creation_method	'MofGen! by Chris Wilmer'
_symmetry_space_group_name_H-M	'P1'
_symmetry_Int_Tables_number	1
_symmetry_cell_setting	triclinic
loop_
_symmetry_equiv_pos_as_xyz
  x,y,z
_cell_length_a	6.817900
_cell_length_b	10.773890
_cell_length_c	10.773894
_cell_angle_alpha	96.485539
_cell_angle_beta	96.645922
_cell_angle_gamma	96.645716
loop_
_atom_site_label
_atom_site_type_symbol
_atom_site_fract_x
_atom_site_fract_y
_atom_site_fract_z
V1	V	-3.915798	-0.168034	-0.386966
O2	O	-3.940463	0.012792	-0.381691
O3	O	-3.834375	-0.337720	-0.382308
O4	O	-3.834377	-0.163379	-0.556653
O5	O	-3.940461	-0.162756	-0.206139
V6	V	-4.407984	-0.146649	-0.365582
O7	O	-4.158054	-0.214942	-0.433873
O8	O	-4.615925	-0.099741	-0.318674
O9	O	-4.266200	0.023037	-0.370240
O10	O	-4.500717	-0.327476	-0.370857
O11	O	-4.500718	-0.151928	-0.546408
O12	O	-4.266199	-0.151304	-0.195895
C13	C	-3.672411	-0.379151	-0.375684
C14	C	-3.686905	-0.517858	-0.373007
C15	C	-3.864075	-0.585666	-0.377659
C16	C	-3.879059	-0.729028	-0.374892
C17	C	-3.672413	-0.156760	-0.598077
C18	C	-3.686907	-0.154077	-0.736783
C19	C	-3.864077	-0.158727	-0.804591
C20	C	-3.879061	-0.155954	-0.947951
C21	C	-4.091506	0.064461	-0.376860
C22	C	-4.056249	0.203167	-0.379545
C23	C	-4.091506	-0.157928	-0.154464
C24	C	-4.056251	-0.160604	-0.015757
H25	H	-3.546318	-0.565941	-0.366982
O26	O	-3.711196	-0.148919	-1.005176
C27	C	-3.611989	-0.254159	-0.985279
H28	H	-3.657458	-0.293862	-0.897611
H29	H	-3.654112	-0.329471	-1.070447
C30	C	-3.329454	-0.164990	-1.074597
C31	C	-3.385287	-0.213747	-0.966915
H32	H	-3.189613	-0.140065	-1.063275
H33	H	-3.396293	-0.094089	-1.088007
H34	H	-3.364572	-0.227758	-1.145560
H35	H	-3.350191	-0.150975	-0.895957
H36	H	-3.318436	-0.284637	-0.953492
O37	O	-4.031895	-0.528410	-0.385069
C38	C	-4.158034	-0.579661	-0.496535
H39	H	-4.066156	-0.622834	-0.567988
H40	H	-4.275043	-0.655606	-0.474414
C41	C	-4.374718	-0.421708	-0.463892
C42	C	-4.261869	-0.474724	-0.551657
H43	H	-4.438777	-0.356981	-0.497892
H44	H	-4.289741	-0.387182	-0.388793
H45	H	-4.472210	-0.485007	-0.445466
H46	H	-4.164365	-0.411428	-0.570070
H47	H	-4.346833	-0.509237	-0.626761
H48	H	-3.738458	-0.777105	-0.368867
H49	H	-4.196852	-0.748759	-0.385582
H50	H	-4.004664	-0.164752	-0.756508
H51	H	-4.196855	-0.166643	-0.967683
H52	H	-3.546318	-0.148034	-0.784864
