data_functionalizedCrystal
_audit_creation_method	'MofGen! by Chris Wilmer'
_symmetry_space_group_name_H-M	'P1'
_symmetry_Int_Tables_number	1
_symmetry_cell_setting	triclinic
loop_
_symmetry_equiv_pos_as_xyz
  x,y,z
_cell_length_a	8.559649
_cell_length_b	7.540329
_cell_length_c	9.065218
_cell_angle_alpha	89.998243
_cell_angle_beta	77.397275
_cell_angle_gamma	89.997379
loop_
_atom_site_label
_atom_site_type_symbol
_atom_site_fract_x
_atom_site_fract_y
_atom_site_fract_z
O1	O	2.119402	-0.147454	-0.049968
O2	O	2.452735	0.185879	0.283365
O3	O	2.786068	0.519212	0.616698
O4	O	1.655298	-0.147462	0.026097
O5	O	1.988632	0.185872	0.359430
O6	O	2.321965	0.519205	0.692764
O7	O	1.896943	-0.147454	-0.227784
O8	O	2.230276	0.185879	0.105550
O9	O	2.563610	0.519212	0.438883
O10	O	1.877757	-0.147462	0.203912
O11	O	2.211090	0.185872	0.537246
O12	O	2.544424	0.519205	0.870579
O13	O	1.896928	0.147511	-0.227785
O14	O	2.230262	0.480844	0.105549
O15	O	2.563595	0.814178	0.438882
O16	O	1.655284	0.147503	0.026096
O17	O	1.988617	0.480837	0.359429
O18	O	2.321951	0.814170	0.692763
O19	O	2.119387	0.147511	-0.049969
O20	O	2.452720	0.480844	0.283364
O21	O	2.786054	0.814177	0.616697
Cu22	Cu	1.887334	0.174440	-0.011937
Cu23	Cu	2.220667	0.507773	0.321396
Cu24	Cu	2.554001	0.841106	0.654730
Cu25	Cu	1.887351	-0.174391	-0.011936
Cu26	Cu	2.220685	0.158943	0.321398
Cu27	Cu	2.554018	0.492276	0.654731
O28	O	1.877742	0.147503	0.203911
O29	O	2.211076	0.480837	0.537244
O30	O	2.544409	0.814170	0.870578
C31	C	1.595845	0.000020	0.031861
C32	C	1.929178	0.333353	0.365194
C33	C	2.262511	0.666687	0.698528
C34	C	1.418713	0.000017	0.049020
C35	C	1.752046	0.333350	0.382353
C36	C	2.085380	0.666684	0.715686
N37	N	1.887334	0.419788	-0.011940
N38	N	2.220667	0.753122	0.321393
N39	N	2.554000	1.086455	0.654727
N40	N	1.887364	-0.419739	-0.011946
N41	N	2.220698	-0.086406	0.321388
N42	N	2.554031	0.246928	0.654721
C43	C	2.178841	0.000025	-0.055733
C44	C	2.512174	0.333359	0.277600
C45	C	2.845507	0.666692	0.610933
C46	C	2.355972	0.000017	-0.072892
C47	C	2.689306	0.333350	0.260441
C48	C	3.022639	0.666683	0.593775
C49	C	1.895092	0.000025	-0.282539
C50	C	2.228425	0.333359	0.050794
C51	C	2.561758	0.666692	0.384128
C52	C	1.889578	0.000017	-0.445689
C53	C	2.222912	0.333350	-0.112356
C54	C	2.556245	0.666684	0.220978
C55	C	1.879594	0.000020	0.258667
C56	C	2.212927	0.333353	0.592000
C57	C	2.546260	0.666686	0.925333
C58	C	1.885107	0.000017	0.421817
C59	C	2.218440	0.333350	0.755150
C60	C	2.551774	0.666683	1.088483
H61	H	1.437769	0.000010	-0.190393
H62	H	1.771102	0.333343	0.142940
H63	H	2.104435	0.666677	0.476274
H64	H	1.336908	0.000005	0.166528
H65	H	1.670241	0.333339	0.499861
H66	H	2.003574	0.666672	0.833195
