data_functionalizedCrystal
_audit_creation_method	'MofGen! by Chris Wilmer'
_symmetry_space_group_name_H-M	'P1'
_symmetry_Int_Tables_number	1
_symmetry_cell_setting	triclinic
loop_
_symmetry_equiv_pos_as_xyz
  x,y,z
_cell_length_a	19.288864
_cell_length_b	14.044220
_cell_length_c	17.766277
_cell_angle_alpha	89.993125
_cell_angle_beta	89.976791
_cell_angle_gamma	88.162561
loop_
_atom_site_label
_atom_site_type_symbol
_atom_site_fract_x
_atom_site_fract_y
_atom_site_fract_z
O1	O	0.928949	0.118215	-0.062840
O2	O	0.727713	0.134161	-0.062789
O3	O	0.825310	-0.011784	-0.062806
O4	O	0.831351	0.264160	-0.062822
O5	O	0.825291	-0.011791	0.062383
O6	O	0.727693	0.134154	0.062400
O7	O	0.928929	0.118207	0.062349
Cu8	Cu	0.828310	0.126180	0.073805
Cu9	Cu	0.828332	0.126189	-0.074245
O10	O	0.831332	0.264152	0.062366
C11	C	0.701794	0.133645	-0.000188
C12	C	0.624591	0.132104	-0.000168
C13	C	0.585397	0.217738	-0.000185
C14	C	0.512857	0.216291	-0.000193
C15	C	0.479514	0.129205	-0.000200
C16	C	0.518717	0.043560	-0.000178
C17	C	0.591256	0.045010	-0.000163
C18	C	0.366860	0.060749	-0.044080
C19	C	0.294323	0.059303	-0.044100
C20	C	0.255781	0.124731	-0.000245
C21	C	0.289785	0.191621	0.043621
C22	C	0.362323	0.193071	0.043637
C23	C	0.400858	0.127624	-0.000216
C24	C	0.137930	0.208802	-0.000270
C25	C	0.065389	0.207351	-0.000273
C26	C	0.071251	0.034617	-0.000266
C27	C	0.143790	0.036071	-0.000255
C28	C	0.177126	0.123165	-0.000260
C29	C	0.822656	-0.047091	-0.000211
C30	C	0.814768	-0.152283	-0.000208
C31	C	0.800348	-0.344882	-0.000215
C32	C	0.856291	-0.402755	-0.000231
C33	C	0.848267	-0.509924	-0.000235
C34	C	0.808370	-0.237703	-0.000211
C35	C	0.954848	0.118724	-0.000254
C36	C	1.032051	0.120264	-0.000278
C37	C	0.833986	0.299459	-0.000231
C38	C	0.841874	0.404651	-0.000239
N39	N	0.828299	0.126173	0.177935
N40	N	0.828348	0.126188	-0.178375
C41	C	0.871532	0.061580	0.217315
C42	C	0.871536	0.061576	0.296116
C43	C	0.828314	0.126181	0.335536
C44	C	0.785072	0.190779	0.296147
C45	C	0.785064	0.190775	0.217347
C46	C	0.824563	0.212524	0.460370
C47	C	0.824575	0.212529	0.539169
C48	C	0.828333	0.126192	0.578582
C49	C	0.832093	0.039847	0.539187
C50	C	0.832085	0.039843	0.460387
C51	C	0.828317	0.126192	0.420982
C52	C	0.871573	0.061589	0.703407
C53	C	0.871572	0.061583	0.782211
C54	C	0.785111	0.190794	0.782240
C55	C	0.785109	0.190792	0.703438
C56	C	0.828343	0.126190	0.664027
H57	H	0.165073	0.279719	-0.000263
H58	H	0.746431	-0.375822	-0.000203
H59	H	0.033478	0.277088	-0.000283
H60	H	0.623168	-0.024726	-0.000149
H61	H	0.821518	0.282836	0.571239
H62	H	0.480939	0.286027	-0.000205
H63	H	0.910212	-0.371814	-0.000296
O64	O	0.486363	-0.041060	-0.000055
C65	C	0.505845	-0.093260	0.064779
H66	H	0.524044	-0.042333	0.110100
H67	H	0.549786	-0.146268	0.050134
C68	C	0.420832	-0.210021	0.038499
C69	C	0.443179	-0.147470	0.094165
H70	H	0.382178	-0.243464	0.056624
H71	H	0.407708	-0.174855	-0.005183
H72	H	0.457456	-0.254185	0.026300
H73	H	0.406559	-0.103300	0.106356
H74	H	0.456295	-0.182630	0.137849
O75	O	0.913544	-0.001270	0.179148
C76	C	0.951716	-0.058268	0.230810
H77	H	0.923186	-0.059233	0.286998
H78	H	1.005206	-0.027675	0.239156
C79	C	0.994738	-0.159364	0.131058
C80	C	0.959693	-0.160557	0.200067
H81	H	0.999662	-0.222460	0.112094
H82	H	0.969022	-0.120962	0.096252
H83	H	1.039309	-0.133866	0.138022
H84	H	0.915120	-0.186044	0.193101
H85	H	0.985401	-0.198966	0.234872
O86	O	0.617888	0.302256	-0.000234
C87	C	0.690318	0.285178	-0.000207
H88	H	0.702755	0.211145	-0.023883
H89	H	0.710738	0.289706	0.059852
C90	C	0.709776	0.451339	-0.020243
C91	C	0.725052	0.360414	-0.049329
H92	H	0.731203	0.497750	-0.050541
H93	H	0.660979	0.462847	-0.020259
H94	H	0.726794	0.455099	0.029806
H95	H	0.708027	0.356651	-0.099373
H96	H	0.773848	0.348907	-0.049322
H97	H	0.906743	0.008975	0.328185
O98	O	0.835704	-0.044112	0.422235
C99	C	0.839041	-0.120320	0.473911
H100	H	0.816146	-0.095841	0.530095
H101	H	0.895445	-0.144765	0.482259
C102	C	0.825542	-0.233673	0.374181
C103	C	0.797417	-0.203611	0.443185
H104	H	0.799870	-0.285053	0.355227
H105	H	0.823297	-0.182332	0.339365
H106	H	0.872545	-0.254038	0.381147
H107	H	0.750418	-0.183235	0.436216
H108	H	0.799654	-0.254951	0.477999
H109	H	0.390006	0.247532	0.079357
O110	O	0.252443	0.255387	0.086129
C111	C	0.267129	0.348674	0.063084
H112	H	0.287125	0.347124	0.002692
H113	H	0.308280	0.378793	0.101617
C114	C	0.176014	0.413886	0.141611
C115	C	0.200567	0.411983	0.067435
H116	H	0.134957	0.452940	0.144298
H117	H	0.166121	0.351038	0.157140
H118	H	0.210313	0.438983	0.173715
H119	H	0.166272	0.386876	0.035335
H120	H	0.210453	0.474829	0.051900
H121	H	0.835153	-0.030457	0.571275
O122	O	0.913583	-0.001260	0.665234
C123	C	0.951751	-0.058266	0.716894
H124	H	0.923219	-0.059237	0.773080
H125	H	1.005242	-0.027677	0.725244
C126	C	0.994774	-0.159353	0.617137
C127	C	0.959727	-0.160552	0.686144
H128	H	0.999697	-0.222447	0.598168
H129	H	0.969062	-0.120946	0.582332
H130	H	1.039346	-0.133858	0.624105
H131	H	0.915153	-0.186036	0.679173
H132	H	0.985432	-0.198966	0.720947
H133	H	0.906775	0.008979	0.814274
O134	O	0.743161	0.253681	0.820440
C135	C	0.760267	0.347451	0.801180
H136	H	0.787022	0.347242	0.743952
H137	H	0.796649	0.376638	0.845508
C138	C	0.660803	0.410996	0.867857
C139	C	0.693658	0.410740	0.797565
H140	H	0.619716	0.450037	0.865631
H141	H	0.649279	0.347822	0.880836
H142	H	0.691129	0.435316	0.904790
H143	H	0.663336	0.386409	0.760637
H144	H	0.705175	0.473912	0.784581
O145	O	0.743044	0.253418	0.665145
C146	C	0.697069	0.202820	0.619577
H147	H	0.691265	0.128091	0.643337
H148	H	0.718493	0.197773	0.559847
C149	C	0.632879	0.347096	0.589212
C150	C	0.625745	0.255316	0.618397
H151	H	0.588884	0.379479	0.588480
H152	H	0.663854	0.381187	0.619909
H153	H	0.650734	0.342877	0.539439
H154	H	0.607899	0.259536	0.668172
H155	H	0.594765	0.221228	0.587708
O156	O	0.038760	-0.049896	-0.000307
C157	C	-0.033670	-0.032815	-0.000304
H158	H	-0.046083	0.041212	-0.024008
H159	H	-0.054149	-0.037327	0.059752
C160	C	-0.053112	-0.198981	-0.020290
C161	C	-0.068358	-0.108063	-0.049410
H162	H	-0.074510	-0.245399	-0.050578
H163	H	-0.004314	-0.210490	-0.020290
H164	H	-0.070178	-0.202727	0.029755
H165	H	-0.051284	-0.104314	-0.099451
H166	H	-0.117153	-0.096555	-0.049420
O167	O	0.820948	0.296485	0.422205
C168	C	0.817625	0.372692	0.473870
H169	H	0.840526	0.348209	0.530035
H170	H	0.761225	0.397148	0.482273
C171	C	0.831122	0.486043	0.374105
C172	C	0.859254	0.455975	0.443085
H173	H	0.856797	0.537418	0.355115
H174	H	0.833357	0.434702	0.339296
H175	H	0.784122	0.506417	0.381116
H176	H	0.906250	0.435590	0.436071
H177	H	0.857027	0.507315	0.477892
O178	O	0.743050	0.253407	0.334520
C179	C	0.697064	0.202804	0.380121
H180	H	0.720132	0.128556	0.391922
H181	H	0.645341	0.196540	0.349783
C182	C	0.657207	0.347481	0.440479
C183	C	0.685543	0.256291	0.454978
H184	H	0.650097	0.380475	0.486654
H185	H	0.688186	0.381574	0.409755
H186	H	0.614107	0.342249	0.415196
H187	H	0.728645	0.261525	0.480252
H188	H	0.654570	0.222200	0.485709
H189	H	0.749858	0.243375	0.185284
H190	H	0.266642	0.004841	-0.079822
O191	O	0.181763	-0.047203	-0.000280
C192	C	0.136782	-0.124380	-0.000268
H193	H	0.084228	-0.100094	-0.023981
H194	H	0.129936	-0.151093	0.059791
C195	C	0.232436	-0.235234	-0.020229
C196	C	0.167889	-0.205407	-0.049359
H197	H	0.251625	-0.285218	-0.050507
H198	H	0.262741	-0.183239	-0.020234
H199	H	0.226721	-0.257489	0.029820
H200	H	0.173606	-0.183142	-0.099403
H201	H	0.137586	-0.257401	-0.049363
H202	H	0.398235	0.007467	-0.079797
