data_functionalizedCrystal
_audit_creation_method	'MofGen! by Chris Wilmer'
_symmetry_space_group_name_H-M	'P1'
_symmetry_Int_Tables_number	1
_symmetry_cell_setting	triclinic
loop_
_symmetry_equiv_pos_as_xyz
  x,y,z
_cell_length_a	12.827893
_cell_length_b	25.639234
_cell_length_c	12.827892
_cell_angle_alpha	90.015811
_cell_angle_beta	89.982699
_cell_angle_gamma	89.981399
loop_
_atom_site_label
_atom_site_type_symbol
_atom_site_fract_x
_atom_site_fract_y
_atom_site_fract_z
Zn1	Zn	1.597649	-0.295625	0.416097
Zn2	Zn	1.597539	-0.208204	0.590841
Zn3	Zn	1.422892	-0.208206	0.416115
Zn4	Zn	1.422869	-0.295610	0.590797
O5	O	1.510237	-0.251911	0.503463
O6	O	1.743870	-0.284034	0.439289
O7	O	1.574335	-0.135039	0.567689
O8	O	1.446129	-0.219810	0.269876
O9	O	1.743789	-0.219806	0.567672
O10	O	1.574522	-0.284036	0.269864
O11	O	1.446023	-0.135040	0.439318
O12	O	1.276653	-0.219795	0.439275
O13	O	1.446091	-0.368777	0.567597
O14	O	1.276636	-0.284010	0.567614
O15	O	1.574500	-0.368789	0.439246
O16	O	1.574313	-0.219791	0.737071
O17	O	1.445984	-0.284008	0.737039
C18	C	1.238727	-0.251901	0.503442
C19	C	1.122574	-0.251909	0.503459
C20	C	1.070809	-0.283636	0.567064
C21	C	0.950758	-0.283645	0.567083
C22	C	1.510305	-0.388284	0.503415
C23	C	1.510334	-0.446398	0.503395
C24	C	1.443551	-0.806768	0.436427
C25	C	1.443557	-0.861372	0.436408
O26	O	1.386723	-0.889614	0.379586
N27	N	1.510369	-0.888681	0.503231
C28	C	1.577172	-0.861383	0.570084
O29	O	1.634000	-0.889625	0.626920
C30	C	1.577160	-0.806779	0.570107
C31	C	1.510351	-0.779473	0.503273
C32	C	1.376747	-0.779462	0.369600
C33	C	1.376743	-0.724861	0.369617
C34	C	1.443543	-0.697567	0.436463
C35	C	1.510347	-0.724873	0.503291
C36	C	1.643957	-0.779482	0.636964
C37	C	1.643939	-0.724875	0.636983
C38	C	1.577131	-0.697569	0.570149
C39	C	1.577144	-0.642978	0.570154
N40	N	1.510332	-0.615669	0.503332
C41	C	1.443531	-0.642963	0.436486
C42	C	1.577190	-0.976053	0.570031
C43	C	1.577208	-1.030656	0.570003
C44	C	1.443591	-1.030641	0.436329
C45	C	1.443579	-0.976038	0.436352
C46	C	1.510378	-0.948744	0.503208
C47	C	1.443529	-0.528298	0.436528
C48	C	1.443534	-0.473693	0.436549
C49	C	1.577146	-0.473712	0.570226
C50	C	1.577146	-0.528312	0.570202
C51	C	1.510328	-0.555604	0.503350
O52	O	1.633946	-0.614701	0.626951
O53	O	1.386703	-0.614715	0.379669
C54	C	1.782807	-0.251921	0.503484
C55	C	1.898960	-0.251926	0.503492
C56	C	1.510163	-0.251909	0.774972
C57	C	1.510226	-0.251925	0.891126
C58	C	1.510230	-0.116069	0.503435
C59	C	1.510403	-0.057955	0.503161
C60	C	1.573801	-0.220185	0.942892
C61	C	1.573869	-0.220202	1.062942
C62	C	1.510332	-0.251931	1.230892
C63	C	1.510351	-0.251956	1.114739
H64	H	0.906241	-0.310806	0.621540
Br65	Br	1.145065	-0.328899	0.657811
H66	H	1.698359	-0.801705	0.691389
H67	H	1.455852	-0.279113	0.935683
H68	H	1.322336	-0.702634	0.315198
Br69	Br	1.286061	-0.816494	0.278884
H70	H	1.389121	-0.550513	0.382090
H71	H	0.943471	-0.224760	0.449039
H72	H	1.078016	-0.224756	0.449014
Br73	Br	1.664452	-0.174876	0.868637
H74	H	1.389178	-0.953809	0.381929
Br75	Br	1.667862	-0.939017	0.660766
Br76	Br	1.667807	-0.436659	0.660934
H77	H	1.389198	-1.052875	0.381900
Br78	Br	1.352863	-0.436638	0.345835
H79	H	1.631558	-0.550546	0.624612
Br80	Br	1.667897	-1.067707	0.660693
Br81	Br	1.419615	-0.297247	1.040554
H82	H	1.698343	-0.702655	0.691420
H83	H	1.628294	-0.193026	1.107460
