data_functionalizedCrystal
_audit_creation_method	'MofGen! by Chris Wilmer'
_symmetry_space_group_name_H-M	'P1'
_symmetry_Int_Tables_number	1
_symmetry_cell_setting	triclinic
loop_
_symmetry_equiv_pos_as_xyz
  x,y,z
_cell_length_a	15.995363
_cell_length_b	12.837942
_cell_length_c	11.892095
_cell_angle_alpha	85.697431
_cell_angle_beta	93.896133
_cell_angle_gamma	89.163168
loop_
_atom_site_label
_atom_site_type_symbol
_atom_site_fract_x
_atom_site_fract_y
_atom_site_fract_z
O1	O	-1.126465	-0.127059	-0.093919
O2	O	-0.626465	0.372941	0.406081
O3	O	-0.884008	-0.143544	-0.093939
O4	O	-0.384008	0.356456	0.406061
O5	O	-0.999860	0.015601	-0.093923
O6	O	-0.499860	0.515601	0.406077
O7	O	-1.010613	-0.286204	-0.093936
O8	O	-0.510613	0.213796	0.406064
O9	O	-0.990199	0.002352	0.094083
O10	O	-0.490199	0.502352	0.594083
O11	O	-0.874347	-0.156793	0.094067
O12	O	-0.374347	0.343207	0.594067
O13	O	-1.116804	-0.140307	0.094087
O14	O	-0.616804	0.359693	0.594087
Zn15	Zn	-0.994042	-0.150654	0.123927
Zn16	Zn	-0.494042	0.349346	0.623927
Zn17	Zn	-1.006771	-0.133198	-0.123779
Zn18	Zn	-0.506771	0.366802	0.376221
O19	O	-1.000952	-0.299453	0.094070
O20	O	-0.500952	0.200547	0.594070
C21	C	-0.847928	-0.149484	0.000061
C22	C	-0.347928	0.350516	0.500061
C23	C	-0.754815	-0.147434	0.000054
C24	C	-0.254815	0.352566	0.500054
N25	N	-0.985361	-0.162566	0.292980
N26	N	-0.485361	0.337434	0.792980
C27	C	-0.991397	0.047598	0.000080
C28	C	-0.491397	0.547598	0.500080
C29	C	-0.980564	0.162676	0.000077
C30	C	-0.480564	0.662676	0.500077
C31	C	-0.416481	-0.140073	0.000081
C32	C	0.083519	0.359927	0.500081
C33	C	-0.454850	-0.026759	0.000505
C34	C	0.045150	0.473241	0.500505
C35	C	-0.551725	-0.028779	0.000072
C36	C	-0.051725	0.471221	0.500072
C37	C	-0.584333	-0.143724	0.000068
C38	C	-0.084333	0.356276	0.500068
C39	C	-0.553223	-0.192063	-0.107290
C40	C	-0.053223	0.307937	0.392710
C41	C	-0.456364	-0.189204	-0.107371
C42	C	0.043636	0.310796	0.392629
C43	C	-0.445226	-0.206612	0.106427
C44	C	0.054774	0.293388	0.606427
C45	C	-0.542096	-0.206690	0.107837
C46	C	-0.042096	0.293310	0.607837
C47	C	-0.679195	-0.145793	0.000057
C48	C	-0.179195	0.354207	0.500057
C49	C	-0.321619	-0.138007	0.000085
C50	C	0.178381	0.361993	0.500085
C51	C	-0.152884	-0.134353	0.000087
C52	C	0.347116	0.365647	0.500087
C53	C	-0.245998	-0.136363	0.000096
C54	C	0.254002	0.363637	0.500096
C55	C	-1.009415	-0.331449	0.000066
C56	C	-0.509415	0.168551	0.500066
C57	C	-1.020249	-0.446526	0.000061
C58	C	-0.520249	0.053474	0.500061
C59	C	-1.110802	0.403628	0.000064
C60	C	-0.610802	0.903628	0.500064
C61	C	-1.100627	0.511754	0.000061
C62	C	-0.600627	1.011754	0.500061
C63	C	-0.950040	0.487058	0.000060
C64	C	-0.450040	0.987058	0.500060
C65	C	-0.960215	0.378931	0.000063
C66	C	-0.460215	0.878931	0.500063
C67	C	-1.040599	0.337220	0.000067
C68	C	-0.540599	0.837220	0.500067
C69	C	-1.050772	0.229091	0.000077
C70	C	-0.550772	0.729091	0.500077
C71	C	-0.900187	0.204398	0.000069
C72	C	-0.400187	0.704398	0.500069
C73	C	-0.890012	0.312524	0.000066
C74	C	-0.390012	0.812524	0.500066
N75	N	-1.015458	-0.121277	-0.292832
N76	N	-0.515458	0.378723	0.207168
C77	C	-1.075860	-0.038325	0.529641
C78	C	-0.575860	0.461675	1.029641
C79	C	-1.069799	-0.046659	0.647982
C80	C	-0.569799	0.453341	1.147982
C81	C	-0.967172	-0.187564	0.648005
C82	C	-0.467172	0.312436	1.148005
C83	C	-0.973234	-0.179229	0.529664
C84	C	-0.473234	0.320771	1.029664
C85	C	-1.027580	-0.104608	0.470486
C86	C	-0.527580	0.395392	0.970486
C87	C	-1.033646	-0.096280	0.352143
C88	C	-0.533646	0.403720	0.852143
C89	C	-0.931015	-0.237179	0.352168
C90	C	-0.431015	0.262821	0.852168
C91	C	-0.924954	-0.245513	0.470509
C92	C	-0.424954	0.254487	0.970509
H93	H	-0.572693	0.009741	0.077032
H94	H	-0.072693	0.509741	0.577032
Br95	Br	-1.195908	0.601878	0.000050
Br96	Br	-0.695908	1.101878	0.500050
H97	H	-1.077900	-0.035523	0.303961
H98	H	-0.577900	0.464477	0.803961
H99	H	-0.884596	0.521040	0.000045
H100	H	-0.384596	1.021040	0.500045
Br101	Br	-0.804903	0.114266	0.000092
Br102	Br	-0.304903	0.614266	0.500092
H103	H	-0.880704	-0.306265	0.518706
H104	H	-0.380704	0.193735	1.018706
Br105	Br	-0.780926	0.369143	0.000047
Br106	Br	-0.280926	0.869143	0.500047
H107	H	-0.420095	-0.290231	0.107151
H108	H	0.079905	0.209769	0.607151
H109	H	-1.120118	0.022428	0.481457
H110	H	-0.620118	0.522428	0.981457
H111	H	-0.417552	-0.175290	0.187803
H112	H	0.082448	0.324710	0.687803
Br113	Br	-1.135320	0.043306	0.728261
Br114	Br	-0.635320	0.543306	1.228261
Br115	Br	-0.893408	-0.288815	0.728329
Br116	Br	-0.393408	0.211185	1.228329
Br117	Br	-1.219888	0.347012	0.000104
Br118	Br	-0.719888	0.847012	0.500104
H119	H	-0.428756	0.013124	0.077497
H120	H	0.071244	0.513124	0.577497
Br121	Br	-0.422746	0.057413	-0.127094
Br122	Br	0.077254	0.557413	0.372906
Br123	Br	-0.865498	-0.327148	0.271877
Br124	Br	-0.365498	0.172852	0.771877
H125	H	-0.580015	0.020894	-0.077017
H126	H	-0.080015	0.520894	0.422983
H127	H	-0.438927	-0.142779	-0.187621
H128	H	0.061073	0.357221	0.312379
H129	H	-0.431006	-0.272076	-0.112245
H130	H	0.068994	0.227924	0.387755
H131	H	-0.574291	-0.276228	-0.111285
H132	H	-0.074291	0.223772	0.388715
H133	H	-1.116224	0.195132	0.000085
H134	H	-0.616224	0.695132	0.500085
H135	H	-0.582605	-0.147604	-0.187186
H136	H	-0.082605	0.352396	0.312814
H137	H	-0.562075	-0.171477	0.187261
H138	H	-0.062075	0.328523	0.687261
H139	H	-0.563816	-0.290968	0.114319
H140	H	-0.063816	0.209032	0.614319
