data_functionalizedCrystal
_audit_creation_method	'MofGen! by Chris Wilmer'
_symmetry_space_group_name_H-M	'P1'
_symmetry_Int_Tables_number	1
_symmetry_cell_setting	triclinic
loop_
_symmetry_equiv_pos_as_xyz
  x,y,z
_cell_length_a	14.519731
_cell_length_b	10.654559
_cell_length_c	9.730223
_cell_angle_alpha	90.001240
_cell_angle_beta	89.999699
_cell_angle_gamma	84.088769
loop_
_atom_site_label
_atom_site_type_symbol
_atom_site_fract_x
_atom_site_fract_y
_atom_site_fract_z
O1	O	1.224708	0.164744	-0.114285
O2	O	0.956335	0.184103	-0.114286
O3	O	1.096688	-0.008373	-0.114285
O4	O	1.084356	0.357221	-0.114285
O5	O	1.096686	-0.008369	0.114295
O6	O	0.956333	0.184108	0.114294
O7	O	1.224707	0.164749	0.114295
Zn8	Zn	1.090520	0.174429	0.150587
Zn9	Zn	1.090522	0.174423	-0.150577
O10	O	1.084354	0.357226	0.114294
C11	C	0.921970	0.183198	0.000004
C12	C	0.819576	0.180480	0.000003
C13	C	0.736420	0.178272	-0.000003
C14	C	0.632097	0.175512	-0.000003
C15	C	0.548946	0.173322	-0.000003
C16	C	0.444616	0.170562	-0.000006
C17	C	1.095780	-0.055160	0.000002
C18	C	1.093065	-0.194577	-0.000007
C19	C	1.259072	0.165654	0.000002
C20	C	1.361466	0.168372	-0.000006
C21	C	1.007876	-0.245307	-0.000011
C22	C	1.005332	-0.376305	-0.000000
C23	C	1.173172	-0.405833	0.000012
C24	C	1.175716	-0.274837	0.000012
C25	C	0.910975	-0.228260	-0.000024
C26	C	0.908430	-0.359258	-0.000013
C27	C	1.085262	0.404012	0.000004
C28	C	1.087976	0.543429	0.000004
N29	N	1.090525	0.174433	0.356123
N30	N	1.090524	0.174409	-0.356114
C31	C	1.152689	0.089233	0.428049
C32	C	1.152687	0.089218	0.571932
C33	C	1.028353	0.259613	0.571950
C34	C	1.028352	0.259621	0.428070
C35	C	1.224475	-0.009140	0.428040
C36	C	1.224473	-0.009155	0.571923
H37	H	1.245084	-0.233540	0.000032
O38	O	0.862618	-0.172489	0.126688
H39	H	0.789525	-0.194414	0.126615
H40	H	0.881701	-0.182342	-0.098721
H41	H	0.977725	0.328987	0.369508
H42	H	0.877551	-0.394588	0.098673
O43	O	0.858249	-0.397707	-0.126725
H44	H	0.835709	-0.312643	-0.188775
O45	O	0.961303	0.351504	0.649547
H46	H	0.971750	0.337191	0.761681
H47	H	1.202065	-0.100164	0.616539
H48	H	1.208727	-0.105522	0.388986
O49	O	1.313171	0.030505	0.368907
H50	H	1.360197	0.051514	0.453915
H51	H	1.295343	0.011689	0.610974
H52	H	1.240463	-0.471197	0.000028
