data_functionalizedCrystal
_audit_creation_method	'MofGen! by Chris Wilmer'
_symmetry_space_group_name_H-M	'P1'
_symmetry_Int_Tables_number	1
_symmetry_cell_setting	triclinic
loop_
_symmetry_equiv_pos_as_xyz
  x,y,z
_cell_length_a	10.723023
_cell_length_b	14.044190
_cell_length_c	9.198806
_cell_angle_alpha	89.991997
_cell_angle_beta	89.996513
_cell_angle_gamma	88.829662
loop_
_atom_site_label
_atom_site_type_symbol
_atom_site_fract_x
_atom_site_fract_y
_atom_site_fract_z
O1	O	1.670503	0.133036	-0.120896
O2	O	1.308625	0.145772	-0.120904
O3	O	1.484127	0.001384	-0.120871
O4	O	1.495000	0.277424	-0.120928
O5	O	1.484112	0.001384	0.120914
O6	O	1.308609	0.145771	0.120881
O7	O	1.670487	0.133036	0.120889
Cu8	Cu	1.489547	0.139404	0.142962
Cu9	Cu	1.489565	0.139404	-0.142977
O10	O	1.494985	0.277424	0.120857
C11	C	1.262025	0.144845	-0.000012
C12	C	1.123193	0.142073	-0.000013
C13	C	1.061289	0.140836	0.125238
C14	C	0.917799	0.137971	0.125239
C15	C	1.479363	-0.033962	0.000025
C16	C	1.465175	-0.139280	0.000038
C17	C	1.539861	-0.389081	-0.000017
C18	C	1.439257	-0.332106	-0.000010
C19	C	1.453681	-0.224808	0.000017
C20	C	1.525438	-0.496389	-0.000044
C21	C	1.717087	0.133963	-0.000006
C22	C	1.855919	0.136735	-0.000014
C23	C	1.499749	0.312769	-0.000043
C24	C	1.513937	0.418088	-0.000065
N25	N	1.489543	0.139403	0.344076
N26	N	1.489578	0.139398	-0.344091
C27	C	1.563205	0.078511	0.416287
C28	C	1.563224	0.078508	0.583699
H29	H	1.114521	0.141894	0.232469
C30	C	1.404372	0.209832	0.572040
C31	C	1.261904	0.207065	0.591977
C32	C	1.176698	0.277499	0.508095
C33	C	1.233962	0.350699	0.404276
C34	C	1.376438	0.353468	0.384334
C35	C	1.461643	0.283034	0.468216
H36	H	1.219507	0.152876	0.668835
H37	H	1.071228	0.275449	0.522858
H38	H	1.170888	0.402839	0.342182
H39	H	1.418835	0.407658	0.307477
H40	H	1.567114	0.285085	0.453453
H41	H	1.426488	0.191529	0.406193
H42	H	1.636816	-0.357277	-0.000000
H43	H	0.864563	0.136913	0.232470
H44	H	0.909146	0.137804	-0.107251
C45	C	1.051294	0.140637	-0.144886
C46	C	1.074129	0.058768	-0.253631
C47	C	1.002234	0.057333	-0.398509
C48	C	0.907504	0.137766	-0.434641
C49	C	0.884666	0.219640	-0.325893
C50	C	0.956561	0.221076	-0.181016
H51	H	1.144257	-0.000779	-0.226886
H52	H	1.019141	-0.003277	-0.479011
H53	H	0.854283	0.136703	-0.541888
H54	H	0.814537	0.279187	-0.352638
H55	H	0.939653	0.281686	-0.100513
C56	C	1.308264	-0.375069	-0.000009
C57	C	1.217236	-0.352842	-0.125548
C58	C	1.086250	-0.395812	-0.125540
C59	C	1.046293	-0.461008	0.000008
C60	C	1.137324	-0.483238	0.125557
C61	C	1.268309	-0.440268	0.125548
H62	H	1.246812	-0.304577	-0.218495
H63	H	1.018863	-0.379355	-0.218479
H64	H	0.949330	-0.492816	0.000015
H65	H	1.107747	-0.531503	0.218503
H66	H	1.335696	-0.456724	0.218488
H67	H	1.626294	0.026379	0.645797
H68	H	1.626252	0.026378	0.354172
