data_functionalizedCrystal
_audit_creation_method	'MofGen! by Chris Wilmer'
_symmetry_space_group_name_H-M	'P1'
_symmetry_Int_Tables_number	1
_symmetry_cell_setting	triclinic
loop_
_symmetry_equiv_pos_as_xyz
  x,y,z
_cell_length_a	13.033409
_cell_length_b	13.032721
_cell_length_c	12.827885
_cell_angle_alpha	82.851130
_cell_angle_beta	82.829104
_cell_angle_gamma	89.138002
loop_
_atom_site_label
_atom_site_type_symbol
_atom_site_fract_x
_atom_site_fract_y
_atom_site_fract_z
Zn1	Zn	1.520147	-0.608846	0.474704
Zn2	Zn	1.498183	-0.780839	0.324587
Zn3	Zn	1.348171	-0.587079	0.319097
Zn4	Zn	1.326313	-0.758955	0.518378
O5	O	1.423204	-0.683930	0.409191
O6	O	1.661135	-0.649929	0.438811
O7	O	1.478239	-0.755185	0.177635
O8	O	1.389323	-0.446056	0.319163
O9	O	1.644997	-0.776292	0.328521
O10	O	1.515674	-0.462048	0.433487
O11	O	1.368025	-0.612830	0.173601
O12	O	1.201370	-0.591611	0.361511
O13	O	1.352071	-0.738995	0.658809
O14	O	1.185312	-0.717888	0.507923
O15	O	1.494480	-0.628710	0.626722
O16	O	1.457044	-0.921847	0.370870
O17	O	1.330773	-0.905769	0.513247
C18	C	1.156029	-0.650013	0.438861
C19	C	1.041728	-0.635528	0.451582
C20	C	0.864656	-0.676526	0.415721
C21	C	0.982792	-0.691500	0.402569
C22	C	1.389181	-0.951126	0.447413
C23	C	1.374720	-1.065445	0.463789
C24	C	1.430805	-1.124340	0.400686
C25	C	1.415861	-1.242495	0.417609
C26	C	1.691421	-0.717980	0.379407
C27	C	1.805719	-0.732490	0.366714
C28	C	1.423287	-0.683839	0.681740
C29	C	1.423323	-0.683801	0.797883
C30	C	1.457387	-0.415694	0.370840
C31	C	1.471954	-0.301388	0.354497
C32	C	1.423189	-0.683953	0.137686
C33	C	1.423389	-0.683728	0.021480
C34	C	1.493835	-0.629178	0.953823
C35	C	1.493799	-0.629217	0.833782
H36	H	0.842720	-0.791494	0.315027
C37	C	1.341839	-0.746896	0.876383
H38	H	1.297614	-0.781140	0.838288
H39	H	1.375518	-0.796650	0.920991
H40	H	1.302098	-0.701813	0.918296
C41	C	1.336044	-1.292530	0.507528
H42	H	1.302800	-1.240258	0.544929
H43	H	1.285989	-1.328831	0.478463
H44	H	1.370112	-1.339358	0.554680
H45	H	1.489890	-1.087291	0.334135
H46	H	1.363056	-0.730462	0.990533
C47	C	1.551750	-1.251348	0.264562
H48	H	1.551314	-1.178498	0.264970
H49	H	1.618648	-1.277590	0.274700
H50	H	1.534495	-1.267073	0.198517
H51	H	0.827654	-0.617531	0.467420
H52	H	1.315644	-1.102498	0.530346
C53	C	1.575345	-0.566043	0.995618
H54	H	1.564670	-0.574293	1.070816
H55	H	1.642534	-0.589850	0.972259
H56	H	1.569102	-0.495023	0.969573
C57	C	1.575278	-0.566125	0.755272
H58	H	1.564570	-0.574433	0.684891
H59	H	1.569061	-0.495098	0.764895
H60	H	1.642478	-0.589937	0.767582
H61	H	1.004732	-0.576528	0.503283
C62	C	1.032764	-0.771207	0.332729
H63	H	1.105609	-0.770811	0.333044
H64	H	1.006423	-0.838116	0.359729
H65	H	1.017101	-0.753852	0.262315
