data_functionalizedCrystal
_audit_creation_method	'MofGen! by Chris Wilmer'
_symmetry_space_group_name_H-M	'P1'
_symmetry_Int_Tables_number	1
_symmetry_cell_setting	triclinic
loop_
_symmetry_equiv_pos_as_xyz
  x,y,z
_cell_length_a	16.959455
_cell_length_b	16.959454
_cell_length_c	18.215399
_cell_angle_alpha	89.973895
_cell_angle_beta	89.982045
_cell_angle_gamma	90.019023
loop_
_atom_site_label
_atom_site_type_symbol
_atom_site_fract_x
_atom_site_fract_y
_atom_site_fract_z
Zn1	Zn	1.208393	-0.314693	-0.416160
Zn2	Zn	1.208313	-0.446884	-0.293103
Zn3	Zn	1.076219	-0.314721	-0.293105
Zn4	Zn	1.076187	-0.446831	-0.416125
O5	O	1.142278	-0.380782	-0.354623
O6	O	1.318994	-0.332239	-0.399850
O7	O	1.190770	-0.429386	-0.190119
O8	O	1.093799	-0.204106	-0.309444
O9	O	1.318935	-0.429359	-0.309440
O10	O	1.190907	-0.204086	-0.399852
O11	O	1.093722	-0.332287	-0.190120
O12	O	0.965604	-0.332235	-0.309410
O13	O	1.093744	-0.429269	-0.519114
O14	O	0.965580	-0.429296	-0.399793
O15	O	1.190876	-0.332188	-0.519140
O16	O	1.190739	-0.557488	-0.309406
O17	O	1.093666	-0.557449	-0.399791
C18	C	0.936912	-0.380763	-0.354598
C19	C	0.849055	-0.380774	-0.354605
C20	C	1.142212	-0.586149	-0.354611
C21	C	1.142256	-0.674005	-0.354630
C22	C	0.807770	-0.330167	-0.307622
C23	C	0.807787	-0.431387	-0.401599
C24	C	0.725241	-0.431396	-0.401609
C25	C	0.683956	-0.380789	-0.354627
C26	C	0.725217	-0.330173	-0.307633
C27	C	0.683974	-0.482006	-0.448607
C28	C	0.601423	-0.482017	-0.448620
C29	C	0.560136	-0.431413	-0.401634
C30	C	0.601402	-0.380795	-0.354638
C31	C	0.560117	-0.330188	-0.307655
C32	C	0.601382	-0.279574	-0.260655
C33	C	0.683930	-0.279569	-0.260646
C34	C	0.477588	-0.431417	-0.401642
C35	C	0.477564	-0.330194	-0.307666
C36	C	1.091806	-1.045490	-0.401681
C37	C	1.192971	-1.045471	-0.307640
C38	C	1.192943	-0.962925	-0.307633
C39	C	1.142345	-0.921658	-0.354650
C40	C	1.091775	-0.962937	-0.401674
C41	C	1.243507	-0.921640	-0.260605
C42	C	1.243481	-0.839089	-0.260596
C43	C	1.192886	-0.797821	-0.307617
C44	C	1.142314	-0.839105	-0.354643
C45	C	1.091716	-0.797837	-0.401661
C46	C	1.041148	-0.839120	-0.448691
C47	C	1.041180	-0.921668	-0.448695
C48	C	1.192854	-0.715272	-0.307613
C49	C	1.091685	-0.715284	-0.401654
C50	C	1.348446	-0.380802	-0.354649
C51	C	1.436303	-0.380810	-0.354659
C52	C	1.142315	-0.380719	-0.546576
C53	C	1.142331	-0.380692	-0.628375
C54	C	1.142366	-0.174614	-0.354652
C55	C	1.142404	-0.086757	-0.354664
C56	C	1.091841	-0.330098	-0.816571
C57	C	1.091854	-0.330082	-0.893430
C58	C	1.192916	-0.431192	-0.893417
C59	C	1.192898	-0.431211	-0.816560
C60	C	1.142361	-0.380660	-0.778139
C61	C	1.142393	-0.380625	-0.931855
C62	C	1.142409	-0.380608	-1.015188
C63	C	1.142345	-0.380678	-0.694800
C64	C	1.142286	-0.380788	-0.163417
C65	C	1.142424	-0.380592	-0.081618
H66	H	0.443955	-0.288984	-0.269405
H67	H	1.050690	-0.288936	-0.785290
H68	H	1.234022	-0.681664	-0.269318
H69	H	1.234040	-0.472388	-0.785268
Cl70	Cl	1.028241	-1.097385	-0.460805
H71	H	0.717594	-0.523205	-0.486860
H72	H	1.050714	-0.288911	-0.924718
Cl73	Cl	1.256447	-0.494736	-0.941723
H74	H	0.841406	-0.472586	-0.439853
Cl75	Cl	0.977538	-0.787232	-0.507792
H76	H	0.717535	-0.238361	-0.222382
Cl77	Cl	0.859642	-0.266543	-0.248538
Cl78	Cl	0.549555	-0.545648	-0.507702
Cl79	Cl	0.549471	-0.215950	-0.201599
H80	H	0.443994	-0.472622	-0.439913
H81	H	1.050485	-0.681689	-0.439944
Cl82	Cl	1.307116	-0.973522	-0.201507
Cl83	Cl	0.977613	-0.973570	-0.507812
Cl84	Cl	1.307058	-0.787199	-0.201480
Cl85	Cl	1.256576	-1.097350	-0.248537
