data_functionalizedCrystal
_audit_creation_method	'MofGen! by Chris Wilmer'
_symmetry_space_group_name_H-M	'P1'
_symmetry_Int_Tables_number	1
_symmetry_cell_setting	triclinic
loop_
_symmetry_equiv_pos_as_xyz
  x,y,z
_cell_length_a	14.853558
_cell_length_b	13.596369
_cell_length_c	14.853567
_cell_angle_alpha	89.997808
_cell_angle_beta	96.366968
_cell_angle_gamma	90.004798
loop_
_atom_site_label
_atom_site_type_symbol
_atom_site_fract_x
_atom_site_fract_y
_atom_site_fract_z
O1	O	1.196371	0.081771	-0.117666
O2	O	1.696371	0.581771	0.382334
O3	O	0.933910	0.081774	-0.131696
O4	O	1.433910	0.581774	0.368304
O5	O	1.072151	0.081776	0.006549
O6	O	1.572151	0.581776	0.506549
O7	O	1.058130	0.081770	-0.255911
O8	O	1.558130	0.581770	0.244089
O9	O	1.072137	-0.081807	0.006556
O10	O	1.572137	0.418193	0.506556
O11	O	0.933896	-0.081808	-0.131689
O12	O	1.433896	0.418192	0.368311
O13	O	1.196357	-0.081812	-0.117658
O14	O	1.696357	0.418188	0.382342
Zn15	Zn	1.065125	-0.107783	-0.124672
Zn16	Zn	1.565125	0.392217	0.375328
Zn17	Zn	1.065143	0.107745	-0.124682
Zn18	Zn	1.565143	0.607745	0.375318
O19	O	1.058116	-0.081813	-0.255904
O20	O	1.558116	0.418187	0.244096
C21	C	0.900314	-0.000016	-0.131058
C22	C	1.400314	0.499984	0.368942
C23	C	0.800230	-0.000015	-0.129158
C24	C	1.300230	0.499985	0.370842
C25	C	0.753218	0.089158	-0.128270
C26	C	1.253218	0.589158	0.371730
C27	C	0.753201	-0.089186	-0.128252
C28	C	1.253201	0.410814	0.371748
C29	C	0.659167	-0.089188	-0.126461
C30	C	1.159167	0.410812	0.373539
C31	C	0.612155	-0.000015	-0.125574
C32	C	1.112155	0.499985	0.374426
C33	C	0.659176	0.089159	-0.126477
C34	C	1.159176	0.589159	0.373523
C35	C	0.612141	-0.178361	-0.125549
C36	C	1.112141	0.321639	0.374451
C37	C	0.518101	-0.178366	-0.123757
C38	C	1.018101	0.321634	0.376243
C39	C	0.471086	-0.089192	-0.122876
C40	C	0.971086	0.410808	0.377124
C41	C	0.518113	-0.000014	-0.123781
C42	C	1.018113	0.499986	0.376219
C43	C	0.471100	0.089159	-0.122893
C44	C	0.971100	0.589159	0.377107
C45	C	0.518124	0.178338	-0.123804
C46	C	1.018124	0.678338	0.376196
C47	C	0.612160	0.178333	-0.125596
C48	C	1.112160	0.678333	0.374404
C49	C	0.377050	-0.089187	-0.121084
C50	C	0.877050	0.410813	0.378916
C51	C	0.377058	0.089160	-0.121100
C52	C	0.877058	0.589160	0.378900
N53	N	1.065119	-0.254874	-0.124665
N54	N	1.565119	0.245126	0.375335
C55	C	1.065141	-0.656165	-0.124683
C56	C	1.565141	-0.156165	0.375317
C57	C	1.065132	-0.544514	-0.124681
C58	C	1.565132	-0.044514	0.375319
C59	C	1.065131	-0.455523	-0.124675
C60	C	1.565131	0.044477	0.375325
C61	C	1.065121	-0.343865	-0.124672
C62	C	1.565121	0.156135	0.375328
C63	C	1.229953	-0.000019	-0.118296
C64	C	1.729953	0.499981	0.381704
C65	C	1.330037	-0.000014	-0.120197
C66	C	1.830037	0.499986	0.379803
C67	C	1.071509	-0.000013	0.040141
C68	C	1.571509	0.499987	0.540141
C69	C	1.069605	-0.000004	0.140225
C70	C	1.569605	0.499996	0.640225
N71	N	1.065156	0.254837	-0.124682
N72	N	1.565156	0.754837	0.375318
C73	C	1.058758	-0.000022	-0.289496
C74	C	1.558758	0.499978	0.210504
C75	C	1.060662	-0.000024	-0.389580
C76	C	1.560662	0.499976	0.110420
C77	C	0.979439	-0.000022	0.552756
C78	C	1.479439	0.499978	1.052756
C79	C	1.143673	-0.000024	0.574042
C80	C	1.643673	0.499976	1.074042
C81	C	1.145463	-0.000018	0.480009
C82	C	1.645463	0.499982	0.980009
C83	C	1.064240	-0.000016	0.422344
C84	C	1.564240	0.499984	0.922344
C85	C	0.981227	-0.000019	0.458713
C86	C	1.481227	0.499981	0.958713
C87	C	1.228474	-0.000025	0.443632
C88	C	1.728474	0.499975	0.943632
C89	C	1.230268	-0.000020	0.349593
C90	C	1.730268	0.499980	0.849593
C91	C	1.149044	-0.000011	0.291927
C92	C	1.649044	0.499989	0.791927
C93	C	1.066027	-0.000013	0.328301
C94	C	1.566027	0.499987	0.828301
C95	C	0.984805	-0.000011	0.270637
C96	C	1.484805	0.499989	0.770637
C97	C	0.901787	-0.000006	0.307009
C98	C	1.401787	0.499994	0.807009
C99	C	0.900003	-0.000010	0.401047
C100	C	1.400003	0.499990	0.901047
C101	C	1.150828	-0.000007	0.197890
C102	C	1.650828	0.499993	0.697890
C103	C	0.986592	-0.000008	0.176594
C104	C	1.486592	0.499992	0.676594
H105	H	0.338766	-0.161795	-0.120351
H106	H	0.838766	0.338205	0.379649
H107	H	1.294601	-0.000036	0.490589
H108	H	1.794601	0.499964	0.990589
H109	H	1.297865	-0.000023	0.319987
H110	H	1.797865	0.499977	0.819987
H111	H	0.338786	0.161776	-0.120383
H112	H	0.838786	0.661776	0.379617
H113	H	0.791485	-0.161787	-0.128967
H114	H	1.291485	0.338213	0.371033
N115	N	0.801233	0.180257	-0.129188
N116	N	1.301233	0.680257	0.370812
N117	N	0.759243	0.259865	-0.128390
N118	N	1.259243	0.759865	0.371610
H119	H	0.793154	0.324206	-0.129036
H120	H	1.293154	0.824206	0.370964
N121	N	0.818832	0.000006	0.248088
N122	N	1.318832	0.500006	0.748088
N123	N	0.801527	0.068959	0.193231
N124	N	1.301527	0.568959	0.693231
H125	H	0.742942	0.068968	0.151613
H126	H	1.242942	0.568968	0.651613
H127	H	1.218419	-0.000017	0.168279
H128	H	1.718419	0.499983	0.668279
N129	N	0.660176	-0.269433	-0.126443
N130	N	1.160176	0.230567	0.373557
N131	N	0.744137	-0.269417	-0.128045
N132	N	1.244137	0.230583	0.371955
H133	H	0.778067	-0.333740	-0.128677
H134	H	1.278067	0.166260	0.371323
H135	H	0.479835	0.250942	-0.123077
H136	H	0.979835	0.750942	0.376923
N137	N	0.894635	-0.000036	0.589889
N138	N	1.394635	0.499964	1.089889
N139	N	0.822124	-0.000043	0.538389
N140	N	1.322124	0.499957	1.038389
H141	H	0.762229	-0.000057	0.564613
H142	H	1.262229	0.499943	1.064613
N143	N	0.470086	-0.269463	-0.122825
N144	N	0.970086	0.230537	0.377175
N145	N	0.512074	-0.349073	-0.123614
N146	N	1.012074	0.150927	0.376386
H147	H	0.478163	-0.413413	-0.122958
H148	H	0.978163	0.086587	0.377042
N149	N	0.903632	0.000005	0.117680
N150	N	1.403632	0.500005	0.617680
N151	N	0.886319	0.068960	0.062828
N152	N	1.386319	0.568960	0.562828
H153	H	0.827728	0.068971	0.021218
H154	H	1.327728	0.568971	0.521218
N155	N	0.815220	-0.000025	0.438220
N156	N	1.315220	0.499975	0.938220
N157	N	0.795908	-0.068988	0.488319
N158	N	1.295908	0.431012	0.988319
H159	H	0.736032	-0.069003	0.514579
H160	H	1.236032	0.430997	1.014579
H161	H	1.209801	-0.000034	0.620998
H162	H	1.709801	0.499966	1.120998
H163	H	0.650456	0.250938	-0.126336
H164	H	1.150456	0.750938	0.373664
