data_functionalizedCrystal
_audit_creation_method	'MofGen! by Chris Wilmer'
_symmetry_space_group_name_H-M	'P1'
_symmetry_Int_Tables_number	1
_symmetry_cell_setting	triclinic
loop_
_symmetry_equiv_pos_as_xyz
  x,y,z
_cell_length_a	13.032721
_cell_length_b	13.033652
_cell_length_c	18.215399
_cell_angle_alpha	97.153811
_cell_angle_beta	82.845262
_cell_angle_gamma	76.639675
loop_
_atom_site_label
_atom_site_type_symbol
_atom_site_fract_x
_atom_site_fract_y
_atom_site_fract_z
Zn1	Zn	-0.216393	-1.570080	0.295247
Zn2	Zn	0.283607	-1.070080	0.795247
Zn3	Zn	-0.394041	-1.547400	0.190092
Zn4	Zn	0.105959	-1.047400	0.690092
Zn5	Zn	-0.239013	-1.392459	0.190080
Zn6	Zn	0.260987	-0.892459	0.690080
Zn7	Zn	-0.416556	-1.369874	0.330985
Zn8	Zn	0.083444	-0.869874	0.830985
O9	O	-0.316501	-1.469953	0.251601
O10	O	0.183499	-0.969953	0.751601
O11	O	-0.221069	-1.715702	0.266347
O12	O	0.278931	-1.215702	0.766347
O13	O	-0.373520	-1.526807	0.087114
O14	O	0.126480	-1.026807	0.587114
O15	O	-0.087365	-1.434964	0.189069
O16	O	0.412635	-0.934964	0.689069
O17	O	-0.351586	-1.699039	0.189090
O18	O	0.148414	-1.199039	0.689090
O19	O	-0.070746	-1.565461	0.266335
O20	O	0.429254	-1.065461	0.766335
O21	O	-0.259622	-1.412972	0.087105
O22	O	0.240378	-0.912972	0.587105
O23	O	-0.281454	-1.240833	0.223723
O24	O	0.218546	-0.740833	0.723723
O25	O	-0.389961	-1.396472	0.429221
O26	O	0.110039	-0.896472	0.929221
O27	O	-0.411894	-1.224240	0.327245
O28	O	0.088106	-0.724240	0.827245
O29	O	-0.242902	-1.543562	0.402965
O30	O	0.257098	-1.043562	0.902965
O31	O	-0.545676	-1.504908	0.223744
O32	O	-0.045676	-1.004908	0.723744
O33	O	-0.562218	-1.374480	0.327257
O34	O	-0.062218	-0.874480	0.827257
C35	C	-0.351573	-1.193998	0.279361
C36	C	0.148427	-0.693998	0.779361
C37	C	-0.366602	-1.075940	0.291257
C38	C	0.133398	-0.575940	0.791257
C39	C	-0.592486	-1.434811	0.279393
C40	C	-0.092486	-0.934811	0.779393
C41	C	-0.710541	-1.419874	0.291297
C42	C	-0.210541	-0.919874	0.791297
C43	C	-0.308668	-1.031500	0.245402
C44	C	0.191332	-0.531500	0.745402
C45	C	-0.324200	-0.909481	0.257696
C46	C	0.175800	-0.409481	0.757696
C47	C	-0.754947	-1.477805	0.245416
C48	C	-0.254947	-0.977805	0.745416
C49	C	-0.876963	-1.462369	0.257718
C50	C	-0.376963	-0.962369	0.757718
C51	C	-0.039435	-1.505262	0.223714
C52	C	0.460565	-1.005262	0.723714
C53	C	0.078634	-1.520308	0.211830
C54	C	0.578634	-1.020308	0.711830
C55	C	-0.316420	-1.470027	0.443540
C56	C	0.183580	-0.970027	0.943540
C57	C	-0.316385	-1.470059	0.525333
C58	C	0.183615	-0.970059	1.025333
C59	C	-0.281285	-0.746987	0.223727
C60	C	0.218715	-0.246987	0.723727
C61	C	-0.266257	-0.865045	0.211835
C62	C	0.233743	-0.365045	0.711835
C63	C	-0.316498	-1.469950	0.060395
C64	C	0.183502	-0.969950	0.560395
C65	C	-0.316207	-1.470163	-0.021449
C66	C	0.183793	-0.970163	0.478551
C67	C	-0.239745	-1.546681	0.699848
C68	C	0.260255	-1.046681	1.199848
C69	C	-0.239712	-1.546698	0.776702
C70	C	0.260288	-1.046698	1.276702
C71	C	-0.392851	-1.393532	0.804033
C72	C	0.107149	-0.893532	1.304033
C73	C	-0.392878	-1.393512	0.727179
C74	C	0.107122	-0.893512	1.227179
C75	C	-0.316326	-1.470092	0.675089
C76	C	0.183674	-0.970092	1.175089
C77	C	-0.316266	-1.470129	0.828796
C78	C	0.183734	-0.970129	1.328796
C79	C	-0.316231	-1.470147	0.912125
C80	C	0.183769	-0.970147	1.412125
C81	C	-0.316359	-1.470074	0.591754
C82	C	0.183641	-0.970074	1.091754
H83	H	-0.247573	-1.083788	0.197040
H84	H	0.252427	-0.583788	0.697040
C85	C	-0.684278	-1.560249	0.180042
C86	C	-0.184278	-1.060249	0.680042
N87	N	-0.631051	-1.622345	0.130801
N88	N	-0.131051	-1.122345	0.630801
H89	H	-0.762855	-1.358854	0.339688
H90	H	-0.262855	-0.858854	0.839688
C91	C	-0.477125	-1.309251	0.699944
C92	C	0.022875	-0.809251	1.199944
N93	N	-0.540574	-1.245786	0.679429
N94	N	-0.040574	-0.745786	1.179429
H95	H	-0.385306	-0.857196	0.306057
H96	H	0.114694	-0.357196	0.806057
C97	C	-0.155469	-1.630954	0.803933
C98	C	0.344531	-1.130954	1.303933
N99	N	-0.092013	-1.694420	0.824442
N100	N	0.407987	-1.194420	1.324442
C101	C	-0.947629	-1.379919	0.323093
C102	C	-0.447629	-0.879919	0.823093
N103	N	-1.000857	-1.317817	0.372332
N104	N	-0.500857	-0.817817	0.872332
H105	H	-0.869055	-1.581341	0.163441
H106	H	-0.369055	-1.081341	0.663441
C107	C	-0.155527	-1.630913	0.642550
C108	C	0.344473	-1.130913	1.142550
N109	N	-0.092088	-1.694356	0.599395
N110	N	0.407912	-1.194356	1.099395
C111	C	-0.183709	-0.935673	0.146496
C112	C	0.316291	-0.435673	0.646496
N113	N	-0.121534	-0.988871	0.097284
N114	N	0.378466	-0.488871	0.597284
H115	H	-0.427705	-1.023651	0.339615
H116	H	0.072295	-0.523651	0.839615
C117	C	-0.477052	-1.309297	0.861339
C118	C	0.022948	-0.809297	1.361339
N119	N	-0.540475	-1.245849	0.904502
N120	N	-0.040475	-0.745849	1.404502
