data_functionalizedCrystal
_audit_creation_method	'MofGen! by Chris Wilmer'
_symmetry_space_group_name_H-M	'P1'
_symmetry_Int_Tables_number	1
_symmetry_cell_setting	triclinic
loop_
_symmetry_equiv_pos_as_xyz
  x,y,z
_cell_length_a	19.188933
_cell_length_b	19.188925
_cell_length_c	10.268362
_cell_angle_alpha	89.995070
_cell_angle_beta	89.996830
_cell_angle_gamma	83.144059
loop_
_atom_site_label
_atom_site_type_symbol
_atom_site_fract_x
_atom_site_fract_y
_atom_site_fract_z
O1	O	0.926142	0.087175	-0.108256
O2	O	0.722831	0.098908	-0.108268
O3	O	0.830356	-0.008615	-0.108254
O4	O	0.818617	0.194697	-0.108270
O5	O	0.830346	-0.008619	0.108346
O6	O	0.722822	0.098903	0.108333
O7	O	0.926133	0.087170	0.108345
Cu8	Cu	0.824476	0.093036	0.128116
Cu9	Cu	0.824487	0.093042	-0.128039
O10	O	0.818608	0.194693	0.108331
C11	C	0.696815	0.098525	0.000031
C12	C	0.619311	0.097384	0.000027
C13	C	0.066061	0.089241	-0.118028
C14	C	0.138885	0.090309	-0.118033
C15	C	0.175297	0.090844	0.000036
C16	C	0.138881	0.090293	0.118118
C17	C	0.066059	0.089218	0.118120
N18	N	0.284312	0.132261	0.087916
N19	N	0.353490	0.133284	0.087907
C20	C	0.394705	0.094082	0.000038
N21	N	0.364129	0.053828	-0.087841
N22	N	0.294945	0.052808	-0.087835
C23	C	0.254260	0.092010	0.000047
C24	C	0.510078	0.095787	-0.118043
C25	C	0.582904	0.096850	-0.118043
C26	C	0.582897	0.096841	0.118111
C27	C	0.510074	0.095770	0.118108
C28	C	0.473668	0.095246	0.000027
C29	C	0.829972	-0.034628	0.000045
C30	C	0.828832	-0.112133	0.000043
C31	C	0.884296	-0.673902	0.000013
C32	C	0.885373	-0.601079	0.000025
C33	C	0.822281	-0.556145	0.000021
C34	C	0.758107	-0.584040	0.000038
C35	C	0.757033	-0.656862	0.000039
N36	N	0.776608	-0.435464	-0.073707
N37	N	0.777633	-0.366286	-0.073711
C38	C	0.825515	-0.336736	0.000020
N39	N	0.872343	-0.378978	0.073739
N40	N	0.871320	-0.448162	0.073737
C41	C	0.823439	-0.477181	0.000020
C42	C	0.890851	-0.229887	0.000025
C43	C	0.891925	-0.157062	0.000045
C44	C	0.764658	-0.140023	0.000045
C45	C	0.763586	-0.212847	0.000038
C46	C	0.826685	-0.257775	0.000022
C47	C	0.952149	0.087553	0.000043
C48	C	1.029653	0.088694	0.000039
C49	C	0.818992	0.220706	0.000029
C50	C	0.820131	0.298211	0.000023
N51	N	0.824474	0.093032	0.308282
N52	N	0.824496	0.093040	-0.308205
C53	C	0.824484	0.093040	0.573953
C54	C	0.824476	0.093038	0.426115
H55	H	0.168532	0.090727	0.214250
H56	H	0.612544	0.097274	0.214245
H57	H	0.937625	-0.578369	0.000017
Br58	Br	0.679031	-0.079049	0.000064
H59	H	0.036416	0.088775	0.214267
H60	H	0.036424	0.088812	-0.214179
H61	H	0.168533	0.090759	-0.214180
H62	H	0.480435	0.095358	-0.214191
H63	H	0.612546	0.097291	-0.214191
Br64	Br	0.460658	0.095037	0.278351
H65	H	0.935676	-0.710479	0.000007
H66	H	0.706737	-0.547450	0.000039
Br67	Br	0.669945	-0.694711	0.000054
Br68	Br	0.676500	-0.250697	0.000043
Br69	Br	0.979014	-0.119214	0.000029
Br70	Br	0.976483	-0.290864	0.000006
