data_functionalizedCrystal
_audit_creation_method	'MofGen! by Chris Wilmer'
_symmetry_space_group_name_H-M	'P1'
_symmetry_Int_Tables_number	1
_symmetry_cell_setting	triclinic
loop_
_symmetry_equiv_pos_as_xyz
  x,y,z
_cell_length_a	17.019311
_cell_length_b	16.098538
_cell_length_c	11.792254
_cell_angle_alpha	87.258456
_cell_angle_beta	83.796913
_cell_angle_gamma	96.609511
loop_
_atom_site_label
_atom_site_type_symbol
_atom_site_fract_x
_atom_site_fract_y
_atom_site_fract_z
O1	O	1.054645	0.144891	0.134015
O2	O	1.554645	0.644891	0.634015
O3	O	0.824222	0.128368	0.153655
O4	O	1.324222	0.628368	0.653655
O5	O	0.945020	0.137024	-0.021422
O6	O	1.445020	0.637024	0.478578
O7	O	0.933848	0.136235	0.309092
O8	O	1.433848	0.636235	0.809092
O9	O	0.937964	-0.001994	-0.011234
O10	O	1.437964	0.498006	0.488766
O11	O	0.817166	-0.010650	0.163842
O12	O	1.317166	0.489350	0.663842
O13	O	1.047589	0.005873	0.144202
O14	O	1.547589	0.505873	0.644202
Zn15	Zn	0.931257	-0.024461	0.155640
Zn16	Zn	1.431257	0.475539	0.655640
Zn17	Zn	0.940554	0.158702	0.142218
Zn18	Zn	1.440554	0.658702	0.642218
O19	O	0.926791	-0.002784	0.319279
O20	O	1.426791	0.497216	0.819279
C21	C	0.791195	0.056743	0.158203
C22	C	1.291195	0.556743	0.658203
C23	C	0.703296	0.050440	0.156565
C24	C	1.203296	0.550440	0.656565
N25	N	0.924917	-0.149465	0.164799
N26	N	1.424917	0.350535	0.664799
C27	C	0.205962	0.010990	0.147615
C28	C	0.705962	0.510990	0.647615
C29	C	0.288553	0.016915	0.149154
C30	C	0.788553	0.516915	0.649154
C31	C	0.333695	0.095657	0.144362
C32	C	0.833695	0.595657	0.644362
C33	C	0.296243	0.168480	0.138042
C34	C	0.796243	0.668480	0.638042
C35	C	0.213653	0.162555	0.136511
C36	C	0.713653	0.662555	0.636511
C37	C	0.583254	0.117338	0.148714
C38	C	1.083254	0.617338	0.648714
C39	C	0.665849	0.123258	0.150242
C40	C	1.165849	0.623258	0.650242
C41	C	0.658153	-0.028309	0.161356
C42	C	1.158153	0.471691	0.661356
C43	C	0.575563	-0.034227	0.159818
C44	C	1.075563	0.465773	0.659818
C45	C	0.538117	0.038596	0.153504
C46	C	1.038117	0.538596	0.653504
C47	C	0.418116	0.101715	0.145931
C48	C	0.918116	0.601715	0.645931
C49	C	0.453697	0.032538	0.151942
C50	C	0.953697	0.532538	0.651942
C51	C	0.976208	-0.189374	0.090516
C52	C	1.476208	0.310626	0.590516
C53	C	0.971781	-0.276880	0.096934
C54	C	1.471781	0.223120	0.596934
C55	C	0.916066	-0.324475	0.177642
C56	C	1.416066	0.175525	0.677642
C57	C	0.864770	-0.284560	0.251928
C58	C	1.364770	0.215440	0.751928
C59	C	0.869194	-0.197055	0.245504
C60	C	1.369194	0.302945	0.745504
C61	C	0.900028	-0.588874	0.200911
C62	C	1.400028	-0.088874	0.700911
C63	C	0.895610	-0.676385	0.207332
C64	C	1.395610	-0.176385	0.707332
C65	C	1.002619	-0.668699	0.052336
C66	C	1.502619	-0.168699	0.552336
C67	C	1.007042	-0.581193	0.045923
C68	C	1.507042	-0.081193	0.545923
C69	C	0.955743	-0.541286	0.120206
C70	C	1.455743	-0.041286	0.620206
C71	C	0.911541	-0.413921	0.184206
C72	C	1.411541	0.086079	0.684206
C73	C	0.960265	-0.451842	0.113635
C74	C	1.460265	0.048158	0.613635
C75	C	1.080617	0.077499	0.139654
C76	C	1.580617	0.577499	0.639654
C77	C	1.168516	0.083808	0.141292
C78	C	1.668516	0.583808	0.641292
C79	C	0.940788	0.067465	-0.058608
C80	C	1.440788	0.567465	0.441392
C81	C	0.938681	0.067315	-0.184588
C82	C	1.438681	0.567315	0.315412
N83	N	0.946900	0.283706	0.133049
N84	N	1.446900	0.783706	0.633049
C85	C	0.936970	0.067195	-0.286898
C86	C	1.436970	0.567195	0.213102
C87	C	0.934830	0.067049	-0.415251
C88	C	1.434830	0.567049	0.084749
C89	C	0.931023	0.066778	0.356465
C90	C	1.431023	0.566778	0.856465
C91	C	0.933130	0.066934	0.482444
C92	C	1.433130	0.566934	0.982444
H93	H	0.169212	-0.053130	0.151522
H94	H	0.669212	0.446870	0.651522
H95	H	0.858260	-0.556389	0.261397
H96	H	1.358260	-0.056389	0.761397
H97	H	0.866179	-0.452679	0.249922
H98	H	1.366179	0.047321	0.749922
H99	H	0.538815	-0.098347	0.163695
H100	H	1.038815	0.401653	0.663695
C101	C	0.542076	0.197447	0.141744
C102	C	1.042076	0.697447	0.641744
N103	N	0.511060	0.257788	0.136487
N104	N	1.011060	0.757788	0.636487
C105	C	0.699347	-0.108408	0.168348
C106	C	1.199347	0.391592	0.668348
N107	N	0.730372	-0.168743	0.173633
N108	N	1.230372	0.331257	0.673633
H109	H	0.319038	-0.042381	0.154300
H110	H	0.819038	0.457619	0.654300
H111	H	1.021580	-0.150628	0.024800
H112	H	1.521580	0.349372	0.524800
H113	H	0.819402	-0.323317	0.317639
H114	H	1.319402	0.176683	0.817639
H115	H	0.827427	-0.164562	0.305992
H116	H	1.327427	0.335438	0.805992
H117	H	0.454881	0.165827	0.142026
H118	H	0.954881	0.665827	0.642026
C119	C	0.715504	0.209884	0.144987
C120	C	1.215504	0.709884	0.644987
N121	N	0.752903	0.275128	0.141034
N122	N	1.252903	0.775128	0.641034
H123	H	1.005625	-0.413088	0.047918
H124	H	1.505625	0.086912	0.547918
C125	C	0.172463	0.242660	0.129551
C126	C	0.672463	0.742660	0.629551
N127	N	0.141439	0.302998	0.124311
N128	N	0.641439	0.802998	0.624311
C129	C	0.345903	0.255098	0.132768
C130	C	0.845903	0.755098	0.632768
N131	N	0.383307	0.320341	0.128789
N132	N	0.883307	0.820341	0.628789
H133	H	1.052409	-0.542443	-0.019796
H134	H	1.552409	-0.042443	0.480204
H135	H	0.416938	-0.031574	0.155850
H136	H	0.916938	0.468426	0.655850
C137	C	1.028185	-0.320778	0.015188
C138	C	1.528185	0.179222	0.515188
N139	N	1.070665	-0.353842	-0.046397
N140	N	1.570665	0.146158	0.453603
C141	C	0.834315	-0.728738	0.296118
C142	C	1.334315	-0.228738	0.796118
N143	N	0.788150	-0.768170	0.362988
N144	N	1.288150	-0.268170	0.862988
C145	C	1.059038	-0.712605	-0.029379
C146	C	1.559038	-0.212605	0.470621
N147	N	1.101531	-0.745675	-0.090934
N148	N	1.601531	-0.245675	0.409066
