data_functionalizedCrystal
_audit_creation_method	'MofGen! by Chris Wilmer'
_symmetry_space_group_name_H-M	'P1'
_symmetry_Int_Tables_number	1
_symmetry_cell_setting	triclinic
loop_
_symmetry_equiv_pos_as_xyz
  x,y,z
_cell_length_a	16.974800
_cell_length_b	13.330367
_cell_length_c	16.992695
_cell_angle_alpha	90.001843
_cell_angle_beta	87.021674
_cell_angle_gamma	86.348211
loop_
_atom_site_label
_atom_site_type_symbol
_atom_site_fract_x
_atom_site_fract_y
_atom_site_fract_z
O1	O	1.055459	-0.002297	0.099873
O2	O	0.826058	0.016337	0.112613
O3	O	0.939839	0.007086	-0.007898
O4	O	0.941678	0.006953	0.220385
O5	O	0.939827	-0.159760	-0.007895
O6	O	0.826045	-0.150510	0.112617
O7	O	1.055447	-0.169143	0.099877
Cu8	Cu	0.940745	-0.175061	0.106247
Cu9	Cu	0.940760	0.022254	0.106243
O10	O	0.941666	-0.159893	0.220388
C11	C	0.796563	-0.064691	0.112132
C12	C	0.708694	-0.057554	0.110685
C13	C	0.667412	-0.145151	0.110004
C14	C	0.584851	-0.138448	0.108632
C15	C	0.543574	-0.044147	0.107945
C16	C	0.584863	0.043457	0.108622
C17	C	0.667422	0.036753	0.109990
C18	C	0.296658	-0.014344	0.103850
C19	C	0.214093	-0.007646	0.102486
C20	C	0.214087	-0.189552	0.102493
C21	C	0.296648	-0.196248	0.103865
C22	C	0.337929	-0.108644	0.104539
N23	N	0.459184	-0.037293	0.106544
N24	N	0.422319	-0.115499	0.105934
C25	C	0.937467	-0.076144	-0.037107
C26	C	0.930407	-0.075571	-0.124143
C27	C	1.084942	-0.088113	0.100358
C28	C	1.172810	-0.095244	0.101805
N29	N	0.940741	-0.313842	0.106250
C30	C	0.890350	-0.362271	0.159596
C31	C	0.991136	-0.370442	0.052900
C32	C	0.991144	-0.475461	0.052897
C33	C	0.940753	-0.523889	0.106243
C34	C	0.890354	-0.467299	0.159593
C35	C	1.041536	-0.532058	-0.000456
C36	C	1.041545	-0.637084	-0.000462
C37	C	0.991158	-0.685515	0.052888
C38	C	0.940758	-0.628918	0.106240
C39	C	0.890367	-0.677347	0.159587
C40	C	0.839970	-0.620752	0.212943
C41	C	0.839967	-0.515730	0.212943
C42	C	0.991161	-0.790537	0.052888
C43	C	0.890371	-0.782375	0.159584
N44	N	0.940770	0.161035	0.106234
C45	C	0.998522	-0.081104	-0.174460
C46	C	0.991885	-0.080556	-0.256239
C47	C	0.917131	-0.074480	-0.287699
C48	C	0.849010	-0.068943	-0.237376
C49	C	0.855649	-0.069485	-0.155598
C50	C	0.889616	-0.072232	-0.531266
C51	C	0.882982	-0.071693	-0.613050
C52	C	1.025857	-0.083304	-0.631908
C53	C	1.032490	-0.083851	-0.550128
C54	C	0.964369	-0.078309	-0.499811
N55	N	0.910344	-0.073923	-0.371290
N56	N	0.971157	-0.078860	-0.416222
C57	C	0.944038	-0.076660	0.249597
C58	C	0.951098	-0.077227	0.336633
H59	H	0.180467	-0.260874	0.101944
C60	C	0.735923	0.026010	-0.114343
C61	C	0.780774	-0.063403	-0.100286
H62	H	0.689695	0.029764	-0.080199
H63	H	0.766369	0.081708	-0.104812
H64	H	0.721276	0.027188	-0.167551
H65	H	0.795425	-0.064578	-0.047080
H66	H	0.750322	-0.119115	-0.109811
H67	H	0.180487	0.069149	0.101928
H68	H	0.834147	-0.067719	-0.490307
C69	C	0.775394	-0.062969	-0.354360
C70	C	0.766838	-0.062268	-0.271955
H71	H	0.724662	-0.058857	-0.375704
H72	H	0.803655	-0.007085	-0.371631
H73	H	0.803655	-0.123452	-0.371629
H74	H	0.738581	-0.001782	-0.254685
H75	H	0.738565	-0.118158	-0.254676
C76	C	0.564082	-0.291820	0.040856
C77	C	0.539481	-0.234745	0.107886
H78	H	0.536078	-0.351276	0.040399
H79	H	0.553693	-0.253616	-0.005061
H80	H	0.619161	-0.309290	0.041781
H81	H	0.484403	-0.217269	0.106958
H82	H	0.549864	-0.272956	0.153815
C83	C	0.759172	0.024159	-0.622169
C84	C	0.800809	-0.065003	-0.647638
H85	H	0.708448	0.028289	-0.643529
H86	H	0.753369	0.024624	-0.566271
H87	H	0.787458	0.080032	-0.639447
H88	H	0.772526	-0.120876	-0.630355
H89	H	0.806609	-0.065477	-0.703547
H90	H	1.093362	-0.088799	-0.524520
C91	C	0.554821	0.200945	0.175566
C92	C	0.539493	0.147116	0.107871
H93	H	0.526815	0.264943	0.175101
H94	H	0.538143	0.164930	0.221033
H95	H	0.609901	0.209483	0.176466
H96	H	0.484413	0.138572	0.106974
H97	H	0.556166	0.183139	0.062393
H98	H	0.330250	-0.273038	0.104421
C99	C	1.145586	-0.178799	-0.673168
C100	C	1.100732	-0.089386	-0.687218
H101	H	1.191810	-0.182551	-0.707318
H102	H	1.160234	-0.179983	-0.619968
H103	H	1.115135	-0.234502	-0.682703
H104	H	1.131181	-0.033682	-0.677677
H105	H	1.086085	-0.088192	-0.740430
C106	C	0.288360	0.166132	0.103708
C107	C	0.342028	0.081949	0.104595
H108	H	0.316373	0.225581	0.104171
H109	H	0.259303	0.164699	0.057480
H110	H	0.253014	0.165214	0.148879
H111	H	0.377370	0.082863	0.059420
H112	H	0.371098	0.083383	0.150827
C113	C	0.755645	0.135117	0.178890
C114	C	0.712807	0.133039	0.110740
H115	H	0.783667	0.194559	0.179347
H116	H	0.720293	0.134218	0.224048
H117	H	0.792037	0.077988	0.179485
H118	H	0.676411	0.190164	0.110148
H119	H	0.748163	0.133947	0.065570
C120	C	1.088875	-0.174220	-0.093447
C121	C	1.080696	-0.087783	-0.139885
H122	H	1.139610	-0.178342	-0.072110
H123	H	1.049266	-0.170997	-0.051777
H124	H	1.083309	-0.231943	-0.124968
H125	H	1.086256	-0.030059	-0.108363
H126	H	1.120317	-0.090998	-0.181562
C127	C	0.764890	-0.258597	0.044180
C128	C	0.712782	-0.248810	0.110759
H129	H	0.792901	-0.322591	0.044648
H130	H	0.735827	-0.252462	-0.002044
H131	H	0.801291	-0.207381	0.044792
H132	H	0.676378	-0.300021	0.110144
H133	H	0.741847	-0.254955	0.156994
C134	C	0.706009	-0.642245	0.259062
C135	C	0.784578	-0.673995	0.271576
H136	H	0.671814	-0.675125	0.295254
H137	H	0.698797	-0.571609	0.266713
H138	H	0.694128	-0.658487	0.206734
H139	H	0.796460	-0.657747	0.323902
H140	H	0.791793	-0.744647	0.263931
H141	H	0.849340	-0.821799	0.203028
C142	C	0.795198	-0.351111	0.260308
C143	C	0.784566	-0.453519	0.271580
H144	H	0.760989	-0.312704	0.296503
H145	H	0.848494	-0.338220	0.268798
H146	H	0.783308	-0.332955	0.207981
H147	H	0.796462	-0.471677	0.323906
H148	H	0.731258	-0.466415	0.263096
H149	H	0.849320	-0.316189	0.203040
H150	H	1.047352	-0.085064	-0.297205
C151	C	1.029028	-0.341049	-0.082843
C152	C	1.046524	-0.317152	-0.005697
H153	H	1.063223	-0.308124	-0.119006
H154	H	1.036277	-0.411678	-0.090516
H155	H	0.975719	-0.319534	-0.091328
H156	H	1.099831	-0.338673	0.002790
H157	H	1.039281	-0.246507	0.001979
H158	H	1.082558	-0.492624	-0.043893
H159	H	1.082581	-0.683157	-0.043907
C160	C	1.090766	-0.788058	-0.052589
C161	C	1.046544	-0.852744	-0.005761
H162	H	1.124961	-0.826464	-0.088797
H163	H	1.056066	-0.744284	-0.080762
H164	H	1.121273	-0.749567	-0.019966
H165	H	1.016033	-0.891230	-0.038384
H166	H	1.081249	-0.896535	0.022413
