data_functionalizedCrystal
_audit_creation_method	'MofGen! by Chris Wilmer'
_symmetry_space_group_name_H-M	'P1'
_symmetry_Int_Tables_number	1
_symmetry_cell_setting	triclinic
loop_
_symmetry_equiv_pos_as_xyz
  x,y,z
_cell_length_a	14.519709
_cell_length_b	10.654550
_cell_length_c	9.730223
_cell_angle_alpha	90.000242
_cell_angle_beta	90.003220
_cell_angle_gamma	95.917463
loop_
_atom_site_label
_atom_site_type_symbol
_atom_site_fract_x
_atom_site_fract_y
_atom_site_fract_z
O1	O	-0.129530	1.666594	0.114167
O2	O	-0.141871	1.300997	0.114190
O3	O	-0.001513	1.493489	0.114190
O4	O	-0.269889	1.474102	0.114166
O5	O	-0.001513	1.493475	-0.114390
O6	O	-0.141871	1.300983	-0.114390
O7	O	-0.129530	1.666581	-0.114413
Zn8	Zn	-0.135701	1.483780	-0.150694
Zn9	Zn	-0.135701	1.483798	0.150470
O10	O	-0.269889	1.474089	-0.114414
C11	C	-0.140965	1.254201	-0.000097
C12	C	-0.138254	1.114784	-0.000087
C13	C	-0.220895	1.034504	-0.000098
C14	C	-0.218342	0.903507	-0.000122
C15	C	-0.050500	0.933084	-0.000117
C16	C	-0.053054	1.064078	-0.000104
C17	C	-0.304253	1.474999	-0.000127
C18	C	-0.406649	1.477706	-0.000136
C19	C	-0.781596	1.487674	-0.000082
C20	C	-0.677274	1.484906	-0.000098
C21	C	-0.594126	1.482690	-0.000111
C22	C	-0.489797	1.479922	-0.000124
C23	C	0.032852	1.492579	-0.000094
C24	C	0.135247	1.489871	-0.000075
C25	C	-0.130436	1.713377	-0.000124
C26	C	-0.133147	1.852794	-0.000125
N27	N	-0.135700	1.483777	-0.356230
C28	C	-0.192156	1.560065	-0.428161
C29	C	-0.192151	1.560086	-0.572044
C30	C	-0.079232	1.407519	-0.572052
C31	C	-0.079233	1.407506	-0.428172
N32	N	-0.135694	1.483811	0.356007
H33	H	-0.285637	0.838147	-0.000134
H34	H	-0.290270	1.075783	-0.000095
O35	O	0.036084	1.150681	-0.000101
H36	H	0.076820	1.132640	0.093066
O37	O	-0.018337	1.325260	-0.649663
H38	H	0.055189	1.352440	-0.622051
H39	H	0.018867	0.891783	-0.000139
H40	H	-0.238135	1.622170	-0.369591
H41	H	-0.238121	1.622210	-0.630605
O42	O	-0.018315	1.325230	-0.350603
H43	H	0.030843	1.385344	-0.285070
