data_functionalizedCrystal
_audit_creation_method	'MofGen! by Chris Wilmer'
_symmetry_space_group_name_H-M	'P1'
_symmetry_Int_Tables_number	1
_symmetry_cell_setting	triclinic
loop_
_symmetry_equiv_pos_as_xyz
  x,y,z
_cell_length_a	13.897449
_cell_length_b	16.625545
_cell_length_c	13.897441
_cell_angle_alpha	89.968716
_cell_angle_beta	90.020733
_cell_angle_gamma	89.974684
loop_
_atom_site_label
_atom_site_type_symbol
_atom_site_fract_x
_atom_site_fract_y
_atom_site_fract_z
Zn1	Zn	1.474660	0.320948	0.545377
Zn2	Zn	1.724660	0.570948	0.795377
Zn3	Zn	1.974660	0.820948	1.045377
Zn4	Zn	2.224660	1.070948	1.295377
Zn5	Zn	1.474536	0.455799	0.384076
Zn6	Zn	1.724536	0.705799	0.634076
Zn7	Zn	1.974536	0.955799	0.884076
Zn8	Zn	2.224536	1.205799	1.134076
Zn9	Zn	1.313349	0.320987	0.384095
Zn10	Zn	1.563349	0.570987	0.634095
Zn11	Zn	1.813349	0.820987	0.884095
Zn12	Zn	2.063349	1.070987	1.134095
Zn13	Zn	1.313313	0.455746	0.545329
Zn14	Zn	1.563313	0.705746	0.795329
Zn15	Zn	1.813313	0.955746	1.045329
Zn16	Zn	2.063313	1.205746	1.295329
O17	O	1.393965	0.388370	0.464719
O18	O	1.643965	0.638370	0.714719
O19	O	1.893965	0.888370	0.964719
O20	O	2.143965	1.138370	1.214719
O21	O	1.609625	0.338843	0.523992
O22	O	1.859625	0.588843	0.773992
O23	O	2.109625	0.838843	1.023992
O24	O	2.359625	1.088843	1.273992
O25	O	1.453118	0.437954	0.249097
O26	O	1.703118	0.687954	0.499097
O27	O	1.953118	0.937954	0.749097
O28	O	2.203118	1.187954	0.999097
O29	O	1.334814	0.208149	0.405517
O30	O	1.584814	0.458149	0.655517
O31	O	1.834814	0.708149	0.905517
O32	O	2.084814	0.958149	1.155517
O33	O	1.609534	0.437917	0.405485
O34	O	1.859534	0.687917	0.655485
O35	O	2.109534	0.937917	0.905485
O36	O	2.359534	1.187917	1.155485
O37	O	1.453329	0.208121	0.524010
O38	O	1.703329	0.458121	0.774010
O39	O	1.953329	0.708121	1.024010
O40	O	2.203329	0.958121	1.274010
O41	O	1.334694	0.338908	0.249111
O42	O	1.584694	0.588908	0.499111
O43	O	1.834694	0.838908	0.749111
O44	O	2.084694	1.088908	0.999111
O45	O	1.178363	0.338857	0.405471
O46	O	1.428363	0.588857	0.655471
O47	O	1.678363	0.838857	0.905471
O48	O	1.928363	1.088857	1.155471
O49	O	1.334753	0.437826	0.680317
O50	O	1.584753	0.687826	0.930317
O51	O	1.834753	0.937826	1.180317
O52	O	2.084753	1.187826	1.430317
O53	O	1.178336	0.437864	0.523928
O54	O	1.428336	0.687864	0.773928
O55	O	1.678336	0.937864	1.023928
O56	O	1.928336	1.187864	1.273928
O57	O	1.453294	0.338791	0.680352
O58	O	1.703294	0.588791	0.930352
O59	O	1.953294	0.838791	1.180352
O60	O	2.203294	1.088791	1.430352
O61	O	1.453083	0.568624	0.405439
O62	O	1.703083	0.818624	0.655439
O63	O	1.953083	1.068624	0.905439
O64	O	2.203083	1.318624	1.155439
O65	O	1.334633	0.568585	0.523910
O66	O	1.584633	0.818585	0.773910
O67	O	1.834633	1.068585	1.023910
O68	O	2.084633	1.318585	1.273910
C69	C	1.143350	0.388359	0.464697
C70	C	1.393350	0.638359	0.714697
C71	C	1.643350	0.888359	0.964697
C72	C	1.893350	1.138359	1.214697
C73	C	1.036136	0.388374	0.464711
C74	C	1.286136	0.638374	0.714711
C75	C	1.536136	0.888374	0.964711
C76	C	1.786136	1.138374	1.214711
C77	C	0.839841	0.388377	0.464736
C78	C	1.089841	0.638377	0.714736
C79	C	1.339841	0.888377	0.964736
C80	C	1.589841	1.138377	1.214736
C81	C	0.949074	0.388373	0.464719
C82	C	1.199074	0.638373	0.714719
C83	C	1.449074	0.888373	0.964719
C84	C	1.699074	1.138373	1.214719
C85	C	1.393867	0.597861	0.464688
C86	C	1.643867	0.847861	0.714688
C87	C	1.893867	1.097861	0.964688
C88	C	2.143867	1.347861	1.214688
C89	C	1.393913	0.687482	0.464707
C90	C	1.643913	0.937482	0.714707
C91	C	1.893913	1.187482	0.964707
C92	C	2.143913	1.437482	1.214707
C93	C	1.394070	1.015657	0.464822
C94	C	1.644070	1.265657	0.714822
C95	C	1.894070	1.515657	0.964822
C96	C	2.144070	1.765657	1.214822
C97	C	1.394023	0.924349	0.464793
C98	C	1.644023	1.174349	0.714793
C99	C	1.894023	1.424349	0.964793
C100	C	2.144023	1.674349	1.214793
C101	C	1.393991	0.851573	0.464764
C102	C	1.643991	1.101573	0.714764
C103	C	1.893991	1.351573	0.964764
C104	C	2.143991	1.601573	1.214764
C105	C	1.393945	0.760258	0.464736
C106	C	1.643945	1.010258	0.714736
C107	C	1.893945	1.260258	0.964736
C108	C	2.143945	1.510258	1.214736
C109	C	1.645558	0.388381	0.464742
C110	C	1.895558	0.638381	0.714742
C111	C	2.145558	0.888381	0.964742
C112	C	2.395558	1.138381	1.214742
C113	C	1.752772	0.388386	0.464751
C114	C	2.002772	0.638386	0.714751
C115	C	2.252772	0.888386	0.964751
C116	C	2.502772	1.138386	1.214751
C117	C	1.394033	0.388299	0.716312
C118	C	1.644033	0.638299	0.966312
C119	C	1.894033	0.888299	1.216312
C120	C	2.144033	1.138299	1.466312
C121	C	1.394062	0.388268	0.823526
C122	C	1.644062	0.638268	1.073526
C123	C	1.894062	0.888268	1.323526
C124	C	2.144062	1.138268	1.573526
C125	C	1.394081	1.178061	0.464783
C126	C	1.644081	1.428061	0.714783
C127	C	1.894081	1.678061	0.964783
C128	C	2.144081	1.928061	1.214783
C129	C	1.394110	1.088440	0.464839
C130	C	1.644110	1.338440	0.714839
C131	C	1.894110	1.588440	0.964839
C132	C	2.144110	1.838440	1.214839
C133	C	1.393952	0.388383	0.214105
C134	C	1.643952	0.638383	0.464105
C135	C	1.893952	0.888383	0.714105
C136	C	2.143952	1.138383	0.964105
C137	C	1.394110	0.388186	0.106891
C138	C	1.644110	0.638186	0.356891
C139	C	1.894110	0.888186	0.606891
C140	C	2.144110	1.138186	0.856891
C141	C	1.394088	0.388214	1.019821
C142	C	1.644088	0.638214	1.269821
C143	C	1.894088	0.888214	1.519821
C144	C	2.144088	1.138214	1.769821
C145	C	1.394071	0.388246	0.910589
C146	C	1.644071	0.638246	1.160589
C147	C	1.894071	0.888246	1.410589
C148	C	2.144071	1.138246	1.660589
