data_functionalizedCrystal
_audit_creation_method	'MofGen! by Chris Wilmer'
_symmetry_space_group_name_H-M	'P1'
_symmetry_Int_Tables_number	1
_symmetry_cell_setting	triclinic
loop_
_symmetry_equiv_pos_as_xyz
  x,y,z
_cell_length_a	14.395555
_cell_length_b	14.446369
_cell_length_c	14.395555
_cell_angle_alpha	60.000723
_cell_angle_beta	90.002623
_cell_angle_gamma	59.999570
loop_
_atom_site_label
_atom_site_type_symbol
_atom_site_fract_x
_atom_site_fract_y
_atom_site_fract_z
Zr1	Zr	-0.121902	1.013196	0.894924
O2	O	-0.270242	1.206315	0.746597
O3	O	-0.076421	0.820077	0.940393
O4	O	-0.270223	1.013187	0.940397
O5	O	0.076427	1.013212	0.746592
O6	O	-0.270215	1.013180	1.093271
O7	O	-0.076441	1.013205	0.746593
O8	O	0.076461	0.667741	1.093265
O9	O	-0.270249	1.358651	0.746598
O10	O	-0.057026	0.899504	1.073875
O11	O	0.057051	0.899515	0.959786
O12	O	-0.171125	1.126877	0.959790
O13	O	-0.057048	1.126888	0.845701
Zr14	Zr	0.121917	1.013196	1.138739
Zr15	Zr	-0.121889	1.013185	1.138741
Zr16	Zr	0.121904	1.013207	0.894922
Zr17	Zr	-0.121913	1.256154	0.894926
Zr18	Zr	0.121928	0.770238	1.138737
O19	O	0.076436	1.206315	1.093270
O20	O	-0.270224	1.206300	1.093272
O21	O	0.076418	1.206331	0.746594
O22	O	0.270257	0.820077	1.287067
O23	O	-0.076403	0.820061	1.287069
O24	O	0.270239	0.820092	0.940391
O25	O	-0.076412	1.013180	1.287071
O26	O	0.270238	1.013205	1.093267
O27	O	0.270230	1.013212	0.940393
O28	O	0.076455	1.013187	1.287070
O29	O	-0.270239	1.358642	0.940400
O30	O	0.270254	0.667750	1.093264
O31	O	0.270264	0.667741	1.287065
O32	O	0.076471	0.667732	1.287067
O33	O	-0.076456	1.358660	0.746597
O34	O	-0.076446	1.358651	0.940398
O35	O	0.171140	0.899515	1.073873
O36	O	0.057063	0.899504	1.187962
O37	O	-0.057036	1.126877	1.073877
O38	O	0.057041	1.126888	0.959788
C39	C	0.000021	0.709293	1.016829
C40	C	0.000026	0.606151	1.016828
C41	C	-0.304956	1.013182	1.016834
C42	C	-0.408458	1.013178	1.016835
C43	C	0.072304	0.459147	0.945217
C44	C	0.072012	0.566767	0.944827
C45	C	-0.123948	0.655143	0.964338
C46	C	-0.123573	0.547911	0.963800
C47	C	0.050656	0.372689	1.140980
C48	C	0.053185	0.478840	1.140797
C49	C	-0.406835	0.889204	1.079045
C50	C	-0.499865	0.951182	0.971769
C51	C	-0.499856	0.951204	1.124084
C52	C	-0.500125	1.075156	0.909496
C53	C	-0.500102	1.075161	1.061888
C54	C	-0.593150	1.137230	0.954548
C55	C	0.304971	1.013210	1.016829
C56	C	0.408473	1.013214	1.016829
C57	C	-0.000009	1.013210	0.711854
C58	C	-0.000014	1.013214	0.608348
C59	C	-0.000007	1.317099	1.016834
C60	C	-0.000011	1.420241	1.016835
C61	C	-0.062217	1.137188	0.485555
C62	C	-0.107288	1.075210	0.454719
C63	C	0.045049	1.075188	0.454760
C64	C	-0.045149	0.951235	0.578876
C65	C	0.107248	0.951231	0.578914
C66	C	0.062203	0.889162	0.548151
C67	C	0.000024	1.013182	1.321809
C68	C	0.000029	1.013178	1.425315
C69	C	0.000038	0.709279	1.321806
C70	C	0.000048	0.606132	1.425312
C71	C	0.304985	0.709306	1.016827
C72	C	0.408492	0.606169	1.016825
C73	C	0.305001	0.709293	1.321804
C74	C	0.408513	0.606151	1.425309
C75	C	-0.304986	1.317099	0.711859
C76	C	-0.408498	1.420241	0.608354
C77	C	-0.000023	1.317113	0.711857
C78	C	-0.000033	1.420260	0.608351
C79	C	-0.304970	1.317086	1.016837
C80	C	-0.408477	1.420223	1.016838
C81	C	0.071643	0.459812	1.644449
C82	C	0.072044	0.566740	1.536840
C83	C	0.052535	0.479276	1.428650
C84	C	0.053061	0.371894	1.536798
C85	C	-0.124122	0.546865	1.535423
C86	C	-0.123927	0.655342	1.429081
C87	C	0.483742	0.459857	0.944520
C88	C	0.376029	0.566779	0.944827
C89	C	0.483321	0.479310	1.140792
C90	C	0.590563	0.371934	1.140401
C91	C	0.592137	0.546914	0.966184
C92	C	0.483076	0.655385	0.963669
C93	C	0.627653	0.459815	1.500557
C94	C	0.520037	0.566759	1.392846
C95	C	0.411846	0.479298	1.500114
C96	C	0.520000	0.371900	1.607353
C97	C	0.518649	0.546845	1.608975
C98	C	0.412300	0.655337	1.499916
H99	H	0.163302	0.530060	0.980036
O100	O	-0.195149	0.514028	1.498950
H101	H	-0.156449	0.474163	1.449707
H102	H	0.508690	0.687510	1.010867
H103	H	-0.500748	0.898786	1.214790
H104	H	0.522489	0.529311	1.338855
O105	O	-0.227419	1.144611	0.383826
H106	H	-0.265237	1.094093	0.435053
O107	O	-0.198849	0.518831	1.028401
H108	H	-0.199147	0.442100	1.028498
O109	O	-0.501103	0.881774	0.921293
H110	H	-0.500570	0.932284	0.832778
O111	O	0.519509	0.508763	1.215279
H112	H	0.484457	0.614386	1.164612
H113	H	-0.083346	0.898874	0.632234
O114	O	0.414742	0.428208	1.194891
H115	H	0.327381	0.492929	1.133717
O116	O	0.193530	0.341440	0.991584
H117	H	0.203538	0.253944	1.066167
O118	O	-0.177301	0.601813	0.842796
H119	H	-0.114835	0.540833	0.818105
O120	O	-0.182185	0.599332	1.601882
H121	H	-0.123204	0.535711	1.690152
H122	H	0.114812	0.784245	0.573807
H123	H	0.681807	0.497042	1.498224
H124	H	-0.499127	1.127509	1.100029
O125	O	0.227371	0.881848	0.649795
H126	H	0.264594	0.933510	0.599105
O127	O	0.193343	0.517128	1.540089
H128	H	0.204433	0.515681	1.464419
O129	O	0.026180	0.506507	0.824636
H130	H	0.030471	0.427299	0.825279
H131	H	0.004262	0.341939	1.510051
O132	O	0.412979	0.775208	1.431580
H133	H	0.491498	0.755180	1.474111
H134	H	0.332869	0.687459	1.525534
H135	H	-0.114899	1.242019	0.460112
O136	O	0.095517	1.144614	0.383886
H137	H	0.043711	1.247508	0.357038
O138	O	0.025421	0.685100	1.538975
H139	H	0.002388	0.666302	1.617057
H140	H	-0.327067	0.784375	1.131565
H141	H	0.036617	0.497050	1.698596
H142	H	0.162666	0.370146	1.699627
O143	O	0.174059	0.251664	1.603725
H144	H	0.231647	0.270619	1.558698
H145	H	0.002879	0.501523	1.350107
O146	O	0.172404	0.428182	1.425854
H147	H	0.171166	0.503928	1.346569
O148	O	-0.175896	0.775237	1.429724
H149	H	-0.113698	0.799691	1.427367
O150	O	-0.200706	0.698469	1.323622
H151	H	-0.151460	0.685350	1.266661
H152	H	0.596261	0.586491	0.876277
O153	O	0.303843	0.685123	0.823911
H154	H	0.345731	0.666325	0.764689
H155	H	0.409691	0.440759	1.448310
H156	H	0.333309	0.501543	1.527449
H157	H	0.568851	0.586402	1.613120
O158	O	-0.698636	1.276203	0.884767
H159	H	-0.775256	1.275250	0.885853
H160	H	0.481392	0.497100	0.853001
H161	H	0.482709	0.370189	0.979328
H162	H	-0.499311	1.127517	0.818751
O163	O	0.304464	0.517215	0.991255
H164	H	0.346758	0.416683	1.013601
H165	H	0.491113	0.522044	1.687470
H166	H	0.590294	0.281178	1.180951
O167	O	0.695032	0.332227	1.215662
H168	H	0.668802	0.389725	1.252182
O169	O	0.414722	0.775265	0.842697
H170	H	0.327987	0.799709	0.820512
H171	H	0.036886	0.655571	0.853255
O172	O	0.696112	0.514091	1.035607
H173	H	0.749674	0.408127	1.105839
O174	O	0.522190	0.685104	1.320691
H175	H	0.600284	0.666289	1.362592
O176	O	0.700712	0.341068	1.499141
H177	H	0.713924	0.253961	1.577407
O178	O	0.586929	0.251693	1.606982
H179	H	0.541896	0.270669	1.530357
H180	H	0.493259	0.341934	1.686214
O181	O	0.169741	0.248551	1.199053
H182	H	0.203563	0.217046	1.286421
O183	O	-0.198425	0.693299	1.030090
H184	H	-0.147747	0.677714	1.101046
H185	H	0.144518	0.439242	1.180011
O186	O	-0.177824	0.776994	0.844259
H187	H	-0.116563	0.802925	0.821776
H188	H	0.005994	0.500338	1.198654
O189	O	-0.018766	0.338261	1.212008
H190	H	-0.089008	0.354897	1.159219
