data_functionalizedCrystal
_audit_creation_method	'MofGen! by Chris Wilmer'
_symmetry_space_group_name_H-M	'P1'
_symmetry_Int_Tables_number	1
_symmetry_cell_setting	triclinic
loop_
_symmetry_equiv_pos_as_xyz
  x,y,z
_cell_length_a	15.995350
_cell_length_b	10.489716
_cell_length_c	15.072220
_cell_angle_alpha	90.005342
_cell_angle_beta	90.000308
_cell_angle_gamma	84.010755
loop_
_atom_site_label
_atom_site_type_symbol
_atom_site_fract_x
_atom_site_fract_y
_atom_site_fract_z
O1	O	1.111966	0.164419	0.073699
O2	O	0.868312	0.184721	0.073717
O3	O	0.995694	-0.011108	0.073711
O4	O	0.984584	0.360248	0.073705
O5	O	0.995685	-0.011131	-0.073854
O6	O	0.868303	0.184698	-0.073849
O7	O	1.111957	0.164395	-0.073866
Zn8	Zn	0.990129	0.174543	-0.097286
Zn9	Zn	0.990140	0.174574	0.097137
O10	O	0.984576	0.360224	-0.073860
C11	C	0.837108	0.183870	-0.000064
C12	C	0.744143	0.181354	-0.000057
C13	C	0.994855	-0.058640	-0.000069
C14	C	0.992358	-0.200236	-0.000061
C15	C	0.406341	0.172317	-0.000075
C16	C	0.452942	0.032851	-0.000402
C17	C	0.549648	0.035368	-0.000063
C18	C	0.573928	0.176799	-0.000066
C19	C	0.533257	0.245602	0.084196
C20	C	0.436600	0.242099	0.084260
C21	C	0.436269	0.244953	-0.083549
C22	C	0.533214	0.244920	-0.084656
C23	C	0.668641	0.179340	-0.000059
C24	C	0.311628	0.169780	-0.000077
C25	C	1.070472	-0.299003	-0.000074
C26	C	1.029199	-0.375774	0.072683
C27	C	1.029172	-0.375761	-0.072804
C28	C	0.951117	-0.275142	0.072757
C29	C	0.951102	-0.275124	-0.072796
C30	C	0.909771	-0.351846	-0.000020
C31	C	1.143162	0.165246	-0.000084
C32	C	1.236127	0.167763	-0.000085
C33	C	0.985415	0.407756	-0.000078
C34	C	0.987912	0.549352	-0.000081
N35	N	0.990127	0.174521	-0.229975
C36	C	0.990141	0.174564	-0.589177
C37	C	1.058526	0.070130	-0.551545
C38	C	1.058343	0.069744	-0.448720
C39	C	0.990135	0.174542	-0.410973
C40	C	0.902604	0.145476	-0.448309
C41	C	0.903009	0.144738	-0.551166
C42	C	1.008502	0.308373	-0.551257
C43	C	1.010479	0.307476	-0.448393
C44	C	0.990126	0.174533	-0.310259
C45	C	0.990144	0.174571	-0.689890
N46	N	0.990149	0.174586	0.229826
H47	H	0.577750	-0.018713	-0.060466
N48	N	0.426538	-0.040667	0.079181
H49	H	0.384522	0.015977	0.115446
H50	H	0.477470	-0.068489	0.116756
H51	H	1.062178	-0.419721	0.134192
N52	N	0.568990	0.178400	-0.167234
H53	H	0.611394	0.104445	-0.149932
H54	H	0.597364	0.241217	-0.204610
N55	N	0.586120	-0.036712	0.080096
H56	H	0.616312	0.022755	0.118494
H57	H	0.627079	-0.110945	0.060088
H58	H	0.918163	-0.231367	0.134336
N59	N	0.819716	-0.383014	0.000053
H60	H	0.790327	-0.346064	0.055043
H61	H	0.818606	-0.479100	-0.000498
H62	H	1.123383	0.087052	-0.423476
H63	H	0.963960	0.388831	-0.422696
N64	N	1.072853	-0.433965	-0.154289
H65	H	1.121247	-0.497996	-0.135734
H66	H	1.094819	-0.364074	-0.190944
N67	N	0.411948	0.175663	0.167694
H68	H	0.463848	0.148923	0.204084
H69	H	0.383530	0.097375	0.151289
H70	H	1.123782	0.087158	-0.576280
N71	N	0.942460	0.411324	-0.583488
H72	H	0.900844	0.371555	-0.622462
H73	H	0.970268	0.477184	-0.618639
N74	N	0.552795	0.383233	0.088357
H75	H	0.584561	0.397476	0.144803
H76	H	0.498600	0.441989	0.087488
H77	H	1.071007	0.336310	-0.577196
H78	H	0.404964	0.344493	0.088082
H79	H	1.046880	-0.028608	-0.577401
N80	N	0.408715	0.184551	-0.168158
H81	H	0.345369	0.188371	-0.169348
H82	H	0.433792	0.092196	-0.170886
H83	H	0.561350	0.197834	0.146908
N84	N	0.427948	-0.041001	-0.080443
H85	H	0.401500	-0.119416	-0.060333
H86	H	0.479449	-0.068207	-0.117326
H87	H	0.549195	0.348055	-0.089748
H88	H	1.046530	-0.029557	-0.424120
N89	N	0.881751	0.015472	-0.582963
H90	H	0.872205	-0.040495	-0.530163
H91	H	0.929769	-0.026437	-0.619744
H92	H	0.405121	0.347780	-0.084121
H93	H	0.918152	-0.231155	-0.134306
H94	H	0.850552	0.217911	-0.576061
N95	N	0.833522	0.243531	-0.415919
H96	H	0.858361	0.307892	-0.376637
H97	H	0.791106	0.199072	-0.381053
N98	N	0.880826	0.017682	-0.414209
H99	H	0.878280	0.019716	-0.347262
H100	H	0.925230	-0.052064	-0.433976
N101	N	1.160473	-0.267576	0.000014
H102	H	1.170866	-0.215319	0.054445
H103	H	1.171201	-0.216765	-0.054991
N104	N	1.095777	0.336703	-0.416077
H105	H	1.121141	0.264147	-0.377357
H106	H	1.089533	0.418868	-0.380643
