data_functionalizedCrystal
_audit_creation_method	'MofGen! by Chris Wilmer'
_symmetry_space_group_name_H-M	'P1'
_symmetry_Int_Tables_number	1
_symmetry_cell_setting	triclinic
loop_
_symmetry_equiv_pos_as_xyz
  x,y,z
_cell_length_a	12.594517
_cell_length_b	13.897449
_cell_length_c	13.897441
_cell_angle_alpha	90.020733
_cell_angle_beta	89.976768
_cell_angle_gamma	89.992087
loop_
_atom_site_label
_atom_site_type_symbol
_atom_site_fract_x
_atom_site_fract_y
_atom_site_fract_z
Zn1	Zn	0.423672	1.474777	0.545431
Zn2	Zn	0.601683	1.474702	0.384153
Zn3	Zn	0.423722	1.313466	0.384149
Zn4	Zn	0.601613	1.313479	0.545405
O5	O	0.512672	1.394106	0.464784
O6	O	0.447293	1.609748	0.524049
O7	O	0.578126	1.453277	0.249171
O8	O	0.274770	1.334890	0.405552
O9	O	0.578077	1.609693	0.405559
O10	O	0.274733	1.453404	0.524045
O11	O	0.447380	1.334817	0.249168
O12	O	0.447312	1.178486	0.405528
O13	O	0.577958	1.334912	0.680390
O14	O	0.578007	1.178495	0.524002
O15	O	0.447226	1.453417	0.680409
O16	O	0.750619	1.453289	0.405534
O17	O	0.750568	1.334839	0.524006
C18	C	0.512658	1.143491	0.464762
C19	C	0.512678	1.036278	0.464776
C20	C	0.512681	0.839982	0.464801
C21	C	0.512676	0.949215	0.464784
C22	C	0.235052	1.394154	0.464801
C23	C	0.116746	1.394175	0.464808
C24	C	0.047473	1.458627	0.529260
C25	C	-0.023284	1.482195	0.441264
C26	C	-0.023296	1.370638	0.552810
C27	C	0.047548	1.417788	0.376765
C28	C	0.047541	1.306190	0.488371
C29	C	-0.023183	1.329724	0.400313
C30	C	0.789213	1.394084	0.464789
C31	C	0.907519	1.394163	0.464823
C32	C	0.512578	1.394174	0.716377
C33	C	0.512538	1.394203	0.823591
C34	C	0.512687	1.645699	0.464807
C35	C	0.512694	1.752913	0.464817
C36	C	0.512689	1.394093	0.214170
C37	C	0.512429	1.394251	0.106957
C38	C	0.512466	1.394230	1.019887
C39	C	0.512509	1.394212	0.910654
H40	H	0.078497	1.513180	0.583692
H41	H	0.078672	1.231810	0.508325
H42	H	-0.054393	1.556596	0.421334
H43	H	-0.054417	1.350737	0.627226
H44	H	-0.054012	1.275213	0.345751
O45	O	0.084684	1.441653	0.288026
C46	C	0.238546	1.468358	0.188444
C47	C	0.196631	1.441345	0.288989
H48	H	0.329058	1.468099	0.189183
H49	H	0.208824	1.543145	0.168201
H50	H	0.208773	1.413757	0.133486
H51	H	0.226386	1.495882	0.344013
H52	H	0.226344	1.366535	0.309149
