data_functionalizedCrystal
_audit_creation_method	'MofGen! by Chris Wilmer'
_symmetry_space_group_name_H-M	'P1'
_symmetry_Int_Tables_number	1
_symmetry_cell_setting	triclinic
loop_
_symmetry_equiv_pos_as_xyz
  x,y,z
_cell_length_a	10.654562
_cell_length_b	14.044220
_cell_length_c	9.730223
_cell_angle_alpha	89.997406
_cell_angle_beta	89.996961
_cell_angle_gamma	88.839490
loop_
_atom_site_label
_atom_site_type_symbol
_atom_site_fract_x
_atom_site_fract_y
_atom_site_fract_z
O1	O	1.681218	0.133285	-0.114385
O2	O	1.317016	0.145966	-0.114369
O3	O	1.493651	0.001605	-0.114363
O4	O	1.504584	0.277647	-0.114391
O5	O	1.493649	0.001609	0.114217
O6	O	1.317015	0.145970	0.114211
O7	O	1.681217	0.133289	0.114195
Zn8	Zn	1.499115	0.139630	0.150495
Zn9	Zn	1.499118	0.139625	-0.150669
O10	O	1.504582	0.277650	0.114189
C11	C	1.270124	0.145034	-0.000077
C12	C	1.130401	0.142241	-0.000070
C13	C	1.064738	0.140940	0.124519
C14	C	0.933453	0.138323	0.124496
C15	C	0.933504	0.138312	-0.124715
C16	C	1.064788	0.140922	-0.124690
C17	C	1.130351	0.142259	0.249139
C18	C	1.064689	0.140959	0.373738
C19	C	0.933403	0.138342	0.373715
C20	C	0.867781	0.137025	0.249094
C21	C	1.488864	-0.033739	-0.000073
C22	C	1.474588	-0.139059	-0.000070
C23	C	1.448490	-0.331893	-0.000089
C24	C	1.549738	-0.388857	-0.000098
C25	C	1.535216	-0.496157	-0.000108
C26	C	1.463010	-0.224584	-0.000078
C27	C	1.728109	0.134221	-0.000101
C28	C	1.867832	0.137014	-0.000117
C29	C	1.509369	0.312994	-0.000105
C30	C	1.523645	0.418315	-0.000116
N31	N	1.499123	0.139633	0.356031
N32	N	1.499119	0.139615	-0.356205
C33	C	1.577361	0.075731	0.427960
C34	C	1.577356	0.075720	0.571843
C35	C	1.420873	0.203519	0.571856
C36	C	1.420872	0.203526	0.427976
C37	C	1.655612	0.011839	0.356015
C38	C	1.733857	-0.052067	0.427944
C39	C	1.733853	-0.052079	0.571827
C40	C	1.655603	0.011816	0.643781
H41	H	0.879945	0.137276	0.475169
H42	H	1.797558	-0.104093	0.369351
H43	H	1.350911	-0.363707	-0.000088
H44	H	1.655625	0.011844	0.238859
Cl45	Cl	1.832204	-0.132422	0.662250
Cl46	Cl	1.655591	0.011789	0.824665
H47	H	1.647325	-0.357041	-0.000194
H48	H	1.118127	0.142025	0.475199
H49	H	0.880064	0.137242	-0.226175
Cl50	Cl	1.322513	0.283841	0.662313
H51	H	1.357162	0.255559	0.369411
H52	H	1.237250	0.144393	0.249172
H53	H	0.760880	0.134892	0.249085
H54	H	1.118251	0.141986	-0.226141
