data_functionalizedCrystal
_audit_creation_method	'MofGen! by Chris Wilmer'
_symmetry_space_group_name_H-M	'P1'
_symmetry_Int_Tables_number	1
_symmetry_cell_setting	triclinic
loop_
_symmetry_equiv_pos_as_xyz
  x,y,z
_cell_length_a	21.295418
_cell_length_b	12.759399
_cell_length_c	12.759393
_cell_angle_alpha	90.030906
_cell_angle_beta	89.958063
_cell_angle_gamma	89.969069
loop_
_atom_site_label
_atom_site_type_symbol
_atom_site_fract_x
_atom_site_fract_y
_atom_site_fract_z
Zn1	Zn	0.962412	0.417772	-0.594606
Zn2	Zn	1.462412	0.917772	-0.094606
Zn3	Zn	0.962346	0.593487	-0.418925
Zn4	Zn	1.462346	1.093487	0.081075
Zn5	Zn	0.857138	0.417872	-0.418877
Zn6	Zn	1.357138	0.917872	0.081123
Zn7	Zn	0.857133	0.593458	-0.594498
Zn8	Zn	1.357133	1.093458	-0.094498
O9	O	0.909757	0.505647	-0.506726
O10	O	1.409757	1.005647	-0.006726
O11	O	1.050493	0.441051	-0.571367
O12	O	1.550493	0.941051	-0.071367
O13	O	0.948365	0.570246	-0.271897
O14	O	1.448365	1.070246	0.228103
O15	O	0.871133	0.270837	-0.442213
O16	O	1.371133	0.770837	0.057787
O17	O	1.050444	0.570149	-0.442295
O18	O	1.550444	1.070149	0.057705
O19	O	0.948477	0.270764	-0.571320
O20	O	1.448477	0.770764	-0.071320
O21	O	0.871069	0.441221	-0.271862
O22	O	1.371069	0.941221	0.228138
O23	O	0.769048	0.441193	-0.442108
O24	O	1.269048	0.941193	0.057892
O25	O	0.871124	0.570099	-0.741533
O26	O	1.371124	1.070099	-0.241533
O27	O	0.769044	0.570195	-0.571136
O28	O	1.269044	1.070195	-0.071136
O29	O	0.948472	0.441023	-0.741613
O30	O	1.448472	0.941023	-0.241613
O31	O	0.948359	0.740505	-0.442190
O32	O	1.448359	1.240505	0.057810
O33	O	0.871060	0.740483	-0.571182
O34	O	1.371060	1.240483	-0.071182
C35	C	0.746206	0.505702	-0.506605
C36	C	1.246206	1.005702	-0.006605
C37	C	0.676237	0.505751	-0.506579
C38	C	1.176237	1.005751	-0.006579
C39	C	0.909719	0.778615	-0.506702
C40	C	1.409719	1.278615	-0.006702
C41	C	0.909760	0.895391	-0.506727
C42	C	1.409760	1.395391	-0.006727
C43	C	0.909804	0.505546	-0.780760
C44	C	1.409804	1.005546	-0.280760
C45	C	0.909824	0.505503	-0.897537
C46	C	1.409824	1.005503	-0.397537
C47	C	0.643385	0.573012	-0.573663
C48	C	1.143385	1.073012	-0.073663
C49	C	0.577643	0.572986	-0.573710
C50	C	1.077643	1.072986	-0.073710
C51	C	0.544755	0.505711	-0.506654
C52	C	1.044755	1.005711	-0.006654
C53	C	0.577615	0.438437	-0.439565
C54	C	1.077615	0.938437	0.060435
C55	C	0.643356	0.438457	-0.439527
C56	C	1.143356	0.938457	0.060473
N57	N	0.441479	0.497514	-0.414762
N58	N	0.941479	0.997514	0.085238
N59	N	0.379028	0.497501	-0.414801
N60	N	0.879028	0.997501	0.085199
C61	C	0.346680	0.505644	-0.506766
C62	C	0.846680	1.005644	-0.006766
N63	N	0.379143	0.513821	-0.598692
N64	N	0.879143	1.013821	-0.098692
N65	N	0.441601	0.513840	-0.598652
N66	N	0.941601	1.013840	-0.098652
C67	C	0.473470	0.505681	-0.506688
C68	C	0.973470	1.005681	-0.006688
C69	C	0.242543	0.572880	-0.573907
C70	C	0.742543	1.072880	-0.073907
C71	C	0.176799	0.572846	-0.573956
C72	C	0.676799	1.072846	-0.073956
C73	C	0.176773	0.438303	-0.439801
C74	C	0.676773	0.938303	0.060199
C75	C	0.242515	0.438331	-0.439762
C76	C	0.742515	0.938331	0.060238
C77	C	0.275396	0.505625	-0.506813
C78	C	0.775396	1.005625	-0.006813
C79	C	1.073948	0.505592	-0.506848
C80	C	1.573948	1.005592	-0.006848
C81	C	1.143916	0.505569	-0.506900
C82	C	1.643916	1.005569	-0.006900
C83	C	0.909813	0.231614	-0.506773
C84	C	1.409813	0.731614	-0.006773
C85	C	0.909837	0.114837	-0.506793
C86	C	1.409837	0.614837	-0.006793
C87	C	0.950056	0.950229	-0.439637
C88	C	1.450056	1.450229	0.060363
C89	C	0.950096	1.059953	-0.439673
C90	C	1.450096	1.559953	0.060327
C91	C	0.869539	1.059991	-0.573891
C92	C	1.369539	1.559991	-0.073891
C93	C	0.869503	0.950269	-0.573860
C94	C	1.369503	1.450269	-0.073860
C95	C	0.950103	0.438283	-0.952442
C96	C	1.450103	0.938283	-0.452442
C97	C	0.950113	0.438237	-1.062166
C98	C	1.450113	0.938237	-0.562166
C99	C	0.869566	0.572642	-1.062070
C100	C	1.369566	1.072642	-0.562070
C101	C	0.869552	0.572681	-0.952348
C102	C	1.369552	1.072681	-0.452348
C103	C	0.909747	0.505672	-0.233759
C104	C	1.409747	1.005672	0.266241
C105	C	0.909848	0.505419	-0.116983
C106	C	1.409848	1.005419	0.383017
H107	H	0.670153	0.627807	-0.628263
H108	H	1.170153	1.127807	-0.128263
H109	H	0.982910	1.104598	-0.385043
H110	H	1.482910	1.604598	0.114957
C111	C	0.825256	1.120355	-0.647728
C112	C	1.325256	1.620355	-0.147728
H113	H	0.801257	1.071978	-0.687688
H114	H	1.301257	1.571978	-0.187688
H115	H	0.797854	1.163242	-0.607497
H116	H	1.297854	1.663242	-0.107497
H117	H	0.849342	1.163074	-0.693570
H118	H	1.349342	1.663074	-0.193570
C119	C	0.994394	0.364385	-0.892148
C120	C	1.494394	0.864385	-0.392148
H121	H	0.988623	0.374040	-0.818937
H122	H	1.488623	0.874040	-0.318937
H123	H	0.985199	0.293791	-0.910134
H124	H	1.485199	0.793791	-0.410134
H125	H	1.036690	0.379748	-0.910166
H126	H	1.536690	0.879748	-0.410166
C127	C	0.994422	0.364300	-1.122557
C128	C	1.494422	0.864300	-0.622557
H129	H	1.018406	0.324305	-1.074195
H130	H	1.518406	0.824305	-0.574195
H131	H	0.970360	0.318511	-1.165346
H132	H	1.470360	0.818511	-0.665346
H133	H	1.021847	0.404475	-1.165376
H134	H	1.521847	0.904475	-0.665376
C135	C	0.679496	0.364473	-0.365726
C136	C	1.179496	0.864473	0.134274
H137	H	0.650496	0.324404	-0.325791
H138	H	1.150496	0.824404	0.174209
H139	H	0.705190	0.318756	-0.405977
H140	H	1.205190	0.818756	0.094023
H141	H	0.705091	0.404626	-0.319859
H142	H	1.205091	0.904626	0.180141
C143	C	0.994342	0.889867	-0.365805
C144	C	1.494342	1.389867	0.134195
H145	H	1.018351	0.938246	-0.325861
H146	H	1.518351	1.438246	0.174139
H147	H	0.970265	0.847144	-0.319964
H148	H	1.470265	1.347144	0.180036
H149	H	1.021745	0.846984	-0.406049
H150	H	1.521745	1.346984	0.093951
H151	H	0.836689	0.905617	-0.628498
H152	H	1.336689	1.405617	-0.128498
C153	C	0.825274	0.646542	-1.122361
C154	C	1.325274	1.146542	-0.622361
H155	H	0.801280	0.686576	-1.073944
H156	H	1.301280	1.186576	-0.573944
H157	H	0.849350	0.692296	-1.165176
H158	H	1.349350	1.192296	-0.665176
H159	H	0.797858	0.606340	-1.165147
H160	H	1.297858	1.106340	-0.665147
C161	C	0.541497	0.646914	-0.647567
C162	C	1.041497	1.146914	-0.147567
H163	H	0.570496	0.686978	-0.687509
H164	H	1.070496	1.186978	-0.187509
H165	H	0.515917	0.606715	-0.693406
H166	H	1.015917	1.106715	-0.193406
H167	H	0.515788	0.692657	-0.607359
H168	H	1.015788	1.192657	-0.107359
C169	C	0.541442	0.364436	-0.365805
C170	C	1.041442	0.864436	0.134195
H171	H	0.497583	0.374064	-0.375428
H172	H	0.997583	0.874064	0.124572
H173	H	0.552255	0.293867	-0.381298
H174	H	1.052255	0.793867	0.118702
H175	H	0.552164	0.379736	-0.295178
H176	H	1.052164	0.879736	0.204822
C177	C	0.825248	0.646634	-0.891948
C178	C	1.325248	1.146634	-0.391948
H179	H	0.801273	0.686650	-0.940305
H180	H	1.301273	1.186650	-0.440305
H181	H	0.797825	0.606472	-0.849125
H182	H	1.297825	1.106472	-0.349125
H183	H	0.849321	0.692420	-0.849162
H184	H	1.349321	1.192420	-0.349162
H185	H	0.269316	0.627669	-0.628509
H186	H	0.769316	1.127669	-0.128509
C187	C	0.140661	0.646852	-0.647738
C188	C	0.640661	1.146852	-0.147738
H189	H	0.169662	0.686940	-0.687651
H190	H	0.669662	1.186940	-0.187651
H191	H	0.115059	0.606727	-0.693609
H192	H	0.615059	1.106727	-0.193609
H193	H	0.114974	0.692566	-0.607459
H194	H	0.614974	1.192566	-0.107459
H195	H	0.149996	0.383521	-0.385208
H196	H	0.649996	0.883521	0.114792
H197	H	0.269264	0.383565	-0.385129
H198	H	0.769264	0.883565	0.114871
