data_functionalizedCrystal
_audit_creation_method	'MofGen! by Chris Wilmer'
_symmetry_space_group_name_H-M	'P1'
_symmetry_Int_Tables_number	1
_symmetry_cell_setting	triclinic
loop_
_symmetry_equiv_pos_as_xyz
  x,y,z
_cell_length_a	14.853567
_cell_length_b	14.853567
_cell_length_c	13.330367
_cell_angle_alpha	90.002061
_cell_angle_beta	89.996356
_cell_angle_gamma	96.365069
loop_
_atom_site_label
_atom_site_type_symbol
_atom_site_fract_x
_atom_site_fract_y
_atom_site_fract_z
O1	O	-0.117700	1.196366	0.083359
O2	O	-0.131721	0.933906	0.083377
O3	O	0.006519	1.072147	0.083356
O4	O	-0.255940	1.058125	0.083380
O5	O	0.006515	1.072133	-0.083492
O6	O	-0.131725	0.933892	-0.083470
O7	O	-0.117704	1.196352	-0.083488
Cu8	Cu	-0.124715	1.065121	-0.098714
Cu9	Cu	-0.124710	1.065137	0.098602
O10	O	-0.255945	1.058111	-0.083467
C11	C	-0.131088	0.900311	-0.000045
C12	C	-0.129184	0.800227	-0.000038
C13	C	-0.039019	0.387693	-0.000069
C14	C	-0.203251	0.366412	-0.000053
C15	C	-0.205042	0.460446	-0.000050
C16	C	-0.123819	0.518108	-0.000055
C17	C	-0.040806	0.481736	-0.000063
C18	C	-0.288053	0.496825	-0.000031
C19	C	-0.289846	0.590864	-0.000027
C20	C	-0.208623	0.648528	-0.000039
C21	C	-0.125607	0.612150	-0.000048
C22	C	-0.044384	0.669812	-0.000053
C23	C	0.038633	0.633437	-0.000070
C24	C	0.040417	0.539399	-0.000075
C25	C	-0.210407	0.742565	-0.000034
C26	C	-0.046172	0.763855	-0.000047
C27	C	-0.289531	1.058754	-0.000041
C28	C	-0.389615	1.060657	-0.000032
C29	C	-0.802149	1.150823	-0.000074
C30	C	-0.823430	0.986590	-0.000062
C31	C	-0.729396	0.984800	-0.000052
C32	C	-0.671734	1.066023	-0.000055
C33	C	-0.708106	1.149036	-0.000067
C34	C	-0.693017	0.901789	-0.000050
C35	C	-0.598978	0.899996	-0.000041
C36	C	-0.541314	0.981219	-0.000037
C37	C	-0.577691	1.064235	-0.000048
C38	C	-0.520029	1.145458	-0.000051
C39	C	-0.556405	1.228475	-0.000055
C40	C	-0.650442	1.230259	-0.000063
C41	C	-0.447277	0.979435	-0.000029
C42	C	-0.425987	1.143670	-0.000044
C43	C	0.040106	1.071504	-0.000069
C44	C	0.140189	1.069601	-0.000071
C45	C	-0.118337	1.229947	-0.000065
C46	C	-0.120241	1.330031	-0.000064
N47	N	-0.124718	1.065115	-0.237495
C48	C	-0.185912	1.003894	-0.290011
C49	C	-0.063520	1.126342	-0.290007
C50	C	-0.063517	1.126351	-0.395026
C51	C	-0.124711	1.065130	-0.447542
C52	C	-0.185909	1.003899	-0.395039
C53	C	-0.002314	1.187574	-0.447536
C54	C	-0.002307	1.187585	-0.552561
C55	C	-0.063507	1.126368	-0.605079
C56	C	-0.124707	1.065135	-0.552570
C57	C	-0.185902	1.003914	-0.605086
C58	C	-0.247108	0.942685	-0.552579
C59	C	-0.247108	0.942682	-0.447557
C60	C	-0.063506	1.126371	-0.710100
C61	C	-0.185898	1.003919	-0.710114
N62	N	-0.124700	1.065150	0.237384
H63	H	0.019971	0.810798	-0.000055
Cl64	Cl	-0.353504	1.245785	-0.000040
Cl65	Cl	0.074619	1.264530	-0.381519
Cl66	Cl	0.013412	1.203297	-0.223990
H67	H	-0.870383	0.920463	-0.000066
Cl68	Cl	-0.765508	0.799688	-0.000049
H69	H	-0.235733	0.954068	-0.752866
Cl70	Cl	0.074632	1.264559	-0.618563
Cl71	Cl	-0.847875	1.255182	-0.000073
Cl72	Cl	-0.401551	0.875080	-0.000034
Cl73	Cl	-0.483905	1.330579	-0.000070
H74	H	-0.569370	0.832398	-0.000035
Cl75	Cl	-0.324029	0.865718	-0.618610
Cl76	Cl	-0.696178	1.334613	-0.000072
H77	H	-0.354180	0.449870	-0.000017
Cl78	Cl	-0.324043	0.865712	-0.381547
H79	H	-0.357443	0.620472	-0.000013
Cl80	Cl	-0.262857	0.926927	-0.224008
H81	H	-0.013669	1.176219	-0.752847
H82	H	0.104764	0.680397	-0.000067
H83	H	0.028572	0.358072	-0.000087
Cl84	Cl	-0.314762	0.788291	-0.000005
H85	H	0.108005	0.509774	-0.000112
H86	H	-0.269379	0.319459	-0.000041
