data_functionalizedCrystal
_audit_creation_method	'MofGen! by Chris Wilmer'
_symmetry_space_group_name_H-M	'P1'
_symmetry_Int_Tables_number	1
_symmetry_cell_setting	triclinic
loop_
_symmetry_equiv_pos_as_xyz
  x,y,z
_cell_length_a	23.532361
_cell_length_b	22.010155
_cell_length_c	12.837942
_cell_angle_alpha	90.005329
_cell_angle_beta	91.170696
_cell_angle_gamma	90.004127
loop_
_atom_site_label
_atom_site_type_symbol
_atom_site_fract_x
_atom_site_fract_y
_atom_site_fract_z
O1	O	0.762483	0.050464	-0.125520
O2	O	0.597663	0.050478	-0.143768
O3	O	0.676418	0.050467	0.016220
O4	O	0.683728	0.050474	-0.285508
O5	O	0.676404	-0.050583	0.016196
O6	O	0.597648	-0.050572	-0.143792
O7	O	0.762469	-0.050587	-0.125544
Cu8	Cu	0.680057	-0.059806	-0.134670
Cu9	Cu	0.680074	0.059697	-0.134642
O10	O	0.683713	-0.050576	-0.285532
C11	C	0.576413	-0.000045	-0.143323
C12	C	0.513116	-0.000040	-0.141949
N13	N	0.680049	-0.143859	-0.134689
C14	C	0.239535	0.055039	-0.135926
C15	C	0.299009	0.055040	-0.137227
O16	O	0.329779	0.101885	-0.137853
N17	N	0.328745	-0.000042	-0.137897
C18	C	0.299003	-0.055130	-0.137256
O19	O	0.329756	-0.101982	-0.137944
C20	C	0.239530	-0.055131	-0.135948
C21	C	0.209797	-0.000045	-0.135288
C22	C	0.209803	0.110121	-0.135266
C23	C	0.150332	0.110119	-0.133967
C24	C	0.120594	0.055035	-0.133329
C25	C	0.150327	-0.000046	-0.133990
C26	C	0.209789	-0.110218	-0.135299
C27	C	0.150312	-0.110214	-0.133990
C28	C	0.120579	-0.055128	-0.133331
C29	C	0.061119	-0.055132	-0.132054
N30	N	0.031384	-0.000049	-0.131383
C31	C	0.061121	0.055035	-0.132021
C32	C	0.423901	-0.055124	-0.140001
C33	C	0.483373	-0.055124	-0.141316
C34	C	0.483375	0.055047	-0.141285
C35	C	0.423902	0.055046	-0.139977
C36	C	0.394165	-0.000041	-0.139331
C37	C	-0.063771	0.055027	-0.129295
C38	C	-0.123246	0.055020	-0.128001
C39	C	-0.123243	-0.055150	-0.128027
C40	C	-0.063773	-0.055144	-0.129326
C41	C	-0.034038	-0.000051	-0.129957
O42	O	0.030312	-0.101953	-0.131423
O43	O	0.030361	0.101879	-0.131319
C44	C	0.714950	-0.563643	-0.063809
C45	C	0.714952	-0.627250	-0.063802
O46	O	0.744604	-0.660146	-0.003551
N47	N	0.680073	-0.659066	-0.134620
C48	C	0.645185	-0.627270	-0.205443
O49	O	0.615517	-0.660173	-0.265678
C50	C	0.645180	-0.563664	-0.205444
C51	C	0.680066	-0.531852	-0.134629
C52	C	0.749833	-0.531831	0.007002
C53	C	0.749831	-0.468227	0.006993
C54	C	0.714947	-0.436436	-0.063827
C55	C	0.680064	-0.468249	-0.134637
C56	C	0.610289	-0.531870	-0.276261
C57	C	0.610287	-0.468259	-0.276256
C58	C	0.645173	-0.436447	-0.205440
C59	C	0.645178	-0.372854	-0.205465
N60	N	0.680058	-0.341039	-0.134647
C61	C	0.714942	-0.372830	-0.063828
C62	C	0.645197	-0.760848	-0.205433
C63	C	0.645204	-0.824453	-0.205438
C64	C	0.714971	-0.824429	-0.063795
C65	C	0.714966	-0.760823	-0.063797
C66	C	0.680076	-0.729033	-0.134615
C67	C	0.714936	-0.239259	-0.063852
C68	C	0.714933	-0.175650	-0.063870
C69	C	0.645164	-0.175680	-0.205508
C70	C	0.645169	-0.239283	-0.205495
C71	C	0.680057	-0.271071	-0.134658
O72	O	0.615540	-0.339919	-0.265683
O73	O	0.744599	-0.339920	-0.003594
C74	C	0.783719	-0.000062	-0.125989
C75	C	0.847016	-0.000064	-0.127363
N76	N	0.680086	0.143750	-0.134614
C77	C	0.673942	-0.000057	0.054802
C78	C	0.666577	-0.000056	0.169802
C79	C	0.686190	-0.000050	-0.324114
C80	C	0.693554	-0.000048	-0.439113
C81	C	0.755111	-0.000051	0.411698
C82	C	0.748194	-0.000049	0.519751
C83	C	0.645827	-0.000046	0.493961
C84	C	0.652744	-0.000048	0.385909
C85	C	0.707388	-0.000051	0.344782
C86	C	0.714304	-0.000057	0.236727
C87	C	0.611938	-0.000050	0.210939
C88	C	0.605021	-0.000048	0.318992
H89	H	-0.147452	0.099880	-0.127467
C90	C	0.783900	-0.232828	0.076152
C91	C	0.753286	-0.274194	0.014011
H92	H	0.807579	-0.254397	0.124213
H93	H	0.758183	-0.208020	0.113184
H94	H	0.806709	-0.208020	0.033200
H95	H	0.730474	-0.298999	0.056962
H96	H	0.779006	-0.299012	-0.023024
C97	C	0.358600	-0.119060	-0.049477
C98	C	0.391219	-0.115683	-0.139301
H99	H	0.338430	-0.156448	-0.049043
H100	H	0.332376	-0.086264	-0.048900
H101	H	0.382876	-0.116766	0.010429
H102	H	0.366942	-0.117972	-0.199208
H103	H	0.417445	-0.148488	-0.139889
H104	H	0.507576	-0.099981	-0.141870
C105	C	-0.117286	-0.164051	-0.128176
C106	C	-0.155938	-0.115697	-0.127321
H107	H	-0.137473	-0.201429	-0.127741
H108	H	-0.093022	-0.161760	-0.068266
H109	H	-0.095156	-0.161760	-0.189114
H110	H	-0.178065	-0.117985	-0.066380
H111	H	-0.180212	-0.117989	-0.187237
H112	H	0.233987	-0.155076	-0.135833
H113	H	0.758798	-0.000062	0.203244
C114	C	-0.069759	0.163926	-0.129158
C115	C	-0.031092	0.115586	-0.130004
H116	H	-0.049584	0.201311	-0.129610
H117	H	-0.091885	0.161634	-0.068229
H118	H	-0.094025	0.161621	-0.189076
H119	H	-0.006828	0.117888	-0.070083
H120	H	-0.008956	0.117879	-0.190941
H121	H	0.126103	-0.155074	-0.133473
H122	H	0.399698	0.099902	-0.139440
H123	H	0.616764	-0.149785	-0.263172
H124	H	0.778237	-0.442330	0.064660
H125	H	0.778239	-0.557709	0.064676
H126	H	0.799604	-0.000059	0.378212
C127	C	0.156327	0.219015	-0.134044
C128	C	0.117656	0.170672	-0.133220
H129	H	0.136156	0.256399	-0.133571
H130	H	0.178451	0.216727	-0.194978
H131	H	0.180595	0.216707	-0.074131
H132	H	0.093390	0.172978	-0.193138
H133	H	0.095522	0.172961	-0.072280
H134	H	0.581881	-0.557762	-0.333925
H135	H	0.234009	0.154979	-0.135782
H136	H	0.507598	0.099899	-0.141804
H137	H	-0.039564	-0.100000	-0.129884
C138	C	0.850073	-0.000056	0.534385
C139	C	0.800653	-0.000052	0.593307
H140	H	0.882460	-0.000061	0.579798
H141	H	0.850646	0.035180	0.491712
H142	H	0.850634	-0.035297	0.491695
H143	H	0.800090	0.035191	0.635992
H144	H	0.800081	-0.035292	0.635998
H145	H	0.743344	-0.149750	-0.006203
C146	C	0.576200	-0.232915	-0.345491
C147	C	0.606820	-0.274255	-0.283331
H148	H	0.552518	-0.254503	-0.393532
H149	H	0.601914	-0.208115	-0.382545
H150	H	0.553395	-0.208096	-0.302548
H151	H	0.629629	-0.299070	-0.326273
H152	H	0.581104	-0.299065	-0.246273
H153	H	0.560531	-0.000044	0.352493
C154	C	0.577083	-0.000048	0.033852
C155	C	0.559475	-0.000046	0.137380
H156	H	0.544695	-0.000042	-0.011557
H157	H	0.599238	-0.035286	0.021444
H158	H	0.599251	0.035191	0.021456
H159	H	0.537311	-0.035288	0.149778
H160	H	0.537311	0.035196	0.149794
C161	C	0.589778	-0.000041	0.648154
C162	C	0.585767	-0.000043	0.539182
H163	H	0.552698	-0.000043	0.676069
H164	H	0.609674	0.035197	0.671151
H165	H	0.609674	-0.035281	0.671145
H166	H	0.565874	0.035199	0.516190
H167	H	0.565862	-0.035284	0.516175
H168	H	0.743373	-0.734925	-0.006132
H169	H	0.616803	-0.850351	-0.263113
C170	C	0.738667	-0.844001	0.115888
C171	C	0.753315	-0.859380	0.014061
H172	H	0.762340	-0.865577	0.163947
H173	H	0.700073	-0.854429	0.126766
H174	H	0.743662	-0.801566	0.126012
H175	H	0.748316	-0.901815	0.003934
H176	H	0.791918	-0.848956	0.003179
H177	H	0.616787	-0.734968	-0.263111
C178	C	0.541323	-0.474677	-0.416262
C179	C	0.571937	-0.433317	-0.354110
H180	H	0.517651	-0.453104	-0.464330
H181	H	0.518512	-0.499482	-0.373324
H182	H	0.567044	-0.499488	-0.453295
H183	H	0.546215	-0.408508	-0.317071
H184	H	0.594749	-0.408501	-0.397053
