data_functionalizedCrystal
_audit_creation_method	'MofGen! by Chris Wilmer'
_symmetry_space_group_name_H-M	'P1'
_symmetry_Int_Tables_number	1
_symmetry_cell_setting	triclinic
loop_
_symmetry_equiv_pos_as_xyz
  x,y,z
_cell_length_a	12.759401
_cell_length_b	25.639239
_cell_length_c	12.759393
_cell_angle_alpha	90.037052
_cell_angle_beta	90.018567
_cell_angle_gamma	90.037730
loop_
_atom_site_label
_atom_site_type_symbol
_atom_site_fract_x
_atom_site_fract_y
_atom_site_fract_z
Zn1	Zn	1.606080	-0.208133	0.593943
Zn2	Zn	1.605901	-0.295580	0.418246
Zn3	Zn	1.430382	-0.208159	0.418282
Zn4	Zn	1.430297	-0.295538	0.593888
O5	O	1.518165	-0.251853	0.506090
O6	O	1.753078	-0.219740	0.570645
O7	O	1.582579	-0.284012	0.271230
O8	O	1.453799	-0.134990	0.441622
O9	O	1.752946	-0.283987	0.441561
O10	O	1.582884	-0.134971	0.570680
O11	O	1.453626	-0.219784	0.271256
O12	O	1.283350	-0.219743	0.441569
O13	O	1.453655	-0.283915	0.740916
O14	O	1.283288	-0.283940	0.570585
O15	O	1.582802	-0.219699	0.740957
O16	O	1.582496	-0.368740	0.441507
O17	O	1.453481	-0.368709	0.570550
C18	C	1.245198	-0.251840	0.506075
C19	C	1.128421	-0.251848	0.506094
C20	C	1.073621	-0.218458	0.573412
C21	C	0.963897	-0.218468	0.573419
C22	C	0.963783	-0.285262	0.438786
C23	C	1.073505	-0.285249	0.438775
C24	C	1.128537	-0.185056	0.640731
C25	C	1.073736	-0.151663	0.708055
C26	C	0.964012	-0.151673	0.708062
C27	C	0.909089	-0.185076	0.640744
C28	C	1.517989	-0.387695	0.506042
C29	C	1.518009	-0.445809	0.506056
C30	C	1.585519	-0.806176	0.439012
C31	C	1.585559	-0.860780	0.439026
O32	O	1.642775	-0.889020	0.381969
N33	N	1.518350	-0.888092	0.506160
C34	C	1.451103	-0.860796	0.573291
O35	O	1.393940	-0.889041	0.630396
C36	C	1.451068	-0.806193	0.573282
C37	C	1.518275	-0.778884	0.506136
C38	C	1.652721	-0.778867	0.371873
C39	C	1.652678	-0.724266	0.371857
C40	C	1.585434	-0.696975	0.438981
C41	C	1.518232	-0.724283	0.506121
C42	C	1.383827	-0.778898	0.640418
C43	C	1.383799	-0.724291	0.640403
C44	C	1.451005	-0.696982	0.573257
C45	C	1.450946	-0.642391	0.573230
N46	N	1.518155	-0.615080	0.506096
C47	C	1.585399	-0.642371	0.438972
C48	C	1.451182	-0.975467	0.573307
C49	C	1.451210	-1.030069	0.573312
C50	C	1.585669	-1.030049	0.439048
C51	C	1.585634	-0.975446	0.439039
C52	C	1.518391	-0.948155	0.506174
C53	C	1.585305	-0.527706	0.438945
C54	C	1.585253	-0.473101	0.438932
C55	C	1.450799	-0.473126	0.573200
C56	C	1.450846	-0.527726	0.573209
C57	C	1.518108	-0.555015	0.506078
O58	O	1.393762	-0.614117	0.630260
O59	O	1.642562	-0.614120	0.381887
C60	C	1.792198	-0.251865	0.506105
C61	C	1.908975	-0.251871	0.506112
C62	C	1.518239	-0.251800	0.780123
C63	C	1.518270	-0.251777	0.896900
C64	C	1.518371	-0.115480	0.506161
C65	C	1.518459	-0.057365	0.506192
C66	C	1.518152	-0.251867	0.233123
C67	C	1.518325	-0.251743	0.116346
C68	C	1.585526	-0.218337	0.951785
C69	C	1.585551	-0.218318	1.061509
C70	C	1.451061	-0.285185	1.061454
C71	C	1.451032	-0.285200	0.951732
C72	C	1.652765	-0.184914	0.896954
C73	C	1.720027	-0.151471	0.951839
C74	C	1.720052	-0.151452	1.061563
C75	C	1.652815	-0.184876	1.116402
H76	H	1.118462	-0.124465	0.762856
N77	N	1.382536	-1.057961	0.641875
N78	N	1.285591	-1.051911	0.634814
H79	H	1.237088	-1.071608	0.683241
H80	H	1.640078	-0.549919	0.384282
N81	N	1.382375	-0.319316	1.117473
N82	N	1.315477	-0.300903	1.178708
H83	H	1.266966	-0.325008	1.218274
N84	N	1.382480	-0.947600	0.641892
N85	N	1.322482	-0.971997	0.701824
H86	H	1.273962	-0.952319	0.750264
N87	N	1.240616	-0.185035	0.640708
N88	N	1.289564	-0.174048	0.558791
H89	H	1.368720	-0.174034	0.558773
H90	H	0.919396	-0.124480	0.762873
N91	N	1.129506	-0.319359	0.370032
N92	N	1.227471	-0.319342	0.370037
H93	H	1.267024	-0.343432	0.321484
N94	N	1.382319	-0.319358	0.895677
N95	N	1.322294	-0.349199	0.944643
H96	H	1.273760	-0.373322	0.905055
H97	H	1.640360	-0.953214	0.384364
N98	N	1.653907	-0.445215	0.370329
N99	N	1.713941	-0.469593	0.310404
H100	H	1.762428	-0.449900	0.261954
H101	H	0.819744	-0.185070	0.640732
H102	H	0.919056	-0.312458	0.383981
N103	N	1.721337	-0.696383	0.303264
N104	N	1.781368	-0.720767	0.243344
H105	H	1.829865	-0.701078	0.194898
N106	N	1.652843	-0.184846	1.228483
N107	N	1.712894	-0.154983	1.277478
H108	H	1.712918	-0.154962	1.356634
N109	N	1.652731	-0.184942	0.784875
N110	N	1.674604	-0.225739	0.735881
H111	H	1.674579	-0.225761	0.656725
N112	N	1.721427	-0.806731	0.303299
N113	N	1.781420	-0.782331	0.243368
H114	H	1.829945	-0.802006	0.194928
H115	H	1.329095	-0.801124	0.695090
N116	N	1.654351	-1.057932	0.370470
N117	N	1.617442	-1.088445	0.303498
H118	H	1.665944	-1.108139	0.255066
N119	N	1.315109	-0.696424	0.708995
N120	N	1.255117	-0.720817	0.768938
H121	H	1.206604	-0.701137	0.817381
N122	N	1.382176	-0.555627	0.641769
N123	N	1.285230	-0.549585	0.634708
H124	H	1.236734	-0.569287	0.683134
N125	N	1.382112	-0.445234	0.641747
N126	N	1.382093	-0.396481	0.641716
H127	H	1.333585	-0.376781	0.690130
H128	H	1.774763	-0.124256	0.907182
H129	H	1.774813	-0.124218	1.106247
