data_functionalizedCrystal
_audit_creation_method	'MofGen! by Chris Wilmer'
_symmetry_space_group_name_H-M	'P1'
_symmetry_Int_Tables_number	1
_symmetry_cell_setting	triclinic
loop_
_symmetry_equiv_pos_as_xyz
  x,y,z
_cell_length_a	18.050582
_cell_length_b	17.640112
_cell_length_c	17.640280
_cell_angle_alpha	92.184069
_cell_angle_beta	101.218364
_cell_angle_gamma	78.820489
loop_
_atom_site_label
_atom_site_type_symbol
_atom_site_fract_x
_atom_site_fract_y
_atom_site_fract_z
Zn1	Zn	-0.175390	-1.221954	0.067397
Zn2	Zn	-0.022254	-1.247567	0.194376
Zn3	Zn	-0.070415	-1.094991	0.093106
Zn4	Zn	-0.165607	-1.120634	0.220033
O5	O	-0.108417	-1.171287	0.143728
O6	O	-0.139015	-1.331608	0.062745
O7	O	0.075284	-1.227315	0.180964
O8	O	-0.108590	-1.090382	-0.016565
O9	O	-0.026506	-1.350426	0.156036
O10	O	-0.185715	-1.183661	-0.035453
O11	O	0.039900	-1.115218	0.106561
O12	O	-0.099104	-0.992137	0.131439
O13	O	-0.270831	-1.134087	0.199765
O14	O	-0.169041	-1.010976	0.224693
O15	O	-0.278019	-1.208526	0.087624
O16	O	-0.017020	-1.252180	0.304040
O17	O	-0.122341	-1.158923	0.322891
C18	C	-0.063406	-1.211134	0.341014
C19	C	-0.044165	-1.228250	0.425399
C20	C	-0.138237	-0.974005	0.183640
C21	C	-0.151008	-0.889611	0.200733
C22	C	-0.302125	-1.171309	0.143688
C23	C	-0.384673	-1.171319	0.143672
C24	C	-0.580225	-1.130864	0.204577
C25	C	-0.614905	-1.203896	0.209116
C26	C	-0.535811	-1.171345	0.143606
C27	C	-0.648211	-1.098347	0.139038
C28	C	-0.681804	-1.171364	0.143545
C29	C	-0.569390	-1.244421	0.148174
C30	C	-0.602706	-1.138818	0.078074
C31	C	-0.637363	-1.211893	0.082577
C32	C	-0.451707	-1.171333	0.143643
C33	C	-0.765904	-1.171383	0.143507
C34	C	0.084533	-1.171296	0.143704
C35	C	0.167053	-1.171390	0.143477
C36	C	-0.078480	-1.369338	0.103661
C37	C	-0.065722	-1.453736	0.086586
C38	C	-0.011407	-0.562830	0.013862
C39	C	-0.023413	-0.483532	0.029938
C40	C	-0.096045	-0.503231	0.127177
C41	C	-0.084047	-0.582532	0.111106
C42	C	-0.041727	-0.612325	0.054448
C43	C	-0.114368	-0.632027	0.151692
C44	C	-0.102368	-0.711321	0.135624
C45	C	-0.060047	-0.741121	0.078971
C46	C	-0.029727	-0.691619	0.038380
C47	C	-0.156683	-0.602233	0.208353
C48	C	-0.187004	-0.651728	0.248939
C49	C	-0.175008	-0.731023	0.232868
C50	C	-0.132688	-0.760823	0.176215
C51	C	-0.205329	-0.780524	0.273458
C52	C	-0.193329	-0.859819	0.257391
C53	C	-0.120688	-0.840117	0.160147
C54	C	-0.153616	-1.131304	-0.054332
C55	C	-0.172877	-1.114266	-0.138733
C56	C	-0.254813	-1.041567	0.752183
C57	C	-0.236709	-1.057652	0.831476
C58	C	-0.127125	-1.154821	0.811769
C59	C	-0.145222	-1.138747	0.732473
C60	C	-0.209067	-1.082118	0.702686
C61	C	-0.099476	-1.179298	0.682976
C62	C	-0.117569	-1.163222	0.603687
C63	C	-0.181409	-1.106595	0.573895
C64	C	-0.227160	-1.066043	0.623398
C65	C	-0.035628	-1.235922	0.712765
C66	C	0.010118	-1.276474	0.663268
C67	C	-0.007978	-1.260402	0.583977
C68	C	-0.071818	-1.203775	0.554185
C69	C	0.037773	-1.300955	0.534474
C70	C	0.019679	-1.284879	0.455185
C71	C	-0.089912	-1.187699	0.474896
H72	H	-0.555244	-1.096682	0.256185
H73	H	0.089759	-1.347056	0.558740
F74	F	0.068373	-1.328032	0.402506
H75	H	-0.239779	-0.756256	0.319594
F76	F	0.078063	-1.336741	0.694978
H77	H	-0.130500	-0.478963	0.173310
F78	F	-0.524876	-1.325162	0.153282
H79	H	-0.273974	-1.024635	0.871773
F80	F	-0.225597	-0.912498	0.300589
F81	F	-0.169444	-0.517841	0.225460
H82	H	-0.086240	-0.864373	0.114000
F83	F	-0.594877	-1.102822	0.005699
H84	H	0.023041	-0.587087	-0.032286
F85	F	-0.200779	-1.089622	0.489480
F86	F	-0.232033	-0.620013	0.309244
F87	F	-0.622711	-1.239871	0.281516
F88	F	-0.059181	-1.215088	0.843479
F89	F	-0.669810	-1.256712	0.015137
H90	H	-0.682343	-1.036605	0.135198
H91	H	-0.306806	-0.995460	0.727929
H92	H	0.001274	-0.443234	-0.003121
H93	H	-0.141905	-1.141592	0.450642
F94	F	-0.016390	-1.253052	0.797148
H95	H	-0.050276	-0.805688	0.065891
F96	F	0.015310	-0.723330	-0.021926
H97	H	-0.279153	-1.019936	0.599144
