data_functionalizedCrystal
_audit_creation_method	'MofGen! by Chris Wilmer'
_symmetry_space_group_name_H-M	'P1'
_symmetry_Int_Tables_number	1
_symmetry_cell_setting	triclinic
loop_
_symmetry_equiv_pos_as_xyz
  x,y,z
_cell_length_a	10.540539
_cell_length_b	13.339070
_cell_length_c	12.376457
_cell_angle_alpha	75.599583
_cell_angle_beta	78.593757
_cell_angle_gamma	79.922607
loop_
_atom_site_label
_atom_site_type_symbol
_atom_site_fract_x
_atom_site_fract_y
_atom_site_fract_z
O1	O	-1.752151	0.123678	0.093940
O2	O	-1.387330	0.137141	0.093953
O3	O	-1.527872	-0.017158	0.093952
O4	O	-1.611610	0.277977	0.093942
O5	O	-1.492735	0.021364	-0.094060
O6	O	-1.352194	0.175663	-0.094059
O7	O	-1.717014	0.162199	-0.094072
Zn8	Zn	-1.529025	0.175048	-0.123916
Zn9	Zn	-1.575319	0.124293	0.123797
O10	O	-1.576473	0.316498	-0.094070
C11	C	-1.322115	0.155392	-0.000051
C12	C	-1.180138	0.152370	-0.000046
C13	C	-1.782230	0.143948	-0.000065
C14	C	-1.924208	0.146969	-0.000063
C15	C	-1.496159	-0.035689	-0.000050
C16	C	-1.453997	-0.148298	-0.000039
C17	C	-0.957167	0.036681	-0.000481
C18	C	-1.104911	0.039655	-0.000045
C19	C	-1.157018	0.184616	0.107312
C20	C	-1.009177	0.180753	0.107391
C21	C	-0.969513	0.226853	-0.106414
C22	C	-1.116586	0.228179	-0.107821
C23	C	-1.608186	0.335029	-0.000066
C24	C	-1.650349	0.447636	-0.000070
N25	N	-1.497440	0.209685	-0.292974
C26	C	-1.322511	0.810055	-0.000042
C27	C	-1.282890	0.704259	-0.000057
C28	C	-1.374751	0.640098	-0.000060
C29	C	-1.506241	0.681744	-0.000049
C30	C	-1.545865	0.787552	-0.000043
C31	C	-1.598105	0.617595	-0.000060
C32	C	-1.729595	0.659240	-0.000049
C33	C	-1.769212	0.765038	-0.000042
C34	C	-1.677351	0.829199	-0.000039
C35	C	-1.558481	0.511787	-0.000066
C36	C	-1.781835	0.489284	-0.000067
C37	C	-1.821457	0.595080	-0.000052
C38	C	-1.680225	0.009222	-0.647961
C39	C	-1.702324	-0.015021	-0.529621
C40	C	-1.651104	0.041153	-0.470454
C41	C	-1.577782	0.121575	-0.529637
C42	C	-1.555689	0.145826	-0.647989
C43	C	-1.526569	0.177758	-0.470481
C44	C	-1.453247	0.258180	-0.529665
C45	C	-1.431157	0.282426	-0.648005
C46	C	-1.482377	0.226252	-0.707172
C47	C	-1.548662	0.153506	-0.352130
C48	C	-1.424127	0.290111	-0.352158
C49	C	-1.402028	0.314354	-0.470497
N50	N	-1.606912	0.089648	0.292855
H51	H	-1.118595	0.012743	-0.077004
H52	H	-1.175832	0.670358	-0.000061
H53	H	-1.129198	0.204826	-0.187245
F54	F	-1.224760	0.878346	-0.000048
H55	H	-0.949900	0.308415	-0.107142
H56	H	-1.608362	0.088027	-0.303953
H57	H	-0.899016	0.007928	-0.077473
H58	H	-1.342484	0.553955	-0.000069
F59	F	-1.183271	0.337330	-0.116297
F60	F	-1.719516	0.941800	-0.000014
F61	F	-1.458850	0.252050	-0.833125
F62	F	-1.909155	0.809358	-0.000032
H63	H	-1.669101	0.021410	-0.374096
F64	F	-1.418545	0.467477	-0.000078
H65	H	-1.762023	-0.080499	-0.481438
H66	H	-0.926156	-0.023347	0.076086
F67	F	-1.961395	0.639415	-0.000040
F68	F	-1.369617	0.349903	-0.289192
F69	F	-1.323995	0.399944	-0.533497
F70	F	-1.879608	0.421005	-0.000073
F71	F	-1.734740	-0.050547	-0.710935
F72	F	-1.353138	0.368029	-0.710993
F73	F	-0.892156	0.200965	-0.212781
H74	H	-1.146414	-0.019123	0.077049
H75	H	-0.989748	0.260818	0.112261
F76	F	-0.974043	0.106859	0.212287
H77	H	-1.201695	0.130564	0.187213
F78	F	-1.224117	0.291727	0.112551
