data_functionalizedCrystal
_audit_creation_method	'MofGen! by Chris Wilmer'
_symmetry_space_group_name_H-M	'P1'
_symmetry_Int_Tables_number	1
_symmetry_cell_setting	triclinic
loop_
_symmetry_equiv_pos_as_xyz
  x,y,z
_cell_length_a	12.759395
_cell_length_b	12.759387
_cell_length_c	11.169416
_cell_angle_alpha	90.029167
_cell_angle_beta	89.988123
_cell_angle_gamma	89.981185
loop_
_atom_site_label
_atom_site_type_symbol
_atom_site_fract_x
_atom_site_fract_y
_atom_site_fract_z
Zn1	Zn	1.606283	-0.594025	0.477681
Zn2	Zn	1.606192	-0.418354	0.678415
Zn3	Zn	1.430586	-0.418362	0.477750
Zn4	Zn	1.430587	-0.593994	0.678326
O5	O	1.518412	-0.506184	0.578043
O6	O	1.753292	-0.570732	0.504317
O7	O	1.582859	-0.271334	0.651863
O8	O	1.453931	-0.441681	0.309792
O9	O	1.753225	-0.441668	0.651796
O10	O	1.583014	-0.570740	0.309740
O11	O	1.453843	-0.271340	0.504436
O12	O	1.283565	-0.441650	0.504349
O13	O	1.453932	-0.741019	0.651644
O14	O	1.283566	-0.570686	0.651711
O15	O	1.583015	-0.741042	0.504230
O16	O	1.582860	-0.441637	0.846353
O17	O	1.453843	-0.570678	0.846288
C18	C	1.245445	-0.506166	0.578029
C19	C	1.128668	-0.506183	0.578051
C20	C	1.128707	-0.640330	0.731748
C21	C	1.073866	-0.707407	0.808605
C22	C	0.964144	-0.707420	0.808620
C23	C	0.909261	-0.640351	0.731766
C24	C	0.964102	-0.573274	0.654908
C25	C	1.073827	-0.573267	0.654905
C26	C	0.964063	-0.439134	0.501208
C27	C	1.073785	-0.439114	0.501197
C28	C	0.909181	-0.372065	0.424354
C29	C	0.964022	-0.304982	0.347501
C30	C	1.073750	-0.304971	0.347490
C31	C	1.128626	-0.372038	0.424340
C32	C	1.518483	-0.780218	0.577919
C33	C	1.518514	-0.896994	0.577866
C34	C	1.384177	-0.897019	0.424340
C35	C	1.317028	-0.951893	0.347552
C36	C	1.317060	-1.061614	0.347509
C37	C	1.384245	-1.116465	0.424264
C38	C	1.451394	-1.061592	0.501051
C39	C	1.451358	-0.951868	0.501083
C40	C	1.585724	-1.061567	0.654582
C41	C	1.585699	-0.951845	0.654621
C42	C	1.652909	-1.116418	0.731337
C43	C	1.720065	-1.061545	0.808120
C44	C	1.720032	-0.951816	0.808159
C45	C	1.652848	-0.896972	0.731408
C46	C	1.792445	-0.506203	0.578059
C47	C	1.909222	-0.506211	0.578065
C48	C	1.518370	-0.506176	0.889868
C49	C	1.518449	-0.506208	1.023268
C50	C	1.518402	-0.233216	0.578080
C51	C	1.518575	-0.116440	0.577795
C52	C	1.518483	-0.506215	0.265001
C53	C	1.518513	-0.506228	0.131601
H54	H	1.218048	-0.640319	0.731752
H55	H	1.118395	-0.250356	0.284895
H56	H	1.384255	-1.205806	0.424232
H57	H	1.652818	-0.807631	0.731429
H58	H	1.262380	-1.106292	0.284984
H59	H	0.819839	-0.372085	0.424366
H60	H	1.774716	-0.907145	0.870685
H61	H	1.652925	-1.205759	0.731302
H62	H	1.384153	-0.807678	0.424358
H63	H	1.774758	-1.106213	0.870612
H64	H	0.919328	-0.250385	0.284927
H65	H	1.217967	-0.372032	0.424342
H66	H	0.919492	-0.762045	0.871198
H67	H	1.118563	-0.762015	0.871176
H68	H	1.262325	-0.907221	0.285063
H69	H	0.819920	-0.640377	0.731774
