data_functionalizedCrystal
_audit_creation_method	'MofGen! by Chris Wilmer'
_symmetry_space_group_name_H-M	'P1'
_symmetry_Int_Tables_number	1
_symmetry_cell_setting	triclinic
loop_
_symmetry_equiv_pos_as_xyz
  x,y,z
_cell_length_a	14.971506
_cell_length_b	14.044220
_cell_length_c	14.048226
_cell_angle_alpha	89.992807
_cell_angle_beta	89.993237
_cell_angle_gamma	88.405633
loop_
_atom_site_label
_atom_site_type_symbol
_atom_site_fract_x
_atom_site_fract_y
_atom_site_fract_z
O1	O	1.196675	0.123630	-0.079170
O2	O	0.937441	0.138404	-0.079171
O3	O	1.063167	-0.006973	-0.079161
O4	O	1.070949	0.269006	-0.079180
O5	O	1.063150	-0.006981	0.079160
O6	O	0.937424	0.138395	0.079150
O7	O	1.196658	0.123621	0.079151
Zn8	Zn	1.067038	0.131007	0.104288
Zn9	Zn	1.067061	0.131018	-0.104307
O10	O	1.070932	0.268998	0.079141
C11	C	0.904056	0.137735	-0.000010
C12	C	0.804603	0.135745	-0.000010
C13	C	0.372450	0.213556	-0.000025
C14	C	0.465897	0.215418	-0.000030
C15	C	0.516388	0.130004	-0.000019
C16	C	0.473428	0.042722	-0.000015
C17	C	0.379983	0.040860	-0.000017
C18	C	0.668197	0.046608	-0.000007
C19	C	0.761649	0.048469	-0.000003
C20	C	0.754112	0.221166	-0.000019
C21	C	0.660666	0.219305	-0.000022
C22	C	0.617712	0.132022	-0.000015
C23	C	1.059752	-0.042295	-0.000000
C24	C	1.049591	-0.147533	0.000001
C25	C	1.031014	-0.340217	-0.000013
C26	C	1.103081	-0.397763	-0.000015
C27	C	1.092745	-0.504979	-0.000023
C28	C	1.041349	-0.232991	-0.000005
C29	C	1.230043	0.124290	-0.000012
C30	C	1.329496	0.126280	-0.000018
C31	C	1.074347	0.304320	-0.000022
C32	C	1.084508	0.409558	-0.000029
N33	N	1.067029	0.130999	0.246648
N34	N	1.067076	0.131019	-0.246668
C35	C	1.122722	0.066653	0.296471
C36	C	1.122728	0.066652	0.396128
C37	C	1.067045	0.131003	0.445962
C38	C	1.011346	0.195352	0.396133
C39	C	1.011336	0.195347	0.296477
C40	C	1.011373	0.195359	0.603847
C41	C	1.011384	0.195365	0.703510
C42	C	1.122764	0.066664	0.703499
C43	C	1.122754	0.066659	0.603843
C44	C	1.067056	0.131009	0.554020
H45	H	0.789089	0.292235	-0.000024
O46	O	0.810663	-0.034523	-0.000175
C47	C	0.790120	-0.087504	-0.082164
H48	H	0.762227	-0.037486	-0.139470
H49	H	0.738234	-0.142438	-0.063631
C50	C	0.909708	-0.200171	-0.048964
C51	C	0.875456	-0.138736	-0.119351
H52	H	0.962345	-0.231777	-0.071901
H53	H	0.923546	-0.164479	0.006276
H54	H	0.866461	-0.245941	-0.033526
H55	H	0.918698	-0.092961	-0.134779
H56	H	0.861627	-0.174422	-0.174594
H57	H	0.965985	0.247743	0.255912
H58	H	0.966014	0.247757	0.563285
H59	H	0.619559	0.288856	-0.000024
H60	H	1.168069	0.014255	0.255903
O61	O	1.185996	-0.360595	0.000124
C62	C	1.232706	-0.391493	0.082136
H63	H	1.202956	-0.460161	0.109461
H64	H	1.226809	-0.334309	0.139558
C65	C	1.368424	-0.325391	0.023682
C66	C	1.331889	-0.409735	0.057238
H67	H	1.429605	-0.336639	0.008326
H68	H	1.336954	-0.304571	-0.031570
H69	H	1.363501	-0.277746	0.071539
H70	H	1.336803	-0.457374	0.009377
H71	H	1.363362	-0.430563	0.112481
O72	O	0.957208	0.257731	0.444645
C73	C	0.897968	0.206862	0.502298
H74	H	0.927684	0.132747	0.517231
H75	H	0.831337	0.200298	0.463912
C76	C	0.846627	0.351307	0.578615
C77	C	0.883128	0.260281	0.596963
H78	H	0.837469	0.384260	0.637008
H79	H	0.886535	0.385580	0.539771
H80	H	0.791105	0.345824	0.546624
H81	H	0.938654	0.265765	0.628942
H82	H	0.843228	0.226010	0.635815
H83	H	0.961559	-0.371471	-0.000015
H84	H	0.331347	0.283110	-0.000026
H85	H	1.168100	0.014264	0.563268
O86	O	0.507480	0.300280	0.000010
C87	C	0.442878	0.375269	-0.000016
H88	H	0.377368	0.348624	0.029959
H89	H	0.431789	0.401627	-0.075971
C90	C	0.556241	0.490296	0.025254
C91	C	0.475783	0.457572	0.062077
H92	H	0.576540	0.541067	0.063551
H93	H	0.599766	0.439776	0.025268
H94	H	0.546990	0.512254	-0.038042
H95	H	0.485038	0.435604	0.125367
H96	H	0.432261	0.508091	0.062075
O97	O	1.176922	0.004121	0.444378
C98	C	1.226059	-0.052683	0.379024
H99	H	1.230149	-0.013818	0.307977
H100	H	1.191413	-0.123170	0.368450
C101	C	1.315988	-0.119753	0.505154
C102	C	1.321017	-0.072015	0.417895
H103	H	1.374562	-0.131683	0.529131
H104	H	1.282882	-0.081486	0.549185
H105	H	1.287113	-0.178487	0.496330
H106	H	1.349882	-0.013278	0.426721
H107	H	1.354131	-0.110273	0.373866
H108	H	1.168115	0.014267	0.744070
O109	O	0.522570	-0.040187	-0.000133
C110	C	0.576845	-0.044286	-0.082137
H111	H	0.587577	0.030963	-0.109481
H112	H	0.542701	-0.087615	-0.139551
C113	C	0.654577	-0.184304	-0.023633
C114	C	0.667764	-0.091881	-0.057213
H115	H	0.710659	-0.213666	-0.008261
H116	H	0.618008	-0.181545	0.031614
H117	H	0.626120	-0.220399	-0.071483
H118	H	0.696210	-0.055784	-0.009359
H119	H	0.704340	-0.094635	-0.112451
O120	O	0.957155	0.257766	0.751882
C121	C	0.867377	0.242187	0.727543
H122	H	0.860901	0.166289	0.700151
H123	H	0.845269	0.294685	0.669704
C124	C	0.815873	0.349999	0.849735
C125	C	0.807918	0.256777	0.816098
H126	H	0.779195	0.359003	0.904357
H127	H	0.876358	0.360499	0.866131
H128	H	0.797451	0.393737	0.801527
H129	H	0.826350	0.213041	0.864300
H130	H	0.747434	0.246270	0.799712
H131	H	0.633227	-0.024467	-0.000007
H132	H	0.345011	-0.030209	-0.000013
