data_functionalizedCrystal
_audit_creation_method	'MofGen! by Chris Wilmer'
_symmetry_space_group_name_H-M	'P1'
_symmetry_Int_Tables_number	1
_symmetry_cell_setting	triclinic
loop_
_symmetry_equiv_pos_as_xyz
  x,y,z
_cell_length_a	10.540539
_cell_length_b	17.038272
_cell_length_c	9.616153
_cell_angle_alpha	89.997688
_cell_angle_beta	89.995174
_cell_angle_gamma	87.818524
loop_
_atom_site_label
_atom_site_type_symbol
_atom_site_fract_x
_atom_site_fract_y
_atom_site_fract_z
O1	O	1.696176	0.110247	-0.115581
O2	O	1.327732	0.120634	-0.115599
O3	O	1.509764	0.001613	-0.115579
O4	O	1.514144	0.229269	-0.115601
O5	O	1.509738	0.001615	0.115712
O6	O	1.327705	0.120637	0.115693
O7	O	1.696149	0.110249	0.115710
Zn8	Zn	1.511923	0.115443	0.152424
Zn9	Zn	1.511958	0.115440	-0.152313
O10	O	1.514117	0.229271	0.115690
C11	C	1.280343	0.119857	0.000045
C12	C	1.139177	0.117526	0.000039
C13	C	0.947420	0.028219	0.000587
C14	C	1.094259	0.030581	0.000051
C15	C	1.081423	0.159366	-0.132039
C16	C	0.934602	0.156399	-0.132135
C17	C	0.934248	0.158170	0.130886
C18	C	1.081305	0.158971	0.132618
C19	C	1.505768	-0.027537	0.000066
C20	C	1.493883	-0.114398	0.000065
C21	C	1.602994	-0.163886	0.000072
C22	C	1.591820	-0.245501	0.000058
C23	C	1.471534	-0.277626	0.000048
C24	C	1.362416	-0.228133	0.000037
C25	C	1.373591	-0.146519	0.000041
C26	C	1.432055	-0.523611	0.000027
C27	C	1.420888	-0.605231	0.000027
C28	C	1.650293	-0.622593	0.000046
C29	C	1.661457	-0.540977	0.000058
C30	C	1.552339	-0.491491	0.000040
C31	C	1.460110	-0.361050	0.000038
C32	C	1.563764	-0.408069	0.000040
C33	C	1.743538	0.111027	0.000063
C34	C	1.884704	0.113358	0.000061
C35	C	1.518114	0.258421	0.000042
C36	C	1.529998	0.345282	0.000034
N37	N	1.511909	0.115445	0.360398
N38	N	1.511982	0.115432	-0.360287
C39	C	1.414198	0.178900	0.580758
C40	C	1.414448	0.179138	0.419590
C41	C	1.646364	0.134015	0.418852
C42	C	1.645842	0.134465	0.580070
C43	C	1.476466	0.033212	0.580316
C44	C	1.473469	0.033745	0.419089
H45	H	0.892466	0.218928	-0.138136
Br46	Br	1.144619	0.107938	0.295477
H47	H	1.343202	-0.483328	0.000013
Br48	Br	1.766246	-0.120295	0.000106
Br49	Br	1.247590	0.160551	0.645398
Br50	Br	1.315791	0.003768	0.648159
Br51	Br	1.308541	0.010281	0.355421
H52	H	1.721346	0.090100	0.619066
Br53	Br	1.131525	0.264627	0.145901
Br54	Br	1.199169	-0.271731	-0.000000
H55	H	1.322932	-0.631384	0.000041
H56	H	1.109732	0.223216	-0.136959
H57	H	1.739130	-0.662893	0.000058
Br58	Br	1.225507	-0.079356	0.000021
H59	H	1.539379	-0.015754	0.378802
Br60	Br	1.727004	-0.364469	0.000041
H61	H	1.362173	-0.387215	0.000033
Br62	Br	1.824707	-0.497384	0.000027
H63	H	1.133791	-0.002340	0.094731
H64	H	0.915620	-0.006128	0.095308
H65	H	0.914033	-0.005985	-0.093600
H66	H	1.314789	0.167964	0.380072
H67	H	1.121311	0.130299	-0.230328
H68	H	1.547672	-0.014028	0.618440
H69	H	1.721225	0.089051	0.380507
H70	H	1.437523	0.239555	0.621252
H71	H	0.900066	0.130034	0.231000
Br72	Br	0.865302	0.262840	0.132364
Br73	Br	1.158686	-0.024434	-0.158291
H74	H	1.680669	-0.285790	0.000066
Br75	Br	1.453706	0.280820	0.355267
Br76	Br	1.697091	0.232865	0.351528
H77	H	1.675792	0.194450	0.617653
H78	H	0.903518	0.125473	-0.230858
