data_functionalizedCrystal
_audit_creation_method	'MofGen! by Chris Wilmer'
_symmetry_space_group_name_H-M	'P1'
_symmetry_Int_Tables_number	1
_symmetry_cell_setting	triclinic
loop_
_symmetry_equiv_pos_as_xyz
  x,y,z
_cell_length_a	10.654550
_cell_length_b	15.995350
_cell_length_c	9.730223
_cell_angle_alpha	90.000899
_cell_angle_beta	89.996251
_cell_angle_gamma	83.988639
loop_
_atom_site_label
_atom_site_type_symbol
_atom_site_fract_x
_atom_site_fract_y
_atom_site_fract_z
O1	O	1.666298	0.117599	-0.114395
O2	O	1.300673	0.128803	-0.114373
O3	O	1.493480	0.001371	-0.114383
O4	O	1.473491	0.245031	-0.114385
O5	O	1.493478	0.001375	0.114197
O6	O	1.300671	0.128806	0.114207
O7	O	1.666295	0.117602	0.114185
Zn8	Zn	1.483483	0.123205	0.150488
Zn9	Zn	1.483486	0.123200	-0.150676
O10	O	1.473488	0.245034	0.114195
C11	C	1.253885	0.127982	-0.000080
C12	C	1.114473	0.125521	-0.000071
C13	C	1.034008	0.200551	-0.000092
C14	C	0.903017	0.198233	-0.000116
C15	C	0.932971	0.045849	-0.000104
C16	C	1.063959	0.048168	-0.000071
C17	C	1.084522	0.277904	-0.000093
C18	C	1.004055	0.352940	-0.000115
C19	C	0.873064	0.350622	-0.000138
C20	C	0.822541	0.273268	-0.000140
C21	C	1.492652	-0.029827	-0.000096
C22	C	1.490175	-0.122791	-0.000104
C23	C	1.481278	-0.460591	-0.000098
C24	C	1.343964	-0.413954	-0.000603
C25	C	1.346442	-0.317249	-0.000087
C26	C	1.485691	-0.293004	-0.000102
C27	C	1.553417	-0.333687	0.130422
C28	C	1.549968	-0.430342	0.130531
C29	C	1.552807	-0.430688	-0.129407
C30	C	1.552775	-0.333743	-0.131132
C31	C	1.488192	-0.198292	-0.000099
C32	C	1.478780	-0.555303	-0.000092
C33	C	1.713084	0.118423	-0.000111
C34	C	1.852495	0.120884	-0.000129
C35	C	1.474316	0.276232	-0.000095
C36	C	1.476793	0.369197	-0.000097
N37	N	1.483490	0.123207	0.356024
N38	N	1.483488	0.123191	-0.356212
C39	C	1.568886	0.066800	0.427946
C40	C	1.568883	0.066789	0.571829
C41	C	1.398083	0.179602	0.571856
C42	C	1.398081	0.179607	0.427976
C43	C	1.654295	0.010400	0.355994
C44	C	1.739700	-0.046012	0.427915
C45	C	1.739697	-0.046022	0.571798
C46	C	1.654289	0.010379	0.643760
H47	H	0.715878	0.271387	-0.000138
H48	H	1.045200	0.415918	-0.000102
H49	H	1.654048	-0.461861	-0.130294
C50	C	1.654150	0.010571	0.199779
C51	C	1.561103	0.072057	0.152192
C52	C	1.560946	0.072252	0.008296
H53	H	1.636930	-0.042998	0.167038
H54	H	1.734384	0.022580	0.167188
H55	H	1.480887	0.060043	0.184768
H56	H	1.578302	0.125636	0.184895
H57	H	1.641181	0.084261	-0.024294
H58	H	1.543729	0.018680	-0.024431
H59	H	1.497823	0.113974	-0.024010
C60	C	1.832313	-0.107188	0.349545
C61	C	1.814041	-0.095109	0.208146
C62	C	1.899322	-0.151460	0.135912
H63	H	1.818712	-0.163180	0.372979
H64	H	1.916169	-0.097603	0.373013
H65	H	1.730206	-0.104701	0.184686
H66	H	1.827653	-0.039129	0.184670
H67	H	1.983177	-0.141874	0.159380
H68	H	1.885714	-0.207448	0.159357
H69	H	1.886944	-0.143266	0.039965
H70	H	1.292844	-0.289694	0.093643
H71	H	1.191179	0.279800	-0.000080
H72	H	1.809228	-0.091960	0.630355
C73	C	1.305224	0.240873	0.649733
C74	C	1.230411	0.290260	0.555950
C75	C	1.144845	0.346707	0.627638
H76	H	1.350246	0.276086	0.705868
H77	H	1.252887	0.210444	0.705831
H78	H	1.282741	0.320687	0.499876
H79	H	1.185362	0.255071	0.499813
H80	H	1.092508	0.316278	0.683736
H81	H	1.189877	0.381914	0.683770
H82	H	1.094067	0.380218	0.564018
H83	H	0.807551	0.411720	-0.000142
H84	H	1.293204	-0.289138	-0.093652
H85	H	1.500580	-0.448929	0.228110
C86	C	1.684311	-0.472675	0.138657
C87	C	1.697973	-0.522266	0.257362
C88	C	1.821704	-0.561278	0.264897
H89	H	1.741617	-0.431048	0.141913
H90	H	1.701662	-0.507141	0.059993
H91	H	1.680636	-0.487802	0.336007
H92	H	1.640696	-0.563907	0.254133
H93	H	1.839056	-0.595744	0.186233
H94	H	1.879000	-0.519645	0.268149
H95	H	1.830987	-0.594935	0.345431
H96	H	1.129477	-0.012928	-0.000058
C97	C	1.305568	0.240892	0.349700
C98	C	1.372454	0.292550	0.267069
C99	C	1.287269	0.349005	0.194927
H100	H	1.254670	0.274567	0.412996
H101	H	1.253320	0.210466	0.293495
H102	H	1.424680	0.322974	0.323270
H103	H	1.423347	0.258899	0.203748
H104	H	1.235021	0.318579	0.138722
H105	H	1.236375	0.382674	0.258232
H106	H	1.332638	0.384057	0.138844
H107	H	1.654285	0.010360	0.760919
H108	H	0.891824	-0.017129	-0.000128
H109	H	1.289082	-0.432806	-0.094203
H110	H	1.289324	-0.433864	0.092484
C111	C	1.689878	-0.314187	0.137105
C112	C	1.747315	-0.351414	0.254620
C113	C	1.873025	-0.333477	0.260808
H114	H	1.692441	-0.255054	0.141092
H115	H	1.733636	-0.335916	0.057601
H116	H	1.703569	-0.329681	0.334103
H117	H	1.744786	-0.410547	0.250658
H118	H	1.916784	-0.355207	0.181305
H119	H	1.875576	-0.274344	0.264792
H120	H	1.912016	-0.358739	0.340534
C121	C	1.490691	-0.296383	0.260070
C122	C	1.444548	-0.360365	0.337380
C123	C	1.386764	-0.326036	0.456824
H124	H	1.422835	-0.255763	0.235789
H125	H	1.550665	-0.270323	0.312948
H126	H	1.384579	-0.386411	0.284512
H127	H	1.512379	-0.400989	0.361696
H128	H	1.446738	-0.299977	0.509702
H129	H	1.318913	-0.285417	0.432530
H130	H	1.355459	-0.369444	0.509300
C131	C	1.492732	-0.458457	-0.261171
C132	C	1.390322	-0.502972	-0.228652
C133	C	1.334925	-0.528555	-0.349989
H134	H	1.553187	-0.493625	-0.312238
H135	H	1.464143	-0.410440	-0.314465
H136	H	1.418912	-0.550982	-0.175381
H137	H	1.329839	-0.467820	-0.177604
H138	H	1.306337	-0.480538	-0.403283
H139	H	1.395390	-0.563720	-0.401047
H140	H	1.265428	-0.558754	-0.327942
C141	C	1.486951	-0.297570	-0.259847
C142	C	1.492127	-0.210487	-0.263070
C143	C	1.431515	-0.177131	-0.381625
H144	H	1.401324	-0.309174	-0.259135
H145	H	1.527973	-0.322403	-0.338803
H146	H	1.451103	-0.185661	-0.184135
H147	H	1.577738	-0.198859	-0.263804
H148	H	1.472536	-0.201964	-0.460581
H149	H	1.345892	-0.188741	-0.380903
H150	H	1.435029	-0.118043	-0.383834
C151	C	1.688162	-0.312487	-0.141996
C152	C	1.744110	-0.349992	-0.260079
C153	C	1.868814	-0.330399	-0.270154
H154	H	1.734170	-0.333002	-0.063192
H155	H	1.688791	-0.253233	-0.147560
H156	H	1.743488	-0.409234	-0.254504
H157	H	1.698139	-0.329483	-0.338904
H158	H	1.869443	-0.271145	-0.275718
H159	H	1.914810	-0.350915	-0.191345
H160	H	1.906787	-0.355837	-0.350279
