data_functionalizedCrystal
_audit_creation_method	'MofGen! by Chris Wilmer'
_symmetry_space_group_name_H-M	'P1'
_symmetry_Int_Tables_number	1
_symmetry_cell_setting	triclinic
loop_
_symmetry_equiv_pos_as_xyz
  x,y,z
_cell_length_a	10.654550
_cell_length_b	9.065218
_cell_length_c	8.140239
_cell_angle_alpha	89.998670
_cell_angle_beta	89.998231
_cell_angle_gamma	95.249592
loop_
_atom_site_label
_atom_site_type_symbol
_atom_site_fract_x
_atom_site_fract_y
_atom_site_fract_z
O1	O	1.668657	-0.207232	0.136484
O2	O	1.303256	-0.226976	0.136513
O3	O	1.493509	-0.002421	0.136494
O4	O	1.478404	-0.431788	0.136502
O5	O	1.493503	-0.002419	-0.136733
O6	O	1.303250	-0.226975	-0.136714
O7	O	1.668651	-0.207231	-0.136744
Zn8	Zn	1.485949	-0.217102	-0.180109
Zn9	Zn	1.485958	-0.217105	0.179879
O10	O	1.478398	-0.431786	-0.136725
C11	C	1.256450	-0.225526	-0.000097
C12	C	1.116989	-0.221188	-0.000085
N13	N	1.485953	-0.217100	-0.425792
C14	C	1.492055	0.052559	-0.000116
C15	C	1.487714	0.216378	-0.000108
C16	C	1.038027	-0.353403	-0.000088
C17	C	0.906990	-0.349319	-0.000116
C18	C	0.933890	-0.080794	-0.000133
C19	C	1.064924	-0.084879	-0.000117
C20	C	0.711765	-0.505036	-0.095858
C21	C	0.632798	-0.637258	-0.095832
C22	C	0.663442	-0.757121	-0.000077
C23	C	0.773050	-0.744768	0.095692
C24	C	0.852011	-0.612544	0.095680
C25	C	0.821368	-0.492686	-0.000113
C26	C	1.260151	0.070828	0.095639
C27	C	1.339114	0.203054	0.095639
C28	C	1.308474	0.322930	-0.000106
C29	C	1.198863	0.310591	-0.095850
C30	C	1.119900	0.178365	-0.095850
C31	C	1.150549	0.058489	-0.000108
C32	C	1.715457	-0.208681	-0.000130
C33	C	1.854918	-0.213019	-0.000131
C34	C	1.479852	-0.486766	-0.000110
C35	C	1.484193	-0.650585	-0.000108
N36	N	1.485964	-0.217095	0.425562
H37	H	1.080414	-0.464395	-0.000074
H38	H	0.599138	-0.864779	-0.000059
Cl39	Cl	0.495007	-0.652783	-0.216219
H40	H	1.428342	0.213111	0.173651
Cl41	Cl	0.989796	-0.597007	0.216061
H42	H	0.686814	-0.407450	-0.173857
H43	H	1.285115	-0.026784	0.173599
H44	H	0.891482	0.030185	-0.000169
Cl45	Cl	0.811554	-0.895456	0.216099
H46	H	1.372770	0.430600	-0.000079
Cl47	Cl	0.982105	0.162850	-0.216227
Cl48	Cl	1.160339	0.461293	-0.216225
