data_functionalizedCrystal
_audit_creation_method	'MofGen! by Chris Wilmer'
_symmetry_space_group_name_H-M	'P1'
_symmetry_Int_Tables_number	1
_symmetry_cell_setting	triclinic
loop_
_symmetry_equiv_pos_as_xyz
  x,y,z
_cell_length_a	27.731994
_cell_length_b	26.210047
_cell_length_c	17.699083
_cell_angle_alpha	90.003602
_cell_angle_beta	97.048226
_cell_angle_gamma	90.002872
loop_
_atom_site_label
_atom_site_type_symbol
_atom_site_fract_x
_atom_site_fract_y
_atom_site_fract_z
O1	O	0.641271	0.042357	-0.089851
O2	O	0.500524	0.042374	-0.103588
O3	O	0.574874	0.042361	0.013506
O4	O	0.566921	0.042371	-0.206945
O5	O	0.574860	-0.042497	0.013488
O6	O	0.500509	-0.042484	-0.103606
O7	O	0.641257	-0.042501	-0.089870
Cu8	Cu	0.570882	-0.050240	-0.096739
Cu9	Cu	0.570899	0.050114	-0.096718
O10	O	0.566907	-0.042487	-0.206963
C11	C	0.482508	-0.000052	-0.103315
C12	C	0.428849	-0.000046	-0.102466
C13	C	0.096103	-0.046322	-0.097127
C14	C	-0.105567	-0.046328	-0.093899
O15	O	-0.131647	-0.085667	-0.093458
N16	N	-0.130775	-0.000072	-0.093488
C17	C	-0.105563	0.046189	-0.093880
O18	O	-0.131631	0.085532	-0.093448
C19	C	0.096107	0.046194	-0.097102
C20	C	0.121312	-0.000065	-0.097521
C21	C	0.121308	-0.092577	-0.097545
C22	C	0.171723	-0.092575	-0.098356
C23	C	0.196931	-0.046318	-0.098750
C24	C	0.171726	-0.000063	-0.098332
C25	C	0.121319	0.092455	-0.097488
C26	C	0.171740	0.092452	-0.098292
C27	C	0.196945	0.046193	-0.098710
C28	C	0.247349	0.046196	-0.099536
N29	N	0.272557	-0.000060	-0.099947
C30	C	0.247349	-0.046317	-0.099554
C31	C	-0.211442	0.046183	-0.092189
C32	C	-0.261859	0.046182	-0.091385
C33	C	-0.261860	-0.046336	-0.091403
C34	C	-0.211442	-0.046334	-0.092213
C35	C	-0.186233	-0.000073	-0.092600
C36	C	0.353222	-0.046309	-0.101258
C37	C	0.403640	-0.046303	-0.102072
C38	C	0.403636	0.046213	-0.102050
C39	C	0.353222	0.046208	-0.101240
C40	C	0.328016	-0.000058	-0.100841
O41	O	0.273462	0.085515	-0.099970
O42	O	0.273427	-0.085655	-0.099968
C43	C	0.045689	-0.046324	-0.096316
C44	C	0.020484	-0.000069	-0.095899
C45	C	0.045693	0.046189	-0.096292
C46	C	-0.029933	-0.000070	-0.095094
C47	C	-0.055142	-0.046327	-0.094701
C48	C	-0.029934	-0.092583	-0.095112
C49	C	0.020480	-0.092581	-0.095923
C50	C	0.020484	0.092445	-0.095881
C51	C	-0.029930	0.092439	-0.095071
C52	C	-0.055139	0.046182	-0.094677
N53	N	0.570873	-0.120824	-0.096754
C54	C	0.603818	-0.473344	-0.044880
C55	C	0.603829	-0.687003	-0.044870
O56	O	0.631820	-0.714630	-0.000768
N57	N	0.570901	-0.713718	-0.096701
C58	C	0.537967	-0.687016	-0.148536
O59	O	0.509958	-0.714641	-0.192616
C60	C	0.537955	-0.473358	-0.148542
C61	C	0.570887	-0.446645	-0.096712
C62	C	0.636747	-0.446632	0.006946
C63	C	0.636746	-0.393220	0.006940
C64	C	0.603815	-0.366521	-0.044892
C65	C	0.570886	-0.393234	-0.096718
C66	C	0.505019	-0.446656	-0.200372
C67	C	0.505018	-0.393238	-0.200368
C68	C	0.537950	-0.366526	-0.148538
C69	C	0.537954	-0.313124	-0.148556
N70	N	0.570881	-0.286408	-0.096725
C71	C	0.603812	-0.313107	-0.044893
C72	C	0.537977	-0.799189	-0.148530
C73	C	0.537980	-0.852603	-0.148529
C74	C	0.603841	-0.852587	-0.044862
C75	C	0.603840	-0.799172	-0.044867
C76	C	0.570904	-0.772474	-0.096698
C77	C	0.603807	-0.200939	-0.044910
C78	C	0.603804	-0.147523	-0.044922
C79	C	0.537942	-0.147544	-0.148586
C80	C	0.537946	-0.200956	-0.148576
C81	C	0.570881	-0.227652	-0.096732
O82	O	0.509973	-0.285464	-0.192629
O83	O	0.631810	-0.285473	-0.000808
C84	C	0.603819	-0.526756	-0.044875
C85	C	0.570890	-0.553468	-0.096700
C86	C	0.537959	-0.526769	-0.148532
C87	C	0.570893	-0.606882	-0.096700
C88	C	0.603824	-0.633581	-0.044868
C89	C	0.636751	-0.606866	0.006963
C90	C	0.636750	-0.553455	0.006957
C91	C	0.505032	-0.553485	-0.200364
C92	C	0.505036	-0.606896	-0.200354
C93	C	0.537967	-0.633595	-0.148522
C94	C	0.659273	-0.000073	-0.090142
C95	C	0.712932	-0.000076	-0.090992
C96	C	0.574582	-0.000068	0.041691
C97	C	0.573727	-0.000068	0.125702
N98	N	0.570911	0.120698	-0.096697
C99	C	0.567199	-0.000057	-0.235148
C100	C	0.568054	-0.000054	-0.319159
C101	C	0.617369	-0.000074	0.174721
C102	C	0.616563	-0.000070	0.253657
C103	C	0.572114	-0.000063	0.283572
C104	C	0.528469	-0.000055	0.234547
C105	C	0.529275	-0.000056	0.155612
C106	C	0.525215	-0.000051	0.552880
C107	C	0.524411	-0.000051	0.631821
C108	C	0.612502	-0.000064	0.650924
C109	C	0.613309	-0.000065	0.571990
C110	C	0.569664	-0.000055	0.522972
C111	C	0.570538	-0.000059	0.437380
C112	C	0.571239	-0.000062	0.369162
H113	H	-0.050448	0.130111	-0.094736
H114	H	0.041004	0.130114	-0.096199
H115	H	0.192241	-0.130244	-0.098692
O116	O	0.486926	-0.000029	0.107885
C117	C	0.497169	-0.000043	0.031801
H118	H	0.535136	0.016016	0.029235
H119	H	0.495302	-0.040753	0.008943
C120	C	0.412958	0.013517	-0.013810
C121	C	0.459589	0.033245	-0.016964
H122	H	0.389777	0.034048	-0.043892
H123	H	0.406057	0.013524	0.037449
H124	H	0.411410	-0.020408	-0.032858
H125	H	0.461139	0.067167	0.002093
H126	H	0.466490	0.033244	-0.068221
O127	O	0.635779	-0.226812	0.005553
C128	C	0.628004	-0.213760	0.080389
H129	H	0.609367	-0.174981	0.080080
H130	H	0.603976	-0.243823	0.103537
C131	C	0.700032	-0.258906	0.131663
C132	C	0.677146	-0.211275	0.131285
H133	H	0.730345	-0.257375	0.163060
H134	H	0.705270	-0.267701	0.081246
H135	H	0.680004	-0.283953	0.150951
H136	H	0.697171	-0.186230	0.111988
H137	H	0.671913	-0.202475	0.181701
H138	H	0.663566	-0.628613	0.049165
H139	H	0.492278	-0.000046	0.258910
O140	O	0.668787	-0.472483	0.057327
C141	C	0.697837	-0.437441	0.103075
H142	H	0.698333	-0.399369	0.072041
H143	H	0.682213	-0.431759	0.159130
C144	C	0.749395	-0.505029	0.157367
C145	C	0.750008	-0.458270	0.119247
H146	H	0.781576	-0.517878	0.167346
H147	H	0.729823	-0.528638	0.126547
H148	H	0.736373	-0.500288	0.204074
H149	H	0.763025	-0.463013	0.072536
H150	H	0.769584	-0.434662	0.150059
H151	H	0.663566	-0.531709	0.049162
H152	H	0.630623	-0.125775	-0.002716
H153	H	-0.050468	-0.130248	-0.094795
H154	H	0.630655	-0.874334	-0.002659
O155	O	-0.286264	0.091163	-0.090955
C156	C	-0.253198	0.131988	-0.091493
H157	H	-0.215230	0.118422	-0.068100
H158	H	-0.252980	0.146214	-0.152319
C159	C	-0.315294	0.192352	-0.070247
C160	C	-0.268662	0.175691	-0.041509
H161	H	-0.324833	0.219312	-0.039418
H162	H	-0.337572	0.164848	-0.069888
H163	H	-0.315106	0.204204	-0.120935
H164	H	-0.268852	0.163834	0.009174
H165	H	-0.246384	0.203194	-0.041859
O166	O	0.472980	-0.472517	-0.250748
C167	C	0.443925	-0.437488	-0.296498
H168	H	0.443423	-0.399413	-0.265466
H169	H	0.459548	-0.431807	-0.352553
C170	C	0.392376	-0.505095	-0.350786
C171	C	0.391756	-0.458331	-0.312669
H172	H	0.360197	-0.517952	-0.360764
H173	H	0.411952	-0.528695	-0.319966
H174	H	0.405398	-0.500354	-0.397494
H175	H	0.378741	-0.463074	-0.265958
H176	H	0.372177	-0.434732	-0.343482
H177	H	-0.282393	-0.084000	-0.091085
O178	O	-0.186915	0.091092	-0.092675
C179	C	-0.163318	0.093872	-0.158725
H180	H	-0.157610	0.053711	-0.180712
H181	H	-0.186642	0.116695	-0.204330
C182	C	-0.120753	0.169657	-0.112565
C183	C	-0.113740	0.120331	-0.139566
H184	H	-0.090172	0.185980	-0.100749
H185	H	-0.136653	0.167785	-0.068067
H186	H	-0.140192	0.188669	-0.150574
H187	H	-0.094307	0.101318	-0.101554
H188	H	-0.097836	0.122200	-0.184057
H189	H	0.653564	-0.000083	0.150370
O190	O	0.659002	-0.000102	0.301166
C191	C	0.698406	-0.000100	0.257836
H192	H	0.686063	-0.016163	0.198766
H193	H	0.712046	0.040607	0.252382
C194	C	0.754856	-0.013658	0.370214
C195	C	0.739697	-0.033392	0.297666
H196	H	0.780328	-0.034192	0.394784
H197	H	0.728310	-0.013657	0.399408
H198	H	0.766220	0.020264	0.365660
H199	H	0.728329	-0.067311	0.302222
H200	H	0.766243	-0.033399	0.268474
O201	O	0.472997	-0.632762	-0.250735
C202	C	0.443941	-0.597737	-0.296492
H203	H	0.443439	-0.559659	-0.265467
H204	H	0.459564	-0.592061	-0.352548
C205	C	0.392393	-0.665348	-0.350766
C206	C	0.391773	-0.618581	-0.312657
H207	H	0.360213	-0.678206	-0.360741
H208	H	0.411969	-0.688946	-0.319941
H209	H	0.405414	-0.660611	-0.397475
H210	H	0.378757	-0.623319	-0.265945
H211	H	0.372193	-0.594985	-0.343475
O212	O	0.482852	-0.000112	0.505192
C213	C	0.480669	-0.044065	0.458966
H214	H	0.519029	-0.058723	0.455433
H215	H	0.458616	-0.074837	0.484667
C216	C	0.409140	-0.012707	0.382865
C217	C	0.456255	-0.030707	0.378521
H218	H	0.394078	-0.004469	0.333244
H219	H	0.410609	0.016904	0.414010
H220	H	0.390768	-0.038354	0.404286
H221	H	0.474627	-0.005059	0.357110
H222	H	0.454788	-0.060315	0.347371
O223	O	0.656529	-0.000049	0.543057
C224	C	0.694877	-0.000065	0.603250
H225	H	0.681392	0.016001	0.656719
H226	H	0.708329	-0.040777	0.614578
C227	C	0.753371	0.013476	0.515802
C228	C	0.736811	0.033213	0.581472
H229	H	0.779240	0.034001	0.502367
H230	H	0.727536	0.013485	0.475248
H231	H	0.764578	-0.020451	0.525250
H232	H	0.725599	0.067136	0.572020
H233	H	0.762645	0.033211	0.622024
H234	H	0.332698	0.083876	-0.100911
H235	H	0.100789	-0.130248	-0.097223
O236	O	0.654856	-0.000046	0.698650
C237	C	0.644617	-0.000054	0.774735
H238	H	0.606656	0.016019	0.777309
H239	H	0.646468	-0.040764	0.797586
C240	C	0.728834	0.013479	0.820342
C241	C	0.682211	0.033224	0.823503
H242	H	0.752024	0.034004	0.850426
H243	H	0.735733	0.013483	0.769082
H244	H	0.730369	-0.020445	0.839383
H245	H	0.680674	0.067145	0.804454
H246	H	0.675313	0.033227	0.874761
H247	H	0.478215	-0.531751	-0.242571
O248	O	0.635846	-0.773304	0.005557
C249	C	0.664919	-0.808330	0.051286
H250	H	0.645103	-0.846407	0.051916
H251	H	0.700796	-0.814007	0.027106
C252	C	0.699318	-0.740719	0.132278
C253	C	0.674979	-0.787484	0.133056
H254	H	0.705526	-0.727860	0.182717
H255	H	0.679733	-0.717120	0.101468
H256	H	0.729213	-0.745456	0.112125
H257	H	0.645082	-0.782746	0.153200
H258	H	0.694559	-0.811081	0.163872
O259	O	0.428097	0.091158	-0.102568
C260	C	0.410219	0.119313	-0.167927
H261	H	0.392470	0.092254	-0.213546
H262	H	0.382217	0.148160	-0.152623
C263	C	0.474293	0.180887	-0.142340
C264	C	0.452497	0.147652	-0.198372
H265	H	0.500371	0.198370	-0.161119
H266	H	0.486337	0.161920	-0.098305
H267	H	0.450953	0.204922	-0.129592
H268	H	0.475835	0.123615	-0.211112
H269	H	0.440457	0.166616	-0.242411
H270	H	0.488214	-0.000046	0.656174
H271	H	0.424160	-0.083975	-0.102415
H272	H	-0.190923	-0.084002	-0.092555
H273	H	0.192262	0.130124	-0.098607
O274	O	0.328813	-0.091297	-0.100909
C275	C	0.361881	-0.132117	-0.101434
H276	H	0.395787	-0.118546	-0.125976
H277	H	0.372391	-0.146345	-0.040781
C278	C	0.296358	-0.192488	-0.120642
C279	C	0.338001	-0.175821	-0.150792
H280	H	0.281628	-0.219448	-0.151086
H281	H	0.274079	-0.164987	-0.120286
H282	H	0.305123	-0.204341	-0.070099
H283	H	0.329234	-0.163962	-0.201330
H284	H	0.360277	-0.203321	-0.151158
H285	H	0.100805	0.130124	-0.097146
H286	H	0.040998	-0.130250	-0.096264
O287	O	0.473090	-0.367249	-0.250751
C288	C	0.498916	-0.336364	-0.297179
H289	H	0.536775	-0.328354	-0.266619
H290	H	0.502132	-0.356956	-0.353079
C291	C	0.425141	-0.295470	-0.351201
C292	C	0.471639	-0.285628	-0.313663
H293	H	0.408314	-0.264174	-0.361373
H294	H	0.407741	-0.316278	-0.319924
H295	H	0.427828	-0.312631	-0.397780
H296	H	0.468951	-0.268473	-0.267081
H297	H	0.489038	-0.264815	-0.344933
O298	O	0.506031	-0.773283	-0.198992
C299	C	0.513797	-0.786355	-0.273824
H300	H	0.552499	-0.801028	-0.273755
H301	H	0.486987	-0.817370	-0.296346
C302	C	0.458682	-0.720894	-0.325321
C303	C	0.506218	-0.738912	-0.325237
H304	H	0.454005	-0.691630	-0.357036
H305	H	0.453449	-0.712088	-0.274905
H306	H	0.436346	-0.746745	-0.344087
H307	H	0.528554	-0.713064	-0.306462
H308	H	0.511456	-0.747712	-0.375651
O309	O	0.506020	-0.121547	-0.198961
C310	C	0.531845	-0.090657	-0.245383
H311	H	0.569707	-0.082656	-0.214826
H312	H	0.535055	-0.111241	-0.301292
C313	C	0.458072	-0.049747	-0.299379
C314	C	0.504574	-0.039916	-0.261845
H315	H	0.441249	-0.018448	-0.309536
H316	H	0.440672	-0.070559	-0.268106
H317	H	0.460754	-0.066902	-0.345965
H318	H	0.501892	-0.022768	-0.215256
H319	H	0.521973	-0.019100	-0.293111
H320	H	0.663561	-0.371474	0.049146
H321	H	0.511169	-0.874349	-0.190741
H322	H	0.511134	-0.222705	-0.190788
