data_functionalizedCrystal
_audit_creation_method	'MofGen! by Chris Wilmer'
_symmetry_space_group_name_H-M	'P1'
_symmetry_Int_Tables_number	1
_symmetry_cell_setting	triclinic
loop_
_symmetry_equiv_pos_as_xyz
  x,y,z
_cell_length_a	6.817900
_cell_length_b	14.858572
_cell_length_c	11.102188
_cell_angle_alpha	93.467807
_cell_angle_beta	108.603875
_cell_angle_gamma	104.524003
loop_
_atom_site_label
_atom_site_type_symbol
_atom_site_fract_x
_atom_site_fract_y
_atom_site_fract_z
V1	V	-4.064538	-0.289960	-0.176639
O2	O	-4.024475	-0.284441	0.007665
O3	O	-4.041627	-0.287977	-0.349453
O4	O	-4.020828	-0.416422	-0.174283
O5	O	-4.045417	-0.155107	-0.168718
V6	V	-4.544255	-0.273831	-0.154551
O7	O	-4.334144	-0.325342	-0.225089
O8	O	-4.724846	-0.238449	-0.106100
O9	O	-4.343960	-0.275814	0.018263
O10	O	-4.701715	-0.279350	-0.338855
O11	O	-4.680772	-0.408684	-0.162472
O12	O	-4.364758	-0.147369	-0.156907
C13	C	-3.892677	-0.283403	-0.391570
C14	C	-3.955262	-0.282625	-0.532851
C15	C	-3.938296	-0.197095	-0.580841
C16	C	-3.997125	-0.196367	-0.713590
C17	C	-4.089878	-0.366706	-0.750350
C18	C	-4.031063	-0.367434	-0.617603
C19	C	-3.866145	-0.447246	-0.168121
C20	C	-3.911859	-0.550629	-0.167339
C21	C	-4.079177	-0.929197	-0.164478
C22	C	-4.032615	-0.823868	-0.165274
C23	C	-3.995520	-0.739916	-0.165909
C24	C	-3.948955	-0.634580	-0.166703
C25	C	-4.156253	-0.280385	0.060374
C26	C	-4.072906	-0.281170	0.201653
C27	C	-4.182784	-0.116540	-0.163072
C28	C	-4.116307	-0.013156	-0.163849
H29	H	-3.983307	-0.126720	-0.752656
O30	O	-4.163791	-0.449030	-0.832817
C31	C	-4.374720	-0.458125	-0.916843
H32	H	-4.401318	-0.385540	-0.922823
H33	H	-4.496864	-0.503523	-0.879069
C34	C	-4.371532	-0.593935	-1.044231
C35	C	-4.404194	-0.504784	-1.051585
H36	H	-4.389719	-0.622721	-1.127345
H37	H	-4.229428	-0.587811	-0.987620
H38	H	-4.473323	-0.631755	-1.012748
H39	H	-4.302387	-0.466962	-1.083052
H40	H	-4.546282	-0.510903	-1.108205
O41	O	-3.864827	-0.114633	-0.498695
C42	C	-3.862431	-0.038986	-0.569524
H43	H	-3.981588	-0.065052	-0.671791
H44	H	-3.693139	-0.008630	-0.572281
C45	C	-3.781187	0.069865	-0.379416
C46	C	-3.927552	0.037852	-0.505019
H47	H	-3.821347	0.117265	-0.339625
H48	H	-3.782793	0.018902	-0.331695
H49	H	-3.640122	0.095156	-0.381731
H50	H	-4.068607	0.012552	-0.502701
H51	H	-3.925971	0.088813	-0.552738
O52	O	-4.047585	-0.450603	-0.571190
C53	C	-4.127133	-0.525303	-0.674457
H54	H	-4.091813	-0.498210	-0.761447
H55	H	-4.308935	-0.555494	-0.699930
C56	C	-4.059533	-0.635989	-0.528500
C57	C	-4.016136	-0.602715	-0.635340
H58	H	-3.991074	-0.683744	-0.504371
H59	H	-4.005947	-0.585664	-0.458926
H60	H	-4.211036	-0.661142	-0.549742
H61	H	-3.864638	-0.577553	-0.614093
H62	H	-4.069694	-0.653039	-0.704910
