data_functionalizedCrystal
_audit_creation_method	'MofGen! by Chris Wilmer'
_symmetry_space_group_name_H-M	'P1'
_symmetry_Int_Tables_number	1
_symmetry_cell_setting	triclinic
loop_
_symmetry_equiv_pos_as_xyz
  x,y,z
_cell_length_a	23.532407
_cell_length_b	15.995350
_cell_length_c	15.072220
_cell_angle_alpha	89.998899
_cell_angle_beta	89.985073
_cell_angle_gamma	96.829474
loop_
_atom_site_label
_atom_site_type_symbol
_atom_site_fract_x
_atom_site_fract_y
_atom_site_fract_z
O1	O	0.755658	-0.101636	-0.073828
O2	O	0.589851	-0.116342	-0.073818
O3	O	0.677287	0.012936	-0.073823
O4	O	0.668222	-0.230914	-0.073824
O5	O	0.677265	0.012929	0.073742
O6	O	0.589829	-0.116350	0.073747
O7	O	0.755636	-0.101643	0.073737
Zn8	Zn	0.672729	-0.108997	0.097171
Zn9	Zn	0.672758	-0.108988	-0.097253
O10	O	0.668200	-0.230922	0.073741
C11	C	0.676901	0.044124	-0.000042
C12	C	0.675778	0.137065	-0.000047
C13	C	0.568623	-0.115971	-0.000035
C14	C	0.505401	-0.114846	-0.000031
C15	C	0.776864	-0.102014	-0.000049
C16	C	0.840086	-0.103140	-0.000058
C17	C	1.238922	-0.033698	-0.000027
C18	C	1.298326	-0.034744	-0.000023
O19	O	1.334823	0.029630	0.000009
N20	N	1.321248	-0.111600	-0.000026
C21	C	1.284762	-0.187415	-0.000024
O22	O	1.309713	-0.252883	-0.000025
C23	C	1.225359	-0.186368	-0.000022
C24	C	1.202440	-0.109507	-0.000028
C25	C	1.216003	0.043157	-0.000032
C26	C	1.156602	0.044203	-0.000038
C27	C	1.120121	-0.031606	-0.000038
C28	C	1.143040	-0.108461	-0.000033
C29	C	1.188874	-0.262182	-0.000013
C30	C	1.129468	-0.261129	-0.000010
C31	C	1.106549	-0.184268	-0.000016
C32	C	1.047159	-0.183225	-0.000039
N33	N	1.024237	-0.106369	-0.000036
C34	C	1.060718	-0.030560	-0.000036
C35	C	1.409513	-0.189607	-0.000028
C36	C	1.468915	-0.190655	-0.000036
C37	C	1.482475	-0.037984	-0.000034
C38	C	1.423072	-0.036937	-0.000031
C39	C	1.386591	-0.112751	-0.000025
C40	C	0.935973	-0.028369	-0.000048
C41	C	0.876567	-0.027331	-0.000058
C42	C	0.863012	-0.180002	-0.000056
C43	C	0.922413	-0.181041	-0.000051
C44	C	0.958893	-0.105218	-0.000044
O45	O	1.010627	-0.247565	-0.000068
O46	O	1.035758	0.034898	-0.000023
C47	C	0.668586	-0.262110	-0.000042
C48	C	0.669709	-0.355051	-0.000043
N49	N	0.672714	-0.109003	0.229860
C50	C	0.671743	0.474779	-0.000044
C51	C	0.609473	0.426827	-0.000371
C52	C	0.610596	0.330146	-0.000038
C53	C	0.673744	0.307235	-0.000046
C54	C	0.704446	0.348564	0.084218
C55	C	0.702881	0.445187	0.084288
C56	C	0.704192	0.445564	-0.083521
C57	C	0.704178	0.348619	-0.084634
C58	C	0.674879	0.212547	-0.000044
C59	C	0.670610	0.569468	-0.000039
N60	N	0.672777	-0.108975	-0.229941
C61	C	0.672757	-0.108985	0.589061
C62	C	0.625814	-0.177930	0.551457
C63	C	0.625922	-0.178179	0.448631
C64	C	0.672735	-0.108994	0.410857
C65	C	0.732157	-0.127581	0.448145
C66	C	0.731894	-0.128071	0.551003
C67	C	0.660806	-0.021244	0.551163
C68	C	0.659443	-0.021842	0.448299
C69	C	0.672726	-0.108998	0.310144
C70	C	0.672769	-0.108983	0.689775
H71	H	0.965668	0.033373	-0.000043
C72	C	0.822878	-0.263387	-0.000059
H73	H	0.845032	-0.309315	-0.000063
H74	H	0.799413	-0.266149	0.051398
H75	H	0.799435	-0.266146	-0.051527
H76	H	0.633340	-0.242684	0.577294
C77	C	1.522612	0.045406	-0.000025
H78	H	1.561271	0.033768	-0.000016
H79	H	1.515677	0.076951	-0.051481
H80	H	1.515655	0.076936	0.051443
H81	H	0.681731	0.321186	-0.146970
C82	C	0.764636	0.489273	0.089470
H83	H	0.764099	0.548568	0.089546
H84	H	0.782172	0.472817	0.142415
H85	H	0.785733	0.473638	0.039637
H86	H	0.742425	-0.192044	0.574983
C87	C	1.131397	0.128748	-0.000041
H88	H	1.090793	0.118526	-0.000049
H89	H	1.143913	0.159938	0.051417
H90	H	1.143931	0.159938	-0.051507
H91	H	0.581752	-0.167178	0.423423
C92	C	0.600395	-0.002759	0.415381
H93	H	0.592600	0.050038	0.438256
H94	H	0.600333	-0.000881	0.352387
H95	H	0.571820	-0.045663	0.435203
H96	H	0.750838	0.334824	0.087346
H97	H	0.767916	-0.079808	0.575876
C98	C	0.603532	0.003056	0.586241
H99	H	0.597140	0.056190	0.562576
H100	H	0.573314	-0.038327	0.568637
H101	H	0.604810	0.006307	0.649157
H102	H	1.404416	0.025650	-0.000036
H103	H	0.857910	0.035262	-0.000065
C104	C	0.780477	-0.061530	0.415084
H105	H	0.764802	-0.021938	0.378155
H106	H	0.798993	-0.033186	0.464456
H107	H	0.807440	-0.088719	0.382225
C108	C	1.256124	0.126555	-0.000040
H109	H	1.233957	0.172469	-0.000049
H110	H	1.279575	0.129333	0.051415
H111	H	1.279583	0.129323	-0.051510
H112	H	0.691412	0.031830	0.422590
H113	H	0.750228	0.333640	-0.089728
H114	H	0.683104	0.320002	0.146929
C115	C	0.676705	0.473082	-0.169803
H116	H	0.696927	0.454832	-0.219366
H117	H	0.637912	0.448697	-0.172389
H118	H	0.678325	0.532702	-0.170886
H119	H	1.487569	-0.253243	-0.000044
H120	H	1.379813	-0.251349	-0.000028
H121	H	1.207523	-0.324771	-0.000012
H122	H	0.742939	-0.190822	0.422375
H123	H	0.750104	0.477707	-0.084092
C124	C	0.707046	0.048061	0.584018
H125	H	0.733509	0.023691	0.620654
H126	H	0.726623	0.074663	0.534551
H127	H	0.689531	0.088576	0.617139
H128	H	0.581502	-0.167116	0.576221
H129	H	1.099767	-0.322868	-0.000000
H130	H	0.941074	-0.243628	-0.000047
H131	H	0.633553	-0.243300	0.424016
H132	H	0.584593	0.445155	-0.060798
C133	C	0.577996	0.291475	-0.081635
H134	H	0.578643	0.232201	-0.081543
H135	H	0.539479	0.303646	-0.079551
H136	H	0.595761	0.314716	-0.134158
C137	C	0.575987	0.453002	0.080813
H138	H	0.599791	0.493024	0.114907
H139	H	0.543207	0.477275	0.061443
H140	H	0.564314	0.404850	0.116185
C141	C	0.577759	0.292222	0.081710
H142	H	0.563684	0.335913	0.114850
H143	H	0.546595	0.252992	0.062928
H144	H	0.602747	0.264376	0.117800
C145	C	0.672607	0.469658	0.169378
H146	H	0.661375	0.420570	0.203574
H147	H	0.698044	0.507839	0.203068
H148	H	0.639712	0.495648	0.153982
