data_functionalizedCrystal
_audit_creation_method	'MofGen! by Chris Wilmer'
_symmetry_space_group_name_H-M	'P1'
_symmetry_Int_Tables_number	1
_symmetry_cell_setting	triclinic
loop_
_symmetry_equiv_pos_as_xyz
  x,y,z
_cell_length_a	14.519731
_cell_length_b	17.000371
_cell_length_c	13.596369
_cell_angle_alpha	89.993489
_cell_angle_beta	89.994584
_cell_angle_gamma	79.644050
loop_
_atom_site_label
_atom_site_type_symbol
_atom_site_fract_x
_atom_site_fract_y
_atom_site_fract_z
O1	O	1.215190	0.104406	-0.081794
O2	O	0.945698	0.116674	-0.081796
O3	O	1.097177	-0.005302	-0.081788
O4	O	1.063711	0.226381	-0.081802
O5	O	1.097164	-0.005308	0.081795
O6	O	0.945684	0.116667	0.081787
O7	O	1.215177	0.104399	0.081789
Zn8	Zn	1.080428	0.110532	0.107760
Zn9	Zn	1.080446	0.110541	-0.107767
O10	O	1.063697	0.226375	0.081781
C11	C	0.911379	0.116096	-0.000004
C12	C	0.809142	0.114373	-0.000005
C13	C	0.726114	0.112974	-0.000009
C14	C	0.621951	0.111225	-0.000009
C15	C	0.538927	0.109837	-0.000009
C16	C	0.434756	0.108088	-0.000011
C17	C	1.098968	-0.034956	0.000003
C18	C	1.104313	-0.123307	0.000003
C19	C	1.022057	-0.155455	-0.000002
C20	C	1.027085	-0.238470	0.000000
C21	C	1.114370	-0.289336	0.000001
C22	C	1.196633	-0.257183	0.000009
C23	C	1.191604	-0.174169	0.000013
C24	C	1.133795	-0.540453	-0.000006
C25	C	1.138817	-0.623472	-0.000013
C26	C	0.969269	-0.604754	-0.000019
C27	C	0.964248	-0.521739	-0.000021
C28	C	1.046511	-0.489593	-0.000008
C29	C	1.119512	-0.374191	0.000001
C30	C	1.041368	-0.404739	-0.000001
C31	C	1.249495	0.104978	-0.000005
C32	C	1.351733	0.106700	-0.000011
C33	C	1.061906	0.256029	-0.000012
C34	C	1.056561	0.344380	-0.000018
N35	N	1.080423	0.110526	0.254852
N36	N	1.080460	0.110541	-0.254859
C37	C	1.080445	0.110542	0.656143
C38	C	1.080436	0.110540	0.544492
C39	C	1.080434	0.110534	0.455501
C40	C	1.080425	0.110532	0.343843
H41	H	0.960103	-0.264640	-0.000011
H42	H	0.950980	-0.114044	-0.000007
H43	H	1.200779	-0.514290	0.000002
N44	N	0.875096	-0.469772	-0.000009
N45	N	0.870619	-0.395654	-0.000005
H46	H	0.807654	-0.358950	0.000000
H47	H	1.267702	-0.298605	0.000015
N48	N	0.885255	-0.637604	-0.000034
N49	N	0.889752	-0.711724	-0.000040
H50	H	0.830413	-0.734925	-0.000048
N51	N	1.227990	-0.675421	-0.000013
N52	N	1.301431	-0.646711	-0.000001
H53	H	1.364406	-0.683399	-0.000003
N54	N	1.275636	-0.141341	0.000028
N55	N	1.353564	-0.186763	0.000033
H56	H	1.412915	-0.163581	0.000050
H57	H	0.970301	-0.363320	0.000005
N58	N	1.208668	-0.426152	0.000012
N59	N	1.230379	-0.474569	0.068967
H60	H	1.293346	-0.511269	0.068979
