data_functionalizedCrystal
_audit_creation_method	'MofGen! by Chris Wilmer'
_symmetry_space_group_name_H-M	'P1'
_symmetry_Int_Tables_number	1
_symmetry_cell_setting	triclinic
loop_
_symmetry_equiv_pos_as_xyz
  x,y,z
_cell_length_a	10.654550
_cell_length_b	10.654550
_cell_length_c	9.730223
_cell_angle_alpha	90.004253
_cell_angle_beta	89.997315
_cell_angle_gamma	95.515070
loop_
_atom_site_label
_atom_site_type_symbol
_atom_site_fract_x
_atom_site_fract_y
_atom_site_fract_z
O1	O	1.667839	-0.176399	-0.114271
O2	O	2.167839	0.323601	0.385729
O3	O	1.302361	-0.193205	-0.114278
O4	O	1.802361	0.306795	0.385722
O5	O	1.493503	-0.002062	-0.114266
O6	O	1.993503	0.497938	0.385734
O7	O	1.476697	-0.367541	-0.114283
O8	O	1.976697	0.132459	0.385717
O9	O	1.493490	-0.002057	0.114314
O10	O	1.993490	0.497943	0.614314
O11	O	1.302348	-0.193199	0.114302
O12	O	1.802348	0.306801	0.614302
O13	O	1.667827	-0.176393	0.114309
O14	O	2.167827	0.323607	0.614309
Zn15	Zn	1.485085	-0.184796	0.150597
Zn16	Zn	1.985085	0.315204	0.650597
Zn17	Zn	1.485102	-0.184802	-0.150566
Zn18	Zn	1.985102	0.315198	0.349434
O19	O	1.476684	-0.367536	0.114297
O20	O	1.976684	0.132464	0.614297
C21	C	1.255556	-0.191968	0.000011
C22	C	1.755556	0.308032	0.500011
C23	C	1.116113	-0.188276	0.000009
C24	C	1.616113	0.311724	0.500009
C25	C	1.492263	0.044738	0.000024
C26	C	1.992263	0.544738	0.500024
C27	C	1.488571	0.184181	0.000021
C28	C	1.988571	0.684181	0.500021
C29	C	1.714631	-0.177630	0.000017
C30	C	2.214631	0.322370	0.500017
C31	C	1.854074	-0.181322	0.000010
C32	C	2.354074	0.318678	0.500010
N33	N	1.485083	-0.184790	0.356134
N34	N	1.985083	0.315210	0.856134
C35	C	1.933560	-0.068780	0.000010
C36	C	2.433560	0.431220	0.500010
C37	C	2.064580	-0.072257	0.000015
C38	C	2.564580	0.427743	0.500015
C39	C	2.036617	-0.300826	0.000013
C40	C	2.536617	0.199174	0.500013
C41	C	1.905599	-0.297349	0.000018
C42	C	2.405599	0.202651	0.500018
C43	C	1.477925	-0.414336	0.000004
C44	C	1.977925	0.085664	0.500004
C45	C	1.481616	-0.553779	-0.000002
C46	C	1.981616	-0.053779	0.499998
C47	C	1.601112	0.263667	0.000023
C48	C	2.101112	0.763667	0.500023
C49	C	1.597636	0.394688	0.000006
C50	C	2.097636	0.894688	0.500006
C51	C	1.369066	0.366725	-0.000008
C52	C	1.869066	0.866725	0.499992
C53	C	1.372544	0.235706	-0.000001
C54	C	1.872544	0.735706	0.499999
N55	N	1.485114	-0.184798	-0.356103
N56	N	1.985114	0.315202	0.143897
C57	C	1.569750	-0.100188	0.428065
C58	C	2.069750	0.399812	0.928065
C59	C	1.569763	-0.100189	0.571948
C60	C	2.069763	0.399811	1.071948
C61	C	1.400438	-0.269404	0.571956
C62	C	1.900438	0.230596	1.071956
C63	C	1.400420	-0.269396	0.428075
C64	C	1.900420	0.230604	0.928075
H65	H	1.891613	0.025696	0.000007
H66	H	2.391613	0.525696	0.500007
H67	H	1.280893	0.170985	-0.000007
H68	H	1.780893	0.670985	0.499993
Cl69	Cl	1.294013	-0.375766	0.662403
Cl70	Cl	1.794013	0.124234	1.162403
H71	H	1.331468	-0.338290	0.369505
H72	H	1.831468	0.161710	0.869505
Cl73	Cl	2.101401	-0.446680	0.000008
Cl74	Cl	2.601401	0.053320	0.500008
Cl75	Cl	2.164501	0.069231	0.000021
Cl76	Cl	2.664501	0.569231	0.500021
H77	H	1.840878	-0.388999	0.000023
H78	H	2.340878	0.111001	0.500023
H79	H	1.689279	0.459401	0.000004
H80	H	2.189279	0.959401	0.500004
Cl81	Cl	1.746974	0.198897	0.000048
Cl82	Cl	2.246974	0.698897	0.500048
H83	H	1.638705	-0.031297	0.630511
H84	H	2.138705	0.468703	1.130511
H85	H	1.274601	0.408693	-0.000024
H86	H	1.774601	0.908693	0.499976
H87	H	1.638687	-0.031295	0.369494
H88	H	2.138687	0.468705	0.869494
