data_functionalizedCrystal
_audit_creation_method	'MofGen! by Chris Wilmer'
_symmetry_space_group_name_H-M	'P1'
_symmetry_Int_Tables_number	1
_symmetry_cell_setting	triclinic
loop_
_symmetry_equiv_pos_as_xyz
  x,y,z
_cell_length_a	13.897447
_cell_length_b	18.215407
_cell_length_c	13.897441
_cell_angle_alpha	89.979341
_cell_angle_beta	90.028354
_cell_angle_gamma	89.980549
loop_
_atom_site_label
_atom_site_type_symbol
_atom_site_fract_x
_atom_site_fract_y
_atom_site_fract_z
Zn1	Zn	-0.383995	-1.125100	0.545443
Zn2	Zn	0.116005	-0.625100	1.045443
Zn3	Zn	-0.545314	-1.125020	0.384148
Zn4	Zn	-0.045314	-0.625020	0.884148
Zn5	Zn	-0.384035	-1.002032	0.384155
Zn6	Zn	0.115965	-0.502032	0.884155
Zn7	Zn	-0.545250	-1.002010	0.545395
Zn8	Zn	-0.045250	-0.502010	1.045395
O9	O	-0.464649	-1.063540	0.464785
O10	O	0.035351	-0.563540	0.964785
O11	O	-0.405405	-1.228073	0.524064
O12	O	0.094595	-0.728073	1.024064
O13	O	-0.523964	-1.108681	0.249167
O14	O	-0.023964	-0.608681	0.749167
O15	O	-0.249048	-1.018400	0.405574
O16	O	0.250952	-0.518400	0.905574
O17	O	-0.523926	-1.228014	0.405561
O18	O	-0.023926	-0.728014	0.905561
O19	O	-0.249019	-1.108818	0.524071
O20	O	0.250981	-0.608818	1.024071
O21	O	-0.405472	-1.018323	0.249173
O22	O	0.094528	-0.518323	0.749173
O23	O	-0.405410	-0.899045	0.405527
O24	O	0.094590	-0.399045	0.905527
O25	O	-0.523816	-1.018362	0.680383
O26	O	-0.023816	-0.518362	1.180383
O27	O	-0.523854	-0.899028	0.523989
O28	O	-0.023854	-0.399028	1.023989
O29	O	-0.405343	-1.108796	0.680418
O30	O	0.094657	-0.608796	1.180418
O31	O	-0.680287	-1.108659	0.405514
O32	O	-0.180287	-0.608659	0.905514
O33	O	-0.680240	-1.018284	0.523981
O34	O	-0.180240	-0.518284	1.023981
C35	C	-0.464630	-0.872334	0.464754
C36	C	0.035370	-0.372334	0.964754
C37	C	-0.464645	-0.790535	0.464764
C38	C	0.035355	-0.290535	0.964764
C39	C	-0.715263	-1.063481	0.464763
C40	C	-0.215263	-0.563481	0.964763
C41	C	-0.822477	-1.063522	0.464785
C42	C	-0.322477	-0.563522	0.964785
C43	C	-0.526414	-0.602352	0.526366
C44	C	-0.026414	-0.102352	1.026366
C45	C	-0.526416	-0.525493	0.526377
C46	C	-0.026416	-0.025493	1.026377
C47	C	-0.402889	-0.525481	0.403208
C48	C	0.097111	-0.025481	0.903208
C49	C	-0.402883	-0.602338	0.403203
C50	C	0.097117	-0.102338	0.903203
C51	C	-0.464651	-0.640772	0.464780
C52	C	0.035349	-0.140772	0.964780
C53	C	-0.464659	-0.487056	0.464796
C54	C	0.035341	0.012944	0.964796
C55	C	-0.464661	-0.403722	0.464807
C56	C	0.035339	0.096278	0.964807
C57	C	-0.464648	-0.724111	0.464771
C58	C	0.035352	-0.224111	0.964771
C59	C	-0.909547	-1.063558	0.464807
C60	C	-0.409547	-0.563558	0.964807
C61	C	-1.018779	-1.063609	0.464832
C62	C	-0.518779	-0.563609	0.964832
C63	C	-0.213056	-1.063620	0.464829
C64	C	0.286944	-0.563620	0.964829
C65	C	-0.105842	-1.063655	0.464847
C66	C	0.394158	-0.563655	0.964847
C67	C	-0.464568	-1.063585	0.716378
C68	C	0.035432	-0.563585	1.216378
C69	C	-0.464533	-1.063605	0.823592
C70	C	0.035467	-0.563605	1.323592
C71	C	-0.464665	-0.255493	0.464812
C72	C	0.035335	0.244507	0.964812
C73	C	-0.464664	-0.337292	0.464813
C74	C	0.035336	0.162708	0.964813
C75	C	-0.464660	-1.063538	0.214171
C76	C	0.035340	-0.563538	0.714171
C77	C	-0.464422	-1.063661	0.106957
C78	C	0.035578	-0.563661	0.606957
C79	C	-0.464506	-1.063620	0.910662
C80	C	0.035494	-0.563620	1.410662
C81	C	-0.464462	-1.063641	1.019895
C82	C	0.035538	-0.563641	1.519895
H83	H	-0.576708	-0.494215	0.576527
H84	H	-0.076708	0.005785	1.076527
N85	N	-0.589485	-0.641623	0.589271
N86	N	-0.089485	-0.141623	1.089271
N87	N	-0.589472	-0.710245	0.589262
N88	N	-0.089472	-0.210245	1.089262
H89	H	-0.634016	-0.737980	0.633692
H90	H	-0.134016	-0.237980	1.133692
N91	N	-0.339804	-0.486209	0.340317
N92	N	0.160196	0.013791	0.840317
N93	N	-0.339817	-0.417587	0.340329
N94	N	0.160183	0.082413	0.840329
H95	H	-0.295263	-0.389851	0.295910
H96	H	0.204737	0.110149	0.795910
H97	H	-0.352582	-0.633620	0.353052
H98	H	0.147418	-0.133620	0.853052
