data_functionalizedCrystal
_audit_creation_method	'MofGen! by Chris Wilmer'
_symmetry_space_group_name_H-M	'P1'
_symmetry_Int_Tables_number	1
_symmetry_cell_setting	triclinic
loop_
_symmetry_equiv_pos_as_xyz
  x,y,z
_cell_length_a	18.050591
_cell_length_b	18.050589
_cell_length_c	15.296720
_cell_angle_alpha	99.646980
_cell_angle_beta	99.657105
_cell_angle_gamma	90.024669
loop_
_atom_site_label
_atom_site_type_symbol
_atom_site_fract_x
_atom_site_fract_y
_atom_site_fract_z
Zn1	Zn	1.062586	-0.368396	-0.510205
Zn2	Zn	1.083992	-0.471110	-0.359365
Zn3	Zn	0.959902	-0.346930	-0.359358
Zn4	Zn	0.938361	-0.492534	-0.510154
O5	O	1.011210	-0.419743	-0.434770
O6	O	1.169347	-0.382040	-0.490221
O7	O	1.085505	-0.436687	-0.233128
O8	O	0.973580	-0.245855	-0.379387
O9	O	1.185074	-0.457503	-0.379399
O10	O	1.049022	-0.261627	-0.490214
O11	O	0.994336	-0.345453	-0.233123
O12	O	0.853123	-0.366227	-0.379337
O13	O	0.936866	-0.494017	-0.636396
O14	O	0.837297	-0.473201	-0.490126
O15	O	1.028134	-0.402814	-0.636434
O16	O	1.064618	-0.577874	-0.379349
O17	O	0.957623	-0.593614	-0.490132
C18	C	0.818265	-0.419710	-0.434725
C19	C	0.735719	-0.419717	-0.434727
C20	C	0.495457	-0.361513	-0.374623
C21	C	0.533158	-0.355150	-0.456948
C22	C	0.438588	-0.419765	-0.434801
C23	C	0.547974	-0.426071	-0.352445
C24	C	0.584579	-0.419739	-0.434761
C25	C	0.475195	-0.413373	-0.517170
C26	C	0.490014	-0.484318	-0.412611
C27	C	0.527684	-0.477988	-0.494993
C28	C	0.354486	-0.419779	-0.434823
C29	C	0.668677	-0.419728	-0.434748
C30	C	1.011123	-0.612693	-0.434755
C31	C	1.011149	-0.695242	-0.434779
C32	C	0.953017	-0.903276	-0.495002
C33	C	0.946650	-0.940992	-0.412685
C34	C	1.011220	-0.846374	-0.434791
C35	C	1.017623	-0.955741	-0.517118
C36	C	1.011287	-0.992362	-0.434810
C37	C	1.004824	-0.882997	-0.352430
C38	C	1.075820	-0.897749	-0.456919
C39	C	1.069487	-0.935434	-0.374544
C40	C	1.011180	-0.762274	-0.434781
C41	C	1.011329	-1.076458	-0.434810
C42	C	1.204909	-0.419776	-0.434816
C43	C	1.287452	-0.419790	-0.434836
C44	C	0.977710	-0.453200	-0.670062
C45	C	0.963434	-0.467457	-0.770329
C46	C	1.011316	-0.226042	-0.434805
C47	C	1.011361	-0.143498	-0.434820
C48	C	1.113271	-0.317713	-1.053045
C49	C	1.126689	-0.304319	-0.958839
C50	C	1.085876	-0.345102	-0.911707
C51	C	1.031644	-0.399282	-0.958790
C52	C	1.018229	-0.412682	-1.053005
C53	C	0.990833	-0.440071	-0.911667
C54	C	0.936601	-0.494251	-0.958750
C55	C	0.923188	-0.507648	-1.052956
C56	C	0.964001	-0.466865	-1.100088
C57	C	1.004248	-0.426671	-0.817452
C58	C	0.909206	-0.521640	-0.817412
C59	C	0.895788	-0.535034	-0.911618
C60	C	1.044624	-0.386362	-0.200394
C61	C	1.059043	-0.371896	-0.100128
H62	H	0.470949	-0.538899	-0.393830
H63	H	0.879034	-0.551771	-1.091289
H64	H	0.579556	-0.431416	-0.282814
H65	H	0.541970	-0.527248	-0.545925
H66	H	0.552196	-0.300548	-0.475716
H67	H	0.903745	-0.888864	-0.545849
H68	H	0.481018	-0.312239	-0.323812
O69	O	0.843213	-0.587752	-0.957399
C70	C	0.877705	-0.643462	-1.011913
H71	H	0.940234	-0.644025	-0.983532
H72	H	0.870113	-0.630652	-1.083316
C73	C	0.764376	-0.720173	-1.048201
C74	C	0.841173	-0.720868	-1.013338
H75	H	0.741839	-0.767920	-1.049084
H76	H	0.741136	-0.682639	-1.011477
H77	H	0.758059	-0.709494	-1.107700
H78	H	0.847488	-0.731537	-0.953836
H79	H	0.864413	-0.758406	-1.050052
H80	H	1.118744	-0.949692	-0.323575
H81	H	1.023013	-0.987306	-0.586734
H82	H	0.443701	-0.407964	-0.586821
H83	H	0.892050	-0.960107	-0.393986
H84	H	0.999370	-0.851518	-0.282795
O85	O	1.140889	-0.875003	-0.479428
C86	C	1.147388	-0.912458	-0.566299
H87	H	1.089210	-0.931895	-0.605155
H88	H	1.184249	-0.963285	-0.560656
C89	C	1.254737	-0.834583	-0.568602
C90	C	1.183281	-0.858450	-0.616329
H91	H	1.276881	-0.801270	-0.599463
H92	H	1.250362	-0.809350	-0.510074
H93	H	1.285446	-0.876944	-0.563904
H94	H	1.152572	-0.816090	-0.621017
H95	H	1.187653	-0.883674	-0.674859
H96	H	0.875974	-0.554850	-0.779037
O97	O	1.056831	-0.373987	-0.771625
C98	C	1.022331	-0.318252	-0.717153
H99	H	0.968051	-0.342427	-0.703013
H100	H	1.009026	-0.268386	-0.753479
C101	C	1.142609	-0.262381	-0.645046
C102	C	1.075944	-0.292076	-0.627673
H103	H	1.175681	-0.246232	-0.589853
H104	H	1.165853	-0.299929	-0.681748
H105	H	1.131512	-0.220830	-0.675320
H106	H	1.087042	-0.333632	-0.597410
H107	H	1.052704	-0.254535	-0.590965
O108	O	1.179368	-0.251640	-0.913245
C109	C	1.212526	-0.218529	-0.975042
H110	H	1.172547	-0.225501	-1.042191
H111	H	1.267484	-0.247161	-0.985071
C112	C	1.277614	-0.125701	-0.855819
C113	C	1.228508	-0.134259	-0.938291
H114	H	1.287476	-0.073720	-0.833148
H115	H	1.255277	-0.148010	-0.814184
H116	H	1.323407	-0.149566	-0.864188
H117	H	1.182713	-0.110403	-0.929919
H118	H	1.250838	-0.111944	-0.979924
O119	O	1.152825	-0.278149	-1.098967
C120	C	1.129371	-0.301613	-1.192214
H121	H	1.070213	-0.327748	-1.205059
H122	H	1.169589	-0.344977	-1.218945
C123	C	1.201998	-0.201260	-1.224835
C124	C	1.129335	-0.233355	-1.240612
H125	H	1.201978	-0.159157	-1.254690
H126	H	1.217802	-0.185454	-1.162013
H127	H	1.235504	-0.237404	-1.247111
H128	H	1.095833	-0.197214	-1.218325
H129	H	1.113526	-0.249154	-1.303431
O130	O	0.950972	-0.480012	-1.191603
C131	C	0.965542	-0.555659	-1.223075
H132	H	0.960561	-0.590717	-1.168777
H133	H	1.024780	-0.559619	-1.239804
C134	C	0.914285	-0.542528	-1.374893
C135	C	0.908160	-0.585588	-1.308206
H136	H	0.878891	-0.560990	-1.427408
H137	H	0.904471	-0.491563	-1.353691
H138	H	0.963652	-0.545832	-1.388823
H139	H	0.858796	-0.582276	-1.294269
H140	H	0.917964	-0.636554	-1.329407
H141	H	1.096804	-0.334193	-0.835000
