data_functionalizedCrystal
_audit_creation_method	'MofGen! by Chris Wilmer'
_symmetry_space_group_name_H-M	'P1'
_symmetry_Int_Tables_number	1
_symmetry_cell_setting	triclinic
loop_
_symmetry_equiv_pos_as_xyz
  x,y,z
_cell_length_a	12.594517
_cell_length_b	12.594516
_cell_length_c	12.594509
_cell_angle_alpha	90.026199
_cell_angle_beta	90.021327
_cell_angle_gamma	90.015853
loop_
_atom_site_label
_atom_site_type_symbol
_atom_site_fract_x
_atom_site_fract_y
_atom_site_fract_z
Zn1	Zn	1.627267	-0.423716	0.601875
Zn2	Zn	1.627158	-0.601726	0.423903
Zn3	Zn	1.449271	-0.423761	0.423904
Zn4	Zn	1.449253	-0.601652	0.601833
O5	O	1.538237	-0.512714	0.512879
O6	O	1.776198	-0.447341	0.578284
O7	O	1.603522	-0.578169	0.274957
O8	O	1.472936	-0.274809	0.447530
O9	O	1.776118	-0.578124	0.447528
O10	O	1.603709	-0.274776	0.578285
O11	O	1.472830	-0.447419	0.274958
O12	O	1.300323	-0.447347	0.447489
O13	O	1.472905	-0.577998	0.750784
O14	O	1.300310	-0.578042	0.578213
O15	O	1.603691	-0.447269	0.750815
O16	O	1.603505	-0.750662	0.447488
O17	O	1.472799	-0.750608	0.578212
C18	C	1.538167	-0.789255	0.512868
C19	C	1.538235	-0.907560	0.512899
C20	C	1.261696	-0.512692	0.512847
C21	C	1.143391	-0.512709	0.512859
C22	C	1.467137	-0.976822	0.583950
C23	C	1.441204	-1.047688	0.486827
C24	C	1.564265	-1.047494	0.610039
C25	C	1.512250	-0.976867	0.415725
C26	C	1.635357	-0.976667	0.539002
C27	C	1.609460	-1.047500	0.441812
C28	C	1.074114	-0.441526	0.441894
C29	C	1.003303	-0.538615	0.415718
C30	C	1.003403	-0.415668	0.539054
C31	C	1.074138	-0.609849	0.486632
C32	C	1.074244	-0.486836	0.610013
C33	C	1.003465	-0.583991	0.583874
C34	C	1.815858	-0.512736	0.512911
C35	C	1.934163	-0.512745	0.512924
C36	C	1.538308	-0.512620	0.790500
C37	C	1.538339	-0.512581	0.908805
C38	C	1.538336	-0.235093	0.512912
C39	C	1.538378	-0.116787	0.512927
C40	C	1.538227	-0.512730	0.236338
C41	C	1.538403	-0.512470	0.118033
C42	C	1.467227	-0.583644	0.978042
C43	C	1.564347	-0.609650	1.048833
C44	C	1.441294	-0.486510	1.048813
C45	C	1.635510	-0.538638	0.978038
C46	C	1.512391	-0.415453	0.978012
C47	C	1.609579	-0.441422	1.048772
H48	H	1.359136	-1.078906	0.464772
C49	C	1.387119	-0.663800	0.936413
C50	C	1.387434	-0.662143	0.825257
C51	C	1.313649	-0.735959	0.786871
H52	H	1.405660	-0.732793	0.960550
H53	H	1.318301	-0.645989	0.961626
H54	H	1.456236	-0.679960	0.800054
H55	H	1.368881	-0.593168	0.801091
H56	H	1.244832	-0.718149	0.812085
H57	H	1.332197	-0.804947	0.811016
H58	H	1.313846	-0.734838	0.711449
H59	H	1.490197	-0.945972	0.333563
C60	C	1.115280	-0.361323	0.361692
C61	C	1.029341	-0.312122	0.311185
C62	C	1.067223	-0.238247	0.237287
H63	H	1.156793	-0.309256	0.397161
H64	H	1.157750	-0.396661	0.310340
H65	H	0.986889	-0.276784	0.362530
H66	H	0.987820	-0.364161	0.275695
H67	H	1.109692	-0.273586	0.185935
H68	H	1.108735	-0.186188	0.272765
H69	H	1.008920	-0.204863	0.203002
H70	H	1.669647	-1.078338	0.381669
H71	H	1.586329	-0.691742	1.079941
H72	H	1.105429	-0.464899	0.692122
C73	C	1.331736	-0.457308	1.090122
C74	C	1.257583	-0.532018	1.054262
C75	C	1.156646	-0.505154	1.092280
H76	H	1.332562	-0.456863	1.165538
H77	H	1.312733	-0.388853	1.064802
H78	H	1.276582	-0.600455	1.079587
H79	H	1.256725	-0.532474	0.978851
H80	H	1.137642	-0.436699	1.066959
H81	H	1.157482	-0.504709	1.167694
H82	H	1.106319	-0.555834	1.067946
H83	H	0.972144	-0.560522	0.333584
C84	C	1.744921	-0.568148	0.936562
C85	C	1.743591	-0.567934	0.825400
C86	C	1.844352	-0.595131	0.787153
H87	H	1.795590	-0.517990	0.961231
H88	H	1.763498	-0.636918	0.961341
H89	H	1.725027	-0.499174	0.800631
H90	H	1.692943	-0.618093	0.800702
H91	H	1.862929	-0.663901	0.811932
H92	H	1.895013	-0.544969	0.811829
H93	H	1.843460	-0.594998	0.711727
C94	C	1.483189	-0.305932	0.936638
C95	C	1.556773	-0.231421	0.974053
C96	C	1.529884	-0.130518	0.935970
H97	H	1.484041	-0.306468	0.861224
H98	H	1.414183	-0.287485	0.960859
H99	H	1.625761	-0.249863	0.949826
H100	H	1.555932	-0.230851	1.049462
H101	H	1.460878	-0.112071	0.960190
H102	H	1.530736	-0.131066	0.860556
H103	H	1.579800	-0.079949	0.961357
H104	H	1.406905	-0.945788	0.643949
H105	H	1.717406	-0.945451	0.561104
H106	H	1.586224	-1.078518	0.692178
C107	C	1.115593	-0.719241	0.456962
C108	C	1.226754	-0.717926	0.457206
C109	C	1.264981	-0.818672	0.429864
H110	H	1.090950	-0.769946	0.507038
H111	H	1.090772	-0.737760	0.388158
H112	H	1.251565	-0.699420	0.526000
H113	H	1.251425	-0.667243	0.407130
H114	H	1.240160	-0.837191	0.361060
H115	H	1.240331	-0.869369	0.479942
H116	H	1.340407	-0.817791	0.430016
C117	C	0.962408	-0.664533	0.663790
C118	C	0.998421	-0.765943	0.635907
C119	C	0.960607	-0.840168	0.709488
H120	H	0.987749	-0.646871	0.732616
H121	H	0.886978	-0.663766	0.663777
H122	H	1.073836	-0.766707	0.635932
H123	H	0.973084	-0.783638	0.567095
H124	H	0.885177	-0.839401	0.709475
H125	H	0.985950	-0.822496	0.778309
H126	H	0.985028	-0.908984	0.690574
H127	H	0.972276	-0.333597	0.561146
H128	H	1.669813	-0.381279	1.079632
