data_functionalizedCrystal
_audit_creation_method	'MofGen! by Chris Wilmer'
_symmetry_space_group_name_H-M	'P1'
_symmetry_Int_Tables_number	1
_symmetry_cell_setting	triclinic
loop_
_symmetry_equiv_pos_as_xyz
  x,y,z
_cell_length_a	10.686220
_cell_length_b	14.908178
_cell_length_c	10.686551
_cell_angle_alpha	82.564310
_cell_angle_beta	90.307919
_cell_angle_gamma	97.932411
loop_
_atom_site_label
_atom_site_type_symbol
_atom_site_fract_x
_atom_site_fract_y
_atom_site_fract_z
Zn1	Zn	1.953097	-0.221913	-0.545924
Zn2	Zn	1.922620	-0.386668	-0.323938
Zn3	Zn	1.725202	-0.245199	-0.350512
Zn4	Zn	1.729210	-0.384824	-0.549852
O5	O	1.832532	-0.309651	-0.442557
O6	O	2.125372	-0.234795	-0.503711
O7	O	1.882000	-0.378419	-0.151138
O8	O	1.766510	-0.114727	-0.385911
O9	O	2.102981	-0.355840	-0.340620
O10	O	1.933944	-0.097619	-0.529479
O11	O	1.736958	-0.274482	-0.170661
O12	O	1.549416	-0.272694	-0.389721
O13	O	1.773341	-0.352696	-0.725657
O14	O	1.552360	-0.375276	-0.536175
O15	O	1.937830	-0.233007	-0.722771
O16	O	1.885886	-0.513807	-0.344429
O17	O	1.743789	-0.512452	-0.510407
C18	C	1.505171	-0.326312	-0.466259
C19	C	1.365124	-0.333460	-0.476426
C20	C	1.812002	-0.546156	-0.424986
C21	C	1.803337	-0.647325	-0.417503
C22	C	1.961297	-0.819464	-0.553120
C23	C	1.953160	-0.914521	-0.546093
C24	C	1.778924	-0.932497	-0.396429
C25	C	1.787060	-0.837440	-0.403456
C26	C	1.878251	-0.780927	-0.481803
C27	C	1.886392	-0.685868	-0.488823
C28	C	1.712150	-0.703846	-0.339166
C29	C	1.704014	-0.798903	-0.332139
C30	C	2.161172	-0.292926	-0.418763
C31	C	2.301219	-0.285798	-0.408624
C32	C	1.859432	-0.290048	-0.771212
C33	C	1.870895	-0.281695	-0.911265
C34	C	1.853180	-0.072220	-0.460221
C35	C	1.861978	0.028959	-0.467749
C36	C	1.805815	-0.329108	-0.115180
C37	C	1.794618	-0.337193	0.024871
H38	H	1.312697	-0.379735	-0.542252
H39	H	1.644532	-0.672459	-0.281091
C40	C	1.372050	-0.223278	-0.319687
N41	N	1.425401	-0.176187	-0.252705
H42	H	1.960647	-0.639855	-0.552613
H43	H	2.035556	-0.773450	-0.616904
H44	H	2.020779	-0.945894	-0.604174
C45	C	1.678759	-0.994679	-0.310095
N46	N	1.603367	-1.041516	-0.245007
C47	C	1.694543	-0.410017	-0.904248
N48	N	1.619162	-0.464867	-0.850853
C49	C	1.970972	-0.208865	-0.982151
N50	N	2.046346	-0.154008	-1.035544
H51	H	1.629766	-0.844929	-0.268355
