data_functionalizedCrystal
_audit_creation_method	'MofGen! by Chris Wilmer'
_symmetry_space_group_name_H-M	'P1'
_symmetry_Int_Tables_number	1
_symmetry_cell_setting	triclinic
loop_
_symmetry_equiv_pos_as_xyz
  x,y,z
_cell_length_a	12.759395
_cell_length_b	16.120444
_cell_length_c	12.759387
_cell_angle_alpha	87.135681
_cell_angle_beta	90.020509
_cell_angle_gamma	92.928010
loop_
_atom_site_label
_atom_site_type_symbol
_atom_site_fract_x
_atom_site_fract_y
_atom_site_fract_z
Zn1	Zn	1.584980	-0.331830	0.615172
Zn2	Zn	1.575924	-0.471267	0.448387
Zn3	Zn	1.409275	-0.331875	0.439512
Zn4	Zn	1.400328	-0.471207	0.624022
O5	O	1.492627	-0.401545	0.531773
O6	O	1.730799	-0.350332	0.593058
O7	O	1.553773	-0.452820	0.300191
O8	O	1.440116	-0.215203	0.455395
O9	O	1.724146	-0.452776	0.470522
O10	O	1.569206	-0.215170	0.584452
O11	O	1.431336	-0.350409	0.293671
O12	O	1.261067	-0.350352	0.463977
O13	O	1.424868	-0.452675	0.769867
O14	O	1.254494	-0.452719	0.599536
O15	O	1.560530	-0.350274	0.763364
O16	O	1.545097	-0.587925	0.479104
O17	O	1.416087	-0.587881	0.608142
C18	C	1.219660	-0.401534	0.531755
C19	C	1.102882	-0.401550	0.531773
C20	C	1.096065	-0.508317	0.672724
C21	C	1.037795	-0.561707	0.743203
C22	C	0.928073	-0.561717	0.743217
C23	C	0.876618	-0.508330	0.672746
C24	C	0.934888	-0.454940	0.602267
C25	C	1.044613	-0.454937	0.602259
C26	C	0.941706	-0.348170	0.461322
C27	C	1.051428	-0.348163	0.461302
C28	C	0.890251	-0.294782	0.390851
C29	C	0.948521	-0.241395	0.320365
C30	C	1.058249	-0.241388	0.320354
C31	C	1.109697	-0.294773	0.390823
C32	C	1.478667	-0.618153	0.545569
C33	C	1.472792	-0.710819	0.551506
C34	C	1.523365	-0.921763	0.501201
C35	C	1.462083	-0.880475	0.562357
C36	C	1.468043	-0.786070	0.556318
C37	C	1.517406	-1.016177	0.507238
C38	C	1.766659	-0.401555	0.531793
C39	C	1.883436	-0.401560	0.531801
C40	C	1.492711	-0.401463	0.805802
C41	C	1.492747	-0.401428	0.922576
C42	C	1.506669	-0.184090	0.517947
C43	C	1.512653	-0.091424	0.512054
C44	C	1.492607	-0.401566	0.258807
C45	C	1.492789	-0.401366	0.142018
C46	C	1.634022	-0.294806	0.915826
C47	C	1.704674	-0.241482	0.967310
C48	C	1.704702	-0.241452	1.077030
C49	C	1.634067	-0.294749	1.135268
C50	C	1.563414	-0.348073	1.083783
C51	C	1.563397	-0.348099	0.974061
C52	C	1.422137	-0.454689	1.090533
C53	C	1.422113	-0.454725	0.980814
C54	C	1.351502	-0.507987	1.148771
C55	C	1.280853	-0.561316	1.097287
C56	C	1.280829	-0.561345	0.987560
C57	C	1.351460	-0.508049	0.929329
H58	H	1.405143	-0.916029	0.619250
H59	H	1.762227	-0.198026	1.118948
C60	C	1.600278	-0.873741	0.424336
C61	C	1.718984	-0.885507	0.433740
C62	C	1.795893	-0.837475	0.356873
C63	C	1.754096	-0.777676	0.270603
C64	C	1.635384	-0.765907	0.261196
C65	C	1.558475	-0.813939	0.338063
H66	H	1.749930	-0.929776	0.497605
H67	H	1.883772	-0.846187	0.363837
H68	H	1.811029	-0.742119	0.213702
H69	H	1.604438	-0.721638	0.197331
H70	H	1.470596	-0.805227	0.331098
H71	H	1.105687	-0.197905	0.262968
C72	C	1.782375	-0.182861	0.903249
C73	C	1.782358	-0.182893	0.782561
C74	C	1.860058	-0.124271	0.718504
C75	C	1.937774	-0.065618	0.775135
C76	C	1.937793	-0.065584	0.895830
C77	C	1.860094	-0.124206	0.959887
H78	H	1.724826	-0.226313	0.740633
H79	H	1.860043	-0.124297	0.629158
H80	H	1.995292	-0.022223	0.727717
H81	H	1.995326	-0.022164	0.937758
H82	H	1.860108	-0.124180	1.049233
C83	C	1.094396	-0.620431	0.820719
C84	C	1.215086	-0.620428	0.820711
C85	C	1.271682	-0.679149	0.898230
C86	C	1.207587	-0.737874	0.975757
C87	C	1.086890	-0.737879	0.975768
C88	C	1.030294	-0.679158	0.898249
H89	H	1.262539	-0.576954	0.763318
H90	H	1.361030	-0.679145	0.898221
H91	H	1.249483	-0.781343	1.033141
H92	H	1.039438	-0.781353	1.033161
H93	H	0.940946	-0.679162	0.898258
C94	C	1.203161	-0.619936	1.161347
C95	C	1.203183	-0.619898	1.282035
C96	C	1.125491	-0.678521	1.346099
C97	C	1.047778	-0.737181	1.289476
C98	C	1.047753	-0.737222	1.168782
C99	C	1.125445	-0.678599	1.104717
H100	H	1.260713	-0.576472	1.323956
H101	H	1.125509	-0.678491	1.435445
H102	H	0.990265	-0.780577	1.336901
H103	H	0.990223	-0.780648	1.126860
H104	H	1.125427	-0.678629	1.015371
H105	H	1.223284	-0.604758	0.945648
H106	H	1.185406	-0.508320	0.672713
C107	C	0.863969	-0.620445	0.820741
C108	C	0.872939	-0.715213	0.817995
C109	C	0.808834	-0.773940	0.895519
C110	C	0.735758	-0.737900	0.975789
C111	C	0.726784	-0.643128	0.978538
C112	C	0.790890	-0.584400	0.901015
H113	H	0.927037	-0.741896	0.758572
H114	H	0.815478	-0.844097	0.893483
H115	H	0.688304	-0.781373	1.033177
H116	H	0.672686	-0.616444	1.037962
H117	H	0.784246	-0.514244	0.903050
H118	H	0.787277	-0.508336	0.672772
H119	H	1.634016	-0.294833	0.826486
H120	H	0.800909	-0.294791	0.390871
H121	H	1.634087	-0.294712	1.224607
H122	H	0.906618	-0.197928	0.262998
H123	H	1.351526	-0.507955	1.238110
H124	H	1.351452	-0.508071	0.839989
H125	H	1.199038	-0.294774	0.390817
