data_functionalizedCrystal
_audit_creation_method	'MofGen! by Chris Wilmer'
_symmetry_space_group_name_H-M	'P1'
_symmetry_Int_Tables_number	1
_symmetry_cell_setting	triclinic
loop_
_symmetry_equiv_pos_as_xyz
  x,y,z
_cell_length_a	6.817900
_cell_length_b	11.102183
_cell_length_c	19.453114
_cell_angle_alpha	94.505332
_cell_angle_beta	101.709288
_cell_angle_gamma	108.603876
loop_
_atom_site_label
_atom_site_type_symbol
_atom_site_fract_x
_atom_site_fract_y
_atom_site_fract_z
V1	V	-4.033144	-0.177162	-0.218998
O2	O	-3.993679	0.007152	-0.214830
O3	O	-4.010446	-0.349972	-0.217499
O4	O	-3.975742	-0.175034	-0.314511
O5	O	-4.028624	-0.168998	-0.117147
V6	V	-4.514607	-0.155045	-0.206816
O7	O	-4.298919	-0.225676	-0.245720
O8	O	-4.699029	-0.106531	-0.180093
O9	O	-4.314098	0.017766	-0.208315
O10	O	-4.671469	-0.339359	-0.210983
O11	O	-4.636524	-0.163209	-0.308667
O12	O	-4.348802	-0.157173	-0.111303
C13	C	-3.861991	-0.392081	-0.214044
C14	C	-3.924660	-0.533360	-0.213455
C15	C	-3.817721	-0.168928	-0.337791
C16	C	-3.852243	-0.168332	-0.415874
C17	C	-3.850346	-0.496305	-0.084805
C18	C	-3.842627	-0.544150	-0.020206
C19	C	-3.901517	-0.676895	-0.019656
C20	C	-3.968138	-0.761800	-0.083713
C21	C	-3.975856	-0.713955	-0.148312
C22	C	-3.916955	-0.581205	-0.148854
C23	C	-4.050184	-0.751010	-0.276960
C24	C	-3.991281	-0.618265	-0.277511
C25	C	-4.116804	-0.835915	-0.341017
C26	C	-4.124510	-0.788070	-0.405617
C27	C	-4.065612	-0.655316	-0.406164
C28	C	-3.999000	-0.570420	-0.342110
C29	C	-4.051192	-0.174431	-0.456131
C30	C	-4.083629	-0.173871	-0.529497
C31	C	-3.917118	-0.167238	-0.562606
C32	C	-3.718138	-0.161131	-0.522339
C33	C	-3.685700	-0.161678	-0.448973
N34	N	-3.867358	-0.234355	-0.681395
N35	N	-3.898186	-0.233838	-0.751091
C36	C	-4.014839	-0.165586	-0.783655
N37	N	-4.099538	-0.097887	-0.743892
N38	N	-4.068715	-0.098410	-0.674191
C39	C	-3.952271	-0.166643	-0.642159
C40	C	-4.248972	-0.171076	-0.903465
C41	C	-4.281398	-0.170508	-0.976832
C42	C	-3.915907	-0.157780	-0.969673
C43	C	-3.883480	-0.158335	-0.896306
C44	C	-4.050023	-0.164990	-0.863207
C45	C	-4.125896	0.059868	-0.211768
C46	C	-4.042465	0.201145	-0.212361
C47	C	-4.170166	-0.163283	-0.088018
C48	C	-4.114882	-0.163872	-0.009935
H49	H	-3.788386	-0.475007	0.031948
C50	C	-4.197760	-0.881461	-0.476072
C51	C	-4.206220	-0.828843	-0.547131
C52	C	-4.279455	-0.922239	-0.617587
C53	C	-4.344231	-1.068254	-0.616984
C54	C	-4.335774	-1.120880	-0.545922
C55	C	-4.262538	-1.027483	-0.475467
H56	H	-4.158267	-0.720747	-0.547580
H57	H	-4.285716	-0.883281	-0.670191
H58	H	-4.398445	-1.137391	-0.669139
H59	H	-4.383726	-1.228976	-0.545474
H60	H	-4.256277	-1.066442	-0.422862
H61	H	-4.164766	-0.944002	-0.340565
H62	H	-3.802332	-0.388214	-0.085245
C63	C	-4.074107	-0.602692	-0.477226
C64	C	-3.938779	-0.630057	-0.526887
C65	C	-3.947277	-0.577438	-0.597950
C66	C	-4.091102	-0.497454	-0.619352
C67	C	-4.226441	-0.470085	-0.569690
C68	C	-4.217943	-0.522704	-0.498627
H69	H	-3.832301	-0.689269	-0.511045
H70	H	-3.847089	-0.597699	-0.634713
H71	H	-4.097393	-0.458502	-0.671957
H72	H	-4.332919	-0.410872	-0.585532
H73	H	-4.318130	-0.502443	-0.461864
H74	H	-3.895237	-0.715849	0.032946
H75	H	-4.016111	-0.869887	-0.083260
H76	H	-3.951008	-0.462329	-0.342549
H77	H	-4.186806	-0.179845	-0.429186
H78	H	-4.245646	-0.178845	-0.562282
H79	H	-3.582563	-0.155725	-0.549301
H80	H	-3.523684	-0.156701	-0.416195
H81	H	-4.384579	-0.176490	-0.876513
H82	H	-3.721482	-0.153382	-0.863529
H83	H	-4.443406	-0.175466	-1.009608
H84	H	-3.780324	-0.152367	-0.996629
