data_functionalizedCrystal
_audit_creation_method	'MofGen! by Chris Wilmer'
_symmetry_space_group_name_H-M	'P1'
_symmetry_Int_Tables_number	1
_symmetry_cell_setting	triclinic
loop_
_symmetry_equiv_pos_as_xyz
  x,y,z
_cell_length_a	15.297476
_cell_length_b	15.297327
_cell_length_c	12.759393
_cell_angle_alpha	80.357027
_cell_angle_beta	99.689056
_cell_angle_gamma	91.626159
loop_
_atom_site_label
_atom_site_type_symbol
_atom_site_fract_x
_atom_site_fract_y
_atom_site_fract_z
Zn1	Zn	1.278734	-0.580719	0.968302
Zn2	Zn	1.778734	-0.080719	1.468302
Zn3	Zn	1.253262	-0.727190	0.816991
Zn4	Zn	1.753262	-0.227190	1.316991
Zn5	Zn	1.132244	-0.555377	0.758053
Zn6	Zn	1.632244	-0.055377	1.258053
Zn7	Zn	1.106875	-0.701754	0.958046
Zn8	Zn	1.606875	-0.201754	1.458046
O9	O	1.192779	-0.641260	0.875348
O10	O	1.692779	-0.141260	1.375348
O11	O	1.397924	-0.621400	0.977188
O12	O	1.897924	-0.121400	1.477188
O13	O	1.237166	-0.704438	0.662151
O14	O	1.737166	-0.204438	1.162151
O15	O	1.172953	-0.436181	0.765569
O16	O	1.672953	0.063819	1.265569
O17	O	1.379210	-0.729011	0.866020
O18	O	1.879210	-0.229011	1.366020
O19	O	1.280578	-0.454800	0.920038
O20	O	1.780578	0.045200	1.420038
O21	O	1.148255	-0.578207	0.618850
O22	O	1.648255	-0.078207	1.118850
O23	O	1.006310	-0.553543	0.755625
O24	O	1.506310	-0.053543	1.255625
O25	O	1.129716	-0.685660	1.106429
O26	O	1.629716	-0.185660	1.606429
O27	O	0.987671	-0.661086	0.902559
O28	O	1.487671	-0.161086	1.402559
O29	O	1.255979	-0.596736	1.113963
O30	O	1.755979	-0.096736	1.613963
O31	O	1.212567	-0.846374	0.856076
O32	O	1.712567	-0.346374	1.356076
O33	O	1.105017	-0.827687	0.959709
O34	O	1.605017	-0.327687	1.459709
C35	C	0.965209	-0.601805	0.821585
C36	C	1.465209	-0.101805	1.321585
C37	C	0.867850	-0.584948	0.798613
C38	C	1.367850	-0.084948	1.298613
C39	C	0.831809	-0.520940	0.711406
C40	C	1.331809	-0.020940	1.211406
C41	C	0.740336	-0.505099	0.689820
C42	C	1.240336	-0.005099	1.189820
C43	C	0.684896	-0.553260	0.755444
C44	C	1.184896	-0.053260	1.255444
C45	C	0.720937	-0.617265	0.842657
C46	C	1.220937	-0.117265	1.342657
C47	C	0.812419	-0.633112	0.864240
C48	C	1.312419	-0.133112	1.364240
C49	C	0.665505	-0.665432	0.908278
C50	C	1.165505	-0.165432	1.408278
C51	C	0.701547	-0.729437	0.995492
C52	C	1.201547	-0.229437	1.495492
C53	C	0.793019	-0.745281	1.017071
C54	C	1.293019	-0.245281	1.517071
C55	C	0.848460	-0.697120	0.951447
C56	C	1.348460	-0.197120	1.451447
C57	C	0.574024	-0.649585	0.886695
C58	C	1.074024	-0.149585	1.386695
C59	C	0.554633	-0.761757	1.039530
C60	C	1.054633	-0.261757	1.539530
C61	C	0.646106	-0.777598	1.061116
C62	C	1.146106	-0.277598	1.561116
C63	C	1.153299	-0.868812	0.913204
C64	C	1.653299	-0.368812	1.413204
C65	C	1.136489	-0.966174	0.929453
C66	C	1.636489	-0.466174	1.429453
C67	C	1.313281	-1.279447	0.759659
C68	C	1.813281	-0.779447	1.259659
C69	C	1.329074	-1.187971	0.744387
C70	C	1.829074	-0.687971	1.244387
C71	C	1.280930	-1.132517	0.790652
C72	C	1.780930	-0.632517	1.290652
C73	C	1.216989	-1.168548	0.852192
C74	C	1.716989	-0.668548	1.352192
C75	C	1.201189	-1.260033	0.867458
C76	C	1.701189	-0.760033	1.367458
C77	C	1.168838	-1.113103	0.898452
C78	C	1.668838	-0.613103	1.398452
C79	C	1.104897	-1.149134	0.959991
C80	C	1.604897	-0.649134	1.459991
C81	C	1.089100	-1.240610	0.975256
C82	C	1.589100	-0.740610	1.475256
C83	C	1.137245	-1.296064	0.928990
C84	C	1.637245	-0.796064	1.428990
C85	C	1.184637	-1.021619	0.883185
C86	C	1.684637	-0.521619	1.383185
C87	C	1.072545	-1.002205	0.990985
C88	C	1.572545	-0.502205	1.490985
C89	C	1.056752	-1.093681	1.006257
C90	C	1.556752	-0.593681	1.506257
C91	C	1.421237	-0.680870	0.929322
C92	C	1.921237	-0.180870	1.429322
C93	C	1.518592	-0.697749	0.952323
C94	C	2.018592	-0.197749	1.452323
C95	C	1.192859	-0.641187	1.149383
C96	C	1.692859	-0.141187	1.649383
C97	C	1.192893	-0.641156	1.266160
C98	C	1.692893	-0.141156	1.766160
C99	C	1.232437	-0.412824	0.837373
C100	C	1.732437	0.087176	1.337373
C101	C	1.249337	-0.315478	0.821191
C102	C	1.749337	0.184522	1.321191
C103	C	1.192760	-0.641278	0.602381
C104	C	1.692760	-0.141278	1.102381
C105	C	1.192939	-0.641092	0.485603
C106	C	1.692939	-0.141092	0.985603
C107	C	1.258644	-0.594845	1.324947
C108	C	1.758644	-0.094845	1.824947
C109	C	1.258666	-0.594810	1.434668
C110	C	1.758666	-0.094810	1.934668
C111	C	1.127181	-0.687404	1.426808
C112	C	1.627181	-0.187404	1.926808
C113	C	1.127157	-0.687434	1.317087
C114	C	1.627157	-0.187434	1.817087
H115	H	0.922946	-0.710013	0.969019
H116	H	1.422946	-0.210013	1.469019
H117	H	1.312206	-0.557098	1.482527
H118	H	1.812206	-0.057098	1.982527
H119	H	0.822360	-0.797405	1.088078
H120	H	1.322360	-0.297405	1.588078
Cl121	Cl	1.044550	-0.745583	1.490839
Cl122	Cl	1.544550	-0.245583	1.990839
Cl123	Cl	0.691426	-0.858064	1.170746
Cl124	Cl	1.191426	-0.358064	1.670746
Cl125	Cl	0.569900	-0.533340	0.728310
Cl126	Cl	1.069900	-0.033340	1.228310
Cl127	Cl	1.409462	-1.142682	0.667038
Cl128	Cl	1.909462	-0.642682	1.167038
Cl129	Cl	1.044487	-0.745652	1.243176
Cl130	Cl	1.544487	-0.245652	1.743176
Cl131	Cl	1.012011	-0.932497	1.049142
Cl132	Cl	1.512011	-0.432497	1.549142
H133	H	0.544689	-0.597469	0.815688
H134	H	1.044689	-0.097469	1.315688
H135	H	1.236698	-0.992290	0.833079
H136	H	1.736698	-0.492290	1.333079
H137	H	0.876956	-0.481739	0.657979
H138	H	1.376956	0.018261	1.157979
H139	H	1.004690	-1.123031	1.056363
H140	H	1.504690	-0.623031	1.556363
H141	H	1.312169	-0.557161	1.283485
H142	H	1.812169	-0.057161	1.783485
H143	H	0.710997	-0.452990	0.618806
H144	H	1.210997	0.047010	1.118806
Cl145	Cl	0.484943	-0.822305	1.122034
Cl146	Cl	0.984943	-0.322305	1.622034
Cl147	Cl	1.373795	-1.349161	0.701502
Cl148	Cl	1.873795	-0.849161	1.201502
Cl149	Cl	1.301025	-1.017559	0.771796
Cl150	Cl	1.801025	-0.517559	1.271796
H151	H	1.037025	-1.269942	1.025351
H152	H	1.537025	-0.769942	1.525351
Cl153	Cl	1.117038	-1.411005	0.947676
Cl154	Cl	1.617038	-0.911005	1.447676
