data_functionalizedCrystal
_audit_creation_method	'MofGen! by Chris Wilmer'
_symmetry_space_group_name_H-M	'P1'
_symmetry_Int_Tables_number	1
_symmetry_cell_setting	triclinic
loop_
_symmetry_equiv_pos_as_xyz
  x,y,z
_cell_length_a	10.540539
_cell_length_b	10.540539
_cell_length_c	9.730217
_cell_angle_alpha	89.998866
_cell_angle_beta	90.000643
_cell_angle_gamma	84.525492
loop_
_atom_site_label
_atom_site_type_symbol
_atom_site_fract_x
_atom_site_fract_y
_atom_site_fract_z
O1	O	1.685882	0.178898	-0.114218
O2	O	1.316469	0.195754	-0.114234
O3	O	1.509603	0.002620	-0.114224
O4	O	1.492747	0.372033	-0.114228
O5	O	1.509597	0.002618	0.114356
O6	O	1.316463	0.195752	0.114346
O7	O	1.685876	0.178896	0.114362
Zn8	Zn	1.501168	0.187324	0.150646
Zn9	Zn	1.501176	0.187326	-0.150518
O10	O	1.492741	0.372031	0.114352
C11	C	1.269163	0.194489	0.000053
C12	C	1.128215	0.190707	0.000047
C13	C	0.944788	0.045790	0.000582
C14	C	1.091406	0.049624	0.000053
C15	C	1.066546	0.258604	-0.130479
C16	C	0.920001	0.253789	-0.130574
C17	C	0.919506	0.256657	0.129364
C18	C	1.066488	0.257956	0.131075
C19	C	1.508336	-0.044684	0.000063
C20	C	1.504554	-0.185632	0.000056
C21	C	1.359637	-0.369059	-0.000464
C22	C	1.363471	-0.222441	0.000051
C23	C	1.572446	-0.247291	0.130589
C24	C	1.567631	-0.393835	0.130699
C25	C	1.570508	-0.394352	-0.129239
C26	C	1.571807	-0.247370	-0.130965
C27	C	1.733182	0.180161	0.000071
C28	C	1.874130	0.183943	0.000068
C29	C	1.494008	0.419335	0.000061
C30	C	1.497790	0.560283	0.000060
N31	N	1.501172	0.187322	0.356182
N32	N	1.501182	0.187319	-0.356055
C33	C	1.672263	0.016352	0.356182
C34	C	1.757817	-0.069130	0.428122
C35	C	1.757830	-0.069131	0.572002
C36	C	1.672277	0.016357	0.643945
C37	C	1.586723	0.101838	0.572005
C38	C	1.586722	0.101832	0.428122
C39	C	1.415628	0.272800	0.572006
C40	C	1.415619	0.272809	0.428126
C41	C	1.330075	0.358288	0.643949
C42	C	1.244525	0.443777	0.572009
C43	C	1.244517	0.443775	0.428121
C44	C	1.330065	0.358291	0.356186
H45	H	0.872279	0.358560	0.130245
C46	C	1.851932	-0.163156	0.651145
H47	H	1.839675	-0.150914	0.747137
H48	H	1.936774	-0.148550	0.627563
H49	H	1.837379	-0.248022	0.627575
H50	H	0.891793	0.203609	-0.228143
C51	C	0.906162	-0.029509	0.127033
H52	H	0.846591	0.022625	0.180646
H53	H	0.979588	-0.054363	0.180775
H54	H	0.868448	-0.103239	0.097686
H55	H	1.827472	-0.138736	0.369533
H56	H	1.522131	-0.206511	-0.227530
C57	C	1.672271	0.016343	0.802208
H58	H	1.609063	0.079489	0.834751
H59	H	1.753555	0.034499	0.834770
H60	H	1.654161	-0.064973	0.834742
H61	H	1.107448	0.208355	0.227638
H62	H	1.174844	0.513380	0.369555
C63	C	1.704693	-0.458643	0.138731
H64	H	1.763067	-0.395375	0.141924
H65	H	1.721736	-0.510818	0.060026
H66	H	1.713838	-0.509700	0.219230
H67	H	1.672412	-0.441578	-0.130112
C68	C	1.148978	-0.022545	0.126450
H69	H	1.082763	-0.054482	0.178580
H70	H	1.192375	0.033793	0.181664
H71	H	1.207296	-0.091495	0.097077
H72	H	1.304130	-0.399267	0.092615
H73	H	1.330071	0.358286	0.239031
C74	C	0.876890	0.194980	0.263022
H75	H	0.831023	0.124297	0.241217
H76	H	0.823664	0.255750	0.313982
H77	H	0.949700	0.166813	0.316311
C78	C	1.712407	-0.217089	0.137167
H79	H	1.730721	-0.166481	0.060183
H80	H	1.766747	-0.294348	0.135962
H81	H	1.726091	-0.171777	0.219413
H82	H	0.914583	-0.009709	-0.092503
C83	C	1.330091	0.358291	0.802212
H84	H	1.393304	0.295148	0.834756
H85	H	1.248809	0.340126	0.834774
H86	H	1.348195	0.439607	0.834746
H87	H	1.310050	-0.179837	-0.093521
C88	C	1.147811	-0.023037	-0.126571
H89	H	1.081102	-0.055005	-0.177895
H90	H	1.206269	-0.091972	-0.097471
H91	H	1.190845	0.033055	-0.182488
H92	H	1.174869	0.513369	0.630594
C93	C	1.499830	-0.431944	0.262495
H94	H	1.496300	-0.521663	0.263727
H95	H	1.415749	-0.390561	0.264518
H96	H	1.545632	-0.407130	0.340557
C97	C	0.855193	0.390850	-0.138615
H98	H	0.918460	0.449223	-0.141819
H99	H	0.803018	0.407901	-0.059910
H100	H	0.804135	0.399985	-0.219113
H101	H	1.088898	0.362211	-0.135337
C102	C	1.124066	0.194888	-0.261709
H103	H	1.185646	0.126919	-0.237234
H104	H	1.163633	0.255871	-0.314525
H105	H	1.058395	0.162537	-0.314319
H106	H	1.525280	-0.204692	0.227724
H107	H	1.090714	0.360815	0.138955
C108	C	1.508825	-0.436964	-0.262894
H109	H	1.438138	-0.482824	-0.241086
H110	H	1.569588	-0.490192	-0.313860
H111	H	1.480662	-0.364149	-0.316179
H112	H	1.303908	-0.397658	-0.094072
H113	H	1.309670	-0.180686	0.093774
C114	C	1.710766	-0.214660	-0.141610
H115	H	1.729673	-0.162700	-0.065945
H116	H	1.721926	-0.170072	-0.224920
H117	H	1.766436	-0.291042	-0.140498
H118	H	1.672272	0.016354	0.239028
