data_functionalizedCrystal
_audit_creation_method	'MofGen! by Chris Wilmer'
_symmetry_space_group_name_H-M	'P1'
_symmetry_Int_Tables_number	1
_symmetry_cell_setting	triclinic
loop_
_symmetry_equiv_pos_as_xyz
  x,y,z
_cell_length_a	15.995350
_cell_length_b	10.654550
_cell_length_c	9.730223
_cell_angle_alpha	89.998380
_cell_angle_beta	90.000651
_cell_angle_gamma	83.988639
loop_
_atom_site_label
_atom_site_type_symbol
_atom_site_fract_x
_atom_site_fract_y
_atom_site_fract_z
O1	O	-1.111924	-0.161870	0.114170
O2	O	-0.868265	-0.181859	0.114198
O3	O	-0.995697	0.010948	0.114178
O4	O	-0.984492	-0.354677	0.114190
O5	O	-0.995689	0.010947	-0.114402
O6	O	-0.868257	-0.181860	-0.114382
O7	O	-1.111916	-0.161870	-0.114410
Zn8	Zn	-0.990085	-0.171865	-0.150688
Zn9	Zn	-0.990096	-0.171864	0.150476
O10	O	-0.984484	-0.354677	-0.114390
C11	C	-0.837061	-0.181033	-0.000089
C12	C	-0.744096	-0.178555	-0.000078
C13	C	-0.994870	0.057735	-0.000110
C14	C	-0.992409	0.197146	-0.000105
C15	C	-1.143119	-0.162696	-0.000121
C16	C	-1.236084	-0.165174	-0.000122
C17	C	-0.406297	-0.169658	-0.000107
C18	C	-0.452934	-0.032344	-0.000621
C19	C	-0.549639	-0.034822	-0.000096
C20	C	-0.573883	-0.174071	-0.000093
C21	C	-0.533194	-0.241799	0.130434
C22	C	-0.436538	-0.238349	0.130533
C23	C	-0.436207	-0.241187	-0.129405
C24	C	-0.533152	-0.241154	-0.131120
C25	C	-0.668595	-0.176573	-0.000081
C26	C	-0.311585	-0.167161	-0.000110
N27	N	-0.990084	-0.171865	-0.356225
C28	C	-0.985311	-0.401464	-0.000099
C29	C	-0.987772	-0.540875	-0.000095
C30	C	-1.067438	0.277612	-0.000118
C31	C	-1.065121	0.408603	-0.000108
C32	C	-0.912737	0.378648	-0.000078
C33	C	-0.915055	0.247660	-0.000078
C34	C	-1.155416	0.294907	-0.000141
C35	C	-1.153098	0.425897	-0.000131
C36	C	-1.046536	-0.086510	-0.572043
C37	C	-1.046529	-0.086518	-0.428160
C38	C	-0.933649	-0.257218	-0.428179
C39	C	-0.933661	-0.257215	-0.572060
C40	C	-1.111704	0.012046	-0.572031
C41	C	-1.111697	0.012038	-0.428148
N42	N	-0.990103	-0.171854	0.356012
H43	H	-0.577755	0.018415	-0.093664
O44	O	-1.192228	-0.027402	-0.369024
H45	H	-1.177752	-0.113051	-0.304850
O46	O	-0.872755	-0.349258	-0.350602
H47	H	-0.882219	-0.334913	-0.238465
H48	H	-0.887716	-0.326720	-0.630636
H49	H	-1.189831	0.265999	0.095509
O50	O	-1.196931	-0.015344	-0.623755
H51	H	-1.238646	-0.028769	-0.534971
H52	H	-1.091358	0.102991	-0.616665
H53	H	-0.417947	-0.188959	0.228103
H54	H	-0.434090	0.022543	-0.094227
H55	H	-0.404875	-0.339162	0.136459
H56	H	-1.097391	0.108382	-0.389103
H57	H	-0.547913	-0.344101	0.135289
O58	O	-0.554285	-0.375662	-0.141583
H59	H	-0.594321	-0.396900	-0.053155
H60	H	-1.179690	0.471888	0.098560
O61	O	-0.426562	0.040047	0.122666
H62	H	-0.380386	-0.021348	0.184309
H63	H	-0.577188	0.018775	0.093631
H64	H	-0.415407	-0.196296	-0.228341
O65	O	-0.570405	-0.179481	0.259113
H66	H	-0.639238	-0.185666	0.260615
O67	O	-0.568946	-0.175678	-0.259041
H68	H	-0.615554	-0.095692	-0.229441
O69	O	-0.394908	-0.375286	-0.130599
H70	H	-0.353277	-0.390976	-0.039603
H71	H	-1.186244	0.468090	-0.095793
O72	O	-0.834128	0.160876	-0.000067
H73	H	-0.797152	0.178842	0.093101
O74	O	-0.829307	0.433130	-0.000071
H75	H	-0.840298	0.537733	-0.000083
H76	H	-1.183428	0.259646	-0.098840
