data_functionalizedCrystal
_audit_creation_method	'MofGen! by Chris Wilmer'
_symmetry_space_group_name_H-M	'P1'
_symmetry_Int_Tables_number	1
_symmetry_cell_setting	triclinic
loop_
_symmetry_equiv_pos_as_xyz
  x,y,z
_cell_length_a	17.639929
_cell_length_b	12.759395
_cell_length_c	12.759387
_cell_angle_alpha	90.019071
_cell_angle_beta	78.762190
_cell_angle_gamma	101.195457
loop_
_atom_site_label
_atom_site_type_symbol
_atom_site_fract_x
_atom_site_fract_y
_atom_site_fract_z
Zn1	Zn	-0.314608	-1.690792	-0.509492
Zn2	Zn	-0.446806	-1.726210	-0.298301
Zn3	Zn	-0.314650	-1.515106	-0.333818
Zn4	Zn	-0.446751	-1.550591	-0.473955
O5	O	-0.380704	-1.620675	-0.403891
O6	O	-0.332150	-1.842513	-0.481486
O7	O	-0.429316	-1.698179	-0.155980
O8	O	-0.204034	-1.508738	-0.386858
O9	O	-0.429275	-1.868534	-0.326324
O10	O	-0.204003	-1.637814	-0.515926
O11	O	-0.332222	-1.543081	-0.182074
O12	O	-0.332168	-1.372790	-0.352399
O13	O	-0.429181	-1.569216	-0.625701
O14	O	-0.429222	-1.398861	-0.455357
O15	O	-0.332096	-1.672222	-0.651810
O16	O	-0.557409	-1.732587	-0.291865
O17	O	-0.557368	-1.603560	-0.420917
C18	C	-0.380694	-1.347705	-0.403876
C19	C	-0.380709	-1.230932	-0.403889
C20	C	-0.586068	-1.675796	-0.348703
C21	C	-0.673924	-1.699473	-0.325129
C22	C	-0.797748	-1.800064	-0.224780
C23	C	-0.715194	-1.777808	-0.246939
C24	C	-0.715199	-1.643367	-0.381194
C25	C	-0.797755	-1.665616	-0.359049
C26	C	-0.839023	-1.743965	-0.280840
C27	C	-0.839029	-1.609516	-0.415109
C28	C	-0.921578	-1.631760	-0.392962
C29	C	-0.962852	-1.710103	-0.314755
C30	C	-0.921571	-1.766208	-0.258693
C31	C	-0.797760	-1.531162	-0.493313
C32	C	-0.839034	-1.475063	-0.549373
C33	C	-0.921584	-1.497311	-0.527232
C34	C	-0.962858	-1.575654	-0.449024
C35	C	-0.962864	-1.441206	-0.583293
C36	C	-1.045413	-1.463449	-0.561146
C37	C	-1.045406	-1.597898	-0.426877
C38	C	-0.380627	-1.620727	-0.677945
C39	C	-0.380595	-1.620749	-0.794731
C40	C	-0.174537	-1.565367	-0.459318
C41	C	-0.086681	-1.541798	-0.482938
C42	C	-0.380714	-1.894711	-0.403907
C43	C	-0.380718	-2.011489	-0.403914
C44	C	-0.481935	-1.258161	-0.510838
C45	C	-0.532554	-1.216917	-0.564313
C46	C	-0.532563	-1.107198	-0.564324
C47	C	-0.481947	-1.038719	-0.510855
C48	C	-0.431328	-1.079963	-0.457380
C49	C	-0.431325	-1.189687	-0.457372
C50	C	-0.330099	-1.052733	-0.350439
C51	C	-0.330092	-1.162453	-0.350421
C52	C	-0.279483	-0.984254	-0.296970
C53	C	-0.228866	-1.025499	-0.243487
C54	C	-0.228860	-1.135225	-0.243478
C55	C	-0.279473	-1.203697	-0.296945
C56	C	-0.279445	-1.728060	-1.041377
C57	C	-0.228913	-1.781680	-1.000105
C58	C	-0.228939	-1.781657	-0.890376
C59	C	-0.279504	-1.728012	-0.821915
C60	C	-0.330036	-1.674391	-0.863188
C61	C	-0.330003	-1.674417	-0.972921
C62	C	-0.431127	-1.567129	-0.836003
C63	C	-0.431098	-1.567144	-0.945733
C64	C	-0.481693	-1.513483	-0.767542
C65	C	-0.532222	-1.459855	-0.808815
C66	C	-0.532193	-1.459879	-0.918551
C67	C	-0.481630	-1.513524	-0.987005
C68	C	-0.380723	-1.620668	-0.130919
C69	C	-0.380532	-1.620789	-0.014194
H70	H	-1.079009	-1.661707	-0.363202
C71	C	-0.279496	-0.863567	-0.296975
H72	H	-0.316897	-0.848810	-0.336470
H73	H	-0.228509	-0.825058	-0.328963
H74	H	-0.293105	-0.842380	-0.225483
H75	H	-0.681589	-1.579572	-0.444869
H76	H	-1.079019	-1.417777	-0.606806
C77	C	-1.053653	-1.734576	-0.290386
H78	H	-1.072318	-1.789266	-0.235775
H79	H	-1.072279	-1.757728	-0.353201
H80	H	-1.072381	-1.671830	-0.267128
H81	H	-0.955174	-1.830018	-0.195018
H82	H	-0.279408	-1.728068	-1.130728
C83	C	-0.588207	-1.061817	-0.623200
H84	H	-0.618344	-1.118308	-0.655055
H85	H	-0.557985	-1.010942	-0.677153
H86	H	-0.622625	-1.028216	-0.573720
C87	C	-0.843148	-1.886249	-0.138754
H88	H	-0.806746	-1.916476	-0.108532
H89	H	-0.875301	-1.940664	-0.170357
H90	H	-0.875400	-1.854765	-0.084286
H91	H	-0.481597	-1.513540	-1.076355
H92	H	-0.681593	-1.823497	-0.201280
H93	H	-0.805424	-1.411268	-0.613048
H94	H	-0.187655	-0.969735	-0.199963
H95	H	-0.730543	-1.513045	-0.511332
C96	C	-0.173177	-1.180590	-0.184658
H97	H	-0.180415	-1.255742	-0.192312
H98	H	-0.184673	-1.165661	-0.110953
H99	H	-0.120083	-1.148361	-0.214439
C100	C	-0.917463	-1.355025	-0.669313
H101	H	-0.862389	-1.349815	-0.674476
H102	H	-0.931049	-1.288104	-0.650237
H103	H	-0.930936	-1.374004	-0.736308
C104	C	-0.481954	-0.918031	-0.510873
H105	H	-0.519351	-0.903275	-0.550376
H106	H	-0.430965	-0.879530	-0.542859
H107	H	-0.495567	-0.896834	-0.439385
C108	C	-0.279466	-1.324385	-0.296934
H109	H	-0.242074	-1.339146	-0.257424
H110	H	-0.265864	-1.345584	-0.368418
H111	H	-0.330457	-1.362885	-0.264934
H112	H	-0.187793	-1.825322	-0.856773
C113	C	-0.173290	-1.840679	-1.075413
H114	H	-0.180503	-1.833006	-1.146677
H115	H	-0.184862	-1.914370	-1.054326
H116	H	-0.120185	-1.811041	-1.071706
C117	C	-0.481923	-1.378849	-0.510834
H118	H	-0.519311	-1.413723	-0.550343
H119	H	-0.495519	-1.407300	-0.439350
H120	H	-0.430927	-1.389979	-0.542834
C121	C	-0.279537	-1.727994	-0.701216
H122	H	-0.242199	-1.767609	-0.686441
H123	H	-0.330553	-1.759835	-0.662680
H124	H	-0.265863	-1.656518	-0.680067
H125	H	-0.573763	-1.272684	-0.607848
H126	H	-0.481714	-1.513474	-0.678195
C127	C	-0.587779	-1.400895	-0.963942
H128	H	-0.617891	-1.368940	-0.907453
H129	H	-0.622209	-1.450328	-0.997493
H130	H	-0.557524	-1.347007	-1.014872
H131	H	-0.573392	-1.416187	-0.753066
