data_functionalizedCrystal
_audit_creation_method	'MofGen! by Chris Wilmer'
_symmetry_space_group_name_H-M	'P1'
_symmetry_Int_Tables_number	1
_symmetry_cell_setting	triclinic
loop_
_symmetry_equiv_pos_as_xyz
  x,y,z
_cell_length_a	12.759399
_cell_length_b	12.759401
_cell_length_c	12.759393
_cell_angle_alpha	90.020120
_cell_angle_beta	90.028437
_cell_angle_gamma	90.011575
loop_
_atom_site_label
_atom_site_type_symbol
_atom_site_fract_x
_atom_site_fract_y
_atom_site_fract_z
Zn1	Zn	0.418317	-1.606249	-0.594050
Zn2	Zn	0.594036	-1.606140	-0.418379
Zn3	Zn	0.418359	-1.430551	-0.418384
Zn4	Zn	0.593942	-1.430537	-0.594016
O5	O	0.506164	-1.518369	-0.506207
O6	O	0.441648	-1.753255	-0.570759
O7	O	0.570789	-1.582809	-0.271359
O8	O	0.271333	-1.453909	-0.441703
O9	O	0.570748	-1.753176	-0.441695
O10	O	0.271302	-1.582993	-0.570763
O11	O	0.441720	-1.453804	-0.271362
O12	O	0.441629	-1.283528	-0.441670
O13	O	0.570589	-1.453885	-0.741041
O14	O	0.570629	-1.283517	-0.570706
O15	O	0.441557	-1.582980	-0.741066
O16	O	0.741045	-1.582795	-0.441662
O17	O	0.740976	-1.453780	-0.570701
C18	C	0.506125	-1.245402	-0.506185
C19	C	0.506133	-1.128625	-0.506201
C20	C	0.779131	-1.518302	-0.506200
C21	C	0.895908	-1.518370	-0.506232
C22	C	0.439035	-1.073798	-0.573507
C23	C	0.439049	-0.964074	-0.573511
C24	C	0.573269	-0.964014	-0.438899
C25	C	0.573249	-1.073736	-0.438891
C26	C	0.361547	-1.073831	-0.651228
C27	C	0.361561	-0.964107	-0.651231
C28	C	0.950771	-1.585622	-0.439119
C29	C	1.060495	-1.585685	-0.439157
C30	C	1.060483	-1.451235	-0.573426
C31	C	0.950761	-1.451178	-0.573392
C32	C	0.950778	-1.663242	-0.361597
C33	C	1.060502	-1.663305	-0.361635
C34	C	1.232131	-1.518461	-0.506251
C35	C	1.115354	-1.518489	-0.506305
C36	C	0.506191	-0.792402	-0.506223
C37	C	0.506168	-0.909179	-0.506212
C38	C	0.506058	-1.518443	-0.780241
C39	C	0.506013	-1.518474	-0.897017
C40	C	0.438820	-1.585703	-0.951894
C41	C	0.438782	-1.585728	-1.061618
C42	C	0.573139	-1.451292	-1.061579
C43	C	0.573171	-1.451263	-0.951857
C44	C	0.361253	-1.663322	-0.951917
C45	C	0.361215	-1.663347	-1.061642
C46	C	0.506194	-1.518356	-0.233240
C47	C	0.505943	-1.518528	-0.116464
H48	H	0.627877	-1.118373	-0.384073
H49	H	0.906093	-1.396426	-0.628050
H50	H	0.627882	-1.396515	-0.907181
H51	H	0.627814	-1.396569	-1.106243
H52	H	1.105158	-1.396530	-0.628105
Br53	Br	0.225643	-1.627044	-0.902303
Br54	Br	0.409876	-1.792110	-0.895184
H55	H	1.094453	-1.740609	-0.390851
H56	H	1.090363	-1.641567	-0.280256
H57	H	0.627912	-0.919310	-0.384097
Br58	Br	0.225876	-1.123457	-0.615138
H59	H	0.283904	-1.634234	-1.095684
Br60	Br	0.410277	-1.130619	-0.779961
Br61	Br	0.397526	-1.798968	-1.111290
H62	H	0.383455	-0.934362	-0.732568
Br63	Br	0.232682	-0.907359	-0.602882
H64	H	0.920926	-1.744586	-0.383449
H65	H	0.916829	-1.634118	-0.284268
