data_functionalizedCrystal
_audit_creation_method	'MofGen! by Chris Wilmer'
_symmetry_space_group_name_H-M	'P1'
_symmetry_Int_Tables_number	1
_symmetry_cell_setting	triclinic
loop_
_symmetry_equiv_pos_as_xyz
  x,y,z
_cell_length_a	10.723024
_cell_length_b	14.971486
_cell_length_c	13.448316
_cell_angle_alpha	90.006811
_cell_angle_beta	90.006438
_cell_angle_gamma	84.040999
loop_
_atom_site_label
_atom_site_type_symbol
_atom_site_fract_x
_atom_site_fract_y
_atom_site_fract_z
O1	O	-1.655881	-0.125456	-0.082686
O2	O	-1.155881	0.374544	0.417314
O3	O	-1.292603	-0.137464	-0.082689
O4	O	-0.792603	0.362536	0.417311
O5	O	-1.483979	-0.001312	-0.082681
O6	O	-0.983979	0.498688	0.417319
O7	O	-1.464505	-0.261608	-0.082695
O8	O	-0.964505	0.238392	0.417305
O9	O	-1.483955	-0.001304	0.082703
O10	O	-0.983955	0.498696	0.582703
O11	O	-1.292579	-0.137455	0.082694
O12	O	-0.792579	0.362545	0.582694
O13	O	-1.655857	-0.125447	0.082698
O14	O	-1.155857	0.374553	0.582698
Cu15	Cu	-1.474216	-0.131451	0.097797
Cu16	Cu	-0.974216	0.368549	0.597797
Cu17	Cu	-1.474244	-0.131461	-0.097789
Cu18	Cu	-0.974244	0.368539	0.402211
O19	O	-1.464481	-0.261599	0.082689
O20	O	-0.964481	0.238401	0.582689
C21	C	-1.246101	-0.136586	0.000002
C22	C	-0.746101	0.363414	0.500002
C23	C	-1.107574	-0.133971	0.000001
C24	C	-0.607574	0.366029	0.500001
C25	C	-1.483096	0.032022	0.000011
C26	C	-0.983096	0.532022	0.500011
C27	C	-1.480486	0.131333	0.000010
C28	C	-0.980486	0.631333	0.500010
C29	C	-1.702360	-0.126325	0.000004
C30	C	-1.202360	0.373675	0.500004
C31	C	-1.840887	-0.128940	-0.000001
C32	C	-1.340887	0.371060	0.499999
C33	C	-1.031795	-0.210155	-0.000004
C34	C	-0.531795	0.289845	0.499996
C35	C	-0.888620	-0.207454	-0.000005
C36	C	-0.388620	0.292546	0.499995
C37	C	-1.465364	-0.294933	-0.000005
C38	C	-0.965364	0.205067	0.499995
C39	C	-1.467974	-0.394244	-0.000010
C40	C	-0.967974	0.105756	0.499990
N41	N	-1.474205	-0.131443	0.235361
N42	N	-0.974205	0.368557	0.735361
C43	C	-1.592914	0.187954	0.000012
C44	C	-1.092914	0.687954	0.500012
C45	C	-1.590455	0.281267	0.000002
C46	C	-1.090455	0.781267	0.500002
C47	C	-1.475566	0.317956	-0.000003
C48	C	-0.975566	0.817956	0.499997
C49	C	-1.363129	0.261327	-0.000008
C50	C	-0.863129	0.761327	0.499992
C51	C	-1.365590	0.168016	-0.000005
C52	C	-0.865590	0.668016	0.499995
C53	C	-1.358008	0.455817	-0.000011
C54	C	-0.858008	0.955817	0.499989
C55	C	-1.355546	0.549134	-0.000012
C56	C	-0.855546	1.049134	0.499988
C57	C	-1.582872	0.569068	-0.000005
C58	C	-1.082872	1.069068	0.499995
C59	C	-1.585333	0.475757	-0.000002
C60	C	-1.085333	0.975757	0.499998
C61	C	-1.472896	0.419134	-0.000005
C62	C	-0.972896	0.919134	0.499995
N63	N	-1.474265	-0.131461	-0.235353
N64	N	-0.974265	0.368539	0.264647
C65	C	-1.558973	-0.071180	0.287406
C66	C	-1.058973	0.428820	0.787406
C67	C	-1.558980	-0.071179	0.391509
C68	C	-1.058980	0.428821	0.891509
C69	C	-1.474226	-0.131447	0.443566
C70	C	-0.974226	0.368553	0.943566
C71	C	-1.389449	-0.191712	0.391514
C72	C	-0.889449	0.308288	0.891514
C73	C	-1.389436	-0.191708	0.287413
C74	C	-0.889436	0.308292	0.787413
C75	C	-1.389484	-0.191719	0.608494
C76	C	-0.889484	0.308281	1.108494
C77	C	-1.389498	-0.191724	0.712603
C78	C	-0.889498	0.308276	1.212603
C79	C	-1.559028	-0.071190	0.712590
C80	C	-1.059028	0.428810	1.212590
C81	C	-1.559015	-0.071186	0.608489
C82	C	-1.059015	0.428814	1.108489
C83	C	-1.474240	-0.131453	0.556444
C84	C	-0.974240	0.368547	1.056444
H85	H	-1.072915	-0.277377	-0.000002
H86	H	-0.572915	0.222623	0.499998
H87	H	-0.823506	-0.272673	-0.000013
H88	H	-0.323506	0.227327	0.499987
H89	H	-1.269584	0.291207	-0.000018
H90	H	-0.769584	0.791207	0.499982
Cl91	Cl	-1.282941	-0.267490	0.778038
Cl92	Cl	-0.782941	0.232510	1.278038
Cl93	Cl	-0.941404	-0.028237	-0.000003
Cl94	Cl	-0.441404	0.471763	0.499997
Cl95	Cl	-1.044100	-0.030179	0.000014
Cl96	Cl	-0.544100	0.469821	0.500014
H97	H	-1.274039	0.121915	-0.000006
H98	H	-0.774039	0.621915	0.499994
Cl99	Cl	-1.211112	0.595257	-0.000017
Cl100	Cl	-0.711112	1.095257	0.499983
Cl101	Cl	-1.729767	0.429634	-0.000001
Cl102	Cl	-1.229767	0.929634	0.499999
Cl103	Cl	-1.737355	0.141841	0.000028
Cl104	Cl	-1.237355	0.641841	0.500028
H105	H	-1.627995	-0.022107	0.245028
H106	H	-1.127995	0.477893	0.745028
H107	H	-1.682005	0.327365	0.000006
H108	H	-1.182005	0.827365	0.500006
Cl109	Cl	-1.724222	0.640250	-0.000006
Cl110	Cl	-1.224222	1.140250	0.499994
H111	H	-1.320409	-0.240779	0.245039
H112	H	-0.820409	0.259221	0.745039
H113	H	-1.266449	0.409717	-0.000016
H114	H	-0.766449	0.909717	0.499984
Cl115	Cl	-1.665546	0.004582	0.456938
Cl116	Cl	-1.165546	0.504582	0.956938
Cl117	Cl	-1.665571	0.004574	0.543044
Cl118	Cl	-1.165571	0.504574	1.043044
H119	H	-1.628054	-0.022118	0.754971
H120	H	-1.128054	0.477882	1.254971
Cl121	Cl	-1.282903	-0.267483	0.543071
Cl122	Cl	-0.782903	0.232517	1.043071
H123	H	-1.320434	-0.240780	0.433905
H124	H	-0.820434	0.259220	0.933905
