data_functionalizedCrystal
_audit_creation_method	'MofGen! by Chris Wilmer'
_symmetry_space_group_name_H-M	'P1'
_symmetry_Int_Tables_number	1
_symmetry_cell_setting	triclinic
loop_
_symmetry_equiv_pos_as_xyz
  x,y,z
_cell_length_a	21.295417
_cell_length_b	21.295419
_cell_length_c	18.101389
_cell_angle_alpha	89.980251
_cell_angle_beta	90.022566
_cell_angle_gamma	89.952934
loop_
_atom_site_label
_atom_site_type_symbol
_atom_site_fract_x
_atom_site_fract_y
_atom_site_fract_z
Zn1	Zn	-0.250397	-0.962321	0.418727
Zn2	Zn	0.249603	-0.462321	0.918727
Zn3	Zn	-0.355651	-0.962234	0.294877
Zn4	Zn	0.144349	-0.462234	0.794877
Zn5	Zn	-0.250430	-0.857055	0.294898
Zn6	Zn	0.249570	-0.357055	0.794898
Zn7	Zn	-0.355663	-0.857014	0.418675
Zn8	Zn	0.144337	-0.357014	0.918675
O9	O	-0.303035	-0.909656	0.356794
O10	O	0.196965	-0.409656	0.856794
O11	O	-0.264340	-1.050399	0.402311
O12	O	0.235660	-0.550399	0.902311
O13	O	-0.341701	-0.948262	0.191246
O14	O	0.158299	-0.448262	0.691246
O15	O	-0.162336	-0.871072	0.311355
O16	O	0.337664	-0.371072	0.811355
O17	O	-0.341670	-1.050335	0.311318
O18	O	0.158330	-0.550335	0.811318
O19	O	-0.162312	-0.948411	0.402332
O20	O	0.337688	-0.448411	0.902332
O21	O	-0.264396	-0.870987	0.191262
O22	O	0.235604	-0.370987	0.691262
O23	O	-0.264408	-0.768960	0.311305
O24	O	0.235592	-0.268960	0.811305
O25	O	-0.341691	-0.871003	0.522315
O26	O	0.158309	-0.371003	1.022315
O27	O	-0.341722	-0.768930	0.402243
O28	O	0.158278	-0.268930	0.902243
O29	O	-0.264352	-0.948371	0.522353
O30	O	0.235648	-0.448371	1.022353
O31	O	-0.443742	-0.948222	0.311268
O32	O	0.056258	-0.448222	0.811268
O33	O	-0.443751	-0.870918	0.402222
O34	O	0.056249	-0.370918	0.902222
C35	C	-0.303070	-0.746104	0.356771
C36	C	0.196930	-0.246104	0.856771
C37	C	-0.303101	-0.676136	0.356779
C38	C	0.196899	-0.176136	0.856779
C39	C	-0.262902	-0.643325	0.404231
C40	C	0.237098	-0.143325	0.904231
C41	C	-0.262887	-0.577583	0.404233
C42	C	0.237113	-0.077583	0.904233
C43	C	-0.303082	-0.544654	0.356790
C44	C	0.196918	-0.044654	0.856790
C45	C	-0.343283	-0.577472	0.309328
C46	C	0.156717	-0.077472	0.809328
C47	C	-0.343293	-0.643213	0.309323
C48	C	0.156707	-0.143213	0.809323
N49	N	-0.358162	-0.441379	0.351001
N50	N	0.141838	0.058621	0.851001
N51	N	-0.358152	-0.378927	0.351010
N52	N	0.141848	0.121073	0.851010
C53	C	-0.303055	-0.346579	0.356803
C54	C	0.196945	0.153421	0.856803
N55	N	-0.247969	-0.379041	0.362601
N56	N	0.252031	0.120959	0.862601
N57	N	-0.247980	-0.441498	0.362595
N58	N	0.252020	0.058502	0.862595
C59	C	-0.303076	-0.473368	0.356791
C60	C	0.196924	0.026632	0.856791
C61	C	-0.262837	-0.242483	0.404260
C62	C	0.237163	0.257517	0.904260
C63	C	-0.262821	-0.176739	0.404257
C64	C	0.237179	0.323261	0.904257
C65	C	-0.343223	-0.176630	0.309356
C66	C	0.156777	0.323370	0.809356
C67	C	-0.343234	-0.242372	0.309356
C68	C	0.156766	0.257628	0.809356
C69	C	-0.303042	-0.275295	0.356812
C70	C	0.196958	0.224705	0.856812
C71	C	-0.466587	-0.909573	0.356753
C72	C	0.033413	-0.409573	0.856753
C73	C	-0.536555	-0.909596	0.356760
C74	C	-0.036555	-0.409596	0.856760
C75	C	-0.569396	-0.949884	0.309449
C76	C	-0.069396	-0.449884	0.809449
C77	C	-0.635138	-0.949913	0.309466
C78	C	-0.135138	-0.449913	0.809466
C79	C	-0.668037	-0.909643	0.356786
C80	C	-0.168037	-0.409643	0.856786
C81	C	-0.635188	-0.869352	0.404106
C82	C	-0.135188	-0.369352	0.904106
C83	C	-0.569447	-0.869328	0.404094
C84	C	-0.069447	-0.369328	0.904094
N85	N	-0.771320	-0.854576	0.362424
N86	N	-0.271320	-0.354576	0.862424
N87	N	-0.833771	-0.854600	0.362432
N88	N	-0.333771	-0.354600	0.862432
C89	C	-0.866112	-0.909714	0.356828
C90	C	-0.366112	-0.409714	0.856828
N91	N	-0.833642	-0.964803	0.351203
N92	N	-0.333642	-0.464803	0.851203
N93	N	-0.771185	-0.964778	0.351191
N94	N	-0.271185	-0.464778	0.851191
C95	C	-0.739323	-0.909665	0.356805
C96	C	-0.239323	-0.409665	0.856805
C97	C	-0.970239	-0.950038	0.309533
C98	C	-0.470239	-0.450038	0.809533
C99	C	-1.035982	-0.950068	0.309554
C100	C	-0.535982	-0.450068	0.809554
C101	C	-1.036031	-0.869501	0.404191
C102	C	-0.536031	-0.369501	0.904191
C103	C	-0.970288	-0.869476	0.404173
C104	C	-0.470288	-0.369476	0.904173
C105	C	-0.937396	-0.909744	0.356840
C106	C	-0.437396	-0.409744	0.856840
C107	C	-0.138845	-0.909756	0.356852
C108	C	0.361155	-0.409756	0.856852
C109	C	-0.068877	-0.909798	0.356876
C110	C	0.431123	-0.409798	0.856876
C111	C	-0.303019	-0.909692	0.549956
C112	C	0.196981	-0.409692	1.049956
C113	C	-0.303012	-0.909708	0.632270
C114	C	0.196988	-0.409708	1.132270
C115	C	-0.303008	-0.073846	0.356814
C116	C	0.196992	0.426154	0.856814
C117	C	-0.303016	-0.143814	0.356813
C118	C	0.196984	0.356186	0.856813
C119	C	-0.303005	-0.909656	0.164384
C120	C	0.196995	-0.409656	0.664384
C121	C	-0.302835	-0.909762	0.082070
C122	C	0.197165	-0.409762	0.582070
C123	C	-0.302894	-0.909744	0.931361
C124	C	0.197106	-0.409744	1.431361
C125	C	-0.351399	-0.860898	0.900012
C126	C	0.148601	-0.360898	1.400012
C127	C	-0.351624	-0.861030	0.814394
C128	C	0.148376	-0.361030	1.314394
C129	C	-0.302953	-0.909726	0.782979
C130	C	0.197047	-0.409726	1.282979
C131	C	-0.320940	-0.976048	0.814077
C132	C	0.179060	-0.476048	1.314077
C133	C	-0.321259	-0.975776	0.899722
C134	C	0.178741	-0.475776	1.399722
C135	C	-0.236294	-0.892844	0.899793
C136	C	0.263706	-0.392844	1.399793
C137	C	-0.236679	-0.891368	0.814142
C138	C	0.263321	-0.391368	1.314142
C139	C	-0.302985	-0.909719	0.699119
C140	C	0.197015	-0.409719	1.199119
C141	C	-0.302864	-0.909755	1.015221
C142	C	0.197136	-0.409755	1.515221
H143	H	-0.230083	-0.150025	0.442897
H144	H	0.269917	0.349975	0.942897
Cl145	Cl	-0.676546	-0.818730	0.463598
Cl146	Cl	-0.176546	-0.318730	0.963598
H147	H	-0.542707	-0.836520	0.442621
H148	H	-0.042707	-0.336520	0.942621
Cl149	Cl	-0.393811	-0.536076	0.249682
Cl150	Cl	0.106189	-0.036076	0.749682
Cl151	Cl	-0.929000	-0.818822	0.463651
Cl152	Cl	-0.429000	-0.318822	0.963651
H153	H	-0.230174	-0.670127	0.442873
H154	H	0.269826	-0.170127	0.942873
Cl155	Cl	-0.395308	-0.998553	0.780967
Cl156	Cl	0.104692	-0.498553	1.280967
Cl157	Cl	-0.928885	-1.000658	0.250029
Cl158	Cl	-0.428885	-0.500658	0.750029
H159	H	-1.062720	-0.982880	0.271029
H160	H	-0.562720	-0.482880	0.771029
Cl161	Cl	-1.077383	-0.818880	0.463686
Cl162	Cl	-0.577383	-0.318880	0.963686
H163	H	-0.340370	-0.811849	0.793367
H164	H	0.159630	-0.311849	1.293367
Cl165	Cl	-0.396424	-0.997894	0.930569
Cl166	Cl	0.103576	-0.497894	1.430569
Cl167	Cl	-0.180500	-0.947772	0.931096
Cl168	Cl	0.319500	-0.447772	1.431096
Cl169	Cl	-0.334201	-0.784734	0.931796
Cl170	Cl	0.165799	-0.284734	1.431796
H171	H	-0.219902	-0.845322	0.921385
H172	H	0.280098	-0.345322	1.421385
H173	H	-0.400464	-0.871945	0.921533
H174	H	0.099536	-0.371945	1.421533
Cl175	Cl	-0.212307	-0.283874	0.463912
Cl176	Cl	0.287693	0.216126	0.963912
Cl177	Cl	-0.212347	-0.536326	0.463891
Cl178	Cl	0.287653	-0.036326	0.963891
H179	H	-0.400990	-0.872188	0.793906
H180	H	0.099010	-0.372188	1.293906
H181	H	-0.376028	-0.669928	0.270680
H182	H	0.123972	-0.169928	0.770680
H183	H	-0.375951	-0.149819	0.270727
H184	H	0.124049	0.350181	0.770727
Cl185	Cl	-0.393769	-0.283622	0.249694
Cl186	Cl	0.106231	0.216378	0.749694
Cl187	Cl	-0.268110	-1.033750	0.782666
Cl188	Cl	0.231890	-0.533750	1.282666
Cl189	Cl	-0.528049	-1.000515	0.249955
Cl190	Cl	-0.028049	-0.500515	0.749955
Cl191	Cl	-0.269046	-1.033836	0.931746
Cl192	Cl	0.230954	-0.533836	1.431746
Cl193	Cl	-0.215737	-0.816009	0.782770
Cl194	Cl	0.284263	-0.316009	1.282770
Cl195	Cl	-0.676433	-1.000564	0.249983
Cl196	Cl	-0.176433	-0.500564	0.749983
H197	H	-0.198624	-0.924350	0.792758
H198	H	0.301376	-0.424350	1.292758
