data_functionalizedCrystal
_audit_creation_method	'MofGen! by Chris Wilmer'
_symmetry_space_group_name_H-M	'P1'
_symmetry_Int_Tables_number	1
_symmetry_cell_setting	triclinic
loop_
_symmetry_equiv_pos_as_xyz
  x,y,z
_cell_length_a	19.121063
_cell_length_b	13.032831
_cell_length_c	13.032268
_cell_angle_alpha	90.886977
_cell_angle_beta	80.752502
_cell_angle_gamma	94.434404
loop_
_atom_site_label
_atom_site_type_symbol
_atom_site_fract_x
_atom_site_fract_y
_atom_site_fract_z
Zn1	Zn	-0.473659	-1.465022	0.806576
Zn2	Zn	0.026341	-0.965022	1.306576
Zn3	Zn	-0.578156	-1.479383	0.640274
Zn4	Zn	-0.078156	-0.979383	1.140274
Zn5	Zn	-0.444360	-1.316950	0.611224
Zn6	Zn	0.055640	-0.816950	1.111224
Zn7	Zn	-0.574364	-1.285899	0.790193
Zn8	Zn	-0.074364	-0.785899	1.290193
O9	O	-0.517635	-1.386814	0.712067
O10	O	-0.017635	-0.886814	1.212067
O11	O	-0.501370	-1.609870	0.803529
O12	O	-0.001370	-1.109870	1.303529
O13	O	-0.549733	-1.476841	0.491924
O14	O	-0.049733	-0.976841	0.991924
O15	O	-0.350107	-1.343577	0.631836
O16	O	0.149893	-0.843577	1.131836
O17	O	-0.578143	-1.620421	0.681348
O18	O	-0.078143	-1.120421	1.181348
O19	O	-0.371633	-1.452365	0.775360
O20	O	0.128367	-0.952365	1.275360
O21	O	-0.451434	-1.357502	0.470581
O22	O	0.048566	-0.857502	0.970581
O23	O	-0.447756	-1.169889	0.615951
O24	O	0.052244	-0.669889	1.115951
O25	O	-0.571680	-1.290655	0.936863
O26	O	-0.071680	-0.790655	1.436863
O27	O	-0.543270	-1.147076	0.747439
O28	O	-0.043270	-0.647076	1.247439
O29	O	-0.497693	-1.422256	0.948899
O30	O	0.002307	-0.922256	1.448899
O31	O	-0.675793	-1.446733	0.665463
O32	O	-0.175793	-0.946733	1.165463
O33	O	-0.673007	-1.304581	0.775608
O34	O	-0.173007	-0.804581	1.275608
C35	C	-0.699851	-1.373870	0.721936
C36	C	-0.199851	-0.873870	1.221936
C37	C	-0.777815	-1.368422	0.726206
C38	C	-0.277815	-0.868422	1.226206
C39	C	-0.491923	-1.121419	0.676766
C40	C	0.008077	-0.621419	1.176766
C41	C	-0.480942	-1.007877	0.661690
C42	C	0.019058	-0.507877	1.161690
C43	C	-0.537532	-1.351390	0.981395
C44	C	-0.037532	-0.851390	1.481395
C45	C	-0.546011	-1.336295	1.096167
C46	C	-0.046011	-0.836295	1.596167
C47	C	-0.815879	-1.439917	0.670926
C48	C	-0.315879	-0.939917	1.170926
C49	C	-0.889136	-1.434798	0.674948
C50	C	-0.389136	-0.934798	1.174948
C51	C	-0.924327	-1.358179	0.734244
C52	C	-0.424327	-0.858179	1.234244
C53	C	-0.886258	-1.286681	0.789530
C54	C	-0.386258	-0.786681	1.289530
C55	C	-0.813003	-1.291805	0.785514
C56	C	-0.313003	-0.791805	1.285514
C57	C	-1.145437	-1.339006	0.749244
C58	C	-0.645437	-0.839006	1.249244
C59	C	-1.218697	-1.333886	0.753254
C60	C	-0.718697	-0.833886	1.253254
C61	C	-1.221570	-1.482005	0.638672
C62	C	-0.721570	-0.982005	1.138672
C63	C	-1.148313	-1.487118	0.634656
C64	C	-0.648313	-0.987118	1.134656
C65	C	-1.110251	-1.415624	0.689946
C66	C	-0.610251	-0.915624	1.189946
C67	C	-0.999207	-1.352943	0.738354
C68	C	-0.499207	-0.852943	1.238354
C69	C	-1.035374	-1.420865	0.685842
C70	C	-0.535374	-0.920865	1.185842
C71	C	-0.334712	-1.399833	0.702185
C72	C	0.165288	-0.899833	1.202185
C73	C	-0.256761	-1.405381	0.697974
C74	C	0.243239	-0.905381	1.197974
C75	C	-0.543448	-1.653245	0.747506
C76	C	-0.043448	-1.153245	1.247506
C77	C	-0.554448	-1.766782	0.762608
C78	C	-0.054448	-1.266782	1.262608
C79	C	-0.523366	-0.946005	0.719935
C80	C	-0.023366	-0.446005	1.219935
C81	C	-0.512018	-0.828653	0.704355
C82	C	-0.012018	-0.328653	1.204355
C83	C	-0.497771	-1.422162	0.443791
C84	C	0.002229	-0.922162	0.943791
C85	C	-0.489113	-1.437469	0.329036
C86	C	0.010887	-0.937469	0.829036
C87	C	-0.513183	-1.394678	1.153291
C88	C	-0.013183	-0.894678	1.653291
C89	C	-0.521945	-1.379078	1.271914
C90	C	-0.021945	-0.879078	1.771914
H91	H	-0.787232	-1.502304	0.622636
H92	H	-0.287232	-1.002304	1.122636
H93	H	-0.556535	-1.317533	1.310822
H94	H	-0.056535	-0.817533	1.810822
Br95	Br	-0.628983	-0.823275	0.864977
Br96	Br	-0.128983	-0.323275	1.364977
Br97	Br	-0.940793	-1.531837	0.599929
Br98	Br	-0.440793	-1.031837	1.099929
Br99	Br	-1.100562	-1.591117	0.554195
Br100	Br	-0.600562	-1.091117	1.054195
H101	H	-1.114453	-1.280791	0.794261
H102	H	-0.614453	-0.780791	1.294261
Br103	Br	-0.406393	-0.951374	0.559354
Br104	Br	0.093607	-0.451374	1.059354
H105	H	-0.568086	-0.979912	0.781340
H106	H	-0.068086	-0.479912	1.281340
Br107	Br	-0.934017	-1.182704	0.870015
Br108	Br	-0.434017	-0.682704	1.370015
Br109	Br	-1.273230	-1.579033	0.563646
Br110	Br	-0.773230	-1.079033	1.063646
Br111	Br	-1.266452	-1.229881	0.833713
Br112	Br	-0.766452	-0.729881	1.333713
H113	H	-0.454514	-1.499002	1.290127
H114	H	0.045486	-0.999002	1.790127
H115	H	-0.782012	-1.233587	0.830529
H116	H	-0.282012	-0.733587	1.330529
Br117	Br	-0.455501	-1.497214	1.088438
Br118	Br	0.044499	-0.997214	1.588438
Br119	Br	-1.046971	-1.248964	0.818828
Br120	Br	-0.546971	-0.748964	1.318828
H121	H	-1.006720	-1.483252	0.637567
H122	H	-0.506720	-0.983252	1.137567
Br123	Br	-0.437466	-0.772155	0.602015
Br124	Br	0.062534	-0.272155	1.102015
Br125	Br	-0.603662	-1.233722	1.161013
Br126	Br	-0.103662	-0.733722	1.661013
