data_functionalizedCrystal
_audit_creation_method	'MofGen! by Chris Wilmer'
_symmetry_space_group_name_H-M	'P1'
_symmetry_Int_Tables_number	1
_symmetry_cell_setting	triclinic
loop_
_symmetry_equiv_pos_as_xyz
  x,y,z
_cell_length_a	12.759401
_cell_length_b	13.897441
_cell_length_c	12.759399
_cell_angle_alpha	90.025616
_cell_angle_beta	89.984308
_cell_angle_gamma	89.981301
loop_
_atom_site_label
_atom_site_type_symbol
_atom_site_fract_x
_atom_site_fract_y
_atom_site_fract_z
Zn1	Zn	1.606251	-0.545362	0.418228
Zn2	Zn	1.606143	-0.384078	0.593939
Zn3	Zn	1.430553	-0.384086	0.418275
Zn4	Zn	1.430539	-0.545336	0.593866
O5	O	1.518372	-0.464716	0.506077
O6	O	1.753258	-0.523975	0.441548
O7	O	1.582810	-0.249097	0.570686
O8	O	1.453911	-0.405495	0.271248
O9	O	1.753178	-0.405480	0.570641
O10	O	1.582996	-0.523983	0.271213
O11	O	1.453805	-0.249103	0.441627
O12	O	1.283530	-0.405469	0.441557
O13	O	1.453888	-0.680321	0.570518
O14	O	1.283520	-0.523938	0.570563
O15	O	1.582983	-0.680340	0.441477
O16	O	1.582797	-0.405454	0.740950
O17	O	1.453783	-0.523930	0.740897
C18	C	1.245404	-0.464702	0.506058
C19	C	1.128628	-0.464720	0.506075
C20	C	1.073788	-0.526305	0.573356
C21	C	0.964064	-0.526315	0.573369
C22	C	0.964029	-0.403147	0.438817
C23	C	1.073751	-0.403142	0.438800
C24	C	1.128665	-0.587882	0.640631
C25	C	1.073825	-0.649471	0.707918
C26	C	0.964101	-0.649482	0.707932
C27	C	0.909217	-0.587903	0.640658
C28	C	1.518446	-0.716309	0.505984
C29	C	1.518478	-0.823523	0.505945
C30	C	1.518506	-1.019818	0.505874
C31	C	1.518487	-0.910585	0.505916
C32	C	1.792405	-0.464729	0.506097
C33	C	1.909181	-0.464735	0.506106
C34	C	1.518305	-0.464709	0.779044
C35	C	1.518373	-0.464739	0.895821
C36	C	1.518358	-0.214101	0.506094
C37	C	1.518530	-0.106888	0.505837
C38	C	1.585625	-0.403120	0.950676
C39	C	1.585688	-0.403155	1.060400
C40	C	1.451238	-0.526432	1.060405
C41	C	1.451181	-0.526401	0.950683
C42	C	1.652816	-0.341458	0.895814
C43	C	1.720073	-0.279833	0.950669
C44	C	1.720136	-0.279868	1.060393
C45	C	1.652942	-0.341529	1.115262
C46	C	1.518463	-0.464756	1.232044
C47	C	1.518493	-0.464806	1.115267
H48	H	0.819872	-0.587925	0.640665
H49	H	0.919333	-0.353012	0.384047
H50	H	1.774786	-0.229636	0.905989
H51	H	1.218008	-0.587879	0.640630
N52	N	1.788850	-0.216929	1.116412
N53	N	1.848838	-0.161886	1.067411
H54	H	1.897369	-0.117430	1.106971
H55	H	1.653007	-0.341560	1.204607
N56	N	1.129796	-0.340249	0.370078
N57	N	1.191046	-0.374298	0.303173
H58	H	1.230632	-0.329883	0.254634
H59	H	1.396531	-0.576632	1.105088
H60	H	1.396420	-0.576578	0.906019
N61	N	1.652760	-0.341403	0.783736
N62	N	1.712751	-0.286344	0.734761
H63	H	1.712709	-0.286303	0.655605
H64	H	1.118519	-0.699612	0.762684
N65	N	0.908098	-0.712406	0.776655
N66	N	0.957113	-0.767381	0.836708
H67	H	0.917564	-0.811823	0.885249
