data_functionalizedCrystal
_audit_creation_method	'MofGen! by Chris Wilmer'
_symmetry_space_group_name_H-M	'P1'
_symmetry_Int_Tables_number	1
_symmetry_cell_setting	triclinic
loop_
_symmetry_equiv_pos_as_xyz
  x,y,z
_cell_length_a	6.817900
_cell_length_b	10.773890
_cell_length_c	10.992410
_cell_angle_alpha	95.398895
_cell_angle_beta	108.764651
_cell_angle_gamma	96.645716
loop_
_atom_site_label
_atom_site_type_symbol
_atom_site_fract_x
_atom_site_fract_y
_atom_site_fract_z
V1	V	-4.052541	-0.172595	-0.398500
O2	O	-4.075341	0.008294	-0.393068
O3	O	-3.969472	-0.342226	-0.393703
O4	O	-4.031082	-0.169940	-0.573245
O5	O	-4.013305	-0.165185	-0.212284
V6	V	-4.537170	-0.150958	-0.376479
O7	O	-4.311373	-0.220056	-0.446806
O8	O	-4.728536	-0.103497	-0.328173
O9	O	-4.397033	0.018673	-0.381276
O10	O	-4.631767	-0.331847	-0.381911
O11	O	-4.693804	-0.158368	-0.562695
O12	O	-4.335422	-0.153613	-0.201734
C13	C	-3.805167	-0.383578	-0.386882
C14	C	-3.818715	-0.522254	-0.384125
C15	C	-3.997529	-0.590117	-0.388916
C16	C	-4.011535	-0.733446	-0.386067
C17	C	-3.883756	-0.163809	-0.615904
C18	C	-3.947266	-0.162760	-0.758745
C19	C	-3.817803	-0.153210	-0.953984
C20	C	-3.751678	-0.154817	-0.805481
C21	C	-4.101306	-0.285759	-0.834357
C22	C	-4.166009	-0.284671	-0.982937
C23	C	-4.128927	-0.046502	-0.947793
C24	C	-4.058426	-0.045918	-0.798787
C25	C	-4.224678	0.060019	-0.388093
C26	C	-4.190369	0.198694	-0.390858
C27	C	-4.146089	-0.159748	-0.159068
C28	C	-4.061819	-0.160790	-0.016226
H29	H	-4.333106	-0.753303	-0.397075
H30	H	-3.675999	-0.570266	-0.377921
O31	O	-4.276296	-0.298230	-0.799822
C32	C	-4.491566	-0.425605	-0.707920
C33	C	-4.293363	-0.411656	-0.747006
H34	H	-4.505405	-0.517291	-0.665184
H35	H	-4.635725	-0.427342	-0.797095
H36	H	-4.480221	-0.342445	-0.632457
H37	H	-4.304503	-0.494792	-0.822436
H38	H	-4.149285	-0.409862	-0.657767
O39	O	-4.167634	-0.532756	-0.396094
C40	C	-4.312162	-0.375844	-0.294779
C41	C	-4.119377	-0.440719	-0.286475
H42	H	-4.273200	-0.301401	-0.206178
H43	H	-4.449015	-0.449160	-0.297862
H44	H	-4.356957	-0.328885	-0.386511
H45	H	-4.074394	-0.487676	-0.194752
H46	H	-3.982644	-0.367350	-0.283464
H47	H	-3.732437	-0.064160	-0.973893
O48	O	-4.009848	-0.389346	-0.802797
C49	C	-3.893795	-0.574831	-0.879394
C50	C	-3.997452	-0.457587	-0.915318
H51	H	-3.883700	-0.630023	-0.970340
H52	H	-3.991475	-0.637320	-0.835140
H53	H	-3.729320	-0.543892	-0.806072
H54	H	-4.161918	-0.488412	-0.988673
H55	H	-3.899618	-0.395125	-0.959498
H56	H	-3.763507	-0.235327	-1.000981
H57	H	-3.664732	-0.238074	-0.779657
O58	O	-3.612227	-0.049277	-0.743322
C59	C	-3.418640	0.144333	-0.764893
C60	C	-3.576562	0.024850	-0.835444
H61	H	-3.389788	0.204311	-0.839341
H62	H	-3.264524	0.116165	-0.704515
H63	H	-3.484816	0.201021	-0.698574
H64	H	-3.510579	-0.031892	-0.901829
H65	H	-3.730652	0.053104	-0.895740
H66	H	-4.306312	-0.050972	-0.988580
H67	H	-4.119507	-0.371208	-1.028158
H68	H	-4.344187	-0.295367	-1.025439
O69	O	-3.926392	0.062595	-0.737442
C70	C	-3.720388	0.187455	-0.532708
C71	C	-3.869950	0.064533	-0.602027
H72	H	-3.674676	0.189050	-0.423213
H73	H	-3.802082	0.271918	-0.562126
H74	H	-3.573554	0.192359	-0.561482
H75	H	-4.016816	0.059506	-0.573288
H76	H	-3.788096	-0.019872	-0.572606
H77	H	-3.868806	-0.781452	-0.379862
H78	H	-4.059406	0.046901	-0.969284
H79	H	-4.201055	-0.044474	-0.766293
