data_functionalizedCrystal
_audit_creation_method	'MofGen! by Chris Wilmer'
_symmetry_space_group_name_H-M	'P1'
_symmetry_Int_Tables_number	1
_symmetry_cell_setting	triclinic
loop_
_symmetry_equiv_pos_as_xyz
  x,y,z
_cell_length_a	10.489716
_cell_length_b	10.489741
_cell_length_c	15.455313
_cell_angle_alpha	92.692689
_cell_angle_beta	87.292090
_cell_angle_gamma	84.534155
loop_
_atom_site_label
_atom_site_type_symbol
_atom_site_fract_x
_atom_site_fract_y
_atom_site_fract_z
O1	O	1.699611	0.174291	-0.072123
O2	O	2.199611	0.674291	0.427877
O3	O	1.328412	0.191216	-0.072127
O4	O	1.828412	0.691216	0.427873
O5	O	1.522458	-0.002845	-0.072120
O6	O	2.022458	0.497155	0.427880
O7	O	1.505565	0.368352	-0.072130
O8	O	2.005565	0.868352	0.427870
O9	O	1.511361	0.008206	0.072142
O10	O	2.011361	0.508206	0.572142
O11	O	1.317315	0.202267	0.072135
O12	O	1.817315	0.702267	0.572135
O13	O	1.688514	0.185342	0.072138
O14	O	2.188514	0.685342	0.572138
Cu15	Cu	1.501901	0.194814	0.085309
Cu16	Cu	2.001901	0.694814	0.585309
Cu17	Cu	1.515025	0.181744	-0.085297
Cu18	Cu	2.015025	0.681744	0.414703
O19	O	1.494469	0.379403	0.072132
O20	O	1.994469	0.879403	0.572132
C21	C	1.275331	0.195470	0.000004
C22	C	1.775331	0.695470	0.500004
C23	C	1.133700	0.191665	0.000003
C24	C	1.633700	0.691665	0.500003
C25	C	1.036027	0.310669	-0.000003
C26	C	1.536027	0.810669	0.499997
C27	C	0.953209	0.253234	0.071132
C28	C	1.453209	0.753234	0.571132
C29	C	0.964156	0.242310	-0.071099
C30	C	1.464156	0.742310	0.428901
C31	C	1.052744	0.134284	0.071196
C32	C	1.552744	0.634284	0.571196
C33	C	1.063701	0.123373	-0.071099
C34	C	1.563701	0.623373	0.428901
C35	C	0.980931	0.065852	0.000053
C36	C	1.480931	0.565852	0.500053
C37	C	1.515633	-0.044851	0.000011
C38	C	2.015633	0.455149	0.500011
C39	C	1.511816	-0.186480	0.000009
C40	C	2.011816	0.313520	0.500009
C41	C	1.388351	-0.254610	0.000002
C42	C	1.888351	0.245390	0.500002
C43	C	1.441204	-0.341289	0.071131
C44	C	1.941204	0.158711	0.571131
C45	C	1.452173	-0.352159	-0.071100
C46	C	1.952173	0.147841	0.428900
C47	C	1.564715	-0.271289	0.071197
C48	C	2.064715	0.228711	0.571197
C49	C	1.575673	-0.282155	-0.071098
C50	C	2.075673	0.217845	0.428902
C51	C	1.628614	-0.368805	0.000048
C52	C	2.128614	0.131195	0.500048
C53	C	1.741595	0.181088	0.000006
C54	C	2.241595	0.681088	0.500006
C55	C	1.883226	0.184892	0.000001
C56	C	2.383226	0.684892	0.500001
C57	C	1.501293	0.421409	-0.000001
C58	C	2.001293	0.921409	0.499999
C59	C	1.505111	0.563037	-0.000005
C60	C	2.005111	1.063037	0.499995
N61	N	1.492681	0.204005	0.205304
N62	N	1.992681	0.704005	0.705304
N63	N	1.524256	0.172543	-0.205292
N64	N	2.024256	0.672543	0.294708
C65	C	1.575147	0.121592	0.250701
C66	C	2.075147	0.621592	0.750701
C67	C	1.568186	0.128555	0.341509
C68	C	2.068186	0.628555	0.841509
C69	C	1.478763	0.217938	0.386918
C70	C	1.978763	0.717938	0.886918
C71	C	1.396287	0.300355	0.341514
C72	C	1.896287	0.800355	0.841514
C73	C	1.403244	0.293385	0.250708
C74	C	1.903244	0.793385	0.750708
C75	C	1.448737	0.247989	0.658498
C76	C	1.948737	0.747989	1.158498
C77	C	1.441789	0.254956	0.749311
C78	C	1.941789	0.754956	1.249311
C79	C	1.613687	0.083154	0.749299
C80	C	2.113687	0.583154	1.249299
C81	C	1.620640	0.076197	0.658491
C82	C	2.120640	0.576197	1.158491
C83	C	1.538160	0.158609	0.613096
C84	C	2.038160	0.658609	1.113096
N85	N	1.471647	0.225060	0.479738
N86	N	1.971647	0.725060	0.979738
N87	N	1.545270	0.151479	0.520277
N88	N	2.045270	0.651479	1.020277
H89	H	0.905101	0.308077	0.131266
H90	H	1.405101	0.808077	0.631266
H91	H	1.404543	-0.387725	-0.131240
H92	H	1.904543	0.112275	0.368760
C93	C	1.652437	-0.246439	-0.152341
C94	C	2.152437	0.253561	0.347659
N95	N	1.710247	-0.219534	-0.213540
N96	N	2.210247	0.280466	0.286460
H97	H	0.956497	-0.037737	0.000097
H98	H	1.456497	0.462263	0.500097
C99	C	1.128713	0.049332	-0.152343
C100	C	1.628713	0.549332	0.347657
N101	N	1.177676	-0.006432	-0.213544
N102	N	1.677676	0.493568	0.286456
C103	C	1.673520	0.023262	0.200760
C104	C	2.173520	0.523262	0.700760
N105	N	1.747613	-0.050807	0.163146
N106	N	2.247613	0.449193	0.663146
C107	C	1.658876	0.037863	0.391441
C108	C	2.158876	0.537863	0.891441
N109	N	1.727175	-0.030463	0.429050
N110	N	2.227175	0.469537	0.929050
H111	H	1.730215	-0.418234	0.000089
H112	H	2.230215	0.081766	0.500089
H113	H	1.693455	0.003414	0.621521
H114	H	2.193455	0.503414	1.121521
C115	C	1.343409	0.353285	0.799259
C116	C	1.843409	0.853285	1.299259
N117	N	1.269313	0.427343	0.836880
N118	N	1.769313	0.927343	1.336880
H119	H	0.925298	0.287965	-0.131229
H120	H	1.425298	0.787965	0.368771
H121	H	1.381580	0.315095	0.621544
H122	H	1.881580	0.815095	1.121544
H123	H	1.286832	-0.204944	0.000072
H124	H	1.786832	0.295056	0.500072
H125	H	1.323471	0.373128	0.378492
H126	H	1.823471	0.873128	0.878492
H127	H	1.384337	-0.367689	0.131264
H128	H	1.884337	0.132311	0.631264
H129	H	1.336089	0.360492	0.213747
H130	H	1.836089	0.860492	0.713747
H131	H	1.612280	-0.235850	0.131398
H132	H	2.112280	0.264150	0.631398
C133	C	1.105000	0.072700	0.152527
C134	C	1.605000	0.572700	0.652527
N135	N	1.144361	0.026321	0.213786
N136	N	1.644361	0.526321	0.713786
H137	H	1.060691	0.414190	0.000061
H138	H	1.560691	0.914190	0.500061
H139	H	1.680837	0.016056	0.786268
H140	H	2.180837	0.516056	1.286268
