data_functionalizedCrystal
_audit_creation_method	'MofGen! by Chris Wilmer'
_symmetry_space_group_name_H-M	'P1'
_symmetry_Int_Tables_number	1
_symmetry_cell_setting	triclinic
loop_
_symmetry_equiv_pos_as_xyz
  x,y,z
_cell_length_a	6.817900
_cell_length_b	12.000032
_cell_length_c	11.452834
_cell_angle_alpha	78.615776
_cell_angle_beta	108.697278
_cell_angle_gamma	119.142083
loop_
_atom_site_label
_atom_site_type_symbol
_atom_site_fract_x
_atom_site_fract_y
_atom_site_fract_z
V1	V	-4.098659	-0.091945	-0.381719
V2	V	-3.598659	0.408055	0.118281
O3	O	-3.995216	0.091334	-0.372340
O4	O	-3.495216	0.591334	0.127660
O5	O	-4.135846	-0.265902	-0.381140
O6	O	-3.635846	0.234098	0.118860
O7	O	-4.042306	-0.052393	-0.547273
O8	O	-3.542306	0.447607	-0.047273
O9	O	-4.089404	-0.123654	-0.205057
O10	O	-3.589404	0.376346	0.294943
V11	V	-4.572227	-0.074528	-0.360342
V12	V	-4.072227	0.425472	0.139658
O13	O	-4.381754	-0.130148	-0.428611
O14	O	-3.881754	0.369852	0.071389
O15	O	-4.739330	-0.036325	-0.313450
O16	O	-4.239330	0.463675	0.186550
O17	O	-4.311833	0.099429	-0.360921
O18	O	-3.811833	0.599429	0.139079
O19	O	-4.793067	-0.257807	-0.369721
O20	O	-4.293067	0.242193	0.130279
O21	O	-4.698879	-0.042819	-0.537004
O22	O	-4.198879	0.457181	-0.037004
O23	O	-4.405374	-0.114080	-0.194788
O24	O	-3.905374	0.385920	0.305212
C25	C	-4.001926	-0.309501	-0.375643
C26	C	-3.501926	0.190499	0.124357
C27	C	-4.113564	-0.451469	-0.376273
C28	C	-3.613564	0.048531	0.123727
C29	C	-3.987453	-0.509877	-0.370707
C30	C	-3.487453	-0.009877	0.129293
C31	C	-4.102834	-0.656607	-0.371359
C32	C	-3.602834	-0.156607	0.128641
C33	C	-3.882603	-0.037148	-0.587560
C34	C	-3.382603	0.462852	-0.087560
C35	C	-3.918378	-0.005961	-0.722914
C36	C	-3.418378	0.494039	-0.222914
C37	C	-4.026636	-0.099345	-0.801079
C38	C	-3.526636	0.400655	-0.301079
C39	C	-4.063613	-0.067114	-0.940975
C40	C	-3.563613	0.432886	-0.440975
C41	C	-4.109100	0.143021	-0.366415
C42	C	-3.609100	0.643021	0.133585
C43	C	-3.976699	0.284989	-0.365792
C44	C	-3.476699	0.784989	0.134208
C45	C	-4.228421	-0.129331	-0.154495
C46	C	-3.728421	0.370669	0.345505
C47	C	-4.171882	-0.160511	-0.019139
C48	C	-3.671882	0.339489	0.480861
H49	H	-3.783301	-0.656394	-0.360541
H50	H	-3.283301	-0.156394	0.139459
H51	H	-4.306947	-0.510093	-0.381508
H52	H	-3.806947	-0.010093	0.118492
H53	H	-3.794063	-0.451254	-0.365453
H54	H	-3.294063	0.048746	0.134547
H55	H	-4.296226	-0.715227	-0.376594
H56	H	-3.796226	-0.215227	0.123406
H57	H	-3.853081	0.097848	-0.759564
H58	H	-3.353081	0.597848	-0.259564
Br59	Br	-4.135529	-0.272376	-0.740010
Br60	Br	-3.635529	0.227624	-0.240010
Br61	Br	-3.954766	0.105922	-1.002040
Br62	Br	-3.454766	0.605922	-0.502040
H63	H	-4.237205	-0.264329	-0.982498
H64	H	-3.737205	0.235671	-0.482498
