data_functionalizedCrystal
_audit_creation_method	'MofGen! by Chris Wilmer'
_symmetry_space_group_name_H-M	'P1'
_symmetry_Int_Tables_number	1
_symmetry_cell_setting	triclinic
loop_
_symmetry_equiv_pos_as_xyz
  x,y,z
_cell_length_a	14.971482
_cell_length_b	15.995292
_cell_length_c	14.048226
_cell_angle_alpha	89.996759
_cell_angle_beta	89.994098
_cell_angle_gamma	83.540612
loop_
_atom_site_label
_atom_site_type_symbol
_atom_site_fract_x
_atom_site_fract_y
_atom_site_fract_z
O1	O	1.186800	0.109104	-0.079141
O2	O	1.520133	0.442438	0.254192
O3	O	1.853467	0.775771	0.587525
O4	O	0.926382	0.122175	-0.079145
O5	O	1.259715	0.455508	0.254188
O6	O	1.593048	0.788842	0.587522
O7	O	1.063737	-0.006244	-0.079145
O8	O	1.397070	0.327089	0.254189
O9	O	1.730403	0.660422	0.587522
O10	O	1.049445	0.237524	-0.079142
O11	O	1.382778	0.570857	0.254191
O12	O	1.716112	0.904190	0.587525
O13	O	1.063720	-0.006252	0.079177
O14	O	1.397054	0.327082	0.412510
O15	O	1.730387	0.660415	0.745843
O16	O	0.926365	0.122167	0.079176
O17	O	1.259699	0.455501	0.412509
O18	O	1.593032	0.788834	0.745843
O19	O	1.186784	0.109097	0.079180
O20	O	1.520117	0.442430	0.412513
O21	O	1.853450	0.775764	0.745847
Zn22	Zn	1.056572	0.115631	0.104315
Zn23	Zn	1.389905	0.448964	0.437648
Zn24	Zn	1.723238	0.782298	0.770982
Zn25	Zn	1.056594	0.115641	-0.104280
Zn26	Zn	1.389927	0.448974	0.229053
Zn27	Zn	1.723260	0.782308	0.562386
O28	O	1.049429	0.237516	0.079179
O29	O	1.382762	0.570849	0.412513
O30	O	1.716095	0.904183	0.745846
C31	C	0.893049	0.121587	0.000015
C32	C	1.226383	0.454921	0.333348
C33	C	1.559716	0.788254	0.666682
C34	C	0.793755	0.119837	0.000013
C35	C	1.127088	0.453170	0.333347
C36	C	1.460421	0.786504	0.666680
C37	C	0.747102	0.119009	0.086315
C38	C	1.080435	0.452342	0.419648
C39	C	1.413769	0.785675	0.752982
C40	C	0.653806	0.117351	0.086316
C41	C	0.987139	0.450684	0.419649
C42	C	1.320473	0.784018	0.752983
C43	C	0.607163	0.116528	0.000014
C44	C	0.940496	0.449861	0.333348
C45	C	1.273830	0.783194	0.666681
C46	C	0.653822	0.117354	-0.086294
C47	C	0.987156	0.450687	0.247039
C48	C	1.320489	0.784020	0.580372
C49	C	0.747118	0.119005	-0.086294
C50	C	1.080451	0.452339	0.247039
C51	C	1.413784	0.785672	0.580372
C52	C	0.459365	0.113913	-0.086288
C53	C	0.792699	0.447246	0.247045
C54	C	1.126032	0.780580	0.580378
C55	C	0.366063	0.112263	-0.086289
C56	C	0.699397	0.445596	0.247045
C57	C	1.032730	0.778930	0.580378
C58	C	0.366053	0.112259	0.086322
C59	C	0.699387	0.445592	0.419656
C60	C	1.032720	0.778926	0.752989
C61	C	0.459349	0.113911	0.086322
C62	C	0.792682	0.447244	0.419656
C63	C	1.126015	0.780577	0.752989
C64	C	0.506001	0.114738	0.000013
C65	C	0.839335	0.448071	0.333347
C66	C	1.172668	0.781405	0.666680
C67	C	1.063147	-0.037444	0.000014
C68	C	1.396480	0.295889	0.333347
C69	C	1.729813	0.629222	0.666680
C70	C	1.061403	-0.130399	0.000006
C71	C	1.394736	0.202934	0.333340
C72	C	1.728070	0.536268	0.666673
C73	C	1.054992	-0.468144	0.000015
C74	C	1.388325	-0.134810	0.333348
C75	C	1.721659	0.198523	0.666682
C76	C	1.154131	-0.444733	0.000370
C77	C	1.487465	-0.111400	0.333704
C78	C	1.820798	0.221933	0.667037
C79	C	1.156016	-0.348056	0.000010
C80	C	1.489349	-0.014723	0.333343
C81	C	1.822682	0.318611	0.666677
C82	C	1.058173	-0.300585	0.000011
C83	C	1.391507	0.032749	0.333345
C84	C	1.724840	0.366082	0.666678
C85	C	1.008618	-0.329730	-0.090396
C86	C	1.341951	0.003603	0.242938
C87	C	1.675284	0.336936	0.576271
C88	C	1.007424	-0.426522	-0.090468
C89	C	1.340758	-0.093189	0.242865
C90	C	1.674091	0.240145	0.576199
C91	C	1.005381	-0.426390	0.089573
C92	C	1.338714	-0.093056	0.422906
C93	C	1.672048	0.240277	0.756240
C94	C	1.009055	-0.329894	0.090764
C95	C	1.342388	0.003440	0.424098
C96	C	1.675721	0.336773	0.757431
C97	C	1.059966	-0.205887	0.000006
C98	C	1.393299	0.127447	0.333339
C99	C	1.726632	0.460780	0.666673
C100	C	1.053197	-0.562841	0.000014
C101	C	1.386530	-0.229508	0.333347
C102	C	1.719863	0.103825	0.666681
C103	C	1.220116	0.109685	0.000018
C104	C	1.553449	0.443018	0.333351
C105	C	1.886783	0.776351	0.666684
C106	C	1.319411	0.111435	0.000013
C107	C	1.652744	0.444768	0.333347
C108	C	1.986077	0.778101	0.666680
C109	C	1.050018	0.268716	0.000019
C110	C	1.383352	0.602049	0.333352
C111	C	1.716685	0.935383	0.666686
C112	C	1.051762	0.361671	0.000020
C113	C	1.385096	0.695004	0.333353
C114	C	1.718429	1.028337	0.666687
N115	N	1.056563	0.115624	0.246676
N116	N	1.389897	0.448957	0.580009
N117	N	1.723230	0.782290	0.913342
N118	N	1.056609	0.115642	-0.246641
N119	N	1.389942	0.448975	0.086692
N120	N	1.723276	0.782308	0.420026
C121	C	1.117403	0.058783	0.296494
C122	C	1.450737	0.392116	0.629827
C123	C	1.784070	0.725450	0.963161
C124	C	1.117409	0.058783	0.396152
C125	C	1.450743	0.392116	0.729485
C126	C	1.784076	0.725449	1.062818
C127	C	1.056579	0.115627	0.445989
C128	C	1.389912	0.448961	0.779322
C129	C	1.723246	0.782294	1.112656
C130	C	0.995733	0.172470	0.396164
C131	C	1.329066	0.505804	0.729497
C132	C	1.662399	0.839137	1.062831
C133	C	0.995723	0.172466	0.296508
C134	C	1.329056	0.505800	0.629841
C135	C	1.662390	0.839133	0.963175
C136	C	0.995759	0.172477	0.603878
C137	C	1.329092	0.505810	0.937211
C138	C	1.662425	0.839143	1.270545
C139	C	0.995769	0.172482	0.703541
C140	C	1.329102	0.505815	1.036874
C141	C	1.662436	0.839149	1.370208
C142	C	1.117445	0.058793	0.703522
C143	C	1.450778	0.392126	1.036855
C144	C	1.784111	0.725460	1.370188
C145	C	1.117435	0.058789	0.603866
C146	C	1.450769	0.392122	0.937199
C147	C	1.784102	0.725455	1.270533
C148	C	1.056590	0.115633	0.554047
C149	C	1.389923	0.448967	0.887381
C150	C	1.723256	0.782300	1.220714
H151	H	0.785071	0.119686	0.156592
H152	H	1.118404	0.453019	0.489926
H153	H	1.451738	0.786353	0.823259
H154	H	1.036595	-0.454451	0.158101
H155	H	1.369928	-0.121117	0.491435
H156	H	1.703262	0.212216	0.824768
H157	H	0.936619	-0.297934	-0.093756
H158	H	1.269952	0.035400	0.239577
H159	H	1.603286	0.368733	0.572911
H160	H	0.946209	0.218763	0.563319
H161	H	1.279542	0.552096	0.896653
H162	H	1.612875	0.885429	1.229986
H163	H	0.497347	0.114587	-0.156570
H164	H	0.830680	0.447921	0.176763
H165	H	1.164014	0.781254	0.510096
H166	H	0.497322	0.114586	0.156597
H167	H	0.830655	0.447919	0.489930
H168	H	1.163989	0.781253	0.823264
H169	H	1.194827	-0.328995	0.064816
H170	H	1.528160	0.004338	0.398149
H171	H	1.861493	0.337671	0.731482
H172	H	1.192337	-0.472696	0.065205
H173	H	1.525671	-0.139363	0.398538
H174	H	1.859004	0.193971	0.731872
H175	H	0.615828	0.116663	0.156592
H176	H	0.949161	0.449996	0.489925
H177	H	1.282494	0.783329	0.823259
H178	H	1.043044	-0.309633	-0.157677
H179	H	1.376377	0.023701	0.175657
H180	H	1.709711	0.357034	0.508990
H181	H	1.041758	-0.453301	-0.158050
H182	H	1.375091	-0.119968	0.175284
H183	H	1.708425	0.213366	0.508617
H184	H	0.328064	0.111585	0.156598
H185	H	0.661398	0.444919	0.489932
H186	H	0.994731	0.778252	0.823265
H187	H	0.946199	0.218752	0.436747
H188	H	1.279532	0.552085	0.770081
H189	H	1.612866	0.885418	1.103414
H190	H	0.328089	0.111593	-0.156563
H191	H	0.661422	0.444927	0.176770
H192	H	0.994756	0.778260	0.510103
H193	H	0.946234	0.218770	0.744114
H194	H	1.279567	0.552103	1.077447
H195	H	1.612900	0.885437	1.410780
H196	H	0.934735	-0.441144	-0.094563
H197	H	1.268068	-0.107811	0.238770
H198	H	1.601402	0.225523	0.572104
H199	H	0.946180	0.218750	0.255947
H200	H	1.279513	0.552084	0.589280
H201	H	1.612847	0.885417	0.922614
H202	H	0.785101	0.119681	-0.156570
H203	H	1.118434	0.453015	0.176763
H204	H	1.451767	0.786348	0.510096
H205	H	0.615839	0.116677	-0.156563
H206	H	0.949173	0.450011	0.176770
H207	H	1.282506	0.783344	0.510104
H208	H	1.192139	-0.473710	-0.064100
H209	H	1.525472	-0.140377	0.269234
H210	H	1.858805	0.192956	0.602567
H211	H	1.195069	-0.329610	-0.064909
H212	H	1.528402	0.003724	0.268424
H213	H	1.861736	0.337057	0.601757
H214	H	1.166972	0.012506	0.563288
H215	H	1.500305	0.345839	0.896622
H216	H	1.833638	0.679172	1.229955
H217	H	1.166949	0.012498	0.436713
H218	H	1.500282	0.345832	0.770047
H219	H	1.833616	0.679165	1.103380
H220	H	1.045139	-0.311296	0.157647
H221	H	1.378472	0.022038	0.490980
H222	H	1.711805	0.355371	0.824314
H223	H	0.937639	-0.296995	0.096225
H224	H	1.270972	0.036338	0.429559
H225	H	1.604306	0.369672	0.762892
H226	H	1.166987	0.012508	0.744090
H227	H	1.500320	0.345842	1.077423
H228	H	1.833654	0.679175	1.410756
H229	H	0.932407	-0.440452	0.090183
H230	H	1.265740	-0.107119	0.423516
H231	H	1.599074	0.226214	0.756850
H232	H	1.166942	0.012497	0.255923
H233	H	1.500275	0.345830	0.589256
H234	H	1.833609	0.679164	0.922589
