data_functionalizedCrystal
_audit_creation_method	'MofGen! by Chris Wilmer'
_symmetry_space_group_name_H-M	'P1'
_symmetry_Int_Tables_number	1
_symmetry_cell_setting	triclinic
loop_
_symmetry_equiv_pos_as_xyz
  x,y,z
_cell_length_a	11.169417
_cell_length_b	17.640280
_cell_length_c	11.169409
_cell_angle_alpha	101.234358
_cell_angle_beta	90.019824
_cell_angle_gamma	78.801822
loop_
_atom_site_label
_atom_site_type_symbol
_atom_site_fract_x
_atom_site_fract_y
_atom_site_fract_z
Zn1	Zn	1.931511	-0.314589	0.582049
Zn2	Zn	2.431511	0.185411	1.082049
Zn3	Zn	1.971974	-0.446792	0.340816
Zn4	Zn	2.471974	0.053208	0.840816
Zn5	Zn	1.730812	-0.314638	0.381369
Zn6	Zn	2.230812	0.185362	0.881369
Zn7	Zn	1.771358	-0.446728	0.541481
Zn8	Zn	2.271358	0.053272	1.041481
O9	O	1.851414	-0.380687	0.461429
O10	O	2.351414	0.119313	0.961429
O11	O	2.104830	-0.332133	0.550056
O12	O	2.604830	0.167867	1.050056
O13	O	1.939948	-0.429309	0.178231
O14	O	2.439948	0.070691	0.678231
O15	O	1.723532	-0.204024	0.441939
O16	O	2.223532	0.295976	0.941939
O17	O	2.134558	-0.429262	0.372823
O18	O	2.634558	0.070738	0.872823
O19	O	1.870985	-0.203988	0.589378
O20	O	2.370985	0.296012	1.089378
O21	O	1.762767	-0.332215	0.208025
O22	O	2.262767	0.167785	0.708025
O23	O	1.568238	-0.332153	0.402602
O24	O	2.068238	0.167847	0.902602
O25	O	1.792638	-0.429152	0.714827
O26	O	2.292638	0.070848	1.214827
O27	O	1.598028	-0.429199	0.520235
O28	O	2.098028	0.070801	1.020235
O29	O	1.910301	-0.332071	0.744632
O30	O	2.410301	0.167929	1.244632
O31	O	1.979264	-0.557391	0.333485
O32	O	2.479264	-0.057391	0.833485
O33	O	1.831873	-0.557344	0.480912
O34	O	2.331873	-0.057344	0.980912
C35	C	1.539585	-0.380675	0.461417
C36	C	2.039585	0.119325	0.961417
C37	C	1.406189	-0.380689	0.461435
C38	C	1.906189	0.119311	0.961435
C39	C	1.914392	-0.586047	0.398422
C40	C	2.414392	-0.086047	0.898422
C41	C	1.941444	-0.673901	0.371508
C42	C	2.441444	-0.173901	0.871508
C43	C	1.646394	-0.962856	0.666331
C44	C	2.146394	-0.462856	1.166331
C45	C	1.671816	-1.045408	0.641003
C46	C	2.171816	-0.545408	1.141003
C47	C	1.825390	-1.045391	0.487642
C48	C	2.325390	-0.545391	0.987642
C49	C	1.799985	-0.962838	0.512961
C50	C	2.299985	-0.462838	1.012961
C51	C	1.710485	-0.921576	0.602306
C52	C	2.210485	-0.421576	1.102306
C53	C	1.864076	-0.921558	0.448937
C54	C	2.364076	-0.421558	0.948937
C55	C	1.838668	-0.839012	0.474250
C56	C	2.338668	-0.339012	0.974250
C57	C	1.749170	-0.797745	0.563589
C58	C	2.249170	-0.297745	1.063589
C59	C	1.685077	-0.839030	0.627620
C60	C	2.185077	-0.339030	1.127620
C61	C	1.953570	-0.962821	0.359586
C62	C	2.453570	-0.462821	0.859586
C63	C	2.017661	-0.921542	0.295561
C64	C	2.517661	-0.421542	0.795561
C65	C	1.992259	-0.838994	0.320881
C66	C	2.492259	-0.338994	0.820881
C67	C	1.902761	-0.797727	0.410219
C68	C	2.402761	-0.297727	0.910219
C69	C	2.056352	-0.797709	0.256849
C70	C	2.556352	-0.297709	0.756849
C71	C	2.030944	-0.715162	0.282163
C72	C	2.530944	-0.215162	0.782163
C73	C	1.877353	-0.715180	0.435532
C74	C	2.377353	-0.215180	0.935532
C75	C	2.164460	-0.380699	0.461441
C76	C	2.664460	0.119301	0.961441
C77	C	2.297861	-0.380705	0.461446
C78	C	2.797861	0.119295	0.961446
C79	C	1.851479	-0.380599	0.774498
C80	C	2.351479	0.119401	1.274498
C81	C	1.851507	-0.380562	0.907910
C82	C	2.351507	0.119438	1.407910
C83	C	1.788222	-0.174525	0.524708
C84	C	2.288222	0.325475	1.024708
C85	C	1.761294	-0.086671	0.551674
C86	C	2.261294	0.413329	1.051674
C87	C	1.851400	-0.380717	0.149595
C88	C	2.351400	0.119283	0.649595
C89	C	1.851537	-0.380532	0.016252
C90	C	2.351537	0.119468	0.516252
H91	H	1.804482	-0.681583	0.508295
H92	H	2.304482	-0.181583	1.008295
H93	H	2.129214	-0.831316	0.184097
H94	H	2.629214	-0.331316	0.684097
Cl95	Cl	1.937903	-1.097270	0.375330
Cl96	Cl	2.437903	-0.597270	0.875330
Cl97	Cl	2.130174	-0.973421	0.183250
Cl98	Cl	2.630174	-0.473421	0.683250
Cl99	Cl	1.717502	-0.693970	0.595690
Cl100	Cl	2.217502	-0.193970	1.095690
H101	H	2.083133	-0.681552	0.230026
H102	H	2.583133	-0.181552	0.730026
H103	H	1.573523	-0.929259	0.739094
H104	H	2.073523	-0.429259	1.239094
H105	H	1.612206	-0.805433	0.700383
H106	H	2.112206	-0.305433	1.200383
Cl107	Cl	1.985554	-1.066596	0.327807
Cl108	Cl	2.485554	-0.566596	0.827807
Cl109	Cl	1.591220	-1.097299	0.721488
Cl110	Cl	2.091220	-0.597299	1.221488
