data_functionalizedCrystal
_audit_creation_method	'MofGen! by Chris Wilmer'
_symmetry_space_group_name_H-M	'P1'
_symmetry_Int_Tables_number	1
_symmetry_cell_setting	triclinic
loop_
_symmetry_equiv_pos_as_xyz
  x,y,z
_cell_length_a	17.699097
_cell_length_b	14.044190
_cell_length_c	16.176319
_cell_angle_alpha	89.988653
_cell_angle_beta	89.988988
_cell_angle_gamma	88.240103
loop_
_atom_site_label
_atom_site_type_symbol
_atom_site_fract_x
_atom_site_fract_y
_atom_site_fract_z
O1	O	1.012347	0.119911	-0.068825
O2	O	1.345680	0.453244	0.264508
O3	O	1.679013	0.786577	0.597842
O4	O	0.793045	0.135491	-0.068813
O5	O	1.126378	0.468824	0.264520
O6	O	1.459711	0.802157	0.597854
O7	O	0.899401	-0.010277	-0.068803
O8	O	1.232734	0.323057	0.264531
O9	O	1.566068	0.656390	0.597864
O10	O	0.905990	0.265678	-0.068835
O11	O	1.239323	0.599011	0.264498
O12	O	1.572657	0.932345	0.597831
O13	O	0.899384	-0.010286	0.068691
O14	O	1.232718	0.323047	0.402024
O15	O	1.566051	0.656381	0.735357
O16	O	0.793028	0.135481	0.068680
O17	O	1.126361	0.468815	0.402014
O18	O	1.459695	0.802148	0.735347
O19	O	1.012330	0.119902	0.068668
O20	O	1.345663	0.453235	0.402001
O21	O	1.678997	0.786568	0.735335
Cu22	Cu	0.902677	0.127691	0.081228
Cu23	Cu	1.236011	0.461024	0.414562
Cu24	Cu	1.569344	0.794357	0.747895
Cu25	Cu	0.902697	0.127702	-0.081373
Cu26	Cu	1.236030	0.461035	0.251960
Cu27	Cu	1.569364	0.794368	0.585293
O28	O	0.905973	0.265669	0.068658
O29	O	1.239307	0.599002	0.401991
O30	O	1.572640	0.932335	0.735324
C31	C	0.764801	0.134926	-0.000065
C32	C	1.098134	0.468259	0.333269
C33	C	1.431467	0.801592	0.666602
C34	C	0.680667	0.133244	-0.000059
C35	C	1.014001	0.466578	0.333274
C36	C	1.347334	0.799911	0.666607
C37	C	0.164247	0.122945	-0.075039
C38	C	0.497580	0.456278	0.258294
C39	C	0.830914	0.789611	0.591628
C40	C	0.243300	0.124518	-0.075035
C41	C	0.576633	0.457851	0.258298
C42	C	0.909966	0.791184	0.591632
C43	C	0.282811	0.125301	-0.000084
C44	C	0.616144	0.458634	0.333249
C45	C	0.949478	0.791967	0.666582
C46	C	0.243266	0.124501	0.074868
C47	C	0.576599	0.457834	0.408201
C48	C	0.909932	0.791168	0.741534
C49	C	0.164215	0.122921	0.074863
C50	C	0.497548	0.456254	0.408196
C51	C	0.830881	0.789588	0.741529
C52	C	0.562069	0.130871	0.074889
C53	C	0.895403	0.464205	0.408222
C54	C	1.228736	0.797538	0.741555
C55	C	0.641126	0.132454	0.074888
C56	C	0.974459	0.465788	0.408221
C57	C	1.307792	0.799121	0.741554
C58	C	0.641154	0.132468	-0.075009
C59	C	0.974488	0.465801	0.258324
C60	C	1.307821	0.799135	0.591657
C61	C	0.562103	0.130888	-0.075014
C62	C	0.895437	0.464221	0.258319
C63	C	1.228770	0.797555	0.591653
C64	C	0.522565	0.130083	-0.000063
C65	C	0.855899	0.463417	0.333271
C66	C	1.189232	0.796750	0.666604
C67	C	0.436847	0.128376	-0.000068
C68	C	0.770181	0.461709	0.333265
C69	C	1.103514	0.795043	0.666599
C70	C	0.368527	0.127015	-0.000078
C71	C	0.701860	0.460349	0.333255
C72	C	1.035194	0.793682	0.666589
C73	C	0.896510	-0.045589	-0.000053
C74	C	1.229844	0.287744	0.333280
C75	C	1.563177	0.621077	0.666613
C76	C	0.887912	-0.150796	-0.000046
C77	C	1.221246	0.182537	0.333288
C78	C	1.554579	0.515871	0.666621
C79	C	0.933172	-0.401184	-0.000081
C80	C	1.266506	-0.067851	0.333253
C81	C	1.599839	0.265483	0.666586
C82	C	0.872205	-0.343418	-0.000072
C83	C	1.205539	-0.010085	0.333262
C84	C	1.538872	0.323248	0.666595
C85	C	0.880947	-0.236234	-0.000057
C86	C	1.214280	0.097100	0.333276
C87	C	1.547613	0.430433	0.666609
C88	C	0.924432	-0.508379	-0.000095
C89	C	1.257766	-0.175045	0.333238
C90	C	1.591099	0.158288	0.666572
C91	C	1.040574	0.120467	-0.000082
C92	C	1.373907	0.453800	0.333251
C93	C	1.707240	0.787133	0.666585
C94	C	1.124707	0.122148	-0.000093
C95	C	1.458041	0.455481	0.333240
C96	C	1.791374	0.788814	0.666574
C97	C	0.908864	0.300981	-0.000093
C98	C	1.242198	0.634315	0.333240
C99	C	1.575531	0.967648	0.666573
C100	C	0.917462	0.406188	-0.000106
C101	C	1.250796	0.739521	0.333227
C102	C	1.584129	1.072855	0.666560
N103	N	0.902669	0.127682	0.195594
N104	N	1.236002	0.461016	0.528927
N105	N	1.569336	0.794349	0.862260
N106	N	0.902711	0.127702	-0.195738
N107	N	1.236044	0.461036	0.137595
N108	N	1.569378	0.794369	0.470928
C109	C	0.949781	0.063163	0.238862
C110	C	1.283114	0.396496	0.572196
C111	C	1.616448	0.729830	0.905529
C112	C	0.949785	0.063162	0.325409
C113	C	1.283118	0.396495	0.658743
C114	C	1.616451	0.729829	0.992076
C115	C	0.902680	0.127686	0.368686
C116	C	1.236013	0.461019	0.702020
C117	C	1.569347	0.794352	1.035353
C118	C	0.855563	0.192208	0.325411
C119	C	1.188896	0.525541	0.658745
C120	C	1.522229	0.858875	0.992078
C121	C	0.855556	0.192204	0.238866
C122	C	1.188889	0.525537	0.572199
C123	C	1.522222	0.858870	0.905532
C124	C	0.855590	0.192226	0.674440
C125	C	1.188923	0.525559	1.007773
C126	C	1.522257	0.858892	1.341106
C127	C	0.855602	0.192227	0.760991
C128	C	1.188936	0.525560	1.094324
C129	C	1.522269	0.858894	1.427658
C130	C	0.949819	0.063184	0.760983
C131	C	1.283152	0.396517	1.094317
C132	C	1.616486	0.729851	1.427650
C133	C	0.949812	0.063180	0.674438
C134	C	1.283145	0.396513	1.007771
C135	C	1.616479	0.729846	1.341104
C136	C	0.902692	0.127698	0.631170
C137	C	1.236025	0.461032	0.964504
C138	C	1.569359	0.794365	1.297837
C139	C	0.902688	0.127697	0.537326
C140	C	1.236021	0.461031	0.870660
C141	C	1.569354	0.794364	1.203993
C142	C	0.902688	0.127692	0.462529
C143	C	1.236021	0.461025	0.795862
C144	C	1.569355	0.794358	1.129195
H145	H	0.673356	0.133119	-0.136038
H146	H	1.006689	0.466453	0.197295
H147	H	1.340022	0.799786	0.530628
Cl148	Cl	0.796340	0.273321	0.379814
Cl149	Cl	1.129674	0.606654	0.713148
Cl150	Cl	1.463007	0.939987	1.046481
H151	H	0.673294	0.133092	0.135925
H152	H	1.006627	0.466425	0.469259
H153	H	1.339960	0.799758	0.802592
Cl154	Cl	0.512436	0.129908	-0.169242
Cl155	Cl	0.845769	0.463241	0.164092
Cl156	Cl	1.179103	0.796575	0.497425
Cl157	Cl	0.796359	0.273336	0.620052
Cl158	Cl	1.129692	0.606670	0.953386
Cl159	Cl	1.463025	0.940003	1.286719
Cl160	Cl	0.114508	0.121911	0.169085
Cl161	Cl	0.447841	0.455244	0.502418
Cl162	Cl	0.781174	0.788577	0.835751
H163	H	0.991928	-0.370142	-0.000075
H164	H	1.325262	-0.036809	0.333258
H165	H	1.658595	0.296524	0.666591
Cl166	Cl	0.796323	0.273315	0.184472
Cl167	Cl	1.129657	0.606648	0.517805
Cl168	Cl	1.462990	0.939981	0.851138
H169	H	0.988142	0.010624	0.203632
H170	H	1.321476	0.343958	0.536965
H171	H	1.654809	0.677291	0.870299
Cl172	Cl	0.114583	0.121967	-0.169269
Cl173	Cl	0.447916	0.455300	0.164065
Cl174	Cl	0.781250	0.788634	0.497398
H175	H	0.988146	0.010625	0.360639
H176	H	1.321480	0.343958	0.693972
H177	H	1.654813	0.677291	1.027305
Cl178	Cl	0.796379	0.273348	0.815395
Cl179	Cl	1.129712	0.606681	1.148729
Cl180	Cl	1.463046	0.940014	1.482062
H181	H	0.275490	0.125161	-0.136064
H182	H	0.608823	0.458494	0.197270
H183	H	0.942156	0.791827	0.530603
Cl184	Cl	0.512374	0.129886	0.169113
Cl185	Cl	0.845707	0.463219	0.502447
Cl186	Cl	1.179040	0.796552	0.835780
Cl187	Cl	0.781482	-0.391343	-0.000068
Cl188	Cl	1.114816	-0.058009	0.333266
Cl189	Cl	1.448149	0.275324	0.666599
Cl190	Cl	0.292937	0.125484	0.169092
Cl191	Cl	0.626271	0.458817	0.502426
Cl192	Cl	0.959604	0.792150	0.835759
Cl193	Cl	1.009034	-0.017935	0.620036
Cl194	Cl	1.342367	0.315398	0.953369
Cl195	Cl	1.675700	0.648731	1.286703
H196	H	0.988184	0.010646	0.796221
H197	H	1.321518	0.343979	1.129554
H198	H	1.654851	0.677313	1.462887
