data_functionalizedCrystal
_audit_creation_method	'MofGen! by Chris Wilmer'
_symmetry_space_group_name_H-M	'P1'
_symmetry_Int_Tables_number	1
_symmetry_cell_setting	triclinic
loop_
_symmetry_equiv_pos_as_xyz
  x,y,z
_cell_length_a	19.805407
_cell_length_b	19.805405
_cell_length_c	19.805382
_cell_angle_alpha	89.900407
_cell_angle_beta	89.928521
_cell_angle_gamma	90.024042
loop_
_atom_site_label
_atom_site_type_symbol
_atom_site_fract_x
_atom_site_fract_y
_atom_site_fract_z
Zn1	Zn	1.035093	-0.269040	-0.382693
Zn2	Zn	1.285093	-0.019040	-0.132693
Zn3	Zn	1.535093	0.230960	0.117307
Zn4	Zn	1.785093	0.480960	0.367307
Zn5	Zn	1.034901	-0.382372	-0.269507
Zn6	Zn	1.284901	-0.132372	-0.019507
Zn7	Zn	1.534901	0.117628	0.230493
Zn8	Zn	1.784901	0.367628	0.480493
Zn9	Zn	0.921801	-0.269197	-0.269521
Zn10	Zn	1.171801	-0.019197	-0.019521
Zn11	Zn	1.421801	0.230803	0.230479
Zn12	Zn	1.671801	0.480803	0.480479
Zn13	Zn	0.921870	-0.382187	-0.382657
Zn14	Zn	1.171870	-0.132187	-0.132657
Zn15	Zn	1.421870	0.117813	0.117343
Zn16	Zn	1.671870	0.367813	0.367343
O17	O	0.978416	-0.325699	-0.326095
O18	O	1.228416	-0.075699	-0.076095
O19	O	1.478416	0.174301	0.173905
O20	O	1.728416	0.424301	0.423905
O21	O	1.129784	-0.284085	-0.367688
O22	O	1.379784	-0.034085	-0.117688
O23	O	1.629784	0.215915	0.132312
O24	O	1.879784	0.465915	0.382312
O25	O	1.019789	-0.367503	-0.174792
O26	O	1.269789	-0.117503	0.075208
O27	O	1.519789	0.132497	0.325208
O28	O	1.769789	0.382497	0.575208
O29	O	0.936881	-0.174460	-0.284555
O30	O	1.186881	0.075540	-0.034555
O31	O	1.436881	0.325540	0.215445
O32	O	1.686881	0.575540	0.465445
O33	O	1.129643	-0.367350	-0.284530
O34	O	1.379643	-0.117350	-0.034530
O35	O	1.629643	0.132650	0.215470
O36	O	1.879643	0.382650	0.465470
O37	O	1.020116	-0.174344	-0.367702
O38	O	1.270116	0.075656	-0.117702
O39	O	1.520116	0.325656	0.132298
O40	O	1.770116	0.575656	0.382298
O41	O	0.936695	-0.284354	-0.174802
O42	O	1.186695	-0.034354	0.075198
O43	O	1.436695	0.215646	0.325198
O44	O	1.686695	0.465646	0.575198
O45	O	0.827094	-0.284174	-0.284520
O46	O	1.077094	-0.034174	-0.034520
O47	O	1.327094	0.215826	0.215480
O48	O	1.577094	0.465826	0.465480
O49	O	0.936999	-0.367034	-0.477379
O50	O	1.186999	-0.117034	-0.227379
O51	O	1.436999	0.132966	0.022621
O52	O	1.686999	0.382966	0.272621
O53	O	0.827145	-0.367187	-0.367640
O54	O	1.077145	-0.117187	-0.117640
O55	O	1.327145	0.132813	0.132360
O56	O	1.577145	0.382813	0.382360
O57	O	1.020183	-0.283905	-0.477405
O58	O	1.270183	-0.033905	-0.227405
O59	O	1.520183	0.216095	0.022595
O60	O	1.770183	0.466095	0.272595
O61	O	1.019856	-0.477064	-0.284495
O62	O	1.269856	-0.227064	-0.034495
O63	O	1.519856	0.022936	0.215505
O64	O	1.769856	0.272936	0.465505
O65	O	0.936813	-0.476928	-0.367626
O66	O	1.186813	-0.226928	-0.117626
O67	O	1.436813	0.023072	0.132374
O68	O	1.686813	0.273072	0.382374
C69	C	0.802560	-0.325678	-0.326078
C70	C	1.052560	-0.075678	-0.076078
C71	C	1.302560	0.174322	0.173922
C72	C	1.552560	0.424322	0.423922
C73	C	0.727328	-0.325685	-0.326087
C74	C	0.977328	-0.075685	-0.076087
C75	C	1.227328	0.174315	0.173913
C76	C	1.477328	0.424315	0.423913
C77	C	0.692058	-0.282406	-0.369453
C78	C	0.942058	-0.032406	-0.119453
C79	C	1.192058	0.217594	0.130547
C80	C	1.442058	0.467594	0.380547
C81	C	0.621370	-0.282409	-0.369456
C82	C	0.871370	-0.032409	-0.119456
C83	C	1.121370	0.217591	0.130544
C84	C	1.371370	0.467591	0.380544
C85	C	0.585953	-0.325696	-0.326095
C86	C	0.835953	-0.075696	-0.076095
C87	C	1.085953	0.174304	0.173905
C88	C	1.335953	0.424304	0.423905
C89	C	0.621228	-0.368978	-0.282724
C90	C	0.871228	-0.118978	-0.032724
C91	C	1.121228	0.131022	0.217276
C92	C	1.371228	0.381022	0.467276
C93	C	0.691915	-0.368970	-0.282719
C94	C	0.941915	-0.118970	-0.032719
C95	C	1.191915	0.131030	0.217281
C96	C	1.441915	0.381030	0.467281
C97	C	0.336155	-0.369008	-0.282745
C98	C	0.586155	-0.119008	-0.032745
C99	C	0.836155	0.130992	0.217255
C100	C	1.086155	0.380992	0.467255
C101	C	0.265462	-0.369014	-0.282756
C102	C	0.515462	-0.119014	-0.032756
C103	C	0.765462	0.130986	0.217244
C104	C	1.015462	0.380986	0.467244
C105	C	0.265610	-0.282447	-0.369482
C106	C	0.515610	-0.032447	-0.119482
C107	C	0.765610	0.217553	0.130518
C108	C	1.015610	0.467553	0.380518
C109	C	0.336297	-0.282440	-0.369477
C110	C	0.586297	-0.032440	-0.119477
C111	C	0.836297	0.217560	0.130523
C112	C	1.086297	0.467560	0.380523
C113	C	0.371565	-0.325718	-0.326104
C114	C	0.621565	-0.075718	-0.076104
C115	C	0.871565	0.174282	0.173896
C116	C	1.121565	0.424282	0.423896
C117	C	0.448214	-0.325713	-0.326100
C118	C	0.698214	-0.075713	-0.076100
C119	C	0.948214	0.174287	0.173900
C120	C	1.198214	0.424287	0.423900
C121	C	0.509306	-0.325705	-0.326101
C122	C	0.759306	-0.075705	-0.076101
C123	C	1.009306	0.174295	0.173899
C124	C	1.259306	0.424295	0.423899
C125	C	0.978339	-0.501555	-0.326070
C126	C	1.228339	-0.251555	-0.076070
C127	C	1.478339	-0.001555	0.173930
C128	C	1.728339	0.248445	0.423930
C129	C	0.978368	-0.576787	-0.326082
C130	C	1.228368	-0.326787	-0.076082
C131	C	1.478368	-0.076787	0.173918
C132	C	1.728368	0.173213	0.423918
C133	C	1.021683	-0.612013	-0.369411
C134	C	1.271683	-0.362013	-0.119411
C135	C	1.521683	-0.112013	0.130589
C136	C	1.771683	0.137987	0.380589
C137	C	1.021707	-0.682701	-0.369423
C138	C	1.271707	-0.432701	-0.119423
C139	C	1.521707	-0.182701	0.130577
C140	C	1.771707	0.067299	0.380577
C141	C	0.978420	-0.718163	-0.326104
C142	C	1.228420	-0.468163	-0.076104
C143	C	1.478420	-0.218163	0.173896
C144	C	1.728420	0.031837	0.423896
C145	C	0.935100	-0.682932	-0.282773
C146	C	1.185100	-0.432932	-0.032773
C147	C	1.435100	-0.182932	0.217227
C148	C	1.685100	0.067068	0.467227
C149	C	0.935073	-0.612245	-0.282764
C150	C	1.185073	-0.362245	-0.032764
C151	C	1.435073	-0.112245	0.217236
C152	C	1.685073	0.137755	0.467236
C153	C	0.935209	-0.968005	-0.282808
C154	C	1.185209	-0.718005	-0.032808
C155	C	1.435209	-0.468005	0.217192
C156	C	1.685209	-0.218005	0.467192
C157	C	0.935241	-1.038697	-0.282818
C158	C	1.185241	-0.788697	-0.032818
C159	C	1.435241	-0.538697	0.217182
C160	C	1.685241	-0.288697	0.467182
C161	C	1.021843	-1.038461	-0.369467
C162	C	1.271843	-0.788461	-0.119467
C163	C	1.521843	-0.538461	0.130533
C164	C	1.771843	-0.288461	0.380533
C165	C	1.021816	-0.967774	-0.369458
C166	C	1.271816	-0.717774	-0.119458
C167	C	1.521816	-0.467774	0.130542
C168	C	1.771816	-0.217774	0.380542
C169	C	0.978494	-0.932550	-0.326130
C170	C	1.228494	-0.682550	-0.076130
C171	C	1.478494	-0.432550	0.173870
C172	C	1.728494	-0.182550	0.423870
C173	C	0.978468	-0.855902	-0.326118
C174	C	1.228468	-0.605902	-0.076118
C175	C	1.478468	-0.355902	0.173882
C176	C	1.728468	-0.105902	0.423882
C177	C	0.978450	-0.794810	-0.326112
C178	C	1.228450	-0.544810	-0.076112
C179	C	1.478450	-0.294810	0.173888
C180	C	1.728450	-0.044810	0.423888
C181	C	1.154959	-0.325721	-0.326111
C182	C	1.404959	-0.075721	-0.076111
C183	C	1.654959	0.174279	0.173889
C184	C	1.904959	0.424279	0.423889
C185	C	1.230191	-0.325730	-0.326119
C186	C	1.480191	-0.075730	-0.076119
C187	C	1.730191	0.174270	0.173881
C188	C	1.980191	0.424270	0.423881
C189	C	0.978620	-0.325432	-0.502638
C190	C	1.228620	-0.075432	-0.252638
C191	C	1.478620	0.174568	-0.002638
C192	C	1.728620	0.424568	0.247362
C193	C	0.978707	-0.325317	-0.577870
C194	C	1.228707	-0.075317	-0.327870
C195	C	1.478707	0.174683	-0.077870
C196	C	1.728707	0.424683	0.172130
C197	C	0.978512	-0.149156	-0.326134
C198	C	1.228512	0.100844	-0.076134
C199	C	1.478512	0.350844	0.173866
C200	C	1.728512	0.600844	0.423866
C201	C	0.978553	-0.073924	-0.326151
C202	C	1.228553	0.176076	-0.076151
C203	C	1.478553	0.426076	0.173849
C204	C	1.728553	0.676076	0.423849
C205	C	0.978253	-0.325917	-0.150238
C206	C	1.228253	-0.075917	0.099762
C207	C	1.478253	0.174083	0.349762
C208	C	1.728253	0.424083	0.599762
C209	C	0.978297	-0.325840	-0.075006
C210	C	1.228297	-0.075840	0.174994
C211	C	1.478297	0.174160	0.424994
C212	C	1.728297	0.424160	0.674994
C213	C	1.021673	-0.281763	0.386578
C214	C	1.271673	-0.031763	0.636578
C215	C	1.521673	0.218237	0.886578
C216	C	1.771673	0.468237	1.136578
C217	C	1.021613	-0.281834	0.315890
C218	C	1.271613	-0.031834	0.565890
C219	C	1.521613	0.218166	0.815890
C220	C	1.771613	0.468166	1.065890
C221	C	0.978589	-0.325464	0.280755
C222	C	1.228589	-0.075464	0.530755
C223	C	1.478589	0.174536	0.780755
C224	C	1.728589	0.424536	1.030755
C225	C	0.935618	-0.369021	0.316311
C226	C	1.185618	-0.119021	0.566311
C227	C	1.435618	0.130979	0.816311
C228	C	1.685618	0.380979	1.066311
C229	C	0.935676	-0.368946	0.386998
C230	C	1.185676	-0.118946	0.636998
C231	C	1.435676	0.131054	0.886998
C232	C	1.685676	0.381054	1.136998
C233	C	0.935386	-0.369326	0.031239
C234	C	1.185386	-0.119326	0.281239
C235	C	1.435386	0.130674	0.531239
C236	C	1.685386	0.380674	0.781239
C237	C	0.935334	-0.369399	-0.039453
C238	C	1.185334	-0.119399	0.210547
C239	C	1.435334	0.130601	0.460547
C240	C	1.685334	0.380601	0.710547
C241	C	1.021323	-0.282214	-0.039870
C242	C	1.271323	-0.032214	0.210130
C243	C	1.521323	0.217786	0.460130
C244	C	1.771323	0.467786	0.710130
C245	C	1.021381	-0.282138	0.030817
C246	C	1.271381	-0.032138	0.280817
C247	C	1.521381	0.217862	0.530817
C248	C	1.771381	0.467862	0.780817
C249	C	0.978407	-0.325692	0.066368
C250	C	1.228407	-0.075692	0.316368
C251	C	1.478407	0.174308	0.566368
C252	C	1.728407	0.424308	0.816368
C253	C	0.978472	-0.325613	0.143016
C254	C	1.228472	-0.075613	0.393016
C255	C	1.478472	0.174387	0.643016
C256	C	1.728472	0.424387	0.893016
C257	C	0.978528	-0.325547	0.204108
C258	C	1.228528	-0.075547	0.454108
C259	C	1.478528	0.174453	0.704108
C260	C	1.728528	0.424453	0.954108
H261	H	0.236628	-0.404265	-0.247444
H262	H	0.486628	-0.154265	0.002556
H263	H	0.736628	0.095735	0.252556
H264	H	0.986628	0.345735	0.502556
Br265	Br	0.573163	-0.427720	-0.223872
Br266	Br	0.823163	-0.177720	0.026128
Br267	Br	1.073163	0.072280	0.276128
Br268	Br	1.323163	0.322280	0.526128
Br269	Br	1.079645	-0.223102	-0.088120
Br270	Br	1.329645	0.026898	0.161880
Br271	Br	1.579645	0.276898	0.411880
Br272	Br	1.829645	0.526898	0.661880
Br273	Br	0.739783	-0.427708	-0.223861
Br274	Br	0.989783	-0.177708	0.026139
Br275	Br	1.239783	0.072292	0.276139
Br276	Br	1.489783	0.322292	0.526139
Br277	Br	1.079775	-0.222927	0.078498
Br278	Br	1.329775	0.027073	0.328498
Br279	Br	1.579775	0.277073	0.578498
Br280	Br	1.829775	0.527073	0.828498
Br281	Br	0.877064	-0.428433	0.079477
Br282	Br	1.127064	-0.178433	0.329477
Br283	Br	1.377064	0.071567	0.579477
Br284	Br	1.627064	0.321567	0.829477
Br285	Br	0.876407	-0.920210	-0.224014
Br286	Br	1.126407	-0.670210	0.025986
Br287	Br	1.376407	-0.420210	0.275986
Br288	Br	1.626407	-0.170210	0.525986
Br289	Br	1.080439	-0.563893	-0.428200
Br290	Br	1.330439	-0.313893	-0.178200
Br291	Br	1.580439	-0.063893	0.071800
Br292	Br	1.830439	0.186107	0.321800
H293	H	1.056984	-0.711379	-0.404701
H294	H	1.306984	-0.461379	-0.154701
H295	H	1.556984	-0.211379	0.095299
H296	H	1.806984	0.038621	0.345299
Br297	Br	0.876942	-0.428617	-0.087137
Br298	Br	1.126942	-0.178617	0.162863
Br299	Br	1.376942	0.071383	0.412863
Br300	Br	1.626942	0.321383	0.662863
Br301	Br	0.877224	-0.428231	0.268628
Br302	Br	1.127224	-0.178231	0.518628
Br303	Br	1.377224	0.071769	0.768628
Br304	Br	1.627224	0.321769	1.018628
H305	H	0.364862	-0.404249	-0.247429
H306	H	0.614862	-0.154249	0.002571
H307	H	0.864862	0.095751	0.252571
H308	H	1.114862	0.345751	0.502571
Br309	Br	0.877358	-0.428054	0.435248
Br310	Br	1.127358	-0.178054	0.685248
Br311	Br	1.377358	0.071946	0.935248
Br312	Br	1.627358	0.321946	1.185248
Br313	Br	1.080070	-0.222552	0.434255
Br314	Br	1.330070	0.027448	0.684255
Br315	Br	1.580070	0.277448	0.934255
Br316	Br	1.830070	0.527448	1.184255
H317	H	0.720890	-0.247158	-0.404764
H318	H	0.970890	0.002842	-0.154764
H319	H	1.220890	0.252842	0.095236
H320	H	1.470890	0.502842	0.345236
H321	H	1.057116	-1.067150	-0.404749
H322	H	1.307116	-0.817150	-0.154749
H323	H	1.557116	-0.567150	0.095251
H324	H	1.807116	-0.317150	0.345251
Br325	Br	0.573506	-0.223670	-0.428313
Br326	Br	0.823506	0.026330	-0.178313
Br327	Br	1.073506	0.276330	0.071687
Br328	Br	1.323506	0.526330	0.321687
H329	H	0.365130	-0.247193	-0.404788
H330	H	0.615130	0.002807	-0.154788
H331	H	0.865130	0.252807	0.095212
H332	H	1.115130	0.502807	0.345212
H333	H	1.057067	-0.938904	-0.404731
H334	H	1.307067	-0.688904	-0.154731
H335	H	1.557067	-0.438904	0.095269
H336	H	1.807067	-0.188904	0.345269
Br337	Br	0.876491	-1.086824	-0.224022
Br338	Br	1.126491	-0.836824	0.025978
Br339	Br	1.376491	-0.586824	0.275978
Br340	Br	1.626491	-0.336824	0.525978
Br341	Br	0.876343	-0.731058	-0.223989
Br342	Br	1.126343	-0.481058	0.026011
Br343	Br	1.376343	-0.231058	0.276011
Br344	Br	1.626343	0.018942	0.526011
H345	H	0.236885	-0.247205	-0.404796
H346	H	0.486885	0.002795	-0.154796
H347	H	0.736885	0.252795	0.095204
H348	H	0.986885	0.502795	0.345204
H349	H	0.899801	-0.583565	-0.247483
H350	H	1.149801	-0.333565	0.002517
H351	H	1.399801	-0.083565	0.252517
H352	H	1.649801	0.166435	0.502517
H353	H	1.056602	-0.246369	0.286947
H354	H	1.306602	0.003631	0.536947
H355	H	1.556602	0.253631	0.786947
H356	H	1.806602	0.503631	1.036947
