data_functionalizedCrystal
_audit_creation_method	'MofGen! by Chris Wilmer'
_symmetry_space_group_name_H-M	'P1'
_symmetry_Int_Tables_number	1
_symmetry_cell_setting	triclinic
loop_
_symmetry_equiv_pos_as_xyz
  x,y,z
_cell_length_a	19.121063
_cell_length_b	17.640112
_cell_length_c	17.640968
_cell_angle_alpha	87.860920
_cell_angle_beta	81.648500
_cell_angle_gamma	76.851119
loop_
_atom_site_label
_atom_site_type_symbol
_atom_site_fract_x
_atom_site_fract_y
_atom_site_fract_z
Zn1	Zn	-0.020114	-1.247036	-0.196194
Zn2	Zn	-0.164540	-1.215936	-0.077209
Zn3	Zn	-0.065650	-1.092687	-0.097361
Zn4	Zn	-0.155325	-1.115017	-0.229281
O5	O	-0.101407	-1.167669	-0.150011
O6	O	-0.024071	-1.349741	-0.158129
O7	O	-0.174335	-1.177226	0.025122
O8	O	0.038363	-1.116833	-0.105059
O9	O	-0.130180	-1.326892	-0.070712
O10	O	0.071818	-1.230232	-0.177670
O11	O	-0.101681	-1.086676	0.010316
O12	O	-0.092746	-0.988819	-0.137142
O13	O	-0.114475	-1.154890	-0.329896
O14	O	-0.158630	-1.005224	-0.234062
O15	O	-0.015136	-1.251884	-0.305587
O16	O	-0.261289	-1.198878	-0.102795
O17	O	-0.254519	-1.124733	-0.214521
C18	C	-0.283301	-1.160878	-0.160074
C19	C	-0.361101	-1.158048	-0.164389
C20	C	-0.129630	-0.969322	-0.191380
C21	C	-0.141717	-0.884471	-0.209096
C22	C	-0.058698	-1.209347	-0.345729
C23	C	-0.040499	-1.227107	-0.429132
C24	C	-0.401138	-1.195368	-0.108278
C25	C	-0.474238	-1.192712	-0.112340
C26	C	-0.507299	-1.152731	-0.172510
C27	C	-0.467255	-1.115410	-0.228626
C28	C	-0.394156	-1.118071	-0.224567
C29	C	-0.727835	-1.142766	-0.187679
C30	C	-0.800941	-1.140106	-0.191733
C31	C	-0.807918	-1.217410	-0.075447
C32	C	-0.734818	-1.220063	-0.071390
C33	C	-0.694779	-1.182746	-0.127508
C34	C	-0.582019	-1.150013	-0.176662
C35	C	-0.620060	-1.185469	-0.123359
C36	C	0.081204	-1.174511	-0.139922
C37	C	0.159022	-1.177426	-0.135622
C38	C	-0.073074	-1.366791	-0.108482
C39	C	-0.061001	-1.451644	-0.090784
C40	C	-0.009571	-0.562686	-0.015428
C41	C	-0.020940	-0.482957	-0.032086
C42	C	-0.089704	-0.500055	-0.132851
C43	C	-0.078338	-0.579787	-0.116204
C44	C	-0.038271	-0.611096	-0.057491
C45	C	-0.107038	-0.628197	-0.158266
C46	C	-0.095675	-0.707921	-0.141618
C47	C	-0.055612	-0.739236	-0.082906
C48	C	-0.026908	-0.690820	-0.040842
C49	C	-0.147109	-0.596886	-0.216975
C50	C	-0.175809	-0.645295	-0.259038
C51	C	-0.164442	-0.725022	-0.242393
C52	C	-0.124379	-0.756337	-0.183682
C53	C	-0.193146	-0.773438	-0.284457
C54	C	-0.181784	-0.853163	-0.267809
C55	C	-0.113017	-0.836061	-0.167033
C56	C	-0.239247	-1.033051	-0.766711
C57	C	-0.222134	-1.049756	-0.845077
C58	C	-0.118701	-1.150747	-0.819756
C59	C	-0.135803	-1.134048	-0.741387
C60	C	-0.196077	-1.075199	-0.714871
C61	C	-0.092633	-1.176197	-0.689546
C62	C	-0.109736	-1.159501	-0.611183
C63	C	-0.170009	-1.100657	-0.584660
C64	C	-0.213180	-1.058504	-0.636508
C65	C	-0.032362	-1.235048	-0.716063
C66	C	0.010807	-1.277197	-0.664223
C67	C	-0.006292	-1.260498	-0.585859
C68	C	-0.066565	-1.201654	-0.559336
C69	C	0.036879	-1.302651	-0.534012
C70	C	0.019776	-1.285956	-0.455648
C71	C	-0.083668	-1.184959	-0.480973
C72	C	-0.143893	-1.126199	0.044957
C73	C	-0.161874	-1.108594	0.128402
H74	H	-0.374226	-1.227921	-0.059278
H75	H	-0.695242	-1.112379	-0.233372
H76	H	0.085950	-1.350570	-0.555613
Br77	Br	-0.321042	-0.953175	-0.730719
H78	H	0.005731	-0.716316	0.006957
H79	H	-0.262247	-1.010566	-0.614920
H80	H	0.054930	-1.320276	-0.413438
H81	H	-0.257293	-1.015429	-0.887285
H82	H	-0.208434	-0.619792	-0.306840
H83	H	-0.046363	-0.804153	-0.069350
Br84	Br	0.018006	-0.417257	0.025014
H85	H	-0.225774	-0.747933	-0.332256
H86	H	-0.080377	-0.861557	-0.119234
H87	H	-0.361557	-1.087682	-0.270259
Br88	Br	-0.528571	-1.243369	-0.036189
H89	H	0.023068	-0.588182	0.032371
Br90	Br	-0.626893	-1.095755	-0.258321
Br91	Br	-0.036906	-1.230614	-0.855749
H92	H	-0.018440	-1.248641	-0.779872
Br93	Br	-0.220739	-0.918866	-0.324890
Br94	Br	-0.845814	-1.085826	-0.273388
H95	H	-0.707901	-1.252619	-0.022394
Br96	Br	-0.193228	-1.078002	-0.478309
H97	H	-0.494178	-1.082860	-0.277621
Br98	Br	0.092602	-1.357064	-0.700216
Br99	Br	-0.144092	-0.457554	-0.212519
H100	H	-0.593138	-1.218025	-0.074370
H101	H	-0.840524	-1.247793	-0.029759
H102	H	-0.156359	-0.531968	-0.230528
H103	H	-0.132735	-1.137021	-0.459385
