data_functionalizedCrystal
_audit_creation_method	'MofGen! by Chris Wilmer'
_symmetry_space_group_name_H-M	'P1'
_symmetry_Int_Tables_number	1
_symmetry_cell_setting	triclinic
loop_
_symmetry_equiv_pos_as_xyz
  x,y,z
_cell_length_a	19.188930
_cell_length_b	17.666332
_cell_length_c	14.519709
_cell_angle_alpha	89.992588
_cell_angle_beta	96.587538
_cell_angle_gamma	90.023234
loop_
_atom_site_label
_atom_site_type_symbol
_atom_site_fract_x
_atom_site_fract_y
_atom_site_fract_z
O1	O	0.926560	0.063193	-0.115137
O2	O	1.426560	0.563193	0.384863
O3	O	0.723303	0.063142	-0.130636
O4	O	1.223303	0.563142	0.369364
O5	O	0.830321	0.063162	0.011385
O6	O	1.330321	0.563162	0.511385
O7	O	0.819542	0.063173	-0.257159
O8	O	1.319542	0.563173	0.242841
O9	O	0.830302	-0.062735	0.011393
O10	O	1.330302	0.437265	0.511393
O11	O	0.723285	-0.062755	-0.130629
O12	O	1.223285	0.437245	0.369371
O13	O	0.926541	-0.062703	-0.115129
O14	O	1.426541	0.437297	0.384871
Cu15	Cu	0.824911	-0.074225	-0.122878
Cu16	Cu	1.324911	0.425775	0.377122
Cu17	Cu	0.824933	0.074663	-0.122887
Cu18	Cu	1.324933	0.574663	0.377113
O19	O	0.819524	-0.062724	-0.257151
O20	O	1.319524	0.437276	0.242849
C21	C	0.697281	0.000187	-0.130131
C22	C	1.197281	0.500187	0.369869
C23	C	0.619771	0.000167	-0.128624
C24	C	1.119771	0.500167	0.371376
N25	N	0.824900	-0.178944	-0.122872
N26	N	1.324900	0.321056	0.377128
C27	C	0.575144	0.000182	-0.211957
C28	C	1.075144	0.500182	0.288043
C29	C	0.502315	0.000190	-0.210542
C30	C	1.002315	0.500190	0.289458
C31	C	0.474117	0.000198	-0.125788
C32	C	0.974117	0.500198	0.374212
C33	C	0.518754	0.000179	-0.042444
C34	C	1.018754	0.500179	0.457556
C35	C	0.591581	0.000163	-0.043861
C36	C	1.091581	0.500163	0.456139
N37	N	0.365913	0.043074	-0.061007
N38	N	0.865913	0.543074	0.438993
N39	N	0.296729	0.043091	-0.059666
N40	N	0.796729	0.543091	0.440334
C41	C	0.254693	0.000245	-0.121511
C42	C	0.754693	0.500245	0.378489
N43	N	0.284453	-0.042610	-0.184762
N44	N	0.784453	0.457390	0.315238
N45	N	0.353642	-0.042623	-0.186106
N46	N	0.853642	0.457377	0.313894
C47	C	0.395149	0.000215	-0.124241
C48	C	0.895149	0.500215	0.375759
C49	C	0.131096	0.000268	-0.203315
C50	C	0.631096	0.500268	0.296685
C51	C	0.058266	0.000271	-0.201896
C52	C	0.558266	0.500271	0.298104
C53	C	0.074706	0.000268	-0.033796
C54	C	0.574706	0.500268	0.466204
C55	C	0.147535	0.000256	-0.035217
C56	C	0.647535	0.500256	0.464783
C57	C	0.175725	0.000260	-0.119980
C58	C	0.675725	0.500260	0.380020
C59	C	0.872303	-0.218545	-0.060015
C60	C	1.372303	0.281455	0.439985
C61	C	0.872307	-0.297792	-0.060011
C62	C	1.372307	0.202208	0.439989
C63	C	0.824915	-0.337436	-0.122879
C64	C	1.324915	0.162564	0.377121
C65	C	0.777504	-0.297826	-0.185740
C66	C	1.277504	0.202174	0.314260
C67	C	0.777496	-0.218580	-0.185736
C68	C	1.277496	0.281420	0.314264
N69	N	0.816130	-0.461853	-0.204517
N70	N	1.316130	0.038147	0.295483
N71	N	0.816141	-0.537133	-0.204517
N72	N	1.316141	-0.037133	0.295483
C73	C	0.824934	-0.576200	-0.122891
C74	C	1.324934	-0.076200	0.377109
N75	N	0.833729	-0.537143	-0.041263
N76	N	1.333729	-0.037143	0.458737
N77	N	0.833721	-0.461855	-0.041263
N78	N	1.333721	0.038145	0.458737
C79	C	0.824918	-0.423365	-0.122889
C80	C	1.324918	0.076635	0.377111
C81	C	0.872343	-0.701730	-0.060025
C82	C	1.372343	-0.201730	0.439975
C83	C	0.872342	-0.780979	-0.060019
C84	C	1.372342	-0.280979	0.439981
C85	C	0.777542	-0.781011	-0.185756
C86	C	1.277542	-0.281011	0.314244
C87	C	0.777540	-0.701764	-0.185754
C88	C	1.277540	-0.201764	0.314246
C89	C	0.824944	-0.662128	-0.122889
C90	C	1.324944	-0.162128	0.377111
C91	C	0.952563	0.000253	-0.115635
C92	C	1.452563	0.500253	0.384365
C93	C	1.030073	0.000278	-0.117142
C94	C	1.530073	0.500278	0.382858
N95	N	0.824949	0.179382	-0.122887
N96	N	1.324949	0.679382	0.377113
C97	C	0.829809	0.000213	0.045746
C98	C	1.329809	0.500213	0.545746
C99	C	0.828304	0.000213	0.148118
C100	C	1.328304	0.500213	0.648118
C101	C	0.820035	0.000227	-0.291511
C102	C	1.320035	0.500227	0.208489
C103	C	0.821541	0.000232	-0.393883
C104	C	1.321541	0.500232	0.106117
C105	C	0.822762	0.000231	0.522979
C106	C	1.322762	0.500231	1.022979
C107	C	0.824301	0.000226	0.418681
C108	C	1.324301	0.500226	0.918681
C109	C	0.825533	0.000221	0.335552
C110	C	1.325533	0.500221	0.835552
C111	C	0.827072	0.000217	0.231247
C112	C	1.327072	0.500217	0.731247
H113	H	0.598091	0.000186	-0.280978
H114	H	1.098091	0.500186	0.219022
O115	O	0.459054	0.000245	-0.291581
O116	O	0.959054	0.500245	0.208419
C117	C	0.499552	0.000225	-0.366696
C118	C	0.999552	0.500225	0.133304
H119	H	0.553892	0.024040	-0.343069
H120	H	1.053892	0.524040	0.156931
H121	H	0.472782	0.036792	-0.425061
H122	H	0.972782	0.536792	0.074939
H123	H	0.504730	-0.060172	-0.392700
H124	H	1.004730	0.439828	0.107300
O125	O	0.491332	0.000323	0.039863
O126	O	0.991332	0.500323	0.539863
C127	C	0.449722	0.065528	0.045699
C128	C	0.949722	0.565528	0.545699
H129	H	0.467033	0.111097	-0.002425
H130	H	0.967033	0.611097	0.497575
H131	H	0.456177	0.087412	0.120049
H132	H	0.956177	0.587412	0.620049
H133	H	0.392311	0.050802	0.024193
H134	H	0.892311	0.550802	0.524193
O135	O	0.731438	-0.819394	-0.246862
O136	O	1.231438	-0.319394	0.253138
C137	C	0.689611	-0.767443	-0.302363
C138	C	1.189611	-0.267443	0.197637
H139	H	0.688773	-0.710959	-0.264553
H140	H	1.188773	-0.210959	0.235447
H141	H	0.633875	-0.790367	-0.316615
H142	H	1.133875	-0.290367	0.183385
H143	H	0.712363	-0.758994	-0.370799
H144	H	1.212363	-0.258994	0.129201
H145	H	0.910909	-0.330041	-0.008823
H146	H	1.410909	0.169959	0.491177
O147	O	0.731399	-0.336215	-0.246844
O148	O	1.231399	0.163785	0.253156
C149	C	0.689568	-0.284264	-0.302340
C150	C	1.189568	0.215736	0.197660
H151	H	0.688730	-0.227781	-0.264529
H152	H	1.188730	0.272219	0.235471
H153	H	0.633832	-0.307191	-0.316587
H154	H	1.133832	0.192809	0.183413
H155	H	0.712316	-0.275813	-0.370778
H156	H	1.212316	0.224187	0.129222
H157	H	0.738895	-0.186336	-0.236923
H158	H	1.238895	0.313664	0.263077
O159	O	0.634836	0.000187	0.037178
O160	O	1.134836	0.500187	0.537178
C161	C	0.594335	0.000173	0.112291
C162	C	1.094335	0.500173	0.612291
H163	H	0.540023	0.024016	0.088663
H164	H	1.040023	0.524016	0.588663
H165	H	0.621145	0.036719	0.170660
H166	H	1.121145	0.536719	0.670660
H167	H	0.589088	-0.060226	0.138289
H168	H	1.089088	0.439774	0.638289
O169	O	0.918309	-0.663114	0.001029
O170	O	1.418309	-0.163114	0.501029
C171	C	0.880885	-0.617278	0.057823
C172	C	1.380885	-0.117278	0.557823
H173	H	0.826277	-0.605454	0.020961
H174	H	1.326277	-0.105454	0.520961
H175	H	0.910006	-0.561529	0.072421
H176	H	1.410006	-0.061529	0.572421
H177	H	0.876109	-0.647785	0.126009
H178	H	1.376109	-0.147785	0.626009
H179	H	0.154049	0.000260	-0.272334
H180	H	0.654049	0.500260	0.227666
H181	H	0.183871	0.000248	0.032642
H182	H	0.683871	0.500248	0.532642
O183	O	0.015012	0.000318	-0.282937
O184	O	0.515012	0.500318	0.217063
C185	C	0.055515	0.000299	-0.358048
C186	C	0.555515	0.500299	0.141952
H187	H	0.109850	0.024124	-0.334418
H188	H	0.609850	0.524124	0.165582
H189	H	0.028743	0.036859	-0.416419
H190	H	0.528743	0.536859	0.083581
H191	H	0.060703	-0.060099	-0.384044
H192	H	0.560703	0.439901	0.115956
O193	O	0.047208	0.000311	0.048455
O194	O	0.547208	0.500311	0.548455
C195	C	-0.026642	0.000307	0.031839
C196	C	0.473358	0.500307	0.531839
H197	H	-0.043640	0.024143	-0.040202
H198	H	0.456360	0.524143	0.459798
H199	H	-0.049051	0.036863	0.086051
H200	H	0.450949	0.536863	0.586051
H201	H	-0.046952	-0.060088	0.036232
H202	H	0.453048	0.439912	0.536232
O203	O	0.731528	-0.663174	-0.246737
O204	O	1.231528	-0.163174	0.253263
C205	C	0.741698	-0.584729	-0.233273
C206	C	1.241698	-0.084729	0.266727
H207	H	0.767696	-0.573901	-0.159863
H208	H	1.267696	-0.073901	0.340137
H209	H	0.688838	-0.554636	-0.243713
H210	H	1.188838	-0.054636	0.256287
H211	H	0.776781	-0.562218	-0.285353
H212	H	1.276781	-0.062218	0.214647
H213	H	0.910901	-0.186276	-0.008825
H214	H	1.410901	0.313724	0.491175
H215	H	0.910941	-0.813223	-0.008829
H216	H	1.410941	-0.313223	0.491171
