data_functionalizedCrystal
_audit_creation_method	'MofGen! by Chris Wilmer'
_symmetry_space_group_name_H-M	'P1'
_symmetry_Int_Tables_number	1
_symmetry_cell_setting	triclinic
loop_
_symmetry_equiv_pos_as_xyz
  x,y,z
_cell_length_a	8.597187
_cell_length_b	10.654550
_cell_length_c	9.730223
_cell_angle_alpha	90.004253
_cell_angle_beta	82.294925
_cell_angle_gamma	95.090056
loop_
_atom_site_label
_atom_site_type_symbol
_atom_site_fract_x
_atom_site_fract_y
_atom_site_fract_z
O1	O	2.084510	-0.187478	-0.361121
O2	O	1.627725	-0.201856	-0.307035
O3	O	1.866620	-0.011984	-0.335313
O4	O	1.845615	-0.377351	-0.332843
O5	O	1.866604	-0.011978	-0.106731
O6	O	1.627709	-0.201851	-0.078453
O7	O	2.084494	-0.187473	-0.132539
Zn8	Zn	1.856099	-0.194661	-0.069204
Zn9	Zn	1.856120	-0.194668	-0.370370
O10	O	1.845599	-0.377345	-0.104261
C11	C	1.569228	-0.200309	-0.185818
C12	C	1.394948	-0.195690	-0.165182
C13	C	1.865070	0.034825	-0.220840
C14	C	1.860455	0.174293	-0.220296
C15	C	2.142991	-0.189020	-0.253759
C16	C	2.317271	-0.193639	-0.274404
C17	C	1.847149	-0.424154	-0.218737
C18	C	1.851764	-0.563622	-0.219290
N19	N	1.856097	-0.194656	0.136333
C20	C	2.001113	0.253031	-0.236951
C21	C	1.996768	0.384075	-0.236453
C22	C	1.711096	0.357630	-0.202638
C23	C	1.715442	0.226589	-0.203146
N24	N	1.856135	-0.194664	-0.575908
C25	C	1.961916	-0.110616	0.195733
C26	C	1.961932	-0.110617	0.339614
C27	C	1.750304	-0.278707	0.364683
C28	C	1.750282	-0.278699	0.220805
H29	H	1.328119	-0.193928	-0.055894
F30	F	2.155448	0.197378	-0.255205
H31	H	2.111306	0.448179	-0.250019
F32	F	1.404622	-0.195961	-0.417263
F33	F	1.556771	0.413299	-0.184387
F34	F	1.565727	0.142784	-0.185428
F35	F	1.637698	-0.368151	0.454592
H36	H	1.664104	-0.347135	0.172440
H37	H	2.048097	-0.042183	0.387973
H38	H	2.048074	-0.042181	0.126958
