data_functionalizedCrystal
_audit_creation_method	'MofGen! by Chris Wilmer'
_symmetry_space_group_name_H-M	'P1'
_symmetry_Int_Tables_number	1
_symmetry_cell_setting	triclinic
loop_
_symmetry_equiv_pos_as_xyz
  x,y,z
_cell_length_a	15.995350
_cell_length_b	12.811457
_cell_length_c	11.295483
_cell_angle_alpha	91.289320
_cell_angle_beta	85.900773
_cell_angle_gamma	96.231152
loop_
_atom_site_label
_atom_site_type_symbol
_atom_site_fract_x
_atom_site_fract_y
_atom_site_fract_z
O1	O	-0.115660	1.389018	0.050991
O2	O	-0.126068	1.085775	0.018241
O3	O	0.000944	1.245686	0.035507
O4	O	-0.242672	1.229107	0.033725
O5	O	-0.010194	1.231641	0.232041
O6	O	-0.137206	1.071730	0.214776
O7	O	-0.126798	1.374973	0.247525
Cu8	Cu	-0.133019	1.222069	0.249095
Cu9	Cu	-0.119847	1.238679	0.016671
O10	O	-0.253810	1.215062	0.230260
C11	C	-0.130713	1.039948	0.112318
C12	C	-0.127948	0.924323	0.099830
C13	C	-0.134881	0.691739	0.290650
C14	C	-0.132283	0.583098	0.278923
C15	C	-0.120148	0.598401	0.064649
C16	C	-0.122746	0.707042	0.076376
C17	C	-0.130114	0.753706	0.189381
C18	C	-0.132718	0.862347	0.201107
C19	C	-0.120577	0.877649	-0.013166
C20	C	-0.117979	0.769009	-0.024893
C21	C	-0.279443	1.222770	0.132068
C22	C	-0.372413	1.224824	0.132293
C23	C	-0.710230	1.232205	0.133071
C24	C	-0.663868	1.346122	0.144932
C25	C	-0.567183	1.344034	0.145159
C26	C	-0.542635	1.228544	0.132684
C27	C	-0.589538	1.164351	0.238844
C28	C	-0.686206	1.167206	0.239241
C29	C	-0.673864	1.180825	0.015491
C30	C	-0.576835	1.180958	0.014017
C31	C	-0.447918	1.226469	0.132469
C32	C	-0.804948	1.234276	0.133294
C33	C	0.026577	1.237978	0.133696
C34	C	0.119547	1.235925	0.133463
C35	C	-0.122153	1.420800	0.153446
C36	C	-0.124918	1.536425	0.165926
N37	N	-0.142284	1.210394	0.412571
N38	N	-0.110576	1.250362	-0.146804
C39	C	-0.043839	1.334407	0.675250
C40	C	-0.050847	1.325591	0.798962
C41	C	-0.163300	1.183943	0.783709
C42	C	-0.156293	1.192758	0.659997
C43	C	-0.096562	1.267994	0.605772
C44	C	-0.089559	1.276814	0.482059
C45	C	-0.202008	1.135161	0.466807
C46	C	-0.209016	1.126345	0.590519
H47	H	-0.116700	0.928114	-0.095627
H48	H	-0.244941	1.081086	0.410224
H49	H	0.004791	1.395673	0.631101
H50	H	-0.211927	1.122681	0.827874
H51	H	-0.007914	1.379670	0.855528
H52	H	-0.114135	0.560390	-0.027353
H53	H	-0.717938	1.083229	0.235312
H54	H	-0.688511	1.385765	0.229784
H55	H	-0.140891	0.729732	0.382662
H56	H	-0.257646	1.065087	0.634682
H57	H	-0.709660	1.202174	0.327558
H58	H	-0.111976	0.731000	-0.116898
H59	H	-0.136169	0.532647	0.361387
H60	H	-0.138722	0.900339	0.293120
H61	H	-0.574832	1.079205	0.233853
H62	H	-0.544318	1.382723	0.230551
H63	H	-0.534623	1.393944	0.069484
H64	H	-0.678262	1.397387	0.069354
H65	H	-0.566277	1.197406	0.326580
H66	H	-0.689941	1.224136	-0.065553
H67	H	-0.545222	1.227908	-0.064578
H68	H	-0.704762	1.096905	0.005675
H69	H	-0.560274	1.097224	-0.001861
H70	H	-0.040925	1.338077	0.437911
