data_functionalizedCrystal
_audit_creation_method	'MofGen! by Chris Wilmer'
_symmetry_space_group_name_H-M	'P1'
_symmetry_Int_Tables_number	1
_symmetry_cell_setting	triclinic
loop_
_symmetry_equiv_pos_as_xyz
  x,y,z
_cell_length_a	19.188930
_cell_length_b	19.188933
_cell_length_c	18.366186
_cell_angle_alpha	89.992367
_cell_angle_beta	89.988632
_cell_angle_gamma	83.145175
loop_
_atom_site_label
_atom_site_type_symbol
_atom_site_fract_x
_atom_site_fract_y
_atom_site_fract_z
O1	O	0.087175	0.926148	-0.060534
O2	O	0.420508	1.259482	0.272800
O3	O	0.753842	1.592815	0.606133
O4	O	0.098908	0.722837	-0.060541
O5	O	0.432241	1.056171	0.272792
O6	O	0.765575	1.389504	0.606125
O7	O	-0.008614	0.830360	-0.060523
O8	O	0.324719	1.163693	0.272810
O9	O	0.658052	1.497027	0.606144
O10	O	0.194697	0.818626	-0.060552
O11	O	0.528030	1.151959	0.272781
O12	O	0.861364	1.485292	0.606115
O13	O	-0.008619	0.830342	0.060576
O14	O	0.324714	1.163675	0.393910
O15	O	0.658047	1.497008	0.727243
O16	O	0.098903	0.722819	0.060558
O17	O	0.432236	1.056152	0.393891
O18	O	0.765569	1.389486	0.727225
O19	O	0.087170	0.926130	0.060566
O20	O	0.420503	1.259464	0.393899
O21	O	0.753836	1.592797	0.727233
Zn22	Zn	0.093035	0.824472	0.079789
Zn23	Zn	0.426369	1.157805	0.413122
Zn24	Zn	0.759702	1.491138	0.746456
Zn25	Zn	0.093042	0.824496	-0.079765
Zn26	Zn	0.426376	1.157829	0.253569
Zn27	Zn	0.759709	1.491162	0.586902
O28	O	0.194692	0.818608	0.060547
O29	O	0.528025	1.151941	0.393881
O30	O	0.861358	1.485274	0.727214
C31	C	0.098525	0.696817	0.000007
C32	C	0.431858	1.030151	0.333341
C33	C	0.765192	1.363484	0.666674
C34	C	0.097384	0.619313	0.000005
C35	C	0.430717	0.952646	0.333338
C36	C	0.764050	1.285979	0.666672
C37	C	0.089241	0.066067	-0.065997
C38	C	0.422575	0.399401	0.267336
C39	C	0.755908	0.732734	0.600669
C40	C	0.090310	0.138892	-0.066000
C41	C	0.423643	0.472225	0.267333
C42	C	0.756976	0.805558	0.600667
C43	C	0.090844	0.175299	0.000011
C44	C	0.424177	0.508632	0.333344
C45	C	0.757511	0.841965	0.666677
C46	C	0.090292	0.138878	0.066030
C47	C	0.423626	0.472211	0.399363
C48	C	0.756959	0.805544	0.732696
C49	C	0.089217	0.066056	0.066031
C50	C	0.422551	0.399389	0.399364
C51	C	0.755884	0.732723	0.732697
N52	N	0.132260	0.284311	0.049140
N53	N	0.465594	0.617645	0.382473
N54	N	0.798927	0.950978	0.715807
N55	N	0.133283	0.353489	0.049134
N56	N	0.466617	0.686822	0.382468
N57	N	0.799950	1.020155	0.715801
C58	C	0.094082	0.394707	0.000012
C59	C	0.427415	0.728041	0.333345
C60	C	0.760749	1.061374	0.666678
N61	N	0.053828	0.364134	-0.049117
N62	N	0.387161	0.697467	0.284217
N63	N	0.720495	1.030800	0.617550
N64	N	0.052808	0.294949	-0.049113
N65	N	0.386141	0.628283	0.284220
N66	N	0.719475	0.961616	0.617553
C67	C	0.092009	0.254262	0.000017
C68	C	0.425343	0.587595	0.333350
C69	C	0.758676	0.920929	0.666684
C70	C	0.095787	0.510084	-0.066006
C71	C	0.429120	0.843418	0.267327
C72	C	0.762453	1.176751	0.600660
C73	C	0.096851	0.582911	-0.066007
C74	C	0.430184	0.916244	0.267327
C75	C	0.763517	1.249577	0.600660
C76	C	0.096840	0.582894	0.066025
C77	C	0.430174	0.916228	0.399359
C78	C	0.763507	1.249561	0.732692
C79	C	0.095770	0.510071	0.066024
C80	C	0.429103	0.843404	0.399357
C81	C	0.762436	1.176737	0.732690
C82	C	0.095246	0.473669	0.000006
C83	C	0.428579	0.807003	0.333339
C84	C	0.761913	1.140336	0.666672
C85	C	-0.034628	0.829971	0.000029
C86	C	0.298706	1.163304	0.333362
C87	C	0.632039	1.496638	0.666695
C88	C	-0.112132	0.828830	0.000035
C89	C	0.221201	1.162163	0.333368
C90	C	0.554534	1.495497	0.666702
C91	C	-0.157056	0.891921	0.000041
C92	C	0.176278	1.225254	0.333374
C93	C	0.509611	1.558588	0.666708
C94	C	-0.229880	0.890849	0.000029
C95	C	0.103454	1.224183	0.333363
C96	C	0.436787	1.557516	0.666696
C97	C	-0.257777	0.826683	0.000026
C98	C	0.075557	1.160017	0.333360
C99	C	0.408890	1.493350	0.666693
C100	C	-0.212843	0.763584	0.000016
C101	C	0.120490	1.096917	0.333349
C102	C	0.453823	1.430251	0.666683
C103	C	-0.140021	0.764658	0.000021
C104	C	0.193312	1.097991	0.333354
C105	C	0.526646	1.431324	0.666687
N106	N	-0.365784	0.777630	0.041237
N107	N	-0.032450	1.110963	0.374570
N108	N	0.300883	1.444296	0.707903
N109	N	-0.434962	0.776614	0.041234
N110	N	-0.101629	1.109948	0.374567
N111	N	0.231704	1.443281	0.707901
C112	C	-0.477185	0.823445	0.000011
C113	C	-0.143852	1.156778	0.333345
C114	C	0.189481	1.490112	0.666678
N115	N	-0.447618	0.871340	-0.041200
N116	N	-0.114284	1.204674	0.292134
N117	N	0.219049	1.538007	0.625467
N118	N	-0.378433	0.872358	-0.041194
N119	N	-0.045100	1.205691	0.292140
N120	N	0.288234	1.539025	0.625473
C121	C	-0.336739	0.825512	0.000021
C122	C	-0.003406	1.158845	0.333354
C123	C	0.329927	1.492179	0.666688
C124	C	-0.601073	0.885378	0.000004
C125	C	-0.267740	1.218712	0.333337
C126	C	0.065593	1.552045	0.666670
C127	C	-0.673898	0.884304	-0.000013
C128	C	-0.340565	1.217637	0.333321
C129	C	-0.007231	1.550971	0.666654
C130	C	-0.656860	0.757037	-0.000018
C131	C	-0.323527	1.090370	0.333315
C132	C	0.009807	1.423704	0.666648
C133	C	-0.584037	0.758113	-0.000010
C134	C	-0.250704	1.091446	0.333324
C135	C	0.082630	1.424780	0.666657
C136	C	-0.556148	0.822286	0.000005
C137	C	-0.222815	1.155619	0.333338
C138	C	0.110518	1.488952	0.666672
C139	C	0.220705	0.818997	-0.000006
C140	C	0.554039	1.152330	0.333327
C141	C	0.887372	1.485663	0.666661
C142	C	0.298210	0.820137	-0.000017
C143	C	0.631543	1.153471	0.333316
C144	C	0.964877	1.486804	0.666650
C145	C	0.087553	0.952150	0.000015
C146	C	0.420886	1.285484	0.333349
C147	C	0.754219	1.618817	0.666682
C148	C	0.088694	1.029655	0.000013
C149	C	0.422027	1.362988	0.333346
C150	C	0.755360	1.696321	0.666680
N151	N	0.093030	0.824460	0.188680
N152	N	0.426363	1.157794	0.522014
N153	N	0.759697	1.491127	0.855347
N154	N	0.093042	0.824513	-0.188656
N155	N	0.426375	1.157846	0.144678
N156	N	0.759709	1.491179	0.478011
C157	C	0.045443	0.872087	0.226789
C158	C	0.378776	1.205420	0.560122
C159	C	0.712109	1.538754	0.893455
C160	C	0.045440	0.872091	0.303017
C161	C	0.378773	1.205425	0.636350
C162	C	0.712106	1.538758	0.969683
C163	C	0.093036	0.824476	0.341133
C164	C	0.426369	1.157809	0.674466
C165	C	0.759703	1.491143	1.007800
C166	C	0.140627	0.776840	0.303015
C167	C	0.473960	1.110174	0.636349
C168	C	0.807294	1.443507	0.969682
C169	C	0.140624	0.776833	0.226789
C170	C	0.473957	1.110166	0.560122
C171	C	0.807291	1.443499	0.893455
C172	C	0.156652	0.815134	0.461884
C173	C	0.489985	1.148468	0.795217
C174	C	0.823319	1.481801	1.128551
C175	C	0.156656	0.815147	0.538109
C176	C	0.489989	1.148480	0.871442
C177	C	0.823322	1.481813	1.204776
C178	C	0.093045	0.824496	0.576240
C179	C	0.426378	1.157829	0.909574
C180	C	0.759711	1.491162	1.242907
C181	C	0.029427	0.833847	0.538138
C182	C	0.362760	1.167180	0.871471
C183	C	0.696094	1.500514	1.204804
C184	C	0.029424	0.833839	0.461911
C185	C	0.362757	1.167173	0.795245
C186	C	0.696091	1.500506	1.128578
C187	C	0.093044	0.824479	0.423788
C188	C	0.426377	1.157812	0.757121
C189	C	0.759711	1.491145	1.090454
C190	C	0.045450	0.872130	0.697004
C191	C	0.378783	1.205463	1.030337
C192	C	0.712117	1.538796	1.363671
C193	C	0.045446	0.872129	0.773233
C194	C	0.378779	1.205463	1.106566
C195	C	0.712113	1.538796	1.439900
C196	C	0.140639	0.776882	0.773230
C197	C	0.473973	1.110215	1.106564
C198	C	0.807306	1.443548	1.439897
C199	C	0.140637	0.776879	0.697003
C200	C	0.473971	1.110212	1.030336
C201	C	0.807304	1.443545	1.363669
C202	C	0.093043	0.824507	0.658894
C203	C	0.426377	1.157840	0.992227
C204	C	0.759710	1.491173	1.325561
H205	H	0.097291	0.612557	-0.119762
H206	H	0.430625	0.945891	0.213571
H207	H	0.763958	1.279224	0.546905
H208	H	0.088812	0.036434	-0.119754
H209	H	0.422146	0.369768	0.213579
H210	H	0.755479	0.703101	0.546913
N211	N	-0.278349	0.958897	0.000048
N212	N	0.054984	1.292230	0.333381
N213	N	0.388318	1.625563	0.666715
H214	H	-0.308936	0.961300	-0.044843
H215	H	0.024397	1.294633	0.288491
H216	H	0.357730	1.627967	0.621824
H217	H	-0.249585	0.999675	0.000086
H218	H	0.083748	1.333008	0.333420
H219	H	0.417081	1.666341	0.666753
H220	H	-0.679573	0.704792	-0.000024
H221	H	-0.346240	1.038125	0.333309
H222	H	-0.012906	1.371458	0.666642
N223	N	-0.005882	0.923471	0.344129
N224	N	0.327452	1.256804	0.677463
N225	N	0.660785	1.590138	1.010796
H226	H	0.001345	0.916249	0.398201
H227	H	0.334678	1.249583	0.731534
H228	H	0.668012	1.582916	1.064868
H229	H	-0.055398	0.915568	0.330825
H230	H	0.277935	1.248901	0.664159
H231	H	0.611269	1.582235	0.997492
H232	H	0.179390	0.738099	0.665973
H233	H	0.512724	1.071433	0.999306
H234	H	0.846057	1.404766	1.332639
N235	N	0.088625	0.026778	0.137231
N236	N	0.421959	0.360111	0.470564
N237	N	0.755292	0.693445	0.803897
H238	H	0.088641	0.060953	0.179048
H239	H	0.421974	0.394286	0.512381
H240	H	0.755308	0.727619	0.845715
H241	H	0.131698	-0.008901	0.140321
H242	H	0.465032	0.324433	0.473654
H243	H	0.798365	0.657766	0.806988
N244	N	0.090899	0.178177	-0.137199
N245	N	0.424233	0.511511	0.196134
N246	N	0.757566	0.844844	0.529468
H247	H	0.090404	0.144067	-0.179020
H248	H	0.423737	0.477401	0.154313
H249	H	0.757070	0.810734	0.487647
H250	H	0.134620	0.202597	-0.140072
H251	H	0.467953	0.535930	0.193261
H252	H	0.801287	0.869264	0.526594
N253	N	-0.242927	0.694376	0.000009
N254	N	0.090406	1.027709	0.333342
N255	N	0.423740	1.361042	0.666676
H256	H	-0.295877	0.703268	0.000009
H257	H	0.037457	1.036602	0.333343
H258	H	0.370790	1.369935	0.666676
H259	H	-0.226487	0.666768	0.044900
H260	H	0.106847	1.000101	0.378233
H261	H	0.440180	1.333435	0.711567
H262	H	0.208455	0.807509	0.430844
H263	H	0.541789	1.140842	0.764177
H264	H	0.875122	1.474176	1.097510
N265	N	-0.091565	0.696606	0.000031
N266	N	0.241769	1.029939	0.333365
N267	N	0.575102	1.363272	0.666698
H268	H	-0.041200	0.707023	0.000040
H269	H	0.292133	1.040356	0.333373
H270	H	0.625467	1.373689	0.666706
H271	H	-0.100557	0.668634	-0.044863
H272	H	0.232776	1.001967	0.288471
H273	H	0.566109	1.335300	0.621804
N274	N	-0.535578	0.690065	-0.000012
N275	N	-0.202245	1.023398	0.333322
N276	N	0.131089	1.356731	0.666655
H277	H	-0.564299	0.649252	-0.000015
H278	H	-0.230965	0.982585	0.333318
H279	H	0.102368	1.315919	0.666652
H280	H	-0.505003	0.687732	0.044883
H281	H	-0.171670	1.021065	0.378217
H282	H	0.161664	1.354399	0.711550
H283	H	-0.022376	0.841451	0.430891
H284	H	0.310958	1.174785	0.764224
H285	H	0.644291	1.508118	1.097558
N286	N	-0.005891	0.923452	0.185686
N287	N	0.327443	1.256786	0.519019
N288	N	0.660776	1.590119	0.852353
H289	H	-0.036039	0.953624	0.221399
H290	H	0.297295	1.286957	0.554733
H291	H	0.630628	1.620290	0.888066
H292	H	-0.036695	0.896817	0.154075
H293	H	0.296638	1.230151	0.487409
H294	H	0.629972	1.563484	0.820742
N295	N	-0.722353	0.952357	-0.000001
N296	N	-0.389020	1.285690	0.333333
N297	N	-0.055687	1.619023	0.666666
H298	H	-0.772719	0.941941	-0.000009
H299	H	-0.439385	1.275274	0.333325
H300	H	-0.106052	1.608608	0.666658
H301	H	-0.713332	0.980344	-0.044887
H302	H	-0.379999	1.313677	0.288446
H303	H	-0.046666	1.647010	0.621780
N304	N	0.090867	0.178140	0.137228
N305	N	0.424200	0.511474	0.470562
N306	N	0.757533	0.844807	0.803895
H307	H	0.091634	0.229798	0.127212
H308	H	0.424967	0.563132	0.460545
H309	H	0.758300	0.896465	0.793878
H310	H	0.133949	0.159613	0.166051
H311	H	0.467282	0.492946	0.499385
H312	H	0.800615	0.826279	0.832718
H313	H	0.179390	0.738110	0.804264
H314	H	0.512724	1.071443	1.137597
H315	H	0.846057	1.404776	1.470931
N316	N	-0.126984	0.961137	0.000051
N317	N	0.206349	1.294470	0.333385
N318	N	0.539683	1.627803	0.666718
H319	H	-0.143375	0.988774	-0.044839
H320	H	0.189958	1.322107	0.288494
H321	H	0.523292	1.655441	0.621827
H322	H	-0.074039	0.952193	0.000081
H323	H	0.259295	1.285526	0.333414
H324	H	0.592628	1.618860	0.666747
H325	H	0.179380	0.738070	0.334053
H326	H	0.512713	1.071403	0.667387
H327	H	0.846046	1.404737	1.000720
H328	H	-0.022371	0.841459	0.569183
H329	H	0.310962	1.174793	0.902516
H330	H	0.644295	1.508126	1.235849
N331	N	0.095182	0.470791	0.137221
N332	N	0.428515	0.804124	0.470554
N333	N	0.761849	1.137457	0.803887
H334	H	0.095198	0.504966	0.179038
H335	H	0.428531	0.838299	0.512371
H336	H	0.761864	1.171632	0.845705
H337	H	0.138255	0.435112	0.140311
H338	H	0.471588	0.768445	0.473644
H339	H	0.804922	1.101779	0.806978
N340	N	-0.005880	0.923505	0.814337
N341	N	0.327453	1.256839	1.147671
N342	N	0.660786	1.590172	1.481004
H343	H	0.001340	0.916283	0.868410
H344	H	0.334673	1.249616	1.201743
H345	H	0.668007	1.582949	1.535076
H346	H	-0.055395	0.915600	0.801026
H347	H	0.277939	1.248933	1.134360
H348	H	0.611272	1.582267	1.467693
H349	H	0.006694	0.910909	0.665975
H350	H	0.340027	1.244243	0.999308
H351	H	0.673360	1.577576	1.332641
N352	N	0.191950	0.725460	0.185681
N353	N	0.525283	1.058793	0.519014
N354	N	0.858617	1.392126	0.852347
H355	H	0.222101	0.695292	0.221391
H356	H	0.555434	1.028626	0.554724
H357	H	0.888768	1.361959	0.888057
H358	H	0.222753	0.752087	0.154040
H359	H	0.556086	1.085421	0.487373
H360	H	0.889419	1.418754	0.820706
H361	H	-0.578365	0.937631	0.000012
H362	H	-0.245032	1.270965	0.333345
H363	H	0.088301	1.604298	0.666679
H364	H	0.208457	0.807537	0.569126
H365	H	0.541790	1.140870	0.902460
H366	H	0.875124	1.474204	1.235793
H367	H	0.095358	0.480445	-0.119762
H368	H	0.428692	0.813779	0.213571
H369	H	0.762025	1.147112	0.546905
H370	H	0.097273	0.612537	0.119773
H371	H	0.430606	0.945870	0.453106
H372	H	0.763940	1.279203	0.786439
