data_functionalizedCrystal
_audit_creation_method	'MofGen! by Chris Wilmer'
_symmetry_space_group_name_H-M	'P1'
_symmetry_Int_Tables_number	1
_symmetry_cell_setting	triclinic
loop_
_symmetry_equiv_pos_as_xyz
  x,y,z
_cell_length_a	19.077105
_cell_length_b	18.101395
_cell_length_c	19.076919
_cell_angle_alpha	92.272317
_cell_angle_beta	90.076224
_cell_angle_gamma	87.727498
loop_
_atom_site_label
_atom_site_type_symbol
_atom_site_fract_x
_atom_site_fract_y
_atom_site_fract_z
Zn1	Zn	1.058231	-0.358271	-0.440421
Zn2	Zn	1.062857	-0.477344	-0.322915
Zn3	Zn	0.945450	-0.348351	-0.318214
Zn4	Zn	0.940679	-0.476897	-0.435668
O5	O	1.001804	-0.415216	-0.379305
O6	O	1.157176	-0.378405	-0.428790
O7	O	1.051216	-0.456268	-0.223960
O8	O	0.960470	-0.246037	-0.334447
O9	O	1.160575	-0.465887	-0.342459
O10	O	1.043330	-0.253326	-0.424232
O11	O	0.964957	-0.361497	-0.220507
O12	O	0.846486	-0.361064	-0.329838
O13	O	0.952340	-0.465126	-0.534630
O14	O	0.842981	-0.455506	-0.416131
O15	O	1.038704	-0.377972	-0.538122
O16	O	1.046590	-0.580914	-0.337850
O17	O	0.956826	-0.580586	-0.420689
C18	C	0.819237	-0.407161	-0.371959
C19	C	0.741133	-0.403733	-0.368833
C20	C	0.702636	-0.451363	-0.412222
C21	C	0.629249	-0.448133	-0.409288
C22	C	0.594361	-0.397276	-0.362962
C23	C	0.632863	-0.349642	-0.319571
C24	C	0.706248	-0.352869	-0.322509
C25	C	0.375075	-0.382341	-0.349369
C26	C	0.301684	-0.379119	-0.346433
C27	C	0.298076	-0.477610	-0.436152
C28	C	0.371463	-0.480836	-0.439082
C29	C	0.409959	-0.433198	-0.395694
N30	N	0.519348	-0.393975	-0.359960
N31	N	0.484970	-0.436497	-0.398700
C32	C	1.001711	-0.607621	-0.379280
C33	C	1.001735	-0.689937	-0.379296
C34	C	1.001887	-0.989036	-0.379340
C35	C	0.945531	-0.957547	-0.431600
C36	C	0.945280	-0.871910	-0.431419
C37	C	1.001811	-0.840650	-0.379319
C38	C	0.984741	-0.867911	-0.304458
C39	C	0.984379	-0.953554	-0.304770
C40	C	1.075459	-0.961424	-0.401293
C41	C	1.074956	-0.875820	-0.402900
C42	C	1.001770	-0.756788	-0.379302
C43	C	1.001927	-1.072898	-0.379351
C44	C	1.185084	-0.423303	-0.386679
C45	C	1.263188	-0.426749	-0.389822
C46	C	0.994474	-0.422606	-0.562585
C47	C	0.991350	-0.425755	-0.640688
C48	C	1.001916	-0.222060	-0.379345
C49	C	1.001964	-0.139749	-0.379363
C50	C	1.034846	-0.381860	-0.679200
C51	C	1.031902	-0.384816	-0.752586
C52	C	0.985466	-0.431671	-0.787458
C53	C	0.941966	-0.475568	-0.748941
C54	C	0.944906	-0.472608	-0.675556
C55	C	0.971847	-0.445387	-1.006740
C56	C	0.968911	-0.448346	-1.080130
C57	C	1.058847	-0.357593	-1.083770
C58	C	1.061786	-0.354640	-1.010384
C59	C	1.018283	-0.398533	-0.971872
N60	N	0.982458	-0.434696	-0.862471
N61	N	1.021289	-0.395505	-0.896861
C62	C	1.009146	-0.407803	-0.196739
C63	C	1.012406	-0.404451	-0.118642
H64	H	0.604451	-0.308230	-0.281854
H65	H	0.890687	-0.848550	-0.416642
C66	C	0.586907	-0.500569	-0.456973
H67	H	0.618197	-0.531338	-0.484965
H68	H	0.557051	-0.472312	-0.486507
H69	H	0.559360	-0.530432	-0.428850
H70	H	0.737591	-0.314080	-0.287181
C71	C	0.741011	-0.507309	-0.463176
H72	H	0.790231	-0.502417	-0.458707
H73	H	0.727112	-0.497929	-0.509927
H74	H	0.729371	-0.556103	-0.452318
H75	H	1.099601	-0.316487	-0.981996
C76	C	1.106690	-0.309309	-1.126133
H77	H	1.098286	-0.317776	-1.174832
H78	H	1.154378	-0.321742	-1.116006
H79	H	1.096910	-0.258611	-1.113701
C80	C	0.890888	-0.527108	-0.787299
H81	H	0.895370	-0.522591	-0.836520
H82	H	0.844163	-0.513704	-0.773373
H83	H	0.901630	-0.576836	-0.775673
C84	C	0.959216	-0.847208	-0.506282
H85	H	0.965081	-0.889541	-0.537080
H86	H	1.000570	-0.819664	-0.506511
H87	H	0.920575	-0.817190	-0.521450
H88	H	0.930687	-0.970551	-0.286519
H89	H	0.931095	-0.486502	-1.108520
C90	C	0.263308	-0.323170	-0.295476
H91	H	0.296744	-0.295256	-0.270061
H92	H	0.235888	-0.348951	-0.263664
H93	H	0.233623	-0.290778	-0.321274
C94	C	0.923981	-0.493652	-0.964386
H95	H	0.895906	-0.521980	-0.995667
H96	H	0.894532	-0.462802	-0.934542
H97	H	0.951974	-0.525959	-0.936824
C98	C	1.097271	-0.994525	-0.473992
H99	H	1.141801	-0.977165	-0.486244
H100	H	1.063499	-0.979866	-0.507881
H101	H	1.099976	-1.046971	-0.472699
C102	C	0.897079	-0.520911	-0.633193
H103	H	0.869011	-0.549250	-0.664472
H104	H	0.867621	-0.490092	-0.603330
H105	H	0.925105	-0.553207	-0.605652
H106	H	0.399864	-0.522250	-0.476804
H107	H	0.266725	-0.516393	-0.471476
C108	C	0.913000	-0.834938	-0.279442
H109	H	0.903140	-0.851759	-0.234087
H110	H	0.877581	-0.850240	-0.311269
H111	H	0.914026	-0.782468	-0.277525
C112	C	0.417412	-0.329955	-0.301632
H113	H	0.386121	-0.299214	-0.273614
H114	H	0.444986	-0.300072	-0.329703
H115	H	0.447242	-0.358266	-0.272112
H116	H	0.955734	-0.980878	-0.487188
C117	C	0.872222	-0.982759	-0.411868
H118	H	0.875811	-1.012391	-0.371919
H119	H	0.853394	-1.010822	-0.450062
H120	H	0.842237	-0.940613	-0.401435
C121	C	1.037629	-0.981489	-0.250150
H122	H	1.059383	-0.940494	-0.227865
H123	H	1.072309	-1.013029	-0.272848
H124	H	1.014035	-1.008167	-0.216026
H125	H	1.024629	-0.847532	-0.264328
C126	C	1.092429	-0.852192	-0.477340
H127	H	1.055309	-0.821020	-0.493983
H128	H	1.098070	-0.894849	-0.507747
H129	H	1.134684	-0.826110	-0.476208
C130	C	1.134358	-0.847420	-0.355541
H131	H	1.115241	-0.813595	-0.320609
H132	H	1.167191	-0.823176	-0.383102
H133	H	1.157278	-0.887979	-0.333677
H134	H	1.117410	-0.981841	-0.363267
H135	H	1.067323	-0.349074	-0.783940
C136	C	1.085923	-0.330316	-0.640847
H137	H	1.111399	-0.304591	-0.674296
H138	H	1.117672	-0.358835	-0.613445
H139	H	1.060201	-0.295706	-0.611146
