data_functionalizedCrystal
_audit_creation_method	'MofGen! by Chris Wilmer'
_symmetry_space_group_name_H-M	'P1'
_symmetry_Int_Tables_number	1
_symmetry_cell_setting	triclinic
loop_
_symmetry_equiv_pos_as_xyz
  x,y,z
_cell_length_a	19.805407
_cell_length_b	19.805405
_cell_length_c	19.805399
_cell_angle_alpha	89.970699
_cell_angle_beta	89.980427
_cell_angle_gamma	90.026410
loop_
_atom_site_label
_atom_site_type_symbol
_atom_site_fract_x
_atom_site_fract_y
_atom_site_fract_z
Zn1	Zn	1.034736	-0.269479	-0.382712
Zn2	Zn	1.368069	0.063854	-0.049378
Zn3	Zn	1.701402	0.397188	0.283955
Zn4	Zn	1.034651	-0.382667	-0.269520
Zn5	Zn	1.367984	-0.049334	0.063813
Zn6	Zn	1.701317	0.283999	0.397147
Zn7	Zn	0.921550	-0.269498	-0.269536
Zn8	Zn	1.254884	0.063836	0.063797
Zn9	Zn	1.588217	0.397169	0.397131
Zn10	Zn	0.921514	-0.382631	-0.382667
Zn11	Zn	1.254847	-0.049298	-0.049333
Zn12	Zn	1.588180	0.284035	0.284000
O13	O	0.978113	-0.326069	-0.326109
O14	O	1.311446	0.007265	0.007225
O15	O	1.644779	0.340598	0.340558
O16	O	1.129441	-0.284501	-0.367708
O17	O	1.462774	0.048833	-0.034375
O18	O	1.796108	0.382166	0.298958
O19	O	1.019627	-0.367678	-0.174805
O20	O	1.352960	-0.034345	0.158528
O21	O	1.686294	0.298989	0.491861
O22	O	0.936616	-0.174778	-0.284575
O23	O	1.269949	0.158555	0.048759
O24	O	1.603282	0.491888	0.382092
O25	O	1.129378	-0.367660	-0.284547
O26	O	1.462712	-0.034326	0.048786
O27	O	1.796045	0.299007	0.382120
O28	O	1.019772	-0.174765	-0.367724
O29	O	1.353106	0.158569	-0.034391
O30	O	1.686439	0.491902	0.298942
O31	O	0.936533	-0.284533	-0.174817
O32	O	1.269866	0.048801	0.158516
O33	O	1.603200	0.382134	0.491849
O34	O	0.826829	-0.284498	-0.284531
O35	O	1.160162	0.048836	0.048802
O36	O	1.493496	0.382169	0.382136
O37	O	0.936553	-0.367598	-0.477389
O38	O	1.269887	-0.034265	-0.144056
O39	O	1.603220	0.299068	0.189277
O40	O	0.826802	-0.367617	-0.367648
O41	O	1.160135	-0.034283	-0.034314
O42	O	1.493469	0.299050	0.299019
O43	O	1.019737	-0.284466	-0.477422
O44	O	1.353070	0.048867	-0.144089
O45	O	1.686404	0.382201	0.189244
O46	O	1.019592	-0.477379	-0.284503
O47	O	1.352925	-0.144046	0.048830
O48	O	1.686258	0.189288	0.382163
O49	O	0.936471	-0.477353	-0.367632
O50	O	1.269804	-0.144019	-0.034299
O51	O	1.603137	0.189314	0.299035
C52	C	0.802257	-0.326056	-0.326087
C53	C	1.135590	0.007278	0.007247
C54	C	1.468923	0.340611	0.340580
C55	C	0.727025	-0.326067	-0.326093
C56	C	1.060358	0.007267	0.007240
C57	C	1.393691	0.340600	0.340573
C58	C	0.978036	-0.501925	-0.326076
C59	C	1.311370	-0.168591	0.007258
C60	C	1.644703	0.164742	0.340591
C61	C	0.978066	-0.577157	-0.326084
C62	C	1.311399	-0.243823	0.007249
C63	C	1.644732	0.089510	0.340582
C64	C	0.691684	-0.369412	-0.369302
C65	C	1.025018	-0.036078	-0.035969
C66	C	1.358351	0.297255	0.297365
C67	C	0.620996	-0.369413	-0.369312
C68	C	0.954329	-0.036080	-0.035978
C69	C	1.287662	0.297254	0.297355
C70	C	0.585649	-0.326072	-0.326109
C71	C	0.918982	0.007262	0.007225
C72	C	1.252316	0.340595	0.340558
C73	C	0.620994	-0.282722	-0.282898
C74	C	0.954328	0.050611	0.050435
C75	C	1.287661	0.383945	0.383769
C76	C	0.691681	-0.282718	-0.282892
C77	C	1.025015	0.050616	0.050441
C78	C	1.358348	0.383949	0.383774
C79	C	0.335921	-0.282737	-0.282920
C80	C	0.669254	0.050596	0.050413
C81	C	1.002588	0.383930	0.383746
C82	C	0.265229	-0.282746	-0.282928
C83	C	0.598562	0.050588	0.050406
C84	C	0.931896	0.383921	0.383739
C85	C	0.265235	-0.369432	-0.369340
C86	C	0.598569	-0.036099	-0.036006
C87	C	0.931902	0.297235	0.297327
C88	C	0.335922	-0.369428	-0.369334
C89	C	0.669256	-0.036094	-0.036001
C90	C	1.002589	0.297239	0.297333
C91	C	0.371262	-0.326076	-0.326126
C92	C	0.704595	0.007258	0.007207
C93	C	1.037928	0.340591	0.340540
C94	C	0.447910	-0.326074	-0.326117
C95	C	0.781243	0.007259	0.007216
C96	C	1.114577	0.340593	0.340549
C97	C	0.509002	-0.326076	-0.326114
C98	C	0.842335	0.007257	0.007220
C99	C	1.175669	0.340590	0.340553
C100	C	1.021389	-0.612492	-0.282845
C101	C	1.354722	-0.279159	0.050489
C102	C	1.688056	0.054174	0.383822
C103	C	1.021418	-0.683181	-0.282860
C104	C	1.354751	-0.349847	0.050474
C105	C	1.688084	-0.016514	0.383807
C106	C	0.978119	-0.718532	-0.326111
C107	C	1.311453	-0.385199	0.007222
C108	C	1.644786	-0.051866	0.340555
C109	C	0.934794	-0.683192	-0.369356
C110	C	1.268128	-0.349859	-0.036023
C111	C	1.601461	-0.016525	0.297311
C112	C	0.934769	-0.612505	-0.369344
C113	C	1.268103	-0.279171	-0.036010
C114	C	1.601436	0.054162	0.297323
C115	C	0.934894	-0.968265	-0.369406
C116	C	1.268227	-0.634932	-0.036073
C117	C	1.601561	-0.301598	0.297261
C118	C	0.934921	-1.038957	-0.369413
C119	C	1.268254	-0.705624	-0.036080
C120	C	1.601588	-0.372291	0.297253
C121	C	1.021542	-1.038941	-0.282922
C122	C	1.354876	-0.705608	0.050411
C123	C	1.688209	-0.372274	0.383745
C124	C	1.021517	-0.968254	-0.282910
C125	C	1.354851	-0.634921	0.050423
C126	C	1.688184	-0.301587	0.383757
C127	C	0.978195	-0.932920	-0.326157
C128	C	1.311529	-0.599586	0.007177
C129	C	1.644862	-0.266253	0.340510
C130	C	0.978166	-0.856271	-0.326141
C131	C	1.311499	-0.522938	0.007193
C132	C	1.644832	-0.189605	0.340526
C133	C	0.978145	-0.795179	-0.326124
C134	C	1.311478	-0.461846	0.007209
C135	C	1.644812	-0.128513	0.340542
C136	C	1.154655	-0.326082	-0.326131
C137	C	1.487989	0.007251	0.007202
C138	C	1.821322	0.340584	0.340536
C139	C	1.229887	-0.326088	-0.326140
C140	C	1.563221	0.007245	0.007193
C141	C	1.896554	0.340579	0.340526
C142	C	0.978151	-0.326026	-0.502651
C143	C	1.311484	0.007307	-0.169318
C144	C	1.644817	0.340641	0.164015
C145	C	0.978167	-0.326008	-0.577883
C146	C	1.311500	0.007325	-0.244550
C147	C	1.644833	0.340659	0.088783
C148	C	0.978207	-0.149526	-0.326156
C149	C	1.311541	0.183807	0.007177
C150	C	1.644874	0.517141	0.340510
C151	C	0.978248	-0.074294	-0.326177
C152	C	1.311581	0.259039	0.007157
C153	C	1.644915	0.592373	0.340490
C154	C	1.021481	-0.282719	-0.613246
C155	C	1.354815	0.050615	-0.279912
C156	C	1.688148	0.383948	0.053421
C157	C	1.021488	-0.282699	-0.683934
C158	C	1.354822	0.050634	-0.350601
C159	C	1.688155	0.383968	-0.017268
C160	C	0.978184	-0.325973	-0.719259
C161	C	1.311517	0.007361	-0.385926
C162	C	1.644850	0.340694	-0.052592
C163	C	0.934864	-0.369264	-0.683892
C164	C	1.268197	-0.035930	-0.350558
C165	C	1.601531	0.297403	-0.017225
C166	C	0.934854	-0.369279	-0.613204
C167	C	1.268188	-0.035946	-0.279871
C168	C	1.601521	0.297387	0.053462
C169	C	0.934902	-0.369201	-0.968965
C170	C	1.268236	-0.035867	-0.635632
C171	C	1.601569	0.297466	-0.302298
C172	C	0.934917	-0.369183	-1.039657
C173	C	1.268250	-0.035850	-0.706324
C174	C	1.601584	0.297484	-0.372991
C175	C	1.021536	-0.282620	-1.039695
C176	C	1.354870	0.050713	-0.706362
C177	C	1.688203	0.384046	-0.373028
C178	C	1.021527	-0.282636	-0.969008
C179	C	1.354860	0.050697	-0.635674
C180	C	1.688193	0.384031	-0.302341
C181	C	0.978205	-0.325924	-0.933647
C182	C	1.311538	0.007409	-0.600313
C183	C	1.644872	0.340742	-0.266980
C184	C	0.978197	-0.325944	-0.856998
C185	C	1.311530	0.007389	-0.523665
C186	C	1.644864	0.340723	-0.190331
C187	C	0.978194	-0.325957	-0.795906
C188	C	1.311528	0.007377	-0.462573
C189	C	1.644861	0.340710	-0.129240
C190	C	0.978114	-0.326062	-0.150253
C191	C	1.311447	0.007271	0.183081
C192	C	1.644780	0.340604	0.516414
C193	C	0.978229	-0.325890	-0.075021
C194	C	1.311562	0.007443	0.258312
C195	C	1.644895	0.340777	0.591646
H196	H	0.592225	-0.404709	-0.404496
H197	H	0.925558	-0.071376	-0.071163
H198	H	1.258891	0.261957	0.262171
C199	C	0.887280	-0.416784	-1.078517
C200	C	1.220613	-0.083451	-0.745183
C201	C	1.553947	0.249883	-0.411850
H202	H	0.893498	-0.410579	-1.125680
H203	H	1.226832	-0.077246	-0.792346
H204	H	1.560165	0.256088	-0.459013
H205	H	0.841806	-0.406877	-1.066931
H206	H	1.175139	-0.073544	-0.733598
H207	H	1.508472	0.259790	-0.400265
H208	H	0.897161	-0.462267	-1.066920
H209	H	1.230495	-0.128934	-0.733587
H210	H	1.563828	0.204399	-0.400253
C211	C	0.887257	-0.416819	-0.930073
C212	C	1.220590	-0.083486	-0.596740
C213	C	1.553923	0.249847	-0.263407
H214	H	0.893445	-0.410629	-0.882915
H215	H	1.226778	-0.077296	-0.549582
H216	H	1.560111	0.256037	-0.216248
H217	H	0.897140	-0.462294	-0.941648
H218	H	1.230474	-0.128961	-0.608314
H219	H	1.563807	0.204373	-0.274981
H220	H	0.841785	-0.406903	-0.941655
H221	H	1.175118	-0.073570	-0.608321
H222	H	1.508452	0.259764	-0.274988
H223	H	0.899602	-0.404495	-0.712659
H224	H	1.232935	-0.071162	-0.379325
H225	H	1.566269	0.262171	-0.045992
C226	C	0.374785	-0.235063	-0.235382
C227	C	0.708119	0.098270	0.097951
C228	C	1.041452	0.431603	0.431285
H229	H	0.343608	-0.209261	-0.209647
H230	H	0.676942	0.124072	0.123687
H231	H	1.010275	0.457406	0.457020
H232	H	0.402386	-0.205600	-0.261316
H233	H	0.735720	0.127733	0.072017
H234	H	1.069053	0.461067	0.405351
H235	H	0.402333	-0.260924	-0.205841
H236	H	0.735667	0.072409	0.127493
H237	H	1.069000	0.405742	0.460826
C238	C	0.887210	-0.416897	-0.574303
C239	C	1.220543	-0.083563	-0.240969
C240	C	1.553876	0.249770	0.092364
H241	H	0.893401	-0.410704	-0.527145
H242	H	1.226734	-0.077370	-0.193812
H243	H	1.560067	0.255963	0.139522
H244	H	0.897089	-0.462373	-0.585874
H245	H	1.230422	-0.129040	-0.252541
H246	H	1.563756	0.204294	0.080793
H247	H	0.841738	-0.406978	-0.585882
H248	H	1.175071	-0.073644	-0.252549
H249	H	1.508405	0.259689	0.080784
C250	C	0.730560	-0.417087	-0.416827
C251	C	1.063893	-0.083753	-0.083494
C252	C	1.397226	0.249580	0.249839
H253	H	0.699385	-0.442896	-0.442566
H254	H	1.032719	-0.109563	-0.109233
H255	H	1.366052	0.223770	0.224100
H256	H	0.758113	-0.446543	-0.390883
H257	H	1.091446	-0.113210	-0.057549
H258	H	1.424780	0.220123	0.275784
H259	H	0.758156	-0.391227	-0.446366
H260	H	1.091489	-0.057893	-0.113032
H261	H	1.424822	0.275440	0.220301
H262	H	1.056792	-0.247400	-0.940250
H263	H	1.390125	0.085933	-0.606916
H264	H	1.723459	0.419266	-0.273583
C265	C	0.374800	-0.417101	-0.416859
C266	C	0.708134	-0.083767	-0.083526
C267	C	1.041467	0.249566	0.249807
H268	H	0.343628	-0.442912	-0.442600
H269	H	0.676961	-0.109578	-0.109266
H270	H	1.010295	0.223755	0.224067
H271	H	0.402355	-0.446556	-0.390915
H272	H	0.735688	-0.113223	-0.057581
H273	H	1.069022	0.220110	0.275752
H274	H	0.402396	-0.391238	-0.446397
H275	H	0.735729	-0.057905	-0.113063
H276	H	1.069062	0.275428	0.220270
H277	H	0.236454	-0.404729	-0.404524
H278	H	0.569787	-0.071395	-0.071191
H279	H	0.903120	0.261938	0.262143
C280	C	0.226349	-0.235063	-0.235408
C281	C	0.559682	0.098270	0.097926
C282	C	0.893015	0.431604	0.431259
H283	H	0.257519	-0.209238	-0.209679
H284	H	0.590852	0.124095	0.123655
H285	H	0.924185	0.457429	0.456988
H286	H	0.198750	-0.260914	-0.205870
H287	H	0.532084	0.072419	0.127464
H288	H	0.865417	0.405752	0.460797
H289	H	0.198797	-0.205610	-0.261365
H290	H	0.532130	0.127723	0.071968
H291	H	0.865463	0.461056	0.405301
H292	H	0.720455	-0.247418	-0.247711
H293	H	1.053788	0.085915	0.085622
H294	H	1.387121	0.419249	0.418956
C295	C	0.582115	-0.235050	-0.235373
C296	C	0.915448	0.098284	0.097960
C297	C	1.248782	0.431617	0.431293
H298	H	0.534954	-0.241265	-0.241559
H299	H	0.868288	0.092068	0.091775
H300	H	1.201621	0.425402	0.425108
H301	H	0.593719	-0.189584	-0.245358
H302	H	0.927053	0.143749	0.087975
H303	H	1.260386	0.477083	0.421309
H304	H	0.593679	-0.244902	-0.189876
H305	H	0.927012	0.088431	0.143457
H306	H	1.260346	0.421765	0.476791
C307	C	1.069019	-0.573611	-0.235268
C308	C	1.402352	-0.240278	0.098065
C309	C	1.735685	0.093055	0.431398
H310	H	1.094829	-0.604783	-0.209524
H311	H	1.428162	-0.271449	0.123810
H312	H	1.761496	0.061884	0.457143
H313	H	1.043138	-0.546076	-0.205747
H314	H	1.376471	-0.212743	0.127586
H315	H	1.709805	0.120590	0.460920
H316	H	1.098487	-0.545997	-0.261188
H317	H	1.431821	-0.212663	0.072145
H318	H	1.765154	0.120670	0.405478
H319	H	1.056809	-0.247370	-1.068495
H320	H	1.390142	0.085963	-0.735161
H321	H	1.723475	0.419296	-0.401828
C322	C	1.069070	-0.722047	-0.235293
C323	C	1.402403	-0.388713	0.098040
C324	C	1.735736	-0.055380	0.431374
H325	H	1.094846	-0.690869	-0.209526
H326	H	1.428180	-0.357535	0.123807
H327	H	1.761513	-0.024202	0.457141
H328	H	1.098558	-0.749580	-0.261213
H329	H	1.431892	-0.416247	0.072120
H330	H	1.765225	-0.082913	0.405454
H331	H	1.043199	-0.749663	-0.205782
H332	H	1.376532	-0.416329	0.127552
H333	H	1.709866	-0.082996	0.460885
H334	H	0.899492	-0.583735	-0.404555
H335	H	1.232826	-0.250402	-0.071221
H336	H	1.566159	0.082931	0.262112
H337	H	1.056773	-0.939473	-0.247688
H338	H	1.390106	-0.606139	0.085645
H339	H	1.723439	-0.272806	0.418979
H340	H	1.056820	-1.067719	-0.247711
H341	H	1.390153	-0.734385	0.085622
H342	H	1.723487	-0.401052	0.418956
C343	C	1.069138	-0.235084	-0.722830
C344	C	1.402471	0.098249	-0.389497
C345	C	1.735804	0.431583	-0.056164
H346	H	1.094933	-0.209321	-0.691668
H347	H	1.428267	0.124012	-0.358335
H348	H	1.761600	0.457346	-0.025001
H349	H	1.043270	-0.205582	-0.750408
H350	H	1.376603	0.127752	-0.417075
H351	H	1.709936	0.461085	-0.083742
H352	H	1.098619	-0.260978	-0.750403
H353	H	1.431953	0.072355	-0.417070
H354	H	1.765286	0.405688	-0.083737
C355	C	0.887296	-1.077843	-0.416998
C356	C	1.220630	-0.744510	-0.083665
C357	C	1.553963	-0.411176	0.249669
H358	H	0.861496	-1.046676	-0.442758
H359	H	1.194830	-0.713343	-0.109425
H360	H	1.528163	-0.380009	0.223909
H361	H	0.857828	-1.105460	-0.391087
H362	H	1.191162	-0.772127	-0.057753
H363	H	1.524495	-0.438794	0.275580
H364	H	0.913190	-1.105376	-0.446515
H365	H	1.246524	-0.772043	-0.113182
H366	H	1.579857	-0.438710	0.220151
H367	H	1.056747	-0.247482	-0.584489
H368	H	1.390081	0.085851	-0.251156
H369	H	1.723414	0.419184	0.082177
H370	H	0.899618	-0.939502	-0.404618
H371	H	1.232952	-0.606168	-0.071284
H372	H	1.566285	-0.272835	0.262049
C373	C	0.887165	-0.722077	-0.416930
C374	C	1.220499	-0.388743	-0.083597
C375	C	1.553832	-0.055410	0.249736
H376	H	0.893379	-0.769237	-0.410740
H377	H	1.226712	-0.435903	-0.077407
H378	H	1.560046	-0.102570	0.255927
H379	H	0.897037	-0.710455	-0.462416
H380	H	1.230371	-0.377122	-0.129082
H381	H	1.563704	-0.043789	0.204251
H382	H	0.841689	-0.710534	-0.406974
H383	H	1.175022	-0.377200	-0.073640
H384	H	1.508355	-0.043867	0.259693
