data_functionalizedCrystal
_audit_creation_method	'MofGen! by Chris Wilmer'
_symmetry_space_group_name_H-M	'P1'
_symmetry_Int_Tables_number	1
_symmetry_cell_setting	triclinic
loop_
_symmetry_equiv_pos_as_xyz
  x,y,z
_cell_length_a	18.215405
_cell_length_b	18.215407
_cell_length_c	18.215399
_cell_angle_alpha	89.980167
_cell_angle_beta	89.969449
_cell_angle_gamma	90.025333
loop_
_atom_site_label
_atom_site_type_symbol
_atom_site_fract_x
_atom_site_fract_y
_atom_site_fract_z
Zn1	Zn	-0.292983	1.125072	-0.416103
Zn2	Zn	-0.416054	1.124980	-0.293031
Zn3	Zn	-0.293007	1.002005	-0.293050
Zn4	Zn	-0.416013	1.001970	-0.416056
O5	O	-0.354514	1.063507	-0.354560
O6	O	-0.309316	1.228044	-0.399788
O7	O	-0.399759	1.108643	-0.190049
O8	O	-0.190020	1.018382	-0.309401
O9	O	-0.399736	1.227977	-0.309368
O10	O	-0.190002	1.108799	-0.399807
O11	O	-0.309357	1.018293	-0.190063
O12	O	-0.309317	0.899016	-0.309355
O13	O	-0.399666	1.018324	-0.519046
O14	O	-0.399689	0.898991	-0.399727
O15	O	-0.309276	1.108766	-0.519081
O16	O	-0.519033	1.108610	-0.309322
O17	O	-0.519003	1.018235	-0.399708
C18	C	-0.354502	0.872301	-0.354539
C19	C	-0.354514	0.790502	-0.354547
C20	C	-0.401645	0.602314	-0.401544
C21	C	-0.401647	0.525455	-0.401554
C22	C	-0.307397	0.525452	-0.307591
C23	C	-0.307392	0.602309	-0.307586
C24	C	-0.354520	0.640738	-0.354562
C25	C	-0.354528	0.487022	-0.354576
C26	C	-0.354530	0.403688	-0.354585
C27	C	-0.354517	0.724077	-0.354553
C28	C	-0.545721	1.063429	-0.354524
C29	C	-0.627520	1.063463	-0.354534
C30	C	-0.815705	1.110632	-0.307556
C31	C	-0.892563	1.110665	-0.307574
C32	C	-0.892572	1.016476	-0.401616
C33	C	-0.815715	1.016447	-0.401601
C34	C	-0.777283	1.063524	-0.354567
C35	C	-0.930999	1.063586	-0.354600
C36	C	-1.014333	1.063621	-0.354619
C37	C	-0.693944	1.063490	-0.354548
C38	C	-0.162561	1.063605	-0.354611
C39	C	-0.080763	1.063647	-0.354633
C40	C	-0.354464	1.063552	-0.546513
C41	C	-0.354442	1.063571	-0.628312
C42	C	-0.354528	1.255460	-0.354581
C43	C	-0.354533	1.337259	-0.354591
C44	C	-0.307332	1.110681	-0.816525
C45	C	-0.307311	1.110690	-0.893384
C46	C	-0.401438	1.016513	-0.893336
C47	C	-0.401455	1.016501	-0.816479
C48	C	-0.354403	1.063589	-0.778075
C49	C	-0.354365	1.063610	-0.931791
C50	C	-0.354342	1.063619	-1.015125
C51	C	-0.354425	1.063579	-0.694736
C52	C	-0.354512	1.063504	-0.163353
C53	C	-0.354326	1.063628	-0.081555
H54	H	-0.269012	0.633595	-0.269327
H55	H	-0.269017	1.149021	-0.785259
H56	H	-0.440020	0.494174	-0.439813
H57	H	-0.269028	0.494153	-0.269344
H58	H	-0.784430	0.978086	-0.439887
H59	H	-0.268979	1.149035	-0.924686
H60	H	-0.784415	1.148966	-0.269260
H61	H	-0.923843	1.149026	-0.269294
H62	H	-0.439748	0.978177	-0.924614
Br63	Br	-0.465336	0.952579	-0.764292
Br64	Br	-0.944734	0.952588	-0.465444
H65	H	-0.440018	0.633601	-0.439797
