data_functionalizedCrystal
_audit_creation_method	'MofGen! by Chris Wilmer'
_symmetry_space_group_name_H-M	'P1'
_symmetry_Int_Tables_number	1
_symmetry_cell_setting	triclinic
loop_
_symmetry_equiv_pos_as_xyz
  x,y,z
_cell_length_a	13.339070
_cell_length_b	17.038272
_cell_length_c	12.376457
_cell_angle_alpha	102.103643
_cell_angle_beta	75.589755
_cell_angle_gamma	103.370425
loop_
_atom_site_label
_atom_site_type_symbol
_atom_site_fract_x
_atom_site_fract_y
_atom_site_fract_z
O1	O	1.395122	0.388434	-0.094053
O2	O	1.096082	0.336008	-0.094045
O3	O	1.243823	0.248021	-0.094040
O4	O	1.247381	0.476421	-0.094058
O5	O	1.206898	0.269979	0.093971
O6	O	1.059157	0.357966	0.093966
O7	O	1.358198	0.410392	0.093958
Zn8	Zn	1.202815	0.387665	0.123813
Zn9	Zn	1.251465	0.358734	-0.123900
O10	O	1.210456	0.498379	0.093953
C11	C	1.039168	0.338131	-0.000039
C12	C	0.924594	0.311734	-0.000035
C13	C	1.222128	0.229169	-0.000034
C14	C	1.212482	0.140282	-0.000034
C15	C	0.577472	0.516981	-0.000069
C16	C	0.685120	0.541784	-0.000076
C17	C	0.744994	0.484274	-0.000065
C18	C	0.697208	0.401956	-0.000049
C19	C	0.589551	0.377149	-0.000051
C20	C	0.757073	0.344442	-0.000047
C21	C	0.709288	0.262125	-0.000031
C22	C	0.601640	0.237322	-0.000033
C23	C	0.541767	0.294832	-0.000043
C24	C	0.864731	0.369249	-0.000045
C25	C	0.876810	0.229417	-0.000027
C26	C	0.769161	0.204614	-0.000021
C27	C	1.301039	0.109396	-0.000036
C28	C	1.291972	0.025875	-0.000046
C29	C	1.194346	-0.026757	-0.000047
C30	C	1.105783	0.004133	-0.000050
C31	C	1.114852	0.087652	-0.000047
C32	C	1.162306	-0.279475	-0.000062
C33	C	1.153242	-0.362998	-0.000061
C34	C	1.339433	-0.341250	-0.000060
C35	C	1.348493	-0.257730	-0.000050
C36	C	1.259931	-0.226847	-0.000059
C37	C	1.185075	-0.112129	-0.000055
C38	C	1.269204	-0.141478	-0.000059
C39	C	1.415112	0.408268	-0.000051
C40	C	1.529688	0.434664	-0.000061
C41	C	1.232152	0.517230	-0.000055
C42	C	1.241799	0.606116	-0.000062
N43	N	1.169620	0.407411	0.292870
N44	N	1.284667	0.338984	-0.292957
C45	C	1.361722	0.293132	0.647862
C46	C	1.384949	0.279311	0.529523
C47	C	1.331119	0.311334	0.470354
C48	C	1.254057	0.357182	0.529535
C49	C	1.230833	0.371011	0.647886
C50	C	1.200230	0.389213	0.470378
C51	C	1.123169	0.435061	0.529560
C52	C	1.099948	0.448886	0.647899
C53	C	1.153779	0.416863	0.707068
C54	C	1.223454	0.375385	0.352027
C55	C	1.092565	0.453263	0.352052
C56	C	1.069338	0.467084	0.470391
H57	H	0.903626	0.436273	-0.000054
H58	H	1.006593	0.504415	0.518591
H59	H	1.026294	-0.038728	-0.000058
N60	N	1.419776	0.258607	0.711687
H61	H	1.367713	0.220508	0.760805
H62	H	1.472118	0.227503	0.656177
H63	H	1.073735	-0.405849	-0.000044
H64	H	1.348696	-0.098624	-0.000083
N65	N	0.512895	0.579000	-0.000085
H66	H	0.559498	0.634913	-0.000094
H67	H	0.481665	0.563606	-0.069789
H68	H	1.350034	0.300079	0.373997
H69	H	0.832647	0.504474	-0.000073
H70	H	1.411535	-0.366404	-0.000055
N71	N	1.066787	-0.246173	-0.000064
H72	H	1.080086	-0.220148	-0.069764
H73	H	1.003615	-0.292230	-0.000020
N74	N	1.019340	0.120968	-0.000053
H75	H	0.956117	0.074953	-0.000053
H76	H	1.005356	0.163285	0.069644
H77	H	1.447693	0.241983	0.481341
H78	H	1.364085	0.000733	-0.000044
H79	H	1.048733	0.479342	0.303877
H80	H	0.724021	0.608806	-0.000098
N81	N	1.128723	0.431771	0.834708
H82	H	1.174516	0.404523	0.863206
H83	H	1.142769	0.492503	0.863116
N84	N	0.425651	0.268081	-0.000009
H85	H	0.394975	0.317008	-0.000004
H86	H	0.415846	0.226497	-0.069697
N87	N	0.550100	0.148537	-0.000030
H88	H	0.604360	0.115867	-0.000021
H89	H	0.492006	0.143342	0.069668
N90	N	1.306555	0.325933	0.288190
H91	H	1.376471	0.353416	0.308763
H92	H	1.285685	0.269222	0.308819
H93	H	0.730240	0.137588	-0.000017
N94	N	1.016830	0.498332	0.711731
H95	H	1.037593	0.555052	0.691128
H96	H	0.946954	0.470771	0.691121
N97	N	0.941375	0.167379	-0.000022
H98	H	1.016821	0.195585	-0.000020
H99	H	0.911506	0.140652	0.069677
N100	N	1.406337	0.166162	-0.000031
H101	H	1.400560	0.209432	0.069669
H102	H	1.461004	0.133856	-0.000077
H103	H	1.427990	-0.214880	-0.000049
H104	H	1.105586	-0.154992	-0.000053
