data_functionalizedCrystal
_audit_creation_method	'MofGen! by Chris Wilmer'
_symmetry_space_group_name_H-M	'P1'
_symmetry_Int_Tables_number	1
_symmetry_cell_setting	triclinic
loop_
_symmetry_equiv_pos_as_xyz
  x,y,z
_cell_length_a	14.908571
_cell_length_b	19.121063
_cell_length_c	14.908308
_cell_angle_alpha	95.554627
_cell_angle_beta	90.175053
_cell_angle_gamma	89.303906
loop_
_atom_site_label
_atom_site_type_symbol
_atom_site_fract_x
_atom_site_fract_y
_atom_site_fract_z
Zn1	Zn	1.324072	-0.366417	-0.606393
Zn2	Zn	1.326220	-0.477475	-0.461735
Zn3	Zn	1.183168	-0.352931	-0.446699
Zn4	Zn	1.167296	-0.476641	-0.603344
O5	O	1.250189	-0.418366	-0.529543
O6	O	1.449836	-0.387142	-0.594773
O7	O	1.314785	-0.455659	-0.333644
O8	O	1.207604	-0.256469	-0.462866
O9	O	1.451414	-0.468736	-0.488493
O10	O	1.311125	-0.266377	-0.580193
O11	O	1.209686	-0.364157	-0.322597
O12	O	1.055584	-0.363348	-0.459909
O13	O	1.180551	-0.467315	-0.729845
O14	O	1.043922	-0.454238	-0.574995
O15	O	1.295734	-0.386334	-0.732085
O16	O	1.299394	-0.575616	-0.485536
O17	O	1.182633	-0.575003	-0.589576
C18	C	1.017218	-0.407239	-0.515490
C19	C	0.917550	-0.402497	-0.509501
C20	C	0.718169	-0.488362	-0.617938
C21	C	0.624521	-0.483909	-0.612314
C22	C	0.636605	-0.389134	-0.492633
C23	C	0.730253	-0.393588	-0.498257
C24	C	0.771031	-0.443204	-0.560911
C25	C	0.864680	-0.447660	-0.566530
C26	C	0.876762	-0.352883	-0.446854
C27	C	0.783115	-0.348429	-0.441230
C28	C	1.239548	-0.600787	-0.538878
C29	C	1.235075	-0.678833	-0.542906
C30	C	1.293807	-0.715799	-0.490682
C31	C	1.289606	-0.789131	-0.494476
C32	C	1.226668	-0.825496	-0.550491
C33	C	1.167934	-0.788525	-0.602722
C34	C	1.172140	-0.715194	-0.598932
C35	C	1.210929	-1.046893	-0.564648
C36	C	1.206726	-1.120229	-0.568432
C37	C	1.328400	-1.120830	-0.460187
C38	C	1.332596	-1.047498	-0.456398
C39	C	1.273865	-1.010533	-0.508632
C40	C	1.222371	-0.900454	-0.554369
C41	C	1.278168	-0.935578	-0.504758
C42	C	1.484070	-0.429537	-0.543650
C43	C	1.583736	-0.434297	-0.549662
C44	C	1.236132	-0.428235	-0.764574
C45	C	1.230142	-0.432441	-0.864731
C46	C	1.260895	-0.235235	-0.520192
C47	C	1.265458	-0.157195	-0.516207
C48	C	1.338824	-0.356002	-1.055270
C49	C	1.333199	-0.359951	-1.149376
C50	C	1.213262	-0.444285	-1.147051
C51	C	1.218888	-0.440335	-1.052945
C52	C	1.281672	-0.396193	-1.007057
C53	C	1.287301	-0.392248	-0.912950
C54	C	1.167360	-0.476578	-0.910626
C55	C	1.161735	-0.480527	-1.004732
C56	C	1.264246	-0.408487	-0.295425
C57	C	1.270421	-0.404092	-0.195270
H58	H	0.897880	-0.488061	-0.617545
O59	O	0.757641	-0.536577	-0.678871
C60	C	0.690901	-0.575496	-0.727981
H61	H	0.625627	-0.543702	-0.725681
H62	H	0.713292	-0.587340	-0.800975
H63	H	0.679817	-0.626917	-0.696999
O64	O	0.573129	-0.527678	-0.667796
C65	C	0.517792	-0.487641	-0.720764
H66	H	0.548891	-0.433929	-0.725306
H67	H	0.511120	-0.515976	-0.791300
H68	H	0.448621	-0.480645	-0.688518
H69	H	1.389949	-0.320063	-1.017908
H70	H	0.919813	-0.316113	-0.400417
H71	H	1.376216	-1.150935	-0.417663
O72	O	1.393618	-1.012137	-0.401880
C73	C	1.348528	-0.964882	-0.338385
H74	H	1.276976	-0.983421	-0.329649
H75	H	1.385208	-0.962695	-0.270982
H76	H	1.346942	-0.910318	-0.363180
O77	O	0.596840	-0.340979	-0.431830
C78	C	0.502848	-0.346708	-0.439134
H79	H	0.485149	-0.401564	-0.470505
H80	H	0.471536	-0.337300	-0.369275
H81	H	0.475855	-0.305894	-0.483526
O82	O	1.115122	-0.679366	-0.649795
C83	C	1.128270	-0.701935	-0.741721
H84	H	1.159568	-0.756881	-0.748443
H85	H	1.060968	-0.703073	-0.778305
H86	H	1.174906	-0.664101	-0.772749
H87	H	1.345054	-0.686195	-0.445064
O88	O	0.743456	-0.300329	-0.380281
C89	C	0.690415	-0.335210	-0.320806
H90	H	0.715758	-0.391606	-0.319651
H91	H	0.694956	-0.306773	-0.250142
H92	H	0.617641	-0.335455	-0.344530
O93	O	1.111790	-0.515688	-0.863933
C94	C	1.055155	-0.555477	-0.924616
H95	H	1.087731	-0.562479	-0.994036
H96	H	1.043977	-0.609197	-0.899676
H97	H	0.987960	-0.526931	-0.929206
H98	H	1.337431	-0.819226	-0.451949
H99	H	1.379736	-0.327221	-1.188626
O100	O	1.145563	-1.155450	-0.622933
C101	C	1.094613	-1.107099	-0.668209
H102	H	1.134147	-1.056685	-0.670871
H103	H	1.079542	-1.130795	-0.739712
H104	H	1.028954	-1.094721	-0.630659
O105	O	1.153995	-1.010974	-0.615482
C106	C	1.203942	-0.973370	-0.674599
H107	H	1.272962	-0.999021	-0.685623
H108	H	1.167352	-0.973905	-0.741914
H109	H	1.211900	-0.916777	-0.644065
H110	H	1.116692	-0.818140	-0.648335
H111	H	1.329415	-0.905967	-0.459154
O112	O	1.161112	-0.935693	-0.608722
C113	C	1.073962	-0.912764	-0.582627
H114	H	1.077252	-0.857991	-0.545125
H115	H	1.029956	-0.911071	-0.645068
H116	H	1.044208	-0.950687	-0.536588
H117	H	1.338424	-0.356306	-0.875590
H118	H	1.162146	-0.480223	-1.184428
O119	O	1.100873	-0.523487	-1.049364
C120	C	1.146023	-0.573541	-1.109213
H121	H	1.218088	-0.580056	-1.085334
H122	H	1.110375	-0.626073	-1.111089
H123	H	1.146114	-0.554971	-1.179610
