data_functionalizedCrystal
_audit_creation_method	'MofGen! by Chris Wilmer'
_symmetry_space_group_name_H-M	'P1'
_symmetry_Int_Tables_number	1
_symmetry_cell_setting	triclinic
loop_
_symmetry_equiv_pos_as_xyz
  x,y,z
_cell_length_a	11.792241
_cell_length_b	8.559649
_cell_length_c	7.088929
_cell_angle_alpha	84.674985
_cell_angle_beta	96.266551
_cell_angle_gamma	76.986040
loop_
_atom_site_label
_atom_site_type_symbol
_atom_site_fract_x
_atom_site_fract_y
_atom_site_fract_z
O1	O	-0.025390	2.103509	0.158956
O2	O	0.033181	1.638811	0.158967
O3	O	-0.162308	1.882438	0.158948
O4	O	0.170100	1.859881	0.158976
O5	O	-0.188486	1.914996	-0.159030
O6	O	0.007004	1.671369	-0.159010
O7	O	-0.051568	2.136066	-0.159022
Cu8	Cu	-0.024672	1.906690	-0.188050
Cu9	Cu	0.006286	1.868187	0.187996
O10	O	0.143922	1.892439	-0.159002
C11	C	0.024531	1.595598	-0.000020
C12	C	0.037744	1.418332	-0.000016
C13	C	-0.217558	1.897300	-0.000040
C14	C	-0.343184	1.893059	-0.000038
C15	C	-0.573179	1.885259	-0.000006
C16	C	-0.445192	1.889593	-0.000023
C17	C	0.199172	1.877577	-0.000010
C18	C	0.324799	1.881816	0.000001
C19	C	-0.042917	2.179279	-0.000030
C20	C	-0.056129	2.356543	-0.000021
N21	N	-0.046448	1.933783	-0.452540
N22	N	0.028052	1.841107	0.452486
H23	H	0.128227	1.335608	0.000002
C24	C	-0.176679	1.466981	0.000266
C25	C	-0.176376	1.546937	0.163832
C26	C	-0.287402	1.648711	0.164149
H27	H	-0.233903	1.404641	0.000361
H28	H	-0.194967	1.544149	-0.110564
H29	H	-0.158102	1.469779	0.274633
H30	H	-0.119176	1.609307	0.163771
H31	H	-0.305690	1.725878	0.053319
H32	H	-0.344617	1.586358	0.164239
H33	H	-0.287208	1.702984	0.275116
C34	C	0.131154	1.713220	-0.438752
C35	C	0.236328	1.745255	-0.487255
C36	C	0.331332	1.627492	-0.387071
H37	H	0.125685	1.609773	-0.471400
H38	H	0.129736	1.715076	-0.305227
H39	H	0.237745	1.743384	-0.620750
H40	H	0.241836	1.848681	-0.454602
H41	H	0.329914	1.629348	-0.253546
H42	H	0.325850	1.524053	-0.419726
H43	H	0.402703	1.649220	-0.419952
H44	H	-0.123651	2.029850	-0.534203
