data_functionalizedCrystal
_audit_creation_method	'MofGen! by Chris Wilmer'
_symmetry_space_group_name_H-M	'P1'
_symmetry_Int_Tables_number	1
_symmetry_cell_setting	triclinic
loop_
_symmetry_equiv_pos_as_xyz
  x,y,z
_cell_length_a	14.971486
_cell_length_b	14.971486
_cell_length_c	13.448316
_cell_angle_alpha	90.006811
_cell_angle_beta	89.998199
_cell_angle_gamma	96.385871
loop_
_atom_site_label
_atom_site_type_symbol
_atom_site_fract_x
_atom_site_fract_y
_atom_site_fract_z
O1	O	1.186947	-0.116565	-0.082578
O2	O	1.686947	0.383435	0.417422
O3	O	0.926547	-0.130524	-0.082605
O4	O	1.426547	0.369476	0.417395
O5	O	1.063727	0.006656	-0.082584
O6	O	1.563727	0.506656	0.417416
O7	O	1.049768	-0.253744	-0.082599
O8	O	1.549768	0.246256	0.417401
O9	O	1.063709	0.006664	0.082800
O10	O	1.563709	0.506664	0.582800
O11	O	0.926530	-0.130515	0.082779
O12	O	1.426530	0.369485	0.582779
O13	O	1.186930	-0.116556	0.082806
O14	O	1.686930	0.383444	0.582806
Cu15	Cu	1.056728	-0.123535	0.097893
Cu16	Cu	1.556728	0.376465	0.597893
Cu17	Cu	1.056749	-0.123545	-0.097692
Cu18	Cu	1.556749	0.376455	0.402308
O19	O	1.049751	-0.253736	0.082784
O20	O	1.549751	0.246264	0.582784
C21	C	0.893214	-0.129895	0.000083
C22	C	1.393214	0.370105	0.500083
C23	C	0.793917	-0.128024	0.000073
C24	C	1.293917	0.371976	0.500073
N25	N	1.056721	-0.123527	0.235457
N26	N	1.556721	0.376473	0.735457
C27	C	1.063094	0.039985	0.000108
C28	C	1.563094	0.539985	0.500108
C29	C	1.061223	0.139282	0.000107
C30	C	1.561223	0.639282	0.500107
C31	C	0.736692	-0.208614	0.000070
C32	C	1.236692	0.291386	0.500070
C33	C	0.643392	-0.206850	0.000085
C34	C	1.143392	0.293150	0.500085
C35	C	0.607320	-0.124497	0.000096
C36	C	1.107320	0.375503	0.500096
C37	C	0.664552	-0.043902	0.000102
C38	C	1.164552	0.456098	0.500102
C39	C	0.757850	-0.045666	0.000095
C40	C	1.257850	0.454334	0.500095
C41	C	0.470090	-0.040231	0.000116
C42	C	0.970090	0.459769	0.500116
C43	C	0.376786	-0.038466	0.000122
C44	C	0.876786	0.461534	0.500122
C45	C	0.355632	-0.201415	0.000106
C46	C	0.855632	0.298585	0.500106
C47	C	0.448930	-0.203179	0.000099
C48	C	0.948930	0.296821	0.500099
C49	C	0.506156	-0.122584	0.000103
C50	C	1.006156	0.377416	0.500103
C51	C	1.220263	-0.117185	0.000115
C52	C	1.720263	0.382815	0.500115
C53	C	1.319561	-0.119056	0.000119
C54	C	1.819561	0.380944	0.500119
C55	C	1.050384	-0.287065	0.000091
C56	C	1.550384	0.212935	0.500091
C57	C	1.052254	-0.386362	0.000085
C58	C	1.552254	0.113638	0.500085
C59	C	1.141812	0.196507	0.000116
C60	C	1.641812	0.696507	0.500116
C61	C	1.140049	0.289807	0.000106
C62	C	1.640049	0.789807	0.500106
C63	C	1.057696	0.325879	0.000093
C64	C	1.557696	0.825879	0.500093
C65	C	0.977101	0.268646	0.000081
C66	C	1.477101	0.768646	0.500081
C67	C	0.978865	0.175349	0.000084
C68	C	1.478865	0.675349	0.500084
C69	C	0.973430	0.463109	0.000077
C70	C	1.473430	0.963109	0.500077
C71	C	0.971665	0.556413	0.000076
C72	C	1.471665	1.056413	0.500076
C73	C	1.134614	0.577567	0.000099
C74	C	1.634614	1.077567	0.500099
C75	C	1.136378	0.484269	0.000102
C76	C	1.636378	0.984269	0.500102
C77	C	1.055782	0.427043	0.000091
C78	C	1.555782	0.927043	0.500091
N79	N	1.056764	-0.123545	-0.235257
N80	N	1.556764	0.376455	0.264743
C81	C	1.117483	-0.062809	0.287507
C82	C	1.617483	0.437191	0.787507
C83	C	1.117488	-0.062809	0.391610
C84	C	1.617488	0.437191	0.891610
C85	C	1.056735	-0.123531	0.443662
C86	C	1.556735	0.376469	0.943662
C87	C	0.995967	-0.184252	0.391605
C88	C	1.495967	0.315748	0.891605
C89	C	0.995958	-0.184248	0.287504
C90	C	1.495958	0.315752	0.787504
C91	C	0.995992	-0.184258	0.608585
C92	C	1.495992	0.315742	1.108585
C93	C	0.996002	-0.184264	0.712693
C94	C	1.496002	0.315736	1.212693
C95	C	1.117522	-0.062819	0.712692
C96	C	1.617522	0.437181	1.212692
C97	C	1.117513	-0.062815	0.608591
C98	C	1.617513	0.437185	1.108591
C99	C	1.056745	-0.123537	0.556541
C100	C	1.556745	0.376463	1.056541
H101	H	0.766054	-0.275675	0.000060
H102	H	1.266054	0.224325	0.500060
C103	C	0.929130	-0.251039	0.448865
C104	C	1.429130	0.248961	0.948865
N105	N	0.878786	-0.301344	0.491993
N106	N	1.378786	0.198656	0.991993
C107	C	1.184310	0.004008	0.448861
C108	C	1.684310	0.504008	0.948861
N109	N	1.234635	0.054345	0.491981
N110	N	1.734635	0.554345	0.991981
H111	H	0.804443	0.019958	0.000097
H112	H	1.304443	0.519958	0.500097
H113	H	0.946505	-0.233702	0.566209
H114	H	1.446505	0.266298	1.066209
H115	H	1.167001	-0.013377	0.755077
H116	H	1.667001	0.486623	1.255077
C117	C	1.232409	0.156837	0.000129
C118	C	1.732409	0.656837	0.500129
N119	N	1.300649	0.126961	0.000135
N120	N	1.800649	0.626961	0.500135
H121	H	0.635175	0.023152	0.000126
H122	H	1.135175	0.523152	0.500126
C123	C	1.228704	0.352751	0.000132
C124	C	1.728704	0.852751	0.500132
N125	N	1.295483	0.400161	0.000156
N126	N	1.795483	0.900161	0.500156
H127	H	1.200238	0.624165	0.000104
H128	H	1.700238	1.124165	0.500104
C129	C	0.881072	0.596090	0.000050
C130	C	1.381072	1.096090	0.500050
N131	N	0.812837	0.625975	0.000027
N132	N	1.312837	1.125975	0.500027
H133	H	1.203437	0.454903	0.000119
H134	H	1.703437	0.954903	0.500119
C135	C	1.184316	0.003992	0.230260
C136	C	1.684316	0.503992	0.730260
N137	N	1.234655	0.054311	0.187145
N138	N	1.734655	0.554311	0.687145
H139	H	0.946478	-0.233689	0.245125
H140	H	1.446478	0.266311	0.745125
H141	H	0.907800	0.416517	0.000066
H142	H	1.407800	0.916517	0.500066
H143	H	0.910047	0.298024	0.000065
H144	H	1.410047	0.798024	0.500065
H145	H	1.166987	-0.013374	0.566210
H146	H	1.666987	0.486626	1.066210
C147	C	0.929166	-0.251056	0.769948
C148	C	1.429166	0.248944	1.269948
N149	N	0.878822	-0.301364	0.813072
N150	N	1.378822	0.198636	1.313072
H151	H	0.913240	0.128756	0.000077
H152	H	1.413240	0.628756	0.500077
H153	H	0.596802	-0.272474	0.000081
H154	H	1.096802	0.227526	0.500081
H155	H	0.309033	-0.267039	0.000107
H156	H	0.809033	0.232961	0.500107
C157	C	0.488607	-0.293772	0.000090
C158	C	0.988607	0.206228	0.500090
N159	N	0.518491	-0.362008	0.000090
N160	N	1.018491	0.137992	0.500090
H161	H	0.347419	0.028593	0.000133
H162	H	0.847419	0.528593	0.500133
H163	H	0.516682	0.025399	0.000121
H164	H	1.016682	0.525399	0.500121
