data_functionalizedCrystal
_audit_creation_method	'MofGen! by Chris Wilmer'
_symmetry_space_group_name_H-M	'P1'
_symmetry_Int_Tables_number	1
_symmetry_cell_setting	triclinic
loop_
_symmetry_equiv_pos_as_xyz
  x,y,z
_cell_length_a	13.897449
_cell_length_b	12.594516
_cell_length_c	13.897441
_cell_angle_alpha	89.973623
_cell_angle_beta	89.979267
_cell_angle_gamma	90.017332
loop_
_atom_site_label
_atom_site_type_symbol
_atom_site_fract_x
_atom_site_fract_y
_atom_site_fract_z
Zn1	Zn	1.474714	-0.423672	-0.545409
Zn2	Zn	1.974714	0.076328	-0.045409
Zn3	Zn	1.474612	-0.601683	-0.384123
Zn4	Zn	1.974612	-0.101683	0.115877
Zn5	Zn	1.313403	-0.423722	-0.384128
Zn6	Zn	1.813403	0.076278	0.115872
Zn7	Zn	1.313389	-0.601613	-0.545375
Zn8	Zn	1.813389	-0.101613	-0.045375
O9	O	1.394029	-0.512672	-0.464759
O10	O	1.894029	-0.012672	0.035241
O11	O	1.609682	-0.447293	-0.524027
O12	O	2.109682	0.052707	-0.024027
O13	O	1.453191	-0.578126	-0.249142
O14	O	1.953191	-0.078126	0.250858
O15	O	1.334849	-0.274770	-0.405539
O16	O	1.834849	0.225230	0.094461
O17	O	1.609607	-0.578077	-0.405530
O18	O	2.109607	-0.078077	0.094470
O19	O	1.453364	-0.274733	-0.524032
O20	O	1.953364	0.225267	-0.024032
O21	O	1.334751	-0.447380	-0.249145
O22	O	1.834751	0.052620	0.250855
O23	O	1.178419	-0.447312	-0.405506
O24	O	1.678419	0.052688	0.094494
O25	O	1.334826	-0.577958	-0.680362
O26	O	1.834826	-0.077958	-0.180362
O27	O	1.178409	-0.578007	-0.523973
O28	O	1.678409	-0.078007	-0.023973
O29	O	1.453350	-0.447226	-0.680387
O30	O	1.953350	0.052774	-0.180387
O31	O	1.453177	-0.750619	-0.405497
O32	O	1.953177	-0.250619	0.094503
O33	O	1.334728	-0.750568	-0.523968
O34	O	1.834728	-0.250568	-0.023968
C35	C	1.143415	-0.512658	-0.464737
C36	C	1.643415	-0.012658	0.035263
C37	C	1.036201	-0.512678	-0.464750
C38	C	1.536201	-0.012678	0.035250
C39	C	0.839906	-0.512682	-0.464776
C40	C	1.339906	-0.012682	0.035224
C41	C	0.949139	-0.512676	-0.464759
C42	C	1.449139	-0.012676	0.035241
C43	C	1.393966	-0.789213	-0.464749
C44	C	1.893966	-0.289213	0.035251
C45	C	1.394027	-0.907519	-0.464778
C46	C	1.894027	-0.407519	0.035222
C47	C	1.329596	-0.976783	-0.529169
C48	C	1.829596	-0.476783	-0.029169
C49	C	1.306093	-1.047649	-0.441152
C50	C	1.806093	-0.547649	0.058848
C51	C	1.417619	-1.047452	-0.552810
C52	C	1.917619	-0.547452	-0.052810
C53	C	1.370477	-0.976827	-0.376714
C54	C	1.870477	-0.476827	0.123286
C55	C	1.482044	-0.976623	-0.488431
C56	C	1.982044	-0.476623	0.011569
C57	C	1.458574	-1.047457	-0.400353
C58	C	1.958574	-0.547457	0.099647
C59	C	1.645622	-0.512687	-0.464781
C60	C	2.145622	-0.012687	0.035219
C61	C	1.752836	-0.512694	-0.464791
C62	C	2.252836	-0.012694	0.035209
C63	C	1.394098	-0.512578	-0.716352
C64	C	1.894098	-0.012578	-0.216352
C65	C	1.394127	-0.512538	-0.823566
C66	C	1.894127	-0.012538	-0.323566
C67	C	1.394119	-0.235052	-0.464789
C68	C	1.894119	0.264948	0.035211
C69	C	1.394157	-0.116746	-0.464802
C70	C	1.894157	0.383254	0.035198
C71	C	1.394153	-0.512466	-1.019861
C72	C	1.894153	-0.012466	-0.519861
C73	C	1.394136	-0.512509	-0.910629
C74	C	1.894136	-0.012509	-0.410629
C75	C	1.394017	-0.512689	-0.214145
C76	C	1.894017	-0.012689	0.285855
C77	C	1.394174	-0.512430	-0.106931
C78	C	1.894174	-0.012430	0.393069
H79	H	1.275011	-0.945749	-0.583543
H80	H	1.775011	-0.445749	-0.083543
O81	O	1.217305	-1.084822	-0.417446
O82	O	1.717305	-0.584822	0.082554
C83	C	1.149518	-1.048799	-0.485485
C84	C	1.649518	-0.548799	0.014515
H85	H	1.187827	-1.028848	-0.555754
H86	H	1.687827	-0.528848	-0.055754
H87	H	1.093868	-1.113621	-0.498965
H88	H	1.593868	-0.613621	0.001035
H89	H	1.112045	-0.974800	-0.456756
H90	H	1.612045	-0.474800	0.043244
O91	O	1.346602	-0.939801	-0.287953
O92	O	1.846602	-0.439801	0.212047
C93	C	1.346805	-0.827858	-0.289016
C94	C	1.846805	-0.327858	0.210984
H95	H	1.336018	-0.798519	-0.365869
H96	H	1.836018	-0.298519	0.134131
H97	H	1.285964	-0.797044	-0.241610
H98	H	1.785964	-0.297044	0.258390
H99	H	1.418594	-0.797492	-0.260427
H100	H	1.918594	-0.297492	0.239573
O101	O	1.523535	-1.084206	-0.335202
O102	O	2.023535	-0.584206	0.164798
C103	C	1.498387	-1.048005	-0.242561
C104	C	1.998387	-0.548005	0.257439
H105	H	1.418347	-1.028331	-0.240653
H106	H	1.918347	-0.528331	0.259347
H107	H	1.514646	-1.112612	-0.187442
H108	H	2.014646	-0.612612	0.312558
H109	H	1.541831	-0.973801	-0.224677
H110	H	2.041831	-0.473801	0.275323
H111	H	1.556401	-0.945405	-0.508459
H112	H	2.056401	-0.445405	-0.008459
O113	O	1.441423	-1.084284	-0.641656
O114	O	1.941423	-0.584284	-0.141656
C115	C	1.457134	-0.997805	-0.704184
C116	C	1.957134	-0.497805	-0.204184
H117	H	1.476253	-0.924325	-0.660294
H118	H	1.976253	-0.424325	-0.160294
H119	H	1.518829	-1.017313	-0.755281
H120	H	2.018829	-0.517313	-0.255281
H121	H	1.389028	-0.981847	-0.747538
H122	H	1.889028	-0.481847	-0.247538
