data_functionalizedCrystal
_audit_creation_method	'MofGen! by Chris Wilmer'
_symmetry_space_group_name_H-M	'P1'
_symmetry_Int_Tables_number	1
_symmetry_cell_setting	triclinic
loop_
_symmetry_equiv_pos_as_xyz
  x,y,z
_cell_length_a	10.686220
_cell_length_b	12.759399
_cell_length_c	10.685880
_cell_angle_alpha	85.661226
_cell_angle_beta	90.358431
_cell_angle_gamma	94.405255
loop_
_atom_site_label
_atom_site_type_symbol
_atom_site_fract_x
_atom_site_fract_y
_atom_site_fract_z
Zn1	Zn	-1.972196	0.327963	-0.562368
Zn2	Zn	-1.955949	0.491337	-0.352612
Zn3	Zn	-1.746325	0.330104	-0.368690
Zn4	Zn	-1.762362	0.518042	-0.578384
O5	O	-1.859208	0.416861	-0.465513
O6	O	-2.145586	0.337563	-0.521112
O7	O	-1.914632	0.459669	-0.179204
O8	O	-1.776376	0.182795	-0.394407
O9	O	-2.133649	0.457593	-0.367005
O10	O	-1.942322	0.181222	-0.536701
O11	O	-1.760622	0.341212	-0.191016
O12	O	-1.572908	0.367107	-0.409938
O13	O	-1.803708	0.503107	-0.751800
O14	O	-1.584690	0.505183	-0.563999
O15	O	-1.957872	0.363457	-0.740033
O16	O	-1.930181	0.641904	-0.382536
O17	O	-1.787954	0.661524	-0.548409
C18	C	-1.533282	0.439276	-0.490452
C19	C	-1.393852	0.448892	-0.501150
C20	C	-1.859081	0.689835	-0.465491
C21	C	-1.859144	0.806609	-0.465514
C22	C	-1.884391	0.436022	-0.792705
C23	C	-1.895122	0.444187	-0.932135
C24	C	-2.186407	0.394360	-0.440479
C25	C	-2.325840	0.384771	-0.429810
C26	C	-1.945559	0.970299	-0.539710
C27	C	-1.945509	0.860576	-0.539681
C28	C	-1.772831	0.862370	-0.391361
C29	C	-1.772887	0.972090	-0.391383
C30	C	-2.031921	1.024261	-0.613891
C31	C	-2.118236	0.968508	-0.688043
C32	C	-2.118187	0.858785	-0.688014
C33	C	-2.031823	0.804816	-0.613834
C34	C	-1.859324	1.142823	-0.465557
C35	C	-1.859249	1.026052	-0.465565
C36	C	-1.834196	0.397694	-0.139589
C37	C	-1.823707	0.389216	-0.000142
H38	H	-1.374280	0.322519	-0.360547
H39	H	-1.345405	0.511155	-0.570410
F40	F	-2.210155	1.025946	-0.766975
H41	H	-2.031968	1.113603	-0.613926
F42	F	-1.680920	0.804929	-0.312422
H43	H	-1.964483	0.497502	-0.980584
H44	H	-2.031799	0.715471	-0.613806
H45	H	-2.188476	0.813391	-0.748382
H46	H	-1.702605	1.017485	-0.331009
H47	H	-1.754346	0.335910	-0.951699
