data_functionalizedCrystal
_audit_creation_method	'MofGen! by Chris Wilmer'
_symmetry_space_group_name_H-M	'P1'
_symmetry_Int_Tables_number	1
_symmetry_cell_setting	triclinic
loop_
_symmetry_equiv_pos_as_xyz
  x,y,z
_cell_length_a	14.044220
_cell_length_b	10.654550
_cell_length_c	9.130313
_cell_angle_alpha	89.999512
_cell_angle_beta	90.003971
_cell_angle_gamma	91.163096
loop_
_atom_site_label
_atom_site_type_symbol
_atom_site_fract_x
_atom_site_fract_y
_atom_site_fract_z
O1	O	0.133230	-1.681228	0.121694
O2	O	0.633230	-1.181228	0.621694
O3	O	0.145923	-1.317025	0.121721
O4	O	0.645923	-0.817025	0.621721
O5	O	0.001556	-1.493660	0.121693
O6	O	0.501556	-0.993660	0.621693
O7	O	0.277597	-1.504594	0.121721
O8	O	0.777597	-1.004594	0.621721
O9	O	0.001556	-1.493646	-0.121906
O10	O	0.501556	-0.993646	0.378094
O11	O	0.145923	-1.317011	-0.121878
O12	O	0.645923	-0.817011	0.378122
O13	O	0.133230	-1.681214	-0.121905
O14	O	0.633230	-1.181214	0.378095
Cu15	Cu	0.139576	-1.499111	-0.144134
Cu16	Cu	0.639576	-0.999111	0.355866
Cu17	Cu	0.139576	-1.499128	0.143950
Cu18	Cu	0.639576	-0.999128	0.643950
O19	O	0.277597	-1.504579	-0.121877
O20	O	0.777597	-1.004579	0.378123
C21	C	0.144991	-1.270127	-0.000075
C22	C	0.644991	-0.770127	0.499925
C23	C	0.142202	-1.130403	-0.000065
C24	C	0.642202	-0.630403	0.499935
C25	C	-0.033790	-1.488867	-0.000106
C26	C	0.466210	-0.988867	0.499894
C27	C	-0.139110	-1.474592	-0.000107
C28	C	0.360890	-0.974592	0.499893
N29	N	0.139576	-1.499108	-0.346757
N30	N	0.639576	-0.999108	0.153243
C31	C	-0.331943	-1.448493	-0.000084
C32	C	0.168057	-0.948493	0.499916
C33	C	-0.388910	-1.549741	-0.000087
C34	C	0.111090	-1.049741	0.499913
C35	C	-0.496209	-1.535219	-0.000074
C36	C	0.003791	-1.035219	0.499926
C37	C	-0.224634	-1.463013	-0.000097
C38	C	0.275366	-0.963013	0.499903
C39	C	0.312943	-1.509372	-0.000075
C40	C	0.812943	-1.009372	0.499925
C41	C	0.418262	-1.523648	-0.000064
C42	C	0.918262	-1.023648	0.499936
C43	C	0.134162	-1.728113	-0.000106
C44	C	0.634162	-1.228113	0.499894
C45	C	0.136950	-1.867836	-0.000106
C46	C	0.636950	-1.367836	0.499894
C47	C	0.227204	-1.059459	-0.000061
C48	C	0.727204	-0.559459	0.499939
C49	C	0.224578	-0.928175	-0.000086
C50	C	0.724578	-0.428175	0.499914
C51	C	0.051942	-0.938790	-0.000115
C52	C	0.551942	-0.438790	0.499885
C53	C	0.054569	-1.070072	-0.000100
C54	C	0.554569	-0.570072	0.499900
C55	C	0.197644	-1.581775	-0.423403
C56	C	0.697644	-1.081775	0.076597
C57	C	0.197638	-1.581794	-0.576740
C58	C	0.697638	-1.081794	-0.076740
C59	C	0.081495	-1.416470	-0.576770
C60	C	0.581495	-0.916470	-0.076770
C61	C	0.081496	-1.416458	-0.423436
C62	C	0.581496	-0.916458	0.076564
N63	N	0.139569	-1.499140	0.346572
N64	N	0.639569	-0.999140	0.846572
H65	H	-0.357098	-1.647328	0.000004
H66	H	0.142902	-1.147328	0.500004
C67	C	-0.374918	-1.316665	-0.000093
C68	C	0.125082	-0.816665	0.499907
N69	N	-0.407299	-1.217373	-0.000112
N70	N	0.092701	-0.717373	0.499888
C71	C	0.323603	-1.125819	-0.000041
C72	C	0.823603	-0.625819	0.499959
N73	N	0.396213	-1.175797	-0.000034
N74	N	0.896213	-0.675797	0.499966
H75	H	0.293795	-0.870417	-0.000086
H76	H	0.793795	-0.370417	0.499914
H77	H	0.244936	-1.649074	-0.360975
H78	H	0.744936	-1.149074	0.139025
H79	H	-0.019406	-0.889652	-0.000152
H80	H	0.480594	-0.389652	0.499848
H81	H	-0.014653	-1.127837	-0.000108
H82	H	0.485347	-0.627837	0.499892
C83	C	0.261534	-1.672714	-0.661044
C84	C	0.761534	-1.172714	-0.161044
N85	N	0.309669	-1.741192	-0.724541
N86	N	0.809669	-1.241192	-0.224541
C87	C	0.017620	-1.325547	-0.661133
C88	C	0.517620	-0.825547	-0.161133
N89	N	-0.030488	-1.257057	-0.724673
N90	N	0.469512	-0.757057	-0.224673
H91	H	0.034205	-1.349139	-0.361029
H92	H	0.534205	-0.849139	0.138971
