data_functionalizedCrystal
_audit_creation_method	'MofGen! by Chris Wilmer'
_symmetry_space_group_name_H-M	'P1'
_symmetry_Int_Tables_number	1
_symmetry_cell_setting	triclinic
loop_
_symmetry_equiv_pos_as_xyz
  x,y,z
_cell_length_a	13.033293
_cell_length_b	18.101397
_cell_length_c	13.032268
_cell_angle_alpha	97.143420
_cell_angle_beta	89.079182
_cell_angle_gamma	97.189579
loop_
_atom_site_label
_atom_site_type_symbol
_atom_site_fract_x
_atom_site_fract_y
_atom_site_fract_z
Zn1	Zn	1.498450	-0.230400	-0.781454
Zn2	Zn	1.748450	0.019600	-0.531454
Zn3	Zn	1.998450	0.269600	-0.281454
Zn4	Zn	2.248450	0.519600	-0.031454
Zn5	Zn	1.520187	-0.336824	-0.609468
Zn6	Zn	1.770187	-0.086824	-0.359468
Zn7	Zn	2.020187	0.163176	-0.109468
Zn8	Zn	2.270187	0.413176	0.140532
Zn9	Zn	1.348310	-0.226490	-0.587630
Zn10	Zn	1.598310	0.023510	-0.337630
Zn11	Zn	1.848310	0.273510	-0.087630
Zn12	Zn	2.098310	0.523510	0.162370
Zn13	Zn	1.326436	-0.367696	-0.759504
Zn14	Zn	1.576436	-0.117696	-0.509504
Zn15	Zn	1.826436	0.132304	-0.259504
Zn16	Zn	2.076436	0.382304	-0.009504
O17	O	1.423346	-0.290352	-0.684514
O18	O	1.673346	-0.040352	-0.434514
O19	O	1.923346	0.209648	-0.184514
O20	O	2.173346	0.459648	0.065486
O21	O	1.645252	-0.233234	-0.776965
O22	O	1.895252	0.016766	-0.526965
O23	O	2.145252	0.266766	-0.276965
O24	O	2.395252	0.516766	-0.026965
O25	O	1.515638	-0.307631	-0.462665
O26	O	1.765638	-0.057631	-0.212665
O27	O	2.015638	0.192369	0.037335
O28	O	2.265638	0.442369	0.287335
O29	O	1.368284	-0.123374	-0.613388
O30	O	1.618284	0.126626	-0.363388
O31	O	1.868284	0.376626	-0.113388
O32	O	2.118284	0.626626	0.136612
O33	O	1.661223	-0.311423	-0.650608
O34	O	1.911223	-0.061423	-0.400608
O35	O	2.161223	0.188577	-0.150608
O36	O	2.411223	0.438577	0.099392
O37	O	1.478591	-0.126248	-0.755790
O38	O	1.728591	0.123752	-0.505790
O39	O	1.978591	0.373752	-0.255790
O40	O	2.228591	0.623752	-0.005790
O41	O	1.389361	-0.226569	-0.446621
O42	O	1.639361	0.023431	-0.196621
O43	O	1.889361	0.273431	0.053379
O44	O	2.139361	0.523431	0.303379
O45	O	1.201489	-0.256504	-0.592105
O46	O	1.451489	-0.006504	-0.342105
O47	O	1.701489	0.243496	-0.092105
O48	O	1.951489	0.493496	0.157895
O49	O	1.331002	-0.364040	-0.906323
O50	O	1.581002	-0.114040	-0.656323
O51	O	1.831002	0.135960	-0.406323
O52	O	2.081002	0.385960	-0.156323
O53	O	1.185418	-0.360248	-0.718380
O54	O	1.435418	-0.110248	-0.468380
O55	O	1.685418	0.139752	-0.218380
O56	O	1.935418	0.389752	0.031620
O57	O	1.457380	-0.263169	-0.922449
O58	O	1.707380	-0.013169	-0.672449
O59	O	1.957380	0.236831	-0.422449
O60	O	2.207380	0.486831	-0.172449
O61	O	1.494428	-0.444553	-0.629324
O62	O	1.744428	-0.194553	-0.379324
O63	O	1.994428	0.055447	-0.129324
O64	O	2.244428	0.305447	0.120676
O65	O	1.352080	-0.467234	-0.739555
O66	O	1.602080	-0.217234	-0.489555
O67	O	1.852080	0.032766	-0.239555
O68	O	2.102080	0.282766	0.010445
C69	C	1.156137	-0.311302	-0.650491
C70	C	1.406137	-0.061302	-0.400491
C71	C	1.656137	0.188698	-0.150491
C72	C	1.906137	0.438698	0.099509
C73	C	1.041821	-0.320285	-0.635960
C74	C	1.291821	-0.070285	-0.385960
C75	C	1.541821	0.179715	-0.135960
C76	C	1.791821	0.429715	0.114040
C77	C	0.982941	-0.285683	-0.692098
C78	C	1.232941	-0.035683	-0.442098
C79	C	1.482941	0.214317	-0.192098
C80	C	1.732941	0.464317	0.057902
C81	C	0.864789	-0.294966	-0.677081
C82	C	1.114789	-0.044966	-0.427081
C83	C	1.364789	0.205034	-0.177081
C84	C	1.614789	0.455034	0.072919
C85	C	1.423264	-0.482765	-0.684453
C86	C	1.673264	-0.232765	-0.434453
C87	C	1.923264	0.017235	-0.184453
C88	C	2.173264	0.267235	0.065547
C89	C	1.423319	-0.565076	-0.684473
C90	C	1.673319	-0.315076	-0.434473
C91	C	1.923319	-0.065076	-0.184473
C92	C	2.173319	0.184924	0.065527
C93	C	1.423438	-0.864166	-0.684584
C94	C	1.673438	-0.614166	-0.434584
C95	C	1.923438	-0.364166	-0.184584
C96	C	2.173438	-0.114166	0.065416
C97	C	1.512805	-0.818535	-0.614989
C98	C	1.762805	-0.568535	-0.364989
C99	C	2.012805	-0.318535	-0.114989
C100	C	2.262805	-0.068535	0.135011
C101	C	1.513053	-0.732916	-0.615230
C102	C	1.763053	-0.482916	-0.365230
C103	C	2.013053	-0.232916	-0.115230
C104	C	2.263053	0.017084	0.134770
C105	C	1.423379	-0.715784	-0.684528
C106	C	1.673379	-0.465784	-0.434528
C107	C	1.923379	-0.215784	-0.184528
C108	C	2.173379	0.034216	0.065472
C109	C	1.438988	-0.755473	-0.796660
C110	C	1.688988	-0.505473	-0.546660
C111	C	1.938988	-0.255473	-0.296660
C112	C	2.188988	-0.005473	-0.046660
C113	C	1.439656	-0.841025	-0.796304
C114	C	1.689656	-0.591025	-0.546304
C115	C	1.939656	-0.341025	-0.296304
C116	C	2.189656	-0.091025	-0.046304
C117	C	1.318132	-0.838399	-0.642959
C118	C	1.568132	-0.588399	-0.392959
C119	C	1.818132	-0.338399	-0.142959
C120	C	2.068132	-0.088399	0.107041
C121	C	1.318977	-0.752462	-0.640608
C122	C	1.568977	-0.502462	-0.390608
C123	C	1.818977	-0.252462	-0.140608
C124	C	2.068977	-0.002462	0.109392
C125	C	1.423343	-0.631925	-0.684503
C126	C	1.673343	-0.381925	-0.434503
C127	C	1.923343	-0.131925	-0.184503
C128	C	2.173343	0.118075	0.065497
C129	C	1.423476	-0.948025	-0.684617
C130	C	1.673476	-0.698025	-0.434617
C131	C	1.923476	-0.448025	-0.184617
C132	C	2.173476	-0.198025	0.065383
C133	C	1.691598	-0.269321	-0.718671
C134	C	1.941598	-0.019321	-0.468671
C135	C	2.191598	0.230679	-0.218671
C136	C	2.441598	0.480679	0.031329
C137	C	1.805911	-0.260359	-0.733226
C138	C	2.055911	-0.010359	-0.483226
C139	C	2.305911	0.239641	-0.233226
C140	C	2.555911	0.489641	0.016774
C141	C	1.389326	-0.317484	-0.952743
C142	C	1.639326	-0.067484	-0.702743
C143	C	1.889326	0.182516	-0.452743
C144	C	2.139326	0.432516	-0.202743
C145	C	1.374829	-0.329047	-1.067046
C146	C	1.624829	-0.079047	-0.817046
C147	C	1.874829	0.170953	-0.567046
C148	C	2.124829	0.420953	-0.317046
C149	C	1.423453	-0.097189	-0.684602
C150	C	1.673453	0.152811	-0.434602
C151	C	1.923453	0.402811	-0.184602
C152	C	2.173453	0.652811	0.065398
C153	C	1.423498	-0.014874	-0.684639
C154	C	1.673498	0.235126	-0.434639
C155	C	1.923498	0.485126	-0.184639
C156	C	2.173498	0.735126	0.065361
C157	C	1.430896	-0.284293	-1.125985
C158	C	1.680896	-0.034293	-0.875985
C159	C	1.930896	0.215707	-0.625985
C160	C	2.180896	0.465707	-0.375985
C161	C	1.415914	-0.296242	-1.244123
C162	C	1.665914	-0.046242	-0.994123
C163	C	1.915914	0.203758	-0.744123
C164	C	2.165914	0.453758	-0.494123
C165	C	1.457291	-0.263268	-0.417337
C166	C	1.707291	-0.013268	-0.167337
C167	C	1.957291	0.236732	0.082663
C168	C	2.207291	0.486732	0.332663
C169	C	1.471988	-0.251481	-0.303060
C170	C	1.721988	-0.001481	-0.053060
C171	C	1.971988	0.248519	0.196940
C172	C	2.221988	0.498519	0.446940
H173	H	1.504884	-0.705250	-0.532519
H174	H	1.754884	-0.455250	-0.282519
H175	H	2.004884	-0.205250	-0.032519
H176	H	2.254884	0.044750	0.217481
H177	H	1.531078	-0.204313	-1.266064
H178	H	1.781078	0.045687	-1.016064
H179	H	2.031078	0.295687	-0.766064
H180	H	2.281078	0.545687	-0.516064
H181	H	1.020003	-0.249183	-0.751273
H182	H	1.270003	0.000817	-0.501273
H183	H	1.520003	0.250817	-0.251273
H184	H	1.770003	0.500817	-0.001273
Cl185	Cl	0.807583	-0.351314	-0.585700
Cl186	Cl	1.057583	-0.101314	-0.335700
Cl187	Cl	1.307583	0.148686	-0.085700
Cl188	Cl	1.557583	0.398686	0.164300
H189	H	0.842967	-0.223856	-0.792405
H190	H	1.092967	0.026144	-0.542405
H191	H	1.342967	0.276144	-0.292405
H192	H	1.592967	0.526144	-0.042405
H193	H	1.504888	-0.832432	-0.532065
H194	H	1.754888	-0.582432	-0.282065
H195	H	2.004888	-0.332432	-0.032065
H196	H	2.254888	-0.082432	0.217935
Cl197	Cl	1.300411	-0.711381	-0.513102
Cl198	Cl	1.550411	-0.461381	-0.263102
Cl199	Cl	1.800411	-0.211381	-0.013102
Cl200	Cl	2.050411	0.038619	0.236898
H201	H	1.004759	-0.356780	-0.576779
H202	H	1.254759	-0.106780	-0.326779
H203	H	1.504759	0.143220	-0.076779
H204	H	1.754759	0.393220	0.173221
H205	H	1.376664	-0.872307	-0.850694
H206	H	1.626664	-0.622307	-0.600694
H207	H	1.876664	-0.372307	-0.350694
H208	H	2.126664	-0.122307	-0.100694
H209	H	1.590675	-0.835554	-0.643357
H210	H	1.840675	-0.585554	-0.393357
H211	H	2.090675	-0.335554	-0.143357
H212	H	2.340675	-0.085554	0.106643
H213	H	1.301271	-0.854284	-0.561889
H214	H	1.551271	-0.604284	-0.311889
H215	H	1.801271	-0.354284	-0.061889
H216	H	2.051271	-0.104284	0.188111
H217	H	1.591337	-0.707910	-0.643866
H218	H	1.841337	-0.457910	-0.393866
H219	H	2.091337	-0.207910	-0.143866
H220	H	2.341337	0.042090	0.106134
H221	H	1.249925	-0.741410	-0.686476
H222	H	1.499925	-0.491410	-0.436476
H223	H	1.749925	-0.241410	-0.186476
H224	H	1.999925	0.008590	0.063524
Cl225	Cl	1.283587	-0.401859	-1.124163
Cl226	Cl	1.533587	-0.151859	-0.874163
Cl227	Cl	1.783587	0.098141	-0.624163
Cl228	Cl	2.033587	0.348141	-0.374163
H229	H	1.375290	-0.745683	-0.850503
H230	H	1.625290	-0.495683	-0.600503
H231	H	1.875290	-0.245683	-0.350503
H232	H	2.125290	0.004317	-0.100503
Cl233	Cl	1.557866	-0.865827	-0.848255
Cl234	Cl	1.807866	-0.615827	-0.598255
Cl235	Cl	2.057866	-0.365827	-0.348255
Cl236	Cl	2.307866	-0.115827	-0.098255
H237	H	1.514611	-0.730218	-0.830595
H238	H	1.764611	-0.480218	-0.580595
H239	H	2.014611	-0.230218	-0.330595
H240	H	2.264611	0.019782	-0.080595
H241	H	1.251716	-0.869180	-0.693480
H242	H	1.501716	-0.619180	-0.443480
H243	H	1.751716	-0.369180	-0.193480
H244	H	2.001716	-0.119180	0.056520
Cl245	Cl	1.522106	-0.211460	-1.068863
Cl246	Cl	1.772106	0.038540	-0.818863
Cl247	Cl	2.022106	0.288540	-0.568863
Cl248	Cl	2.272106	0.538540	-0.318863
H249	H	1.356811	-0.343402	-1.281119
H250	H	1.606811	-0.093402	-1.031119
H251	H	1.856811	0.156598	-0.781119
H252	H	2.106811	0.406598	-0.531119
