data_functionalizedCrystal
_audit_creation_method	'MofGen! by Chris Wilmer'
_symmetry_space_group_name_H-M	'P1'
_symmetry_Int_Tables_number	1
_symmetry_cell_setting	triclinic
loop_
_symmetry_equiv_pos_as_xyz
  x,y,z
_cell_length_a	15.500227
_cell_length_b	12.837943
_cell_length_c	17.038272
_cell_angle_alpha	87.029752
_cell_angle_beta	86.966746
_cell_angle_gamma	86.856663
loop_
_atom_site_label
_atom_site_type_symbol
_atom_site_fract_x
_atom_site_fract_y
_atom_site_fract_z
O1	O	0.071931	-1.398028	0.201307
O2	O	0.571931	-0.898028	0.701307
O3	O	0.071936	-1.095331	0.191200
O4	O	0.571936	-0.595331	0.691200
O5	O	0.071926	-1.244880	0.082304
O6	O	0.571926	-0.744880	0.582304
O7	O	0.071940	-1.248479	0.310203
O8	O	0.571940	-0.748479	0.810203
O9	O	-0.071962	-1.235803	0.088883
O10	O	0.428038	-0.735803	0.588883
O11	O	-0.071952	-1.086254	0.197779
O12	O	0.428048	-0.586254	0.697779
O13	O	-0.071957	-1.388950	0.207886
O14	O	0.428043	-0.888950	0.707886
Cu15	Cu	-0.085093	-1.236773	0.203434
Cu16	Cu	0.414907	-0.736773	0.703434
Cu17	Cu	0.085071	-1.247509	0.195653
Cu18	Cu	0.585071	-0.747509	0.695653
O19	O	-0.071948	-1.239402	0.316782
O20	O	0.428052	-0.739402	0.816782
C21	C	-0.000008	-1.051871	0.191075
C22	C	0.499992	-0.551871	0.691075
C23	C	-0.000006	-0.935896	0.180892
C24	C	0.499994	-0.435896	0.680892
N25	N	-0.204778	-1.229230	0.208906
N26	N	0.295222	-0.729230	0.708906
C27	C	-0.000018	-1.237069	0.056221
C28	C	0.499982	-0.737069	0.556221
C29	C	-0.000017	-1.227306	-0.031301
C30	C	0.499983	-0.727306	0.468699
C31	C	-0.250058	-1.292625	0.162784
C32	C	0.249942	-0.792625	0.662784
C33	C	-0.340631	-1.286930	0.166931
C34	C	0.159369	-0.786930	0.666931
C35	C	-0.385921	-1.217846	0.217205
C36	C	0.114079	-0.717846	0.717205
C37	C	-0.340634	-1.154445	0.263329
C38	C	0.159366	-0.654445	0.763329
C39	C	-0.250063	-1.160135	0.259177
C40	C	0.249937	-0.660135	0.759177
C41	C	-0.659387	-1.197348	0.232147
C42	C	-0.159387	-0.697348	0.732147
C43	C	-0.749964	-1.191665	0.236297
C44	C	-0.249964	-0.691665	0.736297
C45	C	-0.749954	-1.324150	0.139897
C46	C	-0.249954	-0.824150	0.639897
C47	C	-0.659381	-1.329838	0.135754
C48	C	-0.159381	-0.829838	0.635754
C49	C	-0.614103	-1.266433	0.181875
C50	C	-0.114103	-0.766433	0.681875
C51	C	-0.478500	-1.212026	0.221446
C52	C	0.021500	-0.712026	0.721446
C53	C	-0.521525	-1.272248	0.177628
C54	C	-0.021525	-0.772248	0.677628
N55	N	0.204756	-1.255059	0.190174
N56	N	0.704756	-0.755059	0.690174
C57	C	-0.000012	-1.432411	0.208011
C58	C	0.499988	-0.932411	0.708011
C59	C	-0.000008	-1.548386	0.218194
C60	C	0.499992	-1.048386	0.718194
C61	C	-0.000011	-0.705733	0.303310
C62	C	0.499989	-0.205733	0.803310
C63	C	-0.000010	-0.596764	0.293746
C64	C	0.499990	-0.096764	0.793746
C65	C	-0.000009	-0.608986	0.152201
C66	C	0.499991	-0.108986	0.652201
C67	C	-0.000010	-0.717955	0.161765
C68	C	0.499990	-0.217955	0.661765
C69	C	-0.000010	-0.766325	0.237322
C70	C	0.499990	-0.266325	0.737322
C71	C	-0.000005	-0.875296	0.246885
C72	C	0.499995	-0.375296	0.746885
C73	C	-0.000010	-0.887516	0.105341
C74	C	0.499990	-0.387516	0.605341
C75	C	-0.000009	-0.778547	0.095777
C76	C	0.499991	-0.278547	0.595777
C77	C	-0.000020	-1.316945	-0.074719
C78	C	0.499980	-0.816945	0.425281
C79	C	-0.000011	-1.307766	-0.156956
C80	C	0.499989	-0.807766	0.343044
C81	C	-0.000007	-1.208945	-0.195773
C82	C	0.499993	-0.708945	0.304227
C83	C	-0.000002	-1.119299	-0.152349
C84	C	0.499998	-0.619299	0.347651
C85	C	-0.000004	-1.128480	-0.070114
C86	C	0.499996	-0.628480	0.429886
C87	C	0.000006	-1.176511	-0.443954
C88	C	0.500006	-0.676511	0.056046
C89	C	0.000005	-1.167337	-0.526195
C90	C	0.500005	-0.667337	-0.026195
C91	C	-0.000003	-1.355805	-0.530796
C92	C	0.499997	-0.855805	-0.030796
C93	C	-0.000010	-1.364977	-0.448559
C94	C	0.499990	-0.864977	0.051441
C95	C	-0.000000	-1.275331	-0.405143
C96	C	0.500000	-0.775331	0.094857
C97	C	-0.000001	-1.199560	-0.279832
C98	C	0.499999	-0.699560	0.220168
C99	C	-0.000000	-1.284718	-0.321086
C100	C	0.500000	-0.784718	0.178914
C101	C	-0.000002	-1.247213	0.342865
C102	C	0.499998	-0.747213	0.842865
C103	C	0.000003	-1.256977	0.430387
C104	C	0.500003	-0.756977	0.930387
H105	H	-0.213189	-1.348885	0.121849
H106	H	0.286811	-0.848885	0.621849
F107	F	-0.000000	-0.757215	0.383721
F108	F	0.500000	-0.257215	0.883721
H109	H	-0.000019	-0.739148	0.034261
H110	H	0.499981	-0.239148	0.534261
H111	H	-0.000003	-0.936862	0.051609
H112	H	0.499997	-0.436862	0.551609
H113	H	-0.000005	-1.086860	-0.557796
H114	H	0.499995	-0.586860	-0.057796
H115	H	-0.000014	-0.547434	0.347480
H116	H	0.499986	-0.047434	0.847480
F117	F	-0.388822	-1.354400	0.117841
F118	F	0.111178	-0.854400	0.617841
H119	H	0.000001	-1.119099	-0.311445
H120	H	0.500001	-0.619099	0.188555
F121	F	-0.388836	-1.080914	0.316831
F122	F	0.111164	-0.580914	0.816831
F123	F	-0.000033	-1.422124	-0.033414
F124	F	0.499967	-0.922124	0.466586
H125	H	-0.000081	-0.569580	0.090689
H126	H	0.499919	-0.069580	0.590689
H127	H	-0.000015	-1.380761	-0.192303
H128	H	0.499985	-0.880761	0.307697
F129	F	-0.000001	-0.926774	0.327298
F130	F	0.499999	-0.426774	0.827298
F131	F	-0.201873	-1.092658	0.308265
F132	F	0.298127	-0.592658	0.808265
F133	F	-0.473322	-1.345766	0.124121
F134	F	0.026678	-0.845766	0.624121
H135	H	-0.515383	-1.155778	0.262382
H136	H	-0.015383	-0.655778	0.762382
F137	F	0.000007	-1.470157	-0.407255
F138	F	0.500007	-0.970157	0.092745
H139	H	-0.622508	-1.386092	0.094817
H140	H	-0.122508	-0.886092	0.594817
F141	F	-0.798159	-1.118133	0.289810
F142	F	-0.298159	-0.618133	0.789810
H143	H	-0.786828	-1.375770	0.102347
H144	H	-0.286828	-0.875770	0.602347
F145	F	-0.000011	-1.451206	-0.577009
F146	F	0.499989	-0.951206	-0.077009
F147	F	0.000018	-1.081101	-0.397758
F148	F	0.500018	-0.581101	0.102242
H149	H	0.000007	-1.038837	-0.183960
H150	H	0.500007	-0.538837	0.316040
H151	H	-0.000002	-1.055485	-0.034764
H152	H	0.499998	-0.555485	0.465236
F153	F	0.000000	-1.389887	-0.279773
F154	F	0.500000	-0.889887	0.220227
H155	H	-0.622527	-1.145723	0.269702
H156	H	-0.122527	-0.645723	0.769702
