data_functionalizedCrystal
_audit_creation_method	'MofGen! by Chris Wilmer'
_symmetry_space_group_name_H-M	'P1'
_symmetry_Int_Tables_number	1
_symmetry_cell_setting	triclinic
loop_
_symmetry_equiv_pos_as_xyz
  x,y,z
_cell_length_a	17.077404
_cell_length_b	18.215405
_cell_length_c	18.215399
_cell_angle_alpha	90.029950
_cell_angle_beta	90.015445
_cell_angle_gamma	90.020702
loop_
_atom_site_label
_atom_site_type_symbol
_atom_site_fract_x
_atom_site_fract_y
_atom_site_fract_z
Zn1	Zn	1.200033	-0.293014	0.416091
Zn2	Zn	1.199947	-0.416091	0.293025
Zn3	Zn	1.068771	-0.293038	0.293041
Zn4	Zn	1.068733	-0.416039	0.416053
O5	O	1.134371	-0.354546	0.354553
O6	O	1.309868	-0.309352	0.399775
O7	O	1.182526	-0.399799	0.190043
O8	O	1.086235	-0.190051	0.309386
O9	O	1.309805	-0.399776	0.309359
O10	O	1.182673	-0.190033	0.399790
O11	O	1.086152	-0.309393	0.190055
O12	O	0.958919	-0.309343	0.309350
O13	O	1.086170	-0.399688	0.519043
O14	O	0.958891	-0.399711	0.399726
O15	O	1.182636	-0.309302	0.519070
O16	O	1.182489	-0.519068	0.309323
O17	O	1.086087	-0.519030	0.399711
C18	C	0.930423	-0.354525	0.354536
C19	C	0.843173	-0.354533	0.354547
C20	C	0.802217	-0.307534	0.401698
C21	C	0.720236	-0.307538	0.401701
C22	C	0.679214	-0.354547	0.354557
C23	C	0.720176	-0.401549	0.307400
C24	C	0.802155	-0.401540	0.307394
C25	C	0.549306	-0.401566	0.307418
C26	C	0.467322	-0.401576	0.307426
C27	C	0.467387	-0.307564	0.401726
C28	C	0.549366	-0.307555	0.401720
C29	C	0.590323	-0.354558	0.354564
C30	C	1.134296	-0.545752	0.354527
C31	C	1.134335	-0.627551	0.354541
C32	C	1.184574	-0.815674	0.401678
C33	C	1.184603	-0.892533	0.401692
C34	C	1.084265	-0.892665	0.307473
C35	C	1.084233	-0.815807	0.307463
C36	C	1.134392	-0.777314	0.354565
C37	C	1.134453	-0.931030	0.354588
C38	C	1.134483	-1.014364	0.354603
C39	C	1.134361	-0.693975	0.354551
C40	C	1.339115	-0.354567	0.354570
C41	C	1.426365	-0.354576	0.354577
C42	C	1.134408	-0.354487	0.546506
C43	C	1.134424	-0.354462	0.628305
C44	C	1.134468	-0.162593	0.354594
C45	C	1.134509	-0.080794	0.354612
C46	C	1.134379	-0.354551	0.163346
C47	C	1.134516	-0.354369	0.081548
C48	C	1.084284	-0.307355	0.816506
C49	C	1.084298	-0.307341	0.893364
C50	C	1.184657	-0.401480	0.893342
C51	C	1.184639	-0.401498	0.816484
C52	C	1.134454	-0.354432	0.778068
C53	C	1.134486	-0.354399	0.931784
C54	C	1.134501	-0.354383	1.015118
C55	C	1.134437	-0.354448	0.694729
H56	H	0.582651	-0.439839	0.269017
H57	H	1.043365	-0.784572	0.269098
O58	O	0.680415	-0.447317	0.261640
C59	C	0.655250	-0.572462	0.225730
C60	C	0.700340	-0.520709	0.277585
H61	H	0.671331	-0.631811	0.238614
H62	H	0.671362	-0.559524	0.166397
H63	H	0.589626	-0.564359	0.233824
H64	H	0.765974	-0.528783	0.269557
H65	H	0.684164	-0.533660	0.336899
O66	O	1.233375	-0.778250	0.447332
C67	C	1.339283	-0.691365	0.457328
C68	C	1.284079	-0.733711	0.405537
H69	H	1.380280	-0.655333	0.423559
H70	H	1.375208	-0.731956	0.490991
H71	H	1.303183	-0.655416	0.495786
H72	H	1.320118	-0.769661	0.367034
H73	H	1.248150	-0.693080	0.371926
O74	O	1.233265	-0.447309	0.779109
C75	C	1.243753	-0.546658	0.692270
C76	C	1.188601	-0.494836	0.734565
H77	H	1.207665	-0.585086	0.656234
H78	H	1.279615	-0.580345	0.732894
H79	H	1.284819	-0.512866	0.656330
H80	H	1.147488	-0.528571	0.770506
H81	H	1.152794	-0.461147	0.693900
H82	H	1.043420	-0.269031	0.785230
H83	H	1.225517	-0.439800	0.924629
H84	H	1.043444	-0.269007	0.924657
H85	H	0.835501	-0.439812	0.268998
H86	H	1.043429	-0.924015	0.269123
H87	H	0.835611	-0.269255	0.440091
H88	H	0.686893	-0.269268	0.440098
O89	O	0.427554	-0.447338	0.261664
C90	C	0.402372	-0.572475	0.225741
C91	C	0.447473	-0.520734	0.277599
H92	H	0.418447	-0.631828	0.238615
H93	H	0.418479	-0.559532	0.166408
H94	H	0.336750	-0.564367	0.233841
H95	H	0.513105	-0.528813	0.269563
H96	H	0.431301	-0.533690	0.336912
H97	H	0.582765	-0.269280	0.440113
H98	H	1.225464	-0.923763	0.440058
O99	O	0.427485	-0.261927	0.447464
C100	C	0.301221	-0.220308	0.489305
C101	C	0.346316	-0.272009	0.437455
H102	H	0.235588	-0.228452	0.481241
H103	H	0.317293	-0.160931	0.476491
H104	H	0.317406	-0.233304	0.548612
H105	H	0.330155	-0.259080	0.378130
H106	H	0.330240	-0.331370	0.450332
