data_functionalizedCrystal
_audit_creation_method	'MofGen! by Chris Wilmer'
_symmetry_space_group_name_H-M	'P1'
_symmetry_Int_Tables_number	1
_symmetry_cell_setting	triclinic
loop_
_symmetry_equiv_pos_as_xyz
  x,y,z
_cell_length_a	12.827893
_cell_length_b	8.497374
_cell_length_c	8.497374
_cell_angle_alpha	90.005237
_cell_angle_beta	89.996509
_cell_angle_gamma	89.999112
loop_
_atom_site_label
_atom_site_type_symbol
_atom_site_fract_x
_atom_site_fract_y
_atom_site_fract_z
Zn1	Zn	-1.597591	0.628413	0.892181
Zn2	Zn	-1.597583	0.892159	0.628446
Zn3	Zn	-1.422886	0.628377	0.628400
Zn4	Zn	-1.422861	0.892136	0.892170
O5	O	-1.510230	0.760271	0.760299
O6	O	-1.743826	0.663424	0.857220
O7	O	-1.574416	0.857162	0.407678
O8	O	-1.446075	0.407620	0.663376
O9	O	-1.743820	0.857197	0.663455
O10	O	-1.574430	0.407646	0.857175
O11	O	-1.446067	0.663363	0.407644
O12	O	-1.276647	0.663341	0.663365
O13	O	-1.446032	0.857158	1.112933
O14	O	-1.276629	0.857123	0.857156
O15	O	-1.574406	0.663402	1.112942
O16	O	-1.574391	1.112918	0.663445
O17	O	-1.446024	1.112901	0.857201
C18	C	-1.238720	0.760227	0.760255
C19	C	-1.122567	0.760246	0.760274
C20	C	-1.070801	0.856282	0.856017
C21	C	-0.950751	0.856304	0.856039
C22	C	-1.510217	1.170151	0.760322
C23	C	-1.510245	1.348795	0.760296
C24	C	-0.782800	0.760304	0.760331
C25	C	-0.898953	0.760285	0.760313
C26	C	-1.510222	0.760273	1.171779
C27	C	-1.510225	0.760290	1.350423
H28	H	-1.115359	0.938481	0.937976
Cl29	Cl	-0.882025	0.983262	0.982592
H30	H	-0.943465	0.678066	0.678333
Cl31	Cl	-1.053782	0.633313	0.633746
