data_functionalizedCrystal
_audit_creation_method	'MofGen! by Chris Wilmer'
_symmetry_space_group_name_H-M	'P1'
_symmetry_Int_Tables_number	1
_symmetry_cell_setting	triclinic
loop_
_symmetry_equiv_pos_as_xyz
  x,y,z
_cell_length_a	14.519709
_cell_length_b	14.519709
_cell_length_c	12.996460
_cell_angle_alpha	89.994177
_cell_angle_beta	90.012367
_cell_angle_gamma	83.680145
loop_
_atom_site_label
_atom_site_type_symbol
_atom_site_fract_x
_atom_site_fract_y
_atom_site_fract_z
O1	O	-1.223852	-0.120893	0.085435
O2	O	-0.973852	0.129107	0.335435
O3	O	-0.723852	0.379107	0.585435
O4	O	-0.473852	0.629107	0.835435
O5	O	-0.955375	-0.135130	0.085467
O6	O	-0.705375	0.114870	0.335467
O7	O	-0.455375	0.364870	0.585467
O8	O	-0.205375	0.614870	0.835467
O9	O	-1.096732	0.006227	0.085441
O10	O	-0.846732	0.256227	0.335441
O11	O	-0.596732	0.506227	0.585441
O12	O	-0.346732	0.756227	0.835441
O13	O	-1.082496	-0.262250	0.085461
O14	O	-0.832496	-0.012250	0.335461
O15	O	-0.582496	0.237750	0.585461
O16	O	-0.332496	0.487750	0.835461
O17	O	-1.096750	0.006235	-0.085693
O18	O	-0.846750	0.256235	0.164307
O19	O	-0.596750	0.506235	0.414307
O20	O	-0.346750	0.756235	0.664307
O21	O	-0.955394	-0.135122	-0.085667
O22	O	-0.705394	0.114878	0.164333
O23	O	-0.455394	0.364878	0.414333
O24	O	-0.205394	0.614878	0.664333
O25	O	-1.223871	-0.120885	-0.085699
O26	O	-0.973871	0.129115	0.164301
O27	O	-0.723871	0.379115	0.414301
O28	O	-0.473871	0.629115	0.664301
Cu29	Cu	-1.089634	-0.128002	-0.101309
Cu30	Cu	-0.839634	0.121998	0.148691
Cu31	Cu	-0.589634	0.371998	0.398691
Cu32	Cu	-0.339634	0.621998	0.648691
Cu33	Cu	-1.089612	-0.128012	0.101077
Cu34	Cu	-0.839612	0.121988	0.351077
Cu35	Cu	-0.589612	0.371988	0.601077
Cu36	Cu	-0.339612	0.621988	0.851077
O37	O	-1.082514	-0.262242	-0.085673
O38	O	-0.832514	-0.012242	0.164327
O39	O	-0.582514	0.237758	0.414327
O40	O	-0.332514	0.487758	0.664327
C41	C	-1.096078	0.040591	-0.000126
C42	C	-0.846078	0.290591	0.249874
C43	C	-0.596078	0.540591	0.499874
C44	C	-0.346078	0.790591	0.749874
C45	C	-1.094090	0.142972	-0.000126
C46	C	-0.844090	0.392972	0.249874
C47	C	-0.594090	0.642972	0.499874
C48	C	-0.344090	0.892972	0.749874
C49	C	-0.921025	-0.134462	-0.000096
C50	C	-0.671025	0.115538	0.249904
C51	C	-0.421025	0.365538	0.499904
C52	C	-0.171025	0.615538	0.749904
C53	C	-0.818643	-0.132474	-0.000084
C54	C	-0.568643	0.117526	0.249916
C55	C	-0.318643	0.367526	0.499916
C56	C	-0.068643	0.617526	0.749916
C57	C	-1.258221	-0.121553	-0.000134
C58	C	-1.008221	0.128447	0.249866
C59	C	-0.758221	0.378447	0.499866
C60	C	-0.508221	0.628447	0.749866
C61	C	-1.360602	-0.123541	-0.000139
C62	C	-1.110602	0.126459	0.249861
C63	C	-0.860602	0.376459	0.499861
C64	C	-0.610602	0.626459	0.749861
C65	C	-0.443748	-0.125154	-0.000132
C66	C	-0.193748	0.124846	0.249868
C67	C	0.056252	0.374846	0.499868
C68	C	0.306252	0.624846	0.749868
C69	C	-0.548056	-0.127187	-0.000118
C70	C	-0.298056	0.122813	0.249882
C71	C	-0.048056	0.372813	0.499882
C72	C	0.201944	0.622813	0.749882
C73	C	-0.631192	-0.128814	-0.000107
C74	C	-0.381192	0.121186	0.249893
C75	C	-0.131192	0.371186	0.499893
C76	C	0.118808	0.621186	0.749893
C77	C	-0.735507	-0.130847	-0.000095
C78	C	-0.485507	0.119153	0.249905
C79	C	-0.235507	0.369153	0.499905
C80	C	0.014493	0.619153	0.749905
C81	C	-1.083168	-0.296605	-0.000103
C82	C	-0.833168	-0.046605	0.249897
C83	C	-0.583168	0.203395	0.499897
C84	C	-0.333168	0.453395	0.749897
C85	C	-1.085156	-0.398987	-0.000096
C86	C	-0.835156	-0.148987	0.249904
C87	C	-0.585156	0.101013	0.499904
C88	C	-0.335156	0.351013	0.749904
N89	N	-1.089656	-0.127995	-0.243656
N90	N	-0.839656	0.122005	0.006344
N91	N	-0.589656	0.372005	0.256344
N92	N	-0.339656	0.622005	0.506344
C93	C	-1.086770	0.517868	-0.000099
C94	C	-0.836770	0.767868	0.249901
C95	C	-0.586770	1.017868	0.499901
C96	C	-0.336770	1.267868	0.749901
C97	C	-1.088803	0.413560	-0.000107
C98	C	-0.838803	0.663560	0.249893
C99	C	-0.588803	0.913560	0.499893
C100	C	-0.338803	1.163560	0.749893
C101	C	-1.090430	0.330423	-0.000114
C102	C	-0.840430	0.580423	0.249886
C103	C	-0.590430	0.830423	0.499886
C104	C	-0.340430	1.080423	0.749886
C105	C	-1.092463	0.226109	-0.000120
C106	C	-0.842463	0.476109	0.249880
C107	C	-0.592463	0.726109	0.499880
C108	C	-0.342463	0.976109	0.749880
N109	N	-1.089598	-0.128012	0.243424
N110	N	-0.839598	0.121988	0.493424
N111	N	-0.589598	0.371988	0.743424
N112	N	-0.339598	0.621988	0.993424
C113	C	-1.089600	-0.128013	0.336530
C114	C	-0.839600	0.121987	0.586530
C115	C	-0.589600	0.371987	0.836530
C116	C	-0.339600	0.621987	1.086530
C117	C	-1.089613	-0.128011	0.453335
C118	C	-0.839613	0.121989	0.703335
C119	C	-0.589613	0.371989	0.953335
C120	C	-0.339613	0.621989	1.203335
C121	C	-1.089628	-0.128005	0.546433
C122	C	-0.839628	0.121995	0.796433
C123	C	-0.589628	0.371995	1.046433
C124	C	-0.339628	0.621995	1.296433
C125	C	-1.089640	-0.128002	0.663246
C126	C	-0.839640	0.121998	0.913246
C127	C	-0.589640	0.371998	1.163246
C128	C	-0.339640	0.621998	1.413246
