data_functionalizedCrystal
_audit_creation_method	'MofGen! by Chris Wilmer'
_symmetry_space_group_name_H-M	'P1'
_symmetry_Int_Tables_number	1
_symmetry_cell_setting	triclinic
loop_
_symmetry_equiv_pos_as_xyz
  x,y,z
_cell_length_a	19.805407
_cell_length_b	12.594516
_cell_length_c	19.805399
_cell_angle_alpha	89.977527
_cell_angle_beta	89.982197
_cell_angle_gamma	90.009132
loop_
_atom_site_label
_atom_site_type_symbol
_atom_site_fract_x
_atom_site_fract_y
_atom_site_fract_z
Zn1	Zn	1.034804	-0.423843	-0.382712
Zn2	Zn	1.034748	-0.601836	-0.269534
Zn3	Zn	0.921619	-0.423864	-0.269540
Zn4	Zn	0.921611	-0.601772	-0.382684
O5	O	0.978196	-0.512829	-0.326117
O6	O	1.129513	-0.447473	-0.367707
O7	O	1.019721	-0.578264	-0.174818
O8	O	0.936660	-0.274915	-0.284567
O9	O	1.129472	-0.578244	-0.284556
O10	O	1.019817	-0.274900	-0.367713
O11	O	0.936605	-0.447508	-0.174822
O12	O	0.826901	-0.447445	-0.284540
O13	O	0.936647	-0.578133	-0.477404
O14	O	0.826896	-0.578153	-0.367666
O15	O	1.019809	-0.447410	-0.477425
O16	O	1.019713	-0.750774	-0.284529
O17	O	0.936592	-0.750726	-0.367660
C18	C	0.802340	-0.512795	-0.326101
C19	C	0.727108	-0.512807	-0.326110
C20	C	0.691786	-0.444835	-0.369473
C21	C	0.621097	-0.444840	-0.369475
C22	C	0.585732	-0.512824	-0.326118
C23	C	0.621059	-0.580799	-0.282750
C24	C	0.691746	-0.580787	-0.282745
C25	C	0.335986	-0.580847	-0.282771
C26	C	0.265294	-0.580856	-0.282781
C27	C	0.265337	-0.444900	-0.369502
C28	C	0.336024	-0.444888	-0.369496
C29	C	0.371345	-0.512859	-0.326126
C30	C	0.447993	-0.512850	-0.326123
C31	C	0.509085	-0.512839	-0.326124
C32	C	0.978164	-0.789370	-0.326105
C33	C	0.978213	-0.907675	-0.326123
C34	C	1.023475	-0.976916	-0.280956
C35	C	1.040013	-1.047622	-0.342735
C36	C	0.961760	-1.047767	-0.264384
C37	C	0.994782	-0.976824	-0.387934
C38	C	0.916500	-0.976962	-0.309542
C39	C	0.933015	-1.047637	-0.371362
C40	C	1.154738	-0.512863	-0.326134
C41	C	1.229970	-0.512878	-0.326141
C42	C	0.978234	-0.512762	-0.502660
C43	C	0.978250	-0.512733	-0.577892
C44	C	0.978246	-0.235208	-0.326144
C45	C	0.978267	-0.116902	-0.326155
C46	C	1.021553	-0.444662	-0.613248
C47	C	1.021560	-0.444631	-0.683936
C48	C	0.978267	-0.512678	-0.719268
C49	C	0.934958	-0.580752	-0.683907
C50	C	0.934948	-0.580776	-0.613220
C51	C	0.934996	-0.580652	-0.968980
C52	C	0.935011	-0.580625	-1.039672
C53	C	1.021608	-0.444507	-1.039697
C54	C	1.021599	-0.444532	-0.969010
C55	C	0.978288	-0.512602	-0.933655
C56	C	0.978280	-0.512633	-0.857007
C57	C	0.978277	-0.512652	-0.795915
C58	C	0.978197	-0.512819	-0.150261
C59	C	0.978312	-0.512547	-0.075030
H60	H	0.592341	-0.389493	-0.404787
F61	F	0.888929	-0.653052	-1.077273
H62	H	1.056855	-0.389125	-0.940247
H63	H	1.092225	-1.078663	-0.356778
F64	F	1.013088	-0.936270	-0.456214
F65	F	1.073511	-0.936324	-0.231076
F66	F	1.067637	-0.372242	-0.575652
H67	H	0.720504	-0.636137	-0.247434
F68	F	0.883015	-1.087974	-0.421361
H69	H	0.592259	-0.636148	-0.247445
F70	F	0.848272	-0.936364	-0.291165
H71	H	0.720575	-0.389477	-0.404781
H72	H	0.947821	-1.078928	-0.212159
F73	F	0.888901	-0.653098	-0.931362
H74	H	1.056872	-0.389078	-1.068491
F75	F	0.888879	-0.653168	-0.721511
H76	H	0.899679	-0.636196	-0.584434
H77	H	0.364815	-0.389532	-0.404804
H78	H	1.056824	-0.389204	-0.712720
H79	H	0.236501	-0.636219	-0.247472
F80	F	0.227740	-0.372556	-0.415658
H81	H	0.364735	-0.636194	-0.247457
