data_functionalizedCrystal
_audit_creation_method	'MofGen! by Chris Wilmer'
_symmetry_space_group_name_H-M	'P1'
_symmetry_Int_Tables_number	1
_symmetry_cell_setting	triclinic
loop_
_symmetry_equiv_pos_as_xyz
  x,y,z
_cell_length_a	17.077404
_cell_length_b	21.295417
_cell_length_c	17.077396
_cell_angle_alpha	89.967856
_cell_angle_beta	89.981638
_cell_angle_gamma	90.027672
loop_
_atom_site_label
_atom_site_type_symbol
_atom_site_fract_x
_atom_site_fract_y
_atom_site_fract_z
Zn1	Zn	1.200017	-0.250643	-0.443799
Zn2	Zn	1.700017	0.249357	0.056201
Zn3	Zn	1.199909	-0.355916	-0.312524
Zn4	Zn	1.699909	0.144084	0.187476
Zn5	Zn	1.068749	-0.250661	-0.312549
Zn6	Zn	1.568749	0.249339	0.187451
Zn7	Zn	1.068702	-0.355875	-0.443751
Zn8	Zn	1.568702	0.144125	0.056249
O9	O	1.134344	-0.303274	-0.378156
O10	O	1.634344	0.196726	0.121844
O11	O	1.309850	-0.264618	-0.426395
O12	O	1.809850	0.235382	0.073605
O13	O	1.182485	-0.341979	-0.202681
O14	O	1.682485	0.158021	0.297319
O15	O	1.086228	-0.162569	-0.329991
O16	O	1.586228	0.337431	0.170009
O17	O	1.309770	-0.341962	-0.329948
O18	O	1.809770	0.158038	0.170052
O19	O	1.182670	-0.162556	-0.426419
O20	O	1.682670	0.337444	0.073581
O21	O	1.086122	-0.264648	-0.202699
O22	O	1.586122	0.235352	0.297301
O23	O	0.958896	-0.264608	-0.329944
O24	O	1.458896	0.235392	0.170056
O25	O	1.086146	-0.341891	-0.553604
O26	O	1.586146	0.158109	-0.053604
O27	O	0.958861	-0.341908	-0.426337
O28	O	1.458861	0.158092	0.073663
O29	O	1.182624	-0.264578	-0.553639
O30	O	1.682624	0.235422	-0.053639
O31	O	1.182439	-0.444000	-0.329901
O32	O	1.682439	0.056000	0.170099
O33	O	1.086041	-0.443970	-0.426313
O34	O	1.586041	0.056030	0.073687
C35	C	0.930396	-0.303256	-0.378138
C36	C	1.430396	0.196744	0.121862
C37	C	0.843147	-0.303264	-0.378149
C38	C	1.343147	0.196736	0.121851
C39	C	0.802199	-0.263062	-0.428446
C40	C	1.302199	0.236938	0.071554
C41	C	0.720218	-0.263066	-0.428449
C42	C	1.220218	0.236934	0.071551
C43	C	0.679187	-0.303275	-0.378160
C44	C	1.179187	0.196725	0.121840
C45	C	0.720141	-0.343478	-0.327858
C46	C	1.220141	0.156522	0.172142
C47	C	0.802120	-0.343471	-0.327851
C48	C	1.302120	0.156529	0.172149
C49	C	0.549271	-0.343493	-0.327877
C50	C	1.049271	0.156507	0.172123
C51	C	0.467286	-0.343501	-0.327885
C52	C	0.967286	0.156499	0.172115
C53	C	0.467369	-0.263088	-0.428476
C54	C	0.967369	0.236912	0.071524
C55	C	0.549348	-0.263081	-0.428469
C56	C	1.049348	0.236919	0.071531
C57	C	0.590296	-0.303285	-0.378168
C58	C	1.090296	0.196715	0.121832
C59	C	1.134244	-0.466826	-0.378116
C60	C	1.634244	0.033174	0.121884
C61	C	1.134273	-0.536794	-0.378125
C62	C	1.634273	-0.036794	0.121875
C63	C	1.184462	-0.569596	-0.428371
C64	C	1.684462	-0.069596	0.071629
C65	C	1.184490	-0.635339	-0.428391
C66	C	1.684490	-0.135339	0.071609
C67	C	1.134337	-0.668276	-0.378150
C68	C	1.634337	-0.168276	0.121850
C69	C	1.084138	-0.635466	-0.327900
C70	C	1.584138	-0.135466	0.172100
C71	C	1.084107	-0.569724	-0.327888
C72	C	1.584107	-0.069724	0.172112
N73	N	1.128408	-0.771539	-0.309452
N74	N	1.628408	-0.271539	0.190548
N75	N	1.128443	-0.833991	-0.309466
N76	N	1.628443	-0.333991	0.190534
C77	C	1.134429	-0.866351	-0.378186
C78	C	1.634429	-0.366351	0.121814
N79	N	1.140394	-0.833900	-0.446892
N80	N	1.640394	-0.333900	0.053108
N81	N	1.140363	-0.771443	-0.446877
N82	N	1.640363	-0.271443	0.053123
C83	C	1.134365	-0.739562	-0.378158
C84	C	1.634365	-0.239562	0.121842
C85	C	1.184650	-0.970439	-0.428457
C86	C	1.684650	-0.470439	0.071543
C87	C	1.184672	-1.036183	-0.428478
C88	C	1.684672	-0.536183	0.071522
C89	C	1.084325	-1.036308	-0.327980
C90	C	1.584325	-0.536308	0.172020
C91	C	1.084299	-0.970566	-0.327966
C92	C	1.584299	-0.470566	0.172034
C93	C	1.134465	-0.937635	-0.378204
C94	C	1.634465	-0.437635	0.121796
C95	C	1.339089	-0.303292	-0.378174
C96	C	1.839089	0.196708	0.121826
C97	C	1.426338	-0.303300	-0.378182
C98	C	1.926338	0.196700	0.121818
C99	C	1.134392	-0.303228	-0.582900
C100	C	1.634392	0.196772	-0.082900
C101	C	1.134412	-0.303208	-0.670150
C102	C	1.634412	0.196792	-0.170150
C103	C	1.134466	-0.139084	-0.378213
C104	C	1.634466	0.360916	0.121787
C105	C	1.134518	-0.069116	-0.378237
C106	C	1.634518	0.430884	0.121763
C107	C	1.184650	-0.262947	-0.711160
C108	C	1.684650	0.237053	-0.211160
C109	C	1.184659	-0.262927	-0.793140
C110	C	1.684659	0.237073	-0.293140
C111	C	1.134434	-0.303170	-0.834110
C112	C	1.634434	0.196830	-0.334110
C113	C	1.084191	-0.343432	-0.793094
C114	C	1.584191	0.156568	-0.293094
C115	C	1.084178	-0.343449	-0.711115
C116	C	1.584178	0.156551	-0.211115
C117	C	1.084223	-0.343394	-0.963964
C118	C	1.584223	0.156606	-0.463964
C119	C	1.084237	-0.343377	-1.045949
C120	C	1.584237	0.156623	-0.545949
C121	C	1.184703	-0.262871	-1.045990
C122	C	1.684703	0.237129	-0.545990
C123	C	1.184691	-0.262889	-0.964011
C124	C	1.684691	0.237111	-0.464011
C125	C	1.134448	-0.303152	-0.923001
C126	C	1.634448	0.196848	-0.423001
C127	C	1.134342	-0.303275	-0.174208
C128	C	1.634342	0.196725	0.325792
C129	C	1.134474	-0.303117	-0.086959
C130	C	1.634474	0.196883	0.413041
H131	H	0.433881	-0.376243	-0.286936
H132	H	0.933881	0.123757	0.213064
C133	C	0.847162	-0.387697	-0.272523
C134	C	1.347162	0.112303	0.227477
N135	N	0.881087	-0.421008	-0.230846
N136	N	1.381087	0.078992	0.269154
H137	H	1.225592	-0.230123	-0.930656
H138	H	1.725592	0.269877	-0.430656
C139	C	0.594312	-0.387721	-0.272545
C140	C	1.094312	0.112279	0.227455
N141	N	0.628236	-0.421036	-0.230874
N142	N	1.128236	0.078964	0.269126
C143	C	1.239651	-0.533376	-0.483630
C144	C	1.739651	-0.033376	0.016370
N145	N	1.281223	-0.506094	-0.525249
N146	N	1.781223	-0.006094	-0.025249
C147	C	1.029145	-1.072536	-0.272725
C148	C	1.529145	-0.572536	0.227275
N149	N	0.987578	-1.099825	-0.231110
N150	N	1.487578	-0.599825	0.268890
H151	H	1.225611	-0.230087	-1.079384
H152	H	1.725611	0.269913	-0.579384
H153	H	1.225569	-0.230144	-0.826527
H154	H	1.725569	0.269856	-0.326527
C155	C	1.239823	-0.934213	-0.483729
C156	C	1.739823	-0.434213	0.016271
N157	N	1.281378	-0.906929	-0.525363
N158	N	1.781378	-0.406929	-0.025363
C159	C	1.028982	-0.387643	-1.091013
C160	C	1.528982	0.112357	-0.591013
N161	N	0.987362	-0.420983	-1.124956
N162	N	1.487362	0.079017	-0.624956
H163	H	0.835600	-0.230321	-0.469399
H164	H	1.335600	0.269679	0.030601
C165	C	1.239707	-0.671429	-0.483664
C166	C	1.739707	-0.171429	0.016336
N167	N	1.281298	-0.698610	-0.525295
N168	N	1.781298	-0.198610	-0.025295
C169	C	1.029001	-0.671698	-0.272605
C170	C	1.529001	-0.171698	0.227395
N171	N	0.987479	-0.698988	-0.230945
N172	N	1.487479	-0.198988	0.269055
C173	C	0.594481	-0.218848	-0.483788
C174	C	1.094481	0.281152	0.016212
N175	N	0.628475	-0.185528	-0.525453
N176	N	1.128475	0.314472	-0.025453
C177	C	0.422325	-0.218866	-0.483810
C178	C	0.922325	0.281134	0.016190
N179	N	0.388394	-0.185561	-0.525490
N180	N	0.888394	0.314439	-0.025490
C181	C	1.028956	-0.387688	-0.918855
C182	C	1.528956	0.112312	-0.418855
N183	N	0.987334	-0.421052	-0.884879
N184	N	1.487334	0.078948	-0.384879
H185	H	0.686727	-0.376214	-0.286908
H186	H	1.186727	0.123786	0.213092
H187	H	1.043295	-0.376196	-0.826458
H188	H	1.543295	0.123804	-0.326458
C189	C	1.028915	-0.387740	-0.666005
C190	C	1.528915	0.112260	-0.166005
N191	N	0.987287	-0.421100	-0.632028
N192	N	1.487287	0.078900	-0.132028
C193	C	1.239891	-1.072265	-0.483752
C194	C	1.739891	-0.572265	0.016248
N195	N	1.281485	-1.099443	-0.525382
N196	N	1.781485	-0.599443	-0.025382
C197	C	1.028890	-0.533640	-0.272614
C198	C	1.528890	-0.033640	0.227386
N199	N	0.987299	-0.506461	-0.230981
N200	N	1.487299	-0.006461	0.269019
H201	H	1.043434	-0.943856	-0.287048
H202	H	1.543434	-0.443856	0.212952
H203	H	1.225551	-0.230179	-0.677809
H204	H	1.725551	0.269821	-0.177809
H205	H	0.686882	-0.230332	-0.469407
H206	H	1.186882	0.269668	0.030593
