data_functionalizedCrystal
_audit_creation_method	'MofGen! by Chris Wilmer'
_symmetry_space_group_name_H-M	'P1'
_symmetry_Int_Tables_number	1
_symmetry_cell_setting	triclinic
loop_
_symmetry_equiv_pos_as_xyz
  x,y,z
_cell_length_a	10.654550
_cell_length_b	15.500227
_cell_length_c	10.654543
_cell_angle_alpha	92.859068
_cell_angle_beta	95.516448
_cell_angle_gamma	92.868690
loop_
_atom_site_label
_atom_site_type_symbol
_atom_site_fract_x
_atom_site_fract_y
_atom_site_fract_z
O1	O	1.673623	0.071872	-0.170626
O2	O	1.308145	0.071887	-0.187431
O3	O	1.499291	0.071881	0.003712
O4	O	1.482476	0.071878	-0.361768
O5	O	1.487692	-0.072007	-0.007841
O6	O	1.296545	-0.072001	-0.198984
O7	O	1.662023	-0.072016	-0.182179
Cu8	Cu	1.478225	-0.085147	-0.191636
Cu9	Cu	1.491943	0.085018	-0.177973
O10	O	1.470877	-0.072010	-0.373321
C11	C	1.255547	-0.000055	-0.191973
C12	C	1.116105	-0.000049	-0.188281
N13	N	1.468586	-0.204831	-0.201245
C14	C	1.036616	-0.000052	-0.300823
C15	C	0.905594	-0.000067	-0.297347
C16	C	0.933562	-0.000072	-0.068778
C17	C	1.064581	-0.000063	-0.072255
C18	C	1.549610	-0.250111	-0.120282
C19	C	1.542331	-0.340683	-0.127561
C20	C	1.454034	-0.385975	-0.215810
C21	C	1.373001	-0.340689	-0.296777
C22	C	1.380275	-0.250118	-0.289491
C23	C	1.427833	-0.659441	-0.242035
C24	C	1.420568	-0.750018	-0.249318
C25	C	1.589897	-0.750006	-0.080099
C26	C	1.597168	-0.659433	-0.072826
C27	C	1.516131	-0.614155	-0.153789
C28	C	1.446595	-0.478555	-0.223255
C29	C	1.523565	-0.521577	-0.146337
C30	C	1.714621	-0.000072	-0.177636
C31	C	1.854064	-0.000073	-0.181328
C32	C	1.492259	-0.000060	0.044733
C33	C	1.488571	-0.000053	0.184178
N34	N	1.501592	0.204703	-0.168354
C35	C	1.601114	-0.000055	0.263663
C36	C	1.597642	-0.000039	0.394686
C37	C	1.369073	-0.000024	0.366724
C38	C	1.372547	-0.000033	0.235704
C39	C	1.477916	-0.000056	0.585659
C40	C	1.481625	-0.000028	0.446220
H41	H	1.078561	-0.000047	-0.395299
H42	H	1.301101	-0.377571	-0.368627
O43	O	1.340440	-0.610612	-0.329364
H44	H	1.355906	-0.627983	-0.428815
O45	O	0.819855	-0.000068	-0.418731
H46	H	0.877700	-0.000052	-0.499988
O47	O	1.292892	-0.201275	-0.376820
H48	H	1.230280	-0.247983	-0.439419
O49	O	1.150321	-0.000064	0.049141
H50	H	1.250081	-0.000068	0.027226
H51	H	1.695588	-0.000069	0.221715
H52	H	0.891595	-0.000088	0.025686
O53	O	1.719030	-0.000053	0.480415
H54	H	1.779240	0.058580	0.466663
O55	O	1.251156	-0.000042	0.149957
H56	H	1.169892	-0.000042	0.207794
O57	O	1.243939	-0.000021	0.422305
H58	H	1.241616	0.058622	0.486044
O59	O	1.644840	-0.201261	-0.025093
H60	H	1.699948	-0.247966	0.029991
H61	H	1.669066	-0.622558	-0.000967
O62	O	1.629743	-0.389523	-0.040260
H63	H	1.692382	-0.342813	0.022310
O64	O	1.677289	-0.798838	0.007233
H65	H	1.657394	-0.869427	-0.012647
O66	O	1.325314	-0.798874	-0.344490
H67	H	1.270173	-0.752175	-0.399554
H68	H	1.595452	-0.484698	-0.074480
O69	O	1.351377	-0.527408	-0.318452
H70	H	1.286575	-0.568689	-0.268338
