data_functionalizedCrystal
_audit_creation_method	'MofGen! by Chris Wilmer'
_symmetry_space_group_name_H-M	'P1'
_symmetry_Int_Tables_number	1
_symmetry_cell_setting	triclinic
loop_
_symmetry_equiv_pos_as_xyz
  x,y,z
_cell_length_a	12.996460
_cell_length_b	8.559649
_cell_length_c	8.559649
_cell_angle_alpha	69.778664
_cell_angle_beta	89.995421
_cell_angle_gamma	89.994502
loop_
_atom_site_label
_atom_site_type_symbol
_atom_site_fract_x
_atom_site_fract_y
_atom_site_fract_z
O1	O	0.085551	-2.126883	0.055032
O2	O	0.585551	-1.626883	0.555032
O3	O	0.085555	-1.651398	-0.028749
O4	O	0.585555	-1.151398	0.471251
O5	O	0.085551	-1.931031	0.250884
O6	O	0.585551	-1.431031	0.750884
O7	O	0.085554	-1.847250	-0.224601
O8	O	0.585554	-1.347250	0.275399
O9	O	-0.085583	-1.931007	0.250895
O10	O	0.414417	-1.431007	0.750895
O11	O	-0.085579	-1.651374	-0.028738
O12	O	0.414421	-1.151374	0.471262
O13	O	-0.085583	-2.126859	0.055043
O14	O	0.414417	-1.626859	0.555043
Cu15	Cu	-0.101207	-1.889114	0.013153
Cu16	Cu	0.398793	-1.389114	0.513153
Cu17	Cu	0.101179	-1.889143	0.013141
Cu18	Cu	0.601179	-1.389143	0.513141
O19	O	-0.085580	-1.847226	-0.224590
O20	O	0.414420	-1.347226	0.275410
C21	C	-0.000012	-1.591077	-0.035093
C22	C	0.499988	-1.091077	0.464907
C23	C	-0.000010	-1.411378	-0.053992
C24	C	0.499990	-0.911378	0.446008
N25	N	-0.243554	-1.889106	0.013164
N26	N	0.256446	-1.389106	0.513164
C27	C	-0.000014	-1.937369	0.311198
C28	C	0.499986	-1.437369	0.811198
C29	C	-0.000008	-1.956268	0.490898
C30	C	0.499992	-1.456268	0.990898
C31	C	-0.663368	-1.889141	0.013139
C32	C	-0.163368	-1.389141	0.513139
C33	C	-0.546563	-1.889126	0.013140
C34	C	-0.046563	-1.389126	0.513140
C35	C	-0.453465	-1.889124	0.013150
C36	C	0.046535	-1.389124	0.513150
C37	C	-0.336652	-1.889108	0.013154
C38	C	0.163348	-1.389108	0.513154
N39	N	0.243526	-1.889166	0.013144
N40	N	0.743526	-1.389166	0.513144
C41	C	-0.000014	-2.187180	0.061387
C42	C	0.499986	-1.687180	0.561387
C43	C	-0.000009	-2.366879	0.080286
C44	C	0.499991	-1.866879	0.580286
C45	C	-0.000012	-1.840889	-0.284904
C46	C	0.499988	-1.340889	0.215096
C47	C	-0.000011	-1.821990	-0.464604
C48	C	0.499989	-1.321990	0.035396
H49	H	-0.000005	-1.466258	0.209705
H50	H	0.499995	-0.966258	0.709705
H51	H	-0.000004	-1.311990	-0.183420
H52	H	0.499996	-0.811990	0.316580
H53	H	-0.000013	-1.692570	0.436018
H54	H	0.499987	-1.192570	0.936018
N55	N	-0.000026	-2.127716	0.622531
N56	N	0.499974	-1.627716	1.122531
H57	H	-0.000034	-2.117376	0.736552
H58	H	0.499966	-1.617376	1.236552
H59	H	0.063416	-2.190246	0.609479
H60	H	0.563416	-1.690246	1.109479
