data_functionalizedCrystal
_audit_creation_method	'MofGen! by Chris Wilmer'
_symmetry_space_group_name_H-M	'P1'
_symmetry_Int_Tables_number	1
_symmetry_cell_setting	triclinic
loop_
_symmetry_equiv_pos_as_xyz
  x,y,z
_cell_length_a	18.366186
_cell_length_b	19.288899
_cell_length_c	19.288865
_cell_angle_alpha	96.856754
_cell_angle_beta	89.987206
_cell_angle_gamma	89.992143
loop_
_atom_site_label
_atom_site_type_symbol
_atom_site_fract_x
_atom_site_fract_y
_atom_site_fract_z
O1	O	0.060440	0.921327	-0.086765
O2	O	0.560440	1.421327	0.413235
O3	O	0.060469	0.719070	-0.098428
O4	O	0.560469	1.219070	0.401572
O5	O	0.060439	0.826043	0.008533
O6	O	0.560439	1.326043	0.508533
O7	O	0.060470	0.814354	-0.193726
O8	O	0.560470	1.314354	0.306274
O9	O	-0.060660	0.826045	0.008543
O10	O	0.439340	1.326045	0.508543
O11	O	-0.060631	0.719072	-0.098418
O12	O	0.439369	1.219072	0.401582
O13	O	-0.060659	0.921330	-0.086754
O14	O	0.439341	1.421330	0.413246
Zn15	Zn	-0.079872	0.820201	-0.092584
Zn16	Zn	0.420128	1.320201	0.407416
Zn17	Zn	0.079682	0.820198	-0.092598
Zn18	Zn	0.579682	1.320198	0.407402
O19	O	-0.060630	0.814357	-0.193716
O20	O	0.439370	1.314357	0.306284
C21	C	-0.000077	0.693195	-0.098044
C22	C	0.499923	1.193195	0.401956
C23	C	-0.000067	0.616093	-0.096905
C24	C	0.499933	1.116093	0.403095
N25	N	0.188573	0.820196	-0.092602
N26	N	0.688573	1.320196	0.407398
C27	C	-0.000112	0.825668	0.034415
C28	C	0.499888	1.325668	0.534415
C29	C	-0.000119	0.824539	0.111519
C30	C	0.499881	1.324539	0.611519
N31	N	-0.188763	0.820209	-0.092575
N32	N	0.311237	1.320209	0.407425
C33	C	0.226660	0.867648	-0.045332
C34	C	0.726660	1.367648	0.454668
C35	C	0.302888	0.867654	-0.045330
C36	C	0.802888	1.367654	0.454670
C37	C	0.341026	0.820197	-0.092593
C38	C	0.841026	1.320197	0.407407
C39	C	0.302929	0.772741	-0.139872
C40	C	0.802929	1.272741	0.360128
C41	C	0.226703	0.772741	-0.139877
C42	C	0.726703	1.272741	0.360123
C43	C	0.461802	0.756910	-0.101730
C44	C	0.961802	1.256910	0.398270
C45	C	0.538027	0.756909	-0.101720
C46	C	1.038027	1.256909	0.398280
C47	C	0.576133	0.820197	-0.092582
C48	C	1.076133	1.320197	0.407418
C49	C	0.538005	0.883488	-0.083439
C50	C	1.038005	1.383488	0.416561
C51	C	0.461778	0.883488	-0.083444
C52	C	0.961778	1.383488	0.416556
C53	C	0.423680	0.820192	-0.092593
C54	C	0.923680	1.320192	0.407407
C55	C	0.696875	0.867659	-0.045308
C56	C	1.196875	1.367659	0.454692
C57	C	0.773105	0.867666	-0.045311
C58	C	1.273105	1.367666	0.454689
C59	C	0.773144	0.772747	-0.139849
C60	C	1.273144	1.272747	0.360151
C61	C	0.696916	0.772746	-0.139849
C62	C	1.196916	1.272746	0.360151
C63	C	0.658787	0.820201	-0.092575
C64	C	1.158787	1.320201	0.407425
C65	C	-0.000111	0.947204	-0.087139
C66	C	0.499889	1.447204	0.412861
C67	C	-0.000116	1.024307	-0.088277
C68	C	0.499884	1.524307	0.411723
C69	C	0.065896	1.060510	-0.088816
C70	C	0.565896	1.560510	0.411184
C71	C	0.065904	1.132959	-0.089868
C72	C	0.565904	1.632959	0.410132
C73	C	-0.000105	1.169199	-0.090394
C74	C	0.499895	1.669199	0.409606
C75	C	-0.066126	1.132987	-0.089850
C76	C	0.433874	1.632987	0.410150
C77	C	-0.066132	1.060541	-0.088792
C78	C	0.433868	1.560541	0.411208
C79	C	-0.050661	1.278544	-0.132750
C80	C	0.449339	1.778544	0.367250
C81	C	-0.050653	1.350988	-0.133812
C82	C	0.449347	1.850988	0.366188
C83	C	-0.000089	1.392647	-0.093655
C84	C	0.499911	1.892647	0.406345
C85	C	0.050478	1.361852	-0.052444
C86	C	0.550478	1.861852	0.447556
C87	C	0.050472	1.289406	-0.051386
C88	C	0.550472	1.789406	0.448614
C89	C	-0.000105	1.247754	-0.091541
C90	C	0.499895	1.747754	0.408459
C91	C	0.065937	1.507407	-0.095334
C92	C	0.565937	2.007407	0.404666
C93	C	0.065942	1.579858	-0.096381
C94	C	0.565942	2.079858	0.403619
C95	C	-0.066090	1.579884	-0.096370
C96	C	0.433910	2.079884	0.403630
C97	C	-0.066093	1.507436	-0.095316
C98	C	0.433907	2.007436	0.404684
C99	C	-0.000078	1.471201	-0.094801
C100	C	0.499922	1.971201	0.405199
C101	C	-0.000076	0.814732	-0.219597
C102	C	0.499924	1.314732	0.280403
C103	C	-0.000065	0.815861	-0.296701
C104	C	0.499935	1.315861	0.203299
C105	C	-0.000131	0.887306	0.156207
C106	C	0.499869	1.387306	0.656207
C107	C	-0.000119	0.886245	0.228654
C108	C	0.499881	1.386245	0.728654
C109	C	-0.000110	0.822414	0.256410
C110	C	0.499890	1.322414	0.756410
C111	C	-0.000093	0.759639	0.211711
C112	C	0.499907	1.259639	0.711711
C113	C	-0.000098	0.760701	0.139266
C114	C	0.499902	1.260701	0.639266
C115	C	-0.042521	0.772236	0.364707
C116	C	0.457479	1.272236	0.864707
C117	C	-0.042522	0.771176	0.437152
C118	C	0.457478	1.271176	0.937152
C119	C	-0.000093	0.819135	0.479856
C120	C	0.499907	1.319135	0.979856
C121	C	0.042326	0.868164	0.450108
C122	C	0.542326	1.368164	0.950108
C123	C	0.042321	0.869227	0.377662
C124	C	0.542321	1.369227	0.877662
C125	C	-0.000105	0.821255	0.334964
C126	C	0.499895	1.321255	0.834964
C127	C	-0.000092	0.880756	0.603100
C128	C	0.499908	1.380756	1.103100
C129	C	-0.000076	0.879692	0.675549
C130	C	0.499924	1.379692	1.175549
C131	C	-0.000057	0.753084	0.658604
C132	C	0.499943	1.253084	1.158604
C133	C	-0.000066	0.754149	0.586157
C134	C	0.499934	1.254149	1.086157
C135	C	-0.000087	0.817987	0.558410
C136	C	0.499913	1.317987	1.058410
H137	H	0.195617	0.906290	-0.006840
H138	H	0.695617	1.406290	0.493160
C139	C	0.088986	0.923148	0.344941
C140	C	0.588986	1.423148	0.844941
H141	H	0.114262	0.951556	0.380744
H142	H	0.614262	1.451556	0.880744
H143	H	0.058396	0.951607	0.320438
H144	H	0.558396	1.451607	0.820438
H145	H	0.123104	0.899538	0.313459
H146	H	0.623104	1.399538	0.813459
H147	H	-0.119889	1.031064	-0.088356
H148	H	0.380111	1.531064	0.411644
C149	C	-0.138698	1.619739	-0.096948
C150	C	0.361302	2.119739	0.403052
H151	H	-0.129241	1.668070	-0.097659
H152	H	0.370759	2.168070	0.402341
H153	H	-0.165830	1.613287	-0.056278
H154	H	0.334170	2.113287	0.443722
H155	H	-0.165814	1.602455	-0.137274
H156	H	0.334186	2.102455	0.362726
C157	C	-0.000138	0.955289	0.277823
C158	C	0.499862	1.455289	0.777823
H159	H	-0.000129	0.945512	0.324943
H160	H	0.499871	1.445512	0.824943
H161	H	-0.042375	0.981470	0.269442
H162	H	0.457625	1.481470	0.769442
H163	H	0.042090	0.981477	0.269424
H164	H	0.542090	1.481477	0.769424
H165	H	0.333905	0.906297	-0.006836
H166	H	0.833905	1.406297	0.493164
C167	C	-0.089196	0.719482	0.317736
C168	C	0.410804	1.219482	0.817736
H169	H	-0.083120	0.727132	0.270329
H170	H	0.416880	1.227132	0.770329
H171	H	-0.138981	0.725415	0.330440
H172	H	0.361019	1.225415	0.830440
H173	H	-0.074269	0.673350	0.323454
H174	H	0.425731	1.173350	0.823454
H175	H	-0.119870	1.162499	-0.090278
H176	H	0.380130	1.662499	0.409722
C177	C	-0.000057	0.685107	0.536995
C178	C	0.499943	1.185107	1.036995
H179	H	-0.000055	0.694881	0.489874
H180	H	0.499945	1.194881	0.989874
H181	H	-0.042281	0.658920	0.545396
H182	H	0.457719	1.158920	1.045396
H183	H	0.042185	0.658927	0.545377
H184	H	0.542185	1.158927	1.045377
C185	C	0.419893	0.687292	-0.111893
C186	C	0.919893	1.187292	0.388107
H187	H	0.453517	0.649601	-0.117361
H188	H	0.953517	1.149601	0.382639
H189	H	0.390213	0.685753	-0.152373
H190	H	0.890213	1.185753	0.347627
H191	H	0.390104	0.683572	-0.072238
H192	H	0.890104	1.183572	0.427762
H193	H	-0.000106	0.932736	0.580508
H194	H	0.499894	1.432736	1.080508
H195	H	0.091654	1.395769	-0.019747
H196	H	0.591654	1.895769	0.480253
H197	H	0.076875	0.907216	0.484877
H198	H	0.576875	1.407216	0.984877
C199	C	-0.000091	0.948740	0.724707
C200	C	0.499909	1.448740	1.224707
H201	H	-0.000111	0.986908	0.697803
H202	H	0.499889	1.486908	1.197803
H203	H	0.042141	0.950962	0.753309
H204	H	0.542141	1.450962	1.253309
H205	H	-0.042325	0.950951	0.753331
H206	H	0.457675	1.450951	1.253331
C207	C	-0.138708	1.467608	-0.094734
C208	C	0.361292	1.967608	0.405266
H209	H	-0.178020	1.499565	-0.095204
H210	H	0.321980	1.999565	0.404796
H211	H	-0.141463	1.444762	-0.053828
H212	H	0.358537	1.944762	0.446172
H213	H	-0.141445	1.433933	-0.134823
H214	H	0.358555	1.933933	0.365177
C215	C	0.655015	0.720544	-0.191840
C216	C	1.155015	1.220544	0.308160
H217	H	0.604156	0.727344	-0.185078
H218	H	1.104156	1.227344	0.314922
H219	H	0.667511	0.674239	-0.184320
H220	H	1.167511	1.174239	0.315680
H221	H	0.667520	0.727855	-0.238206
H222	H	1.167520	1.227855	0.261794
C223	C	0.419839	0.953102	-0.073397
C224	C	0.919839	1.453102	0.426603
H225	H	0.453446	0.990797	-0.067959
H226	H	0.953446	1.490797	0.432041
H227	H	0.390088	0.954714	-0.032946
H228	H	0.890088	1.454714	0.467054
H229	H	0.390118	0.956746	-0.113103
H230	H	0.890118	1.456746	0.386897
C231	C	0.344877	0.720539	-0.191859
C232	C	0.844877	1.220539	0.308141
H233	H	0.395730	0.727330	-0.185082
H234	H	0.895730	1.227330	0.314918
H235	H	0.332399	0.727845	-0.238224
H236	H	0.832399	1.227845	0.261776
H237	H	0.332387	0.674232	-0.184336
H238	H	0.832387	1.174232	0.315664
H239	H	0.119690	1.477904	-0.094912
H240	H	0.619690	1.977904	0.405088
H241	H	-0.091812	1.376053	-0.167386
H242	H	0.408188	1.876053	0.332614
H243	H	0.119699	1.609334	-0.096815
H244	H	0.619699	2.109334	0.403185
C245	C	-0.000091	0.691655	0.090106
C246	C	0.499909	1.191655	0.590106
H247	H	-0.000087	0.653486	0.117009
H248	H	0.499913	1.153486	0.617009
H249	H	0.042135	0.689437	0.061478
H250	H	0.542135	1.189437	0.561478
H251	H	-0.042331	0.689441	0.061509
H252	H	0.457669	1.189441	0.561509
H253	H	-0.000046	0.701112	0.681201
H254	H	0.499954	1.201112	1.181201
H255	H	0.804195	0.734109	-0.178334
H256	H	1.304195	1.234109	0.321666
H257	H	0.569029	0.935023	-0.076003
H258	H	1.069029	1.435023	0.423997
H259	H	-0.000146	0.939287	0.133620
H260	H	0.499854	1.439287	0.633620
C261	C	0.184805	0.720533	-0.191867
C262	C	0.684805	1.220533	0.308133
H263	H	0.218433	0.692264	-0.220013
H264	H	0.718433	1.192264	0.279987
H265	H	0.155067	0.745357	-0.220777
H266	H	0.655067	1.245357	0.279223
H267	H	0.155073	0.691753	-0.166880
H268	H	0.655073	1.191753	0.333120
C269	C	0.138510	1.020659	-0.088232
C270	C	0.638510	1.520659	0.411768
H271	H	0.177826	1.052602	-0.088695
H272	H	0.677826	1.552602	0.411305
H273	H	0.141266	0.986975	-0.128310
H274	H	0.641266	1.486975	0.371690
H275	H	0.141239	0.997822	-0.047314
H276	H	0.641239	1.497822	0.452686
H277	H	-0.077057	0.731251	0.461366
H278	H	0.422943	1.231251	0.961366
H279	H	0.569066	0.705374	-0.109157
H280	H	1.069066	1.205374	0.390843
C281	C	-0.000086	0.689427	0.242239
C282	C	0.499914	1.189427	0.742239
H283	H	-0.000093	0.697783	0.291786
H284	H	0.499907	1.197783	0.791786
H285	H	0.042147	0.663590	0.226877
H286	H	0.542147	1.163590	0.726877
H287	H	-0.042318	0.663594	0.226895
H288	H	0.457682	1.163594	0.726895
H289	H	-0.091844	1.244631	-0.165447
H290	H	0.408156	1.744631	0.334553
C291	C	0.654926	0.919861	0.006684
C292	C	1.154926	1.419861	0.506684
H293	H	0.604073	0.913059	-0.000082
H294	H	1.104073	1.413059	0.499918
H295	H	0.667412	0.966166	-0.000836
H296	H	1.167412	1.466166	0.499164
H297	H	0.667408	0.912552	0.053051
H298	H	1.167408	1.412552	0.553051
C299	C	0.815001	0.919865	0.006690
C300	C	1.315001	1.419865	0.506690
H301	H	0.781372	0.948121	0.034846
H302	H	1.281372	1.448121	0.534846
H303	H	0.844740	0.948648	-0.018281
H304	H	1.344740	1.448648	0.481719
H305	H	0.844732	0.895025	0.035598
H306	H	1.344732	1.395025	0.535598
C307	C	0.138518	1.172794	-0.090464
C308	C	0.638518	1.672794	0.409536
H309	H	0.129066	1.221130	-0.091164
H310	H	0.629066	1.721130	0.408836
H311	H	0.165645	1.155499	-0.130790
H312	H	0.665645	1.655499	0.369210
H313	H	0.165638	1.166335	-0.049794
H314	H	0.665638	1.666335	0.450206
C315	C	0.106084	1.255534	-0.006051
C316	C	0.606084	1.755534	0.493949
H317	H	0.136198	1.290716	0.017720
H318	H	0.636198	1.790716	0.517720
H319	H	0.135333	1.223340	-0.034968
H320	H	0.635333	1.723340	0.465032
H321	H	0.081025	1.231657	0.027079
H322	H	0.581025	1.731657	0.527079
