data_functionalizedCrystal
_audit_creation_method	'MofGen! by Chris Wilmer'
_symmetry_space_group_name_H-M	'P1'
_symmetry_Int_Tables_number	1
_symmetry_cell_setting	triclinic
loop_
_symmetry_equiv_pos_as_xyz
  x,y,z
_cell_length_a	19.851628
_cell_length_b	14.446369
_cell_length_c	14.446369
_cell_angle_alpha	89.999773
_cell_angle_beta	60.004528
_cell_angle_gamma	59.995536
loop_
_atom_site_label
_atom_site_type_symbol
_atom_site_fract_x
_atom_site_fract_y
_atom_site_fract_z
Zr1	Zr	0.737361	-0.121572	0.891794
O2	O	0.877895	-0.269383	0.743997
O3	O	0.596829	-0.076254	0.937092
O4	O	0.737368	-0.269384	0.937095
O5	O	0.737349	0.076084	0.744002
O6	O	0.737372	-0.269391	1.089425
O7	O	0.737355	-0.076253	0.743994
O8	O	0.485973	0.076083	1.089419
O9	O	0.988749	-0.269390	0.744007
O10	O	0.654634	-0.056939	1.070105
O11	O	0.654627	0.056754	0.956429
O12	O	0.820094	-0.170632	0.956432
O13	O	0.820086	-0.056939	0.842756
Zr14	Zr	0.737358	0.121376	1.134755
Zr15	Zr	0.737368	-0.121584	1.134742
Zr16	Zr	0.737351	0.121388	0.891807
Zr17	Zr	0.914160	-0.121583	0.891811
Zr18	Zr	0.560559	0.121388	1.134738
O19	O	0.877891	0.076058	1.089457
O20	O	0.877904	-0.269400	1.089439
O21	O	0.877881	0.076075	0.744015
O22	O	0.596824	0.269188	1.282552
O23	O	0.596838	-0.076270	1.282534
O24	O	0.596815	0.269204	0.937110
O25	O	0.737370	-0.076280	1.282547
O26	O	0.737351	0.269188	1.089454
O27	O	0.737347	0.269195	0.937124
O28	O	0.737364	0.076057	1.282556
O29	O	0.988754	-0.269400	0.937119
O30	O	0.485965	0.269204	1.089430
O31	O	0.485970	0.269195	1.282542
O32	O	0.485978	0.076074	1.282531
O33	O	0.988741	-0.076270	0.744018
O34	O	0.988746	-0.076279	0.937130
O35	O	0.654625	0.170436	1.070117
O36	O	0.654633	0.056743	1.183793
O37	O	0.820093	-0.056950	1.070121
O38	O	0.820085	0.056743	0.956444
C39	C	0.516210	-0.000083	1.013253
C40	C	0.441154	-0.000079	1.013246
C41	C	0.737351	-0.000083	0.709383
C42	C	0.737348	-0.000078	0.606245
C43	C	0.737347	0.303808	1.013291
C44	C	0.737343	0.406951	1.013296
C45	C	0.259791	0.061902	0.951284
C46	C	0.270133	-0.044999	0.906357
C47	C	0.303734	-0.000094	1.013264
C48	C	0.159678	0.106781	1.058157
C49	C	0.170990	-0.000101	1.013282
C50	C	0.315110	-0.107058	0.968275
C51	C	0.204609	0.044799	1.120134
C52	C	0.214984	-0.062166	1.075234
C53	C	0.380206	-0.000089	1.013252
C54	C	0.094525	-0.000117	1.013292
C55	C	0.958509	-0.000112	1.013296
C56	C	1.033565	-0.000117	1.013303
C57	C	0.737372	-0.304004	1.013258
C58	C	0.737376	-0.407147	1.013253
C59	C	0.632999	0.625323	1.084617
C60	C	0.632928	0.518091	1.085026
C61	C	0.789180	0.410277	1.065597
C62	C	0.788517	0.518046	1.066112
C63	C	0.790661	0.516675	0.889560
C64	C	0.788695	0.410706	0.889762
C65	C	0.632982	0.071630	0.638658
C66	C	0.632945	0.071294	0.531404
C67	C	0.789507	-0.123681	0.423451
C68	C	0.788813	-0.123264	0.531241
C69	C	0.790337	0.050773	0.530293
C70	C	0.788398	0.053246	0.424303
C71	C	0.737368	-0.000113	1.317167
C72	C	0.737371	-0.000118	1.420305
C73	C	0.516219	-0.000098	1.317145
C74	C	0.441166	-0.000099	1.420276
C75	C	0.516198	0.303823	1.013270
C76	C	0.441138	0.406970	1.013268
C77	C	0.516207	0.303808	1.317161
C78	C	0.441150	0.406950	1.420298
C79	C	0.958512	-0.304003	0.709388
C80	C	1.033570	-0.407146	0.606251
C81	C	0.958500	-0.000097	0.709404
C82	C	1.033553	-0.000097	0.606273
C83	C	0.958521	-0.304018	1.013280
C84	C	1.033581	-0.407166	1.013281
C85	C	0.405921	-0.059450	1.409363
C86	C	0.335410	-0.059472	1.506257
C87	C	0.300141	-0.000137	1.614061
C88	C	0.335393	0.059216	1.624972
C89	C	0.405907	0.059231	1.528080
C90	C	0.405889	0.514761	1.072611
C91	C	0.335372	0.611688	1.072605
C92	C	0.300101	0.600823	1.013262
C93	C	0.335357	0.493022	0.953911
C94	C	0.405878	0.396096	0.953911
C95	C	0.405906	0.396041	1.528080
C96	C	0.335392	0.492945	1.624997
C97	C	0.300117	0.600758	1.614129
C98	C	0.335368	0.611665	1.506336
C99	C	0.405886	0.514762	1.409422
C100	C	1.068822	-0.396237	0.498469
C101	C	1.139358	-0.493141	0.401552
C102	C	1.174636	-0.600954	0.412420
C103	C	1.139381	-0.611861	0.520213
C104	C	1.068851	-0.514958	0.617128
C105	C	1.068806	0.059244	0.617186
C106	C	1.139336	0.059240	0.520293
C107	C	1.174607	-0.000099	0.412488
C108	C	1.139352	-0.059447	0.401577
C109	C	1.068828	-0.059449	0.498469
C110	C	1.068829	-0.396265	1.072636
C111	C	1.139347	-0.493174	1.072660
C112	C	1.174619	-0.600983	1.013321
C113	C	1.139364	-0.611882	0.953965
C114	C	1.068843	-0.514974	0.953948
H115	H	0.279531	0.114249	0.898802
H116	H	0.864568	0.006462	0.345192
H117	H	0.195450	-0.114670	1.127643
H118	H	1.040151	-0.523867	0.905610
H119	H	1.168029	0.107573	0.529198
C120	C	0.444700	0.277455	1.540062
N121	N	0.473920	0.188139	1.549096
C122	C	1.178148	-0.124697	0.282981
N123	N	1.207364	-0.173833	0.193651
C124	C	0.222516	0.707456	1.013285
N125	N	0.164076	0.787776	1.013313
C126	C	0.296544	0.481089	0.888644
N127	N	0.267302	0.472105	0.839492
H128	H	0.242723	-0.000158	1.692948
C129	C	0.444635	0.277529	0.888639
N130	N	0.473821	0.188225	0.839474
H131	H	0.592005	0.520547	1.176275
H132	H	0.592434	0.036667	0.693478
H133	H	1.168044	-0.484277	1.120993
H134	H	0.434572	0.523661	1.321664
H135	H	0.306674	0.699455	1.120940
H136	H	0.306698	0.484044	1.712758
C137	C	0.739348	-0.178215	0.599037
N138	N	0.702086	-0.219602	0.650099
C139	C	0.069932	0.228888	1.109444
N140	N	0.002340	0.320861	1.148066
H141	H	1.232066	-0.679849	0.333497
C142	C	0.168203	0.096144	1.242195
N143	N	0.140778	0.134829	1.334134
H144	H	0.592258	0.519707	1.049949
C145	C	0.222538	0.707344	1.720750
N146	N	0.164102	0.787621	1.801061
C147	C	0.306547	-0.096299	0.784273
N148	N	0.333970	-0.134929	0.692320
C149	C	0.296580	0.124490	1.743568
N150	N	0.267338	0.173661	1.832898
C151	C	0.738748	0.586071	1.189079
N152	N	0.701256	0.637307	1.281702
H153	H	0.381512	-0.197486	0.930210
C154	C	1.030035	-0.277651	0.486487
N155	N	1.000831	-0.188335	0.477453
C156	C	0.892275	-0.199410	0.495277
N157	N	0.970201	-0.256769	0.468185
H158	H	0.866298	-0.179463	0.345204
C159	C	0.577653	0.698212	1.037457
N160	N	0.535967	0.753114	1.001929
H161	H	1.232043	-0.679883	1.013344
C162	C	1.178141	-0.730484	0.888744
N163	N	1.207340	-0.819817	0.839632
C164	C	1.030038	-0.277683	1.137925
N165	N	1.000819	-0.188370	1.187111
H166	H	1.168051	-0.484238	0.313792
C167	C	0.577699	0.194200	0.533764
N168	N	0.536078	0.286778	0.535553
H169	H	1.040093	0.107572	0.704957
H170	H	0.756691	0.140421	0.580463
H171	H	0.306637	0.699460	1.497504
C172	C	0.444679	0.526740	1.137891
N173	N	0.473896	0.535773	1.187056
C174	C	0.577975	0.023588	0.534474
N175	N	0.536574	-0.012351	0.536785
C176	C	0.577935	0.699582	1.207151
N177	N	0.536466	0.755505	1.299446
H178	H	0.434636	-0.107782	1.321592
C179	C	0.296638	-0.124756	1.494230
N180	N	0.267434	-0.173924	1.485167
C181	C	1.252182	-0.000079	0.305914
N182	N	1.310608	-0.000057	0.225646
C183	C	1.178188	-0.730466	0.532148
N184	N	1.207414	-0.819803	0.541135
H185	H	0.865098	0.491389	1.017488
H186	H	0.865953	0.332007	1.016124
C187	C	0.740541	0.407407	1.187405
N188	N	0.703900	0.405252	1.279154
C189	C	0.745532	0.584247	0.830537
N190	N	0.711529	0.635149	0.786093
H191	H	1.040149	-0.523854	0.704886
C192	C	0.741192	-0.179038	0.420338
N193	N	0.704796	-0.220727	0.418000
H194	H	0.750897	0.411227	0.850693
H195	H	0.864873	0.331546	0.832121
H196	H	0.867554	0.489223	0.836139
C197	C	0.737040	0.176229	0.425179
N198	N	0.698356	0.268860	0.425834
H199	H	0.591784	0.162852	0.692756
H200	H	0.434595	0.107569	1.536981
C201	C	0.894199	-0.019439	0.493272
N202	N	0.972424	-0.072327	0.465396
H203	H	1.040128	-0.107769	0.489568
