data_functionalizedCrystal
_audit_creation_method	'MofGen! by Chris Wilmer'
_symmetry_space_group_name_H-M	'P1'
_symmetry_Int_Tables_number	1
_symmetry_cell_setting	triclinic
loop_
_symmetry_equiv_pos_as_xyz
  x,y,z
_cell_length_a	19.805407
_cell_length_b	14.908520
_cell_length_c	19.805399
_cell_angle_alpha	93.269050
_cell_angle_beta	89.983114
_cell_angle_gamma	93.320773
loop_
_atom_site_label
_atom_site_type_symbol
_atom_site_fract_x
_atom_site_fract_y
_atom_site_fract_z
Zn1	Zn	1.019185	-0.359168	-0.398269
Zn2	Zn	1.352519	-0.025835	-0.064935
Zn3	Zn	1.685852	0.307499	0.268398
Zn4	Zn	1.012581	-0.510037	-0.291612
Zn5	Zn	1.345915	-0.176704	0.041721
Zn6	Zn	1.679248	0.156629	0.375055
Zn7	Zn	0.906004	-0.359197	-0.285095
Zn8	Zn	1.239337	-0.025863	0.048239
Zn9	Zn	1.572671	0.307470	0.381572
Zn10	Zn	0.899441	-0.509986	-0.404757
Zn11	Zn	1.232775	-0.176652	-0.071423
Zn12	Zn	1.566108	0.156681	0.261910
O13	O	0.959303	-0.434597	-0.344933
O14	O	1.292636	-0.101264	-0.011600
O15	O	1.625970	0.232070	0.321734
O16	O	1.113026	-0.379191	-0.384133
O17	O	1.446359	-0.045858	-0.050800
O18	O	1.779692	0.287476	0.282534
O19	O	0.998426	-0.490062	-0.196032
O20	O	1.331759	-0.156728	0.137301
O21	O	1.665093	0.176605	0.470634
O22	O	0.926528	-0.232948	-0.294665
O23	O	1.259862	0.100385	0.038669
O24	O	1.593195	0.433719	0.372002
O25	O	1.108173	-0.490034	-0.305773
O26	O	1.441507	-0.156700	0.027561
O27	O	1.774840	0.176633	0.360894
O28	O	1.009682	-0.232927	-0.377813
O29	O	1.343015	0.100406	-0.044480
O30	O	1.676349	0.433740	0.288853
O31	O	0.920124	-0.379240	-0.191244
O32	O	1.253458	-0.045906	0.142089
O33	O	1.586791	0.287427	0.475423
O34	O	0.810417	-0.379190	-0.300956
O35	O	1.143751	-0.045856	0.032378
O36	O	1.477084	0.287477	0.365711
O37	O	0.915343	-0.489946	-0.498611
O38	O	1.248676	-0.156612	-0.165278
O39	O	1.582010	0.176721	0.168056
O40	O	0.805596	-0.489974	-0.388871
O41	O	1.138929	-0.156640	-0.055537
O42	O	1.472263	0.176693	0.277796
O43	O	1.003319	-0.379141	-0.493845
O44	O	1.336652	-0.045807	-0.160511
O45	O	1.669985	0.287526	0.172822
O46	O	0.992063	-0.636275	-0.312064
O47	O	1.325396	-0.302942	0.021270
O48	O	1.658729	0.030391	0.354603
O49	O	0.908939	-0.636238	-0.395190
O50	O	1.242273	-0.302904	-0.061857
O51	O	1.575606	0.030429	0.271476
C52	C	0.783448	-0.434580	-0.344910
C53	C	1.116781	-0.101246	-0.011577
C54	C	1.450114	0.232087	0.321756
C55	C	0.708215	-0.434594	-0.344918
C56	C	1.041549	-0.101261	-0.011584
C57	C	1.374882	0.232073	0.321749
C58	C	0.670374	-0.492366	-0.390629
C59	C	1.003708	-0.159033	-0.057295
C60	C	1.337041	0.174301	0.276038
C61	C	0.599686	-0.492368	-0.390638
C62	C	0.933019	-0.159034	-0.057305
C63	C	1.266353	0.174299	0.276028
C64	C	0.566839	-0.434601	-0.344933
C65	C	0.900173	-0.101268	-0.011600
C66	C	1.233506	0.232066	0.321733
C67	C	0.604685	-0.376823	-0.299220
C68	C	0.938019	-0.043489	0.034113
C69	C	1.271352	0.289844	0.367447
C70	C	0.675373	-0.376817	-0.299214
C71	C	1.008706	-0.043484	0.034119
C72	C	1.342039	0.289850	0.367453
C73	C	0.319611	-0.376843	-0.299243
C74	C	0.652944	-0.043509	0.034090
C75	C	0.986278	0.289824	0.367424
C76	C	0.248919	-0.376854	-0.299251
C77	C	0.582252	-0.043521	0.034082
C78	C	0.915585	0.289812	0.367415
C79	C	0.243924	-0.492393	-0.390667
C80	C	0.577258	-0.159060	-0.057334
C81	C	0.910591	0.174274	0.275999
C82	C	0.314612	-0.492388	-0.390662
C83	C	0.647945	-0.159054	-0.057328
C84	C	0.981278	0.174279	0.276005
C85	C	0.352452	-0.434606	-0.344951
C86	C	0.685785	-0.101273	-0.011618
C87	C	1.019118	0.232060	0.321716
C88	C	0.429100	-0.434604	-0.344942
C89	C	0.762434	-0.101271	-0.011609
C90	C	1.095767	0.232063	0.321725
C91	C	0.490192	-0.434607	-0.344938
C92	C	0.823525	-0.101274	-0.011605
C93	C	1.156859	0.232060	0.321728
C94	C	0.949091	-0.668990	-0.355053
C95	C	1.282424	-0.335657	-0.021720
C96	C	1.615757	-0.002324	0.311614
C97	C	0.944783	-0.769265	-0.359405
C98	C	1.278117	-0.435932	-0.026072
C99	C	1.611450	-0.102598	0.307262
C100	C	1.023335	-0.957670	-0.281093
C101	C	1.356669	-0.624336	0.052241
C102	C	1.690002	-0.291003	0.385574
C103	C	1.019291	-1.051887	-0.285180
C104	C	1.352624	-0.718553	0.048154
C105	C	1.685957	-0.385220	0.381487
C106	C	0.932654	-1.051917	-0.371669
C107	C	1.265987	-0.718584	-0.038335
C108	C	1.599320	-0.385250	0.294998
C109	C	0.936698	-0.957700	-0.367582
C110	C	1.270032	-0.624367	-0.034248
C111	C	1.603365	-0.291034	0.299085
C112	C	0.982040	-0.910580	-0.322292
C113	C	1.315373	-0.577247	0.011042
C114	C	1.648707	-0.243913	0.344375
C115	C	0.986081	-0.816361	-0.318202
C116	C	1.319414	-0.483028	0.015132
C117	C	1.652747	-0.149695	0.348465
C118	C	0.899447	-0.816394	-0.404694
C119	C	1.232781	-0.483060	-0.071360
C120	C	1.566114	-0.149727	0.261973
C121	C	0.895403	-0.910610	-0.408781
C122	C	1.228736	-0.577277	-0.075447
C123	C	1.562069	-0.243944	0.257886
C124	C	1.135845	-0.434615	-0.344956
C125	C	1.469178	-0.101282	-0.011623
C126	C	1.802512	0.232052	0.321711
C127	C	1.211077	-0.434623	-0.344966
C128	C	1.544410	-0.101289	-0.011633
C129	C	1.877743	0.232044	0.321701
C130	C	0.959335	-0.434534	-0.521473
C131	C	1.292669	-0.101201	-0.188140
C132	C	1.626002	0.232132	0.145194
C133	C	0.959349	-0.434508	-0.596704
C134	C	1.292683	-0.101174	-0.263371
C135	C	1.626016	0.232159	0.069963
C136	C	0.969574	-0.199288	-0.334788
C137	C	1.302907	0.134045	-0.001455
C138	C	1.636241	0.467378	0.331878
C139	C	0.973951	-0.099014	-0.330465
C140	C	1.307284	0.234320	0.002868
C141	C	1.640617	0.567653	0.336201
C142	C	0.918590	-0.376797	-0.629554
C143	C	1.251923	-0.043464	-0.296221
C144	C	1.585257	0.289869	0.037113
C145	C	0.918600	-0.376780	-0.700242
C146	C	1.251934	-0.043446	-0.366909
C147	C	1.585267	0.289887	-0.033575
C148	C	0.959374	-0.434469	-0.738078
C149	C	1.292707	-0.101135	-0.404745
C150	C	1.626040	0.232198	-0.071411
C151	C	1.000134	-0.492185	-0.705223
C152	C	1.333468	-0.158852	-0.371890
C153	C	1.666801	0.174481	-0.038556
C154	C	1.000120	-0.492207	-0.634537
C155	C	1.333453	-0.158874	-0.301204
C156	C	1.666787	0.174460	0.032130
C157	C	1.000192	-0.492101	-0.990293
C158	C	1.333525	-0.158768	-0.656960
C159	C	1.666858	0.174566	-0.323626
C160	C	1.000204	-0.492073	-1.060984
C161	C	1.333537	-0.158740	-0.727651
C162	C	1.666871	0.174593	-0.394317
C163	C	0.918672	-0.376674	-1.055998
C164	C	1.252005	-0.043341	-0.722665
C165	C	1.585338	0.289993	-0.389331
C166	C	0.918658	-0.376695	-0.985312
C167	C	1.251991	-0.043362	-0.651978
C168	C	1.585324	0.289971	-0.318645
C169	C	0.959415	-0.434415	-0.952463
C170	C	1.292749	-0.101082	-0.619130
C171	C	1.626082	0.232252	-0.285796
C172	C	0.959403	-0.434435	-0.875816
C173	C	1.292736	-0.101101	-0.542482
C174	C	1.626070	0.232232	-0.209149
C175	C	0.959390	-0.434445	-0.814724
C176	C	1.292723	-0.101112	-0.481391
C177	C	1.626057	0.232221	-0.148057
C178	C	0.959313	-0.434594	-0.169077
C179	C	1.292646	-0.101261	0.164256
C180	C	1.625979	0.232072	0.497590
C181	C	0.959441	-0.434367	-0.093835
C182	C	1.292774	-0.101033	0.239498
C183	C	1.626108	0.232300	0.572831
H184	H	0.222177	-0.329808	-0.262032
H185	H	0.555511	0.003525	0.071301
H186	H	0.888844	0.336858	0.404634
H187	H	1.060250	-0.919304	-0.244211
H188	H	1.393583	-0.585970	0.089122
H189	H	1.726916	-0.252637	0.422456
H190	H	1.033329	-0.539161	-0.736035
H191	H	1.366662	-0.205828	-0.402702
H192	H	1.699996	0.127505	-0.069368
H193	H	1.033371	-0.539110	-0.963557
H194	H	1.366705	-0.205777	-0.630223
H195	H	1.700038	0.127557	-0.296890
Br196	Br	1.047610	-0.752412	-0.256733
Br197	Br	1.380944	-0.419079	0.076600
Br198	Br	1.714277	-0.085746	0.409933
H199	H	0.895743	-1.090299	-0.408546
H200	H	1.229077	-0.756965	-0.075213
H201	H	1.562410	-0.423632	0.258121
Br202	Br	0.192566	-0.570814	-0.452703
Br203	Br	0.525900	-0.237481	-0.119370
Br204	Br	0.859233	0.095852	0.213963
H205	H	0.885483	-0.329678	-1.082752
H206	H	1.218816	0.003655	-0.749418
H207	H	1.552149	0.336988	-0.416085
Br208	Br	1.055544	-0.570370	-1.112333
Br209	Br	1.388877	-0.237037	-0.779000
Br210	Br	1.722210	0.096296	-0.445667
H211	H	1.033316	-0.539194	-0.607791
H212	H	1.366649	-0.205861	-0.274458
H213	H	1.699982	0.127473	0.058876
H214	H	0.341352	-0.539430	-0.427877
H215	H	0.674685	-0.206097	-0.094544
H216	H	1.008018	0.127236	0.238789
H217	H	0.350412	-0.329800	-0.262018
H218	H	0.683745	0.003533	0.071315
H219	H	1.017078	0.336866	0.404649
H220	H	0.858489	-0.948989	-0.445656
H221	H	1.191822	-0.615655	-0.112323
H222	H	1.525155	-0.282322	0.221010
Br223	Br	0.843388	-0.752481	-0.460598
Br224	Br	1.176721	-0.419148	-0.127265
Br225	Br	1.510055	-0.085815	0.206068
H226	H	0.697113	-0.539409	-0.427845
H227	H	1.030446	-0.206076	-0.094512
H228	H	1.363779	0.127257	0.238821
Br229	Br	0.548333	-0.570774	-0.452679
Br230	Br	0.881666	-0.237441	-0.119346
Br231	Br	1.214999	0.095893	0.213987
H232	H	0.577936	-0.329784	-0.262009
H233	H	0.911270	0.003549	0.071325
H234	H	1.244603	0.336883	0.404658
H235	H	0.706182	-0.329768	-0.261995
H236	H	1.039516	0.003565	0.071339
H237	H	1.372849	0.336898	0.404672
Br238	Br	1.075340	-1.115793	-0.229268
Br239	Br	1.408674	-0.782459	0.104065
Br240	Br	1.742007	-0.449126	0.437399
H241	H	0.885392	-0.329815	-0.598753
H242	H	1.218725	0.003518	-0.265419
H243	H	1.552058	0.336852	0.067914
Br244	Br	0.863325	-0.298395	-0.933966
Br245	Br	1.196658	0.034938	-0.600632
Br246	Br	1.529991	0.368272	-0.267299
Br247	Br	0.863243	-0.298504	-0.744824
Br248	Br	1.196576	0.034830	-0.411490
Br249	Br	1.529910	0.368163	-0.078157
