data_functionalizedCrystal
_audit_creation_method	'MofGen! by Chris Wilmer'
_symmetry_space_group_name_H-M	'P1'
_symmetry_Int_Tables_number	1
_symmetry_cell_setting	triclinic
loop_
_symmetry_equiv_pos_as_xyz
  x,y,z
_cell_length_a	13.032831
_cell_length_b	12.594516
_cell_length_c	13.032268
_cell_angle_alpha	82.848693
_cell_angle_beta	89.113023
_cell_angle_gamma	82.816889
loop_
_atom_site_label
_atom_site_type_symbol
_atom_site_fract_x
_atom_site_fract_y
_atom_site_fract_z
Zn1	Zn	1.498550	-0.718827	0.780858
Zn2	Zn	1.520308	-0.877413	0.608883
Zn3	Zn	1.348404	-0.674363	0.587098
Zn4	Zn	1.326556	-0.871658	0.759008
O5	O	1.423454	-0.785565	0.683962
O6	O	1.645359	-0.760881	0.776307
O7	O	1.515754	-0.834278	0.462076
O8	O	1.368359	-0.531324	0.612827
O9	O	1.661344	-0.877393	0.649958
O10	O	1.478671	-0.563992	0.755182
O11	O	1.389457	-0.685098	0.446070
O12	O	1.201583	-0.679517	0.591641
O13	O	1.331122	-0.867585	0.905824
O14	O	1.185531	-0.824469	0.717943
O15	O	1.457485	-0.755301	0.921877
O16	O	1.494568	-1.025587	0.628771
O17	O	1.352219	-1.021359	0.739067
C18	C	1.156239	-0.746545	0.650057
C19	C	1.041921	-0.729880	0.635577
C20	C	0.983051	-0.794263	0.691519
C21	C	0.864896	-0.777041	0.676555
C22	C	1.423409	-1.062097	0.683938
C23	C	1.423479	-1.180416	0.683974
C24	C	1.500973	-1.251950	0.624067
C25	C	1.514180	-1.336910	0.721120
C26	C	1.410394	-1.306281	0.586998
C27	C	1.436728	-1.263831	0.781082
C28	C	1.332906	-1.233181	0.646891
C29	C	1.346069	-1.318112	0.744004
C30	C	1.691713	-0.824739	0.718000
C31	C	1.806028	-0.841432	0.732505
C32	C	1.389439	-0.815761	0.952210
C33	C	1.374944	-0.828628	1.066522
C34	C	1.423525	-0.507960	0.684012
C35	C	1.423555	-0.389661	0.684033
C36	C	1.457397	-0.755419	0.416765
C37	C	1.472091	-0.742281	0.302479
C38	C	1.431004	-0.778809	1.125428
C39	C	1.416023	-0.792107	1.243575
H40	H	0.827828	-0.709161	0.617582
C41	C	0.938500	-0.681814	0.482040
C42	C	0.991896	-0.638260	0.555948
H43	H	0.907628	-0.625251	0.432873
H44	H	0.886254	-0.719956	0.515199
H45	H	0.985413	-0.729759	0.447911
H46	H	0.944982	-0.590320	0.590082
H47	H	1.044148	-0.600100	0.522785
C48	C	1.345403	-0.983226	1.185618
C49	C	1.295181	-0.899507	1.116503
H50	H	1.296159	-1.026989	1.216465
H51	H	1.378619	-0.953689	1.237880
H52	H	1.395480	-1.025788	1.149374
H53	H	1.245110	-0.856940	1.152748
H54	H	1.261949	-0.929045	1.064233
C55	C	1.684246	-1.265646	0.594864
C56	C	1.589439	-1.212644	0.555749
H57	H	1.738860	-1.241372	0.552693
H58	H	1.685255	-1.341189	0.594899
H59	H	1.692926	-1.250305	0.663522
H60	H	1.580756	-1.227991	0.487093
H61	H	1.588429	-1.137083	0.555703
C62	C	1.301290	-1.277608	0.436804
C63	C	1.395396	-1.332094	0.476254
H64	H	1.292037	-1.293550	0.368438
H65	H	1.301797	-1.202150	0.435911
H66	H	1.246212	-1.300187	0.479301
H67	H	1.450475	-1.309509	0.433760
H68	H	1.394898	-1.407568	0.477140
C69	C	1.460558	-0.624226	1.006315
C70	C	1.510772	-0.707943	1.075438
H71	H	1.509809	-0.580482	0.975452
H72	H	1.410498	-0.581653	1.042549
H73	H	1.427328	-0.653771	0.954056
H74	H	1.543997	-0.678397	1.127702
H75	H	1.560851	-0.750522	1.039203
C76	C	0.994302	-0.870797	0.869771
C77	C	1.033089	-0.885886	0.771137
H78	H	1.025198	-0.927360	0.918924
H79	H	0.921474	-0.871253	0.870154
H80	H	1.009946	-0.803551	0.887134
H81	H	1.017439	-0.953129	0.753771
H82	H	1.105934	-0.885441	0.770751
C83	C	0.817264	-0.917974	0.910760
C84	C	0.856056	-0.933063	0.812127
H85	H	0.848155	-0.974539	0.959914
H86	H	0.744436	-0.918424	0.911138
H87	H	0.832912	-0.850730	0.928125
H88	H	0.840401	-1.000304	0.794759
H89	H	0.928901	-0.932624	0.811746
C90	C	1.386478	-0.946708	1.362666
C91	C	1.336257	-0.862990	1.293552
H92	H	1.337235	-0.990471	1.393514
H93	H	1.419694	-0.917172	1.414929
H94	H	1.436555	-0.989270	1.326423
H95	H	1.286185	-0.820423	1.329797
H96	H	1.303024	-0.892528	1.241282
H97	H	1.590807	-1.381932	0.752516
C98	C	1.371171	-1.272437	0.954730
C99	C	1.451839	-1.238226	0.891877
H100	H	1.380502	-1.256621	1.023126
H101	H	1.371269	-1.347951	0.955424
H102	H	1.307033	-1.235923	0.928273
H103	H	1.515977	-1.274745	0.918330
H104	H	1.451751	-1.162698	0.891187
C105	C	1.257874	-1.468232	0.811328
C106	C	1.257632	-1.357181	0.812511
H107	H	1.203277	-1.492350	0.853619
H108	H	1.322105	-1.505138	0.837102
H109	H	1.248388	-1.482516	0.742458
H110	H	1.267127	-1.342898	0.881380
H111	H	1.193386	-1.320263	0.786741
H112	H	1.256305	-1.188137	0.615470
C113	C	1.501616	-0.587666	1.183401
C114	C	1.551849	-0.671384	1.252509
H115	H	1.550854	-0.543897	1.152550
H116	H	1.451541	-0.545119	1.219642
H117	H	1.468401	-0.617210	1.131130
H118	H	1.585058	-0.641840	1.304784
H119	H	1.601943	-0.713938	1.216266
