data_functionalizedCrystal
_audit_creation_method	'MofGen! by Chris Wilmer'
_symmetry_space_group_name_H-M	'P1'
_symmetry_Int_Tables_number	1
_symmetry_cell_setting	triclinic
loop_
_symmetry_equiv_pos_as_xyz
  x,y,z
_cell_length_a	10.723024
_cell_length_b	10.540539
_cell_length_c	9.798715
_cell_angle_alpha	89.998989
_cell_angle_beta	89.996609
_cell_angle_gamma	84.496680
loop_
_atom_site_label
_atom_site_type_symbol
_atom_site_fract_x
_atom_site_fract_y
_atom_site_fract_z
O1	O	1.657276	0.178046	-0.113475
O2	O	2.157276	0.678046	0.386525
O3	O	1.294132	0.195088	-0.113479
O4	O	1.794132	0.695088	0.386521
O5	O	1.483989	0.001856	-0.113475
O6	O	1.983989	0.501856	0.386525
O7	O	1.467419	0.371278	-0.113479
O8	O	1.967419	0.871278	0.386521
O9	O	1.483974	0.001856	0.113507
O10	O	1.983974	0.501856	0.613507
O11	O	1.294118	0.195088	0.113503
O12	O	1.794118	0.695088	0.613503
O13	O	1.657262	0.178045	0.113507
O14	O	2.157262	0.678045	0.613507
Zn15	Zn	1.475687	0.186567	0.149543
Zn16	Zn	1.975687	0.686567	0.649543
Zn17	Zn	1.475706	0.186567	-0.149515
Zn18	Zn	1.975706	0.686567	0.350485
O19	O	1.467405	0.371277	0.113503
O20	O	1.967405	0.871277	0.613503
C21	C	1.247624	0.193848	0.000011
C22	C	1.747624	0.693848	0.500011
C23	C	1.109068	0.190137	0.000010
C24	C	1.609068	0.690137	0.500010
C25	C	1.482739	-0.045446	0.000013
C26	C	1.982739	0.454554	0.500013
C27	C	1.479021	-0.186392	0.000006
C28	C	1.979021	0.313608	0.500006
C29	C	1.034139	0.298260	0.000008
C30	C	1.534139	0.798260	0.500008
C31	C	0.890934	0.294427	0.000006
C32	C	1.390934	0.794427	0.500006
C33	C	1.336563	-0.369746	-0.000505
C34	C	1.836563	0.130254	0.499495
C35	C	1.340332	-0.223130	0.000006
C36	C	1.840332	0.276870	0.500006
C37	C	1.545757	-0.248085	0.129625
C38	C	2.045757	0.251915	0.629625
C39	C	1.541023	-0.394627	0.129734
C40	C	2.041023	0.105373	0.629734
C41	C	1.543860	-0.395146	-0.128387
C42	C	2.043860	0.104854	0.371613
C43	C	1.545138	-0.248165	-0.130101
C44	C	2.045138	0.251835	0.369899
C45	C	1.703769	0.179286	0.000013
C46	C	2.203769	0.679286	0.500013
C47	C	1.842325	0.182997	0.000006
C48	C	2.342325	0.682997	0.500006
C49	C	1.468654	0.418580	0.000012
C50	C	1.968654	0.918580	0.500012
C51	C	1.472372	0.559526	0.000010
C52	C	1.972372	1.059526	0.500010
N53	N	1.475684	0.186565	0.353643
N54	N	1.975684	0.686565	0.853643
N55	N	1.475720	0.186559	-0.353615
N56	N	1.975720	0.686559	0.146385
C57	C	1.555399	0.105075	0.421421
C58	C	2.055399	0.605075	0.921421
C59	C	1.555419	0.105071	0.578584
C60	C	2.055419	0.605071	1.078584
H61	H	1.076009	0.393665	0.000015
H62	H	1.576009	0.893665	0.500015
H63	H	1.623628	0.035306	0.363100
H64	H	2.123628	0.535306	0.863100
H65	H	1.623672	0.035308	0.636871
H66	H	2.123672	0.535308	1.136871
H67	H	1.067199	0.094732	-0.000024
H68	H	1.567199	0.594732	0.499976
Br69	Br	1.245344	-0.420653	0.153079
Br70	Br	1.745344	0.079347	0.653079
Br71	Br	1.715515	-0.210922	0.137667
Br72	Br	2.215515	0.289078	0.637667
H73	H	1.287821	-0.180499	-0.092910
H74	H	1.787821	0.319501	0.407090
H75	H	0.906704	0.090430	-0.000001
H76	H	1.406704	0.590430	0.499999
Br77	Br	1.245252	-0.417360	-0.155435
Br78	Br	1.745252	0.082640	0.344565
H79	H	0.826548	0.386988	-0.000001
H80	H	1.326548	0.886988	0.499999
Br81	Br	1.252169	-0.153476	0.155123
Br82	Br	1.752169	0.346524	0.655123
H83	H	1.407473	0.256334	0.588107
H84	H	1.907473	0.756334	1.088107
Br85	Br	1.458795	-0.441593	0.291222
Br86	Br	1.958795	0.058407	0.791222
H87	H	1.640766	-0.442646	0.135615
H88	H	2.140766	0.057354	0.635615
Br89	Br	1.361941	0.302840	0.450840
Br90	Br	1.861941	0.802840	0.950840
Br91	Br	1.469045	-0.447678	-0.292134
Br92	Br	1.969045	0.052322	0.207866
H93	H	1.499387	-0.205461	0.226081
H94	H	1.999387	0.294539	0.726081
H95	H	1.496308	-0.207281	-0.225990
H96	H	1.996308	0.292719	0.274010
Br97	Br	1.713670	-0.207873	-0.143160
Br98	Br	2.213670	0.292127	0.356840
Br99	Br	1.710823	-0.473943	-0.129842
Br100	Br	2.210823	0.026057	0.370158
