data_functionalizedCrystal
_audit_creation_method	'MofGen! by Chris Wilmer'
_symmetry_space_group_name_H-M	'P1'
_symmetry_Int_Tables_number	1
_symmetry_cell_setting	triclinic
loop_
_symmetry_equiv_pos_as_xyz
  x,y,z
_cell_length_a	18.050590
_cell_length_b	18.050588
_cell_length_c	12.645323
_cell_angle_alpha	90.028389
_cell_angle_beta	90.006808
_cell_angle_gamma	90.018727
loop_
_atom_site_label
_atom_site_type_symbol
_atom_site_fract_x
_atom_site_fract_y
_atom_site_fract_z
Zn1	Zn	1.135341	-0.295868	0.598971
Zn2	Zn	1.635341	0.204132	1.098971
Zn3	Zn	1.135232	-0.420067	0.421701
Zn4	Zn	1.635232	0.079933	0.921701
Zn5	Zn	1.011144	-0.295872	0.421765
Zn6	Zn	1.511144	0.204128	0.921765
Zn7	Zn	1.011105	-0.419998	0.598965
Zn8	Zn	1.511105	0.080002	1.098965
O9	O	1.073206	-0.357951	0.510350
O10	O	1.573206	0.142049	1.010350
O11	O	1.239251	-0.312371	0.575432
O12	O	1.739251	0.187629	1.075432
O13	O	1.118742	-0.403623	0.273362
O14	O	1.618742	0.096377	0.773362
O15	O	1.027680	-0.191947	0.445301
O16	O	1.527680	0.308053	0.945301
O17	O	1.239171	-0.403620	0.445192
O18	O	1.739171	0.096380	0.945192
O19	O	1.118928	-0.191944	0.575494
O20	O	1.618928	0.308056	1.075494
O21	O	1.027575	-0.312378	0.273409
O22	O	1.527575	0.187622	0.773409
O23	O	0.907214	-0.312310	0.445295
O24	O	1.407214	0.187690	0.945295
O25	O	1.027615	-0.403501	0.747313
O26	O	1.527615	0.096499	1.247313
O27	O	0.907186	-0.403505	0.575483
O28	O	1.407186	0.096495	1.075483
O29	O	1.118890	-0.312304	0.747318
O30	O	1.618890	0.187696	1.247318
O31	O	1.118705	-0.523983	0.445186
O32	O	1.618705	-0.023983	0.945186
O33	O	1.027509	-0.523931	0.575421
O34	O	1.527509	-0.023931	1.075421
C35	C	0.880254	-0.357901	0.510396
C36	C	1.380254	0.142099	1.010396
C37	C	0.797708	-0.357897	0.510441
C38	C	1.297708	0.142103	1.010441
C39	C	0.598263	-0.407630	0.581069
C40	C	1.098263	0.092370	1.081069
C41	C	0.548874	-0.339913	0.607153
C42	C	1.048874	0.160087	1.107153
C43	C	0.646577	-0.357938	0.510389
C44	C	1.146577	0.142062	1.010389
C45	C	0.548885	-0.425694	0.484303
C46	C	1.048885	0.074306	0.984303
C47	C	0.500592	-0.357984	0.510341
C48	C	1.000592	0.142016	1.010341
C49	C	0.598276	-0.290185	0.536524
C50	C	1.098276	0.209815	1.036524
C51	C	0.598290	-0.376012	0.413629
C52	C	1.098290	0.123988	0.913629
C53	C	0.548924	-0.308248	0.439677
C54	C	1.048924	0.191752	0.939677
C55	C	0.730676	-0.357913	0.510419
C56	C	1.230676	0.142087	1.010419
C57	C	0.416496	-0.358002	0.510310
C58	C	0.916496	0.141998	1.010310
C59	C	1.073111	-0.550904	0.510319
C60	C	1.573111	-0.050904	1.010319
C61	C	1.073139	-0.633449	0.510341
C62	C	1.573139	-0.133449	1.010341
C63	C	1.023625	-0.882274	0.581163
C64	C	1.523625	-0.382274	1.081163
C65	C	1.091344	-0.832816	0.607151
C66	C	1.591344	-0.332816	1.107151
C67	C	1.073293	-0.930570	0.510400
C68	C	1.573293	-0.430570	1.010400
C69	C	1.005502	-0.832946	0.484433
C70	C	1.505502	-0.332946	0.984433
C71	C	1.073214	-0.784585	0.510373
C72	C	1.573214	-0.284585	1.010373
C73	C	1.141048	-0.882199	0.536438
C74	C	1.641048	-0.382199	1.036438
C75	C	1.055161	-0.882333	0.413674
C76	C	1.555161	-0.382333	0.913674
C77	C	1.122927	-0.832898	0.439625
C78	C	1.622927	-0.332898	0.939625
C79	C	1.073338	-1.014668	0.510417
C80	C	1.573338	-0.514668	1.010417
C81	C	1.073177	-0.700488	0.510355
C82	C	1.573177	-0.200488	1.010355
C83	C	1.266911	-0.358003	0.510305
C84	C	1.766911	0.141997	1.010305
C85	C	1.349457	-0.358025	0.510286
C86	C	1.849457	0.141975	1.010286
C87	C	1.073260	-0.357894	0.786856
C88	C	1.573260	0.142106	1.286856
C89	C	1.073284	-0.357870	0.904686
C90	C	1.573284	0.142130	1.404686
C91	C	1.073320	-0.164246	0.510405
C92	C	1.573320	0.335754	1.010405
C93	C	1.073369	-0.081700	0.510429
C94	C	1.573369	0.418300	1.010429
C95	C	1.073194	-0.357955	0.234921
C96	C	1.573194	0.142045	0.734921
C97	C	1.073314	-0.357770	0.117091
C98	C	1.573314	0.142230	0.617091
C99	C	1.015685	-0.414971	1.072247
C100	C	1.515685	0.085029	1.572247
C101	C	1.015836	-0.415254	0.949687
C102	C	1.515836	0.084746	1.449687
C103	C	1.151530	-0.379124	0.949173
C104	C	1.651530	0.120876	1.449173
C105	C	1.151214	-0.379482	1.071771
C106	C	1.651214	0.120518	1.571771
C107	C	1.053375	-0.279194	1.071899
C108	C	1.553375	0.220806	1.571899
C109	C	1.051629	-0.279665	0.949293
C110	C	1.551629	0.220335	1.449293
H111	H	0.619930	-0.449580	0.640908
H112	H	1.119930	0.050420	1.140908
H113	H	0.981708	-0.903952	0.641062
H114	H	1.481708	-0.403952	1.141062
H115	H	1.028718	-0.472859	1.103056
H116	H	1.528718	0.027141	1.603056
H117	H	1.028997	-0.473506	0.920363
H118	H	1.528997	0.026494	1.420363
H119	H	1.164944	-0.811355	0.379772
H120	H	1.664944	-0.311355	0.879772
H121	H	0.527168	-0.324641	0.688961
H122	H	1.027168	0.175359	1.188961
H123	H	1.106651	-0.811067	0.688938
H124	H	1.606651	-0.311067	1.188938
H125	H	0.997312	-0.259823	1.102827
H126	H	1.497312	0.240177	1.602827
H127	H	1.168117	-0.436923	1.100370
H128	H	1.668117	0.063077	1.600370
Br129	Br	1.225160	-0.313011	1.121221
Br130	Br	1.725160	0.186989	1.621221
Br131	Br	1.116488	-0.204873	0.898254
Br132	Br	1.616488	0.295127	1.398254
Br133	Br	0.634278	-0.194683	0.573418
Br134	Br	1.134278	0.305317	1.073418
H135	H	1.039834	-0.904099	0.331911
H136	H	1.539834	-0.404099	0.831911
H137	H	1.198362	-0.903745	0.558484
H138	H	1.698362	-0.403745	1.058484
Br139	Br	0.513040	-0.238164	0.340016
Br140	Br	1.013040	0.261836	0.840016
H141	H	0.620013	-0.391304	0.331845
H142	H	1.120013	0.108696	0.831845
Br143	Br	0.512721	-0.521165	0.447562
Br144	Br	1.012721	-0.021165	0.947562
Br145	Br	0.910006	-0.796879	0.447844
Br146	Br	1.410006	-0.296879	0.947844
Br147	Br	0.919128	-0.393078	0.899549
Br148	Br	1.419128	0.106922	1.399549
Br149	Br	0.918683	-0.393011	1.121397
Br150	Br	1.418683	0.106989	1.621397
Br151	Br	1.225019	-0.311882	0.900598
Br152	Br	1.725019	0.188118	1.400598
H153	H	1.168723	-0.435963	0.918472
H154	H	1.668723	0.064037	1.418472
H155	H	0.994047	-0.263637	0.920218
H156	H	1.494047	0.236363	1.420218
H157	H	1.095350	-0.236577	1.100899
H158	H	1.595350	0.263423	1.600899
