data_functionalizedCrystal
_audit_creation_method	'MofGen! by Chris Wilmer'
_symmetry_space_group_name_H-M	'P1'
_symmetry_Int_Tables_number	1
_symmetry_cell_setting	triclinic
loop_
_symmetry_equiv_pos_as_xyz
  x,y,z
_cell_length_a	17.077404
_cell_length_b	25.639234
_cell_length_c	17.077402
_cell_angle_alpha	90.021263
_cell_angle_beta	90.021402
_cell_angle_gamma	90.020687
loop_
_atom_site_label
_atom_site_type_symbol
_atom_site_fract_x
_atom_site_fract_y
_atom_site_fract_z
Zn1	Zn	-1.200054	-0.295635	0.312617
Zn2	Zn	-0.700054	0.204365	0.812617
Zn3	Zn	-1.199956	-0.208205	0.443878
Zn4	Zn	-0.699956	0.291795	0.943878
Zn5	Zn	-1.068784	-0.208212	0.312624
Zn6	Zn	-0.568784	0.291788	0.812624
Zn7	Zn	-1.068751	-0.295608	0.443838
Zn8	Zn	-0.568751	0.204392	0.943838
O9	O	-1.134386	-0.251915	0.378239
O10	O	-0.634386	0.248085	0.878239
O11	O	-1.309888	-0.284045	0.330043
O12	O	-0.809888	0.215955	0.830043
O13	O	-1.182528	-0.135040	0.426486
O14	O	-0.682528	0.364960	0.926486
O15	O	-1.086252	-0.219823	0.202776
O16	O	-0.586252	0.280177	0.702776
O17	O	-1.309816	-0.219811	0.426480
O18	O	-0.809816	0.280189	0.926480
O19	O	-1.182696	-0.284052	0.202771
O20	O	-0.682696	0.215948	0.702771
O21	O	-1.086157	-0.135046	0.330054
O22	O	-0.586157	0.364954	0.830054
O23	O	-0.958933	-0.219797	0.330015
O24	O	-0.458933	0.280203	0.830015
O25	O	-1.086196	-0.368776	0.426412
O26	O	-0.586196	0.131224	0.926412
O27	O	-0.958908	-0.284006	0.426418
O28	O	-0.458908	0.215994	0.926418
O29	O	-1.182664	-0.368796	0.330005
O30	O	-0.682664	0.131204	0.830005
O31	O	-1.182496	-0.219784	0.553720
O32	O	-0.682496	0.280216	1.053720
O33	O	-1.086100	-0.283999	0.553691
O34	O	-0.586100	0.216001	1.053691
C35	C	-0.930438	-0.251900	0.378214
C36	C	-0.430438	0.248100	0.878214
C37	C	-0.843189	-0.251906	0.378222
C38	C	-0.343189	0.248094	0.878222
C39	C	-0.802237	-0.285403	0.328096
C40	C	-0.302237	0.214597	0.828096
C41	C	-0.720256	-0.285404	0.328100
C42	C	-0.220256	0.214596	0.828100
C43	C	-0.679229	-0.251910	0.378234
C44	C	-0.179229	0.248090	0.878234
C45	C	-0.720187	-0.218409	0.428362
C46	C	-0.220187	0.281591	0.928362
C47	C	-0.802166	-0.218406	0.428354
C48	C	-0.302166	0.281594	0.928354
C49	C	-0.549317	-0.218420	0.428377
C50	C	-0.049317	0.281580	0.928377
C51	C	-0.467332	-0.218424	0.428387
C52	C	0.032668	0.281576	0.928387
C53	C	-0.467407	-0.285418	0.328123
C54	C	0.032593	0.214582	0.828123
C55	C	-0.549386	-0.285415	0.328115
C56	C	-0.049386	0.214585	0.828115
C57	C	-0.590338	-0.251914	0.378244
C58	C	-0.090338	0.248086	0.878244
C59	C	-1.134305	-0.251899	0.582187
C60	C	-0.634305	0.248101	1.082187
C61	C	-1.134343	-0.251910	0.669437
C62	C	-0.634343	0.248090	1.169437
C63	C	-0.339130	-0.251926	0.378261
C64	C	0.160870	0.248074	0.878261
C65	C	-0.426380	-0.251921	0.378261
C66	C	0.073620	0.248079	0.878261
C67	C	-1.134437	-0.388288	0.378204
C68	C	-0.634437	0.111712	0.878204
C69	C	-1.134459	-0.446402	0.378188
C70	C	-0.634459	0.053598	0.878188
C71	C	-1.084300	-0.806773	0.327883
C72	C	-0.584300	-0.306773	0.827883
C73	C	-1.084305	-0.861378	0.327868
C74	C	-0.584305	-0.361378	0.827868
O75	O	-1.041618	-0.889621	0.285183
O76	O	-0.541618	-0.389621	0.785183
N77	N	-1.134485	-0.888684	0.378065
N78	N	-0.634485	-0.388684	0.878065
C79	C	-1.184659	-0.861384	0.428285
C80	C	-0.684659	-0.361384	0.928285
O81	O	-1.227341	-0.889625	0.470981
O82	O	-0.727341	-0.389625	0.970981
C83	C	-1.184650	-0.806781	0.428303
C84	C	-0.684650	-0.306781	0.928303
C85	C	-1.134472	-0.779477	0.378097
C86	C	-0.634472	-0.279477	0.878097
C87	C	-1.034126	-0.779469	0.277682
C88	C	-0.534126	-0.279469	0.777682
C89	C	-1.034123	-0.724869	0.277695
C90	C	-0.534123	-0.224869	0.777695
C91	C	-1.084294	-0.697572	0.327909
C92	C	-0.584294	-0.197572	0.827909
C93	C	-1.134469	-0.724876	0.378110
C94	C	-0.634469	-0.224876	0.878110
C95	C	-1.234819	-0.779481	0.478526
C96	C	-0.734819	-0.279481	0.978526
C97	C	-1.234806	-0.724874	0.478540
C98	C	-0.734806	-0.224874	0.978540
C99	C	-1.184628	-0.697570	0.428334
C100	C	-0.684628	-0.197570	0.928334
C101	C	-1.184638	-0.642979	0.428338
C102	C	-0.684638	-0.142979	0.928338
N103	N	-1.134457	-0.615672	0.378141
N104	N	-0.634457	-0.115672	0.878141
C105	C	-1.084286	-0.642969	0.327927
C106	C	-0.584286	-0.142969	0.827927
C107	C	-1.184673	-0.976055	0.428245
C108	C	-0.684673	-0.476055	0.928245
C109	C	-1.184686	-1.030657	0.428224
C110	C	-0.684686	-0.530657	0.928224
C111	C	-1.084330	-1.030647	0.327808
C112	C	-0.584330	-0.530647	0.827808
C113	C	-1.084322	-0.976044	0.327826
C114	C	-0.584322	-0.476044	0.827826
C115	C	-1.134492	-0.948748	0.378048
C116	C	-0.634492	-0.448748	0.878048
C117	C	-1.084284	-0.528304	0.327958
C118	C	-0.584284	-0.028304	0.827958
C119	C	-1.084287	-0.473698	0.327974
C120	C	-0.584287	0.026302	0.827974
C121	C	-1.184640	-0.473713	0.428392
C122	C	-0.684640	0.026287	0.928392
C123	C	-1.184639	-0.528314	0.428374
C124	C	-0.684639	-0.028314	0.928374
C125	C	-1.134455	-0.555608	0.378155
C126	C	-0.634455	-0.055608	0.878155
O127	O	-1.227300	-0.614701	0.471004
O128	O	-0.727300	-0.114701	0.971004
O129	O	-1.041603	-0.614722	0.285246
O130	O	-0.541603	-0.114722	0.785246
C131	C	-1.134381	-0.116072	0.378218
C132	C	-0.634381	0.383928	0.878218
C133	C	-1.134511	-0.057958	0.378012
C134	C	-0.634511	0.442042	0.878012
C135	C	-1.184586	-0.218511	0.710416
C136	C	-0.684586	0.281489	1.210416
C137	C	-1.184622	-0.218526	0.792397
C138	C	-0.684622	0.281474	1.292397
C139	C	-1.134411	-0.251939	0.833396
C140	C	-0.634411	0.248061	1.333396
C141	C	-1.084165	-0.285343	0.792411
C142	C	-0.584165	0.214657	1.292411
C143	C	-1.084133	-0.285329	0.710432
C144	C	-0.584133	0.214671	1.210432
C145	C	-1.084233	-0.285367	0.963281
C146	C	-0.584233	0.214633	1.463281
C147	C	-1.084264	-0.285380	1.045266
C148	C	-0.584264	0.214620	1.545266
C149	C	-1.184723	-0.218564	1.045246
C150	C	-0.684723	0.281436	1.545246
C151	C	-1.184691	-0.218551	0.963267
C152	C	-0.684691	0.281449	1.463267
C153	C	-1.134444	-0.251954	0.922287
C154	C	-0.634444	0.248046	1.422287
C155	C	-1.134483	-0.251948	1.173495
C156	C	-0.634483	0.248052	1.673495
C157	C	-1.134507	-0.251980	1.086245
C158	C	-0.634507	0.248020	1.586245
H159	H	-0.582789	-0.312691	0.287296
H160	H	-0.082789	0.187309	0.787296
F161	F	-0.980712	-0.695817	0.224262
F162	F	-0.480712	-0.195817	0.724262
F163	F	-1.288204	-0.695828	0.531997
F164	F	-0.788204	-0.195828	1.031997
F165	F	-0.980713	-0.808512	0.224240
F166	F	-0.480713	-0.308512	0.724240
H167	H	-0.835507	-0.191129	0.469171
H168	H	-0.335507	0.308871	0.969171
F169	F	-0.845894	-0.321055	0.274739
F170	F	-0.345894	0.178945	0.774739
F171	F	-1.030659	-0.320879	0.666820
F172	F	-0.530659	0.179121	1.166820
H173	H	-0.433930	-0.191150	0.469211
H174	H	0.066070	0.308850	0.969211
F175	F	-1.238101	-0.182979	0.836006
F176	F	-0.738101	0.317021	1.336006
H177	H	-0.434061	-0.312694	0.287304
H178	H	0.065939	0.187306	0.787304
F179	F	-0.592899	-0.182767	0.481734
F180	F	-0.092899	0.317233	0.981734
H181	H	-1.225638	-0.191368	1.078615
H182	H	-0.725638	0.308632	1.578615
H183	H	-1.043392	-0.312597	1.078646
H184	H	-0.543392	0.187403	1.578646
F185	F	-0.676676	-0.321058	0.274750
F186	F	-0.176676	0.178942	0.774750
H187	H	-1.225471	-0.191300	0.677040
H188	H	-0.725471	0.308700	1.177040
F189	F	-1.030915	-0.946990	0.274392
F190	F	-0.530915	-0.446990	0.774392
F191	F	-1.238131	-0.182989	0.919633
F192	F	-0.738131	0.317011	1.419633
H193	H	-1.043285	-0.312550	0.825800
H194	H	-0.543285	0.187450	1.325800
H195	H	-0.686776	-0.191135	0.469178
H196	H	-0.186776	0.308865	0.969178
F197	F	-1.030880	-0.444642	0.274534
F198	F	-0.530880	0.055358	0.774534
H199	H	-1.043419	-0.550520	0.287064
H200	H	-0.543419	-0.050520	0.787064
H201	H	-1.043477	-1.052882	0.286921
H202	H	-0.543477	-0.552882	0.786921
F203	F	-1.030756	-0.320920	0.919670
F204	F	-0.530756	0.179080	1.419670
H205	H	-1.225555	-1.052883	0.469098
H206	H	-0.725555	-0.552883	0.969098
H207	H	-1.225537	-0.953834	0.469138
H208	H	-0.725537	-0.453834	0.969138
H209	H	-1.275679	-0.801703	0.519410
H210	H	-0.775679	-0.301703	1.019410
H211	H	-1.225507	-0.550546	0.469247
H212	H	-0.725507	-0.050546	0.969247
H213	H	-1.225490	-0.451479	0.469273
H214	H	-0.725490	0.048521	0.969273
