data_functionalizedCrystal
_audit_creation_method	'MofGen! by Chris Wilmer'
_symmetry_space_group_name_H-M	'P1'
_symmetry_Int_Tables_number	1
_symmetry_cell_setting	triclinic
loop_
_symmetry_equiv_pos_as_xyz
  x,y,z
_cell_length_a	16.109301
_cell_length_b	19.288864
_cell_length_c	17.766277
_cell_angle_alpha	90.023209
_cell_angle_beta	89.992214
_cell_angle_gamma	96.701137
loop_
_atom_site_label
_atom_site_type_symbol
_atom_site_fract_x
_atom_site_fract_y
_atom_site_fract_z
O1	O	0.103716	-0.921601	-0.062838
O2	O	0.117707	-0.719373	-0.062787
O3	O	-0.010338	-0.826042	-0.062806
O4	O	0.231761	-0.814932	-0.062819
O5	O	-0.010345	-0.826024	0.062382
O6	O	0.117701	-0.719355	0.062402
O7	O	0.103710	-0.921582	0.062351
Cu8	Cu	0.110704	-0.820467	0.073807
Cu9	Cu	0.110712	-0.820489	-0.074243
O10	O	0.231755	-0.814913	0.062370
C11	C	0.117254	-0.693487	-0.000186
C12	C	0.115902	-0.616380	-0.000166
C13	C	-0.041315	-0.825583	-0.000211
C14	C	-0.133606	-0.824234	-0.000210
N15	N	0.110699	-0.820456	0.177937
C16	C	-0.356084	-0.884391	-0.000237
C17	C	-0.442800	-0.883118	-0.000243
C18	C	-0.422493	-0.756559	-0.000208
C19	C	-0.335778	-0.757833	-0.000208
C20	C	-0.302577	-0.821751	-0.000218
C21	C	-0.476007	-0.819204	-0.000225
C22	C	-0.570028	-0.817823	-0.000231
C23	C	-0.208549	-0.823133	-0.000213
C24	C	0.262732	-0.815372	-0.000227
C25	C	0.355022	-0.816722	-0.000233
C26	C	0.104163	-0.947469	-0.000252
C27	C	0.105514	-1.024576	-0.000277
C28	C	0.191034	-0.571863	-0.000182
C29	C	0.189764	-0.499413	-0.000190
C30	C	0.113359	-0.471483	-0.000198
C31	C	0.038218	-0.516009	-0.000178
C32	C	0.039489	-0.588458	-0.000162
C33	C	0.053298	-0.363084	-0.044079
C34	C	0.052029	-0.290636	-0.044100
C35	C	0.109433	-0.248028	-0.000243
C36	C	0.168120	-0.277874	0.043624
C37	C	0.169391	-0.350323	0.043640
C38	C	0.111971	-0.392925	-0.000214
C39	C	0.183193	-0.124952	-0.000267
C40	C	0.181920	-0.052501	-0.000270
C41	C	0.030372	-0.069099	-0.000266
C42	C	0.031647	-0.141548	-0.000254
C43	C	0.108060	-0.169470	-0.000259
N44	N	0.110711	-0.820505	-0.178373
C45	C	0.054028	-0.867704	0.217315
C46	C	0.054024	-0.867708	0.296117
C47	C	0.110705	-0.820471	0.335538
C48	C	0.167380	-0.773214	0.296150
C49	C	0.167377	-0.773206	0.217350
C50	C	0.186459	-0.811353	0.460373
C51	C	0.186463	-0.811365	0.539172
C52	C	0.110715	-0.820489	0.578584
C53	C	0.034960	-0.829616	0.539188
C54	C	0.034956	-0.829609	0.460387
C55	C	0.110715	-0.820473	0.420983
C56	C	0.054035	-0.867745	0.703408
C57	C	0.054030	-0.867744	0.782212
C58	C	0.167394	-0.773252	0.782243
C59	C	0.167392	-0.773250	0.703441
C60	C	0.110713	-0.820500	0.664028
H61	H	-0.486363	-0.934126	-0.000260
H62	H	0.213542	-0.734788	0.814338
O63	O	0.268165	-0.801535	0.581663
H64	H	0.320837	-0.795180	0.541021
O65	O	-0.320268	-0.953328	-0.000264
H66	H	-0.372048	-0.996671	-0.000288
O67	O	-0.458302	-0.687620	-0.000180
H68	H	-0.527590	-0.697256	-0.000173
H69	H	-0.292210	-0.706821	-0.000194
H70	H	-0.029534	-0.177795	-0.000246
O71	O	0.273446	-0.601981	-0.000165
H72	H	0.325477	-0.558849	-0.000166
H73	H	0.007882	-0.906216	0.671317
H74	H	0.250947	-0.463160	-0.000201
O75	O	-0.007100	-0.918674	0.338603
H76	H	0.027810	-0.952414	0.374481
O77	O	0.232652	-0.382521	0.090981
H78	H	0.272346	-0.340728	0.121490
O79	O	0.268163	-0.801516	0.417866
H80	H	0.320839	-0.795184	0.458497
O81	O	0.230037	-0.231931	0.090937
H82	H	0.219289	-0.176539	0.083567
H83	H	0.245413	-0.147687	-0.000259
H84	H	0.243104	-0.016255	-0.000279
O85	O	-0.052041	-0.038987	-0.000274
H86	H	-0.040305	0.018871	-0.000291
H87	H	0.004247	-0.266341	-0.079822
H88	H	-0.023992	-0.493264	-0.000194
O89	O	-0.008615	-0.409039	-0.091388
H90	H	-0.049625	-0.376115	-0.121904
O91	O	-0.041552	-0.636475	-0.000149
H92	H	-0.044600	-0.669848	0.050885
O93	O	-0.007111	-0.918655	0.174804
H94	H	-0.046526	-0.951506	0.215431
H95	H	-0.026726	-0.837038	0.428314
O96	O	-0.046750	-0.839453	0.581682
H97	H	-0.034025	-0.837915	0.643095
O98	O	-0.007087	-0.918714	0.824690
H99	H	-0.046488	-0.951573	0.784042
O100	O	0.228525	-0.722297	0.660960
H101	H	0.267945	-0.689453	0.701608
O102	O	0.228522	-0.722266	0.338660
H103	H	0.219011	-0.730214	0.400072
O104	O	0.228509	-0.722249	0.174869
H105	H	0.267927	-0.689403	0.215516
