data_functionalizedCrystal
_audit_creation_method	'MofGen! by Chris Wilmer'
_symmetry_space_group_name_H-M	'P1'
_symmetry_Int_Tables_number	1
_symmetry_cell_setting	triclinic
loop_
_symmetry_equiv_pos_as_xyz
  x,y,z
_cell_length_a	16.109301
_cell_length_b	14.853567
_cell_length_c	14.586319
_cell_angle_alpha	90.000002
_cell_angle_beta	89.999213
_cell_angle_gamma	83.548205
loop_
_atom_site_label
_atom_site_type_symbol
_atom_site_fract_x
_atom_site_fract_y
_atom_site_fract_z
O1	O	1.103294	0.115881	-0.076175
O2	O	0.861252	0.130302	-0.076188
O3	O	0.988738	-0.008149	-0.076184
O4	O	0.975807	0.254332	-0.076179
O5	O	0.988729	-0.008151	0.076297
O6	O	0.861243	0.130300	0.076293
O7	O	1.103285	0.115879	0.076306
Cu8	Cu	0.982263	0.123089	0.090222
Cu9	Cu	0.982274	0.123091	-0.090104
O10	O	0.975799	0.254330	0.076302
C11	C	0.830272	0.129717	0.000050
C12	C	0.737974	0.127965	0.000045
C13	C	0.515811	0.206047	0.000057
C14	C	0.429089	0.204395	0.000063
C15	C	0.448732	0.040127	0.000056
C16	C	0.535453	0.041781	0.000057
C17	C	0.568990	0.124743	0.000052
C18	C	0.395546	0.121437	0.000058
C19	C	0.301518	0.119645	0.000064
C20	C	0.663025	0.126536	0.000048
C21	C	0.988148	-0.041738	0.000054
C22	C	0.986392	-0.141819	0.000046
C23	C	0.903241	-0.554215	0.000059
C24	C	1.054697	-0.575746	0.000067
C25	C	1.056348	-0.481715	0.000062
C26	C	0.981444	-0.423930	0.000056
C27	C	0.904889	-0.460175	0.000056
C28	C	1.132901	-0.445463	0.000071
C29	C	1.134555	-0.351426	0.000067
C30	C	1.059650	-0.293639	0.000055
C31	C	0.983093	-0.329890	0.000054
C32	C	0.908189	-0.272104	0.000048
C33	C	0.831630	-0.308353	0.000040
C34	C	0.829984	-0.402388	0.000044
C35	C	1.061296	-0.199604	0.000051
C36	C	0.909837	-0.178064	0.000046
C37	C	1.134265	0.116464	0.000066
C38	C	1.226563	0.118215	0.000065
C39	C	0.976389	0.287918	0.000062
C40	C	0.978145	0.387999	0.000064
N41	N	0.982262	0.123087	0.217054
N42	N	0.982281	0.123087	-0.216936
C43	C	1.038731	0.061801	0.452062
C44	C	1.038734	0.061799	0.548044
C45	C	0.925806	0.184375	0.548049
C46	C	0.925800	0.184372	0.452070
C47	C	0.982268	0.123086	0.404079
C48	C	0.982276	0.123087	0.596039
C49	C	0.982278	0.123085	0.700107
C50	C	0.982265	0.123087	0.300005
H51	H	0.421415	-0.027418	0.000065
H52	H	0.767654	-0.431911	0.000039
O53	O	0.870869	0.243787	0.405410
C54	C	0.757385	0.262939	0.297004
C55	C	0.819531	0.195560	0.349806
H56	H	0.715875	0.223974	0.252022
H57	H	0.716971	0.306737	0.347746
H58	H	0.793349	0.307998	0.252105
H59	H	0.783635	0.150442	0.394707
H60	H	0.859945	0.151825	0.299015
H61	H	0.385793	0.270600	0.000068
H62	H	0.578754	-0.024431	0.000056
O63	O	1.093445	0.002192	0.405363
C64	C	1.110932	-0.121030	0.297114
C65	C	1.048889	-0.053532	0.349910
H66	H	1.074933	-0.166114	0.252282
H67	H	1.152524	-0.082201	0.252091
H68	H	1.151278	-0.164790	0.347941
H69	H	1.008488	-0.009756	0.299148
H70	H	1.007355	-0.092417	0.394946
O71	O	1.093665	0.002234	0.594512
C72	C	1.205641	-0.119378	0.584371
C73	C	1.143489	-0.051952	0.531633
H74	H	1.245929	-0.163218	0.533556
H75	H	1.247276	-0.080488	0.629279
H76	H	1.169684	-0.164389	0.629333
H77	H	1.179378	-0.006924	0.486621
H78	H	1.101855	-0.090898	0.486783
O79	O	0.870993	0.244032	0.594566
C80	C	0.822484	0.400781	0.623967
C81	C	0.884594	0.333316	0.571218
H82	H	0.833470	0.472981	0.605125
H83	H	0.755865	0.389084	0.605082
H84	H	0.832172	0.390214	0.700805
H85	H	0.874982	0.343842	0.494368
H86	H	0.951191	0.345030	0.590179
H87	H	0.770643	-0.261292	0.000042
O88	O	0.548252	0.286712	0.000101
C89	C	0.519611	0.449468	0.000060
C90	C	0.482765	0.358177	0.000028
H91	H	0.466683	0.507271	-0.000018
H92	H	0.559690	0.454406	0.063889
H93	H	0.559749	0.454306	-0.063737
H94	H	0.442589	0.353277	0.063783
H95	H	0.442734	0.353277	-0.063842
H96	H	0.848840	-0.131020	0.000037
H97	H	1.196894	-0.321921	0.000072
O98	O	0.828927	-0.589529	-0.000070
C99	C	0.739146	-0.683149	-0.079103
C100	C	0.823343	-0.643233	-0.079061
H101	H	0.734596	-0.726562	-0.142970
H102	H	0.734569	-0.726696	-0.015335
H103	H	0.685910	-0.625679	-0.079061
H104	H	0.876627	-0.700645	-0.079135
H105	H	0.827847	-0.599662	-0.142823
O106	O	1.127431	-0.631914	-0.000087
C107	C	1.213444	-0.750630	-0.079042
C108	C	1.131048	-0.687053	-0.078991
H109	H	1.216387	-0.795240	-0.142818
H110	H	1.268476	-0.708618	-0.079102
H111	H	1.216442	-0.795146	-0.015196
H112	H	1.127968	-0.642524	-0.142826
H113	H	1.076054	-0.729120	-0.078883
O114	O	1.205581	-0.501721	0.000043
C115	C	1.270157	-0.656135	0.000112
C116	C	1.187783	-0.592520	0.000121
H117	H	1.255797	-0.729559	0.000195
H118	H	1.307847	-0.643029	-0.063709
H119	H	1.307817	-0.642902	0.063917
H120	H	1.150057	-0.605715	-0.063640
H121	H	1.150157	-0.605639	0.063985
O122	O	1.135727	-0.164541	0.000015
C123	C	1.285779	-0.195826	0.000082
C124	C	1.201540	-0.235653	0.000106
H125	H	1.339011	-0.253301	0.000175
H126	H	1.290399	-0.152380	-0.063750
H127	H	1.290288	-0.152301	0.063876
H128	H	1.196975	-0.279219	-0.063644
H129	H	1.196956	-0.279048	0.063981
