data_functionalizedCrystal
_audit_creation_method	'MofGen! by Chris Wilmer'
_symmetry_space_group_name_H-M	'P1'
_symmetry_Int_Tables_number	1
_symmetry_cell_setting	triclinic
loop_
_symmetry_equiv_pos_as_xyz
  x,y,z
_cell_length_a	17.077402
_cell_length_b	17.077404
_cell_length_c	17.077396
_cell_angle_alpha	90.021457
_cell_angle_beta	89.970216
_cell_angle_gamma	89.978013
loop_
_atom_site_label
_atom_site_type_symbol
_atom_site_fract_x
_atom_site_fract_y
_atom_site_fract_z
Zn1	Zn	-0.312527	-1.200055	-0.443877
Zn2	Zn	0.187473	-0.700055	0.056123
Zn3	Zn	-0.443802	-1.199962	-0.312608
Zn4	Zn	0.056198	-0.699962	0.187392
Zn5	Zn	-0.312552	-1.068786	-0.312620
Zn6	Zn	0.187448	-0.568786	0.187380
Zn7	Zn	-0.443753	-1.068754	-0.443827
Zn8	Zn	0.056247	-0.568754	0.056173
O9	O	-0.378158	-1.134389	-0.378233
O10	O	0.121842	-0.634389	0.121767
O11	O	-0.329951	-1.309889	-0.426479
O12	O	0.170049	-0.809889	0.073521
O13	O	-0.426422	-1.182536	-0.202762
O14	O	0.073578	-0.682536	0.297238
O15	O	-0.202702	-1.086252	-0.330058
O16	O	0.297298	-0.586252	0.169942
O17	O	-0.426398	-1.309821	-0.330036
O18	O	0.073602	-0.809821	0.169964
O19	O	-0.202683	-1.182694	-0.426491
O20	O	0.297317	-0.682694	0.073509
O21	O	-0.329993	-1.086162	-0.202771
O22	O	0.170007	-0.586162	0.297229
O23	O	-0.329946	-0.958935	-0.330009
O24	O	0.170054	-0.458935	0.169991
O25	O	-0.426314	-1.086197	-0.553680
O26	O	0.073686	-0.586197	-0.053680
O27	O	-0.426338	-0.958912	-0.426406
O28	O	0.073662	-0.458912	0.073594
O29	O	-0.329903	-1.182663	-0.553717
O30	O	0.170097	-0.682663	-0.053717
O31	O	-0.553642	-1.182505	-0.329988
O32	O	-0.053642	-0.682505	0.170012
O33	O	-0.553606	-1.086107	-0.426394
O34	O	-0.053606	-0.586107	0.073606
C35	C	-0.378140	-0.930441	-0.378204
C36	C	0.121860	-0.430441	0.121796
C37	C	-0.378151	-0.843192	-0.378210
C38	C	0.121849	-0.343192	0.121790
C39	C	-0.582106	-1.134314	-0.378201
C40	C	-0.082106	-0.634314	0.121799
C41	C	-0.669356	-1.134353	-0.378214
C42	C	-0.169356	-0.634353	0.121786
C43	C	-0.428418	-0.802210	-0.428322
C44	C	0.071582	-0.302210	0.071678
C45	C	-0.428418	-0.720229	-0.428332
C46	C	0.071582	-0.220229	0.071668
C47	C	-0.378155	-0.679232	-0.378225
C48	C	0.121845	-0.179232	0.121775
C49	C	-0.327883	-0.720220	-0.328111
C50	C	0.172117	-0.220220	0.171889
C51	C	-0.327879	-0.802199	-0.328106
C52	C	0.172121	-0.302199	0.171894
C53	C	-0.327895	-0.549350	-0.328124
C54	C	0.172105	-0.049350	0.171876
C55	C	-0.327899	-0.467365	-0.328128
C56	C	0.172101	0.032635	0.171872
C57	C	-0.428433	-0.467380	-0.428350
C58	C	0.071567	0.032620	0.071650
C59	C	-0.428430	-0.549359	-0.428345
C60	C	0.071570	-0.049359	0.071655
C61	C	-0.378159	-0.590341	-0.378230
C62	C	0.121841	-0.090341	0.121770
C63	C	-0.710339	-1.184598	-0.328069
C64	C	-0.210339	-0.684598	0.171931
C65	C	-0.792319	-1.184637	-0.328089
C66	C	-0.292319	-0.684637	0.171911
C67	C	-0.833315	-1.134425	-0.378251
C68	C	-0.333315	-0.634425	0.121749
C69	C	-0.792327	-1.084178	-0.428401
C70	C	-0.292327	-0.584178	0.071599
C71	C	-0.710348	-1.084144	-0.428385
C72	C	-0.210348	-0.584144	0.071615
C73	C	-0.963197	-1.084250	-0.428431
C74	C	-0.463197	-0.584250	0.071569
C75	C	-1.045181	-1.084283	-0.428447
C76	C	-0.545181	-0.584283	0.071553
C77	C	-1.045168	-1.184743	-0.328136
C78	C	-0.545168	-0.684743	0.171864
C79	C	-0.963189	-1.184709	-0.328119
C80	C	-0.463189	-0.684709	0.171881
C81	C	-0.922206	-1.134461	-0.378269
C82	C	-0.422206	-0.634461	0.121731
C83	C	-0.173414	-1.134487	-0.378281
C84	C	0.326586	-0.634487	0.121719
C85	C	-0.086164	-1.134528	-0.378302
C86	C	0.413836	-0.634528	0.121698
C87	C	-0.378100	-1.134437	-0.582977
C88	C	0.121900	-0.634437	-0.082977
C89	C	-0.378076	-1.134457	-0.670227
C90	C	0.121924	-0.634457	-0.170227
C91	C	-0.378172	-0.339134	-0.378253
C92	C	0.121828	0.160866	0.121747
C93	C	-0.378166	-0.426383	-0.378240
C94	C	0.121834	0.073617	0.121760
C95	C	-0.327870	-1.184689	-0.711237
C96	C	0.172130	-0.684689	-0.211237
C97	C	-0.327844	-1.184698	-0.793218
C98	C	0.172156	-0.684698	-0.293218
C99	C	-0.378028	-1.134479	-0.834186
C100	C	0.121972	-0.634479	-0.334186
C101	C	-0.428236	-1.084242	-0.793170
C102	C	0.071764	-0.584242	-0.293170
C103	C	-0.428257	-1.084229	-0.711191
C104	C	0.071743	-0.584229	-0.211191
C105	C	-0.428188	-1.084274	-0.964040
C106	C	0.071812	-0.584274	-0.464040
C107	C	-0.428168	-1.084288	-1.046025
C108	C	0.071832	-0.584288	-0.546025
C109	C	-0.327776	-1.184742	-1.046067
C110	C	0.172224	-0.684742	-0.546067
C111	C	-0.327797	-1.184730	-0.964088
C112	C	0.172203	-0.684730	-0.464088
C113	C	-0.378006	-1.134493	-0.923077
C114	C	0.121994	-0.634493	-0.423077
C115	C	-0.378159	-1.134387	-0.174285
C116	C	0.121841	-0.634387	0.325715
C117	C	-0.377963	-1.134519	-0.087036
C118	C	0.122037	-0.634519	0.412964
H119	H	-0.469350	-0.835584	-0.469123
H120	H	0.030650	-0.335584	0.030877
Cl121	Cl	-0.658826	-1.020978	-0.491429
Cl122	Cl	-0.158826	-0.520978	0.008571
Cl123	Cl	-0.264713	-1.247867	-0.912586
Cl124	Cl	0.235287	-0.747867	-0.412586
H125	H	-0.676965	-1.225483	-0.287219
H126	H	-0.176965	-0.725483	0.212781
H127	H	-0.286943	-0.835565	-0.287304
H128	H	0.213057	-0.335565	0.212696
H129	H	-0.825712	-1.043298	-0.469247
H130	H	-0.325712	-0.543298	0.030753
Cl131	Cl	-0.264714	-0.415827	-0.265132
Cl132	Cl	0.235286	0.084173	0.234868
H133	H	-0.469351	-0.686866	-0.469138
H134	H	0.030649	-0.186866	0.030862
Cl135	Cl	-0.843837	-1.247808	-0.265050
Cl136	Cl	-0.343837	-0.747808	0.234950
Cl137	Cl	-0.264695	-0.600869	-0.265121
Cl138	Cl	0.235305	-0.100869	0.234879
Cl139	Cl	-0.264689	-0.668680	-0.265125
Cl140	Cl	0.235311	-0.168680	0.234875
H141	H	-0.469363	-0.582737	-0.469142
H142	H	0.030637	-0.082737	0.030858
H143	H	-0.469062	-1.043354	-0.930652
H144	H	0.030938	-0.543354	-0.430652
Cl145	Cl	-0.491249	-1.021146	-1.097527
Cl146	Cl	0.008751	-0.521146	-0.597527
Cl147	Cl	-0.911652	-1.247834	-0.265058
Cl148	Cl	-0.411652	-0.747834	0.234942
Cl149	Cl	-1.096689	-1.247906	-0.265083
Cl150	Cl	-0.596689	-0.747906	0.234917
H151	H	-0.287007	-1.225585	-0.677887
H152	H	0.212993	-0.725585	-0.177887
Cl153	Cl	-0.491620	-0.415861	-0.491364
Cl154	Cl	0.008380	0.084139	0.008636
Cl155	Cl	-1.096718	-1.021150	-0.491499
Cl156	Cl	-0.596718	-0.521150	0.008501
H157	H	-0.929831	-1.043335	-0.469271
H158	H	-0.429831	-0.543335	0.030729
H159	H	-0.286964	-1.225603	-0.826605
H160	H	0.213036	-0.725603	-0.326605
H161	H	-0.286892	-1.225645	-1.079462
H162	H	0.213108	-0.725645	-0.579462
H163	H	-0.469093	-1.043350	-0.826533
H164	H	0.030907	-0.543350	-0.326533
H165	H	-0.469132	-1.043318	-0.677801
H166	H	0.030868	-0.543318	-0.177801
