data_functionalizedCrystal
_audit_creation_method	'MofGen! by Chris Wilmer'
_symmetry_space_group_name_H-M	'P1'
_symmetry_Int_Tables_number	1
_symmetry_cell_setting	triclinic
loop_
_symmetry_equiv_pos_as_xyz
  x,y,z
_cell_length_a	10.268362
_cell_length_b	10.654550
_cell_length_c	10.654550
_cell_angle_alpha	95.515069
_cell_angle_beta	89.999325
_cell_angle_gamma	90.001852
loop_
_atom_site_label
_atom_site_type_symbol
_atom_site_fract_x
_atom_site_fract_y
_atom_site_fract_z
O1	O	-0.108203	-1.667843	0.176392
O2	O	0.391797	-1.167843	0.676392
O3	O	-0.108227	-1.302365	0.193198
O4	O	0.391773	-0.802365	0.693198
O5	O	-0.108206	-1.493507	0.002056
O6	O	0.391794	-0.993507	0.502056
O7	O	-0.108223	-1.476701	0.367534
O8	O	0.391777	-0.976701	0.867534
O9	O	0.108395	-1.493486	0.002064
O10	O	0.608395	-0.993486	0.502064
O11	O	0.108374	-1.302344	0.193206
O12	O	0.608374	-0.802344	0.693206
O13	O	0.108398	-1.667823	0.176400
O14	O	0.608398	-1.167823	0.676400
Cu15	Cu	0.128163	-1.485082	0.184804
Cu16	Cu	0.628163	-0.985082	0.684804
Cu17	Cu	-0.127992	-1.485106	0.184794
Cu18	Cu	0.372008	-0.985106	0.684794
O19	O	0.108377	-1.476680	0.367543
O20	O	0.608377	-0.976680	0.867543
C21	C	0.000071	-1.255556	0.191968
C22	C	0.500071	-0.755556	0.691968
C23	C	0.000062	-1.116113	0.188276
C24	C	0.500062	-0.616113	0.688276
C25	C	0.000094	-1.492263	-0.044738
C26	C	0.500094	-0.992263	0.455262
C27	C	0.000091	-1.488571	-0.184181
C28	C	0.500091	-0.988571	0.315819
N29	N	0.308329	-1.485074	0.184810
N30	N	0.808329	-0.985074	0.684810
C31	C	0.426172	-1.485082	0.184812
C32	C	0.926172	-0.985082	0.684812
C33	C	0.574010	-1.485096	0.184802
C34	C	1.074010	-0.985096	0.684802
N35	N	0.691842	-1.485115	0.184787
N36	N	1.191842	-0.985115	0.684787
C37	C	0.000098	-1.714631	0.177630
C38	C	0.500098	-1.214631	0.677630
C39	C	0.000098	-1.854074	0.181322
C40	C	0.500098	-1.354074	0.681322
C41	C	0.000060	-1.036628	0.300818
C42	C	0.500060	-0.536628	0.800818
C43	C	0.000083	-0.905607	0.297341
C44	C	0.500083	-0.405607	0.797341
C45	C	0.000104	-0.933570	0.068772
C46	C	0.500104	-0.433570	0.568772
C47	C	0.000090	-1.064588	0.072250
C48	C	0.500090	-0.564588	0.572250
C49	C	0.000098	-1.601112	-0.263667
C50	C	0.500098	-1.101112	0.236333
C51	C	0.000082	-1.597636	-0.394688
C52	C	0.500082	-1.097636	0.105312
C53	C	0.000058	-1.369066	-0.366725
C54	C	0.500058	-0.869066	0.133275
C55	C	0.000065	-1.372544	-0.235706
C56	C	0.500065	-0.872544	0.264294
C57	C	0.000075	-1.477925	0.414336
C58	C	0.500075	-0.977925	0.914336
C59	C	0.000069	-1.481616	0.553779
C60	C	0.500069	-0.981616	1.053779
H61	H	0.000047	-1.078574	0.395294
H62	H	0.500047	-0.578574	0.895294
H63	H	0.000117	-1.695588	-0.221720
H64	H	0.500117	-1.195588	0.278280
H65	H	0.000084	-0.840894	0.388984
H66	H	0.500084	-0.340894	0.888984
O67	O	0.000151	-1.707077	-0.471720
O68	O	0.500151	-1.207077	0.028280
C69	C	0.000104	-1.934153	-0.485620
C70	C	0.500104	-1.434153	0.014380
C71	C	0.000060	-1.810301	-0.398238
C72	C	0.500060	-1.310301	0.101762
H73	H	0.000003	-2.017642	-0.426245
H74	H	0.500003	-1.517642	0.073755
H75	H	0.090767	-1.938314	-0.547642
H76	H	0.590767	-1.438314	-0.047642
H77	H	-0.090527	-1.938185	-0.547676
H78	H	0.409473	-1.438185	-0.047676
H79	H	0.090629	-1.806187	-0.336103
H80	H	0.590629	-1.306187	0.163897
H81	H	-0.090663	-1.806191	-0.336301
H82	H	0.409337	-1.306191	0.163699
H83	H	0.000055	-1.280893	-0.170985
H84	H	0.500055	-0.780893	0.329015
H85	H	0.000135	-0.891602	-0.025693
H86	H	0.500135	-0.391602	0.474307
O87	O	0.000032	-1.141630	-0.037198
O88	O	0.500032	-0.641630	0.462802
C89	C	0.000134	-1.155550	-0.264275
C90	C	0.500134	-0.655550	0.235725
C91	C	0.000163	-1.068158	-0.140430
C92	C	0.500163	-0.568158	0.359570
H93	H	0.000267	-1.096184	-0.347770
H94	H	0.500267	-0.596184	0.152230
H95	H	-0.090538	-1.217562	-0.268453
H96	H	0.409462	-0.717562	0.231547
H97	H	0.090756	-1.217617	-0.268279
H98	H	0.590756	-0.717617	0.231721
H99	H	-0.090398	-1.006012	-0.136344
H100	H	0.409602	-0.506012	0.363656
H101	H	0.090895	-1.006232	-0.136304
H102	H	0.590895	-0.506232	0.363696
H103	H	0.000038	-1.274601	-0.408693
H104	H	0.500038	-0.774601	0.091307
