data_functionalizedCrystal
_audit_creation_method	'MofGen! by Chris Wilmer'
_symmetry_space_group_name_H-M	'P1'
_symmetry_Int_Tables_number	1
_symmetry_cell_setting	triclinic
loop_
_symmetry_equiv_pos_as_xyz
  x,y,z
_cell_length_a	15.297475
_cell_length_b	12.645330
_cell_length_c	15.296720
_cell_angle_alpha	99.649341
_cell_angle_beta	91.617114
_cell_angle_gamma	80.321044
loop_
_atom_site_label
_atom_site_type_symbol
_atom_site_fract_x
_atom_site_fract_y
_atom_site_fract_z
Zn1	Zn	1.253448	-0.825067	-0.726648
Zn2	Zn	1.278720	-0.977718	-0.580172
Zn3	Zn	1.132323	-0.765511	-0.554885
Zn4	Zn	1.106946	-0.967297	-0.701300
O5	O	1.192859	-0.883898	-0.640751
O6	O	1.379380	-0.874601	-0.728408
O7	O	1.280497	-0.929005	-0.454242
O8	O	1.148435	-0.625078	-0.577695
O9	O	1.397947	-0.986754	-0.620794
O10	O	1.237425	-0.668833	-0.703888
O11	O	1.172939	-0.773098	-0.435663
O12	O	1.006377	-0.762993	-0.553116
O13	O	1.105183	-0.968993	-0.827238
O14	O	0.987732	-0.911244	-0.660687
O15	O	1.212818	-0.864497	-0.845861
O16	O	1.255889	-1.124669	-0.596215
O17	O	1.129687	-1.117013	-0.685207
C18	C	0.965271	-0.829526	-0.601408
C19	C	0.867904	-0.806295	-0.584597
C20	C	0.554772	-1.049945	-0.760902
C21	C	0.646253	-1.071780	-0.776693
C22	C	0.701670	-1.005410	-0.728671
C23	C	0.665597	-0.917203	-0.664853
C24	C	0.574108	-0.895371	-0.649055
C25	C	0.721006	-0.850836	-0.616824
C26	C	0.684933	-0.762629	-0.553007
C27	C	0.593452	-0.740801	-0.537212
C28	C	0.538035	-0.807170	-0.585234
C29	C	0.812496	-0.872668	-0.632623
C30	C	0.831831	-0.718094	-0.520776
C31	C	0.740350	-0.696259	-0.504984
C32	C	1.192797	-1.159311	-0.640728
C33	C	1.192846	-1.277157	-0.640761
C34	C	1.113695	-1.440051	-0.697003
C35	C	1.113388	-1.317372	-0.696725
C36	C	1.183843	-1.300270	-0.544135
C37	C	1.183360	-1.422840	-0.544476
C38	C	1.281541	-1.470384	-0.680468
C39	C	1.280623	-1.347981	-0.682388
C40	C	1.421336	-0.938483	-0.680249
C41	C	1.518699	-0.961744	-0.697081
C42	C	1.153351	-0.922226	-0.869221
C43	C	1.136514	-0.938559	-0.966581
C44	C	1.192942	-0.607419	-0.640798
C45	C	1.192977	-0.489600	-0.640818
C46	C	1.313223	-0.766986	-1.279808
C47	C	1.329047	-0.751644	-1.188334
C48	C	1.280915	-0.798371	-1.132891
C49	C	1.216957	-0.860444	-1.168931
C50	C	1.201136	-0.875795	-1.260415
C51	C	1.168828	-0.907179	-1.113499
C52	C	1.104870	-0.969252	-1.149538
C53	C	1.089052	-0.984600	-1.241013
C54	C	1.137183	-0.937873	-1.296456
C55	C	1.184649	-0.891828	-1.022015
C56	C	1.072562	-1.000637	-1.002622
C57	C	1.056738	-1.015979	-1.094096
C58	C	1.232264	-0.845655	-0.413179
C59	C	1.249270	-0.829064	-0.315849
H60	H	1.117169	-1.302455	-0.767873
H61	H	1.236723	-0.841287	-0.992680
H62	H	1.352410	-0.728955	-1.324958
N63	N	0.556587	-0.650715	-0.472020
N64	N	0.515179	-0.666350	-0.407335
H65	H	0.489141	-0.602728	-0.361293
N66	N	1.118259	-1.496011	-0.786526
N67	N	1.179989	-1.573072	-0.809966
H68	H	1.183230	-1.612579	-0.873201
N69	N	0.703511	-0.606153	-0.439798
N70	N	0.712715	-0.511785	-0.447514
H71	H	0.686698	-0.448145	-0.401477
N72	N	1.023388	-1.048350	-0.945985
N73	N	0.976410	-0.989146	-0.885299
H74	H	0.941684	-1.022840	-0.845294
H75	H	1.292878	-1.517792	-0.750574
H76	H	0.776158	-1.023193	-0.741533
H77	H	0.675618	-1.143600	-0.828652
H78	H	1.047408	-1.269102	-0.669194
N79	N	0.849339	-0.962773	-0.697797
N80	N	0.840133	-1.057140	-0.690076
H81	H	0.866153	-1.120783	-0.736108
N82	N	1.023723	-1.048018	-1.277808
N83	N	0.944663	-1.019972	-1.253617
H84	H	0.898525	-1.064765	-1.279599
H85	H	1.124303	-0.950362	-1.370942
N86	N	1.031423	-1.455116	-0.662809
N87	N	1.030925	-1.502187	-0.597240
H88	H	0.972821	-1.512831	-0.573087
H89	H	0.509645	-1.103979	-0.799989
N90	N	1.254857	-1.266983	-0.489291
N91	N	1.238486	-1.196454	-0.421520
H92	H	1.288640	-1.172940	-0.382787
H93	H	0.463542	-0.789395	-0.572381
H94	H	1.004662	-1.066519	-1.123453
N95	N	1.297089	-0.782692	-1.039456
N96	N	1.354194	-0.727268	-1.007288
H97	H	1.365618	-0.716188	-0.941295
N98	N	0.888442	-0.650308	-0.471720
N99	N	0.970122	-0.669812	-0.485833
H100	H	1.010110	-0.621945	-0.451188
N101	N	1.102741	-1.434309	-0.504664
N102	N	1.047223	-1.351910	-0.476823
H103	H	0.990282	-1.360004	-0.448705
N104	N	1.355409	-1.511389	-0.629390
N105	N	1.405135	-1.448750	-0.591760
H106	H	1.457300	-1.477711	-0.555684
N107	N	1.253729	-1.463101	-0.489068
N108	N	1.303035	-1.400665	-0.450266
H109	H	1.352724	-1.429090	-0.411123
H110	H	1.381124	-0.701107	-1.158998
N111	N	1.104187	-1.237486	-0.504034
N112	N	1.053931	-1.175671	-0.546434
H113	H	0.997671	-1.131328	-0.518117
H114	H	1.287703	-1.334748	-0.753579
H115	H	1.341522	-1.322277	-0.645717
