data_functionalizedCrystal
_audit_creation_method	'MofGen! by Chris Wilmer'
_symmetry_space_group_name_H-M	'P1'
_symmetry_Int_Tables_number	1
_symmetry_cell_setting	triclinic
loop_
_symmetry_equiv_pos_as_xyz
  x,y,z
_cell_length_a	8.497374
_cell_length_b	16.994739
_cell_length_c	19.805407
_cell_angle_alpha	90.021231
_cell_angle_beta	89.998906
_cell_angle_gamma	89.966322
loop_
_atom_site_label
_atom_site_type_symbol
_atom_site_fract_x
_atom_site_fract_y
_atom_site_fract_z
Zn1	Zn	0.627723	0.446112	1.034866
Zn2	Zn	0.891648	0.314245	1.034827
Zn3	Zn	0.627876	0.314219	0.921677
Zn4	Zn	0.891455	0.446104	0.921694
O5	O	0.759676	0.380170	0.978266
O6	O	0.662751	0.428633	1.129577
O7	O	0.856803	0.203860	1.019795
O8	O	0.407094	0.331708	0.936701
O9	O	0.856655	0.331751	1.129549
O10	O	0.406981	0.428609	1.019860
O11	O	0.663011	0.203841	0.936664
O12	O	0.662824	0.331700	0.826963
O13	O	0.856326	0.556486	0.936730
O14	O	0.856474	0.428595	0.826975
O15	O	0.662563	0.556492	1.019876
O16	O	1.112385	0.331744	1.019811
O17	O	1.112243	0.428620	0.936692
C18	C	0.759646	0.380144	0.802410
C19	C	0.759671	0.380152	0.727178
C20	C	1.169556	0.380181	0.978258
C21	C	1.348200	0.380168	0.978276
C22	C	0.759502	0.085910	0.978368
C23	C	0.759842	0.175232	0.978259
Zn24	Zn	0.628430	-0.053848	0.921399
Zn25	Zn	0.626469	-0.185707	1.034529
Zn26	Zn	0.892121	-0.185828	0.922187
Zn27	Zn	0.890269	-0.053935	1.035373
O28	O	0.759322	-0.119830	0.978372
O29	O	0.407414	-0.071252	0.935723
O30	O	0.661663	-0.296104	1.019603
O31	O	0.858738	-0.168335	0.827368
O32	O	0.405973	-0.168128	1.018839
O33	O	0.665006	-0.071370	0.826789
O34	O	0.856837	-0.296194	0.937066
O35	O	1.112632	-0.168420	0.937884
O36	O	0.855581	0.056457	1.020277
O37	O	1.111271	-0.071519	1.021041
O38	O	0.663209	0.056522	0.936541
O39	O	0.659867	-0.168213	1.129355
O40	O	0.853679	-0.071401	1.129975
C41	C	0.759399	0.585910	0.978313
C42	C	0.759294	0.675232	0.978337
C43	C	0.860657	0.430524	0.691858
C44	C	0.860659	0.430535	0.621170
C45	C	0.759683	0.380170	0.585803
C46	C	0.658686	0.329796	0.621127
C47	C	0.658677	0.329789	0.691815
C48	C	0.658721	0.329822	0.336054
C49	C	0.658742	0.329831	0.265362
C50	C	0.860704	0.430568	0.265409
C51	C	0.860694	0.430561	0.336096
C52	C	0.759692	0.380191	0.371415
C53	C	0.759688	0.380180	0.448064
C54	C	0.759694	0.380176	0.509155
C55	C	0.759707	0.380196	1.154809
C56	C	0.759721	0.380207	1.230041
C57	C	1.347826	-0.120049	0.980220
C58	C	1.169187	-0.119998	0.979643
C59	C	0.756355	-0.119805	1.154223
C60	C	0.755040	-0.119818	1.229453
C61	C	0.762297	-0.119856	0.801833
C62	C	0.763565	-0.119868	0.726603
C63	C	0.653420	-0.170188	1.264439
C64	C	0.652152	-0.170199	1.335125
C65	C	0.752513	-0.119844	1.370824
C66	C	0.854137	-0.069469	1.335834
C67	C	0.855396	-0.069454	1.265149
C68	C	0.865039	-0.170358	0.691572
C69	C	0.866263	-0.170368	0.620886
C70	C	0.766003	-0.119892	0.585232
C71	C	0.664524	-0.069396	0.620268
C72	C	0.663310	-0.069382	0.690953
H73	H	0.942889	0.471535	0.720649
H74	H	0.948899	-0.211491	0.592370
H75	H	0.767007	-0.119911	0.527675
O76	O	0.959030	0.479426	0.231131
C77	C	1.227444	0.517557	0.209559
C78	C	1.116275	0.462167	0.248405
H79	H	1.354598	0.503634	0.223521
H80	H	1.210247	0.508917	0.152954
H81	H	1.199767	0.581172	0.223481
H82	H	1.143883	0.398530	0.234540
H83	H	1.133492	0.470875	0.305001
O84	O	0.962674	-0.219305	0.726170
C85	C	1.230646	-0.257707	0.748587
C86	C	1.120240	-0.202216	0.709382
H87	H	1.358059	-0.243921	0.735017
H88	H	1.212502	-0.249028	0.805135
H89	H	1.203091	-0.321298	0.734596
H90	H	1.147726	-0.138603	0.723316
H91	H	1.138404	-0.210962	0.652843
H92	H	0.582896	-0.028299	0.591227
H93	H	0.580668	-0.028269	0.719470
H94	H	0.576435	0.288776	0.720571
H95	H	0.942894	0.471552	0.592415
H96	H	0.576505	0.288817	0.236568
H97	H	0.576463	0.288791	0.592326
H98	H	0.571685	-0.211192	1.235382
O99	O	0.560780	0.280778	0.370323
C100	C	0.483869	0.146661	0.391854
C101	C	0.594919	0.202116	0.353013
H102	H	0.511409	0.083052	0.377863
H103	H	0.501188	0.155234	0.448461
H104	H	0.356706	0.160655	0.377959
H105	H	0.722125	0.188157	0.366853
H106	H	0.577464	0.193532	0.296416
H107	H	0.942925	0.471571	0.364889
O108	O	0.553610	-0.219255	1.369077
C109	C	0.476352	-0.353379	1.390345
C110	C	0.588067	-0.297913	1.351869
H111	H	0.504148	-0.416984	1.376436
H112	H	0.492678	-0.344813	1.447007
H113	H	0.349433	-0.339390	1.376041
H114	H	0.715030	-0.311867	1.366116
H115	H	0.571604	-0.306489	1.295216
O116	O	0.751139	-0.119991	1.439488
C117	C	0.638428	-0.175268	1.540525
C118	C	0.639854	-0.175188	1.462766
H119	H	0.548441	-0.219879	1.559369
H120	H	0.760169	-0.191789	1.560143
H121	H	0.605547	-0.114146	1.559631
H122	H	0.672670	-0.236292	1.443602
H123	H	0.518099	-0.158623	1.443193
O124	O	0.951579	-0.020636	1.370621
C125	C	1.039090	0.023986	1.479839
C126	C	0.928673	-0.031364	1.440524
H127	H	1.020585	0.015344	1.536362
H128	H	1.166545	0.010026	1.466401
H129	H	1.011806	0.087611	1.465850
H130	H	0.955816	-0.095008	1.454491
H131	H	0.801252	-0.017336	1.453964
H132	H	0.938155	-0.028439	1.236669
