data_functionalizedCrystal
_audit_creation_method	'MofGen! by Chris Wilmer'
_symmetry_space_group_name_H-M	'P1'
_symmetry_Int_Tables_number	1
_symmetry_cell_setting	triclinic
loop_
_symmetry_equiv_pos_as_xyz
  x,y,z
_cell_length_a	10.723023
_cell_length_b	13.101039
_cell_length_c	10.723024
_cell_angle_alpha	86.604576
_cell_angle_beta	84.467709
_cell_angle_gamma	93.389222
loop_
_atom_site_label
_atom_site_type_symbol
_atom_site_fract_x
_atom_site_fract_y
_atom_site_fract_z
O1	O	1.663994	0.085201	0.168195
O2	O	1.300842	0.085205	0.184949
O3	O	1.490794	0.085200	-0.005004
O4	O	1.474042	0.085207	0.358148
O5	O	1.477166	-0.085230	0.008648
O6	O	1.287213	-0.085224	0.198600
O7	O	1.650365	-0.085228	0.181846
Zn8	Zn	1.466625	-0.112285	0.192391
Zn9	Zn	1.484582	0.112263	0.174404
O10	O	1.460413	-0.085222	0.371799
C11	C	1.247528	-0.000009	0.190556
C12	C	1.108974	-0.000007	0.186908
C13	C	1.040142	-0.088294	0.192354
C14	C	0.896939	-0.088294	0.188584
N15	N	1.454380	-0.265533	0.204666
C16	C	1.437719	-0.474576	0.221377
C17	C	1.513494	-0.525454	0.145412
C18	C	1.504224	-0.641772	0.154711
C19	C	1.446988	-0.358247	0.212080
C20	C	1.703679	-0.000012	0.176239
C21	C	1.842234	-0.000006	0.179886
C22	C	1.482761	-0.000014	-0.044678
C23	C	1.479114	-0.000010	-0.183233
N24	N	1.496837	0.265511	0.162120
C25	C	1.585401	-0.000010	-0.258215
C26	C	1.581634	-0.000006	-0.401419
C27	C	1.468447	-0.000006	0.411473
C28	C	1.472094	-0.000003	0.550027
H29	H	0.901392	0.075583	0.175237
Br30	Br	1.118611	-0.214282	0.204769
H31	H	1.585329	-0.481654	0.073394
Br32	Br	1.320421	-0.000016	-0.342595
H33	H	1.061886	0.075578	0.179452
H34	H	0.837771	-0.163880	0.193247
H35	H	1.365890	-0.518370	0.293392
H36	H	1.679187	-0.000017	-0.216393
H37	H	1.672624	-0.000011	-0.465852
H38	H	1.385328	-0.000003	-0.225055
