data_functionalizedCrystal
_audit_creation_method	'MofGen! by Chris Wilmer'
_symmetry_space_group_name_H-M	'P1'
_symmetry_Int_Tables_number	1
_symmetry_cell_setting	triclinic
loop_
_symmetry_equiv_pos_as_xyz
  x,y,z
_cell_length_a	12.759401
_cell_length_b	25.639239
_cell_length_c	12.759393
_cell_angle_alpha	89.962948
_cell_angle_beta	89.981504
_cell_angle_gamma	90.038847
loop_
_atom_site_label
_atom_site_type_symbol
_atom_site_fract_x
_atom_site_fract_y
_atom_site_fract_z
Zn1	Zn	1.606080	-0.208118	-0.593941
Zn2	Zn	1.605901	-0.295564	-0.418245
Zn3	Zn	1.430382	-0.208145	-0.418281
Zn4	Zn	1.430297	-0.295524	-0.593886
O5	O	1.518165	-0.251838	-0.506088
O6	O	1.753078	-0.219723	-0.570643
O7	O	1.582579	-0.283996	-0.271228
O8	O	1.453799	-0.134976	-0.441621
O9	O	1.752946	-0.283970	-0.441559
O10	O	1.582884	-0.134956	-0.570678
O11	O	1.453626	-0.219770	-0.271255
O12	O	1.283350	-0.219731	-0.441567
O13	O	1.453655	-0.283901	-0.740914
O14	O	1.283288	-0.283928	-0.570584
O15	O	1.582802	-0.219684	-0.740955
O16	O	1.582496	-0.368724	-0.441505
O17	O	1.453481	-0.368695	-0.570549
C18	C	1.245198	-0.251828	-0.506074
C19	C	1.128421	-0.251837	-0.506093
C20	C	1.073554	-0.285318	-0.573160
C21	C	0.963830	-0.285324	-0.573172
C22	C	0.963850	-0.218368	-0.439039
C23	C	1.073572	-0.218359	-0.439033
C24	C	1.128404	-0.318796	-0.640220
C25	C	1.073536	-0.352280	-0.707292
C26	C	0.963812	-0.352286	-0.707303
C27	C	0.908955	-0.318809	-0.640242
C28	C	1.517989	-0.387680	-0.506040
C29	C	1.518009	-0.445795	-0.506055
C30	C	1.585519	-0.806160	-0.439010
C31	C	1.585560	-0.860765	-0.439024
O32	O	1.642775	-0.889004	-0.381967
N33	N	1.518350	-0.888077	-0.506158
C34	C	1.451103	-0.860782	-0.573289
O35	O	1.393940	-0.889027	-0.630394
C36	C	1.451068	-0.806179	-0.573280
C37	C	1.518275	-0.778869	-0.506134
C38	C	1.652721	-0.778851	-0.371870
C39	C	1.652678	-0.724250	-0.371855
C40	C	1.585434	-0.696959	-0.438980
C41	C	1.518232	-0.724269	-0.506119
C42	C	1.383827	-0.778885	-0.640416
C43	C	1.383799	-0.724278	-0.640401
C44	C	1.451005	-0.696968	-0.573256
C45	C	1.450946	-0.642377	-0.573228
N46	N	1.518155	-0.615065	-0.506094
C47	C	1.585399	-0.642356	-0.438970
C48	C	1.451182	-0.975453	-0.573306
C49	C	1.451210	-1.030055	-0.573311
C50	C	1.585669	-1.030034	-0.439046
C51	C	1.585634	-0.975430	-0.439037
C52	C	1.518391	-0.948140	-0.506172
C53	C	1.585305	-0.527691	-0.438943
C54	C	1.585253	-0.473086	-0.438930
C55	C	1.450799	-0.473111	-0.573198
C56	C	1.450846	-0.527712	-0.573207
C57	C	1.518108	-0.555000	-0.506076
O58	O	1.393762	-0.614103	-0.630258
O59	O	1.642562	-0.614104	-0.381885
C60	C	1.792198	-0.251848	-0.506103
C61	C	1.908975	-0.251852	-0.506109
C62	C	1.518239	-0.251785	-0.780122
C63	C	1.518270	-0.251763	-0.896898
C64	C	1.518371	-0.115465	-0.506159
C65	C	1.518459	-0.057351	-0.506190
C66	C	1.585526	-0.218322	-0.951783
C67	C	1.585551	-0.218303	-1.061507
C68	C	1.451061	-0.285170	-1.061452
C69	C	1.451032	-0.285186	-0.951730
C70	C	1.652765	-0.184898	-0.896952
C71	C	1.720027	-0.151455	-0.951837
C72	C	1.720052	-0.151436	-1.061561
C73	C	1.652815	-0.184860	-1.116400
C74	C	1.518152	-0.251853	-0.233121
C75	C	1.518325	-0.251728	-0.116345
H76	H	0.919177	-0.191112	-0.384440
H77	H	0.819611	-0.318813	-0.640266
H78	H	1.396250	-0.312409	-0.907042
H79	H	1.640427	-1.052264	-0.384394
H80	H	1.774813	-0.124201	-1.106245
H81	H	1.118246	-0.191092	-0.384429
O82	O	1.385858	-0.317624	-1.114882
C83	C	1.326268	-0.347216	-1.283893
C84	C	1.400176	-0.310442	-1.223517
H85	H	1.337802	-0.341414	-1.371734
H86	H	1.344651	-0.389390	-1.262367
H87	H	1.241569	-0.338041	-1.262263
H88	H	1.484900	-0.319569	-1.245114
H89	H	1.381702	-0.268279	-1.245048
H90	H	1.640078	-0.549903	-0.384280
O91	O	1.717933	-0.805431	-0.306668
C92	C	1.732299	-0.867140	-0.164884
C93	C	1.658309	-0.837074	-0.238648
H94	H	1.684122	-0.892722	-0.109857
H95	H	1.787174	-0.892679	-0.213186
H96	H	1.780385	-0.838243	-0.116950
H97	H	1.610155	-0.865934	-0.286598
H98	H	1.603503	-0.811528	-0.190286
O99	O	1.650642	-0.446639	-0.373670
C100	C	1.783963	-0.452391	-0.240454
C101	C	1.709985	-0.482404	-0.314320
H102	H	1.831946	-0.481293	-0.192435
H103	H	1.838926	-0.426793	-0.288677
H104	H	1.735724	-0.426860	-0.185512
H105	H	1.758140	-0.507963	-0.369277
H106	H	1.655020	-0.507968	-0.266032
H107	H	1.329043	-0.702061	-0.695074
O108	O	1.653005	-0.184890	-1.222986
C109	C	1.753763	-0.198273	-1.380441
C110	C	1.753681	-0.198267	-1.259737
H111	H	1.835157	-0.209077	-1.410190
H112	H	1.694223	-0.227926	-1.410260
H113	H	1.731978	-0.157779	-1.410233
H114	H	1.775493	-0.238740	-1.229855
H115	H	1.813200	-0.168587	-1.229989
O116	O	1.785369	-0.118937	-0.898733
C117	C	1.918809	-0.052633	-0.910370
C118	C	1.844846	-0.089424	-0.970636
H119	H	1.966932	-0.028770	-0.968477
H120	H	1.870657	-0.025265	-0.859042
H121	H	1.973651	-0.076657	-0.858963
H122	H	1.789990	-0.065442	-1.022100
H123	H	1.893064	-0.116794	-1.021898
O124	O	1.385884	-1.056499	-0.638627
C125	C	1.252473	-1.050742	-0.771752
C126	C	1.326415	-1.020732	-0.697845
H127	H	1.204358	-1.021837	-0.819633
H128	H	1.300643	-1.076245	-0.826812
H129	H	1.197625	-1.076368	-0.723463
H130	H	1.381279	-0.995078	-0.746049
H131	H	1.278181	-0.995263	-0.642782
H132	H	1.707407	-0.702018	-0.317183
H133	H	1.396416	-0.953236	-0.627972
H134	H	1.217746	-0.318795	-0.640216
H135	H	1.329095	-0.801111	-0.695088
O136	O	1.651020	-0.948985	-0.373782
C137	C	1.784335	-0.954742	-0.240561
C138	C	1.710352	-0.984752	-0.314427
H139	H	1.832309	-0.983647	-0.192537
H140	H	1.839306	-0.929149	-0.288783
H141	H	1.736099	-0.929207	-0.185623
H142	H	1.758504	-1.010316	-0.369380
H143	H	1.655379	-1.010313	-0.266140
H144	H	1.396125	-0.549949	-0.627886
O145	O	1.385582	-0.446515	-0.638368
C146	C	1.325914	-0.362398	-0.697803
C147	C	1.399836	-0.392455	-0.623955
H148	H	1.337397	-0.318685	-0.686160
H149	H	1.344334	-0.373051	-0.782560
H150	H	1.241222	-0.373211	-0.679305
H151	H	1.484552	-0.381657	-0.642359
H152	H	1.381326	-0.381799	-0.539220
O153	O	1.126773	-0.384740	-0.772585
C154	C	1.160341	-0.410244	-0.951199
C155	C	1.100009	-0.373442	-0.877372
H156	H	1.138708	-0.401130	-1.035932
H157	H	1.248201	-0.404487	-0.939763
H158	H	1.138725	-0.452390	-0.932542
H159	H	1.121537	-0.331282	-0.895982
H160	H	1.012164	-0.379244	-0.888821
O161	O	0.910466	-0.384734	-0.772569
C162	C	0.786592	-0.391866	-0.914359
C163	C	0.846956	-0.355056	-0.840530
H164	H	0.735212	-0.367887	-0.969309
H165	H	0.844598	-0.415781	-0.962361
H166	H	0.735220	-0.419189	-0.866003
H167	H	0.898329	-0.327702	-0.888805
H168	H	0.788893	-0.331178	-0.792524
H169	H	1.652754	-0.184911	-0.807609
