data_functionalizedCrystal
_audit_creation_method	'MofGen! by Chris Wilmer'
_symmetry_space_group_name_H-M	'P1'
_symmetry_Int_Tables_number	1
_symmetry_cell_setting	triclinic
loop_
_symmetry_equiv_pos_as_xyz
  x,y,z
_cell_length_a	17.077404
_cell_length_b	29.839131
_cell_length_c	17.077396
_cell_angle_alpha	89.967252
_cell_angle_beta	89.982756
_cell_angle_gamma	90.041645
loop_
_atom_site_label
_atom_site_type_symbol
_atom_site_fract_x
_atom_site_fract_y
_atom_site_fract_z
Zn1	Zn	1.199936	-0.178847	-0.443824
Zn2	Zn	1.199806	-0.253979	-0.312550
Zn3	Zn	1.068673	-0.178864	-0.312572
Zn4	Zn	1.068593	-0.253951	-0.443774
O5	O	1.134252	-0.216410	-0.378180
O6	O	1.309766	-0.188818	-0.426422
O7	O	1.182390	-0.244033	-0.202706
O8	O	1.086173	-0.115994	-0.330013
O9	O	1.309670	-0.244017	-0.329976
O10	O	1.182612	-0.115982	-0.426443
O11	O	1.086047	-0.188847	-0.202722
O12	O	0.958816	-0.188820	-0.329964
O13	O	1.086037	-0.243970	-0.553627
O14	O	0.958757	-0.243986	-0.426358
O15	O	1.182534	-0.188791	-0.553664
O16	O	1.182312	-0.316842	-0.329927
O17	O	1.085911	-0.316822	-0.426336
C18	C	0.930304	-0.216402	-0.378158
C19	C	0.843054	-0.216409	-0.378168
C20	C	0.802054	-0.245178	-0.428279
C21	C	0.720074	-0.245179	-0.428292
C22	C	0.679095	-0.216413	-0.378188
C23	C	0.720101	-0.187642	-0.328074
C24	C	0.802080	-0.187639	-0.328066
C25	C	0.549231	-0.187650	-0.328093
C26	C	0.467246	-0.187654	-0.328100
C27	C	0.467225	-0.245190	-0.428319
C28	C	0.549204	-0.245188	-0.428311
C29	C	0.590204	-0.216416	-0.378196
C30	C	1.134110	-0.333133	-0.378141
C31	C	1.134122	-0.383067	-0.378151
C32	C	1.184539	-0.692708	-0.328053
C33	C	1.184636	-0.880381	-0.328083
O34	O	1.227391	-0.904645	-0.285459
N35	N	1.134415	-0.903852	-0.378239
C36	C	1.084169	-0.880402	-0.428394
O37	O	1.041461	-0.904671	-0.471061
C38	C	1.084077	-0.692729	-0.428367
C39	C	1.134296	-0.669261	-0.378203
C40	C	1.234755	-0.669240	-0.277893
C41	C	1.234727	-0.622325	-0.277883
C42	C	1.184484	-0.598878	-0.328033
C43	C	1.134268	-0.622346	-0.378193
C44	C	1.033836	-0.669280	-0.478526
C45	C	1.033818	-0.622359	-0.478516
C46	C	1.084038	-0.598891	-0.428352
C47	C	1.083997	-0.551983	-0.428332
N48	N	1.134219	-0.528513	-0.378177
C49	C	1.184462	-0.551960	-0.328027
C50	C	1.084220	-0.978932	-0.428404
C51	C	1.084242	-1.025850	-0.428410
C52	C	1.184710	-1.025827	-0.328100
C53	C	1.184684	-0.978908	-0.328090
C54	C	1.134442	-0.955462	-0.378248
C55	C	1.184399	-0.453434	-0.328009
C56	C	1.184365	-0.406514	-0.328001
C57	C	1.083900	-0.406542	-0.428314
C58	C	1.083931	-0.453457	-0.428319
C59	C	1.134187	-0.476902	-0.378164
O60	O	1.041271	-0.527691	-0.470941
O61	O	1.227176	-0.527682	-0.285378
C62	C	1.184567	-0.739624	-0.328063
C63	C	1.134351	-0.763092	-0.378223
C64	C	1.084108	-0.739645	-0.428373
C65	C	1.134373	-0.810010	-0.378229
C66	C	1.184617	-0.833457	-0.328079
C67	C	1.234838	-0.809987	-0.277923
C68	C	1.234811	-0.763071	-0.277913
C69	C	1.033887	-0.763116	-0.478529
C70	C	1.033918	-0.810031	-0.478534
C71	C	1.084161	-0.833478	-0.428384
C72	C	1.338996	-0.216419	-0.378202
C73	C	1.426246	-0.216422	-0.378212
C74	C	1.134292	-0.216375	-0.582924
C75	C	1.134308	-0.216360	-0.670174
C76	C	1.134416	-0.099232	-0.378236
C77	C	1.134486	-0.049297	-0.378260
C78	C	1.084158	-0.187621	-0.711172
C79	C	1.084171	-0.187611	-0.793153
C80	C	1.134339	-0.216338	-0.834134
C81	C	1.184491	-0.245080	-0.793130
C82	C	1.184474	-0.245093	-0.711151
C83	C	1.184525	-0.245052	-0.964000
C84	C	1.184544	-0.245040	-1.045985
C85	C	1.084222	-0.187571	-1.046002
C86	C	1.084205	-0.187583	-0.964023
C87	C	1.134359	-0.216325	-0.923025
C88	C	1.134258	-0.216412	-0.174232
C89	C	1.134393	-0.216301	-0.086983
H90	H	0.835461	-0.164210	-0.287265
C91	C	0.594279	-0.276833	-0.483423
N92	N	0.628230	-0.300669	-0.524935
H93	H	0.686729	-0.164218	-0.287283
C94	C	0.978633	-0.737330	-0.533722
N95	N	0.937017	-0.717910	-0.575302
C96	C	0.422123	-0.276837	-0.483449
N97	N	0.388149	-0.300673	-0.524971
C98	C	1.029048	-0.155957	-1.091101
N99	N	0.987493	-0.132146	-1.125073
C100	C	1.239608	-0.380702	-0.272810
N101	N	1.281216	-0.361262	-0.231240
H102	H	1.225334	-0.268473	-0.826503
H103	H	1.225325	-0.472517	-0.287169
C104	C	1.028968	-0.156019	-0.666100
N105	N	0.987395	-0.132216	-0.632155
H106	H	1.275622	-0.603220	-0.237037
C107	C	0.422171	-0.156009	-0.272987
N108	N	0.388220	-0.132173	-0.231475
C109	C	1.290028	-0.695025	-0.222715
N110	N	1.331657	-0.714442	-0.181146
C111	C	1.239725	-0.276644	-1.091062
N112	N	1.281287	-0.300450	-1.125015
C113	C	0.594329	-0.156002	-0.272962
N114	N	0.628297	-0.132166	-0.231434
C115	C	1.239931	-0.953097	-0.272908
N116	N	1.281546	-0.933659	-0.231344
H117	H	1.043041	-0.472566	-0.469170
C118	C	1.029009	-0.155991	-0.838247
N119	N	0.987462	-0.132172	-0.872211
H120	H	1.225317	-0.268492	-0.677772
H121	H	0.992938	-0.688380	-0.519372
C122	C	0.978547	-0.596571	-0.533696
N123	N	0.936915	-0.577148	-0.575256
C124	C	1.239983	-1.051627	-0.272939
N125	N	1.281617	-1.071062	-0.231398
H126	H	0.835413	-0.268603	-0.469077
H127	H	0.686695	-0.268605	-0.469097
H128	H	0.993016	-0.829135	-0.519383
C129	C	1.239695	-0.276671	-0.918904
N130	N	1.281251	-0.300485	-0.884938
H131	H	1.043341	-1.044954	-0.469252
C132	C	1.028967	-0.953147	-0.483606
N133	N	0.987355	-0.933728	-0.525191
H134	H	1.042990	-0.387444	-0.469143
C135	C	1.290106	-0.835787	-0.222757
N136	N	1.331733	-0.855223	-0.181212
H137	H	1.275704	-0.743967	-0.237065
H138	H	1.043357	-0.164189	-0.930658
