data_functionalizedCrystal
_audit_creation_method	'MofGen! by Chris Wilmer'
_symmetry_space_group_name_H-M	'P1'
_symmetry_Int_Tables_number	1
_symmetry_cell_setting	triclinic
loop_
_symmetry_equiv_pos_as_xyz
  x,y,z
_cell_length_a	14.044220
_cell_length_b	13.101039
_cell_length_c	14.044220
_cell_angle_alpha	93.667477
_cell_angle_beta	86.811122
_cell_angle_gamma	93.659868
loop_
_atom_site_label
_atom_site_type_symbol
_atom_site_fract_x
_atom_site_fract_y
_atom_site_fract_z
O1	O	1.281968	0.085109	-0.225348
O2	O	1.531968	0.335109	0.024652
O3	O	1.781968	0.585109	0.274652
O4	O	2.031968	0.835109	0.524652
O5	O	1.005298	0.085135	-0.217041
O6	O	1.255298	0.335135	0.032959
O7	O	1.505298	0.585135	0.282959
O8	O	1.755298	0.835135	0.532959
O9	O	1.139480	0.085112	-0.082860
O10	O	1.389480	0.335112	0.167140
O11	O	1.639480	0.585112	0.417140
O12	O	1.889480	0.835112	0.667140
O13	O	1.147787	0.085132	-0.359530
O14	O	1.397787	0.335132	-0.109530
O15	O	1.647787	0.585132	0.140470
O16	O	1.897787	0.835132	0.390470
O17	O	1.129854	-0.085316	-0.092504
O18	O	1.379854	0.164684	0.157496
O19	O	1.629854	0.414684	0.407496
O20	O	1.879854	0.664684	0.657496
O21	O	0.995673	-0.085293	-0.226686
O22	O	1.245673	0.164707	0.023314
O23	O	1.495673	0.414707	0.273314
O24	O	1.745673	0.664707	0.523314
O25	O	1.272343	-0.085319	-0.234993
O26	O	1.522343	0.164681	0.015007
O27	O	1.772343	0.414681	0.265007
O28	O	2.022343	0.664681	0.515007
Zn29	Zn	1.132479	-0.112365	-0.232371
Zn30	Zn	1.382479	0.137635	0.017629
Zn31	Zn	1.632479	0.387635	0.267629
Zn32	Zn	1.882479	0.637635	0.517629
Zn33	Zn	1.145162	0.112181	-0.219663
Zn34	Zn	1.395162	0.362181	0.030337
Zn35	Zn	1.645162	0.612181	0.280337
Zn36	Zn	1.895162	0.862181	0.530337
O37	O	1.138161	-0.085296	-0.369175
O38	O	1.388161	0.164704	-0.119175
O39	O	1.638161	0.414704	0.130825
O40	O	1.888161	0.664704	0.380825
C41	C	0.964864	-0.000076	-0.218228
C42	C	1.214864	0.249924	0.031772
C43	C	1.464864	0.499924	0.281772
C44	C	1.714864	0.749924	0.531772
C45	C	0.858722	-0.000066	-0.207383
C46	C	1.108722	0.249934	0.042617
C47	C	1.358722	0.499934	0.292617
C48	C	1.608722	0.749934	0.542617
N49	N	1.123831	-0.265612	-0.241043
N50	N	1.373831	-0.015612	0.008957
N51	N	1.623831	0.234388	0.258957
N52	N	1.873831	0.484388	0.508957
C53	C	0.664383	-0.000088	-0.187558
C54	C	0.914383	0.249912	0.062442
C55	C	1.164383	0.499912	0.312442
C56	C	1.414383	0.749912	0.562442
C57	C	0.613253	-0.000087	-0.264472
C58	C	0.863253	0.249913	-0.014472
C59	C	1.113253	0.499913	0.235528
C60	C	1.363253	0.749913	0.485528
C61	C	0.505116	-0.000099	-0.253441
C62	C	0.755116	0.249901	-0.003441
C63	C	1.005116	0.499901	0.246559
C64	C	1.255116	0.749901	0.496559
C65	C	0.772529	-0.000076	-0.198587
C66	C	1.022529	0.249924	0.051413
C67	C	1.272529	0.499924	0.301413
C68	C	1.522529	0.749924	0.551413
C69	C	1.112065	-0.474653	-0.252851
C70	C	1.362065	-0.224653	-0.002851
C71	C	1.612065	0.025347	0.247149
C72	C	1.862065	0.275347	0.497149
C73	C	1.165580	-0.525538	-0.199179
C74	C	1.415580	-0.275538	0.050821
C75	C	1.665580	-0.025538	0.300821
C76	C	1.915580	0.224462	0.550821
C77	C	1.159034	-0.641855	-0.205749
C78	C	1.409034	-0.391855	0.044251
C79	C	1.659034	-0.141855	0.294251
C80	C	1.909034	0.108145	0.544251
C81	C	1.118610	-0.358325	-0.246282
C82	C	1.368610	-0.108325	0.003718
C83	C	1.618610	0.141675	0.253718
C84	C	1.868610	0.391675	0.503718
C85	C	1.312777	-0.000106	-0.233806
C86	C	1.562777	0.249894	0.016194
C87	C	1.812777	0.499894	0.266194
C88	C	2.062777	0.749894	0.516194
C89	C	1.418920	-0.000109	-0.244651
C90	C	1.668920	0.249891	0.005349
C91	C	1.918920	0.499891	0.255349
C92	C	2.168920	0.749891	0.505349
C93	C	1.131031	-0.000102	-0.052060
C94	C	1.381031	0.249898	0.197940
C95	C	1.631031	0.499898	0.447940
C96	C	1.881031	0.749898	0.697940
C97	C	1.120187	-0.000102	0.054083
C98	C	1.370187	0.249898	0.304083
C99	C	1.620187	0.499898	0.554083
C100	C	1.870187	0.749898	0.804083
N101	N	1.153817	0.265428	-0.210984
N102	N	1.403817	0.515428	0.039016
N103	N	1.653817	0.765428	0.289016
N104	N	1.903817	1.015428	0.539016
C105	C	1.146610	-0.000080	-0.399974
C106	C	1.396610	0.249920	-0.149974
C107	C	1.646610	0.499920	0.100026
C108	C	1.896610	0.749920	0.350026
C109	C	1.157455	-0.000073	-0.506116
C110	C	1.407455	0.249927	-0.256116
C111	C	1.657455	0.499927	-0.006116
C112	C	1.907455	0.749927	0.243884
C113	C	1.100362	-0.000086	0.248421
C114	C	1.350362	0.249914	0.498421
C115	C	1.600362	0.499914	0.748421
C116	C	1.850362	0.749914	0.998421
C117	C	1.177276	-0.000090	0.299551
C118	C	1.427276	0.249910	0.549551
C119	C	1.677276	0.499910	0.799551
C120	C	1.927276	0.749910	1.049551
C121	C	1.166245	-0.000080	0.407688
C122	C	1.416245	0.249920	0.657688
C123	C	1.666245	0.499920	0.907688
C124	C	1.916245	0.749920	1.157688
C125	C	1.111391	-0.000095	0.140275
C126	C	1.361391	0.249905	0.390275
C127	C	1.611391	0.499905	0.640275
C128	C	1.861391	0.749905	0.890275
H129	H	0.626945	-0.000099	-0.113431
H130	H	0.876945	0.249901	0.136569
H131	H	1.126945	0.499901	0.386569
H132	H	1.376945	0.749901	0.636569
N133	N	1.002165	-0.000081	0.297998
N134	N	1.252165	0.249919	0.547998
N135	N	1.502165	0.499919	0.797998
N136	N	1.752165	0.749919	1.047998
H137	H	0.997731	0.063097	0.342777
H138	H	1.247731	0.313097	0.592777
H139	H	1.497731	0.563097	0.842777
H140	H	1.747731	0.813097	1.092777
H141	H	0.990667	-0.063301	0.335581
H142	H	1.240667	0.186699	0.585581
H143	H	1.490667	0.436699	0.835581
H144	H	1.740667	0.686699	1.085581
H145	H	1.216314	-0.481744	-0.148295
H146	H	1.466314	-0.231744	0.101705
H147	H	1.716314	0.018256	0.351705
H148	H	1.966314	0.268256	0.601705
H149	H	0.650693	-0.000077	-0.338605
H150	H	0.900693	0.249923	-0.088605
H151	H	1.150693	0.499923	0.161395
H152	H	1.400693	0.749923	0.411395
N153	N	1.044865	-0.532651	-0.320251
N154	N	1.294865	-0.282651	-0.070251
N155	N	1.544865	-0.032651	0.179749
N156	N	1.794865	0.217349	0.429749
H157	H	1.049658	-0.608726	-0.315448
H158	H	1.299658	-0.358726	-0.065448
H159	H	1.549658	-0.108726	0.184552
H160	H	1.799658	0.141274	0.434552
H161	H	1.062773	-0.513961	-0.387857
H162	H	1.312773	-0.263961	-0.137857
H163	H	1.562773	-0.013961	0.112143
H164	H	1.812773	0.236039	0.362143
H165	H	1.251413	-0.000028	0.262115
H166	H	1.501413	0.249972	0.512115
H167	H	1.751413	0.499972	0.762115
H168	H	2.001413	0.749972	1.012115
