data_functionalizedCrystal
_audit_creation_method	'MofGen! by Chris Wilmer'
_symmetry_space_group_name_H-M	'P1'
_symmetry_Int_Tables_number	1
_symmetry_cell_setting	triclinic
loop_
_symmetry_equiv_pos_as_xyz
  x,y,z
_cell_length_a	6.817900
_cell_length_b	11.102294
_cell_length_c	16.255661
_cell_angle_alpha	93.853873
_cell_angle_beta	103.488922
_cell_angle_gamma	108.605785
loop_
_atom_site_label
_atom_site_type_symbol
_atom_site_fract_x
_atom_site_fract_y
_atom_site_fract_z
V1	V	-4.052939	-0.176866	-0.263870
O2	O	-4.013087	0.007443	-0.258848
O3	O	-4.030116	-0.349679	-0.262064
O4	O	-4.004166	-0.174608	-0.378953
O5	O	-4.039217	-0.168839	-0.141150
V6	V	-4.533301	-0.154765	-0.249192
O7	O	-4.321131	-0.225344	-0.296068
O8	O	-4.715306	-0.106287	-0.216994
O9	O	-4.332916	0.018048	-0.250998
O10	O	-4.690549	-0.339074	-0.254214
O11	O	-4.664419	-0.162792	-0.371912
O12	O	-4.358867	-0.157022	-0.134109
C13	C	-3.881351	-0.391792	-0.257902
C14	C	-3.943976	-0.533072	-0.257192
C15	C	-4.215305	-0.738694	-0.260427
C16	C	-4.156472	-0.605944	-0.261083
C17	C	-3.790298	-0.592953	-0.252636
C18	C	-3.849128	-0.725699	-0.251973
C19	C	-3.848248	-0.168471	-0.407004
C20	C	-3.889824	-0.167769	-0.501085
C21	C	-3.799137	-0.159385	-0.723904
C22	C	-3.971599	-0.267595	-0.793379
C23	C	-3.966013	-0.166454	-0.673334
C24	C	-3.867658	-0.057005	-0.771496
C25	C	-4.039592	-0.165176	-0.839717
C26	C	-4.137971	-0.274760	-0.741579
C27	C	-4.033954	-0.064074	-0.719680
C28	C	-4.206557	-0.172315	-0.789136
C29	C	-3.923621	-0.167190	-0.577484
C30	C	-4.082002	-0.164449	-0.935566
C31	C	-4.145024	0.060155	-0.255158
C32	C	-4.061638	0.201433	-0.255873
C33	C	-4.178127	-0.163164	-0.106054
C34	C	-4.115789	-0.163859	-0.011972
H35	H	-3.626593	-0.154059	-0.695423
N36	N	-3.573241	-0.518527	-0.248672
N37	N	-3.490443	-0.543270	-0.305702
H38	H	-3.337142	-0.490710	-0.302904
N39	N	-4.280829	-0.390351	-0.724709
N40	N	-4.414819	-0.472123	-0.785419
H41	H	-4.515705	-0.553762	-0.773504
N42	N	-3.939082	-0.375517	-0.833651
N43	N	-3.967605	-0.392743	-0.912955
H44	H	-3.944624	-0.468958	-0.941395
H45	H	-4.379244	-0.177810	-0.817483
H46	H	-4.281607	-0.557202	-0.264789
N47	N	-3.692186	-0.786889	-0.247331
N48	N	-3.744747	-0.905412	-0.246740
H49	H	-3.633914	-0.948630	-0.243460
H50	H	-4.059789	0.021975	-0.687572
N51	N	-3.724849	0.058421	-0.788579
N52	N	-3.599133	0.052314	-0.832411
H53	H	-3.498276	0.133823	-0.844488
N54	N	-4.432376	-0.813132	-0.264422
N55	N	-4.581610	-0.816919	-0.327258
H56	H	-4.734922	-0.869490	-0.330080
