data_functionalizedCrystal
_audit_creation_method	'MofGen! by Chris Wilmer'
_symmetry_space_group_name_H-M	'P1'
_symmetry_Int_Tables_number	1
_symmetry_cell_setting	triclinic
loop_
_symmetry_equiv_pos_as_xyz
  x,y,z
_cell_length_a	18.215407
_cell_length_b	16.120484
_cell_length_c	18.215399
_cell_angle_alpha	87.130211
_cell_angle_beta	90.019833
_cell_angle_gamma	92.926015
loop_
_atom_site_label
_atom_site_type_symbol
_atom_site_fract_x
_atom_site_fract_y
_atom_site_fract_z
Zn1	Zn	1.110213	-0.331906	0.430960
Zn2	Zn	1.103879	-0.471328	0.314129
Zn3	Zn	0.987144	-0.331934	0.307908
Zn4	Zn	0.980871	-0.471282	0.437152
O5	O	1.045527	-0.401612	0.372537
O6	O	1.212356	-0.350409	0.415474
O7	O	1.088368	-0.452868	0.210321
O8	O	1.008745	-0.215264	0.319037
O9	O	1.207703	-0.452841	0.329639
O10	O	1.099163	-0.215244	0.409442
O11	O	1.002604	-0.350456	0.205751
O12	O	0.883328	-0.350411	0.325041
O13	O	0.998054	-0.452762	0.539313
O14	O	0.878719	-0.452789	0.419995
O15	O	1.093081	-0.350364	0.534764
O16	O	1.082286	-0.587988	0.335643
O17	O	0.991913	-0.587954	0.426027
C18	C	0.854321	-0.401598	0.372516
C19	C	0.772522	-0.401612	0.372525
C20	C	1.035751	-0.618221	0.382198
C21	C	1.031637	-0.710887	0.386356
C22	C	0.581943	-0.455004	0.421912
C23	C	0.505085	-0.455007	0.421921
C24	C	0.509861	-0.348236	0.323179
C25	C	0.586719	-0.348229	0.323174
C26	C	0.622758	-0.401619	0.372540
C27	C	0.469041	-0.401627	0.372554
C28	C	0.385708	-0.401630	0.372564
C29	C	0.706097	-0.401615	0.372531
C30	C	1.024129	-0.880549	0.393961
C31	C	1.067056	-0.921836	0.351125
C32	C	1.062879	-1.016241	0.355357
C33	C	1.028305	-0.786135	0.389730
C34	C	1.237479	-0.401627	0.372560
C35	C	1.319277	-0.401634	0.372569
C36	C	1.045574	-0.401555	0.564488
C37	C	1.045594	-0.401530	0.646286
C38	C	1.055360	-0.184158	0.362855
C39	C	1.059551	-0.091492	0.358729
C40	C	1.045524	-0.401610	0.181331
C41	C	1.045657	-0.401399	0.099523
C42	C	1.095094	-0.348162	0.832110
C43	C	1.095104	-0.348138	0.908967
C44	C	0.996153	-0.454770	0.913694
C45	C	0.996140	-0.454790	0.836837
C46	C	1.045615	-0.401487	0.796047
C47	C	1.045637	-0.401443	0.949761
C48	C	1.045648	-0.401417	1.033094
C49	C	1.045603	-0.401511	0.712709
H50	H	0.471857	-0.498478	0.462126
N51	N	0.620813	-0.512578	0.475161
H52	H	0.675696	-0.504478	0.467666
H53	H	0.604688	-0.572105	0.466279
H54	H	0.480509	-0.304769	0.282986
H55	H	1.106944	-0.886281	0.311274
N56	N	0.630747	-0.290636	0.269929
H57	H	0.596256	-0.256817	0.238655
H58	H	0.661099	-0.324514	0.237332
H59	H	0.984243	-0.916101	0.433809
N60	N	0.942795	-0.512270	0.957679
H61	H	0.890797	-0.499319	0.943714
H62	H	0.950368	-0.504150	1.011828
N63	N	1.148452	-0.290673	0.788113
H64	H	1.179797	-0.256888	0.822624
H65	H	1.120234	-0.252099	0.754502
H66	H	1.135393	-0.304714	0.938326
N67	N	0.942774	-0.512314	0.797937
H68	H	0.950273	-0.504235	0.743060
H69	H	0.890803	-0.499334	0.810783
