data_functionalizedCrystal
_audit_creation_method	'MofGen! by Chris Wilmer'
_symmetry_space_group_name_H-M	'P1'
_symmetry_Int_Tables_number	1
_symmetry_cell_setting	triclinic
loop_
_symmetry_equiv_pos_as_xyz
  x,y,z
_cell_length_a	17.917559
_cell_length_b	21.606444
_cell_length_c	21.606444
_cell_angle_alpha	59.992989
_cell_angle_beta	89.999775
_cell_angle_gamma	57.013646
loop_
_atom_site_label
_atom_site_type_symbol
_atom_site_fract_x
_atom_site_fract_y
_atom_site_fract_z
Zr1	Zr	0.754926	0.620504	-0.052827
O2	O	0.629803	0.759077	-0.156396
O3	O	0.793282	0.488479	-0.021063
O4	O	0.793287	0.617603	-0.150201
O5	O	0.629796	0.629958	0.074592
O6	O	0.922246	0.607866	-0.145332
O7	O	0.629799	0.629953	-0.027257
O8	O	0.922238	0.376886	0.085673
O9	O	0.629804	0.860938	-0.156413
O10	O	0.905882	0.533090	-0.003900
O11	O	0.809639	0.540361	0.068476
O12	O	0.809645	0.692388	-0.083568
O13	O	0.713402	0.699658	-0.011193
Zr14	Zr	0.960597	0.604981	0.117378
Zr15	Zr	0.960601	0.604974	-0.045061
Zr16	Zr	0.754921	0.620511	0.109611
Zr17	Zr	0.754927	0.782959	-0.052854
Zr18	Zr	0.960596	0.442526	0.117405
O19	O	0.922240	0.737006	0.085613
O20	O	0.922247	0.736996	-0.145353
O21	O	0.629797	0.759088	0.074571
O22	O	1.085719	0.466407	0.220946
O23	O	1.085726	0.466397	-0.010020
O24	O	0.793276	0.488489	0.209904
O25	O	1.085727	0.595527	-0.010042
O26	O	0.922236	0.607882	0.214752
O27	O	0.793276	0.617619	0.209882
O28	O	1.085724	0.595532	0.091808
O29	O	0.793288	0.848593	-0.150240
O30	O	0.922234	0.376892	0.214790
O31	O	1.085719	0.364547	0.220963
O32	O	1.085722	0.364541	0.091846
O33	O	0.629800	0.860943	-0.027296
O34	O	0.793285	0.848599	-0.021123
O35	O	0.905878	0.533097	0.148119
O36	O	1.002121	0.525827	0.075744
O37	O	0.905883	0.685124	-0.003925
O38	O	0.809640	0.692395	0.068450
C39	C	0.857760	0.409536	0.032309
C40	C	0.857759	0.340569	0.032321
C41	C	0.786714	0.369666	-0.026488
C42	C	0.786716	0.304877	-0.026503
C43	C	0.857761	0.210991	0.032293
C44	C	0.928814	0.181894	0.091105
C45	C	0.928815	0.246683	0.091117
C46	C	0.928814	-0.079392	0.091057
C47	C	0.928806	-0.144181	0.091042
C48	C	0.786715	-0.021198	-0.026563
C49	C	0.786716	0.043590	-0.026551
C50	C	0.857771	0.014488	0.032258
C51	C	0.857769	0.084740	0.032274
C52	C	0.857761	0.140739	0.032281
C53	C	0.600493	0.632168	0.022561
C54	C	0.513178	0.638761	0.019264
C55	C	0.362185	0.574692	0.051305
C56	C	0.353345	0.650789	0.013247
C57	C	0.442286	0.644094	0.016596
C58	C	0.273238	0.581385	0.047957
C59	C	1.115030	0.593317	0.041990
C60	C	1.202344	0.586724	0.045286
C61	C	0.857767	0.612733	-0.170910
C62	C	0.857769	0.612730	-0.239870
C63	C	0.857763	0.815949	0.032241
C64	C	0.857763	0.884915	0.032230
C65	C	0.807521	0.695906	-0.704767
C66	C	0.807519	0.695903	-0.639969
C67	C	0.857755	0.612749	-0.565986
C68	C	0.907989	0.529592	-0.556800
C69	C	0.907985	0.529595	-0.621597
C70	C	0.908005	0.529575	-0.295482
C71	C	0.908008	0.529578	-0.230683
C72	C	0.807539	0.695883	-0.313854
C73	C	0.807535	0.695887	-0.378651
C74	C	0.857764	0.612731	-0.369460
C75	C	0.857765	0.612734	-0.439721
C76	C	0.857761	0.612744	-0.495725
C77	C	0.857756	0.612752	0.235461
C78	C	0.857754	0.612755	0.304420
C79	C	1.115028	0.390110	0.042023
C80	C	1.202342	0.314551	0.045332
C81	C	0.857754	0.409545	0.235495
C82	C	0.857752	0.340582	0.304466
C83	C	1.115022	0.390119	0.245209
C84	C	1.202335	0.314563	0.317477
C85	C	0.600500	0.835365	-0.180659
C86	C	0.513188	0.910922	-0.252926
C87	C	0.600494	0.835375	0.022527
C88	C	0.513180	0.910934	0.019219
C89	C	0.857769	0.815940	-0.170944
C90	C	0.857771	0.884903	-0.239915
C91	C	1.193110	0.282859	0.005306
C92	C	1.275143	0.211872	0.008399
C93	C	1.366407	0.172575	0.051523
C94	C	1.375638	0.204273	0.091550
C95	C	1.293606	0.275263	0.088452
C96	C	0.907986	0.304404	0.378435
C97	C	0.907980	0.239615	0.443246
C98	C	0.857745	0.211000	0.434087
C99	C	0.807504	0.247184	0.360110
C100	C	0.807505	0.311977	0.295300
C101	C	1.293584	0.275285	0.313636
C102	C	1.375631	0.204301	0.381533
C103	C	1.366426	0.172591	0.453271
C104	C	1.275167	0.211875	0.457110
C105	C	1.193123	0.282863	0.389214
C106	C	0.421939	0.950207	-0.249085
C107	C	0.339892	1.021212	-0.316983
C108	C	0.349097	1.052926	-0.388720
C109	C	0.440355	1.013637	-0.392560
C110	C	0.522400	0.942638	-0.324663
C111	C	0.522412	0.942633	0.059238
C112	C	0.440379	1.013637	0.056127
C113	C	0.349115	1.052937	0.013000
C114	C	0.339885	1.021235	-0.027024
C115	C	0.421917	0.950237	-0.023917
C116	C	0.908016	0.913497	-0.230731
C117	C	0.908037	0.978286	-0.295530
C118	C	0.857807	1.014484	-0.369512
C119	C	0.807560	0.985883	-0.378694
C120	C	0.807545	0.921091	-0.313896
H121	H	0.986667	0.222985	0.139005
H122	H	1.267609	0.186073	-0.024196
H123	H	1.433195	0.114770	0.054040
H124	H	1.118826	0.314835	0.392352
O125	O	0.717773	0.006916	-0.083645
C126	C	0.654718	-0.038375	-0.135740
C127	C	0.732873	-0.070342	-0.071071
H128	H	0.666888	-0.100819	-0.125588
H129	H	0.658218	0.001760	-0.193769
H130	H	0.581139	0.007614	-0.135709
H131	H	0.806489	-0.116364	-0.071030
H132	H	0.729288	-0.110427	-0.013071
O133	O	1.266063	0.181205	0.526735
C134	C	1.157782	0.196151	0.594552
C135	C	1.167951	0.230991	0.515650
H136	H	1.078463	0.236374	0.585617
H137	H	1.193624	0.206223	0.628227
H138	H	1.193743	0.120008	0.628231
H139	H	1.131985	0.307139	0.481909
H140	H	1.132136	0.220850	0.482034
O141	O	1.446202	0.103707	0.519168
C142	C	1.591481	0.053112	0.595863
C143	C	1.501182	0.131189	0.521202
H144	H	1.635947	0.075311	0.597540
H145	H	1.636086	-0.010928	0.597562
H146	H	1.569218	0.037170	0.647791
H147	H	1.523359	0.147212	0.469234
H148	H	1.456599	0.195182	0.519571
H149	H	0.766617	0.763620	-0.765004
O150	O	0.956708	0.204407	0.515155
C151	C	1.001300	0.101197	0.651849
C152	C	0.946058	0.141010	0.570460
H153	H	0.992725	0.049919	0.696586
H154	H	0.971532	0.159240	0.657585
H155	H	1.080604	0.064912	0.661629
H156	H	0.866746	0.177285	0.560625
H157	H	0.975904	0.082930	0.564764
H158	H	0.414426	0.924391	-0.190680
H159	H	0.857752	0.158241	0.486866
H160	H	1.449956	0.172267	0.126661
O161	O	0.610966	0.904546	-0.328538
C162	C	0.701929	0.904570	-0.410684
C163	C	0.601574	0.947771	-0.406399
H164	H	0.694370	0.939512	-0.473629
H165	H	0.742858	0.828069	-0.380833
H166	H	0.742861	0.914186	-0.380752
H167	H	0.560562	0.938223	-0.436338
H168	H	0.560718	1.024255	-0.436226
O169	O	0.997921	-0.235353	0.148198
C170	C	1.138835	-0.350504	0.264872
C171	C	1.060640	-0.247231	0.200185
H172	H	1.189552	-0.360141	0.306929
H173	H	1.181011	-0.386840	0.238834
H174	H	1.103783	-0.380988	0.296771
H175	H	1.095614	-0.216667	0.168262
H176	H	1.018472	-0.210961	0.226269
O177	O	0.956665	0.448802	-0.484955
C178	C	0.975060	0.311727	-0.396604
C179	C	0.919838	0.403207	-0.477987
H180	H	0.945321	0.274828	-0.390950
H181	H	0.966420	0.325957	-0.351837
H182	H	1.054379	0.266640	-0.386791
H183	H	0.840501	0.448339	-0.487874
H184	H	0.928559	0.388909	-0.522711
H185	H	1.118806	0.314854	-0.029820
O186	O	0.610988	0.904593	0.101144
C187	C	0.701980	0.904538	0.183321
C188	C	0.601616	0.947706	0.135878
H189	H	0.694437	0.939364	0.211429
H190	H	0.742924	0.914211	0.143793
H191	H	0.742888	0.828025	0.229911
H192	H	0.560628	1.024230	0.089284
H193	H	0.560745	0.937960	0.175456
H194	H	0.766604	0.223876	0.352664
H195	H	0.766626	0.897818	-0.321385
O196	O	1.302752	0.305901	0.127417
C197	C	1.411108	0.290876	0.210194
C198	C	1.400878	0.256083	0.166115
H199	H	1.490437	0.250628	0.241479
H200	H	1.375281	0.280800	0.253953
H201	H	1.375166	0.367017	0.167730
H202	H	1.436825	0.179937	0.208521
H203	H	1.436679	0.266229	0.122345
O204	O	0.449239	1.044406	0.095069
C205	C	0.415008	1.066746	0.193206
C206	C	0.404881	1.031894	0.149147
H207	H	0.379169	1.056625	0.236949
H208	H	0.379088	1.142888	0.150791
H209	H	0.494336	1.026464	0.224531
H210	H	0.325578	1.072108	0.117819
H211	H	0.440861	0.955742	0.191599
O212	O	0.269463	1.121800	-0.454724
C213	C	0.179237	1.168247	-0.572853
C214	C	0.269477	1.090178	-0.498147
H215	H	0.179208	1.142703	-0.607973
H216	H	0.179199	1.228938	-0.608104
H217	H	0.112457	1.190882	-0.557756
H218	H	0.336305	1.067465	-0.513174
H219	H	0.269431	1.029539	-0.462917
H220	H	0.728851	0.446111	-0.074359
O221	O	0.450871	0.490954	0.093290
C222	C	0.562012	0.346922	0.218626
C223	C	0.461544	0.441729	0.171177
H224	H	0.570666	0.307089	0.281603
H225	H	0.619006	0.356325	0.213962
H226	H	0.570718	0.307138	0.195421
H227	H	0.452745	0.481563	0.194349
H228	H	0.404601	0.432261	0.175841
O229	O	0.956660	0.448862	-0.158779
C230	C	0.947414	0.357434	-0.039929
C231	C	0.892208	0.448886	-0.121331
H232	H	0.895326	0.357415	-0.009634
H233	H	1.004450	0.349133	-0.005401
H234	H	0.983337	0.298015	-0.044511
H235	H	0.856227	0.508359	-0.116820
H236	H	0.835226	0.457107	-0.155828
O237	O	0.251323	1.059234	-0.313105
C238	C	0.160357	1.059259	-0.230962
C239	C	0.260713	1.016108	-0.235245
H240	H	0.167914	1.024423	-0.168018
H241	H	0.119412	1.049586	-0.260813
H242	H	0.119442	1.135773	-0.260895
H243	H	0.301708	0.939584	-0.205305
H244	H	0.301585	1.025855	-0.205418
H245	H	0.948894	0.327695	0.385907
O246	O	0.956747	0.878495	-0.158913
C247	C	0.975083	0.910605	-0.070559
C248	C	0.919824	0.950368	-0.151921
H249	H	0.945239	0.968693	-0.064875
H250	H	1.054403	0.874311	-0.060717
H251	H	0.966474	0.859353	-0.025828
H252	H	0.928355	1.001656	-0.196703
H253	H	0.840526	0.986606	-0.161697
H254	H	0.766664	1.015366	-0.438939
H255	H	0.447838	1.039467	-0.450977
O256	O	0.758855	0.347081	0.223413
C257	C	0.768090	0.366111	0.104584
C258	C	0.823303	0.326332	0.185968
H259	H	0.820175	0.349334	0.074293
H260	H	0.711056	0.443850	0.070035
H261	H	0.732165	0.334541	0.109198
H262	H	0.859287	0.357831	0.181426
H263	H	0.880283	0.248591	0.220487
O264	O	0.269334	1.121943	0.009873
C265	C	0.096475	1.227976	-0.040167
C266	C	0.186740	1.149848	-0.036708
H267	H	0.029675	1.250547	-0.077813
H268	H	0.096412	1.288690	-0.065710
H269	H	0.096519	1.202482	0.020515
H270	H	0.186756	1.175255	-0.097365
H271	H	0.186768	1.089150	-0.011124
H272	H	0.986672	-0.103099	0.138943
H273	H	0.265567	1.053244	-0.062137
O274	O	0.412890	0.919363	-0.062690
C275	C	0.352016	0.850868	-0.079487
C276	C	0.362200	0.885773	-0.035503
H277	H	0.311016	0.823719	-0.057534
H278	H	0.426292	0.793324	-0.069850
H279	H	0.311141	0.909788	-0.143685
H280	H	0.403037	0.826915	0.028709
H281	H	0.287896	0.943342	-0.045203
O282	O	0.758804	0.776714	-0.450474
C283	C	0.740483	0.913739	-0.538854
C284	C	0.795738	0.822236	-0.457484
H285	H	0.770336	0.950561	-0.544553
H286	H	0.661164	0.958922	-0.548696
H287	H	0.749084	0.899440	-0.583576
H288	H	0.787215	0.836450	-0.412711
H289	H	0.875035	0.777082	-0.447708
H290	H	0.766616	0.763613	-0.647456
O291	O	0.717651	0.332994	-0.083480
C292	C	0.654304	0.287721	-0.135348
C293	C	0.732685	0.255741	-0.070853
H294	H	0.666420	0.225279	-0.125152
H295	H	0.657577	0.327930	-0.193476
H296	H	0.580838	0.333644	-0.135135
H297	H	0.806189	0.209784	-0.070994
H298	H	0.729327	0.215581	-0.012755
O299	O	0.956886	0.448719	-0.286417
C300	C	1.056501	0.283763	-0.197089
C301	C	1.001199	0.375267	-0.207240
H302	H	1.092326	0.224355	-0.133079
H303	H	1.113605	0.275427	-0.223241
H304	H	1.004448	0.283774	-0.227445
H305	H	1.053178	0.375320	-0.176882
H306	H	0.944083	0.383568	-0.181109
O307	O	0.857996	1.077330	-0.432392
C308	C	0.953102	1.109777	-0.500018
C309	C	0.953025	1.038523	-0.428766
H310	H	1.029922	1.078423	-0.497119
H311	H	0.920893	1.172883	-0.501253
H312	H	0.908527	1.130762	-0.554467
H313	H	0.997608	1.017464	-0.374280
H314	H	0.985197	0.975466	-0.427600
H315	H	1.301097	0.301093	0.255230
H316	H	0.948953	1.001565	-0.288039
H317	H	0.728860	0.120035	-0.074427
O318	O	0.997734	0.090662	0.148180
C319	C	1.060741	-0.063656	0.200263
C320	C	0.982620	0.039636	0.135586
H321	H	1.048560	-0.104941	0.190094
H322	H	1.057209	-0.078392	0.258284
H323	H	1.134336	-0.084106	0.200264
H324	H	0.908987	0.060157	0.135512
H325	H	0.986237	0.054315	0.077594
H326	H	0.766636	0.763593	-0.321331
O327	O	0.264614	0.734492	-0.028730
C328	C	0.113640	0.837808	-0.133723
C329	C	0.214107	0.743000	-0.086258
H330	H	0.072769	0.844710	-0.180235
H331	H	0.120958	0.894089	-0.161913
H332	H	0.072790	0.844790	-0.094118
H333	H	0.255012	0.735929	-0.125811
H334	H	0.206721	0.686766	-0.058059
O335	O	1.464216	0.166305	0.377688
C336	C	1.575174	0.191461	0.333859
C337	C	1.474821	0.234605	0.338149
H338	H	1.583788	0.246658	0.301907
H339	H	1.583827	0.160508	0.301843
H340	H	1.632231	0.135253	0.394708
H341	H	1.417703	0.290848	0.277329
H342	H	1.466251	0.265498	0.370206
H343	H	0.948887	0.461885	-0.614112
