data_functionalizedCrystal
_audit_creation_method	'MofGen! by Chris Wilmer'
_symmetry_space_group_name_H-M	'P1'
_symmetry_Int_Tables_number	1
_symmetry_cell_setting	triclinic
loop_
_symmetry_equiv_pos_as_xyz
  x,y,z
_cell_length_a	15.944551
_cell_length_b	22.010155
_cell_length_c	15.944551
_cell_angle_alpha	89.996699
_cell_angle_beta	83.498738
_cell_angle_gamma	90.003973
loop_
_atom_site_label
_atom_site_type_symbol
_atom_site_fract_x
_atom_site_fract_y
_atom_site_fract_z
O1	O	1.114530	0.050463	0.108320
O2	O	0.869981	0.050478	0.121677
O3	O	0.998934	0.050465	-0.007276
O4	O	0.985577	0.050477	0.237273
O5	O	0.998910	-0.050585	-0.007257
O6	O	0.869957	-0.050572	0.121696
O7	O	1.114507	-0.050587	0.108340
Cu8	Cu	0.992230	-0.059806	0.115020
Cu9	Cu	0.992258	0.059697	0.114997
O10	O	0.985554	-0.050574	0.237293
C11	C	0.838675	-0.000045	0.121132
C12	C	0.745429	-0.000039	0.119470
N13	N	0.992217	-0.143859	0.115035
C14	C	0.530572	-0.000055	0.035565
C15	C	0.469564	0.049770	0.074518
C16	C	0.574703	-0.000047	0.116462
C17	C	0.469563	-0.049858	0.074556
C18	C	0.409790	-0.000056	0.113551
C19	C	0.514923	0.049820	0.155437
C20	C	0.514928	-0.049853	0.155464
C21	C	0.453937	-0.000016	0.194476
C22	C	0.669705	-0.000040	0.118137
C23	C	0.314789	-0.000058	0.111883
C24	C	1.049361	-0.563644	0.057905
C25	C	1.049365	-0.627252	0.057899
O26	O	1.097918	-0.660148	0.009335
N27	N	0.992257	-0.659066	0.114979
C28	C	0.935136	-0.627269	0.172063
O29	O	0.886561	-0.660170	0.220614
C30	C	0.935128	-0.563663	0.172064
C31	C	0.992246	-0.531852	0.114986
C32	C	1.106474	-0.531833	0.000830
C33	C	1.106471	-0.468230	0.000837
C34	C	1.049355	-0.436438	0.057919
C35	C	0.992243	-0.468249	0.114993
C36	C	0.878004	-0.531867	0.229144
C37	C	0.878001	-0.468256	0.229140
C38	C	0.935118	-0.436445	0.172061
C39	C	0.935125	-0.372853	0.172082
N40	N	0.992233	-0.341039	0.115001
C41	C	1.049348	-0.372831	0.057920
C42	C	0.935154	-0.760847	0.172056
C43	C	0.935165	-0.824452	0.172059
C44	C	1.049394	-0.824430	0.057893
C45	C	1.049386	-0.760824	0.057895
C46	C	0.992262	-0.729033	0.114975
C47	C	1.049338	-0.239260	0.057939
C48	C	1.049332	-0.175651	0.057954
C49	C	0.935101	-0.175678	0.172116
C50	C	0.935109	-0.239282	0.172105
C51	C	0.992231	-0.271071	0.115010
O52	O	0.886594	-0.339916	0.220618
O53	O	1.097907	-0.339922	0.009370
C54	C	1.145813	-0.000063	0.108885
C55	C	1.239059	-0.000064	0.110547
C56	C	0.998367	-0.000060	-0.038561
C57	C	0.996705	-0.000061	-0.131807
N58	N	0.992278	0.143750	0.114975
C59	C	0.912801	-0.000047	-0.346663
C60	C	0.951752	-0.049873	-0.407671
C61	C	0.993698	-0.000056	-0.302533
C62	C	0.951794	0.049754	-0.407674
C63	C	0.990787	-0.000048	-0.467445
C64	C	1.032671	-0.049923	-0.362312
C65	C	1.032702	0.049749	-0.362308
C66	C	1.071711	-0.000089	-0.423298
C67	C	0.995372	-0.000061	-0.207530
C68	C	0.989119	-0.000048	-0.562446
C69	C	0.986120	-0.000047	0.268577
C70	C	0.987782	-0.000043	0.361823
H71	H	0.449463	0.091890	0.040294
H72	H	0.888607	-0.265183	0.218592
O73	O	1.160759	-0.000100	-0.467159
H74	H	1.170935	0.041289	-0.506778
O75	O	1.111000	-0.858731	-0.003671
H76	H	1.150723	-0.825929	-0.043359
O77	O	0.906426	-0.105670	-0.434298
H78	H	0.840484	-0.105566	-0.403310
O79	O	1.077946	-0.105786	-0.335838
H80	H	1.034330	-0.132970	-0.291399
H81	H	1.095847	-0.149753	0.011474
O82	O	0.442947	-0.105659	0.029237
H83	H	0.473951	-0.105553	-0.036700
O84	O	0.873498	-0.141371	0.233667
H85	H	0.884190	-0.153567	0.299163
O86	O	0.823861	-0.000111	-0.302532
H87	H	0.825888	0.000314	-0.233181
H88	H	0.420779	0.000015	0.261683
O89	O	1.078000	0.105541	-0.335639
H90	H	1.044298	0.146843	-0.353593
O91	O	0.906475	0.105554	-0.434294
H92	H	0.840538	0.105449	-0.403291
H93	H	0.535050	-0.091975	0.189660
O94	O	0.541420	0.105681	0.200700
H95	H	0.509939	0.105818	0.266454
H96	H	1.152978	-0.442333	-0.045643
O97	O	0.574659	-0.000019	-0.053393
H98	H	0.556600	0.041394	-0.086788
H99	H	1.152984	-0.557713	-0.045656
O100	O	1.110956	-0.273543	-0.003630
H101	H	1.150671	-0.240729	-0.043303
O102	O	1.110982	-0.726514	-0.003675
H103	H	1.150692	-0.759314	-0.043368
H104	H	0.888663	-0.850348	0.218547
H105	H	0.888639	-0.734966	0.218545
O106	O	0.816414	-0.566154	0.290741
H107	H	0.750933	-0.553952	0.280008
O108	O	0.816392	-0.433966	0.290711
H109	H	0.776686	-0.466776	0.330401
