data_functionalizedCrystal
_audit_creation_method	'MofGen! by Chris Wilmer'
_symmetry_space_group_name_H-M	'P1'
_symmetry_Int_Tables_number	1
_symmetry_cell_setting	triclinic
loop_
_symmetry_equiv_pos_as_xyz
  x,y,z
_cell_length_a	25.639239
_cell_length_b	17.077404
_cell_length_c	17.077396
_cell_angle_alpha	90.019699
_cell_angle_beta	89.968926
_cell_angle_gamma	89.964245
loop_
_atom_site_label
_atom_site_type_symbol
_atom_site_fract_x
_atom_site_fract_y
_atom_site_fract_z
Zn1	Zn	-0.208192	-1.199968	-0.443833
Zn2	Zn	0.291808	-0.699968	0.056167
Zn3	Zn	-0.295629	-1.199839	-0.312561
Zn4	Zn	0.204371	-0.699839	0.187439
Zn5	Zn	-0.208205	-1.068700	-0.312580
Zn6	Zn	0.291795	-0.568700	0.187420
Zn7	Zn	-0.295593	-1.068632	-0.443784
Zn8	Zn	0.204407	-0.568632	0.056216
O9	O	-0.251905	-1.134285	-0.378189
O10	O	0.248095	-0.634285	0.121811
O11	O	-0.219800	-1.309798	-0.426431
O12	O	0.280200	-0.809798	0.073569
O13	O	-0.284053	-1.182418	-0.202716
O14	O	0.215947	-0.682418	0.297284
O15	O	-0.135038	-1.086196	-0.330020
O16	O	0.364962	-0.586196	0.169980
O17	O	-0.284040	-1.309703	-0.329986
O18	O	0.215960	-0.809703	0.170014
O19	O	-0.135028	-1.182638	-0.426450
O20	O	0.364972	-0.682638	0.073550
O21	O	-0.219823	-1.086071	-0.202731
O22	O	0.280177	-0.586071	0.297269
O23	O	-0.219788	-0.958844	-0.329972
O24	O	0.280212	-0.458844	0.170028
O25	O	-0.283979	-1.086080	-0.553637
O26	O	0.216021	-0.586080	-0.053637
O27	O	-0.283992	-0.958794	-0.426367
O28	O	0.216008	-0.458794	0.073633
O29	O	-0.219765	-1.182572	-0.553673
O30	O	0.280235	-0.682572	-0.053673
O31	O	-0.368790	-1.182352	-0.329939
O32	O	0.131210	-0.682352	0.170061
O33	O	-0.368763	-1.085954	-0.426348
O34	O	0.131237	-0.585954	0.073652
C35	C	-0.251888	-0.930337	-0.378167
C36	C	0.248112	-0.430337	0.121833
C37	C	-0.251893	-0.843087	-0.378176
C38	C	0.248107	-0.343087	0.121824
C39	C	-0.218503	-0.802147	-0.428471
C40	C	0.281497	-0.302147	0.071529
C41	C	-0.218505	-0.720167	-0.428472
C42	C	0.281495	-0.220167	0.071528
C43	C	-0.251901	-0.679128	-0.378183
C44	C	0.248099	-0.179128	0.121817
C45	C	-0.285294	-0.720074	-0.327883
C46	C	0.214706	-0.220074	0.172117
C47	C	-0.285288	-0.802053	-0.327878
C48	C	0.214712	-0.302053	0.172122
C49	C	-0.285304	-0.549204	-0.327898
C50	C	0.214696	-0.049204	0.172102
C51	C	-0.285310	-0.467219	-0.327904
C52	C	0.214690	0.032781	0.172096
C53	C	-0.218521	-0.467318	-0.428493
C54	C	0.281479	0.032682	0.071507
C55	C	-0.218515	-0.549297	-0.428488
C56	C	0.281485	-0.049297	0.071512
C57	C	-0.251908	-0.590237	-0.378189
C58	C	0.248092	-0.090237	0.121811
C59	C	-0.387748	-1.134153	-0.378153
C60	C	0.112252	-0.634153	0.121847
C61	C	-0.445862	-1.134168	-0.378164
C62	C	0.054138	-0.634168	0.121836
C63	C	-0.806226	-1.184610	-0.328075
C64	C	-0.306226	-0.684610	0.171925
C65	C	-0.860830	-1.184641	-0.328085
C66	C	-0.360830	-0.684641	0.171915
O67	O	-0.889068	-1.227391	-0.285458
O68	O	-0.389068	-0.727391	0.214542
N69	N	-0.888144	-1.134423	-0.378241
N70	N	-0.388144	-0.634423	0.121759
C71	C	-0.860851	-1.084177	-0.428396
C72	C	-0.360851	-0.584177	0.071604
O73	O	-0.889097	-1.041467	-0.471059
O74	O	-0.389097	-0.541467	0.028941
C75	C	-0.806247	-1.084151	-0.428389
C76	C	-0.306247	-0.584151	0.071611
C77	C	-0.778936	-1.134367	-0.378224
C78	C	-0.278936	-0.634367	0.121776
C79	C	-0.778915	-1.234822	-0.277914
C80	C	-0.278915	-0.734822	0.222086
C81	C	-0.724314	-1.234790	-0.277903
C82	C	-0.224314	-0.734790	0.222097
C83	C	-0.697025	-1.184547	-0.328052
C84	C	-0.197025	-0.684547	0.171948
C85	C	-0.724336	-1.134335	-0.378212
C86	C	-0.224336	-0.634335	0.121788
C87	C	-0.778955	-1.033910	-0.478547
C88	C	-0.278955	-0.533910	0.021453
C89	C	-0.724348	-1.033889	-0.478536
C90	C	-0.224348	-0.533889	0.021464
C91	C	-0.697037	-1.084104	-0.428371
C92	C	-0.197037	-0.584104	0.071629
C93	C	-0.642446	-1.084060	-0.428350
C94	C	-0.142446	-0.584060	0.071650
N95	N	-0.615132	-1.134277	-0.378194
N96	N	-0.115132	-0.634277	0.121806
C97	C	-0.642421	-1.184521	-0.328045
C98	C	-0.142421	-0.684521	0.171955
C99	C	-0.975521	-1.084236	-0.428408
C100	C	-0.475521	-0.584236	0.071592
C101	C	-1.030124	-1.084258	-0.428412
C102	C	-0.530124	-0.584258	0.071588
C103	C	-1.030099	-1.184722	-0.328102
C104	C	-0.530099	-0.684722	0.171898
C105	C	-0.975496	-1.184696	-0.328095
C106	C	-0.475496	-0.684696	0.171905
C107	C	-0.948207	-1.134454	-0.378252
C108	C	-0.448207	-0.634454	0.121748
C109	C	-0.527756	-1.184450	-0.328024
C110	C	-0.027756	-0.684450	0.171976
C111	C	-0.473151	-1.184412	-0.328015
C112	C	0.026849	-0.684412	0.171985
C113	C	-0.473180	-1.083951	-0.428328
C114	C	0.026820	-0.583951	0.071672
C115	C	-0.527781	-1.083986	-0.428334
C116	C	-0.027781	-0.583986	0.071666
C117	C	-0.555067	-1.134242	-0.378180
C118	C	-0.055067	-0.634242	0.121820
O119	O	-0.614174	-1.041333	-0.470958
O120	O	-0.114174	-0.541333	0.029042
O121	O	-0.614168	-1.227232	-0.285396
O122	O	-0.114168	-0.727232	0.214604
C123	C	-0.115532	-1.134439	-0.378243
C124	C	0.384468	-0.634439	0.121757
C125	C	-0.057418	-1.134504	-0.378265
C126	C	0.442582	-0.634504	0.121735
C127	C	-0.251866	-1.134332	-0.582934
C128	C	0.248134	-0.634332	-0.082934
C129	C	-0.251850	-1.134353	-0.670184
C130	C	0.248150	-0.634353	-0.170184
C131	C	-0.251920	-0.339029	-0.378206
C132	C	0.248080	0.160971	0.121794
C133	C	-0.251919	-0.426279	-0.378199
C134	C	0.248081	0.073721	0.121801
C135	C	-0.218411	-1.184598	-0.711194
C136	C	0.281589	-0.684598	-0.211194
C137	C	-0.218394	-1.184608	-0.793174
C138	C	0.281606	-0.684608	-0.293174
C139	C	-0.251818	-1.134375	-0.834143
C140	C	0.248182	-0.634375	-0.334143
C141	C	-0.285259	-1.084124	-0.793127
C142	C	0.214741	-0.584124	-0.293127
C143	C	-0.285273	-1.084111	-0.711148
C144	C	0.214727	-0.584111	-0.211148
C145	C	-0.285227	-1.084156	-0.963997
C146	C	0.214773	-0.584156	-0.463997
C147	C	-0.285214	-1.084169	-1.045982
C148	C	0.214786	-0.584169	-0.545982
C149	C	-0.218348	-1.184652	-1.046023
C150	C	0.281652	-0.684652	-0.546023
C151	C	-0.218362	-1.184639	-0.964044
C152	C	0.281638	-0.684639	-0.464044
C153	C	-0.251803	-1.134389	-0.923034
C154	C	0.248197	-0.634389	-0.423034
C155	C	-0.251906	-1.134283	-0.174241
C156	C	0.248094	-0.634283	0.325759
C157	C	-0.251775	-1.134415	-0.086992
C158	C	0.248225	-0.634415	0.413008
H159	H	-0.312478	-0.835385	-0.286922
H160	H	0.187522	-0.335385	0.213078
H161	H	-0.191316	-0.686837	-0.469429
H162	H	0.308684	-0.186837	0.030571
N163	N	-0.321313	-1.029950	-0.837313
N164	N	0.178687	-0.529950	-0.337313
H165	H	-0.342498	-0.998117	-0.798892
H166	H	0.157502	-0.498117	-0.298892
H167	H	-0.300023	-0.993653	-0.871332
H168	H	0.199977	-0.493653	-0.371332
N169	N	-0.321334	-1.029911	-0.666912
N170	N	0.178666	-0.529911	-0.166912
H171	H	-0.342506	-0.998090	-0.705303
H172	H	0.157494	-0.498090	-0.205303
H173	H	-0.345540	-1.061824	-0.632889
H174	H	0.154460	-0.561824	-0.132889
H175	H	-0.191309	-0.835555	-0.469424
H176	H	0.308691	-0.335555	0.030576
N177	N	-0.182500	-0.593563	-0.482733
N178	N	0.317500	-0.093563	0.017267
H179	H	-0.161346	-0.555190	-0.514598
H180	H	0.338654	-0.055190	-0.014598
H181	H	-0.158276	-0.627584	-0.450844
H182	H	0.341724	-0.127584	0.049156
H183	H	-0.801128	-1.275740	-0.237077
H184	H	-0.301128	-0.775740	0.262923
H185	H	-1.052356	-1.043360	-0.469254
H186	H	-0.552356	-0.543360	0.030746
H187	H	-0.191330	-0.433980	-0.469447
H188	H	0.308670	0.066020	0.030553
N189	N	-0.557238	-1.029820	-0.482435
N190	N	-0.057238	-0.529820	0.017565
H191	H	-0.579854	-1.061713	-0.518849
H192	H	-0.079854	-0.561713	-0.018849
H193	H	-0.579904	-0.993485	-0.450452
H194	H	-0.079904	-0.493485	0.049548
H195	H	-0.953306	-1.043317	-0.469250
H196	H	-0.453306	-0.543317	0.030750
H197	H	-0.953262	-1.225586	-0.287247
H198	H	-0.453262	-0.725586	0.212753
H199	H	-0.702133	-0.992977	-0.519382
H200	H	-0.202133	-0.492977	-0.019382
N201	N	-0.443694	-1.238576	-0.273909
N202	N	0.056306	-0.738576	0.226091
H203	H	-0.469271	-1.270412	-0.242146
H204	H	0.030729	-0.770412	0.257854
H205	H	-0.421001	-1.274871	-0.305893
H206	H	0.078999	-0.774871	0.194107
H207	H	-0.549967	-1.225375	-0.287186
H208	H	-0.049967	-0.725375	0.212814
H209	H	-0.191166	-1.225524	-0.826561
H210	H	0.308834	-0.725524	-0.326561
H211	H	-0.312483	-0.686653	-0.286932
H212	H	0.187517	-0.186653	0.213068
H213	H	-0.312505	-0.433807	-0.286954
H214	H	0.187495	0.066193	0.213046
H215	H	-0.702080	-1.275682	-0.237057
H216	H	-0.202080	-0.775682	0.262943
N217	N	-0.321321	-0.593364	-0.273651
N218	N	0.178679	-0.093364	0.226349
H219	H	-0.300040	-0.627378	-0.237329
H220	H	0.199960	-0.127378	0.262671
H221	H	-0.342473	-0.554880	-0.241847
H222	H	0.157527	-0.054880	0.258153
N223	N	-1.059538	-1.238915	-0.274010
N224	N	-0.559538	-0.738915	0.225990
H225	H	-1.098272	-1.231309	-0.281632
H226	H	-0.598272	-0.731309	0.218368
H227	H	-1.049954	-1.294966	-0.286278
H228	H	-0.549954	-0.794966	0.213722
N229	N	-0.808403	-0.979745	-0.532650
N230	N	-0.308403	-0.479745	-0.032650
H231	H	-0.782822	-0.947919	-0.564415
H232	H	-0.282822	-0.447919	-0.064415
H233	H	-0.831022	-1.011685	-0.569013
H234	H	-0.331022	-0.511685	-0.069013
H235	H	-0.191195	-1.225506	-0.677843
H236	H	0.308805	-0.725506	-0.177843
H237	H	-0.450953	-1.043040	-0.469156
H238	H	0.049047	-0.543040	0.030844
N239	N	-0.321252	-1.029990	-1.090190
N240	N	0.178748	-0.529990	-0.590190
H241	H	-0.358617	-1.042119	-1.075923
H242	H	0.141383	-0.542119	-0.575923
H243	H	-0.313079	-0.973931	-1.075910
H244	H	0.186921	-0.473931	-0.575910
N245	N	-0.182317	-1.238823	-0.919853
N246	N	0.317683	-0.738823	-0.419853
H247	H	-0.161129	-1.270657	-0.958271
H248	H	0.338871	-0.770657	-0.458271
H249	H	-0.158125	-1.206892	-0.885843
H250	H	0.341875	-0.706892	-0.385843
N251	N	-0.182273	-1.238852	-1.090239
N252	N	0.317727	-0.738852	-0.590239
H253	H	-0.203515	-1.275211	-1.124254
H254	H	0.296485	-0.775211	-0.624254
H255	H	-0.158037	-1.206932	-1.124207
H256	H	0.341963	-0.706932	-0.624207
N257	N	-0.321292	-1.029955	-0.919762
N258	N	0.178708	-0.529955	-0.419762
H259	H	-0.342466	-0.998136	-0.958154
H260	H	0.157534	-0.498136	-0.458154
H261	H	-0.345497	-1.061876	-0.885744
H262	H	0.154503	-0.561876	-0.385744
