data_functionalizedCrystal
_audit_creation_method	'MofGen! by Chris Wilmer'
_symmetry_space_group_name_H-M	'P1'
_symmetry_Int_Tables_number	1
_symmetry_cell_setting	triclinic
loop_
_symmetry_equiv_pos_as_xyz
  x,y,z
_cell_length_a	14.628931
_cell_length_b	14.628931
_cell_length_c	14.628931
_cell_angle_alpha	90.000000
_cell_angle_beta	60.000000
_cell_angle_gamma	60.000193
loop_
_atom_site_label
_atom_site_type_symbol
_atom_site_fract_x
_atom_site_fract_y
_atom_site_fract_z
Zr1	Zr	1.000581	0.880618	-0.119963
O2	O	1.191285	0.734658	-0.265924
O3	O	0.809875	0.925362	-0.075218
O4	O	1.000580	0.925363	-0.265924
O5	O	1.000581	0.734657	0.075213
O6	O	1.000581	1.075795	-0.265924
O7	O	1.000580	0.734657	-0.075218
O8	O	0.659444	1.075794	0.075213
O9	O	1.341717	0.734658	-0.265924
O10	O	0.888316	1.056711	-0.056136
O11	O	0.888316	0.944445	0.056130
O12	O	1.112846	0.944446	-0.168401
O13	O	1.112846	0.832181	-0.056136
Zr14	Zr	1.000582	1.120539	0.119957
Zr15	Zr	1.000581	1.120539	-0.119964
Zr16	Zr	1.000581	0.880618	0.119958
Zr17	Zr	1.240502	0.880618	-0.119964
Zr18	Zr	0.760661	1.120539	0.119958
O19	O	1.191287	1.075794	0.075213
O20	O	1.191286	1.075795	-0.265924
O21	O	1.191286	0.734657	0.075213
O22	O	0.809877	1.266499	0.265918
O23	O	0.809876	1.266499	-0.075219
O24	O	0.809876	0.925362	0.265919
O25	O	1.000582	1.266500	-0.075219
O26	O	1.000582	1.075794	0.265918
O27	O	1.000582	0.925362	0.265918
O28	O	1.000582	1.266500	0.075213
O29	O	1.341718	0.925364	-0.265924
O30	O	0.659445	1.075793	0.265919
O31	O	0.659445	1.266499	0.265918
O32	O	0.659445	1.266499	0.075213
O33	O	1.341718	0.734658	-0.075219
O34	O	1.341718	0.925363	-0.075219
O35	O	0.888316	1.056711	0.168395
O36	O	0.888316	1.168976	0.056130
O37	O	1.112847	1.056711	-0.056136
O38	O	1.112847	0.944446	0.056130
C39	C	0.700476	1.000578	-0.000002
C40	C	0.598623	1.000578	-0.000002
C41	C	0.553214	1.056269	-0.055694
C42	C	0.447944	1.056270	-0.055695
C43	C	1.000581	0.700474	-0.000002
C44	C	1.000580	0.598621	-0.000002
C45	C	0.889200	0.503636	0.055688
C46	C	0.889198	0.608908	0.055689
C47	C	1.300687	1.000579	-0.000003
C48	C	1.402540	1.000579	-0.000003
C49	C	1.000581	1.000579	-0.300108
C50	C	1.000580	1.000579	-0.401961
C51	C	1.000582	1.300683	-0.000003
C52	C	1.000583	1.402536	-0.000003
C53	C	1.111962	0.944888	-0.503061
C54	C	1.111965	0.944887	-0.608333
C55	C	1.000582	1.000578	0.300102
C56	C	1.000583	1.000578	0.401955
C57	C	0.700477	1.300683	-0.000003
C58	C	0.598624	1.402536	-0.000003
C59	C	0.700477	1.000578	0.300102
C60	C	0.598624	1.000577	0.401955
C61	C	0.700478	1.300682	0.300102
C62	C	0.598626	1.402535	0.401955
C63	C	1.300685	0.700475	-0.300108
C64	C	1.402537	0.598622	-0.401961
C65	C	1.300686	0.700474	-0.000003
C66	C	1.402538	0.598621	-0.000003
C67	C	1.300686	1.000579	-0.300108
C68	C	1.402538	1.000580	-0.401961
C69	C	0.553215	1.392253	-0.055694
C70	C	0.447945	1.497522	-0.055695
C71	C	0.553216	1.056268	0.503056
C72	C	0.447946	1.056269	0.608327
C73	C	0.553217	1.503635	0.391673
C74	C	0.447947	1.608907	0.496941
H75	H	0.408899	1.103945	-0.103379
H76	H	0.592265	1.103953	-0.103368
Br77	Br	0.467625	0.921092	0.079462
Br78	Br	0.730256	0.518019	0.135151
H79	H	0.559571	1.489272	0.047671
Br80	Br	0.618318	1.135728	0.517438
Br81	Br	0.730251	0.753462	0.135174
H82	H	1.207323	0.897201	-0.695063
Br83	Br	0.841636	1.080062	-0.387578
Br84	Br	0.618314	1.247692	-0.135176
Br85	Br	0.533545	0.921094	0.387573
Br86	Br	0.382853	1.483129	-0.135158
H87	H	0.905219	1.048254	-0.511319
Br88	Br	1.159533	0.454070	-0.079468
H89	H	0.441578	1.607254	0.047686
Br90	Br	0.618316	1.518018	0.247111
H91	H	0.559562	0.952902	0.047679
H92	H	0.408894	1.103950	0.695057
Br93	Br	1.270907	0.865427	-0.517444
Br94	Br	0.533547	1.388152	0.546517
H95	H	0.441581	1.511892	0.606674
Br96	Br	0.382855	1.753461	0.482548
H97	H	1.095939	0.393916	-0.047687
H98	H	0.441580	0.952902	0.511314
