data_functionalizedCrystal
_audit_creation_method	'MofGen! by Chris Wilmer'
_symmetry_space_group_name_H-M	'P1'
_symmetry_Int_Tables_number	1
_symmetry_cell_setting	triclinic
loop_
_symmetry_equiv_pos_as_xyz
  x,y,z
_cell_length_a	12.759401
_cell_length_b	15.299816
_cell_length_c	12.759393
_cell_angle_alpha	80.349000
_cell_angle_beta	90.020938
_cell_angle_gamma	80.352053
loop_
_atom_site_label
_atom_site_type_symbol
_atom_site_fract_x
_atom_site_fract_y
_atom_site_fract_z
Zn1	Zn	1.678551	-0.358974	0.666432
Zn2	Zn	1.708816	-0.509814	0.521179
Zn3	Zn	1.502860	-0.359022	0.490777
Zn4	Zn	1.533203	-0.509751	0.696804
O5	O	1.605858	-0.434390	0.593798
O6	O	1.829588	-0.378989	0.647177
O7	O	1.681463	-0.489858	0.370135
O8	O	1.500801	-0.232808	0.488643
O9	O	1.851824	-0.489811	0.540460
O10	O	1.629881	-0.232772	0.617696
O11	O	1.530147	-0.379071	0.347798
O12	O	1.359863	-0.379010	0.518094
O13	O	1.552517	-0.489704	0.839787
O14	O	1.382156	-0.489750	0.669461
O15	O	1.659303	-0.378928	0.817473
O16	O	1.710886	-0.636014	0.569911
O17	O	1.581864	-0.635967	0.698941
C18	C	1.332888	-0.434379	0.593775
C19	C	1.216115	-0.434396	0.593794
C20	C	1.652980	-0.668715	0.641044
C21	C	1.673235	-0.768960	0.661291
C22	C	1.172906	-0.492146	0.672523
C23	C	1.063183	-0.492150	0.672545
C24	C	1.039886	-0.376650	0.515099
C25	C	1.149607	-0.376643	0.515083
C26	C	1.461779	-1.051906	0.449446
C27	C	1.442743	-0.957721	0.430426
C28	C	1.500364	-0.910526	0.488140
C29	C	1.577025	-0.957525	0.564879
C30	C	1.596058	-1.051720	0.583907
C31	C	1.634643	-0.910340	0.622601
C32	C	1.711304	-0.957339	0.699339
C33	C	1.730333	-1.051525	0.718364
C34	C	1.672712	-1.098719	0.660649
C35	C	1.615611	-0.816145	0.603572
C36	C	1.749890	-0.815959	0.738033
C37	C	1.768926	-0.910145	0.757054
C38	C	1.879893	-0.434402	0.593822
C39	C	1.996671	-0.434407	0.593832
C40	C	1.605919	-0.434304	0.867814
C41	C	1.605945	-0.434267	0.984583
C42	C	1.558580	-0.199151	0.546391
C43	C	1.538433	-0.098905	0.526189
C44	C	1.605844	-0.434411	0.320835
C45	C	1.605970	-0.434194	0.204015
C46	C	1.661552	-0.376577	1.027826
C47	C	1.661562	-0.376538	1.137542
C48	C	1.550357	-0.491887	1.160765
C49	C	1.550341	-0.491920	1.051050
H50	H	1.227054	-0.539170	0.736617
O51	O	1.191727	-0.320668	0.438572
C52	C	1.265455	-0.371943	0.380931
H53	H	1.295661	-0.440329	0.431639
H54	H	1.335215	-0.335189	0.359506
H55	H	1.225111	-0.381772	0.305039
H56	H	1.414867	-1.090341	0.402468
H57	H	1.028008	-0.539174	0.736655
O58	O	1.715416	-0.320438	0.963282
C59	C	1.674407	-0.230543	0.971998
H60	H	1.589563	-0.225980	1.001225
H61	H	1.674492	-0.186005	0.890870
H62	H	1.726003	-0.206952	1.030946
H63	H	1.553193	-0.777887	0.541091
O64	O	1.496462	-0.548095	1.009110
C65	C	1.537471	-0.637977	1.054052
H66	H	1.622322	-0.642528	1.085149
H67	H	1.537366	-0.682551	0.990872
H68	H	1.485886	-0.661531	1.122474
O69	O	1.691026	-1.190214	0.679218
C70	C	1.596678	-1.221735	0.712443
H71	H	1.542258	-1.167459	0.747250
H72	H	1.616891	-1.284714	0.775541
H73	H	1.554593	-1.238520	0.641409
O74	O	1.481687	-0.819035	0.469665
C75	C	1.374644	-0.787621	0.490244
H76	H	1.325112	-0.841956	0.483224
H77	H	1.343270	-0.724654	0.430118
H78	H	1.368992	-0.770849	0.574028
O79	O	0.975133	-0.320638	0.438692
C80	C	0.869021	-0.333010	0.455602
H81	H	0.868058	-0.402651	0.503913
H82	H	0.826033	-0.326809	0.375674
H83	H	0.827168	-0.279578	0.500889
O84	O	1.368283	-0.912208	0.355809
C85	C	1.321491	-0.974057	0.308964
H86	H	1.378084	-1.041169	0.318924
H87	H	1.304846	-0.946907	0.220691
H88	H	1.243706	-0.984106	0.349393
O89	O	1.804729	-1.097079	0.793033
C90	C	1.777050	-1.074029	0.893073
H91	H	1.722845	-1.005672	0.881412
H92	H	1.852186	-1.070714	0.939571
H93	H	1.733740	-1.127060	0.939130
O94	O	1.843306	-0.955710	0.831733
C95	C	1.815609	-0.932663	0.931769
H96	H	1.761420	-0.864298	0.920103
H97	H	1.890738	-0.929366	0.978290
H98	H	1.772275	-0.985685	0.977807
O99	O	1.805808	-0.769985	0.793975
C100	C	1.772556	-0.676774	0.760742
H101	H	1.735607	-0.663992	0.677049
H102	H	1.844001	-0.640912	0.760694
H103	H	1.711173	-0.650045	0.817610
O104	O	1.715409	-0.320400	1.179572
C105	C	1.643897	-0.262135	1.231301
H106	H	1.560026	-0.256574	1.197100
H107	H	1.667947	-0.192729	1.218557
H108	H	1.645893	-0.289987	1.320073
O109	O	1.496445	-0.547864	1.225489
C110	C	1.508361	-0.535450	1.331598
H111	H	1.583509	-0.505914	1.340645
H112	H	1.514815	-0.602993	1.386907
H113	H	1.436396	-0.487408	1.353044
