data_functionalizedCrystal
_audit_creation_method	'MofGen! by Chris Wilmer'
_symmetry_space_group_name_H-M	'P1'
_symmetry_Int_Tables_number	1
_symmetry_cell_setting	triclinic
loop_
_symmetry_equiv_pos_as_xyz
  x,y,z
_cell_length_a	19.121241
_cell_length_b	19.121111
_cell_length_c	19.120904
_cell_angle_alpha	85.256407
_cell_angle_beta	89.875472
_cell_angle_gamma	84.995459
loop_
_atom_site_label
_atom_site_type_symbol
_atom_site_fract_x
_atom_site_fract_y
_atom_site_fract_z
Zn1	Zn	1.043551	0.254511	-0.452560
Zn2	Zn	1.043461	0.367162	-0.339911
Zn3	Zn	0.931336	0.254093	-0.330312
Zn4	Zn	0.920826	0.377148	-0.452504
O5	O	0.984793	0.313228	-0.393822
O6	O	1.141824	0.265450	-0.441657
O7	O	1.032948	0.347809	-0.240356
O8	O	0.950657	0.155504	-0.342535
O9	O	1.141758	0.348214	-0.358894
O10	O	1.033101	0.155812	-0.432350
O11	O	0.950570	0.264737	-0.233304
O12	O	0.831656	0.274420	-0.342481
O13	O	0.932744	0.365235	-0.550793
O14	O	0.823934	0.364829	-0.432255
O15	O	1.022910	0.275134	-0.550834
O16	O	1.022757	0.467131	-0.358840
O17	O	0.932657	0.474467	-0.441562
C18	C	0.802311	0.320663	-0.386321
C19	C	0.724242	0.323862	-0.383129
C20	C	0.687594	0.282348	-0.424792
C21	C	0.614241	0.285350	-0.421787
C22	C	0.577537	0.329869	-0.377123
C23	C	0.614190	0.371385	-0.335456
C24	C	0.687542	0.368379	-0.338458
C25	C	0.356060	0.341094	-0.365896
C26	C	0.282703	0.344098	-0.362899
C27	C	0.282759	0.258062	-0.449230
C28	C	0.356112	0.255063	-0.452230
C29	C	0.392759	0.296576	-0.410561
C30	C	0.502558	0.332940	-0.374052
C31	C	0.467737	0.293501	-0.413629
C32	C	0.976575	0.496376	-0.401253
C33	C	0.973123	0.574726	-0.404458
C34	C	1.018444	0.607692	-0.362934
C35	C	1.015201	0.681310	-0.365953
C36	C	0.966633	0.721961	-0.410493
C37	C	0.921310	0.688990	-0.452022
C38	C	0.924557	0.615373	-0.449006
C39	C	0.954484	0.944429	-0.421754
C40	C	0.951239	1.018051	-0.424765
C41	C	1.045132	1.010365	-0.338696
C42	C	1.048371	0.936747	-0.335682
C43	C	1.003051	0.903783	-0.377213
C44	C	0.963315	0.797211	-0.413578
C45	C	1.006372	0.828534	-0.374131
C46	C	1.167988	0.305765	-0.401352
C47	C	1.246055	0.302584	-0.404561
C48	C	0.976665	0.321345	-0.577010
C49	C	0.973201	0.324803	-0.655073
C50	C	0.993055	1.129366	-0.386386
C51	C	0.996560	1.051017	-0.383240
C52	C	1.018516	0.279520	-0.691770
C53	C	1.015252	0.282767	-0.765119
C54	C	0.966678	0.331302	-0.801770
C55	C	0.921358	0.376588	-0.765068
C56	C	0.924618	0.373336	-0.691720
C57	C	0.954482	0.343463	-1.023231
C58	C	0.951227	0.346712	-1.096584
C59	C	1.045121	0.252890	-1.096630
C60	C	1.048379	0.249646	-1.023281
C61	C	1.003058	0.294929	-0.986585
C62	C	0.963343	0.334624	-0.876744
C63	C	1.006390	0.291603	-0.911612
C64	C	0.992933	0.305091	-0.211346
C65	C	0.996542	0.301428	-0.133280
H66	H	0.252820	0.380354	-0.326528
H67	H	1.045936	0.252083	-0.881767
O68	O	1.064135	0.233929	-0.804698
H69	H	1.032832	0.200818	-0.835363
H70	H	0.881805	0.416104	-0.794914
O71	O	0.727182	0.234326	-0.472961
H72	H	0.689373	0.205957	-0.501419
O73	O	0.395703	0.207047	-0.500403
H74	H	0.432121	0.168382	-0.468936
O75	O	0.243234	0.213286	-0.494167
H76	H	0.260325	0.156838	-0.480543
H77	H	1.082030	1.037213	-0.304885
H78	H	0.923796	0.374145	-0.906593
H79	H	0.385889	0.374897	-0.331967
O80	O	0.898822	0.399056	-1.136112
H81	H	0.904174	0.393710	-1.193280
H82	H	0.584300	0.407630	-0.299086
O83	O	0.574711	0.240575	-0.466721
H84	H	0.612557	0.209119	-0.498288
H85	H	1.082018	0.216022	-1.126515
O86	O	0.898857	1.061901	-0.472812
H87	H	0.867893	1.026611	-0.501191
O88	O	1.100769	0.197295	-0.983752
H89	H	1.136570	0.225913	-0.953089
O90	O	1.064080	0.716864	-0.321158
H91	H	1.096924	0.750291	-0.355458
H92	H	0.917581	0.917595	-0.455569
H93	H	0.917588	0.380346	-0.993363
H94	H	0.887712	0.410205	-0.661842
O95	O	1.058756	0.784690	-0.326096
H96	H	1.089732	0.819977	-0.297727
O97	O	0.868918	0.732837	-0.500053
H98	H	0.897255	0.766647	-0.538470
O99	O	0.727076	0.413154	-0.293524
H100	H	0.689231	0.444621	-0.261966
H101	H	0.497625	0.257250	-0.449991
O102	O	0.462967	0.380956	-0.325879
H103	H	0.474038	0.436254	-0.340653
O104	O	1.070832	0.563847	-0.314897
H105	H	1.101806	0.599142	-0.286536
H106	H	1.087920	0.903650	-0.299414
O107	O	0.875667	0.579812	-0.493784
H108	H	0.841342	0.620445	-0.525255
O109	O	0.910921	0.841062	-0.461601
H110	H	0.939259	0.874871	-0.500019
O111	O	1.070907	0.227171	-0.652240
H112	H	1.101864	0.196224	-0.690083
