data_functionalizedCrystal
_audit_creation_method	'MofGen! by Chris Wilmer'
_symmetry_space_group_name_H-M	'P1'
_symmetry_Int_Tables_number	1
_symmetry_cell_setting	triclinic
loop_
_symmetry_equiv_pos_as_xyz
  x,y,z
_cell_length_a	19.121073
_cell_length_b	12.759401
_cell_length_c	12.759393
_cell_angle_alpha	90.017380
_cell_angle_beta	92.400439
_cell_angle_gamma	87.529424
loop_
_atom_site_label
_atom_site_type_symbol
_atom_site_fract_x
_atom_site_fract_y
_atom_site_fract_z
Zn1	Zn	-0.279567	-1.588298	-0.611755
Zn2	Zn	-0.397036	-1.580655	-0.443543
Zn3	Zn	-0.279604	-1.412601	-0.436097
Zn4	Zn	-0.396981	-1.405052	-0.619181
O5	O	-0.338297	-1.496652	-0.527644
O6	O	-0.295156	-1.734305	-0.589450
O7	O	-0.381496	-1.558324	-0.295537
O8	O	-0.181315	-1.442266	-0.453174
O9	O	-0.381460	-1.728690	-0.465865
O10	O	-0.181287	-1.571349	-0.582229
O11	O	-0.295220	-1.434855	-0.290066
O12	O	-0.295167	-1.264579	-0.460375
O13	O	-0.381367	-1.429399	-0.765215
O14	O	-0.381403	-1.259033	-0.594886
O15	O	-0.295103	-1.564029	-0.759759
O16	O	-0.495312	-1.551003	-0.473066
O17	O	-0.495272	-1.421988	-0.602107
C18	C	-0.338284	-1.223685	-0.527629
C19	C	-0.338295	-1.106908	-0.527649
C20	C	-0.520776	-1.484876	-0.539223
C21	C	-0.598842	-1.479934	-0.544212
C22	C	-0.338225	-1.496724	-0.801673
C23	C	-0.338195	-1.496755	-0.918448
C24	C	-1.040365	-1.448647	-0.575879
C25	C	-0.967014	-1.453291	-0.571180
C26	C	-0.930339	-1.522834	-0.501694
C27	C	-0.967018	-1.587746	-0.436911
C28	C	-1.040367	-1.583107	-0.441616
C29	C	-0.708870	-1.540207	-0.484134
C30	C	-0.635516	-1.544839	-0.479432
C31	C	-0.635517	-1.410384	-0.613703
C32	C	-0.708868	-1.405747	-0.618397
C33	C	-0.745541	-1.470663	-0.553618
C34	C	-0.855362	-1.527579	-0.496887
C35	C	-0.820516	-1.465922	-0.558431
C36	C	-0.155105	-1.508502	-0.516043
C37	C	-0.077039	-1.513552	-0.511099
C38	C	-0.338310	-1.770684	-0.527660
C39	C	-0.338316	-1.887460	-0.527667
C40	C	-0.383270	-1.049180	-0.597582
C41	C	-0.383279	-0.939456	-0.597594
C42	C	-0.293336	-0.945195	-0.457730
C43	C	-0.293324	-1.054918	-0.457724
C44	C	-0.428242	-1.101170	-0.667507
C45	C	-0.473221	-1.043442	-0.737445
C46	C	-0.473230	-0.933718	-0.737457
C47	C	-0.428260	-0.881721	-0.667531
C48	C	-0.293262	-1.432494	-0.970467
C49	C	-0.293241	-1.432527	-1.080189
C50	C	-0.383087	-1.561092	-1.085865
C51	C	-0.383111	-1.561052	-0.976144
C52	C	-0.248346	-1.368197	-0.912770
C53	C	-0.203409	-1.303932	-0.964789
C54	C	-0.203388	-1.303965	-1.074511
C55	C	-0.248304	-1.368264	-1.132216
C56	C	-0.338317	-1.496643	-0.254678
C57	C	-0.338150	-1.496828	-0.137891
H58	H	-1.070221	-1.392019	-0.632464
C59	C	-0.243851	-1.118422	-0.380790
N60	N	-0.206586	-1.166253	-0.322843
C61	C	-0.595171	-1.338991	-0.684964
N62	N	-0.564783	-1.285218	-0.738645
C63	C	-0.926676	-1.381944	-0.642499
N64	N	-0.896294	-1.328223	-0.696240
H65	H	-0.738725	-1.349106	-0.674968
C66	C	-0.432586	-1.631667	-1.149350
N67	N	-0.469903	-1.684772	-1.197168
C68	C	-0.595174	-1.621363	-0.403006
N69	N	-0.564789	-1.679002	-0.345450
H70	H	-0.937152	-1.644375	-0.380338
C71	C	-0.248366	-1.368153	-0.792073
N72	N	-0.248381	-1.368121	-0.701163
C73	C	-0.153957	-1.233272	-1.131729
N74	N	-0.116721	-1.180030	-1.174823
H75	H	-0.738721	-1.593063	-0.431382
C76	C	-0.522685	-1.100641	-0.814362
N77	N	-0.559943	-1.143722	-0.872296
H78	H	-0.428265	-0.792376	-0.667555
H79	H	-0.509850	-0.886719	-0.794412
C80	C	-0.243876	-0.887994	-0.380810
N81	N	-0.206624	-0.844909	-0.322870
H82	H	-1.070226	-1.635962	-0.388867
C83	C	-0.815012	-1.604067	-0.420446
N84	N	-0.784617	-1.661677	-0.362869
H85	H	-0.428241	-1.190513	-0.667503
H86	H	-0.419690	-1.613394	-0.933789
H87	H	-0.850380	-1.409305	-0.615010
C88	C	-0.154003	-1.233210	-0.901312
N89	N	-0.116787	-1.179943	-0.853503
C90	C	-0.248279	-1.368294	-1.252915
N91	N	-0.248257	-1.368321	-1.343824
