data_functionalizedCrystal
_audit_creation_method	'MofGen! by Chris Wilmer'
_symmetry_space_group_name_H-M	'P1'
_symmetry_Int_Tables_number	1
_symmetry_cell_setting	triclinic
loop_
_symmetry_equiv_pos_as_xyz
  x,y,z
_cell_length_a	17.038272
_cell_length_b	15.944551
_cell_length_c	14.421503
_cell_angle_alpha	90.003141
_cell_angle_beta	90.004327
_cell_angle_gamma	92.694853
loop_
_atom_site_label
_atom_site_type_symbol
_atom_site_fract_x
_atom_site_fract_y
_atom_site_fract_z
O1	O	0.100827	-1.121728	-0.077015
O2	O	0.113259	-0.878066	-0.077039
O3	O	-0.006773	-0.998449	-0.077020
O4	O	0.220859	-1.001345	-0.077034
O5	O	-0.006755	-0.998429	0.077204
O6	O	0.113277	-0.878046	0.077185
O7	O	0.100845	-1.121708	0.077208
Cu8	Cu	0.107062	-0.999875	0.091278
Cu9	Cu	0.107041	-0.999899	-0.091109
O10	O	0.220877	-1.001325	0.077189
C11	C	0.112752	-0.846725	0.000070
C12	C	0.111205	-0.753369	0.000062
C13	C	-0.035893	-0.995805	0.000092
C14	C	-0.122688	-0.987945	0.000091
C15	C	0.101352	-1.153049	0.000097
C16	C	0.102899	-1.246405	0.000100
C17	C	-0.172781	-1.060103	0.000098
C18	C	-0.254334	-1.052713	0.000089
C19	C	-0.285792	-0.973165	0.000078
C20	C	-0.235693	-0.901002	0.000068
C21	C	-0.154142	-0.908393	0.000071
C22	C	-0.531558	-0.947056	0.000063
C23	C	-0.613115	-0.939671	0.000063
C24	C	-0.631751	-1.091383	0.000083
C25	C	-0.550197	-1.098766	0.000091
C26	C	-0.500105	-1.026603	0.000075
C27	C	-0.369152	-0.965610	0.000071
C28	C	-0.416747	-1.034159	0.000076
C29	C	0.249997	-1.003969	0.000076
C30	C	0.336792	-1.011829	0.000071
N31	N	0.107077	-0.999865	0.219560
C32	C	0.033105	-0.532936	0.000085
C33	C	0.069363	-0.474515	-0.075958
C34	C	0.108405	-0.582443	0.000073
C35	C	0.069398	-0.474519	0.076094
C36	C	0.105696	-0.417337	0.000088
C37	C	0.144684	-0.525252	-0.076033
C38	C	0.144709	-0.525261	0.076088
C39	C	0.181022	-0.466862	0.000027
C40	C	0.109964	-0.677557	0.000063
C41	C	0.104143	-0.322225	0.000090
N42	N	0.107021	-0.999916	-0.219390
C43	C	0.162555	-0.944187	0.469205
C44	C	0.177734	-1.021171	0.531013
C45	C	0.107058	-0.999884	0.408721
C46	C	0.091897	-0.922921	0.531006
C47	C	0.107042	-0.999895	0.591442
C48	C	0.122272	-1.076908	0.469169
C49	C	0.036405	-0.978606	0.469156
C50	C	0.051554	-1.055642	0.530937
C51	C	0.107070	-0.999876	0.303460
C52	C	0.107030	-0.999912	0.696701
H53	H	-0.147175	-1.124879	0.000113
H54	H	0.037543	-0.452149	0.140380
Br55	Br	0.070535	-0.814433	0.576284
H56	H	-0.023318	-0.960576	0.441965
Br57	Br	-0.699736	-1.189313	0.000104
H58	H	0.237476	-1.039179	0.558183
Br59	Br	-0.322315	-1.150646	0.000099
H60	H	-0.638725	-0.874891	0.000069
H61	H	0.037506	-0.452139	-0.140243
H62	H	0.209524	-0.897141	0.442099
Br63	Br	0.197718	-0.562360	-0.183302
Br64	Br	-0.507509	-1.206728	0.000076
Br65	Br	0.285287	-0.419036	-0.000045
Br66	Br	-0.411852	-0.857655	0.000048
H67	H	-0.490782	-0.888296	0.000051
H68	H	0.135160	-1.142019	0.442121
Br69	Br	-0.278385	-0.793043	0.000038
H70	H	-0.029389	-0.561807	-0.000006
Br71	Br	-0.086157	-0.810461	0.000052
Br72	Br	-0.026685	-1.134242	0.575838
Br73	Br	0.197764	-0.562591	0.183239
H74	H	-0.391130	-1.098927	0.000064
