data_functionalizedCrystal
_audit_creation_method	'MofGen! by Chris Wilmer'
_symmetry_space_group_name_H-M	'P1'
_symmetry_Int_Tables_number	1
_symmetry_cell_setting	triclinic
loop_
_symmetry_equiv_pos_as_xyz
  x,y,z
_cell_length_a	25.639233
_cell_length_b	13.897449
_cell_length_c	13.897448
_cell_angle_alpha	90.018972
_cell_angle_beta	90.015038
_cell_angle_gamma	90.012243
loop_
_atom_site_label
_atom_site_type_symbol
_atom_site_fract_x
_atom_site_fract_y
_atom_site_fract_z
Zn1	Zn	-0.295617	-1.474622	0.384099
Zn2	Zn	-0.208187	-1.474540	0.545377
Zn3	Zn	-0.208197	-1.313335	0.384101
Zn4	Zn	-0.295592	-1.313293	0.545358
O5	O	-0.251898	-1.393947	0.464734
O6	O	-0.284026	-1.609592	0.405501
O7	O	-0.135023	-1.453139	0.523993
O8	O	-0.219807	-1.334782	0.249120
O9	O	-0.219792	-1.609532	0.523991
O10	O	-0.284035	-1.453279	0.249118
O11	O	-0.135030	-1.334702	0.405504
O12	O	-0.219783	-1.178348	0.405485
O13	O	-0.368761	-1.334710	0.523957
O14	O	-0.283993	-1.178317	0.523959
O15	O	-0.368779	-1.453238	0.405482
O16	O	-0.219768	-1.453098	0.680356
O17	O	-0.283984	-1.334630	0.680342
C18	C	-0.251883	-1.393877	0.715348
C19	C	-0.251894	-1.393935	0.822562
C20	C	-0.251886	-1.143333	0.464721
C21	C	-0.251894	-1.036119	0.464739
C22	C	-0.388271	-1.393978	0.464717
C23	C	-0.446386	-1.393992	0.464710
C24	C	-0.806764	-1.455787	0.402836
C25	C	-0.861368	-1.455799	0.402810
O26	O	-0.889618	-1.508262	0.350316
N27	N	-0.888668	-1.394098	0.464484
C28	C	-0.861361	-1.332374	0.526182
O29	O	-0.889596	-1.279892	0.578637
C30	C	-0.806758	-1.332358	0.526203
C31	C	-0.779461	-1.394070	0.464531
C32	C	-0.779467	-1.517494	0.341169
C33	C	-0.724866	-1.517483	0.341197
C34	C	-0.697563	-1.455765	0.402893
C35	C	-0.724860	-1.394059	0.464560
C36	C	-0.779451	-1.270629	0.587895
C37	C	-0.724844	-1.270618	0.587910
C38	C	-0.697547	-1.332330	0.526239
C39	C	-0.642956	-1.332331	0.526283
N40	N	-0.615656	-1.394032	0.464609
C41	C	-0.642959	-1.455749	0.402914
C42	C	-0.976032	-1.332411	0.526131
C43	C	-1.030634	-1.332431	0.526116
C44	C	-1.030638	-1.455856	0.402742
C45	C	-0.976034	-1.455839	0.402763
C46	C	-0.948732	-1.394112	0.464457
C47	C	-0.528294	-1.455722	0.402978
C48	C	-0.473689	-1.455709	0.403015
C49	C	-0.473690	-1.332281	0.526384
C50	C	-0.528291	-1.332298	0.526352
C51	C	-0.555592	-1.394022	0.464641
O52	O	-0.614672	-1.279892	0.578747
O53	O	-0.614718	-1.508213	0.350458
C54	C	-0.116056	-1.393972	0.464681
C55	C	-0.057942	-1.394145	0.464417
C56	C	-0.251911	-1.645540	0.464748
C57	C	-0.251916	-1.752754	0.464753
C58	C	-0.251907	-0.839824	0.464742
C59	C	-0.251898	-0.949056	0.464737
C60	C	-0.251925	-1.394044	0.213141
C61	C	-0.251936	-1.394085	0.105927
C62	C	-0.251927	-1.394036	1.018857
C63	C	-0.251910	-1.393977	0.909625
H64	H	-0.451466	-1.505966	0.352794
F65	F	-0.557343	-1.266624	0.591995
H66	H	-0.451450	-1.282036	0.576618
F67	F	-0.808491	-1.204949	0.653538
H68	H	-0.550516	-1.505981	0.352724
F69	F	-0.695821	-1.583161	0.275553
H70	H	-0.702618	-1.220341	0.638140
F71	F	-0.808517	-1.583196	0.275507
H72	H	-0.953805	-1.282144	0.576375
H73	H	-0.953812	-1.506089	0.352543
H74	H	-1.052878	-1.506107	0.352504
H75	H	-1.052855	-1.282189	0.576345
