data_functionalizedCrystal
_audit_creation_method	'MofGen! by Chris Wilmer'
_symmetry_space_group_name_H-M	'P1'
_symmetry_Int_Tables_number	1
_symmetry_cell_setting	triclinic
loop_
_symmetry_equiv_pos_as_xyz
  x,y,z
_cell_length_a	16.109318
_cell_length_b	12.811415
_cell_length_c	15.186229
_cell_angle_alpha	84.565396
_cell_angle_beta	90.000224
_cell_angle_gamma	83.757608
loop_
_atom_site_label
_atom_site_type_symbol
_atom_site_fract_x
_atom_site_fract_y
_atom_site_fract_z
O1	O	1.103618	0.134999	-0.083934
O2	O	0.861619	0.151769	-0.085291
O3	O	0.988707	-0.009410	-0.072407
O4	O	0.976531	0.296178	-0.096819
O5	O	0.988698	-0.009412	0.074051
O6	O	0.861611	0.151767	0.061166
O7	O	1.103609	0.134997	0.062523
Zn8	Zn	0.982609	0.143381	0.085098
Zn9	Zn	0.982620	0.143384	-0.107866
O10	O	0.976522	0.296176	0.049639
C11	C	0.830638	0.151086	-0.012010
C12	C	0.738336	0.149040	-0.011853
C13	C	0.439243	0.142432	-0.091144
C14	C	0.525971	0.144348	-0.091302
C15	C	0.525980	0.144331	0.068375
C16	C	0.439254	0.142408	0.068533
C17	C	0.395887	0.141464	-0.011229
C18	C	0.569342	0.145302	-0.011546
C19	C	0.663376	0.147379	-0.011717
C20	C	0.301847	0.139384	-0.011058
C21	C	0.988020	-0.048515	0.003944
C22	C	0.985977	-0.165033	0.013246
C23	C	0.982131	-0.383968	-0.128961
C24	C	0.980211	-0.493446	-0.120225
C25	C	0.980211	-0.493470	0.039452
C26	C	0.982131	-0.383991	0.030717
C27	C	0.983092	-0.329244	-0.053493
C28	C	0.985018	-0.219764	-0.062228
C29	C	0.985012	-0.219789	0.097449
C30	C	0.983092	-0.329267	0.106185
C31	C	1.134591	0.135680	-0.010760
C32	C	1.226893	0.137726	-0.010922
C33	C	0.977209	0.335281	-0.026714
C34	C	0.979252	0.451799	-0.036021
N35	N	0.982607	0.143379	0.216791
N36	N	0.982628	0.143379	-0.239558
C37	C	1.038901	0.072033	0.448217
C38	C	1.038903	0.072030	0.540407
C39	C	0.926329	0.214728	0.529009
C40	C	0.926323	0.214725	0.436821
C41	C	0.982613	0.143378	0.396428
C42	C	0.982622	0.143379	0.580805
C43	C	0.982624	0.143377	0.680762
C44	C	0.982610	0.143379	0.296465
H45	H	0.561300	0.145101	0.133314
H46	H	0.561267	0.145135	-0.156377
F47	F	0.866425	0.290660	0.572005
H48	H	0.403954	0.141618	0.133613
H49	H	1.084735	0.013936	0.415331
F50	F	0.983165	-0.325701	-0.218581
H51	H	0.985797	-0.175222	0.158901
F52	F	1.098810	-0.003908	0.595523
F53	F	0.986044	-0.161501	-0.151850
F54	F	0.982062	-0.387543	0.195801
H55	H	0.979426	-0.537998	-0.181679
H56	H	0.979421	-0.538063	0.108012
F57	F	0.866408	0.290661	0.381699
H58	H	0.403936	0.141662	-0.156091
