data_functionalizedCrystal
_audit_creation_method	'MofGen! by Chris Wilmer'
_symmetry_space_group_name_H-M	'P1'
_symmetry_Int_Tables_number	1
_symmetry_cell_setting	triclinic
loop_
_symmetry_equiv_pos_as_xyz
  x,y,z
_cell_length_a	12.645331
_cell_length_b	18.050589
_cell_length_c	12.645324
_cell_angle_alpha	89.967661
_cell_angle_beta	89.977038
_cell_angle_gamma	90.027200
loop_
_atom_site_label
_atom_site_type_symbol
_atom_site_fract_x
_atom_site_fract_y
_atom_site_fract_z
Zn1	Zn	1.620657	-0.295623	-0.599442
Zn2	Zn	1.953990	0.037710	-0.266109
Zn3	Zn	2.287323	0.371043	0.067225
Zn4	Zn	1.620505	-0.419837	-0.422180
Zn5	Zn	1.953838	-0.086504	-0.088847
Zn6	Zn	2.287172	0.246829	0.244486
Zn7	Zn	1.443370	-0.295663	-0.422186
Zn8	Zn	1.776704	0.037670	-0.088853
Zn9	Zn	2.110037	0.371003	0.244480
Zn10	Zn	1.443320	-0.419774	-0.599396
Zn11	Zn	1.776654	-0.086440	-0.266062
Zn12	Zn	2.109987	0.246893	0.067271
O13	O	1.531963	-0.357724	-0.510801
O14	O	1.865296	-0.024391	-0.177468
O15	O	2.198630	0.308942	0.155866
O16	O	1.768984	-0.312110	-0.575945
O17	O	2.102317	0.021223	-0.242611
O18	O	2.435650	0.354556	0.090722
O19	O	1.596965	-0.403409	-0.273834
O20	O	1.930298	-0.070075	0.059500
O21	O	2.263632	0.263258	0.392833
O22	O	1.466972	-0.191733	-0.445722
O23	O	1.800306	0.141600	-0.112388
O24	O	2.133639	0.474933	0.220945
O25	O	1.768872	-0.403370	-0.445711
O26	O	2.102206	-0.070036	-0.112378
O27	O	2.435539	0.263297	0.220955
O28	O	1.597224	-0.191704	-0.575951
O29	O	1.930557	0.141629	-0.242617
O30	O	2.263890	0.474963	0.090716
O31	O	1.466825	-0.312179	-0.273838
O32	O	1.800158	0.021155	0.059495
O33	O	2.133492	0.354488	0.392828
O34	O	1.295017	-0.312117	-0.445677
O35	O	1.628350	0.021216	-0.112343
O36	O	1.961683	0.354550	0.220990
O37	O	1.466887	-0.403262	-0.747749
O38	O	1.800221	-0.069928	-0.414416
O39	O	2.133554	0.263405	-0.081083
O40	O	1.294980	-0.403300	-0.575872
O41	O	1.628313	-0.069967	-0.242538
O42	O	1.961647	0.263366	0.090795
O43	O	1.597175	-0.312049	-0.747783
O44	O	1.930509	0.021285	-0.414450
O45	O	2.263842	0.354618	-0.081117
O46	O	1.596917	-0.523753	-0.445666
O47	O	1.930250	-0.190420	-0.112333
O48	O	2.263583	0.142913	0.221000
O49	O	1.466740	-0.523707	-0.575866
O50	O	1.800073	-0.190373	-0.242532
O51	O	2.133407	0.142960	0.090801
C52	C	1.256533	-0.357707	-0.510770
C53	C	1.589867	-0.024373	-0.177437
C54	C	1.923200	0.308960	0.155896
C55	C	1.138703	-0.357717	-0.510783
C56	C	1.472037	-0.024384	-0.177449
C57	C	1.805370	0.308950	0.155884
C58	C	0.971127	-0.300090	-0.429329
C59	C	1.304460	0.033244	-0.095995
C60	C	1.637794	0.366577	0.237338
C61	C	1.093687	-0.300239	-0.428970
C62	C	1.427020	0.033095	-0.095637
C63	C	1.760353	0.366428	0.237697
C64	C	1.094162	-0.435953	-0.480267
C65	C	1.427496	-0.102619	-0.146933
C66	C	1.760829	0.230714	0.186400
C67	C	0.971564	-0.435638	-0.479711
C68	C	1.304897	-0.102305	-0.146377
C69	C	1.638231	0.231029	0.186956
C70	C	0.971560	-0.337853	-0.623067
C71	C	1.304893	-0.004520	-0.289733
C72	C	1.638226	0.328813	0.043600
C73	C	1.094166	-0.336106	-0.622443
C74	C	1.427499	-0.002772	-0.289110
C75	C	1.760833	0.330561	0.044224
C76	C	1.531835	-0.550677	-0.510784
C77	C	1.865168	-0.217343	-0.177450
C78	C	2.198502	0.115990	0.155883
C79	C	1.531877	-0.633222	-0.510811
C80	C	1.865211	-0.299889	-0.177478
C81	C	2.198544	0.033444	0.155855
C82	C	1.461157	-0.832675	-0.581589
C83	C	1.794490	-0.499341	-0.248256
C84	C	2.127824	-0.166008	0.085078
C85	C	1.435310	-0.882125	-0.484854
C86	C	1.768643	-0.548792	-0.151521
C87	C	2.101976	-0.215458	0.181812
C88	C	1.531982	-0.784353	-0.510825
C89	C	1.865315	-0.451019	-0.177492
C90	C	2.198648	-0.117686	0.155841
C91	C	1.557881	-0.881984	-0.607571
C92	C	1.891214	-0.548651	-0.274238
C93	C	2.224547	-0.215317	0.059096
C94	C	1.532080	-0.930338	-0.510847
C95	C	1.865413	-0.597004	-0.177514
C96	C	2.198747	-0.263671	0.155820
C97	C	1.506084	-0.832716	-0.414039
C98	C	1.839417	-0.499382	-0.080706
C99	C	2.172750	-0.166049	0.252627
C100	C	1.628699	-0.832570	-0.536821
C101	C	1.962033	-0.499237	-0.203488
C102	C	2.295366	-0.165904	0.129845
C103	C	1.602889	-0.881999	-0.440020
C104	C	1.936222	-0.548665	-0.106687
C105	C	2.269556	-0.215332	0.226647
C106	C	1.531922	-0.700254	-0.510814
C107	C	1.865255	-0.366921	-0.177481
C108	C	2.198589	-0.033588	0.155853
C109	C	1.532140	-1.014434	-0.510847
C110	C	1.865473	-0.681101	-0.177514
C111	C	2.198806	-0.347768	0.155819
C112	C	1.808468	-0.357743	-0.510832
C113	C	2.141802	-0.024409	-0.177499
C114	C	2.475135	0.308924	0.155834
C115	C	1.926298	-0.357750	-0.510846
C116	C	2.259632	-0.024417	-0.177513
C117	C	2.592965	0.308916	0.155821
C118	C	1.532043	-0.357644	-0.787307
C119	C	1.865376	-0.024310	-0.453973
C120	C	2.198709	0.309023	-0.120640
C121	C	1.532076	-0.357609	-0.905137
C122	C	1.865410	-0.024276	-0.571803
C123	C	2.198743	0.309057	-0.238470
C124	C	1.532120	-0.164019	-0.510842
C125	C	1.865454	0.169315	-0.177509
C126	C	2.198787	0.502648	0.155825
C127	C	1.532188	-0.081473	-0.510859
C128	C	1.865521	0.251860	-0.177526
C129	C	2.198854	0.585194	0.155807
C130	C	1.614360	-0.300393	-1.072722
C131	C	1.947693	0.032940	-0.739389
C132	C	2.281026	0.366273	-0.406056
C133	C	1.614096	-0.300187	-0.950162
C134	C	1.947430	0.033146	-0.616829
C135	C	2.280763	0.366480	-0.283496
C136	C	1.420400	-0.336341	-0.949615
C137	C	1.753733	-0.003007	-0.616282
C138	C	2.087067	0.330326	-0.282948
C139	C	1.420900	-0.335906	-1.072214
C140	C	1.754233	-0.002573	-0.738880
C141	C	2.087566	0.330760	-0.405547
C142	C	1.560563	-0.436177	-1.072333
C143	C	1.893897	-0.102844	-0.739000
C144	C	2.227230	0.230489	-0.405667
C145	C	1.563007	-0.435782	-0.949728
C146	C	1.896340	-0.102449	-0.616395
C147	C	2.229674	0.230885	-0.283061
C148	C	1.531945	-0.357751	-0.235371
C149	C	1.865278	-0.024418	0.097962
C150	C	2.198612	0.308915	0.431295
C151	C	1.532117	-0.357576	-0.117542
C152	C	1.865450	-0.024243	0.215791
C153	C	2.198783	0.309090	0.549125
H154	H	0.942914	-0.452510	-0.397672
H155	H	1.276247	-0.119177	-0.064338
H156	H	1.609580	0.214156	0.268995
Br157	Br	1.693972	-0.468416	-1.123885
Br158	Br	2.027305	-0.135082	-0.790552
Br159	Br	2.360639	0.198251	-0.457218
Br160	Br	1.460719	-0.507190	-1.120633
Br161	Br	1.794052	-0.173857	-0.787300
Br162	Br	2.127385	0.159476	-0.453966
H163	H	1.123803	-0.242224	-0.448097
H164	H	1.457136	0.091109	-0.114764
H165	H	1.790469	0.424443	0.218570
Br166	Br	1.582707	-0.203139	-0.901296
Br167	Br	1.916041	0.130194	-0.567963
Br168	Br	2.249374	0.463528	-0.234630
Br169	Br	1.299056	-0.918401	-0.448206
Br170	Br	1.632390	-0.585067	-0.114873
Br171	Br	1.965723	-0.251734	0.218461
H172	H	1.579747	-0.903626	-0.689379
H173	H	1.913080	-0.570293	-0.356046
H174	H	2.246414	-0.236959	-0.022712
Br175	Br	0.922048	-0.203099	-0.460862
Br176	Br	1.255381	0.130235	-0.127529
Br177	Br	1.588715	0.463568	0.205805
H178	H	1.396784	-0.278450	-1.100824
H179	H	1.730117	0.054884	-0.767490
H180	H	2.063450	0.388217	-0.434157
H181	H	0.941908	-0.480055	-0.536495
H182	H	1.275241	-0.146721	-0.203162
H183	H	1.608575	0.186612	0.130171
Br184	Br	1.142717	-0.240154	-0.660813
Br185	Br	1.476051	0.093180	-0.327480
Br186	Br	1.809384	0.426513	0.005854
Br187	Br	1.361190	-0.796574	-0.681194
Br188	Br	1.694524	-0.463241	-0.347860
Br189	Br	2.027857	-0.129908	-0.014527
Br190	Br	1.142740	-0.509475	-0.576128
Br191	Br	1.476074	-0.176142	-0.242794
Br192	Br	1.809407	0.157192	0.090539
H193	H	1.710426	-0.810790	-0.558835
H194	H	2.043759	-0.477456	-0.225502
H195	H	2.377093	-0.144123	0.107832
Br196	Br	0.919682	-0.321748	-0.291540
Br197	Br	1.253015	0.011585	0.041793
Br198	Br	1.586349	0.344919	0.375126
H199	H	1.484123	-0.811163	-0.332209
H200	H	1.817456	-0.477830	0.001124
H201	H	2.150789	-0.144497	0.334458
Br202	Br	1.142489	-0.322153	-0.290361
Br203	Br	1.475822	0.011181	0.042972
Br204	Br	1.809156	0.344514	0.376306
Br205	Br	1.702793	-0.917869	-0.340186
Br206	Br	2.036126	-0.584535	-0.006852
Br207	Br	2.369460	-0.251202	0.326481
H208	H	1.696907	-0.313507	-0.920091
H209	H	2.030240	0.019827	-0.586758
H210	H	2.363574	0.353160	-0.253425
H211	H	1.697445	-0.313546	-1.102215
H212	H	2.030778	0.019788	-0.768882
H213	H	2.364112	0.353121	-0.435548
H214	H	1.595769	-0.242489	-1.103547
H215	H	1.929102	0.090844	-0.770213
H216	H	2.262435	0.424177	-0.436880
H217	H	1.124813	-0.453115	-0.399108
H218	H	1.458146	-0.119781	-0.065775
H219	H	1.791479	0.213552	0.267559
H220	H	1.124814	-0.375039	-0.686428
H221	H	1.458147	-0.041705	-0.353095
H222	H	1.791481	0.291628	-0.019761
H223	H	1.357537	-0.375744	-1.101860
H224	H	1.690871	-0.042410	-0.768527
H225	H	2.024204	0.290923	-0.435194
Br226	Br	0.923244	-0.407851	-0.724301
Br227	Br	1.256578	-0.074517	-0.390967
Br228	Br	1.589911	0.258816	-0.057634
H229	H	1.357455	-0.376710	-0.920448
H230	H	1.690789	-0.043377	-0.587114
H231	H	2.024122	0.289957	-0.253781
Br232	Br	0.920093	-0.244424	-0.669323
Br233	Br	1.253426	0.088909	-0.335989
Br234	Br	1.586760	0.422242	-0.002656
Br235	Br	1.379466	-0.241641	-0.898468
Br236	Br	1.712799	0.091692	-0.565135
Br237	Br	2.046133	0.425025	-0.231802
H238	H	1.507457	-0.480680	-0.919075
H239	H	1.840791	-0.147347	-0.585741
H240	H	2.174124	0.185986	-0.252408
Br241	Br	1.699993	-0.462513	-0.901288
Br242	Br	2.033326	-0.129179	-0.567955
Br243	Br	2.366659	0.204154	-0.234621
