data_functionalizedCrystal
_audit_creation_method	'MofGen! by Chris Wilmer'
_symmetry_space_group_name_H-M	'P1'
_symmetry_Int_Tables_number	1
_symmetry_cell_setting	triclinic
loop_
_symmetry_equiv_pos_as_xyz
  x,y,z
_cell_length_a	15.944557
_cell_length_b	19.188930
_cell_length_c	14.421503
_cell_angle_alpha	90.000837
_cell_angle_beta	90.005783
_cell_angle_gamma	83.323075
loop_
_atom_site_label
_atom_site_type_symbol
_atom_site_fract_x
_atom_site_fract_y
_atom_site_fract_z
O1	O	-1.114189	-0.090060	-0.077082
O2	O	-0.869599	-0.101157	-0.077094
O3	O	-0.998952	0.006029	-0.077070
O4	O	-0.984835	-0.197246	-0.077107
O5	O	-0.998931	0.006013	0.077153
O6	O	-0.869577	-0.101173	0.077129
O7	O	-1.114168	-0.090076	0.077141
Cu8	Cu	-0.991870	-0.095626	0.091217
Cu9	Cu	-0.991896	-0.095607	-0.091170
O10	O	-0.984814	-0.197261	0.077117
C11	C	-0.838296	-0.100703	0.000016
C12	C	-0.745055	-0.099320	0.000012
C13	C	-0.474688	-0.028744	0.000040
C14	C	-0.525132	-0.062775	0.076075
C15	C	-0.409432	-0.094386	0.000035
C16	C	-0.525133	-0.062777	-0.075977
C17	C	-0.574335	-0.096806	0.000022
C18	C	-0.458647	-0.128399	0.076133
C19	C	-0.458645	-0.128391	-0.075987
C20	C	-0.509056	-0.162470	0.000067
C21	C	-0.314435	-0.092989	0.000043
C22	C	-0.669329	-0.098208	0.000021
C23	C	-0.998484	0.032033	0.000044
C24	C	-0.997112	0.109541	0.000052
C25	C	-0.145472	-0.090520	0.000033
C26	C	-0.238717	-0.091875	0.000044
C27	C	-0.985282	-0.223266	0.000000
C28	C	-0.986654	-0.300774	-0.000014
C29	C	-1.073012	0.154268	0.000060
C30	C	-1.071723	0.227095	0.000045
C31	C	-0.994529	0.255192	0.000041
C32	C	-0.918619	0.210456	0.000028
C33	C	-0.919910	0.137631	0.000033
N34	N	-0.935516	0.363346	0.052523
N35	N	-0.934295	0.432527	0.052520
C36	C	-0.990634	0.474611	0.000022
N37	N	-1.048253	0.444901	-0.052461
N38	N	-1.049477	0.375713	-0.052453
C39	C	-0.993120	0.334159	0.000034
C40	C	-1.065141	0.598305	0.000013
C41	C	-1.063849	0.671134	-0.000008
C42	C	-0.910742	0.654494	-0.000016
C43	C	-0.912037	0.581667	-0.000005
C44	C	-0.989239	0.553578	0.000014
N45	N	-0.991859	-0.095639	0.219498
N46	N	-0.991914	-0.095588	-0.219451
C47	C	-0.932035	-0.145179	0.469140
C48	C	-1.007884	-0.158735	0.530944
C49	C	-0.991879	-0.095622	0.408659
C50	C	-0.916050	-0.082082	0.530950
C51	C	-0.991892	-0.095607	0.591381
C52	C	-1.067766	-0.109210	0.469102
C53	C	-0.975882	-0.032529	0.469103
C54	C	-1.051786	-0.046058	0.530878
C55	C	-0.991870	-0.095632	0.303398
C56	C	-0.991910	-0.095597	0.696640
H57	H	-0.524336	-0.219048	0.000101
H58	H	-1.133532	0.263518	0.000048
O59	O	-1.118895	0.009468	0.566569
H60	H	-1.118062	0.009384	0.643528
H61	H	-0.855767	0.233338	0.000022
H62	H	-0.429604	-0.156082	-0.140282
H63	H	-0.554163	-0.035037	-0.140256
H64	H	-0.881478	-0.187122	0.442033
H65	H	-0.858101	0.101214	0.000027
O66	O	-1.145720	0.719376	0.000010
H67	H	-1.182696	0.709380	-0.062835
H68	H	-0.962315	0.020805	0.441918
H69	H	-1.135876	0.131402	0.000073
O70	O	-0.827479	0.684786	-0.000017
H71	H	-0.839331	0.742941	-0.000013
H72	H	-0.459246	0.027790	0.000124
O73	O	-0.420342	-0.165100	0.161378
H74	H	-0.471018	-0.184379	0.203704
H75	H	-1.128004	0.575434	0.000024
O76	O	-0.830173	0.533419	0.000009
H77	H	-0.776276	0.565189	0.000015
O78	O	-0.831103	-0.066910	0.566938
H79	H	-0.781538	-0.108125	0.542202
H80	H	-1.021427	-0.212086	0.558107
O81	O	-1.152741	-0.124456	0.433283
H82	H	-1.144638	-0.172835	0.390462
O83	O	-0.563617	-0.026062	0.161219
H84	H	-0.550177	0.029409	0.161066
