data_functionalizedCrystal
_audit_creation_method	'MofGen! by Chris Wilmer'
_symmetry_space_group_name_H-M	'P1'
_symmetry_Int_Tables_number	1
_symmetry_cell_setting	triclinic
loop_
_symmetry_equiv_pos_as_xyz
  x,y,z
_cell_length_a	6.394989
_cell_length_b	11.026607
_cell_length_c	9.482900
_cell_angle_alpha	101.363848
_cell_angle_beta	80.390180
_cell_angle_gamma	97.541864
loop_
_atom_site_label
_atom_site_type_symbol
_atom_site_fract_x
_atom_site_fract_y
_atom_site_fract_z
O1	O	-0.853991	-1.642135	-0.120875
O2	O	-0.753816	-1.287297	-0.120879
O3	O	-0.501733	-1.469753	-0.120878
O4	O	-1.106074	-1.459679	-0.120876
O5	O	-0.553199	-1.432696	0.120914
O6	O	-0.805282	-1.250240	0.120913
O7	O	-0.905458	-1.605078	0.120917
Cu8	Cu	-0.860069	-1.424275	0.142993
Cu9	Cu	-0.799204	-1.468099	-0.142955
O10	O	-1.157541	-1.422622	0.120916
C11	C	-0.761068	-1.223275	0.000016
C12	C	-0.705977	-1.087719	0.000014
N13	N	-0.902881	-1.393461	0.344113
C14	C	-0.898204	-1.669100	0.000019
C15	C	-0.953293	-1.804658	0.000011
C16	C	-0.448894	-1.449233	0.000013
C17	C	-0.210371	-1.443147	0.000011
C18	C	-0.858092	-1.016240	0.000014
C19	C	-0.801156	-0.876135	0.000012
N20	N	-0.756380	-1.498923	-0.344074
C21	C	-0.811817	-1.459002	0.416312
C22	C	-0.847457	-1.433373	0.583730
H23	H	-0.628755	-0.833619	-0.000026
O24	O	-0.631405	-1.588345	0.582040
C25	C	-0.424001	-1.559180	0.619377
H26	H	-0.395702	-1.455005	0.661241
H27	H	-0.406266	-1.612246	0.707737
C28	C	-0.294386	-1.724312	0.432831
C29	C	-0.259622	-1.596361	0.484238
H30	H	-0.192987	-1.747252	0.349474
H31	H	-0.434118	-1.743965	0.407679
H32	H	-0.279609	-1.768518	0.506477
H33	H	-0.274425	-1.552158	0.410599
H34	H	-0.119887	-1.576702	0.509374
H35	H	-0.707459	-1.534084	0.354185
H36	H	-1.030475	-1.058766	0.000023
H37	H	-0.951802	-1.358277	0.645854
O38	O	-1.027095	-1.303801	0.418382
C39	C	-0.905153	-1.213159	0.506414
H40	H	-0.763603	-1.255556	0.529053
H41	H	-0.844896	-1.131612	0.447861
C42	C	-1.218413	-1.114960	0.623286
C43	C	-1.044568	-1.167035	0.651102
H44	H	-1.304411	-1.086503	0.712534
H45	H	-1.300568	-1.176024	0.563974
H46	H	-1.168172	-1.047011	0.574489
H47	H	-1.094810	-1.234992	0.699882
H48	H	-0.962424	-1.105982	0.710426
H49	H	-1.125689	-0.847177	0.000021
H50	H	-0.533588	-1.045197	-0.000024
