data_functionalizedCrystal
_audit_creation_method	'MofGen! by Chris Wilmer'
_symmetry_space_group_name_H-M	'P1'
_symmetry_Int_Tables_number	1
_symmetry_cell_setting	triclinic
loop_
_symmetry_equiv_pos_as_xyz
  x,y,z
_cell_length_a	14.519709
_cell_length_b	10.654550
_cell_length_c	9.130313
_cell_angle_alpha	89.999890
_cell_angle_beta	90.005376
_cell_angle_gamma	84.082524
loop_
_atom_site_label
_atom_site_type_symbol
_atom_site_fract_x
_atom_site_fract_y
_atom_site_fract_z
O1	O	1.224716	0.164617	-0.121605
O2	O	0.956339	0.184004	-0.121649
O3	O	1.096698	-0.008488	-0.121620
O4	O	1.084357	0.357109	-0.121633
O5	O	1.096696	-0.008483	0.121978
O6	O	0.956338	0.184009	0.121950
O7	O	1.224714	0.164623	0.121994
Cu8	Cu	1.090526	0.174316	0.144215
Cu9	Cu	1.090528	0.174310	-0.143869
O10	O	1.084355	0.357114	0.121966
C11	C	1.095791	-0.055275	0.000177
C12	C	1.093080	-0.194692	0.000172
C13	C	0.921974	0.183103	0.000145
C14	C	0.819579	0.180396	0.000128
C15	C	1.175721	-0.274972	0.000190
C16	C	1.173168	-0.405968	0.000179
C17	C	1.005326	-0.376391	0.000138
C18	C	1.007880	-0.245397	0.000138
C19	C	1.272623	-0.292049	0.000219
C20	C	1.270070	-0.423046	0.000209
C21	C	0.444631	0.170428	0.000195
C22	C	0.548954	0.173196	0.000176
C23	C	0.632102	0.175412	0.000160
C24	C	0.736431	0.178180	0.000144
C25	C	1.259079	0.165524	0.000197
C26	C	1.361475	0.168231	0.000205
C27	C	1.085262	0.403901	0.000165
C28	C	1.087973	0.543318	0.000161
N29	N	1.090531	0.174320	0.346837
N30	N	1.090530	0.174297	-0.346492
C31	C	1.152698	0.089113	0.423502
C32	C	1.152695	0.089098	0.576839
C33	C	1.028356	0.259507	0.576833
C34	C	1.028355	0.259515	0.423499
C35	C	1.224487	-0.009267	0.423506
C36	C	1.224485	-0.009283	0.576843
H37	H	0.935959	-0.417692	0.000110
N38	N	1.308473	0.028343	0.363867
N39	N	1.371370	0.056496	0.447429
H40	H	1.430681	0.083077	0.405309
H41	H	1.208741	-0.105649	0.381887
N42	N	1.320177	-0.255689	-0.127651
N43	N	1.351580	-0.337495	-0.217749
H44	H	1.385165	-0.311817	-0.308056
H45	H	1.303480	-0.256717	0.105406
H46	H	0.977733	0.328870	0.639267
H47	H	1.299356	-0.468972	-0.104966
H48	H	1.306581	-0.465155	0.102158
H49	H	0.977726	0.328886	0.361080
N50	N	0.923464	-0.163394	0.000078
N51	N	0.867000	-0.168127	-0.102630
H52	H	0.807377	-0.110211	-0.102676
N53	N	1.196370	-0.123448	0.636480
N54	N	1.175319	-0.208933	0.552918
H55	H	1.155460	-0.289560	0.595036
H56	H	1.295354	0.011554	0.618471
