data_functionalizedCrystal
_audit_creation_method	'MofGen! by Chris Wilmer'
_symmetry_space_group_name_H-M	'P1'
_symmetry_Int_Tables_number	1
_symmetry_cell_setting	triclinic
loop_
_symmetry_equiv_pos_as_xyz
  x,y,z
_cell_length_a	12.827893
_cell_length_b	29.839131
_cell_length_c	12.827885
_cell_angle_alpha	89.963180
_cell_angle_beta	89.980538
_cell_angle_gamma	90.041391
loop_
_atom_site_label
_atom_site_type_symbol
_atom_site_fract_x
_atom_site_fract_y
_atom_site_fract_z
Zn1	Zn	1.597483	-0.178832	-0.590798
Zn2	Zn	1.597297	-0.253969	-0.416036
Zn3	Zn	1.422723	-0.178854	-0.416071
Zn4	Zn	1.422630	-0.253936	-0.590736
O5	O	1.510033	-0.216398	-0.503410
O6	O	1.743694	-0.188804	-0.567626
O7	O	1.574100	-0.244028	-0.269805
O8	O	1.446022	-0.115984	-0.439289
O9	O	1.743557	-0.244007	-0.439230
O10	O	1.574417	-0.115968	-0.567660
O11	O	1.445842	-0.188841	-0.269830
O12	O	1.276475	-0.188809	-0.439230
O13	O	1.445863	-0.243950	-0.736981
O14	O	1.276406	-0.243971	-0.567556
O15	O	1.574327	-0.188771	-0.737026
O16	O	1.574010	-0.316832	-0.439170
O17	O	1.445683	-0.316807	-0.567522
C18	C	1.238523	-0.216389	-0.503390
C19	C	1.122370	-0.216396	-0.503407
C20	C	1.070579	-0.243735	-0.566808
C21	C	0.950529	-0.243743	-0.566827
C22	C	1.509844	-0.333120	-0.503359
C23	C	1.509859	-0.383055	-0.503371
C24	C	1.576974	-0.692698	-0.436675
C25	C	1.577103	-0.880371	-0.436716
O26	O	1.634017	-0.904636	-0.379969
N27	N	1.510250	-0.903840	-0.503489
C28	C	1.443364	-0.880387	-0.570262
O29	O	1.386511	-0.904655	-0.627065
C30	C	1.443241	-0.692715	-0.570226
C31	C	1.510092	-0.669249	-0.503441
C32	C	1.643820	-0.669232	-0.369897
C33	C	1.643783	-0.622317	-0.369883
C34	C	1.576901	-0.598867	-0.436648
C35	C	1.510055	-0.622333	-0.503427
C36	C	1.376361	-0.669263	-0.637003
C37	C	1.376338	-0.622342	-0.636990
C38	C	1.443189	-0.598876	-0.570205
C39	C	1.443135	-0.551969	-0.570179
N40	N	1.509988	-0.528500	-0.503406
C41	C	1.576871	-0.551949	-0.436641
C42	C	1.443432	-0.978918	-0.570274
C43	C	1.443461	-1.025835	-0.570282
C44	C	1.577202	-1.025816	-0.436738
C45	C	1.577167	-0.978898	-0.436725
C46	C	1.510285	-0.955449	-0.503501
C47	C	1.576788	-0.453424	-0.436617
C48	C	1.576742	-0.406504	-0.436606
C49	C	1.443005	-0.406527	-0.570154
C50	C	1.443047	-0.453443	-0.570161
C51	C	1.509947	-0.476890	-0.503389
O52	O	1.386259	-0.527675	-0.626905
O53	O	1.633732	-0.527674	-0.379862
C54	C	1.577011	-0.739614	-0.436689
C55	C	1.510165	-0.763080	-0.503468
C56	C	1.443283	-0.739630	-0.570233
C57	C	1.510195	-0.809997	-0.503476
C58	C	1.577078	-0.833447	-0.436710
C59	C	1.643931	-0.809978	-0.369937
C60	C	1.643894	-0.763063	-0.369924
C61	C	1.376429	-0.763099	-0.637006
C62	C	1.376471	-0.810014	-0.637013
C63	C	1.443353	-0.833464	-0.570248
C64	C	1.782603	-0.216407	-0.503431
C65	C	1.898756	-0.216410	-0.503440
C66	C	1.510105	-0.216354	-0.775981
C67	C	1.510136	-0.216336	-0.892134
C68	C	1.510251	-0.099219	-0.503485
C69	C	1.510344	-0.049285	-0.503517
C70	C	1.573639	-0.243614	-1.063950
C71	C	1.573609	-0.243633	-0.943900
C72	C	1.510022	-0.216408	-0.231900
C73	C	1.510193	-0.216300	-0.115748
H74	H	0.943289	-0.193005	-0.449153
H75	H	1.077834	-0.192995	-0.449144
H76	H	1.389015	-1.044938	-0.624656
H77	H	1.698387	-0.829079	-0.315572
H78	H	1.388966	-0.959829	-0.624653
F79	F	1.644615	-0.274197	-0.885681
H80	H	1.631180	-0.387399	-0.382218
H81	H	1.627975	-0.266985	-1.108482
F82	F	1.439138	-0.185767	-0.950346
H83	H	1.631267	-0.472509	-0.382247
F84	F	1.715050	-0.738094	-0.298844
H85	H	1.698222	-0.603213	-0.315504
F86	F	1.439158	-0.185755	-1.057548
H87	H	1.115115	-0.267133	-0.621079
H88	H	0.905989	-0.267150	-0.621104
H89	H	1.322024	-0.829116	-0.691397
H90	H	1.698290	-0.688320	-0.315528
H91	H	1.321919	-0.688361	-0.691381
F92	F	1.305240	-0.738148	-0.708072
F93	F	1.305154	-0.597389	-0.708066
H94	H	1.388615	-0.472550	-0.624546
F95	F	1.648318	-0.953928	-0.365645
H96	H	1.388547	-0.387427	-0.624511
H97	H	1.631661	-1.044917	-0.382375
