data_functionalizedCrystal
_audit_creation_method	'MofGen! by Chris Wilmer'
_symmetry_space_group_name_H-M	'P1'
_symmetry_Int_Tables_number	1
_symmetry_cell_setting	triclinic
loop_
_symmetry_equiv_pos_as_xyz
  x,y,z
_cell_length_a	29.839135
_cell_length_b	29.839126
_cell_length_c	19.805405
_cell_angle_alpha	90.023889
_cell_angle_beta	89.971060
_cell_angle_gamma	89.976855
loop_
_atom_site_label
_atom_site_type_symbol
_atom_site_fract_x
_atom_site_fract_y
_atom_site_fract_z
Zn1	Zn	0.686800	-0.254048	0.269469
Zn2	Zn	1.186800	0.245952	0.769469
Zn3	Zn	0.686742	-0.178918	0.382647
Zn4	Zn	1.186742	0.321082	0.882647
Zn5	Zn	0.611673	-0.178926	0.269482
Zn6	Zn	1.111673	0.321074	0.769482
Zn7	Zn	0.611651	-0.254015	0.382627
Zn8	Zn	1.111651	0.245985	0.882627
O9	O	0.649217	-0.216477	0.326056
O10	O	1.149217	0.283523	0.826056
O11	O	0.749660	-0.244092	0.284486
O12	O	1.249660	0.255908	0.784486
O13	O	0.676769	-0.116052	0.367649
O14	O	1.176769	0.383948	0.867649
O15	O	0.621673	-0.188908	0.174764
O16	O	1.121673	0.311092	0.674764
O17	O	0.749617	-0.188895	0.367637
O18	O	1.249617	0.311105	0.867637
O19	O	0.676868	-0.244100	0.174754
O20	O	1.176868	0.255900	0.674754
O21	O	0.621616	-0.116058	0.284508
O22	O	1.121616	0.383942	0.784508
O23	O	0.548803	-0.188876	0.284488
O24	O	1.048803	0.311124	0.784488
O25	O	0.621634	-0.316887	0.367602
O26	O	1.121634	0.183113	0.867602
O27	O	0.548787	-0.244044	0.367615
O28	O	1.048787	0.255956	0.867615
O29	O	0.676847	-0.316911	0.284466
O30	O	1.176847	0.183089	0.784466
O31	O	0.676747	-0.188863	0.477361
O32	O	1.176747	0.311137	0.977361
O33	O	0.621578	-0.244037	0.477346
O34	O	1.121578	0.255963	0.977346
C35	C	0.532494	-0.216458	0.326051
C36	C	1.032494	0.283542	0.826051
C37	C	0.482560	-0.216460	0.326065
C38	C	0.982560	0.283540	0.826065
C39	C	0.172936	-0.245261	0.282825
C40	C	0.672936	0.254739	0.782825
C41	C	-0.014738	-0.245273	0.282830
C42	C	0.485262	0.254727	0.782830
O43	O	-0.038986	-0.269739	0.246050
O44	O	0.461014	0.230261	0.746050
N45	N	-0.038225	-0.216493	0.326057
N46	N	0.461775	0.283507	0.826057
C47	C	-0.014792	-0.187706	0.369283
C48	C	0.485208	0.312294	0.869283
O49	O	-0.039076	-0.163224	0.406046
O50	O	0.460924	0.336776	0.906046
C51	C	0.172880	-0.187691	0.369274
C52	C	0.672880	0.312309	0.869274
C53	C	0.196365	-0.216477	0.326049
C54	C	0.696365	0.283523	0.826049
C55	C	0.196421	-0.274043	0.239603
C56	C	0.696421	0.225957	0.739603
C57	C	0.243337	-0.274041	0.239605
C58	C	0.743337	0.225959	0.739605
C59	C	0.266766	-0.245257	0.282829
C60	C	0.766766	0.254743	0.782829
C61	C	0.243281	-0.216475	0.326051
C62	C	0.743281	0.283525	0.826051
C63	C	0.196312	-0.158902	0.412497
C64	C	0.696312	0.341098	0.912497
C65	C	0.243233	-0.158900	0.412489
C66	C	0.743233	0.341100	0.912489
C67	C	0.266719	-0.187685	0.369264
C68	C	0.766719	0.312315	0.869264
C69	C	0.313626	-0.187689	0.369277
C70	C	0.813626	0.312311	0.869277
N71	N	0.337114	-0.216469	0.326050
N72	N	0.837114	0.283531	0.826050
C73	C	0.313684	-0.245253	0.282826
C74	C	0.813684	0.254747	0.782826
C75	C	-0.113323	-0.187717	0.369285
C76	C	0.386677	0.312283	0.869285
C77	C	-0.160241	-0.187721	0.369289
C78	C	0.339759	0.312279	0.869289
C79	C	-0.160183	-0.245287	0.282834
C80	C	0.339817	0.254713	0.782834
C81	C	-0.113264	-0.245285	0.282835
C82	C	0.386736	0.254715	0.782835
C83	C	-0.089835	-0.216497	0.326058
C84	C	0.410165	0.283503	0.826058
C85	C	0.412210	-0.245247	0.282833
C86	C	0.912210	0.254753	0.782833
C87	C	0.459130	-0.245244	0.282841
C88	C	0.959130	0.254756	0.782841
C89	C	0.459068	-0.187676	0.369293
C90	C	0.959068	0.312324	0.869293
C91	C	0.412152	-0.187681	0.369288
C92	C	0.912152	0.312319	0.869288
C93	C	0.388725	-0.216468	0.326053
C94	C	0.888725	0.283532	0.826053
O95	O	0.337904	-0.163232	0.406032
O96	O	0.837904	0.336768	0.906032
O97	O	0.337977	-0.269724	0.246058
O98	O	0.837977	0.230276	0.746058
C99	C	0.126020	-0.245262	0.282823
C100	C	0.626020	0.254738	0.782823
C101	C	0.102535	-0.216480	0.326045
C102	C	0.602535	0.283520	0.826045
C103	C	0.125964	-0.187696	0.369270
C104	C	0.625964	0.312304	0.869270
C105	C	0.055617	-0.216484	0.326049
C106	C	0.555617	0.283516	0.826049
C107	C	0.032187	-0.245268	0.282824
C108	C	0.532187	0.254732	0.782824
C109	C	0.055675	-0.274048	0.239597
C110	C	0.555675	0.225952	0.739597
C111	C	0.102590	-0.274047	0.239599
C112	C	0.602590	0.225953	0.739599
C113	C	0.102477	-0.158916	0.412497
C114	C	0.602477	0.341084	0.912497
C115	C	0.055561	-0.158920	0.412492
C116	C	0.555561	0.341080	0.912492
C117	C	0.032131	-0.187705	0.369268
C118	C	0.532131	0.312295	0.869268
C119	C	0.649244	-0.333655	0.326030
C120	C	1.149244	0.166345	0.826030
C121	C	0.649256	-0.383590	0.326019
C122	C	1.149256	0.116410	0.826019
C123	C	0.620547	-0.693239	0.282660
C124	C	1.120547	-0.193239	0.782660
C125	C	0.620560	-0.880912	0.282613
C126	C	1.120560	-0.380912	0.782613
O127	O	0.596128	-0.905182	0.245814
O128	O	1.096128	-0.405182	0.745814
N129	N	0.649278	-0.904375	0.325892
N130	N	1.149278	-0.404375	0.825892
C131	C	0.677992	-0.880917	0.369190
C132	C	1.177992	-0.380917	0.869190
O133	O	0.702415	-0.905180	0.406006
O134	O	1.202415	-0.405180	0.906006
C135	C	0.677977	-0.693244	0.369240
C136	C	1.177977	-0.193244	0.869240
C137	C	0.649260	-0.669784	0.325953
C138	C	1.149260	-0.169784	0.825953
C139	C	0.591833	-0.669779	0.239377
C140	C	1.091833	-0.169779	0.739377
C141	C	0.591832	-0.622863	0.239386
C142	C	1.091832	-0.122863	0.739386
C143	C	0.620545	-0.599408	0.282679
C144	C	1.120545	-0.099408	0.782679
C145	C	0.649259	-0.622869	0.325962
C146	C	1.149259	-0.122869	0.825962
C147	C	0.706689	-0.669787	0.412540
C148	C	1.206689	-0.169787	0.912540
C149	C	0.706682	-0.622866	0.412550
C150	C	1.206682	-0.122866	0.912550
C151	C	0.677965	-0.599406	0.369263
C152	C	1.177965	-0.099406	0.869263
C153	C	0.677971	-0.552498	0.369264
C154	C	1.177971	-0.052498	0.869264
N155	N	0.649254	-0.529035	0.325985
N156	N	1.149254	-0.029035	0.825985
C157	C	0.620540	-0.552490	0.282692
C158	C	1.120540	-0.052490	0.782692
C159	C	0.677999	-0.979447	0.369160
C160	C	1.177999	-0.479447	0.869160
C161	C	0.678003	-1.026365	0.369146
C162	C	1.178003	-0.526365	0.869146
C163	C	0.620570	-1.026358	0.282570
C164	C	1.120570	-0.526358	0.782570
C165	C	0.620568	-0.979439	0.282580
C166	C	1.120568	-0.479439	0.782580
C167	C	0.649281	-0.955985	0.325880
C168	C	1.149281	-0.455985	0.825880
C169	C	0.620540	-0.453964	0.282715
C170	C	1.120540	0.046036	0.782715
C171	C	0.620543	-0.407045	0.282727
C172	C	1.120543	0.092955	0.782727
C173	C	0.677974	-0.407057	0.369305
C174	C	1.177974	0.092943	0.869305
C175	C	0.677973	-0.453972	0.369291
C176	C	1.177973	0.046028	0.869291
C177	C	0.649253	-0.477425	0.325994
C178	C	1.149253	0.022575	0.825994
O179	O	0.702387	-0.528199	0.406049
O180	O	1.202387	-0.028199	0.906049
O181	O	0.596114	-0.528219	0.245892
O182	O	1.096114	-0.028219	0.745892
C183	C	0.620548	-0.740155	0.282650
C184	C	1.120548	-0.240155	0.782650
C185	C	0.649263	-0.763615	0.325933
C186	C	1.149263	-0.263615	0.825933
C187	C	0.677976	-0.740160	0.369226
C188	C	1.177976	-0.240160	0.869226
C189	C	0.649267	-0.810533	0.325920
C190	C	1.149267	-0.310533	0.825920
C191	C	0.620554	-0.833988	0.282627
C192	C	1.120554	-0.333988	0.782627
C193	C	0.591836	-0.810525	0.239348
C194	C	1.091836	-0.310525	0.739348
C195	C	0.591835	-0.763610	0.239357
C196	C	1.091835	-0.263610	0.739357
C197	C	0.706694	-0.763623	0.412506
C198	C	1.206694	-0.263623	0.912506
C199	C	0.706693	-0.810538	0.412492
C200	C	1.206693	-0.310538	0.912492
C201	C	0.677980	-0.833993	0.369199
C202	C	1.177980	-0.333993	0.869199
C203	C	0.766395	-0.216497	0.326062
C204	C	1.266395	0.283503	0.826062
C205	C	0.816329	-0.216505	0.326064
C206	C	1.316329	0.283495	0.826064
C207	C	0.649166	-0.216455	0.501912
C208	C	1.149166	0.283545	1.001912
C209	C	0.649186	-0.216461	0.577144
C210	C	1.149186	0.283539	1.077144
C211	C	0.649215	-0.099754	0.326033
C212	C	1.149215	0.400246	0.826033
C213	C	0.649290	-0.049820	0.325854
C214	C	1.149290	0.450180	0.825854
C215	C	0.649280	-0.216509	0.149514
C216	C	1.149280	0.283491	0.649514
C217	C	0.649306	-0.216522	0.074282
C218	C	1.149306	0.283478	0.574282
C219	C	0.677940	-0.187762	0.612474
C220	C	1.177940	0.312238	1.112474
C221	C	0.677959	-0.187772	0.683162
C222	C	1.177959	0.312228	1.183162
C223	C	0.649221	-0.216479	0.718520
C224	C	1.149221	0.283521	1.218520
C225	C	0.620465	-0.245181	0.683186
C226	C	1.120465	0.254819	1.183186
C227	C	0.620449	-0.245173	0.612498
C228	C	1.120449	0.254827	1.112498
C229	C	0.620531	-0.245214	0.968259
C230	C	1.120531	0.254786	1.468259
C231	C	0.620549	-0.245219	1.038951
C232	C	1.120549	0.254781	1.538951
C233	C	0.678042	-0.187814	1.038923
C234	C	1.178042	0.312186	1.538923
C235	C	0.678026	-0.187806	0.968235
C236	C	1.178026	0.312194	1.468235
C237	C	0.649272	-0.216509	0.932907
C238	C	1.149272	0.283491	1.432907
C239	C	0.649252	-0.216498	0.856259
C240	C	1.149252	0.283502	1.356259
C241	C	0.649238	-0.216487	0.795167
C242	C	1.149238	0.283513	1.295167
H243	H	-0.179359	-0.164286	0.404495
H244	H	0.320641	0.335714	0.904495
H245	H	0.597148	-0.268599	1.067737
H246	H	1.097148	0.231401	1.567737
H247	H	0.036443	-0.135481	0.447698
H248	H	0.536443	0.364519	0.947698
C249	C	0.563692	-0.301947	0.975397
C250	C	1.063692	0.198053	1.475397
C251	C	0.588917	-0.276756	0.929432
C252	C	1.088917	0.223244	1.429432
H253	H	0.544170	-0.321417	0.951423
H254	H	1.044170	0.178583	1.451423
H255	H	0.583261	-0.319157	1.002922
H256	H	1.083261	0.180843	1.502922
H257	H	0.546532	-0.282352	1.003011
H258	H	1.046532	0.217648	1.503011
H259	H	0.606079	-0.296351	0.901821
H260	H	1.106079	0.203649	1.401821
H261	H	0.569346	-0.259544	0.901895
H262	H	1.069346	0.240456	1.401895
C263	C	0.473614	-0.321359	0.250024
C264	C	0.973614	0.178641	0.750024
C265	C	0.484944	-0.276886	0.235322
C266	C	0.984944	0.223114	0.735322
H267	H	0.489548	-0.340891	0.220685
H268	H	0.989548	0.159109	0.720685
H269	H	0.481294	-0.327876	0.295509
H270	H	0.981294	0.172124	0.795509
H271	H	0.442317	-0.325471	0.243838
H272	H	0.942317	0.174529	0.743838
H273	H	0.516240	-0.272773	0.241513
H274	H	1.016240	0.227227	0.741513
H275	H	0.477267	-0.270367	0.189827
H276	H	0.977267	0.229633	0.689827
H277	H	0.597192	-1.045463	0.247318
H278	H	1.097192	-0.545463	0.747318
H279	H	0.597068	-0.268556	0.711979
H280	H	1.097068	0.231444	1.211979
C281	C	0.531398	-0.722513	0.229944
C282	C	1.031398	-0.222513	0.729944
C283	C	0.560265	-0.695553	0.191784
C284	C	1.060265	-0.195553	0.691784
H285	H	0.511907	-0.738419	0.200557
H286	H	1.011907	-0.238419	0.700557
H287	H	0.548497	-0.743205	0.255704
H288	H	1.048497	-0.243205	0.755704
H289	H	0.514207	-0.704195	0.259441
H290	H	1.014207	-0.204195	0.759441
H291	H	0.577458	-0.713871	0.162290
H292	H	1.077458	-0.213871	0.662290
H293	H	0.543164	-0.674858	0.166012
H294	H	1.043164	-0.174858	0.666012
H295	H	0.597034	-0.268543	0.583734
H296	H	1.097034	0.231457	1.083734
C297	C	0.614328	-0.506735	0.191652
C298	C	1.114328	-0.006735	0.691652
C299	C	0.588973	-0.479741	0.235121
C300	C	1.088973	0.020259	0.735121
H301	H	0.594840	-0.522650	0.162272
H302	H	1.094840	-0.022650	0.662272
H303	H	0.633908	-0.488444	0.165773
H304	H	1.133908	0.011556	0.665773
H305	H	0.631425	-0.527425	0.217433
H306	H	1.131425	-0.027425	0.717433
H307	H	0.571878	-0.459049	0.209340
H308	H	1.071878	0.040951	0.709340
H309	H	0.569385	-0.498034	0.261003
H310	H	1.069385	0.001966	0.761003
H311	H	0.262454	-0.297480	0.204405
H312	H	0.762454	0.202520	0.704405
C313	C	0.359485	-0.305696	0.273552
C314	C	0.859485	0.194304	0.773552
C315	C	0.386462	-0.276892	0.235314
C316	C	0.886462	0.223108	0.735314
H317	H	0.343587	-0.325231	0.244217
H318	H	0.843587	0.174769	0.744217
H319	H	0.377787	-0.322839	0.303076
H320	H	0.877787	0.177161	0.803076
H321	H	0.338781	-0.288551	0.299287
H322	H	0.838781	0.211449	0.799287
H323	H	0.407168	-0.294037	0.209583
H324	H	0.907168	0.205963	0.709583
H325	H	0.368158	-0.259748	0.205778
H326	H	0.868158	0.240252	0.705778
H327	H	0.177198	-0.135462	0.447695
H328	H	0.677198	0.364538	0.947695
C329	C	-0.016225	-0.299605	0.201215
C330	C	0.483775	0.200395	0.701215
C331	C	0.029914	-0.305687	0.192082
C332	C	0.529914	0.194313	0.692082
H333	H	-0.032129	-0.319133	0.171877
H334	H	0.467871	0.180867	0.671877
H335	H	-0.023922	-0.306127	0.246701
H336	H	0.476078	0.193873	0.746701
H337	H	-0.023917	-0.269429	0.191248
H338	H	0.476083	0.230571	0.691248
H339	H	0.037606	-0.335862	0.202054
H340	H	0.537606	0.164138	0.702054
H341	H	0.037614	-0.299168	0.146586
H342	H	0.537614	0.200832	0.646586
C343	C	0.734863	-0.131065	0.975309
C344	C	1.234863	0.368935	1.475309
C345	C	0.709617	-0.156252	0.929371
C346	C	1.209617	0.343748	1.429371
H347	H	0.754369	-0.111588	0.951315
H348	H	1.254369	0.388412	1.451315
H349	H	0.715306	-0.113864	1.002917
H350	H	1.215306	0.386136	1.502917
H351	H	0.752040	-0.150664	1.002843
H352	H	1.252040	0.349336	1.502843
H353	H	0.692437	-0.136653	0.901840
H354	H	1.192437	0.363347	1.401840
H355	H	0.729176	-0.173455	0.901751
H356	H	1.229176	0.326545	1.401751
H357	H	0.177349	-0.297483	0.204401
H358	H	0.677349	0.202517	0.704401
H359	H	0.121708	-0.297486	0.204400
H360	H	0.621708	0.202514	0.704400
H361	H	-0.094145	-0.268724	0.247636
H362	H	0.405855	0.231276	0.747636
H363	H	0.478153	-0.164242	0.404486
H364	H	0.978153	0.335758	0.904486
H365	H	0.730072	-0.688880	0.447790
H366	H	1.230072	-0.188880	0.947790
C367	C	-0.060598	-0.181357	0.460323
C368	C	0.439402	0.318643	0.960323
C369	C	-0.087573	-0.156073	0.416806
C370	C	0.412427	0.343927	0.916806
H371	H	-0.044701	-0.161821	0.489659
H372	H	0.455299	0.338179	0.989659
H373	H	-0.078900	-0.200900	0.486247
H374	H	0.421100	0.299100	0.986247
H375	H	-0.039892	-0.198491	0.434574
H376	H	0.460108	0.301509	0.934574
H377	H	-0.108281	-0.138941	0.442556
H378	H	0.391719	0.361059	0.942556
H379	H	-0.069269	-0.136522	0.390880
H380	H	0.430731	0.363478	0.890880
H381	H	0.701457	-0.164444	1.067695
H382	H	1.201457	0.335556	1.567695
C383	C	0.535060	-0.627583	0.153816
C384	C	1.035060	-0.127583	0.653816
C385	C	0.560261	-0.597080	0.191810
C386	C	1.060261	-0.097080	0.691810
H387	H	0.515566	-0.611667	0.124448
H388	H	1.015566	-0.111667	0.624448
H389	H	0.554646	-0.645891	0.127924
H390	H	1.054646	-0.145891	0.627924
H391	H	0.517872	-0.645874	0.183313
H392	H	1.017872	-0.145874	0.683313
H393	H	0.577452	-0.578791	0.162313
H394	H	1.077452	-0.078791	0.662313
H395	H	0.540673	-0.578764	0.217704
H396	H	1.040673	-0.078764	0.717704
C397	C	0.535064	-0.805818	0.153765
C398	C	1.035064	-0.305818	0.653765
C399	C	0.560273	-0.836313	0.191759
C400	C	1.060273	-0.336313	0.691759
H401	H	0.515581	-0.821740	0.124388
H402	H	1.015581	-0.321740	0.624388
H403	H	0.517868	-0.787507	0.183256
H404	H	1.017868	-0.287507	0.683256
H405	H	0.554648	-0.787529	0.127876
H406	H	1.054648	-0.287529	0.627876
H407	H	0.540689	-0.854599	0.217652
H408	H	1.040689	-0.354599	0.717652
H409	H	0.577471	-0.854631	0.162265
H410	H	1.077471	-0.354631	0.662265
C411	C	0.684215	-0.926682	0.460237
C412	C	1.184215	-0.426682	0.960237
C413	C	0.709566	-0.953672	0.416757
C414	C	1.209566	-0.453672	0.916757
H415	H	0.703705	-0.910773	0.489622
H416	H	1.203705	-0.410773	0.989622
H417	H	0.667118	-0.905991	0.434468
H418	H	1.167118	-0.405991	0.934468
H419	H	0.664633	-0.944979	0.486116
H420	H	1.164633	-0.444979	0.986116
H421	H	0.729145	-0.935374	0.390873
H422	H	1.229145	-0.435374	0.890873
H423	H	0.726670	-0.974365	0.442528
H424	H	1.226670	-0.474365	0.942528
C425	C	-0.232083	-0.270846	0.244453
C426	C	0.267917	0.229154	0.744453
C427	C	-0.185943	-0.276926	0.235317
C428	C	0.314057	0.223074	0.735317
H429	H	-0.247986	-0.290373	0.215113
H430	H	0.252014	0.209627	0.715113
H431	H	-0.239778	-0.277371	0.289938
H432	H	0.260222	0.222629	0.789938
H433	H	-0.239775	-0.240670	0.234490
H434	H	0.260225	0.259330	0.734490
H435	H	-0.178250	-0.307101	0.245285
H436	H	0.321750	0.192899	0.745285
H437	H	-0.178244	-0.270404	0.189821
H438	H	0.321756	0.229596	0.689821
C439	C	0.734782	-0.131021	0.676034
C440	C	1.234782	0.368979	1.176034
C441	C	0.709565	-0.156223	0.721996
C442	C	1.209565	0.343777	1.221996
H443	H	0.754292	-0.111541	0.700010
H444	H	1.254292	0.388459	1.200010
H445	H	0.751949	-0.150607	0.648425
H446	H	1.251949	0.349393	1.148425
H447	H	0.715204	-0.113817	0.648504
H448	H	1.215204	0.386183	1.148504
H449	H	0.729142	-0.173429	0.749524
H450	H	1.229142	0.326571	1.249524
H451	H	0.692396	-0.136635	0.749617
H452	H	1.192396	0.363365	1.249617
C453	C	0.238460	-0.101997	0.497946
C454	C	0.738460	0.398003	0.997946
C455	C	0.268986	-0.127257	0.460008
C456	C	0.768986	0.372743	0.960008
H457	H	0.254358	-0.082466	0.527286
H458	H	0.754358	0.417534	1.027286
H459	H	0.220165	-0.084850	0.468418
H460	H	0.720165	0.415150	0.968418
H461	H	0.220158	-0.121546	0.523874
H462	H	0.720158	0.378454	1.023874
H463	H	0.287285	-0.107708	0.434077
H464	H	0.787285	0.392292	0.934077
H465	H	0.287288	-0.144406	0.489540
H466	H	0.787288	0.355594	0.989540
C467	C	0.359350	-0.181329	0.460321
C468	C	0.859350	0.318671	0.960321
C469	C	0.386333	-0.156043	0.416804
C470	C	0.886333	0.343957	0.916804
H471	H	0.343415	-0.161794	0.489654
H472	H	0.843415	0.338206	0.989654
H473	H	0.338682	-0.198466	0.434575
H474	H	0.838682	0.301534	0.934575
H475	H	0.377655	-0.200869	0.486253
H476	H	0.877655	0.299131	0.986253
H477	H	0.368028	-0.136505	0.390868
H478	H	0.868028	0.363495	0.890868
H479	H	0.407003	-0.138899	0.442553
H480	H	0.907003	0.361101	0.942553
C481	C	0.097697	-0.102020	0.497955
C482	C	0.597697	0.397980	0.997955
C483	C	0.128226	-0.127276	0.460017
C484	C	0.628226	0.372724	0.960017
H485	H	0.113593	-0.082489	0.527298
H486	H	0.613593	0.417511	1.027298
H487	H	0.079403	-0.084872	0.468427
H488	H	0.579403	0.415128	0.968427
H489	H	0.079395	-0.121571	0.523878
H490	H	0.579395	0.378429	1.023878
H491	H	0.146526	-0.107725	0.434090
H492	H	0.646526	0.392275	0.934090
H493	H	0.146528	-0.144425	0.489549
H494	H	0.646528	0.355575	0.989549
H495	H	0.597159	-0.387946	0.247474
H496	H	1.097159	0.112054	0.747474
H497	H	0.597185	-0.960341	0.247332
H498	H	1.097185	-0.460341	0.747332
H499	H	0.730066	-0.603772	0.447806
H500	H	1.230066	-0.103772	0.947806
C501	C	0.734769	-1.021648	0.454727
C502	C	1.234769	-0.521648	0.954727
C503	C	0.709572	-1.052150	0.416725
C504	C	1.209572	-0.552150	0.916725
H505	H	0.754256	-1.037566	0.484105
H506	H	1.254256	-0.537566	0.984105
H507	H	0.751962	-1.003361	0.425241
H508	H	1.251962	-0.503361	0.925241
H509	H	0.715178	-1.003337	0.480615
H510	H	1.215178	-0.503337	0.980615
H511	H	0.729163	-1.070459	0.390832
H512	H	1.229163	-0.570459	0.890832
H513	H	0.692378	-1.070445	0.446214
H514	H	1.192378	-0.570445	0.946214
H515	H	0.701340	-0.164384	0.583690
H516	H	1.201340	0.335616	1.083690
H517	H	0.701361	-0.473075	0.404532
H518	H	1.201361	0.026925	0.904532
H519	H	0.701353	-0.387951	0.404551
H520	H	1.201353	0.112049	0.904551
H521	H	0.568451	-0.744512	0.204108
H522	H	1.068451	-0.244512	0.704108
C523	C	0.763458	-0.805821	0.498081
C524	C	1.263458	-0.305821	0.998081
C525	C	0.738260	-0.836323	0.460080
C526	C	1.238260	-0.336323	0.960080
H527	H	0.782941	-0.821739	0.527464
H528	H	1.282941	-0.321739	1.027464
H529	H	0.780654	-0.787537	0.468595
H530	H	1.280654	-0.287537	0.968595
H531	H	0.743867	-0.787507	0.523964
H532	H	1.243867	-0.287507	1.023964
H533	H	0.757851	-0.854635	0.434192
H534	H	1.257851	-0.354635	0.934192
H535	H	0.721063	-0.854615	0.489569
H536	H	1.221063	-0.354615	0.989569
H537	H	0.730074	-0.744530	0.447763
H538	H	1.230074	-0.244530	0.947763
