data_functionalizedCrystal
_audit_creation_method	'MofGen! by Chris Wilmer'
_symmetry_space_group_name_H-M	'P1'
_symmetry_Int_Tables_number	1
_symmetry_cell_setting	triclinic
loop_
_symmetry_equiv_pos_as_xyz
  x,y,z
_cell_length_a	8.140239
_cell_length_b	9.065218
_cell_length_c	23.532416
_cell_angle_alpha	83.934100
_cell_angle_beta	90.001056
_cell_angle_gamma	90.004899
loop_
_atom_site_label
_atom_site_type_symbol
_atom_site_fract_x
_atom_site_fract_y
_atom_site_fract_z
O1	O	-0.136687	-1.956290	-0.083497
O2	O	0.363313	-1.456290	0.416503
O3	O	-0.136671	-1.526668	-0.090346
O4	O	0.363329	-1.026668	0.409654
O5	O	-0.136679	-1.754428	-0.004086
O6	O	0.363321	-1.254428	0.495914
O7	O	-0.136679	-1.728531	-0.169758
O8	O	0.363321	-1.228531	0.330242
O9	O	0.136548	-1.754415	-0.004085
O10	O	0.636548	-1.254415	0.495915
O11	O	0.136556	-1.526656	-0.090345
O12	O	0.636556	-1.026656	0.409655
O13	O	0.136540	-1.956278	-0.083496
O14	O	0.636540	-1.456278	0.416504
Zn15	Zn	0.179929	-1.741465	-0.086921
Zn16	Zn	0.679929	-1.241465	0.413079
Zn17	Zn	-0.180060	-1.741481	-0.086922
Zn18	Zn	0.319940	-1.241481	0.413078
O19	O	0.136548	-1.728518	-0.169757
O20	O	0.636548	-1.228518	0.330243
C21	C	-0.000056	-1.471708	-0.089687
C22	C	0.499944	-0.971708	0.410313
C23	C	-0.000050	-1.307962	-0.087719
C24	C	0.499950	-0.807962	0.412281
N25	N	0.425611	-1.741464	-0.086919
N26	N	0.925611	-1.241464	0.413081
N27	N	-0.425742	-1.741493	-0.086919
N28	N	0.074258	-1.241493	0.413081
C29	C	-0.000069	-1.011238	-0.084155
C30	C	0.499931	-0.511238	0.415845
C31	C	-0.000055	-1.174984	-0.086123
C32	C	0.499945	-0.674984	0.413877
C33	C	-0.000069	-1.753760	0.017136
C34	C	0.499931	-1.253760	0.517136
C35	C	-0.000079	-1.751771	0.080367
C36	C	0.499921	-1.251771	0.580367
C37	C	-0.149013	-1.743320	0.353673
C38	C	0.350987	-1.243320	0.853673
C39	C	-0.149016	-1.745167	0.294259
C40	C	0.350984	-1.245167	0.794259
O41	O	-0.275676	-1.746179	0.263527
O42	O	0.224324	-1.246179	0.763527
N43	N	-0.000078	-1.746074	0.264551
N44	N	0.499922	-1.246074	0.764551
C45	C	0.148871	-1.745149	0.294260
C46	C	0.648871	-1.245149	0.794260
O47	O	0.275554	-1.746092	0.263536
O48	O	0.775554	-1.246092	0.763536
C49	C	0.148872	-1.743313	0.353673
C50	C	0.648872	-1.243313	0.853673
C51	C	-0.000075	-1.742391	0.383378
C52	C	0.499925	-1.242391	0.883378
C53	C	-0.297949	-1.742399	0.383377
C54	C	0.202051	-1.242399	0.883377
C55	C	-0.297946	-1.740549	0.442787
C56	C	0.202054	-1.240549	0.942787
C57	C	-0.149008	-1.739620	0.472492
C58	C	0.350992	-1.239620	0.972492
C59	C	-0.000072	-1.740541	0.442787
C60	C	0.499928	-1.240541	0.942787
C61	C	0.297820	-1.742399	0.383382
C62	C	0.797820	-1.242399	0.883382
C63	C	0.297808	-1.740564	0.442799
C64	C	0.797808	-1.240564	0.942799
C65	C	0.148860	-1.739641	0.472503
C66	C	0.648860	-1.239641	0.972503
C67	C	0.148868	-1.737763	0.531901
C68	C	0.648868	-1.237763	1.031901
N69	N	-0.000069	-1.736855	0.561609
N70	N	0.499931	-1.236855	1.061609
C71	C	-0.149007	-1.737784	0.531904
C72	C	0.350993	-1.237784	1.031904
C73	C	0.148859	-1.749008	0.169489
C74	C	0.648859	-1.249008	0.669489
C75	C	0.148860	-1.750834	0.110077
C76	C	0.648860	-1.250834	0.610077
C77	C	-0.149028	-1.750854	0.110080
C78	C	0.350972	-1.250854	0.610080
C79	C	-0.149027	-1.749018	0.169493
C80	C	0.350973	-1.249018	0.669493
C81	C	-0.000079	-1.748101	0.199197
C82	C	0.499921	-1.248101	0.699197
C83	C	-0.148990	-1.733898	0.656668
C84	C	0.351010	-1.233898	1.156668
C85	C	-0.148974	-1.732042	0.716083
C86	C	0.351026	-1.232042	1.216083
C87	C	0.148913	-1.732031	0.716075
C88	C	0.648913	-1.232031	1.216075
C89	C	0.148898	-1.733879	0.656665
C90	C	0.648898	-1.233879	1.156665
C91	C	-0.000067	-1.734817	0.626964
C92	C	0.499933	-1.234817	1.126964
O93	O	0.275464	-1.736755	0.562672
O94	O	0.775464	-1.236755	1.062672
O95	O	-0.275669	-1.736861	0.562637
O96	O	0.224331	-1.236861	1.062637
C97	C	-0.000058	-1.729171	0.809021
C98	C	0.499942	-1.229171	1.309021
C99	C	-0.000036	-1.731114	0.745787
C100	C	0.499964	-1.231114	1.245787
H101	H	-0.270291	-1.734664	0.632493
H102	H	0.229709	-1.234664	1.132493
H103	H	0.270183	-1.734571	0.632476
H104	H	0.770183	-1.234571	1.132476
H105	H	-0.270270	-1.731286	0.740265
H106	H	0.229730	-1.231286	1.240265
H107	H	-0.419234	-1.739809	0.466967
H108	H	0.080766	-1.239809	0.966967
H109	H	0.270175	-1.731268	0.740271
H110	H	0.770175	-1.231268	1.240271
H111	H	-0.270301	-1.751605	0.085883
H112	H	0.229699	-1.251605	0.585883
H113	H	-0.419239	-1.743160	0.359198
H114	H	0.080761	-1.243160	0.859198
H115	H	-0.270313	-1.748264	0.193674
H116	H	0.229687	-1.248264	0.693674
H117	H	0.270148	-1.751557	0.085895
H118	H	0.770148	-1.251557	0.585895
H119	H	0.270158	-1.748249	0.193670
H120	H	0.770158	-1.248249	0.693670
H121	H	0.419102	-1.739818	0.466981
H122	H	0.919102	-1.239818	0.966981
H123	H	0.419109	-1.743166	0.359207
H124	H	0.919109	-1.243166	0.859207
