data_functionalizedCrystal
_audit_creation_method	'MofGen! by Chris Wilmer'
_symmetry_space_group_name_H-M	'P1'
_symmetry_Int_Tables_number	1
_symmetry_cell_setting	triclinic
loop_
_symmetry_equiv_pos_as_xyz
  x,y,z
_cell_length_a	16.625547
_cell_length_b	29.839131
_cell_length_c	16.625539
_cell_angle_alpha	89.960252
_cell_angle_beta	89.975178
_cell_angle_gamma	90.035164
loop_
_atom_site_label
_atom_site_type_symbol
_atom_site_fract_x
_atom_site_fract_y
_atom_site_fract_z
Zn1	Zn	1.232609	-0.178853	-0.455937
Zn2	Zn	1.232482	-0.253984	-0.321077
Zn3	Zn	1.097771	-0.178869	-0.321107
Zn4	Zn	1.097711	-0.253957	-0.455857
O5	O	1.165143	-0.216416	-0.388494
O6	O	1.345425	-0.188824	-0.438068
O7	O	1.214584	-0.244038	-0.208249
O8	O	1.115735	-0.116000	-0.339039
O9	O	1.345331	-0.244023	-0.338987
O10	O	1.214800	-0.115988	-0.438097
O11	O	1.115612	-0.188851	-0.208271
O12	O	0.984931	-0.188825	-0.338961
O13	O	1.115634	-0.243976	-0.568700
O14	O	0.984887	-0.243991	-0.437961
O15	O	1.214743	-0.188798	-0.568759
O16	O	1.214526	-0.316848	-0.338910
O17	O	1.115511	-0.316828	-0.437932
C18	C	0.955652	-0.216407	-0.388456
C19	C	0.866031	-0.216414	-0.388459
C20	C	0.793249	-0.216415	-0.388469
C21	C	0.701940	-0.216417	-0.388489
C22	C	0.629164	-0.216422	-0.388510
C23	C	0.537850	-0.216425	-0.388529
C24	C	1.165020	-0.333138	-0.388426
C25	C	1.165041	-0.383073	-0.388424
C26	C	1.216715	-0.692675	-0.440148
C27	C	1.216803	-0.880348	-0.440196
O28	O	1.260617	-0.904578	-0.484123
N29	N	1.165280	-0.903858	-0.388584
C30	C	1.113728	-0.880446	-0.336960
O31	O	1.069902	-0.904749	-0.293067
C32	C	1.113637	-0.692774	-0.336916
C33	C	1.165169	-0.669267	-0.388526
C34	C	1.268242	-0.669168	-0.491754
C35	C	1.268223	-0.622253	-0.491738
C36	C	1.216677	-0.598844	-0.440116
C37	C	1.165150	-0.622352	-0.388510
C38	C	1.062082	-0.669363	-0.285296
C39	C	1.062063	-0.622442	-0.285291
C40	C	1.113594	-0.598935	-0.336901
C41	C	1.113584	-0.552028	-0.336872
N42	N	1.165107	-0.528518	-0.388484
C43	C	1.216653	-0.551927	-0.440107
C44	C	1.113781	-0.978977	-0.336985
C45	C	1.113805	-1.025895	-0.336995
C46	C	1.216878	-1.025794	-0.440233
C47	C	1.216858	-0.978875	-0.440218
C48	C	1.165303	-0.955467	-0.388597
C49	C	1.216609	-0.453401	-0.440069
C50	C	1.216588	-0.406481	-0.440046
C51	C	1.113512	-0.406586	-0.336812
C52	C	1.113536	-0.453502	-0.336831
C53	C	1.165087	-0.476908	-0.388466
O54	O	1.069787	-0.527769	-0.292975
O55	O	1.260461	-0.527616	-0.484005
C56	C	1.216735	-0.739591	-0.440164
C57	C	1.165208	-0.763098	-0.388557
C58	C	1.113662	-0.739690	-0.336935
C59	C	1.165231	-0.810016	-0.388567
C60	C	1.216777	-0.833424	-0.440189
C61	C	1.268300	-0.809915	-0.491801
C62	C	1.268281	-0.762999	-0.491786
C63	C	1.062139	-0.763199	-0.285323
C64	C	1.062163	-0.810115	-0.285342
C65	C	1.113709	-0.833523	-0.336964
C66	C	1.375452	-0.216425	-0.388533
C67	C	1.465073	-0.216429	-0.388550
C68	C	1.165196	-0.216382	-0.598803
C69	C	1.165218	-0.216368	-0.688425
C70	C	1.165289	-0.099237	-0.388580
C71	C	1.165351	-0.049303	-0.388617
C72	C	1.165255	-0.216318	-1.016601
C73	C	1.165243	-0.216333	-0.925292
C74	C	1.165237	-0.216343	-0.852515
C75	C	1.165224	-0.216358	-0.761201
C76	C	1.165137	-0.216417	-0.179004
C77	C	1.165271	-0.216304	-0.089383
H78	H	1.258554	-0.387343	-0.482073
C79	C	1.057780	-0.953648	-0.280840
C80	C	1.012687	-0.984284	-0.235631
C81	C	0.961103	-0.960970	-0.183890
H82	H	1.022543	-0.935346	-0.311545
H83	H	1.088617	-0.935357	-0.245689
H84	H	0.981852	-1.002567	-0.270777
H85	H	1.047903	-1.002586	-0.204909
H86	H	0.991940	-0.942679	-0.148740
H87	H	0.925872	-0.942669	-0.214602
H88	H	0.930507	-0.981753	-0.153205
H89	H	1.310217	-0.688222	-0.533796
H90	H	1.020078	-0.603386	-0.243256
H91	H	1.310242	-0.743863	-0.533811
C92	C	1.006122	-0.835552	-0.229273
C93	C	0.960963	-0.805004	-0.184082
C94	C	0.909318	-0.828419	-0.132438
H95	H	1.036894	-0.853861	-0.194101
H96	H	0.970935	-0.853845	-0.260073
H97	H	0.996145	-0.786720	-0.153284
H98	H	0.930174	-0.786695	-0.219232
H99	H	0.874132	-0.846712	-0.163238
H100	H	0.940097	-0.846727	-0.097272
H101	H	0.878667	-0.807696	-0.101775
H102	H	1.020163	-0.744144	-0.243287
H103	H	1.310182	-0.603116	-0.533766
C104	C	1.006039	-0.694796	-0.229234
C105	C	0.960880	-0.664245	-0.184051
C106	C	0.909233	-0.687656	-0.132404
H107	H	1.036809	-0.713103	-0.194058
H108	H	0.970853	-0.713090	-0.260032
H109	H	0.996062	-0.645959	-0.153255
H110	H	0.930093	-0.645937	-0.219205
H111	H	0.874047	-0.705950	-0.163202
H112	H	0.940010	-0.705962	-0.097234
H113	H	0.878581	-0.666931	-0.101746
H114	H	1.258819	-0.959738	-0.482244
H115	H	1.258582	-0.472452	-0.482121
C116	C	1.272704	-1.051237	-0.496385
C117	C	1.227018	-1.078162	-0.548028
C118	C	1.278409	-1.101605	-0.599775
H119	H	1.307879	-1.069575	-0.465678
H120	H	1.303374	-1.030535	-0.527176
H121	H	1.196363	-1.098862	-0.517240
H122	H	1.191845	-1.059836	-0.578753
H123	H	1.309078	-1.080902	-0.630566
H124	H	1.313581	-1.119939	-0.569061
H125	H	1.247418	-1.119872	-0.634825
C126	C	1.324395	-0.835310	-0.547757
C127	C	1.404184	-0.823882	-0.530275
C128	C	1.455872	-0.847273	-0.581800
H129	H	1.312661	-0.827619	-0.601946
H130	H	1.317076	-0.866623	-0.540366
H131	H	1.411499	-0.792576	-0.537673
H132	H	1.415943	-0.831573	-0.476096
H133	H	1.448554	-0.878586	-0.574409
H134	H	1.444131	-0.839581	-0.635986
H135	H	1.510015	-0.839525	-0.569941
C136	C	1.057812	-1.051470	-0.281087
C137	C	1.006130	-1.078417	-0.326695
C138	C	0.954538	-1.101985	-0.275222
H139	H	1.027034	-1.030856	-0.250328
H140	H	1.088655	-1.069800	-0.245997
H141	H	0.975289	-1.060088	-0.361770
H142	H	1.036885	-1.099039	-0.357451
H143	H	0.985382	-1.120315	-0.240133
H144	H	0.923766	-1.081368	-0.244466
H145	H	0.919471	-1.120274	-0.306159
C146	C	1.057503	-0.478946	-0.280764
C147	C	1.012347	-0.448401	-0.235565
C148	C	0.960707	-0.471820	-0.183921
H149	H	1.088280	-0.497256	-0.245598
H150	H	1.022316	-0.497237	-0.311565
H151	H	1.047529	-0.430117	-0.204767
H152	H	0.981554	-0.430090	-0.270710
H153	H	0.925520	-0.490111	-0.214722
H154	H	0.991490	-0.490129	-0.148760
H155	H	0.930057	-0.451099	-0.153252
C156	C	1.057447	-0.381141	-0.280906
C157	C	1.005726	-0.354219	-0.326518
C158	C	0.954057	-0.330775	-0.275052
H159	H	1.088206	-0.362801	-0.245785
H160	H	1.026708	-0.401842	-0.250183
H161	H	1.036462	-0.333519	-0.357228
H162	H	0.974949	-0.372547	-0.361637
H163	H	0.923318	-0.351476	-0.244328
H164	H	0.984823	-0.312438	-0.239933
H165	H	0.918954	-0.312508	-0.305992
