data_functionalizedCrystal
_audit_creation_method	'MofGen! by Chris Wilmer'
_symmetry_space_group_name_H-M	'P1'
_symmetry_Int_Tables_number	1
_symmetry_cell_setting	triclinic
loop_
_symmetry_equiv_pos_as_xyz
  x,y,z
_cell_length_a	18.050590
_cell_length_b	10.686220
_cell_length_c	10.685880
_cell_angle_alpha	89.641569
_cell_angle_beta	85.655193
_cell_angle_gamma	85.610769
loop_
_atom_site_label
_atom_site_type_symbol
_atom_site_fract_x
_atom_site_fract_y
_atom_site_fract_z
Zn1	Zn	0.231824	1.972306	-0.562409
Zn2	Zn	0.347306	1.956114	-0.352674
Zn3	Zn	0.233337	1.746436	-0.368732
Zn4	Zn	0.366182	1.762535	-0.578449
O5	O	0.294662	1.859348	-0.465566
O6	O	0.238609	2.145699	-0.521154
O7	O	0.324921	1.914786	-0.179262
O8	O	0.129210	1.776437	-0.394431
O9	O	0.323454	2.133803	-0.367063
O10	O	0.128098	1.942383	-0.536724
O11	O	0.241189	1.760736	-0.191060
O12	O	0.259493	1.573031	-0.409984
O13	O	0.355626	1.803876	-0.751864
O14	O	0.357094	1.584859	-0.564063
O15	O	0.256913	1.957994	-0.740079
O16	O	0.453736	1.930396	-0.382617
O17	O	0.467604	1.788175	-0.548493
C18	C	0.310506	1.533429	-0.490507
C19	C	0.317304	1.394002	-0.501207
C20	C	0.100954	1.859420	-0.465579
C21	C	0.018407	1.859451	-0.465585
C22	C	-0.181647	1.949690	-0.542991
C23	C	-0.237269	1.971561	-0.426201
C24	C	-0.132722	1.859439	-0.465593
C25	C	-0.224184	1.837614	-0.582383
C26	C	-0.278706	1.859430	-0.465610
C27	C	-0.187262	1.881365	-0.348737
C28	C	-0.174168	1.747371	-0.505001
C29	C	-0.229768	1.769193	-0.388135
C30	C	-0.048625	1.859447	-0.465584
C31	C	-0.362803	1.859421	-0.465605
C32	C	0.487617	1.859312	-0.465578
C33	C	0.570159	1.859414	-0.465616
C34	C	0.308206	1.884537	-0.792760
C35	C	0.313978	1.895271	-0.932191
C36	C	0.278757	2.186539	-0.440528
C37	C	0.271979	2.325969	-0.429859
C38	C	0.281114	1.834329	-0.139639
C39	C	0.275121	1.823838	-0.000191
H40	H	0.227976	1.374388	-0.360588
H41	H	0.351664	1.964650	-0.980647
H42	H	-0.170934	1.899939	-0.249941
O43	O	0.369867	1.336439	-0.583879
C44	C	0.410627	1.427688	-0.648093
H45	H	0.406523	1.517154	-0.589620
H46	H	0.471528	1.390759	-0.664202
H47	H	0.386790	1.448936	-0.742380
H48	H	-0.160506	2.026063	-0.608345
H49	H	-0.146661	1.652630	-0.538363
H50	H	-0.264760	2.066331	-0.392868
O51	O	-0.243643	1.815500	-0.700268
C52	C	-0.178971	1.801210	-0.783132
H53	H	-0.128850	1.771943	-0.727929
H54	H	-0.185983	1.726051	-0.855639
H55	H	-0.169785	1.894078	-0.832835
O56	O	-0.254825	1.678258	-0.309786
C57	C	-0.236088	1.701728	-0.186834
H58	H	-0.227472	1.805620	-0.176484
H59	H	-0.283096	1.675152	-0.116740
H60	H	-0.182546	1.643392	-0.167856
H61	H	0.237441	1.754459	-0.951741
