data_functionalizedCrystal
_audit_creation_method	'MofGen! by Chris Wilmer'
_symmetry_space_group_name_H-M	'P1'
_symmetry_Int_Tables_number	1
_symmetry_cell_setting	triclinic
loop_
_symmetry_equiv_pos_as_xyz
  x,y,z
_cell_length_a	16.109301
_cell_length_b	16.109301
_cell_length_c	14.586319
_cell_angle_alpha	89.998390
_cell_angle_beta	89.996867
_cell_angle_gamma	83.461481
loop_
_atom_site_label
_atom_site_type_symbol
_atom_site_fract_x
_atom_site_fract_y
_atom_site_fract_z
O1	O	-1.103134	-0.106861	0.076185
O2	O	-0.861072	-0.120161	0.076200
O3	O	-0.988753	0.007520	0.076183
O4	O	-0.975454	-0.234542	0.076203
O5	O	-0.988737	0.007512	-0.076298
O6	O	-0.861057	-0.120168	-0.076281
O7	O	-1.103119	-0.106869	-0.076295
Cu8	Cu	-0.982086	-0.113519	-0.090211
Cu9	Cu	-0.982105	-0.113510	0.090115
O10	O	-0.975438	-0.234550	-0.076278
C11	C	-0.830090	-0.119626	-0.000038
C12	C	-0.737794	-0.118011	-0.000033
C13	C	-0.988206	0.038491	-0.000058
C14	C	-0.986591	0.130786	-0.000059
C15	C	-1.134101	-0.107404	-0.000055
C16	C	-1.226397	-0.109019	-0.000054
C17	C	-0.975984	-0.265521	-0.000035
C18	C	-0.977600	-0.357816	-0.000028
C19	C	-0.515522	-0.190018	-0.000038
C20	C	-0.428801	-0.188494	-0.000044
C21	C	-0.448676	-0.037006	-0.000052
C22	C	-0.535394	-0.038530	-0.000053
C23	C	-0.568815	-0.115039	-0.000041
C24	C	-0.395376	-0.111990	-0.000046
C25	C	-0.301350	-0.110337	-0.000053
C26	C	-0.662847	-0.116693	-0.000036
N27	N	-0.982079	-0.113525	-0.217042
C28	C	-1.058599	0.353059	-0.000049
C29	C	-1.057075	0.439779	-0.000041
C30	C	-0.905586	0.419905	-0.000036
C31	C	-0.907111	0.333186	-0.000037
C32	C	-0.983620	0.299766	-0.000048
C33	C	-0.980571	0.473205	-0.000039
C34	C	-0.978918	0.567231	-0.000031
C35	C	-0.985273	0.205734	-0.000055
C36	C	-1.032502	-0.163954	-0.452048
C37	C	-1.032511	-0.163948	-0.548029
C38	C	-0.931693	-0.063064	-0.548041
C39	C	-0.931690	-0.063066	-0.452061
C40	C	-0.982093	-0.113515	-0.404067
C41	C	-0.982105	-0.113508	-0.596028
C42	C	-0.982114	-0.113501	-0.700095
C43	C	-0.982085	-0.113521	-0.299993
N44	N	-0.982118	-0.113498	0.216947
H45	H	-0.542730	-0.252317	-0.000035
F46	F	-0.827304	0.276464	-0.000029
F47	F	-0.878049	-0.009379	-0.599127
H48	H	-0.578788	0.022530	-0.000058
H49	H	-0.385413	-0.249550	-0.000043
H50	H	-0.421454	0.025285	-0.000067
H51	H	-1.120897	0.325851	-0.000056
H52	H	-1.118130	0.483168	-0.000040
H53	H	-0.843295	0.447127	-0.000028
H54	H	-1.073544	-0.205033	-0.412974
F55	F	-1.086165	-0.217630	-0.599089
H56	H	-0.890639	-0.021988	-0.412994
