data_functionalizedCrystal
_audit_creation_method	'MofGen! by Chris Wilmer'
_symmetry_space_group_name_H-M	'P1'
_symmetry_Int_Tables_number	1
_symmetry_cell_setting	triclinic
loop_
_symmetry_equiv_pos_as_xyz
  x,y,z
_cell_length_a	17.077404
_cell_length_b	16.625545
_cell_length_c	17.077396
_cell_angle_alpha	89.971947
_cell_angle_beta	90.021444
_cell_angle_gamma	89.977716
loop_
_atom_site_label
_atom_site_type_symbol
_atom_site_fract_x
_atom_site_fract_y
_atom_site_fract_z
Zn1	Zn	1.200048	0.321039	0.443886
Zn2	Zn	1.533382	0.654373	0.777219
Zn3	Zn	1.866715	0.987706	1.110552
Zn4	Zn	1.199953	0.455882	0.312621
Zn5	Zn	1.533286	0.789215	0.645954
Zn6	Zn	1.866619	1.122549	0.979287
Zn7	Zn	1.068780	0.321063	0.312629
Zn8	Zn	1.402113	0.654396	0.645963
Zn9	Zn	1.735447	0.987730	0.979296
Zn10	Zn	1.068746	0.455830	0.443840
Zn11	Zn	1.402079	0.789163	0.777173
Zn12	Zn	1.735412	1.122496	1.110507
O13	O	1.134382	0.388453	0.378244
O14	O	1.467715	0.721787	0.711577
O15	O	1.801048	1.055120	1.044911
O16	O	1.309883	0.338939	0.426489
O17	O	1.643216	0.672272	0.759822
O18	O	1.976549	1.005605	1.093155
O19	O	1.182527	0.438030	0.202775
O20	O	1.515860	0.771363	0.536108
O21	O	1.849194	1.104697	0.869442
O22	O	1.086248	0.208227	0.330063
O23	O	1.419581	0.541561	0.663397
O24	O	1.752914	0.874894	0.996730
O25	O	1.309812	0.438007	0.330049
O26	O	1.643146	0.771340	0.663382
O27	O	1.976479	1.104674	0.996716
O28	O	1.182690	0.208210	0.426497
O29	O	1.516023	0.541543	0.759830
O30	O	1.849357	0.874877	1.093164
O31	O	1.086155	0.338979	0.202781
O32	O	1.419488	0.672312	0.536114
O33	O	1.752822	1.005646	0.869448
O34	O	0.958929	0.338928	0.330019
O35	O	1.292262	0.672261	0.663352
O36	O	1.625595	1.005595	0.996686
O37	O	1.086189	0.437917	0.553693
O38	O	1.419522	0.771251	0.887026
O39	O	1.752855	1.104584	1.220360
O40	O	0.958903	0.437940	0.426419
O41	O	1.292237	0.771274	0.759752
O42	O	1.625570	1.104607	1.093085
O43	O	1.182656	0.338888	0.553727
O44	O	1.515990	0.672221	0.887060
O45	O	1.849323	1.005554	1.220393
O46	O	1.182493	0.568707	0.330004
O47	O	1.515827	0.902041	0.663338
O48	O	1.849160	1.235374	0.996671
O49	O	1.086096	0.568669	0.426411
O50	O	1.419429	0.902002	0.759744
O51	O	1.752763	1.235336	1.093077
C52	C	0.930434	0.388432	0.378215
C53	C	1.263767	0.721765	0.711549
C54	C	1.597101	1.055098	1.044882
C55	C	0.843184	0.388442	0.378222
C56	C	1.176517	0.721775	0.711555
C57	C	1.509851	1.055108	1.044888
C58	C	0.467403	0.336983	0.428569
C59	C	0.800737	0.670317	0.761902
C60	C	1.134070	1.003650	1.095236
C61	C	0.549384	0.336978	0.428560
C62	C	0.882717	0.670311	0.761894
C63	C	1.216050	1.003644	1.095227
C64	C	0.590335	0.388470	0.378264
C65	C	0.923668	0.721804	0.711597
C66	C	1.257002	1.055137	1.044930
C67	C	0.549302	0.439978	0.327978
C68	C	0.882635	0.773312	0.661311
C69	C	1.215969	1.106645	0.994645
C70	C	0.467323	0.439987	0.327991
C71	C	0.800656	0.773321	0.661324
C72	C	1.133990	1.106654	0.994658
C73	C	0.720172	0.439954	0.327953
C74	C	1.053505	0.773287	0.661286
C75	C	1.386839	1.106621	0.994619
C76	C	0.802157	0.439944	0.327938
C77	C	1.135490	0.773277	0.661272
C78	C	1.468823	1.106610	0.994605
C79	C	0.802233	0.336944	0.428522
C80	C	1.135566	0.670277	0.761855
C81	C	1.468899	1.003611	1.095188
C82	C	0.720254	0.336953	0.428535
C83	C	1.053587	0.670287	0.761868
C84	C	1.386920	1.003620	1.095202
C85	C	0.679226	0.388460	0.378248
C86	C	1.012559	0.721794	0.711581
C87	C	1.345893	1.055127	1.044915
C88	C	1.134302	0.597944	0.378219
C89	C	1.467635	0.931278	0.711552
C90	C	1.800969	1.264611	1.044885
C91	C	1.134339	0.687565	0.378234
C92	C	1.467673	1.020899	0.711568
C93	C	1.801006	1.354232	1.044901
C94	C	1.134468	1.015741	0.378328
C95	C	1.467801	1.349074	0.711661
C96	C	1.801134	1.682408	1.044995
C97	C	1.134429	0.924433	0.378304
C98	C	1.467763	1.257766	0.711637
C99	C	1.801096	1.591099	1.044971
C100	C	1.134403	0.851656	0.378281
C101	C	1.467736	1.184989	0.711614
C102	C	1.801070	1.518323	1.044947
C103	C	1.134366	0.760342	0.378258
C104	C	1.467699	1.093675	0.711591
C105	C	1.801033	1.427009	1.044924
C106	C	1.339126	0.388476	0.378273
C107	C	1.672459	0.721809	0.711606
C108	C	2.005793	1.055143	1.044940
C109	C	1.426376	0.388486	0.378285
C110	C	1.759709	0.721819	0.711619
C111	C	2.093042	1.055152	1.044952
C112	C	1.134429	0.388394	0.582988
C113	C	1.467763	0.721727	0.916322
C114	C	1.801096	1.055061	1.249655
C115	C	1.134449	0.388369	0.670238
C116	C	1.467783	0.721702	1.003571
C117	C	1.801116	1.055035	1.336905
C118	C	1.134477	1.178145	0.378296
C119	C	1.467810	1.511478	0.711629
C120	C	1.801143	1.844811	1.044962
C121	C	1.134500	1.088523	0.378341
C122	C	1.467833	1.421857	0.711674
C123	C	1.801167	1.755190	1.045008
C124	C	1.134380	0.388454	0.174296
C125	C	1.467713	0.721788	0.507629
C126	C	1.801046	1.055121	0.840963
C127	C	1.134511	0.388253	0.087047
C128	C	1.467845	0.721586	0.420380
C129	C	1.801178	1.054919	0.753713
C130	C	1.184682	0.336800	0.711247
C131	C	1.518015	0.670133	1.044580
C132	C	1.851349	1.003466	1.377914
C133	C	1.184691	0.336773	0.793228
C134	C	1.518025	0.670106	1.126561
C135	C	1.851358	1.003439	1.459894
C136	C	1.134472	0.388320	0.834198
C137	C	1.467805	0.721653	1.167531
C138	C	1.801138	1.054986	1.500864
C139	C	1.084234	0.439891	0.793183
C140	C	1.417567	0.773224	1.126516
C141	C	1.750900	1.106558	1.459850
C142	C	1.084221	0.439913	0.711204
C143	C	1.417554	0.773247	1.044537
C144	C	1.750888	1.106580	1.377871
C145	C	1.084265	0.439843	0.964053
C146	C	1.417599	0.773176	1.297386
C147	C	1.750932	1.106509	1.630720
C148	C	1.084279	0.439822	1.046038
C149	C	1.417612	0.773155	1.379371
C150	C	1.750946	1.106488	1.712704
C151	C	1.184736	0.336702	1.046077
C152	C	1.518069	0.670035	1.379410
C153	C	1.851403	1.003369	1.712743
C154	C	1.184723	0.336724	0.964098
C155	C	1.518056	0.670058	1.297431
C156	C	1.851390	1.003391	1.630764
C157	C	1.134486	0.388297	0.923089
C158	C	1.467819	0.721630	1.256422
C159	C	1.801152	1.054964	1.589755
H160	H	0.686913	0.295020	0.469488
H161	H	1.020247	0.628353	0.802821
H162	H	1.353580	0.961687	1.136154
Br163	Br	0.411641	0.509896	0.259756
Br164	Br	0.744975	0.843229	0.593089
Br165	Br	1.078308	1.176562	0.926423
Br166	Br	1.252904	0.266821	0.848880
Br167	Br	1.586237	0.600154	1.182213
Br168	Br	1.919570	0.933487	1.515547
Br169	Br	0.857912	0.267034	0.496761
Br170	Br	1.191245	0.600368	0.830095
Br171	Br	1.524578	0.933701	1.163428
H172	H	0.434067	0.295047	0.469522
H173	H	0.767400	0.628380	0.802855
H174	H	1.100733	0.961714	1.136188
H175	H	0.835497	0.481876	0.286984
H176	H	1.168830	0.815209	0.620318
H177	H	1.502164	1.148543	0.953651
Br178	Br	1.016115	0.509771	1.101640
Br179	Br	1.349449	0.843104	1.434973
Br180	Br	1.682782	1.176438	1.768307
Br181	Br	0.664492	0.509869	0.259718
Br182	Br	0.997825	0.843203	0.593051
Br183	Br	1.331159	1.176536	0.926384
Br184	Br	0.604878	0.509868	0.259723
Br185	Br	0.938211	0.843202	0.593056
Br186	Br	1.271544	1.176535	0.926389
Br187	Br	1.252847	0.266845	0.655653
Br188	Br	1.586181	0.600179	0.988986
Br189	Br	1.919514	0.933512	1.322319
Br190	Br	0.605061	0.267086	0.496812
Br191	Br	0.938395	0.600419	0.830145
Br192	Br	1.271728	0.933752	1.163478
Br193	Br	1.252886	0.266774	0.908495
Br194	Br	1.586219	0.600108	1.241829
Br195	Br	1.919553	0.933441	1.575162
Br196	Br	1.252918	0.266714	1.101730
Br197	Br	1.586252	0.600047	1.435064
Br198	Br	1.919585	0.933380	1.768397
Br199	Br	1.016072	0.509844	0.848784
Br200	Br	1.349406	0.843177	1.182117
Br201	Br	1.682739	1.176510	1.515451
H202	H	1.043344	0.481826	0.930666
H203	H	1.376678	0.815159	1.263999
H204	H	1.710011	1.148493	1.597333
H205	H	1.043308	0.481898	0.677815
H206	H	1.376642	0.815231	1.011149
H207	H	1.709975	1.148565	1.344482
