data_functionalizedCrystal
_audit_creation_method	'MofGen! by Chris Wilmer'
_symmetry_space_group_name_H-M	'P1'
_symmetry_Int_Tables_number	1
_symmetry_cell_setting	triclinic
loop_
_symmetry_equiv_pos_as_xyz
  x,y,z
_cell_length_a	17.077404
_cell_length_b	18.050589
_cell_length_c	17.077396
_cell_angle_alpha	89.974523
_cell_angle_beta	89.982756
_cell_angle_gamma	90.028446
loop_
_atom_site_label
_atom_site_type_symbol
_atom_site_fract_x
_atom_site_fract_y
_atom_site_fract_z
Zn1	Zn	1.200008	-0.295649	-0.443864
Zn2	Zn	1.700008	0.204351	0.056136
Zn3	Zn	1.199908	-0.419848	-0.312606
Zn4	Zn	1.699908	0.080152	0.187394
Zn5	Zn	1.068745	-0.295677	-0.312612
Zn6	Zn	1.568745	0.204323	0.187388
Zn7	Zn	1.068696	-0.419802	-0.443830
Zn8	Zn	1.568696	0.080198	0.056170
O9	O	1.134339	-0.357744	-0.378228
O10	O	1.634339	0.142256	0.121772
O11	O	1.309842	-0.312132	-0.426464
O12	O	1.809842	0.187868	0.073536
O13	O	1.182488	-0.403407	-0.202760
O14	O	1.682488	0.096593	0.297240
O15	O	1.086220	-0.191748	-0.330039
O16	O	1.586220	0.308252	0.169961
O17	O	1.309768	-0.403380	-0.330030
O18	O	1.809768	0.096620	0.169970
O19	O	1.182658	-0.191728	-0.426469
O20	O	1.682658	0.308272	0.073531
O21	O	1.086123	-0.312179	-0.202764
O22	O	1.586123	0.187821	0.297236
O23	O	0.958892	-0.312135	-0.330006
O24	O	1.458892	0.187865	0.169994
O25	O	1.086136	-0.403302	-0.553681
O26	O	1.586136	0.096698	-0.053681
O27	O	0.958855	-0.403329	-0.426412
O28	O	1.458855	0.096671	0.073588
O29	O	1.182610	-0.312087	-0.553706
O30	O	1.682610	0.187913	-0.053706
O31	O	1.182440	-0.523766	-0.329997
O32	O	1.682440	-0.023766	0.170003
O33	O	1.086039	-0.523733	-0.426407
O34	O	1.586039	-0.023733	0.073593
C35	C	0.930391	-0.357730	-0.378206
C36	C	1.430391	0.142270	0.121794
C37	C	0.843142	-0.357743	-0.378216
C38	C	1.343142	0.142257	0.121784
C39	C	0.802153	-0.405299	-0.428333
C40	C	1.302153	0.094701	0.071667
C41	C	0.720173	-0.405301	-0.428346
C42	C	1.220173	0.094699	0.071654
C43	C	0.679182	-0.357749	-0.378236
C44	C	1.179182	0.142251	0.121764
C45	C	0.720176	-0.310187	-0.328116
C46	C	1.220176	0.189813	0.171884
C47	C	0.802155	-0.310182	-0.328108
C48	C	1.302155	0.189818	0.171892
C49	C	0.549306	-0.310202	-0.328135
C50	C	1.049306	0.189798	0.171865
C51	C	0.467322	-0.310207	-0.328142
C52	C	0.967322	0.189793	0.171858
C53	C	0.467324	-0.405320	-0.428373
C54	C	0.967324	0.094680	0.071627
C55	C	0.549303	-0.405315	-0.428365
C56	C	1.049303	0.094685	0.071635
C57	C	0.590291	-0.357754	-0.378244
C58	C	1.090291	0.142246	0.121756
C59	C	1.134244	-0.550696	-0.378215
C60	C	1.634244	-0.050696	0.121785
C61	C	1.134276	-0.633242	-0.378236
C62	C	1.634276	-0.133242	0.121764
C63	C	1.081904	-0.832701	-0.430645
C64	C	1.581904	-0.332701	0.069355
C65	C	1.062772	-0.882144	-0.359016
C66	C	1.562772	-0.382144	0.140984
C67	C	1.134353	-0.784372	-0.378246
C68	C	1.634353	-0.284372	0.121754
C69	C	1.153524	-0.882011	-0.449883
C70	C	1.653524	-0.382011	0.050117
C71	C	1.134426	-0.930357	-0.378262
C72	C	1.634426	-0.430357	0.121738
C73	C	1.115183	-0.832728	-0.306579
C74	C	1.615183	-0.332728	0.193421
C75	C	1.205968	-0.832591	-0.397495
C76	C	1.705968	-0.332591	0.102505
C77	C	1.186863	-0.882011	-0.325816
C78	C	1.686863	-0.382011	0.174184
C79	C	1.134309	-0.700274	-0.378238
C80	C	1.634309	-0.200274	0.121762
C81	C	1.134470	-1.014454	-0.378262
C82	C	1.634470	-0.514454	0.121738
C83	C	1.339083	-0.357758	-0.378250
C84	C	1.839083	0.142242	0.121750
C85	C	1.426333	-0.357764	-0.378260
C86	C	1.926333	0.142236	0.121740
C87	C	1.134379	-0.357686	-0.582972
C88	C	1.634379	0.142314	-0.082972
C89	C	1.134395	-0.357662	-0.670222
C90	C	1.634395	0.142338	-0.170222
C91	C	1.134456	-0.164038	-0.378258
C92	C	1.634456	0.335962	0.121742
C93	C	1.134505	-0.081492	-0.378271
C94	C	1.634505	0.418508	0.121729
C95	C	1.084234	-0.310154	-0.711214
C96	C	1.584234	0.189846	-0.211214
C97	C	1.084246	-0.310137	-0.793194
C98	C	1.584246	0.189863	-0.293194
C99	C	1.134426	-0.357625	-0.834182
C100	C	1.634426	0.142375	-0.334182
C101	C	1.184590	-0.405138	-0.793184
C102	C	1.684590	0.094862	-0.293184
C103	C	1.184572	-0.405158	-0.711205
C104	C	1.684572	0.094842	-0.211205
C105	C	1.184624	-0.405092	-0.964054
C106	C	1.684624	0.094908	-0.464054
C107	C	1.184642	-0.405071	-1.046039
C108	C	1.684642	0.094929	-0.546039
C109	C	1.084298	-0.310070	-1.046043
C110	C	1.584298	0.189930	-0.546043
C111	C	1.084280	-0.310090	-0.964064
C112	C	1.584280	0.189910	-0.464064
C113	C	1.134446	-0.357603	-0.923073
C114	C	1.634446	0.142397	-0.423073
C115	C	1.134345	-0.357748	-0.174280
C116	C	1.634345	0.142252	0.325720
C117	C	1.134480	-0.357563	-0.087031
C118	C	1.634480	0.142437	0.412969
H119	H	0.433947	-0.444044	-0.469186
H120	H	0.933947	0.055956	0.030814
C121	C	0.984516	-0.863302	-0.526730
C122	C	1.484516	-0.363302	-0.026730
C123	C	1.021944	-0.803465	-0.490378
C124	C	1.521944	-0.303465	0.009622
H125	H	0.947495	-0.845250	-0.563600
H126	H	1.447495	-0.345250	-0.063600
H127	H	1.022289	-0.892928	-0.552897
H128	H	1.522289	-0.392928	-0.052897
H129	H	0.958369	-0.892302	-0.488344
H130	H	1.458369	-0.392302	0.011656
H131	H	1.048095	-0.774468	-0.528764
H132	H	1.548095	-0.274468	-0.028764
H133	H	0.984164	-0.773827	-0.464211
H134	H	1.484164	-0.273827	0.035789
C135	C	0.475550	-0.216178	-0.229080
C136	C	0.975550	0.283822	0.270920
C137	C	0.422263	-0.257932	-0.273067
C138	C	0.922263	0.242068	0.226933
H139	H	0.447730	-0.183902	-0.195083
H140	H	0.947730	0.316098	0.304917
H141	H	0.507496	-0.248491	-0.198987
H142	H	1.007496	0.251509	0.301013
H143	H	0.507552	-0.187814	-0.263340
H144	H	1.007552	0.312186	0.236660
H145	H	0.390264	-0.286301	-0.238807
H146	H	0.890264	0.213699	0.261193
H147	H	0.390303	-0.225615	-0.303162
H148	H	0.890303	0.274385	0.196838
C149	C	1.039653	-0.267997	-0.585550
C150	C	1.539653	0.232003	-0.085550
C151	C	1.029075	-0.257952	-0.666163
C152	C	1.529075	0.242048	-0.166163
H153	H	1.005601	-0.235766	-0.557741
H154	H	1.505601	0.264234	-0.057741
H155	H	1.028131	-0.317891	-0.572108
H156	H	1.528131	0.182109	-0.072108
H157	H	1.092401	-0.257133	-0.572130
H158	H	1.592401	0.242867	-0.072130
H159	H	0.976329	-0.268821	-0.679584
H160	H	1.476329	0.231179	-0.179584
H161	H	1.040592	-0.208046	-0.679611
H162	H	1.540592	0.291954	-0.179611
C163	C	0.793912	-0.499306	-0.527416
C164	C	1.293912	0.000694	-0.027416
C165	C	0.847206	-0.457568	-0.483420
C166	C	1.347206	0.042432	0.016580
H167	H	0.821726	-0.531570	-0.561429
H168	H	1.321726	-0.031570	-0.061429
H169	H	0.761914	-0.527675	-0.493168
H170	H	1.261914	-0.027675	0.006832
H171	H	0.761962	-0.466977	-0.557498
H172	H	1.261962	0.033023	-0.057498
H173	H	0.879153	-0.489897	-0.453332
H174	H	1.379153	0.010103	0.046668
H175	H	0.879218	-0.429197	-0.517672
H176	H	1.379218	0.070803	-0.017672
H177	H	0.686803	-0.444027	-0.469156
H178	H	1.186803	0.055973	0.030844
H179	H	1.225443	-0.443808	-0.826563
H180	H	1.725443	0.056192	-0.326563
C181	C	0.541074	-0.499328	-0.527444
C182	C	1.041074	0.000672	-0.027444
C183	C	0.594361	-0.457584	-0.483446
C184	C	1.094361	0.042416	0.016554
H185	H	0.568894	-0.531593	-0.561453
H186	H	1.068894	-0.031593	-0.061453
H187	H	0.509075	-0.527698	-0.493197
H188	H	1.009075	-0.027698	0.006803
H189	H	0.509124	-0.467003	-0.557531
H190	H	1.009124	0.032997	-0.057531
H191	H	0.626308	-0.489910	-0.453354
H192	H	1.126308	0.010090	0.046646
H193	H	0.626374	-0.429213	-0.517697
H194	H	1.126374	0.070787	-0.017697
H195	H	0.582677	-0.271466	-0.287328
H196	H	1.082677	0.228534	0.212672
C197	C	0.978664	-0.299799	-0.885352
C198	C	1.478664	0.200201	-0.385352
C199	C	1.029093	-0.257920	-0.838243
C200	C	1.529093	0.242080	-0.338243
H201	H	0.944606	-0.267562	-0.913155
H202	H	1.444606	0.232438	-0.413155
H203	H	1.008547	-0.328065	-0.921498
H204	H	1.508547	0.171935	-0.421498
H205	H	0.948628	-0.332164	-0.853346
H206	H	1.448628	0.167836	-0.353346
H207	H	1.059134	-0.225558	-0.870249
H208	H	1.559134	0.274442	-0.370249
H209	H	0.999207	-0.229641	-0.802092
H210	H	1.499207	0.270359	-0.302092
H211	H	1.266482	-0.810810	-0.413795
H212	H	1.766482	-0.310810	0.086205
H213	H	1.002244	-0.903926	-0.342749
H214	H	1.502244	-0.403926	0.157251
H215	H	1.098927	-0.811169	-0.245986
H216	H	1.598927	-0.311169	0.254014
H217	H	1.231248	-0.903526	-0.281460
H218	H	1.731248	-0.403526	0.218540
H219	H	1.169709	-0.903660	-0.510460
H220	H	1.669709	-0.403660	-0.010460
C221	C	0.627947	-0.299744	-0.222555
C222	C	1.127947	0.200256	0.277445
C223	C	0.675121	-0.257915	-0.273036
C224	C	1.175121	0.242085	0.226964
H225	H	0.600137	-0.267472	-0.188548
H226	H	1.100137	0.232528	0.311452
H227	H	0.591807	-0.328062	-0.252405
H228	H	1.091807	0.171938	0.247595
H229	H	0.659910	-0.332058	-0.192468
H230	H	1.159910	0.167942	0.307532
H231	H	0.643157	-0.225604	-0.303128
H232	H	1.143157	0.274396	0.196872
H233	H	0.711266	-0.229584	-0.243183
H234	H	1.211266	0.270416	0.256817
C235	C	0.927825	-0.267941	-0.283595
C236	C	1.427825	0.232059	0.216405
C237	C	0.847214	-0.257907	-0.273017
C238	C	1.347214	0.242093	0.226983
H239	H	0.955640	-0.235661	-0.249588
H240	H	1.455640	0.264339	0.250412
H241	H	0.941230	-0.317818	-0.272012
H242	H	1.441230	0.182182	0.227988
H243	H	0.941276	-0.257134	-0.336358
H244	H	1.441276	0.242866	0.163642
H245	H	0.833762	-0.268719	-0.220255
H246	H	1.333762	0.231281	0.279745
H247	H	0.833805	-0.208019	-0.284595
H248	H	1.333805	0.291981	0.215405
C249	C	1.039737	-0.267876	-1.171709
C250	C	1.539737	0.232124	-0.671709
C251	C	1.029138	-0.257858	-1.091098
C252	C	1.529138	0.242142	-0.591098
H253	H	1.005680	-0.235648	-1.199525
H254	H	1.505680	0.264352	-0.699525
H255	H	1.092478	-0.256998	-1.185156
H256	H	1.592478	0.243002	-0.685156
H257	H	1.028228	-0.317776	-1.185117
H258	H	1.528228	0.182224	-0.685117
H259	H	1.040653	-0.207959	-1.077689
H260	H	1.540653	0.292041	-0.577689
H261	H	0.976385	-0.268731	-1.077646
H262	H	1.476385	0.231269	-0.577646
C263	C	1.283815	-0.498990	-1.037805
C264	C	1.783815	0.001010	-0.537805
C265	C	1.239794	-0.457276	-1.091095
C266	C	1.739794	0.042724	-0.591095
H267	H	1.317859	-0.531222	-1.065623
H268	H	1.817859	-0.031222	-0.565623
H269	H	1.313858	-0.466650	-1.005840
H270	H	1.813858	0.033350	-0.505840
H271	H	1.249579	-0.527399	-1.005821
H272	H	1.749579	-0.027399	-0.505821
H273	H	1.274030	-0.428862	-1.123075
H274	H	1.774030	0.071138	-0.623075
H275	H	1.209748	-0.489620	-1.123073
H276	H	1.709748	0.010380	-0.623073
H277	H	1.225425	-0.443839	-0.677831
H278	H	1.725425	0.056161	-0.177831
H279	H	1.043423	-0.271418	-0.930695
H280	H	1.543423	0.228582	-0.430695
H281	H	1.225481	-0.443775	-0.930682
H282	H	1.725481	0.056225	-0.430682
