data_functionalizedCrystal
_audit_creation_method	'MofGen! by Chris Wilmer'
_symmetry_space_group_name_H-M	'P1'
_symmetry_Int_Tables_number	1
_symmetry_cell_setting	triclinic
loop_
_symmetry_equiv_pos_as_xyz
  x,y,z
_cell_length_a	14.048226
_cell_length_b	14.971487
_cell_length_c	14.971486
_cell_angle_alpha	96.385734
_cell_angle_beta	90.007287
_cell_angle_gamma	90.004839
loop_
_atom_site_label
_atom_site_type_symbol
_atom_site_fract_x
_atom_site_fract_y
_atom_site_fract_z
O1	O	0.079025	-1.186940	0.116569
O2	O	0.579025	-0.686940	0.616569
O3	O	0.079057	-0.926540	0.130527
O4	O	0.579057	-0.426540	0.630527
O5	O	0.079033	-1.063719	-0.006652
O6	O	0.579033	-0.563719	0.493348
O7	O	0.079048	-1.049760	0.253748
O8	O	0.579048	-0.549760	0.753748
O9	O	-0.079288	-1.063716	-0.006663
O10	O	0.420712	-0.563716	0.493337
O11	O	-0.079265	-0.926537	0.130516
O12	O	0.420735	-0.426537	0.630516
O13	O	-0.079297	-1.186937	0.116558
O14	O	0.420703	-0.686937	0.616558
Zn15	Zn	-0.104418	-1.056736	0.123535
Zn16	Zn	0.395582	-0.556736	0.623535
Zn17	Zn	0.104178	-1.056740	0.123550
Zn18	Zn	0.604178	-0.556740	0.623550
O19	O	-0.079273	-1.049758	0.253737
O20	O	0.420727	-0.549758	0.753737
C21	C	-0.000100	-0.893214	0.129897
C22	C	0.499900	-0.393214	0.629897
C23	C	-0.000088	-0.793917	0.128026
C24	C	0.499912	-0.293917	0.628026
N25	N	-0.246778	-1.056740	0.123524
N26	N	0.253222	-0.556740	0.623524
N27	N	0.246538	-1.056743	0.123554
N28	N	0.746538	-0.556743	0.623554
C29	C	-0.000083	-0.736691	0.208615
C30	C	0.499917	-0.236691	0.708615
C31	C	-0.000096	-0.643392	0.206852
C32	C	0.499904	-0.143392	0.706852
C33	C	-0.000106	-0.607320	0.124499
C34	C	0.499894	-0.107320	0.624499
C35	C	-0.000113	-0.664552	0.043903
C36	C	0.499887	-0.164552	0.543903
C37	C	-0.000108	-0.757850	0.045668
C38	C	0.499892	-0.257850	0.545668
C39	C	-0.000122	-0.470090	0.040232
C40	C	0.499878	0.029910	0.540232
C41	C	-0.000126	-0.376786	0.038467
C42	C	0.499874	0.123214	0.538467
C43	C	-0.000110	-0.355632	0.201416
C44	C	0.499890	0.144368	0.701416
C45	C	-0.000105	-0.448929	0.203181
C46	C	0.499895	0.051071	0.703181
C47	C	-0.000110	-0.506156	0.122585
C48	C	0.499890	-0.006156	0.622585
C49	C	0.296346	-1.117600	0.062930
C50	C	0.796346	-0.617600	0.562930
C51	C	0.396004	-1.117604	0.062927
C52	C	0.896004	-0.617604	0.562927
C53	C	0.445852	-1.056746	0.123544
C54	C	0.945852	-0.556746	0.623544
C55	C	0.396037	-0.995886	0.184174
C56	C	0.896037	-0.495886	0.684174
C57	C	0.296381	-0.995888	0.184180
C58	C	0.796381	-0.495888	0.684180
C59	C	0.603751	-0.995887	0.184155
C60	C	1.103751	-0.495887	0.684155
C61	C	0.703414	-0.995884	0.184148
C62	C	1.203414	-0.495884	0.684148
C63	C	0.703374	-1.117602	0.062902
C64	C	1.203374	-0.617602	0.562902
C65	C	0.603718	-1.117604	0.062908
C66	C	1.103718	-0.617604	0.562908
C67	C	0.553910	-1.056743	0.123537
C68	C	1.053910	-0.556743	0.623537
C69	C	-0.000127	-1.063094	-0.039982
C70	C	0.499873	-0.563094	0.460018
C71	C	-0.000126	-1.061223	-0.139279
C72	C	0.499874	-0.561223	0.360721
C73	C	-0.000132	-0.220263	0.117187
C74	C	0.499868	0.279737	0.617187
C75	C	-0.000121	-0.319560	0.119056
C76	C	0.499879	0.180440	0.619056
C77	C	-0.000137	-1.141812	-0.196504
C78	C	0.499863	-0.641812	0.303496
C79	C	-0.000127	-1.140049	-0.289804
C80	C	0.499873	-0.640049	0.210196
C81	C	-0.000113	-1.057696	-0.325876
C82	C	0.499887	-0.557696	0.174124
C83	C	-0.000100	-0.977100	-0.268644
C84	C	0.499900	-0.477100	0.231356
C85	C	-0.000103	-0.978864	-0.175346
C86	C	0.499897	-0.478864	0.324654
C87	C	-0.000096	-0.973429	-0.463107
C88	C	0.499904	-0.473429	0.036893
C89	C	-0.000095	-0.971665	-0.556411
C90	C	0.499905	-0.471665	-0.056411
C91	C	-0.000120	-1.134614	-0.577564
C92	C	0.499880	-0.634614	-0.077564
C93	C	-0.000123	-1.136378	-0.484266
C94	C	0.499877	-0.636378	0.015734
C95	C	-0.000111	-1.055782	-0.427040
C96	C	0.499889	-0.555782	0.072960
C97	C	-0.000111	-1.050383	0.287067
C98	C	0.499889	-0.550383	0.787067
C99	C	-0.000105	-1.052254	0.386364
C100	C	0.499895	-0.552254	0.886364
H101	H	-0.000091	-0.596802	0.272476
H102	H	0.499909	-0.096802	0.772476
H103	H	-0.000135	-0.347419	-0.028592
H104	H	0.499865	0.152581	0.471408
H105	H	0.255829	-0.946333	0.233547
H106	H	0.755829	-0.446333	0.733547
N107	N	0.242584	-1.183241	-0.002449
N108	N	0.742584	-0.683241	0.497551
H109	H	0.289263	-1.221797	-0.040850
H110	H	0.789263	-0.721797	0.459150
H111	H	0.201244	-1.222741	0.031952
H112	H	0.701244	-0.722741	0.531952
N113	N	-0.000073	-0.882844	-0.595321
N114	N	0.499927	-0.382844	-0.095321
H115	H	-0.000056	-0.832054	-0.544914
H116	H	0.499944	-0.332054	-0.044914
H117	H	0.058622	-0.878578	-0.633563
H118	H	0.558622	-0.378578	-0.133563
H119	H	-0.000087	-0.478296	0.270240
H120	H	0.499913	0.021704	0.770240
H121	H	-0.000127	-1.200238	-0.624162
H122	H	0.499873	-0.700238	-0.124162
H123	H	-0.000084	-0.907799	-0.416515
H124	H	0.499916	-0.407799	0.083485
H125	H	0.563201	-0.946330	0.233528
H126	H	1.063201	-0.446330	0.733528
N127	N	0.757182	-0.930253	0.249532
N128	N	1.257182	-0.430253	0.749532
H129	H	0.798522	-0.890686	0.215203
H130	H	1.298522	-0.390686	0.715203
H131	H	0.710449	-0.891765	0.287930
H132	H	1.210449	-0.391765	0.787930
N133	N	-0.000085	-0.888272	-0.307540
N134	N	0.499915	-0.388272	0.192460
H135	H	0.058604	-0.883908	-0.345773
H136	H	0.558604	-0.383908	0.154227
H137	H	-0.058814	-0.883959	-0.345739
H138	H	0.441186	-0.383959	0.154261
H139	H	-0.000110	-0.309033	0.267040
H140	H	0.499890	0.190967	0.767040
N141	N	-0.000104	-0.819573	-0.041255
N142	N	0.499896	-0.319573	0.458745
H143	H	-0.000103	-0.884150	-0.027642
H144	H	0.499897	-0.384150	0.472358
H145	H	-0.058800	-0.807891	-0.077143
H146	H	0.441200	-0.307891	0.422857
H147	H	-0.000128	-0.516682	-0.025398
H148	H	0.499872	-0.016682	0.474602
N149	N	-0.000144	-1.226970	-0.351526
N150	N	0.499856	-0.726970	0.148474
H151	H	-0.000161	-1.279407	-0.314518
H152	H	0.499839	-0.779407	0.185482
H153	H	-0.058836	-1.229778	-0.390704
H154	H	0.441164	-0.729778	0.109296
N155	N	-0.000086	-0.891944	-0.113620
N156	N	0.499914	-0.391944	0.386380
H157	H	-0.000078	-0.839505	-0.150627
H158	H	0.499922	-0.339505	0.349373
H159	H	-0.058776	-0.889122	-0.074455
H160	H	0.441224	-0.389122	0.425545
H161	H	0.436557	-1.167158	0.013564
H162	H	0.936557	-0.667158	0.513564
H163	H	0.436629	-0.946338	0.233534
H164	H	0.936629	-0.446338	0.733534
H165	H	0.563132	-1.167154	0.013545
H166	H	1.063132	-0.667154	0.513545
H167	H	-0.000135	-0.635175	-0.023150
H168	H	0.499865	-0.135175	0.476850
N169	N	0.757087	-1.183249	-0.002490
N170	N	1.257087	-0.683249	0.497510
H171	H	0.827783	-1.174021	0.006706
H172	H	1.327783	-0.674021	0.506706
H173	H	0.739660	-1.246676	0.008072
H174	H	1.239660	-0.746676	0.508072
N175	N	-0.000160	-1.230637	-0.157601
N176	N	0.499840	-0.730637	0.342399
H177	H	-0.000164	-1.281421	-0.208014
H178	H	0.499836	-0.781421	0.291986
H179	H	0.058529	-1.234921	-0.119343
H180	H	0.558529	-0.734921	0.380657
N181	N	-0.000073	-0.775585	0.297445
N182	N	0.499927	-0.275585	0.797445
H183	H	-0.058760	-0.813831	0.301807
H184	H	0.441240	-0.313831	0.801807
H185	H	0.058659	-0.813768	0.301763
H186	H	0.558659	-0.313768	0.801763
N187	N	-0.000149	-1.225199	-0.445356
N188	N	0.499851	-0.725199	0.054644
H189	H	-0.000155	-1.275989	-0.495763
H190	H	0.499845	-0.775989	0.004237
H191	H	0.058540	-1.229481	-0.407097
H192	H	0.558540	-0.729481	0.092903
