data_functionalizedCrystal
_audit_creation_method	'MofGen! by Chris Wilmer'
_symmetry_space_group_name_H-M	'P1'
_symmetry_Int_Tables_number	1
_symmetry_cell_setting	triclinic
loop_
_symmetry_equiv_pos_as_xyz
  x,y,z
_cell_length_a	15.944545
_cell_length_b	27.731996
_cell_length_c	14.421503
_cell_angle_alpha	89.998301
_cell_angle_beta	89.995153
_cell_angle_gamma	83.058780
loop_
_atom_site_label
_atom_site_type_symbol
_atom_site_fract_x
_atom_site_fract_y
_atom_site_fract_z
O1	O	1.113697	0.062321	-0.077064
O2	O	1.447031	0.395654	0.256269
O3	O	1.780364	0.728987	0.589603
O4	O	0.869044	0.070010	-0.077081
O5	O	1.202377	0.403343	0.256253
O6	O	1.535711	0.736677	0.589586
O7	O	0.998992	-0.004200	-0.077052
O8	O	1.332325	0.329133	0.256282
O9	O	1.665658	0.662466	0.589615
O10	O	0.983749	0.136531	-0.077093
O11	O	1.317083	0.469864	0.256240
O12	O	1.650416	0.803198	0.589574
O13	O	0.998970	-0.004189	0.077172
O14	O	1.332304	0.329144	0.410505
O15	O	1.665637	0.662477	0.743838
O16	O	0.869022	0.070021	0.077143
O17	O	1.202356	0.403354	0.410476
O18	O	1.535689	0.736688	0.743809
O19	O	1.113676	0.062332	0.077159
O20	O	1.447009	0.395665	0.410493
O21	O	1.780342	0.728998	0.743826
Cu22	Cu	0.991347	0.066177	0.091233
Cu23	Cu	1.324680	0.399511	0.424566
Cu24	Cu	1.658014	0.732844	0.757900
Cu25	Cu	0.991373	0.066164	-0.091154
Cu26	Cu	1.324706	0.399498	0.242179
Cu27	Cu	1.658039	0.732831	0.575512
O28	O	0.983728	0.136542	0.077130
O29	O	1.317061	0.469875	0.410464
O30	O	1.650395	0.803209	0.743797
C31	C	0.837743	0.069697	0.000029
C32	C	1.171077	0.403030	0.333363
C33	C	1.504410	0.736364	0.666696
C34	C	0.744510	0.068742	0.000024
C35	C	1.077843	0.402075	0.333357
C36	C	1.411176	0.735408	0.666690
C37	C	0.474532	0.019888	0.000048
C38	C	0.807865	0.353221	0.333381
C39	C	1.141199	0.686554	0.666715
C40	C	0.524787	0.043447	0.076083
C41	C	0.858121	0.376780	0.409417
C42	C	1.191454	0.710113	0.742750
C43	C	0.408912	0.065334	0.000041
C44	C	0.742245	0.398668	0.333374
C45	C	1.075578	0.732001	0.666707
C46	C	0.524789	0.043448	-0.075969
C47	C	0.858122	0.376781	0.257365
C48	C	1.191456	0.710115	0.590698
C49	C	0.573803	0.067006	0.000031
C50	C	0.907136	0.400339	0.333364
C51	C	1.240469	0.733673	0.666698
C52	C	0.457939	0.088881	0.076139
C53	C	0.791272	0.422214	0.409472
C54	C	1.124606	0.755548	0.742806
C55	C	0.457937	0.088876	-0.075981
C56	C	0.791271	0.422209	0.257352
C57	C	1.124604	0.755542	0.590685
C58	C	0.508159	0.112468	0.000073
C59	C	0.841493	0.445801	0.333406
C60	C	1.174826	0.779134	0.666739
C61	C	0.313922	0.064370	0.000047
C62	C	0.647256	0.397703	0.333381
C63	C	0.980589	0.731037	0.666714
C64	C	0.668789	0.067974	0.000031
C65	C	1.002122	0.401307	0.333364
C66	C	1.335456	0.734640	0.666698
C67	C	0.998668	-0.022203	0.000063
C68	C	1.332001	0.311130	0.333396
C69	C	1.665335	0.644463	0.666730
C70	C	0.997725	-0.075864	0.000072
C71	C	1.331058	0.257470	0.333406
C72	C	1.664391	0.590803	0.666739
C73	C	0.991803	-0.408612	-0.084040
C74	C	1.325136	-0.075278	0.249293
C75	C	1.658470	0.258055	0.582626
C76	C	0.988222	-0.610285	-0.084057
C77	C	1.321555	-0.276952	0.249276
C78	C	1.654888	0.056381	0.582610
O79	O	0.987732	-0.636363	-0.155554
O80	O	1.321066	-0.303030	0.177780
O81	O	1.654399	0.030303	0.511113
N82	N	0.987765	-0.635498	0.000009
N83	N	1.321098	-0.302165	0.333343
N84	N	1.654432	0.031168	0.666676
C85	C	0.988198	-0.610290	0.084086
C86	C	1.321532	-0.276956	0.417419
C87	C	1.654865	0.056377	0.750753
O88	O	0.987719	-0.636362	0.155589
O89	O	1.321052	-0.303028	0.488922
O90	O	1.654386	0.030305	0.822256
C91	C	0.991774	-0.408616	0.084101
C92	C	1.325107	-0.075283	0.417435
C93	C	1.658440	0.258050	0.750768
C94	C	0.992239	-0.383407	0.000030
C95	C	1.325572	-0.050073	0.333363
C96	C	1.658905	0.283260	0.666696
C97	C	0.992267	-0.383402	-0.168105
C98	C	1.325600	-0.050068	0.165228
C99	C	1.658934	0.283265	0.498561
C100	C	0.993167	-0.332987	-0.168100
C101	C	1.326500	0.000347	0.165233
C102	C	1.659834	0.333680	0.498566
C103	C	0.993603	-0.307782	-0.084030
C104	C	1.326936	0.025552	0.249303
C105	C	1.660269	0.358885	0.582636
C106	C	0.993139	-0.332991	0.000035
C107	C	1.326472	0.000342	0.333368
C108	C	1.659805	0.333675	0.666701
C109	C	0.992201	-0.383408	0.168177
C110	C	1.325534	-0.050075	0.501510
C111	C	1.658868	0.283259	0.834844
C112	C	0.993093	-0.332986	0.168173
C113	C	1.326426	0.000347	0.501507
C114	C	1.659759	0.333680	0.834840
C115	C	0.993558	-0.307776	0.084101
C116	C	1.326891	0.025557	0.417435
C117	C	1.660224	0.358890	0.750768
C118	C	0.994474	-0.257371	0.084110
C119	C	1.327808	0.075962	0.417443
C120	C	1.661141	0.409295	0.750776
N121	N	0.994931	-0.232158	0.000043
N122	N	1.328264	0.101175	0.333376
N123	N	1.661597	0.434508	0.666710
C124	C	0.994495	-0.257363	-0.084027
C125	C	1.327828	0.075970	0.249306
C126	C	1.661162	0.409303	0.582640
C127	C	0.986323	-0.716171	0.084072
C128	C	1.319656	-0.382838	0.417405
C129	C	1.652990	-0.049504	0.750738
C130	C	0.985431	-0.766589	0.084068
C131	C	1.318764	-0.433256	0.417401
C132	C	1.652097	-0.099923	0.750735
C133	C	0.985452	-0.766581	-0.084075
C134	C	1.318786	-0.433248	0.249258
C135	C	1.652119	-0.099915	0.582592
C136	C	0.986351	-0.716163	-0.084071
C137	C	1.319684	-0.382829	0.249263
C138	C	1.653017	-0.049496	0.582596
C139	C	0.986779	-0.690958	0.000005
C140	C	1.320113	-0.357625	0.333339
C141	C	1.653446	-0.024291	0.666672
C142	C	0.996386	-0.151488	-0.084010
C143	C	1.329719	0.181845	0.249323
C144	C	1.663052	0.515178	0.582657
C145	C	0.997289	-0.101069	-0.083998
C146	C	1.330622	0.232264	0.249336
C147	C	1.663956	0.565598	0.582669
C148	C	0.997263	-0.101081	0.084145
C149	C	1.330596	0.232253	0.417478
C150	C	1.663929	0.565586	0.750812
C151	C	0.996364	-0.151496	0.084133
C152	C	1.329697	0.181837	0.417467
C153	C	1.663031	0.515171	0.750800
C154	C	0.995922	-0.176698	0.000048
C155	C	1.329256	0.156635	0.333381
C156	C	1.662589	0.489968	0.666715
O157	O	0.994954	-0.231262	0.155569
O158	O	1.328288	0.102072	0.488902
O159	O	1.661621	0.435405	0.822235
O160	O	0.994956	-0.231281	-0.155519
O161	O	1.328289	0.102052	0.177814
O162	O	1.661622	0.435385	0.511147
C163	C	0.990903	-0.459027	-0.084045
C164	C	1.324236	-0.125693	0.249288
C165	C	1.657570	0.207640	0.582621
C166	C	0.990439	-0.484237	0.000020
C167	C	1.323772	-0.150903	0.333353
C168	C	1.657106	0.182430	0.666686
C169	C	0.990875	-0.459031	0.084090
C170	C	1.324208	-0.125698	0.417423
C171	C	1.657541	0.207635	0.750756
C172	C	0.989547	-0.534655	0.000016
C173	C	1.322880	-0.201321	0.333349
C174	C	1.656213	0.132012	0.666683
C175	C	0.989111	-0.559860	-0.084054
C176	C	1.322444	-0.226527	0.249279
C177	C	1.655777	0.106807	0.582613
C178	C	0.989567	-0.534647	-0.168120
C179	C	1.322901	-0.201314	0.165213
C180	C	1.656234	0.132020	0.498546
C181	C	0.990467	-0.484232	-0.168115
C182	C	1.323801	-0.150899	0.165218
C183	C	1.657134	0.182435	0.498551
C184	C	0.990418	-0.484245	0.168156
C185	C	1.323751	-0.150911	0.501489
C186	C	1.657085	0.182422	0.834823
C187	C	0.989519	-0.534660	0.168144
C188	C	1.322853	-0.201326	0.501477
C189	C	1.656186	0.132007	0.834811
C190	C	0.989083	-0.559865	0.084074
C191	C	1.322417	-0.226532	0.417407
C192	C	1.655750	0.106802	0.750741
C193	C	1.144976	0.062645	0.000047
C194	C	1.478310	0.395978	0.333381
C195	C	1.811643	0.729312	0.666714
C196	C	1.238210	0.063600	0.000047
C197	C	1.571543	0.396934	0.333380
C198	C	1.904876	0.730267	0.666713
C199	C	0.984052	0.154545	0.000014
C200	C	1.317385	0.487879	0.333347
C201	C	1.650718	0.821212	0.666680
C202	C	0.984995	0.208206	-0.000002
C203	C	1.318328	0.541539	0.333331
C204	C	1.651662	0.874872	0.666665
N205	N	0.991335	0.066186	0.219514
N206	N	1.324669	0.399520	0.552847
N207	N	1.658002	0.732853	0.886181
N208	N	0.991391	0.066152	-0.219435
N209	N	1.324724	0.399485	0.113898
N210	N	1.658058	0.732818	0.447231
C211	C	0.931237	0.100486	0.469154
C212	C	1.264570	0.433819	0.802488
C213	C	1.597904	0.767152	1.135821
C214	C	1.007012	0.109869	0.530959
C215	C	1.340345	0.443203	0.864292
C216	C	1.673678	0.776536	1.197626
C217	C	0.991356	0.066175	0.408676
C218	C	1.324689	0.399508	0.742009
C219	C	1.658023	0.732841	1.075342
C220	C	0.915601	0.056803	0.530965
C221	C	1.248934	0.390136	0.864298
C222	C	1.582268	0.723469	1.197632
C223	C	0.991369	0.066165	0.591397
C224	C	1.324702	0.399498	0.924730
C225	C	1.658036	0.732831	1.258064
C226	C	1.067168	0.075580	0.469119
C227	C	1.400502	0.408913	0.802453
C228	C	1.733835	0.742247	1.135786
C229	C	0.975708	0.022495	0.469120
C230	C	1.309041	0.355828	0.802453
C231	C	1.642375	0.689161	1.135786
C232	C	1.051538	0.031859	0.530896
C233	C	1.384871	0.365193	0.864230
C234	C	1.718204	0.698526	1.197563
C235	C	0.991347	0.066182	0.303414
C236	C	1.324681	0.399515	0.636748
C237	C	1.658014	0.732849	0.970081
C238	C	0.991386	0.066157	0.696656
C239	C	1.324720	0.399491	1.029989
C240	C	1.658053	0.732824	1.363323
H241	H	0.553966	0.024258	0.140377
H242	H	0.887300	0.357591	0.473710
H243	H	1.220633	0.690924	0.807044
F244	F	0.454755	-0.031269	0.000157
F245	F	0.788088	0.302064	0.333490
F246	F	1.121421	0.635398	0.666824
H247	H	0.428863	0.108065	0.140490
H248	H	0.762197	0.441398	0.473824
H249	H	1.095530	0.774731	0.807157
F250	F	0.989108	-0.561481	-0.257594
F251	F	1.322441	-0.228148	0.075739
F252	F	1.655775	0.105185	0.409073
F253	F	1.024328	0.158145	0.566464
F254	F	1.357662	0.491479	0.899797
F255	F	1.690995	0.824812	1.233130
F256	F	0.527721	0.163665	0.000111
F257	F	0.861054	0.496998	0.333444
F258	F	1.194388	0.830332	0.666777
H259	H	0.995993	-0.172023	0.152591
H260	H	1.329326	0.161310	0.485925
H261	H	1.662660	0.494643	0.819258
F262	F	0.993548	-0.306164	0.257661
F263	F	1.326882	0.027169	0.590995
F264	F	1.660215	0.360502	0.924328
F265	F	0.995916	-0.178303	-0.173503
F266	F	1.329249	0.155030	0.159831
F267	F	1.662582	0.488363	0.493164
H268	H	0.993542	-0.312465	-0.236561
H269	H	1.326876	0.020868	0.096773
H270	H	1.660209	0.354202	0.430106
F271	F	0.990961	-0.457408	-0.257597
F272	F	1.324295	-0.124075	0.075736
F273	F	1.657628	0.209259	0.409070
F274	F	0.997728	-0.074247	0.173614
F275	F	1.331062	0.259086	0.506947
F276	F	1.664395	0.592420	0.840280
H277	H	0.986728	-0.695640	-0.152529
H278	H	1.320061	-0.362307	0.180804
H279	H	1.653395	-0.028974	0.514137
F280	F	1.118067	-0.006074	0.566113
F281	F	1.451400	0.327260	0.899446
F282	F	1.784734	0.660593	1.232780
F283	F	0.958362	-0.025767	0.433586
F284	F	1.291695	0.307566	0.766919
F285	F	1.625029	0.640899	1.100252
H286	H	0.851531	0.048880	0.558133
H287	H	1.184864	0.382214	0.891467
H288	H	1.518197	0.715547	1.224800
H289	H	0.990774	-0.463728	0.236617
H290	H	1.324108	-0.130394	0.569951
H291	H	1.657441	0.202939	0.903284
H292	H	0.428743	0.108048	-0.140277
H293	H	0.762076	0.441381	0.193056
H294	H	1.095410	0.774714	0.526389
F295	F	0.562935	0.018346	-0.159985
F296	F	0.896269	0.351679	0.173349
F297	F	1.229602	0.685012	0.506682
F298	F	0.997786	-0.074242	-0.173482
F299	F	1.331120	0.259092	0.159851
F300	F	1.664453	0.592425	0.493184
H301	H	0.985098	-0.787112	-0.152528
H302	H	1.318432	-0.453779	0.180805
H303	H	1.651765	-0.120445	0.514138
F304	F	0.991803	-0.410219	-0.257592
F305	F	1.325136	-0.076886	0.075741
F306	F	1.658469	0.256447	0.409074
H307	H	0.880448	0.129525	0.442045
H308	H	1.213781	0.462858	0.775379
H309	H	1.547114	0.796191	1.108712
F310	F	0.984951	-0.793415	0.173549
F311	F	1.318284	-0.460082	0.506882
F312	F	1.651618	-0.126748	0.840215
H313	H	0.986676	-0.695654	0.152540
H314	H	1.320009	-0.362321	0.485874
H315	H	1.653343	-0.028987	0.819207
F316	F	0.991702	-0.410227	0.257659
F317	F	1.325036	-0.076894	0.590993
F318	F	1.658369	0.256440	0.924326
F319	F	0.989030	-0.561485	0.257632
F320	F	1.322363	-0.228151	0.590965
F321	F	1.655696	0.105182	0.924298
H322	H	1.131252	0.083547	0.442067
H323	H	1.464585	0.416880	0.775401
H324	H	1.797919	0.750213	1.108734
