data_functionalizedCrystal
_audit_creation_method	'MofGen! by Chris Wilmer'
_symmetry_space_group_name_H-M	'P1'
_symmetry_Int_Tables_number	1
_symmetry_cell_setting	triclinic
loop_
_symmetry_equiv_pos_as_xyz
  x,y,z
_cell_length_a	10.685594
_cell_length_b	16.625548
_cell_length_c	10.686551
_cell_angle_alpha	94.398840
_cell_angle_beta	90.301037
_cell_angle_gamma	85.614884
loop_
_atom_site_label
_atom_site_type_symbol
_atom_site_fract_x
_atom_site_fract_y
_atom_site_fract_z
Zn1	Zn	-0.444906	-1.247625	-0.747692
Zn2	Zn	0.055094	-0.747625	-0.247692
Zn3	Zn	-0.670816	-1.226983	-0.554011
Zn4	Zn	-0.170816	-0.726983	-0.054011
Zn5	Zn	-0.461069	-1.101704	-0.537933
Zn6	Zn	0.038931	-0.601704	-0.037933
Zn7	Zn	-0.654625	-1.103294	-0.763708
Zn8	Zn	-0.154625	-0.603294	-0.263708
O9	O	-0.557854	-1.169902	-0.650836
O10	O	-0.057854	-0.669902	-0.150836
O11	O	-0.474885	-1.357720	-0.722026
O12	O	0.025115	-0.857720	-0.222026
O13	O	-0.656533	-1.201061	-0.376334
O14	O	-0.156533	-0.701061	0.123666
O15	O	-0.283376	-1.129035	-0.552326
O16	O	0.216624	-0.629035	-0.052326
O17	O	-0.640861	-1.342555	-0.579729
O18	O	-0.140861	-0.842555	-0.079729
O19	O	-0.271502	-1.236242	-0.706435
O20	O	0.228498	-0.736242	-0.206435
O21	O	-0.502432	-1.109019	-0.364522
O22	O	-0.002432	-0.609019	0.135478
O23	O	-0.486732	-0.989082	-0.567857
O24	O	0.013268	-0.489082	-0.067857
O25	O	-0.613265	-1.131744	-0.937128
O26	O	-0.113265	-0.631744	-0.437128
O27	O	-0.628937	-0.990250	-0.733733
O28	O	-0.128937	-0.490250	-0.233733
O29	O	-0.459185	-1.237783	-0.925361
O30	O	0.040815	-0.737783	-0.425361
O31	O	-0.844216	-1.202602	-0.595260
O32	O	-0.344216	-0.702602	-0.095260
O33	O	-0.832321	-1.111728	-0.749323
O34	O	-0.332321	-0.611728	-0.249323
C35	C	-0.883784	-1.155121	-0.675801
C36	C	-0.383784	-0.655121	-0.175801
C37	C	-1.023215	-1.148874	-0.686524
C38	C	-0.523215	-0.648874	-0.186524
C39	C	-0.557832	-0.960410	-0.650789
C40	C	-0.057832	-0.460410	-0.150789
C41	C	-0.557851	-0.870788	-0.650801
C42	C	-0.057851	-0.370788	-0.150801
C43	C	-0.557846	-0.542615	-0.650839
C44	C	-0.057846	-0.042615	-0.150839
C45	C	-0.557844	-0.633923	-0.650824
C46	C	-0.057844	-0.133923	-0.150824
C47	C	-0.557849	-0.706698	-0.650819
C48	C	-0.057849	-0.206698	-0.150819
C49	C	-0.557846	-0.798012	-0.650806
C50	C	-0.057846	-0.298012	-0.150806
C51	C	-0.230649	-1.184764	-0.625801
C52	C	0.269351	-0.684764	-0.125801
C53	C	-0.091213	-1.191097	-0.615132
C54	C	0.408787	-0.691097	-0.115132
C55	C	-0.532616	-1.187243	-0.978033
C56	C	-0.032616	-0.687243	-0.478033
C57	C	-0.521861	-1.194633	-1.117465
C58	C	-0.021861	-0.694633	-0.617465
C59	C	-0.557869	-0.380212	-0.650871
C60	C	-0.057869	0.119788	-0.150871
C61	C	-0.557856	-0.469832	-0.650854
C62	C	-0.057856	0.030168	-0.150854
C63	C	-0.582903	-1.152678	-0.324905
C64	C	-0.082903	-0.652678	0.175095
C65	C	-0.593304	-1.145460	-0.185447
C66	C	-0.093304	-0.645460	0.314553
H67	H	-1.042761	-1.232030	-0.545814
H68	H	-0.542761	-0.732030	-0.045814
O69	O	-0.676277	-1.088571	-1.127695
O70	O	-0.176277	-0.588571	-0.627695
C71	C	-0.798869	-1.102179	-1.169221
C72	C	-0.298869	-0.602179	-0.669221
H73	H	-0.802449	-1.168196	-1.205826
H74	H	-0.302449	-0.668196	-0.705826
H75	H	-0.867420	-1.087908	-1.087734
H76	H	-0.367420	-0.587908	-0.587734
H77	H	-0.825868	-1.061437	-1.247677
H78	H	-0.325868	-0.561437	-0.747677
H79	H	-1.071674	-1.107945	-0.755856
H80	H	-0.571674	-0.607945	-0.255856
H81	H	-0.452472	-1.242389	-1.165934
H82	H	0.047528	-0.742389	-0.665934
