data_functionalizedCrystal
_audit_creation_method	'MofGen! by Chris Wilmer'
_symmetry_space_group_name_H-M	'P1'
_symmetry_Int_Tables_number	1
_symmetry_cell_setting	triclinic
loop_
_symmetry_equiv_pos_as_xyz
  x,y,z
_cell_length_a	14.909351
_cell_length_b	14.908308
_cell_length_c	14.908783
_cell_angle_alpha	89.788727
_cell_angle_beta	90.205778
_cell_angle_gamma	96.746848
loop_
_atom_site_label
_atom_site_type_symbol
_atom_site_fract_x
_atom_site_fract_y
_atom_site_fract_z
Zn1	Zn	-0.315632	-0.607057	1.362417
Zn2	Zn	0.184368	-0.107057	1.862417
Zn3	Zn	-0.457379	-0.465332	1.378678
Zn4	Zn	0.042621	0.034668	1.878678
Zn5	Zn	-0.314655	-0.447969	1.220678
Zn6	Zn	0.185345	0.052031	1.720678
Zn7	Zn	-0.474659	-0.608006	1.220640
Zn8	Zn	0.025341	-0.108006	1.720640
O9	O	-0.390581	-0.532091	1.295603
O10	O	0.109419	-0.032091	1.795603
O11	O	-0.327612	-0.595126	1.490032
O12	O	0.172388	-0.095126	1.990032
O13	O	-0.430806	-0.336740	1.364540
O14	O	0.069194	0.163260	1.864540
O15	O	-0.188501	-0.461408	1.232690
O16	O	0.311499	0.038592	1.732690
O17	O	-0.431753	-0.491001	1.501979
O18	O	0.068247	0.008999	2.001979
O19	O	-0.189219	-0.578290	1.336825
O20	O	0.310781	-0.078290	1.836825
O21	O	-0.325947	-0.323983	1.248458
O22	O	0.174053	0.176017	1.748458
O23	O	-0.342703	-0.462329	1.095215
O24	O	0.157297	0.037671	1.595215
O25	O	-0.461204	-0.734169	1.232626
O26	O	0.038796	-0.234169	1.732626
O27	O	-0.460257	-0.579907	1.095187
O28	O	0.039743	-0.079907	1.595187
O29	O	-0.344368	-0.733471	1.336789
O30	O	0.155632	-0.233471	1.836789
O31	O	-0.585955	-0.491921	1.364504
O32	O	-0.085955	0.008079	1.864504
O33	O	-0.598650	-0.596744	1.248394
O34	O	-0.098650	-0.096744	1.748394
C35	C	-0.625046	-0.546341	1.308233
C36	C	-0.125046	-0.046341	1.808233
C37	C	-0.725349	-0.552471	1.313716
C38	C	-0.225349	-0.052471	1.813716
C39	C	-0.403250	-0.519337	1.062671
C40	C	0.096750	-0.019337	1.562671
C41	C	-0.408693	-0.513904	0.963021
C42	C	0.091307	-0.013904	1.463021
C43	C	-0.404822	-0.767481	1.282890
C44	C	0.095178	-0.267481	1.782890
C45	C	-0.410891	-0.867790	1.277472
C46	C	0.089109	-0.367790	1.777472
C47	C	-0.867027	-0.621997	1.375600
C48	C	-0.367027	-0.121997	1.875600
C49	C	-0.772783	-0.616242	1.370454
C50	C	-0.272783	-0.116242	1.870454
C51	C	-0.772163	-0.494450	1.262122
C52	C	-0.272163	0.005550	1.762122
C53	C	-0.866407	-0.500205	1.267268
C54	C	-0.366407	-0.000205	1.767268
C55	C	-0.913835	-0.563982	1.324008
C56	C	-0.413835	-0.063982	1.824008
C57	C	-1.008080	-0.569741	1.329149
C58	C	-0.508080	-0.069741	1.829149
C59	C	-1.007458	-0.447945	1.220822
C60	C	-0.507458	0.052055	1.720822
C61	C	-0.913215	-0.442190	1.215676
C62	C	-0.413215	0.057810	1.715676
C63	C	-0.155200	-0.517806	1.282948
C64	C	0.344800	-0.017806	1.782948
C65	C	-0.054895	-0.511719	1.277555
C66	C	0.445105	-0.011719	1.777555
C67	C	-0.300612	-1.055556	1.375752
C68	C	0.199388	-0.555556	1.875752
C69	C	-0.306311	-1.149805	1.370664
C70	C	0.193689	-0.649805	1.870664
C71	C	-0.427983	-1.150540	1.262204
C72	C	0.072017	-0.650540	1.762204
C73	C	-0.422284	-1.056290	1.267292
C74	C	0.077716	-0.556290	1.767292
C75	C	-0.358597	-1.008802	1.324069
C76	C	0.141403	-0.508802	1.824069
C77	C	-0.352903	-0.914551	1.329161
C78	C	0.147097	-0.414551	1.829161
C79	C	-0.474570	-0.915286	1.220696
C80	C	0.025430	-0.415286	1.720696
C81	C	-0.480269	-1.009536	1.215608
C82	C	0.019731	-0.509536	1.715608
C83	C	-0.376327	-0.297615	1.308316
C84	C	0.123673	0.202385	1.808316
C85	C	-0.369995	-0.197301	1.313893
C86	C	0.130005	0.302699	1.813893
C87	C	-0.310647	-0.612306	0.763326
C88	C	0.189353	-0.112306	1.263326
C89	C	-0.315758	-0.607204	0.669696
C90	C	0.184242	-0.107204	1.169696
C91	C	-0.424021	-0.498593	0.682130
C92	C	0.075979	0.001407	1.182130
C93	C	-0.418909	-0.503696	0.775760
C94	C	0.081091	-0.003696	1.275760
C95	C	-0.362222	-0.560555	0.816354
C96	C	0.137778	-0.060555	1.316354
C97	C	-0.357116	-0.565661	0.909986
C98	C	0.142884	-0.065661	1.409986
C99	C	-0.465373	-0.457047	0.922418
C100	C	0.034627	0.042953	1.422418
C101	C	-0.470484	-0.451944	0.828788
C102	C	0.029516	0.048056	1.328788
C103	C	-0.377864	-0.544894	1.529445
C104	C	0.122136	-0.044894	2.029445
C105	C	-0.372444	-0.550351	1.629095
C106	C	0.127556	-0.050351	2.129095
H107	H	-1.046696	-0.621678	1.375342
H108	H	-0.546696	-0.121678	1.875342
H109	H	-0.507377	-0.414914	0.965604
H110	H	-0.007377	0.085086	1.465604
N111	N	-0.299199	-0.623733	0.951441
N112	N	0.200801	-0.123733	1.451441
N113	N	-0.216137	-0.612238	0.936802
N114	N	0.283863	-0.112238	1.436802
H115	H	-0.175228	-0.653250	0.966077
H116	H	0.324772	-0.153250	1.466077
N117	N	-0.724960	-0.675487	1.423164
N118	N	-0.224960	-0.175487	1.923164
N119	N	-0.667312	-0.643687	1.479159
N120	N	-0.167312	-0.143687	1.979159
H121	H	-0.633536	-0.685528	1.516393
H122	H	-0.133536	-0.185528	2.016393
N123	N	-0.263079	-0.660059	0.615518
N124	N	0.236921	-0.160059	1.115518
N125	N	-0.206463	-0.622055	0.561867
N126	N	0.293537	-0.122055	1.061867
H127	H	-0.169256	-0.659386	0.523602
H128	H	0.330744	-0.159386	1.023602
N129	N	-1.055287	-0.388692	1.168116
N130	N	-0.555287	0.111308	1.668116
N131	N	-1.139433	-0.393843	1.172711
N132	N	-0.639433	0.106157	1.672711
H133	H	-1.173214	-0.352000	1.135486
H134	H	-0.673214	0.148000	1.635486
H135	H	-0.905645	-0.673940	1.421786
H136	H	-0.405645	-0.173940	1.921786
H137	H	-0.248760	-1.016891	1.421987
H138	H	0.251240	-0.516891	1.921987
H139	H	-0.264494	-0.658607	0.796379
H140	H	0.235506	-0.158607	1.296379
H141	H	-0.479833	-1.189221	1.215979
H142	H	0.020167	-0.689221	1.715979
N143	N	-0.481912	-0.440502	0.640666
N144	N	0.018088	0.059498	1.140666
N145	N	-0.470190	-0.357435	0.655272
N146	N	0.029810	0.142565	1.155272
H147	H	-0.511075	-0.316405	0.625987
H148	H	-0.011075	0.183595	1.125987
H149	H	-0.259091	-1.187869	1.412748
H150	H	0.240909	-0.687869	1.912748
H151	H	-0.532119	-1.048214	1.169381
H152	H	-0.032119	-0.548214	1.669381
H153	H	-0.516634	-0.405649	0.795723
H154	H	-0.016634	0.094351	1.295723
N155	N	-0.723691	-0.429287	1.204203
N156	N	-0.223691	0.070713	1.704203
N157	N	-0.639544	-0.424144	1.199639
N158	N	-0.139544	0.075856	1.699639
H159	H	-0.605307	-0.378115	1.158741
H160	H	-0.105307	0.121885	1.658741
N161	N	-0.864750	-0.377044	1.157734
N162	N	-0.364750	0.122956	1.657734
N163	N	-0.780604	-0.371907	1.153151
N164	N	-0.280604	0.128093	1.653151
H165	H	-0.746375	-0.325897	1.112229
H166	H	-0.246375	0.174103	1.612229
H167	H	-0.521788	-0.877209	1.178614
H168	H	-0.021788	-0.377209	1.678614
H169	H	-0.301048	-0.875888	1.375393
H170	H	0.198952	-0.375888	1.875393
