data_functionalizedCrystal
_audit_creation_method	'MofGen! by Chris Wilmer'
_symmetry_space_group_name_H-M	'P1'
_symmetry_Int_Tables_number	1
_symmetry_cell_setting	triclinic
loop_
_symmetry_equiv_pos_as_xyz
  x,y,z
_cell_length_a	16.625546
_cell_length_b	12.594517
_cell_length_c	16.625539
_cell_angle_alpha	90.025391
_cell_angle_beta	89.969603
_cell_angle_gamma	89.982595
loop_
_atom_site_label
_atom_site_type_symbol
_atom_site_fract_x
_atom_site_fract_y
_atom_site_fract_z
Zn1	Zn	-0.321109	-1.627215	-0.456001
Zn2	Zn	-0.455952	-1.627087	-0.321164
Zn3	Zn	-0.321125	-1.449220	-0.321171
Zn4	Zn	-0.455891	-1.449181	-0.455942
O5	O	-0.388519	-1.538176	-0.388569
O6	O	-0.339015	-1.776144	-0.438137
O7	O	-0.438099	-1.603456	-0.208332
O8	O	-0.208291	-1.472901	-0.339084
O9	O	-0.438084	-1.776050	-0.339072
O10	O	-0.208279	-1.603673	-0.438143
O11	O	-0.339043	-1.472778	-0.208337
O12	O	-0.338984	-1.300269	-0.339026
O13	O	-0.437980	-1.472835	-0.568782
O14	O	-0.437996	-1.300241	-0.438043
O15	O	-0.338956	-1.603636	-0.568826
O16	O	-0.568777	-1.603418	-0.339015
O17	O	-0.568732	-1.472711	-0.438036
C18	C	-0.598010	-1.538075	-0.388536
C19	C	-0.687631	-1.538129	-0.388548
C20	C	-0.388486	-1.261635	-0.388529
C21	C	-0.388490	-1.143330	-0.388531
C22	C	-1.015807	-1.538315	-0.388632
C23	C	-0.924499	-1.538260	-0.388611
C24	C	-0.851722	-1.538221	-0.388590
C25	C	-0.760408	-1.538168	-0.388569
C26	C	-0.334560	-1.074061	-0.334775
C27	C	-0.408103	-1.003239	-0.314932
C28	C	-0.314970	-1.003352	-0.408375
C29	C	-0.462072	-1.074066	-0.368650
C30	C	-0.368890	-1.074185	-0.462128
C31	C	-0.442484	-1.003395	-0.442312
C32	C	-0.178211	-1.538306	-0.388621
C33	C	-0.088589	-1.538362	-0.388643
C34	C	-0.388459	-1.538245	-0.598878
C35	C	-0.388434	-1.538275	-0.688500
C36	C	-0.388538	-0.815797	-0.388595
C37	C	-0.388505	-0.934102	-0.388568
C38	C	-0.388344	-1.538324	-1.016675
C39	C	-0.388371	-1.538307	-0.925367
C40	C	-0.388389	-1.538300	-0.852590
C41	C	-0.388416	-1.538282	-0.761276
C42	C	-0.388521	-1.538168	-0.179079
C43	C	-0.388320	-1.538345	-0.089458
H44	H	-0.289003	-1.105089	-0.289264
Br45	Br	-0.341205	-1.126162	-0.565810
Br46	Br	-0.435757	-0.951301	-0.211224
Br47	Br	-0.211334	-0.951567	-0.436322
H48	H	-0.524272	-1.104999	-0.351812
Br49	Br	-0.518592	-0.952001	-0.518111
