data_functionalizedCrystal
_audit_creation_method	'MofGen! by Chris Wilmer'
_symmetry_space_group_name_H-M	'P1'
_symmetry_Int_Tables_number	1
_symmetry_cell_setting	triclinic
loop_
_symmetry_equiv_pos_as_xyz
  x,y,z
_cell_length_a	18.050582
_cell_length_b	16.959455
_cell_length_c	16.959453
_cell_angle_alpha	89.983065
_cell_angle_beta	89.976667
_cell_angle_gamma	90.014681
loop_
_atom_site_label
_atom_site_type_symbol
_atom_site_fract_x
_atom_site_fract_y
_atom_site_fract_z
Zn1	Zn	-0.419890	-1.208387	-0.314791
Zn2	Zn	-0.086556	-0.875054	0.018543
Zn3	Zn	0.246777	-0.541720	0.351876
Zn4	Zn	-0.295700	-1.208309	-0.446965
Zn5	Zn	0.037634	-0.874976	-0.113632
Zn6	Zn	0.370967	-0.541642	0.219701
Zn7	Zn	-0.295716	-1.076215	-0.314798
Zn8	Zn	0.037617	-0.742881	0.018536
Zn9	Zn	0.370950	-0.409548	0.351869
Zn10	Zn	-0.419851	-1.076180	-0.446924
Zn11	Zn	-0.086517	-0.742847	-0.113591
Zn12	Zn	0.246816	-0.409514	0.219743
O13	O	-0.357789	-1.142273	-0.380869
O14	O	-0.024456	-0.808939	-0.047536
O15	O	0.308878	-0.475606	0.285797
O16	O	-0.403425	-1.318988	-0.332338
O17	O	-0.070092	-0.985654	0.000995
O18	O	0.263242	-0.652321	0.334328
O19	O	-0.191777	-1.190768	-0.429453
O20	O	0.141556	-0.857435	-0.096120
O21	O	0.474889	-0.524101	0.237214
O22	O	-0.312212	-1.093795	-0.204186
O23	O	0.021122	-0.760461	0.129148
O24	O	0.354455	-0.427128	0.462481
O25	O	-0.312183	-1.318930	-0.429446
O26	O	0.021150	-0.985597	-0.096113
O27	O	0.354484	-0.652263	0.237220
O28	O	-0.403441	-1.190901	-0.204181
O29	O	-0.070108	-0.857568	0.129153
O30	O	0.263225	-0.524234	0.462486
O31	O	-0.191789	-1.093719	-0.332350
O32	O	0.141544	-0.760386	0.000983
O33	O	0.474877	-0.427052	0.334317
O34	O	-0.312174	-0.965599	-0.332310
O35	O	0.021160	-0.632266	0.001023
O36	O	0.354493	-0.298933	0.334357
O37	O	-0.523780	-1.093736	-0.429376
O38	O	-0.190447	-0.760403	-0.096043
O39	O	0.142886	-0.427070	0.237291
O40	O	-0.403375	-0.965574	-0.429383
O41	O	-0.070041	-0.632241	-0.096049
O42	O	0.263292	-0.298907	0.237284
O43	O	-0.523809	-1.190868	-0.332298
O44	O	-0.190476	-0.857535	0.001035
O45	O	0.142857	-0.524201	0.334368
O46	O	-0.312145	-1.190735	-0.557571
O47	O	0.021188	-0.857401	-0.224237
O48	O	0.354522	-0.524068	0.109096
O49	O	-0.403358	-1.093660	-0.557540
O50	O	-0.070025	-0.760327	-0.224207
O51	O	0.263308	-0.426994	0.109126
C52	C	-0.357772	-0.936906	-0.380843
C53	C	-0.024439	-0.603573	-0.047510
C54	C	0.308895	-0.270240	0.285823
C55	C	-0.357782	-0.849050	-0.380851
C56	C	-0.024449	-0.515717	-0.047518
C57	C	0.308884	-0.182383	0.285815
C58	C	-0.357762	-1.142207	-0.586236
C59	C	-0.024429	-0.808873	-0.252902
C60	C	0.308905	-0.475540	0.080431
C61	C	-0.357775	-1.142251	-0.674092
C62	C	-0.024442	-0.808918	-0.340759
C63	C	0.308892	-0.475584	-0.007426
C64	C	-0.551495	-1.142307	-0.380832
C65	C	-0.218161	-0.808974	-0.047498
C66	C	0.115172	-0.475640	0.285835
C67	C	-0.634041	-1.142321	-0.380816
C68	C	-0.300707	-0.808988	-0.047482
C69	C	0.032626	-0.475655	0.285851
C70	C	-0.882851	-1.089551	-0.433521
C71	C	-0.549517	-0.756217	-0.100187
C72	C	-0.216184	-0.422884	0.233146
C73	C	-0.833463	-1.070233	-0.361424
C74	C	-0.500130	-0.736900	-0.028091
C75	C	-0.166797	-0.403566	0.305242
C76	C	-0.931161	-1.142388	-0.380700
C77	C	-0.597828	-0.809055	-0.047366
C78	C	-0.264494	-0.475722	0.285967
C79	C	-0.833467	-1.161636	-0.452849
C80	C	-0.500133	-0.828302	-0.119516
C81	C	-0.166800	-0.494969	0.213817
C82	C	-0.785176	-1.142354	-0.380760
C83	C	-0.451843	-0.809020	-0.047427
C84	C	-0.118509	-0.475687	0.285906
C85	C	-0.882861	-1.123034	-0.308565
C86	C	-0.549528	-0.789700	0.024769
C87	C	-0.216194	-0.456367	0.358102
C88	C	-0.882869	-1.214470	-0.400038
C89	C	-0.549535	-0.881136	-0.066705
C90	C	-0.216202	-0.547803	0.266628
C91	C	-0.833504	-1.195180	-0.327892
C92	C	-0.500170	-0.861846	0.005441
C93	C	-0.166837	-0.528513	0.338775
C94	C	-1.015259	-1.142406	-0.380666
C95	C	-0.681926	-0.809073	-0.047332
C96	C	-0.348593	-0.475740	0.286001
C97	C	-0.701079	-1.142336	-0.380786
C98	C	-0.367746	-0.809002	-0.047453
C99	C	-0.034413	-0.475669	0.285880
C100	C	-0.164837	-1.142284	-0.380850
C101	C	0.168496	-0.808951	-0.047516
C102	C	0.501830	-0.475618	0.285817
C103	C	-0.082292	-1.142423	-0.380643
C104	C	0.251042	-0.809089	-0.047310
C105	C	0.584375	-0.475756	0.286023
C106	C	-0.357807	-1.348441	-0.380896
C107	C	-0.024473	-1.015108	-0.047563
C108	C	0.308860	-0.681774	0.285771
C109	C	-0.357814	-1.436298	-0.380908
C110	C	-0.024481	-1.102964	-0.047574
C111	C	0.308853	-0.769631	0.285759
C112	C	-0.310400	-0.477563	-0.330282
C113	C	0.022933	-0.144230	0.003051
C114	C	0.356267	0.189104	0.336384
C115	C	-0.405221	-0.477586	-0.431522
C116	C	-0.071887	-0.144252	-0.098188
C117	C	0.261446	0.189081	0.235145
C118	C	-0.405216	-0.560131	-0.431510
C119	C	-0.071883	-0.226798	-0.098177
C120	C	0.261451	0.106535	0.235156
C121	C	-0.357802	-0.601397	-0.380885
C122	C	-0.024469	-0.268064	-0.047552
C123	C	0.308865	0.065270	0.285782
C124	C	-0.310392	-0.560117	-0.330271
C125	C	0.022941	-0.226783	0.003062
C126	C	0.356274	0.106550	0.336396
C127	C	-0.452620	-0.601418	-0.482129
C128	C	-0.119286	-0.268085	-0.148796
C129	C	0.214047	0.065249	0.184538
C130	C	-0.452616	-0.683969	-0.482120
C131	C	-0.119283	-0.350636	-0.148787
C132	C	0.214050	-0.017302	0.184546
C133	C	-0.405205	-0.725236	-0.431490
C134	C	-0.071872	-0.391903	-0.098157
C135	C	0.261461	-0.058569	0.235176
C136	C	-0.357794	-0.683950	-0.380874
C137	C	-0.024461	-0.350617	-0.047540
C138	C	0.308872	-0.017284	0.285793
C139	C	-0.310380	-0.725216	-0.330248
C140	C	0.022953	-0.391883	0.003085
C141	C	0.356286	-0.058549	0.336418
C142	C	-0.262972	-0.683932	-0.279627
C143	C	0.070361	-0.350599	0.053706
C144	C	0.403694	-0.017265	0.387039
C145	C	-0.262981	-0.601383	-0.279641
C146	C	0.070352	-0.268050	0.053692
C147	C	0.403685	0.065283	0.387026
C148	C	-0.405197	-0.807784	-0.431476
C149	C	-0.071863	-0.474451	-0.098143
C150	C	0.261470	-0.141118	0.235190
C151	C	-0.310373	-0.807769	-0.330237
C152	C	0.022961	-0.474436	0.003096
C153	C	0.356294	-0.141103	0.336429
C154	C	-0.405382	-1.192901	-1.045507
C155	C	-0.072049	-0.859567	-0.712173
C156	C	0.261285	-0.526234	-0.378840
C157	C	-0.310306	-1.091865	-1.045629
C158	C	0.023027	-0.758532	-0.712296
C159	C	0.356360	-0.425199	-0.378962
C160	C	-0.310289	-1.091836	-0.963083
C161	C	0.023044	-0.758503	-0.629750
C162	C	0.356377	-0.425169	-0.296416
C163	C	-0.357820	-1.142339	-0.921745
C164	C	-0.024487	-0.809006	-0.588412
C165	C	0.308847	-0.475672	-0.255078
C166	C	-0.405368	-1.192871	-0.962953
C167	C	-0.072035	-0.859538	-0.629620
C168	C	0.261299	-0.526205	-0.296286
C169	C	-0.262748	-1.041299	-0.921869
C170	C	0.070586	-0.707966	-0.588536
C171	C	0.403919	-0.374632	-0.255202
C172	C	-0.262729	-1.041267	-0.839318
C173	C	0.070604	-0.707934	-0.505985
C174	C	0.403937	-0.374600	-0.172651
C175	C	-0.310257	-1.091775	-0.797979
C176	C	0.023076	-0.758441	-0.464645
C177	C	0.356410	-0.425108	-0.131312
C178	C	-0.357806	-1.142310	-0.839192
C179	C	-0.024473	-0.808976	-0.505858
C180	C	0.308861	-0.475643	-0.172525
C181	C	-0.405337	-1.192813	-0.797854
C182	C	-0.072004	-0.859479	-0.464520
C183	C	0.261330	-0.526146	-0.131187
C184	C	-0.452883	-1.243352	-0.839065
C185	C	-0.119550	-0.910019	-0.505732
C186	C	0.213784	-0.576686	-0.172399
C187	C	-0.452896	-1.243379	-0.921614
C188	C	-0.119562	-0.910046	-0.588280
C189	C	0.213771	-0.576712	-0.254947
C190	C	-0.310244	-1.091748	-0.715430
C191	C	0.023089	-0.758415	-0.382097
C192	C	0.356422	-0.425081	-0.048763
C193	C	-0.405323	-1.192783	-0.715300
C194	C	-0.071990	-0.859450	-0.381967
C195	C	0.261344	-0.526117	-0.048634
C196	C	-0.357833	-1.142360	-0.174701
C197	C	-0.024499	-0.809027	0.158632
C198	C	0.308834	-0.475694	0.491966
C199	C	-0.357851	-1.142398	-0.086845
C200	C	-0.024518	-0.809064	0.246489
C201	C	0.308815	-0.475731	0.579822
H202	H	-0.904519	-1.044848	-0.478107
H203	H	-0.571185	-0.711515	-0.144774
H204	H	-0.237852	-0.378181	0.188559
H205	H	-0.224365	-0.717541	-0.238412
H206	H	0.108969	-0.384208	0.094922
H207	H	0.442302	-0.050874	0.428255
H208	H	-0.444026	-1.233912	-0.681648
H209	H	-0.110692	-0.900579	-0.348314
H210	H	0.222641	-0.567245	-0.014981
H211	H	-0.904467	-1.106670	-0.247556
H212	H	-0.571133	-0.773337	0.085777
H213	H	-0.237800	-0.440003	0.419110
H214	H	-0.491586	-1.284469	-0.805398
H215	H	-0.158253	-0.951135	-0.472065
H216	H	0.175080	-0.617802	-0.138732
H217	H	-0.811974	-1.239848	-0.283198
H218	H	-0.478640	-0.906515	0.050136
H219	H	-0.145307	-0.573181	0.383469
F220	F	-0.805100	-1.182929	-0.532566
F221	F	-0.471766	-0.849596	-0.199233
F222	F	-0.138433	-0.516263	0.134101
F223	F	-0.911258	-1.294143	-0.421419
F224	F	-0.577925	-0.960809	-0.088085
F225	F	-0.244592	-0.627476	0.245248
H226	H	-0.271612	-1.050745	-1.079291
H227	H	0.061721	-0.717412	-0.745958
H228	H	0.395055	-0.384078	-0.412625
F229	F	-0.503058	-0.557497	-0.536024
F230	F	-0.169725	-0.224163	-0.202691
F231	F	0.163609	0.109170	0.130642
F232	F	-0.212129	-0.987478	-0.795465
F233	F	0.121204	-0.654144	-0.462132
F234	F	0.454538	-0.320811	-0.128798
F235	F	-0.805098	-0.990538	-0.340069
F236	F	-0.471765	-0.657205	-0.006736
F237	F	-0.138432	-0.323871	0.326597
F238	F	-0.212531	-0.557441	-0.225772
F239	F	0.120802	-0.224108	0.107562
F240	F	0.454136	0.109226	0.440895
F241	F	-0.503072	-0.727899	-0.535994
F242	F	-0.169739	-0.394566	-0.202660
F243	F	0.163594	-0.061232	0.130673
F244	F	-0.212178	-0.987541	-0.965867
F245	F	0.121155	-0.654208	-0.632534
F246	F	0.454489	-0.320875	-0.299201
H247	H	-0.443793	-0.841394	-0.472694
H248	H	-0.110460	-0.508061	-0.139361
H249	H	0.222874	-0.174727	0.193973
F250	F	-0.503495	-1.297159	-0.965479
F251	F	-0.170162	-0.963826	-0.632146
F252	F	0.163172	-0.630493	-0.298812
H253	H	-0.271766	-0.841362	-0.289007
H254	H	0.061567	-0.508029	0.044327
H255	H	0.394900	-0.174695	0.377660
H256	H	-0.444091	-1.234051	-1.079065
H257	H	-0.110757	-0.900718	-0.745731
H258	H	0.222576	-0.567384	-0.412398
F259	F	-0.259951	-0.433626	-0.276406
F260	F	0.073382	-0.100293	0.056927
F261	F	0.406715	0.233040	0.390260
F262	F	-0.259648	-1.037962	-0.671574
F263	F	0.073685	-0.704629	-0.338240
F264	F	0.407019	-0.371296	-0.004907
H265	H	-0.443819	-0.443982	-0.472743
H266	H	-0.110485	-0.110649	-0.139410
H267	H	0.222848	0.222684	0.193924
