data_functionalizedCrystal
_audit_creation_method	'MofGen! by Chris Wilmer'
_symmetry_space_group_name_H-M	'P1'
_symmetry_Int_Tables_number	1
_symmetry_cell_setting	triclinic
loop_
_symmetry_equiv_pos_as_xyz
  x,y,z
_cell_length_a	12.759401
_cell_length_b	16.959454
_cell_length_c	12.759393
_cell_angle_alpha	90.030714
_cell_angle_beta	90.018496
_cell_angle_gamma	90.020236
loop_
_atom_site_label
_atom_site_type_symbol
_atom_site_fract_x
_atom_site_fract_y
_atom_site_fract_z
Zn1	Zn	1.606216	-0.314632	0.593988
Zn2	Zn	1.606094	-0.446833	0.418310
Zn3	Zn	1.430518	-0.314673	0.418327
Zn4	Zn	1.430490	-0.446772	0.593952
O5	O	1.518330	-0.380727	0.506144
O6	O	1.753221	-0.332177	0.570692
O7	O	1.582764	-0.429345	0.271291
O8	O	1.453888	-0.204057	0.441651
O9	O	1.753131	-0.429304	0.441622
O10	O	1.582972	-0.204026	0.570708
O11	O	1.453769	-0.332247	0.271304
O12	O	1.283493	-0.332188	0.441616
O13	O	1.453840	-0.429201	0.740978
O14	O	1.283473	-0.429241	0.570647
O15	O	1.582945	-0.332118	0.741004
O16	O	1.582737	-0.557436	0.441588
O17	O	1.453722	-0.557391	0.570631
C18	C	1.245362	-0.380713	0.506130
C19	C	1.128586	-0.380726	0.506149
C20	C	1.073740	-0.431342	0.573224
C21	C	0.964016	-0.431352	0.573235
C22	C	0.963992	-0.330127	0.439087
C23	C	1.073714	-0.330114	0.439082
C24	C	1.128612	-0.481954	0.640291
C25	C	1.073766	-0.532575	0.707370
C26	C	0.964042	-0.532585	0.707382
C27	C	0.909164	-0.481974	0.640313
C28	C	1.518242	-0.586094	0.506126
C29	C	1.518300	-0.673950	0.506154
C30	C	1.451249	-1.045433	0.573330
C31	C	1.585703	-1.045419	0.439066
C32	C	1.585666	-0.962873	0.439056
C33	C	1.518419	-0.921603	0.506183
C34	C	1.451208	-0.962879	0.573320
C35	C	1.652869	-0.921591	0.371913
C36	C	1.652834	-0.839040	0.371900
C37	C	1.585591	-0.797769	0.439033
C38	C	1.518378	-0.839050	0.506173
C39	C	1.451130	-0.797780	0.573300
C40	C	1.383922	-0.839059	0.640447
C41	C	1.383965	-0.921607	0.640453
C42	C	1.585548	-0.715220	0.439027
C43	C	1.451089	-0.715226	0.573291
C44	C	1.792363	-0.380743	0.506159
C45	C	1.909140	-0.380749	0.506165
C46	C	1.518403	-0.380648	0.780178
C47	C	1.518435	-0.380614	0.896954
C48	C	1.518447	-0.174559	0.506185
C49	C	1.518496	-0.086703	0.506203
C50	C	1.518317	-0.380750	0.233177
C51	C	1.518489	-0.380561	0.116401
C52	C	1.585669	-0.330058	0.951832
C53	C	1.585694	-0.330029	1.061556
C54	C	1.451247	-0.431119	1.061516
C55	C	1.451218	-0.431143	0.951793
C56	C	1.652886	-0.279528	0.896993
C57	C	1.720126	-0.228968	0.951870
C58	C	1.720151	-0.228940	1.061594
C59	C	1.652935	-0.279471	1.116441
H60	H	1.329164	-0.805447	0.695097
O61	O	1.785557	-0.179922	0.898711
C62	C	1.890267	-0.197208	0.925506
H63	H	1.892447	-0.227573	1.005164
H64	H	1.925615	-0.237865	0.863745
C65	C	1.951275	-0.082859	0.832763
C66	C	1.953953	-0.120147	0.930604
H67	H	1.990561	-0.035325	0.835903
H68	H	1.880730	-0.071213	0.814707
H69	H	1.980729	-0.116747	0.781306
H70	H	1.924487	-0.086263	0.982057
H71	H	2.024494	-0.131785	0.948669
O72	O	1.785308	-0.179739	1.114948
C73	C	1.725540	-0.128677	1.178441
H74	H	1.642788	-0.123799	1.145371
H75	H	1.721929	-0.153090	1.261593
C76	C	1.878555	-0.052500	1.220761
C77	C	1.776919	-0.046504	1.180139
H78	H	1.910249	-0.001813	1.221813
H79	H	1.918823	-0.086903	1.177988
H80	H	1.875532	-0.072848	1.290050
H81	H	1.779945	-0.026166	1.110847
H82	H	1.736653	-0.012095	1.222901
O83	O	0.802577	-0.481951	0.640529
C84	C	0.765996	-0.461710	0.741269
H85	H	0.829246	-0.475287	0.801740
H86	H	0.746595	-0.396121	0.743648
C87	C	0.589118	-0.493185	0.692140
C88	C	0.666800	-0.509867	0.766412
H89	H	0.527927	-0.522887	0.707649
H90	H	0.613762	-0.506819	0.624268
H91	H	0.572963	-0.438527	0.694130
H92	H	0.682963	-0.564522	0.764412
H93	H	0.642156	-0.496243	0.834285
H94	H	1.640263	-0.681615	0.384352
O95	O	1.127118	-0.281060	0.373872
C96	C	1.190529	-0.326000	0.305898
H97	H	1.206954	-0.385933	0.342816
H98	H	1.148218	-0.334618	0.228018
C99	C	1.274592	-0.208877	0.241634
C100	C	1.294773	-0.282486	0.286983
H101	H	1.338893	-0.182034	0.229962
H102	H	1.231868	-0.178599	0.287427
H103	H	1.239331	-0.216069	0.176739
H104	H	1.330022	-0.275293	0.351882
H105	H	1.337506	-0.312761	0.241200
H106	H	1.329246	-0.955225	0.695119
O107	O	1.653126	-0.279515	1.223028
C108	C	1.753822	-0.299793	1.259686
H109	H	1.797221	-0.334268	1.196447
H110	H	1.799374	-0.243831	1.279179
C111	C	1.690357	-0.308627	1.436497
C112	C	1.743657	-0.350975	1.358828
H113	H	1.684088	-0.340195	1.497655
H114	H	1.622516	-0.294963	1.411801
H115	H	1.728324	-0.261994	1.452728
H116	H	1.705683	-0.397602	1.342589
H117	H	1.811491	-0.364648	1.383524
H118	H	1.396454	-0.472299	0.907111
H119	H	1.707610	-0.955199	0.317254
O120	O	0.910927	-0.581827	0.772576
C121	C	0.982890	-0.626476	0.831786
H122	H	1.061085	-0.629165	0.788738
H123	H	0.994601	-0.597603	0.911645
C124	C	0.844011	-0.707319	0.899607
C125	C	0.940049	-0.710626	0.846731
H126	H	0.817584	-0.759225	0.908831
H127	H	0.795527	-0.677236	0.859720
H128	H	0.853784	-0.683254	0.966151
H129	H	0.930273	-0.734681	0.780184
H130	H	0.988531	-0.740715	0.886607
O131	O	1.385816	-0.480123	1.114744
C132	C	1.281106	-0.462864	1.087919
H133	H	1.275824	-0.399725	1.057777
H134	H	1.253600	-0.505255	1.024216
C135	C	1.217502	-0.549588	1.222406
C136	C	1.211014	-0.472036	1.185394
H137	H	1.174264	-0.555249	1.282531
H138	H	1.288047	-0.561218	1.240477
H139	H	1.194582	-0.584905	1.169312
H140	H	1.233946	-0.436722	1.238483
H141	H	1.140471	-0.460400	1.167334
H142	H	1.118456	-0.573776	0.761982
O143	O	1.385820	-1.085438	0.638502
C144	C	1.281108	-1.065351	0.615431
H145	H	1.278921	-1.005439	0.575026
H146	H	1.245772	-1.111860	0.561398
C147	C	1.220100	-1.135102	0.767426
C148	C	1.217413	-1.061513	0.717808
H149	H	1.180807	-1.132737	0.830575
H150	H	1.290645	-1.148637	0.782967
H151	H	1.190655	-1.173851	0.722388
H152	H	1.246869	-1.022767	0.762840
H153	H	1.146871	-1.047970	0.702276
H154	H	1.396332	-0.681629	0.627958
H155	H	1.217954	-0.481953	0.640287
O156	O	1.718222	-0.799068	0.306651
C157	C	1.777564	-0.853196	0.247387
H158	H	1.781199	-0.912020	0.290427
H159	H	1.739142	-0.862029	0.167559
C160	C	1.884913	-0.748683	0.179484
C161	C	1.889385	-0.820929	0.232350
H162	H	1.953888	-0.728779	0.170203
H163	H	1.844931	-0.712215	0.219408
H164	H	1.852890	-0.756053	0.112966
H165	H	1.921396	-0.813556	0.298871
H166	H	1.929375	-0.857396	0.192437
H167	H	1.640447	-1.079026	0.384408
H168	H	1.652875	-0.279547	0.807650
O169	O	0.910804	-0.281011	0.373787
C170	C	0.937557	-0.298205	0.269035
H171	H	1.017215	-0.328578	0.266789
H172	H	0.875783	-0.338822	0.233559
C173	C	0.844785	-0.183789	0.208325
C174	C	0.942627	-0.221087	0.205565
H175	H	0.847908	-0.136220	0.169171
H176	H	0.826758	-0.172206	0.278897
H177	H	0.793317	-0.217644	0.178763
H178	H	0.994090	-0.187236	0.235138
H179	H	0.960663	-0.232663	0.134996
