data_functionalizedCrystal
_audit_creation_method	'MofGen! by Chris Wilmer'
_symmetry_space_group_name_H-M	'P1'
_symmetry_Int_Tables_number	1
_symmetry_cell_setting	triclinic
loop_
_symmetry_equiv_pos_as_xyz
  x,y,z
_cell_length_a	12.759401
_cell_length_b	12.759400
_cell_length_c	12.759393
_cell_angle_alpha	90.031564
_cell_angle_beta	90.020120
_cell_angle_gamma	90.010654
loop_
_atom_site_label
_atom_site_type_symbol
_atom_site_fract_x
_atom_site_fract_y
_atom_site_fract_z
Zn1	Zn	-1.606255	0.418317	-0.594027
Zn2	Zn	-1.606150	0.594036	-0.418347
Zn3	Zn	-1.430557	0.418359	-0.418361
Zn4	Zn	-1.430546	0.593942	-0.593983
O5	O	-1.518377	0.506164	-0.506180
O6	O	-1.753262	0.441648	-0.570735
O7	O	-1.582818	0.570789	-0.271328
O8	O	-1.453913	0.271333	-0.441688
O9	O	-1.753185	0.570748	-0.441663
O10	O	-1.582998	0.271302	-0.570749
O11	O	-1.453811	0.441720	-0.271338
O12	O	-1.283535	0.441629	-0.441646
O13	O	-1.453894	0.570589	-0.741010
O14	O	-1.283527	0.570629	-0.570675
O15	O	-1.582987	0.441557	-0.741042
O16	O	-1.582807	0.741045	-0.441621
O17	O	-1.453791	0.740976	-0.570661
C18	C	-1.245410	0.506125	-0.506158
C19	C	-1.128633	0.506133	-0.506173
C20	C	-1.073805	0.439035	-0.573483
C21	C	-0.964081	0.439049	-0.573487
C22	C	-0.964023	0.573269	-0.438867
C23	C	-1.073745	0.573249	-0.438859
C24	C	-1.073837	0.361547	-0.651208
C25	C	-0.964113	0.361561	-0.651212
C26	C	-1.518315	0.779131	-0.506158
C27	C	-1.518384	0.895908	-0.506183
C28	C	-1.518451	0.506058	-0.780213
C29	C	-1.518482	0.506013	-0.896990
C30	C	-0.792410	0.506191	-0.506195
C31	C	-0.909187	0.506168	-0.506185
C32	C	-1.518468	0.232131	-0.506225
C33	C	-1.518507	0.115354	-0.506244
C34	C	-1.585637	0.950771	-0.439067
C35	C	-1.585702	1.060495	-0.439099
C36	C	-1.451252	1.060483	-0.573368
C37	C	-1.451193	0.950761	-0.573340
C38	C	-1.663258	0.950778	-0.361545
C39	C	-1.663322	1.060502	-0.361577
C40	C	-1.585710	0.438820	-0.951870
C41	C	-1.585735	0.438782	-1.061594
C42	C	-1.451301	0.573139	-1.061548
C43	C	-1.451272	0.573171	-0.951826
C44	C	-1.663328	0.361253	-0.951898
C45	C	-1.663353	0.361215	-1.061622
C46	C	-1.518364	0.506194	-0.233212
C47	C	-1.518537	0.505943	-0.116436
H48	H	-0.930071	0.284232	-0.622211
O49	O	-0.904816	0.645652	-0.366269
H50	H	-0.961379	0.692301	-0.319456
H51	H	-1.396440	0.906093	-0.628001
H52	H	-1.396525	0.627882	-0.907146
H53	H	-1.634239	0.283904	-1.095669
O54	O	-1.378779	1.119658	-0.645785
H55	H	-1.396747	1.098527	-0.728254
O56	O	-0.924696	0.390573	-0.758938
H57	H	-0.992416	0.404776	-0.811673
O58	O	-1.770998	0.911220	-0.390496
H59	H	-1.823791	0.978870	-0.404703
H60	H	-1.103604	0.280145	-0.629555
O61	O	-1.634497	0.253478	-0.912474
H62	H	-1.562342	0.258719	-0.864138
O63	O	-1.118970	0.400253	-0.753522
H64	H	-1.092069	0.481702	-0.767976
H65	H	-1.634133	0.916829	-0.284218
H66	H	-1.740626	1.094453	-0.390791
H67	H	-1.396579	0.627814	-1.106209
O68	O	-1.634520	1.100072	-0.253789
H69	H	-1.620357	1.032428	-0.200995
O70	O	-1.765684	0.399877	-0.906800
H71	H	-1.819975	0.420325	-0.971625
H72	H	-1.744723	0.383013	-1.091402
H73	H	-1.118383	0.627877	-0.384039
