data_functionalizedCrystal
_audit_creation_method	'MofGen! by Chris Wilmer'
_symmetry_space_group_name_H-M	'P1'
_symmetry_Int_Tables_number	1
_symmetry_cell_setting	triclinic
loop_
_symmetry_equiv_pos_as_xyz
  x,y,z
_cell_length_a	15.944551
_cell_length_b	18.266242
_cell_length_c	15.944551
_cell_angle_alpha	89.993922
_cell_angle_beta	96.501262
_cell_angle_gamma	90.004451
loop_
_atom_site_label
_atom_site_type_symbol
_atom_site_fract_x
_atom_site_fract_y
_atom_site_fract_z
O1	O	1.114530	0.060806	-0.108332
O2	O	0.869980	0.060825	-0.121688
O3	O	0.998933	0.060808	0.007265
O4	O	0.985577	0.060822	-0.237285
O5	O	0.998911	-0.060954	0.007268
O6	O	0.869958	-0.060937	-0.121684
O7	O	1.114508	-0.060956	-0.108328
Zn8	Zn	0.992229	-0.080279	-0.115006
Zn9	Zn	0.992258	0.080148	-0.115011
O10	O	0.985555	-0.060940	-0.237281
C11	C	0.838675	-0.000054	-0.121132
C12	C	0.745429	-0.000047	-0.119470
N13	N	0.992216	-0.189766	-0.115002
C14	C	0.530572	-0.000066	-0.035565
C15	C	0.469563	0.059971	-0.074529
C16	C	0.574703	-0.000056	-0.116462
C17	C	0.469564	-0.060077	-0.074545
C18	C	0.409790	-0.000068	-0.113551
C19	C	0.514922	0.060031	-0.155449
C20	C	0.514929	-0.060071	-0.155453
C21	C	0.453937	-0.000019	-0.194476
C22	C	0.669705	-0.000049	-0.118137
C23	C	0.314789	-0.000070	-0.111883
C24	C	1.043153	-0.228070	-0.165983
C25	C	1.043167	-0.304714	-0.165981
C26	C	0.992228	-0.343053	-0.115007
C27	C	0.941287	-0.304740	-0.064015
C28	C	0.941281	-0.228096	-0.064013
N29	N	0.918658	-0.463400	-0.112709
N30	N	0.918666	-0.536208	-0.112716
C31	C	0.992245	-0.573975	-0.115010
N32	N	1.065816	-0.536184	-0.117313
N33	N	1.065807	-0.463369	-0.117310
C34	C	0.992229	-0.426160	-0.115004
C35	C	1.043202	-0.695386	-0.165992
C36	C	1.043217	-0.772032	-0.165983
C37	C	0.941329	-0.772056	-0.064023
C38	C	0.941321	-0.695411	-0.064026
C39	C	0.992256	-0.657081	-0.115015
C40	C	1.145813	-0.000075	-0.108885
C41	C	1.239059	-0.000078	-0.110547
C42	C	0.998367	-0.000073	0.038561
C43	C	0.996705	-0.000073	0.131807
N44	N	0.992279	0.189635	-0.115008
C45	C	0.986120	-0.000057	-0.268577
C46	C	0.987782	-0.000052	-0.361823
C47	C	0.912801	-0.000057	0.346663
C48	C	0.951752	-0.060096	0.407682
C49	C	0.993698	-0.000067	0.302533
C50	C	0.951793	0.059952	0.407662
C51	C	0.990787	-0.000058	0.467445
C52	C	1.032672	-0.060156	0.362323
C53	C	1.032701	0.059946	0.362297
C54	C	1.071711	-0.000108	0.423298
C55	C	0.995372	-0.000073	0.207530
C56	C	0.989119	-0.000058	0.562446
H57	H	0.563905	0.000004	0.031573
N58	N	0.539987	0.123787	-0.198330
N59	N	0.485753	0.169191	-0.227634
H60	H	0.503456	0.214220	-0.257916
H61	H	1.066897	0.110702	0.342165
H62	H	0.917575	0.110714	0.427738
N63	N	0.908824	-0.123769	0.432906
N64	N	0.878896	-0.168955	0.378708
H65	H	0.848573	-0.213923	0.396518
N66	N	0.889238	-0.343898	-0.011962
N67	N	0.810963	-0.335346	-0.021971
H68	H	0.774203	-0.363002	0.014794
N69	N	0.444359	0.123643	-0.031604
N70	N	0.472130	0.134339	0.043888
H71	H	0.454336	0.179306	0.074208
N72	N	1.075535	-0.123905	0.337240
N73	N	1.037712	-0.168609	0.287018
H74	H	1.067980	-0.213633	0.269300
N75	N	0.412346	0.000032	-0.278788
N76	N	0.424065	0.051628	-0.327631
H77	H	0.394691	0.051667	-0.387177
N78	N	1.156024	-0.000159	0.464889
N79	N	1.204857	-0.051755	0.453177
H80	H	1.264403	-0.051795	0.482550
N81	N	0.540168	-0.123748	-0.198335
N82	N	0.525883	-0.186041	-0.170761
H83	H	0.543709	-0.231020	-0.201041
H84	H	0.449468	-0.110832	-0.040312
H85	H	1.084632	-0.196866	-0.207499
N86	N	1.095209	-0.343840	-0.218062
N87	N	1.140683	-0.309608	-0.263580
H88	H	1.177437	-0.337238	-0.300363
H89	H	0.899799	-0.196910	-0.022497
N90	N	1.095253	-0.656238	-0.218058
N91	N	1.140750	-0.690451	-0.263556
H92	H	1.177519	-0.662806	-0.300322
H93	H	1.084703	-0.803218	-0.207496
N94	N	0.889305	-0.811219	-0.011953
N95	N	0.889317	-0.879650	-0.011960
H96	H	0.852575	-0.907314	0.024817
H97	H	0.899839	-0.664224	-0.022515
H98	H	0.845652	-0.000112	0.313356
