data_functionalizedCrystal
_audit_creation_method	'MofGen! by Chris Wilmer'
_symmetry_space_group_name_H-M	'P1'
_symmetry_Int_Tables_number	1
_symmetry_cell_setting	triclinic
loop_
_symmetry_equiv_pos_as_xyz
  x,y,z
_cell_length_a	13.032831
_cell_length_b	16.625546
_cell_length_c	13.032268
_cell_angle_alpha	97.144614
_cell_angle_beta	90.886977
_cell_angle_gamma	82.826778
loop_
_atom_site_label
_atom_site_type_symbol
_atom_site_fract_x
_atom_site_fract_y
_atom_site_fract_z
Zn1	Zn	1.498429	-0.544521	-0.780776
Zn2	Zn	1.998429	-0.044521	-0.280776
Zn3	Zn	1.520160	-0.664651	-0.608784
Zn4	Zn	2.020160	-0.164651	-0.108784
Zn5	Zn	1.348291	-0.510838	-0.587021
Zn6	Zn	1.848291	-0.010838	-0.087021
Zn7	Zn	1.326409	-0.660292	-0.758909
Zn8	Zn	1.826409	-0.160292	-0.258909
O9	O	1.423322	-0.595075	-0.683873
O10	O	1.923322	-0.095075	-0.183873
O11	O	1.645231	-0.576377	-0.776220
O12	O	2.145231	-0.076377	-0.276220
O13	O	1.515614	-0.631976	-0.461981
O14	O	2.015614	-0.131976	0.038019
O15	O	1.368270	-0.402484	-0.612767
O16	O	1.868270	0.097516	-0.112767
O17	O	1.661197	-0.664636	-0.649858
O18	O	2.161197	-0.164636	-0.149858
O19	O	1.478576	-0.427231	-0.755118
O20	O	1.978576	0.072769	-0.255118
O21	O	1.389342	-0.518970	-0.445992
O22	O	1.889342	-0.018970	0.054008
O23	O	1.201469	-0.514743	-0.591563
O24	O	1.701469	-0.014743	-0.091563
O25	O	1.330976	-0.657206	-0.905725
O26	O	1.830976	-0.157206	-0.405725
O27	O	1.185392	-0.624546	-0.717849
O28	O	1.685392	-0.124546	-0.217849
O29	O	1.457358	-0.572150	-0.921791
O30	O	1.957358	-0.072150	-0.421791
O31	O	1.494396	-0.776895	-0.628654
O32	O	1.994396	-0.276895	-0.128654
O33	O	1.352048	-0.773692	-0.738951
O34	O	1.852048	-0.273692	-0.238951
C35	C	1.156114	-0.565517	-0.649972
C36	C	1.656114	-0.065517	-0.149972
C37	C	1.041798	-0.552893	-0.635494
C38	C	1.541798	-0.052893	-0.135494
C39	C	1.423230	-0.804552	-0.683817
C40	C	1.923230	-0.304552	-0.183817
C41	C	1.423281	-0.894180	-0.683840
C42	C	1.923281	-0.394180	-0.183840
C43	C	0.982917	-0.601664	-0.691429
C44	C	1.482917	-0.101664	-0.191429
C45	C	0.864766	-0.588618	-0.676466
C46	C	1.364766	-0.088618	-0.176466
C47	C	1.423447	-1.222385	-0.683970
C48	C	1.923447	-0.722385	-0.183970
C49	C	1.423397	-1.131068	-0.683936
C50	C	1.923397	-0.631068	-0.183936
C51	C	1.423363	-1.058285	-0.683904
C52	C	1.923363	-0.558285	-0.183904
C53	C	1.423315	-0.966963	-0.683872
C54	C	1.923315	-0.466963	-0.183872
C55	C	1.691574	-0.624750	-0.717906
C56	C	2.191574	-0.124750	-0.217906
C57	C	1.805887	-0.637396	-0.732409
C58	C	2.305887	-0.137396	-0.232409
C59	C	1.389302	-0.617949	-0.952117
C60	C	1.889302	-0.117949	-0.452117
C61	C	1.374805	-0.627696	-1.066427
C62	C	1.874805	-0.127696	-0.566427
C63	C	1.423440	-0.384786	-0.683954
C64	C	1.923440	0.115214	-0.183954
C65	C	1.423490	-0.295173	-0.683989
C66	C	1.923490	0.204827	-0.183989
C67	C	1.430873	-0.589958	-1.125339
C68	C	1.930873	-0.089958	-0.625339
C69	C	1.415890	-0.600031	-1.243485
C70	C	1.915890	-0.100031	-0.743485
C71	C	1.457270	-0.572239	-0.416679
C72	C	1.957270	-0.072239	0.083321
C73	C	1.471966	-0.562287	-0.302395
C74	C	1.971966	-0.062287	0.197605
H75	H	1.019978	-0.653074	-0.750398
H76	H	1.519978	-0.153074	-0.250398
H77	H	1.356786	-0.639795	-1.280509
H78	H	1.856786	-0.139795	-0.780509
C79	C	0.814715	-0.519156	-0.596800
C80	C	1.314715	-0.019156	-0.096800
C81	C	0.844187	-0.517227	-0.481713
C82	C	1.344187	-0.017227	0.018287
C83	C	0.794135	-0.447767	-0.402049
C84	C	1.294135	0.052233	0.097951
C85	C	0.714611	-0.380235	-0.437472
C86	C	1.214611	0.119765	0.062528
C87	C	0.685134	-0.382160	-0.552565
C88	C	1.185134	0.117840	-0.052565
C89	C	0.735187	-0.451621	-0.632229
C90	C	1.235187	0.048379	-0.132229
H91	H	0.903059	-0.567221	-0.455485
H92	H	1.403059	-0.067221	0.044515
H93	H	0.815955	-0.446342	-0.316849
H94	H	1.315955	0.053658	0.183151
H95	H	0.677559	-0.328816	-0.378499
H96	H	1.177559	0.171184	0.121501
H97	H	0.626262	-0.332167	-0.578792
H98	H	1.126262	0.167833	-0.078792
H99	H	0.713366	-0.453046	-0.717428
H100	H	1.213366	0.046954	-0.217428
C101	C	1.551805	-0.508557	-1.252391
C102	C	2.051805	-0.008557	-0.752391
C103	C	1.516577	-0.434074	-1.172885
C104	C	2.016577	0.065926	-0.672885
C105	C	1.596414	-0.380344	-1.122882
C106	C	2.096414	0.119656	-0.622882
C107	C	1.711479	-0.401096	-1.152385
C108	C	2.211479	0.098904	-0.652385
C109	C	1.746713	-0.475582	-1.231895
C110	C	2.246713	0.024418	-0.731895
C111	C	1.666876	-0.529312	-1.281898
C112	C	2.166876	-0.029312	-0.781898
H113	H	1.431394	-0.418709	-1.151041
H114	H	1.931394	0.081291	-0.651041
H115	H	1.570331	-0.325204	-1.064023
H116	H	2.070331	0.174796	-0.564023
H117	H	1.770579	-0.361322	-1.115370
H118	H	2.270579	0.138678	-0.615370
H119	H	1.831896	-0.490948	-1.253739
H120	H	2.331896	0.009052	-0.753739
H121	H	1.692959	-0.584452	-1.340757
H122	H	2.192959	-0.084452	-0.840757
C123	C	1.294969	-0.681421	-1.116440
C124	C	1.794969	-0.181421	-0.616440
C125	C	1.179903	-0.660667	-1.086940
C126	C	1.679903	-0.160667	-0.586940
C127	C	1.100065	-0.714394	-1.136950
C128	C	1.600065	-0.214394	-0.636950
C129	C	1.135293	-0.788874	-1.216459
C130	C	1.635293	-0.288874	-0.716459
C131	C	1.250365	-0.809632	-1.245963
C132	C	1.750365	-0.309632	-0.745963
C133	C	1.330203	-0.755905	-1.195953
C134	C	1.830203	-0.255905	-0.695953
H135	H	1.153820	-0.605529	-1.028079
H136	H	1.653820	-0.105529	-0.528079
H137	H	1.014881	-0.699027	-1.115108
H138	H	1.514881	-0.199027	-0.615108
H139	H	1.076193	-0.828646	-1.253479
H140	H	1.576193	-0.328646	-0.753479
H141	H	1.276448	-0.864770	-1.304824
H142	H	1.776448	-0.364770	-0.804824
H143	H	1.415386	-0.771272	-1.217795
H144	H	1.915386	-0.271272	-0.717795
C145	C	0.855934	-0.706860	-0.812075
C146	C	1.355934	-0.206860	-0.312075
C147	C	0.935455	-0.774394	-0.776652
C148	C	1.435455	-0.274394	-0.276652
C149	C	0.985501	-0.843858	-0.856316
C150	C	1.485501	-0.343858	-0.356316
C151	C	0.956025	-0.845787	-0.971403
C152	C	1.456025	-0.345787	-0.471403
C153	C	0.876500	-0.778250	-1.006831
C154	C	1.376500	-0.278250	-0.506831
C155	C	0.826454	-0.708786	-0.927167
C156	C	1.326454	-0.208786	-0.427167
H157	H	0.957278	-0.772968	-0.691453
H158	H	1.457278	-0.272968	-0.191453
H159	H	1.044371	-0.893853	-0.830089
H160	H	1.544371	-0.393853	-0.330089
H161	H	0.993072	-0.897208	-1.030375
H162	H	1.493072	-0.397208	-0.530375
H163	H	0.854676	-0.779676	-1.092030
H164	H	1.354676	-0.279676	-0.592030
H165	H	0.767584	-0.658791	-0.953394
H166	H	1.267584	-0.158791	-0.453394
H167	H	1.489963	-0.550187	-1.088309
H168	H	1.989963	-0.050187	-0.588309
H169	H	1.004736	-0.501477	-0.576533
H170	H	1.504736	-0.001477	-0.076533
