data_functionalizedCrystal
_audit_creation_method	'MofGen! by Chris Wilmer'
_symmetry_space_group_name_H-M	'P1'
_symmetry_Int_Tables_number	1
_symmetry_cell_setting	triclinic
loop_
_symmetry_equiv_pos_as_xyz
  x,y,z
_cell_length_a	12.759401
_cell_length_b	12.759394
_cell_length_c	12.759393
_cell_angle_alpha	90.029526
_cell_angle_beta	90.019676
_cell_angle_gamma	90.014282
loop_
_atom_site_label
_atom_site_type_symbol
_atom_site_fract_x
_atom_site_fract_y
_atom_site_fract_z
Zn1	Zn	1.606273	-0.418204	0.593992
Zn2	Zn	1.606166	-0.593919	0.418315
Zn3	Zn	1.430571	-0.418256	0.418331
Zn4	Zn	1.430566	-0.593843	0.593956
O5	O	1.518394	-0.506055	0.506148
O6	O	1.753279	-0.441523	0.570696
O7	O	1.582831	-0.570671	0.271296
O8	O	1.453925	-0.271228	0.441654
O9	O	1.753201	-0.570620	0.441627
O10	O	1.583012	-0.271190	0.570712
O11	O	1.453822	-0.441612	0.271308
O12	O	1.283549	-0.441538	0.441620
O13	O	1.453916	-0.570490	0.740982
O14	O	1.283545	-0.570541	0.570651
O15	O	1.583007	-0.441448	0.741008
O16	O	1.582826	-0.740930	0.441592
O17	O	1.453813	-0.740874	0.570635
C18	C	1.245427	-0.506037	0.506134
C19	C	1.128650	-0.506055	0.506152
C20	C	1.073829	-0.438955	0.573462
C21	C	0.964105	-0.438966	0.573469
C22	C	0.964032	-0.573185	0.438853
C23	C	1.073754	-0.573168	0.438842
C24	C	1.518336	-0.779023	0.506131
C25	C	1.518407	-0.895800	0.506159
C26	C	1.652724	-0.895601	0.640647
C27	C	1.719916	-0.950363	0.707899
C28	C	1.719979	-1.060084	0.707922
C29	C	1.652840	-1.115047	0.640687
C30	C	1.585648	-1.060285	0.573435
C31	C	1.585595	-0.950561	0.573418
C32	C	1.451326	-1.060484	0.438954
C33	C	1.451268	-0.950762	0.438924
C34	C	1.384187	-1.115446	0.371720
C35	C	1.316999	-1.060685	0.304461
C36	C	1.316940	-0.950956	0.304440
C37	C	1.384076	-0.896001	0.371672
C38	C	1.792427	-0.506074	0.506164
C39	C	1.909204	-0.506082	0.506171
C40	C	1.518473	-0.505955	0.780182
C41	C	1.518506	-0.505912	0.896959
C42	C	1.518481	-0.232022	0.506189
C43	C	1.518518	-0.115245	0.506206
C44	C	1.518376	-0.506080	0.233181
C45	C	1.518546	-0.505827	0.116405
C46	C	1.585729	-0.438709	0.951836
C47	C	1.585746	-0.438664	1.061560
C48	C	1.451316	-0.573033	1.061520
C49	C	1.451294	-0.573072	0.951798
H50	H	1.118522	-0.384304	0.628267
Cl51	Cl	1.670220	-0.354275	0.882899
Cl52	Cl	0.895013	-0.657555	0.354243
Cl53	Cl	1.670268	-0.354186	1.130544
H54	H	1.396545	-0.627795	0.907115
H55	H	1.118390	-0.627810	0.384024
H56	H	1.652888	-1.204388	0.640721
H57	H	1.652690	-0.806260	0.640625
Cl58	Cl	0.895192	-0.354607	0.658090
H59	H	1.774578	-0.905603	0.762643
Cl60	Cl	1.804446	-1.128931	0.792470
Cl61	Cl	1.384410	-1.253383	0.371604
H62	H	1.262335	-1.105444	0.249729
H63	H	1.262221	-0.906375	0.249679
H64	H	1.384039	-0.806659	0.371658
Cl65	Cl	1.366831	-0.657463	1.130468
