data_functionalizedCrystal
_audit_creation_method	'MofGen! by Chris Wilmer'
_symmetry_space_group_name_H-M	'P1'
_symmetry_Int_Tables_number	1
_symmetry_cell_setting	triclinic
loop_
_symmetry_equiv_pos_as_xyz
  x,y,z
_cell_length_a	6.817900
_cell_length_b	23.448941
_cell_length_c	16.418042
_cell_angle_alpha	86.199957
_cell_angle_beta	76.610432
_cell_angle_gamma	106.104531
loop_
_atom_site_label
_atom_site_type_symbol
_atom_site_fract_x
_atom_site_fract_y
_atom_site_fract_z
V1	V	-4.037639	-0.082434	0.259480
O2	O	-4.012586	0.003466	0.256253
O3	O	-4.000968	-0.162976	0.256058
O4	O	-3.988560	-0.081383	0.373399
O5	O	-4.025081	-0.078692	0.138099
V6	V	-4.519835	-0.072134	0.245162
O7	O	-4.301808	-0.105029	0.290888
O8	O	-4.705864	-0.049539	0.213754
O9	O	-4.333300	0.008409	0.248583
O10	O	-4.662285	-0.158034	0.248389
O11	O	-4.649790	-0.075876	0.366542
O12	O	-4.345708	-0.073184	0.131242
C13	C	-3.848844	-0.182604	0.251540
C14	C	-3.900144	-0.248450	0.249502
C15	C	-3.833015	-0.078523	0.401219
C16	C	-3.874248	-0.078197	0.494338
C17	C	-4.025311	-0.453224	0.166411
C18	C	-3.977082	-0.391353	0.168312
C19	C	-4.059353	-0.408538	0.321380
C20	C	-4.107566	-0.470408	0.319477
C21	C	-4.090552	-0.492749	0.241990
C22	C	-3.994111	-0.369008	0.245795
C23	C	-3.941819	-0.301925	0.247857
C24	C	-4.142843	-0.559836	0.239927
C25	C	-4.148780	0.028033	0.253100
C26	C	-4.075374	0.095115	0.255194
V27	V	-4.215530	0.204253	0.250938
O28	O	-4.159082	0.291660	0.245671
O29	O	-4.210818	0.120355	0.252073
O30	O	-4.197767	0.201924	0.369448
O31	O	-4.172223	0.209527	0.127484
V32	V	-4.657220	0.231395	0.213681
O33	O	-4.477896	0.189526	0.271621
O34	O	-4.814177	0.261384	0.172208
O35	O	-4.454033	0.307725	0.222853
O36	O	-4.823014	0.147967	0.213527
O37	O	-4.809873	0.230100	0.331714
O38	O	-4.467084	0.226157	0.105478
C39	C	-4.164595	-0.076046	0.103418
C40	C	-4.102600	-0.076369	0.010299
C41	C	-4.275897	0.321553	0.235269
C42	C	-4.184520	0.386693	0.238283
C43	C	-4.058736	0.199162	0.404923
C44	C	-4.120189	0.199470	0.498057
C45	C	-4.151592	-0.080401	0.712779
C46	C	-4.190315	-0.080089	0.800273
C47	C	-3.825238	-0.074164	0.791851
C48	C	-3.786514	-0.074471	0.704358
C49	C	-3.949701	-0.077593	0.664825
C50	C	-4.027148	-0.076974	0.839812
C51	C	-4.069132	-0.076636	0.934676
C52	C	-3.907714	-0.077929	0.569954
C53	C	-4.292545	0.217504	0.085545
C54	C	-4.211753	0.216496	-0.006631
C55	C	-4.321233	0.202697	0.537769
C56	C	-4.378991	0.202995	0.625276
C57	C	-4.235708	0.200061	0.673070
C58	C	-4.034645	0.196835	0.633352
C59	C	-3.976885	0.196542	0.545846
C60	C	-4.015573	0.207080	-0.037574
C61	C	-3.939626	0.206137	-0.124182
C62	C	-4.059868	0.214606	-0.179846
C63	C	-4.256062	0.224024	-0.148899
C64	C	-4.332000	0.224971	-0.062293
H65	H	-4.011448	-0.471411	0.103316
Cl66	Cl	-3.620113	-0.070248	0.841557
Cl67	Cl	-3.532686	-0.070939	0.644067
H68	H	-3.923956	-0.359173	0.106768
Cl69	Cl	-4.501397	0.206388	0.477702
H70	H	-4.354710	-0.082375	0.839314
H71	H	-3.813177	0.193911	0.513521
H72	H	-4.284470	-0.082941	0.680594
H73	H	-4.073202	-0.390341	0.384467
Cl74	Cl	-4.189537	-0.520099	0.414498
H75	H	-4.491752	0.232634	-0.037107
H76	H	-4.282768	0.200300	0.744323
Cl77	Cl	-4.631769	0.207045	0.675189
H78	H	-3.917999	0.194446	0.672280
H79	H	-4.353944	0.230920	-0.194233
H80	H	-3.917635	0.200185	0.007738
H81	H	-3.779872	0.198468	-0.149365
H82	H	-3.997946	0.213874	-0.250372
