data_functionalizedCrystal
_audit_creation_method	'MofGen! by Chris Wilmer'
_symmetry_space_group_name_H-M	'P1'
_symmetry_Int_Tables_number	1
_symmetry_cell_setting	triclinic
loop_
_symmetry_equiv_pos_as_xyz
  x,y,z
_cell_length_a	16.992694
_cell_length_b	23.532407
_cell_length_c	15.455313
_cell_angle_alpha	92.643560
_cell_angle_beta	87.142206
_cell_angle_gamma	86.758451
loop_
_atom_site_label
_atom_site_type_symbol
_atom_site_fract_x
_atom_site_fract_y
_atom_site_fract_z
O1	O	1.042902	0.118384	-0.072037
O2	O	0.814628	0.117059	-0.072062
O3	O	0.935648	0.035132	-0.072033
O4	O	0.921882	0.200311	-0.072066
O5	O	0.928727	0.039796	0.072228
O6	O	0.807707	0.121723	0.072198
O7	O	1.035981	0.123049	0.072224
Cu8	Cu	0.921212	0.122812	0.085383
Cu9	Cu	0.929397	0.117296	-0.085222
O10	O	0.914962	0.204976	0.072194
C11	C	0.781968	0.117688	0.000065
C12	C	0.694964	0.112604	0.000056
C13	C	0.644342	0.161650	0.000047
C14	C	0.562592	0.156871	0.000060
C15	C	0.531466	0.103045	0.000076
C16	C	0.582095	0.053995	0.000088
C17	C	0.663843	0.058775	0.000081
C18	C	0.288022	0.083234	0.000103
C19	C	0.206267	0.078457	0.000107
C20	C	0.186770	0.181334	0.000081
C21	C	0.268521	0.186109	0.000069
C22	C	0.319142	0.137059	0.000085
N23	N	0.447905	0.098158	0.000086
N24	N	0.402701	0.141946	0.000081
C25	C	0.931837	0.016231	0.000100
C26	C	0.930782	-0.047038	0.000106
C27	C	0.995791	-0.442917	0.000066
C28	C	0.994812	-0.502366	0.000059
O29	O	1.055075	-0.536121	0.000034
N30	N	0.922865	-0.528562	0.000052
C31	C	0.851893	-0.495307	0.000042
O32	O	0.790607	-0.523048	0.000035
C33	C	0.852873	-0.435859	0.000043
C34	C	0.924824	-0.409666	0.000059
C35	C	1.067736	-0.416723	0.000081
C36	C	1.068714	-0.357278	0.000089
C37	C	0.997748	-0.324027	0.000083
C38	C	0.925803	-0.350221	0.000067
C39	C	0.781902	-0.402605	0.000027
C40	C	0.782889	-0.343154	0.000027
C41	C	0.854839	-0.316960	0.000043
C42	C	0.855814	-0.257525	0.000069
N43	N	0.927761	-0.231328	0.000076
C44	C	0.998728	-0.264579	0.000083
C45	C	0.849841	-0.620151	0.000040
C46	C	0.848860	-0.679598	0.000046
C47	C	0.991779	-0.686653	0.000061
C48	C	0.992759	-0.627205	0.000061
C49	C	0.921788	-0.593955	0.000047
C50	C	1.000777	-0.139740	0.000101
C51	C	1.001749	-0.080289	0.000113
C52	C	0.858831	-0.073240	0.000093
C53	C	0.857858	-0.132685	0.000086
C54	C	0.928838	-0.165934	0.000087
O55	O	0.795583	-0.223733	0.000090
O56	O	1.060004	-0.236831	0.000079
C57	C	1.068641	0.122420	0.000095
C58	C	1.155645	0.127504	0.000098
C59	C	0.918772	0.223877	0.000060
C60	C	0.919827	0.287146	0.000048
N61	N	0.915462	0.126692	0.205377
N62	N	0.935153	0.113412	-0.205216
C63	C	0.966893	0.091901	0.250784
C64	C	0.962551	0.094840	0.341591
C65	C	0.906782	0.132574	0.386989
C66	C	0.855345	0.167366	0.341576
C67	C	0.859684	0.164424	0.250771
C68	C	0.888055	0.145261	0.658566
C69	C	0.883722	0.148203	0.749378
C70	C	0.990928	0.075676	0.749386
C71	C	0.995265	0.072738	0.658579
C72	C	0.943825	0.107529	0.613174
N73	N	0.902344	0.135581	0.479808
N74	N	0.948260	0.104518	0.520356
H75	H	0.521379	0.196809	0.000051
C76	C	1.146802	-0.328806	0.000272
C77	C	1.148002	-0.292501	0.074501
C78	C	1.219931	-0.266273	0.074699
H79	H	1.152642	-0.307341	-0.049977
H80	H	1.188943	-0.357111	0.000318
H81	H	1.105873	-0.264200	0.074446
H82	H	1.142176	-0.313953	0.124761
H83	H	1.262072	-0.294578	0.074745
H84	H	1.225764	-0.244811	0.024447
H85	H	1.220758	-0.241642	0.125066
C86	C	1.018498	0.057048	0.390733
C87	C	1.068287	0.023389	0.331539
C88	C	1.119847	-0.011425	0.376776
H89	H	0.988900	0.033148	0.426175
H90	H	1.049310	0.080168	0.426121
H91	H	1.037479	0.000271	0.296166
H92	H	1.097903	0.047275	0.296094
H93	H	1.150659	0.011695	0.412164
H94	H	1.090243	-0.035322	0.412217
H95	H	1.153641	-0.034263	0.336620
H96	H	0.799269	-0.154012	0.000097
H97	H	0.669678	0.205481	0.000033
H98	H	0.809932	0.198088	0.378545
H99	H	0.838305	0.178933	0.786337
H100	H	0.293858	0.229939	0.000046
C101	C	1.144875	-0.452718	0.000137
C102	C	1.208080	-0.417042	0.000172
C103	C	1.279157	-0.450175	0.000243
H104	H	1.150001	-0.477687	-0.050153
H105	H	1.145095	-0.474420	0.050467
H106	H	1.207862	-0.395350	-0.050153
H107	H	1.202981	-0.392073	0.050459
H108	H	1.279376	-0.471876	0.050573
H109	H	1.284274	-0.475142	-0.050048
H110	H	1.322049	-0.425973	0.000275
H111	H	0.145546	0.221267	0.000069
C112	C	0.832300	0.183137	0.609328
C113	C	0.843538	0.240378	0.631384
C114	C	0.792195	0.275289	0.586033
H115	H	0.779296	0.175109	0.624189
H116	H	0.842865	0.176023	0.548736
H117	H	0.832966	0.247489	0.691963
H118	H	0.896531	0.248423	0.616521
H119	H	0.802761	0.268175	0.525441
H120	H	0.739194	0.267256	0.600897
H121	H	0.799818	0.314130	0.600986
C122	C	1.055841	0.031710	0.609448
C123	C	1.099940	0.001859	0.668650
C124	C	1.155745	-0.035945	0.623423
H125	H	1.090074	0.052477	0.574009
H126	H	1.029543	0.005539	0.574057
H127	H	1.126237	0.028027	0.704027
H128	H	1.065729	-0.018920	0.704091
H129	H	1.129447	-0.062116	0.588032
H130	H	1.189973	-0.015173	0.587985
H131	H	1.185669	-0.056207	0.663584
H132	H	0.180928	0.034624	0.000119
C133	C	0.803803	0.202266	0.201626
C134	C	0.754047	0.235953	0.260817
C135	C	0.702563	0.270825	0.215577
H136	H	0.772954	0.179203	0.166213
H137	H	0.833483	0.226143	0.166207
H138	H	0.724370	0.212079	0.296220
H139	H	0.784874	0.259029	0.296232
H140	H	0.732243	0.294702	0.180159
H141	H	0.671720	0.247757	0.180166
H142	H	0.668803	0.293690	0.255731
C143	C	1.077922	-0.175733	0.000151
C144	C	1.141129	-0.140059	0.000190
C145	C	1.212204	-0.173194	0.000253
H146	H	1.083044	-0.200698	-0.050143
H147	H	1.078142	-0.197438	0.050477
H148	H	1.140910	-0.118363	-0.050131
H149	H	1.136032	-0.115093	0.050480
H150	H	1.212424	-0.194899	0.050579
H151	H	1.217318	-0.198158	-0.050042
H152	H	1.255098	-0.148994	0.000287
C153	C	0.718680	0.005455	0.000042
C154	C	0.673927	-0.042708	0.000032
C155	C	0.724415	-0.091837	-0.000013
H156	H	0.748588	0.006727	0.050332
H157	H	0.753371	0.003523	-0.050288
H158	H	0.639250	-0.040775	0.050356
H159	H	0.644020	-0.043998	-0.050255
H160	H	0.759106	-0.093770	-0.050342
H161	H	0.754322	-0.090559	0.050279
H162	H	0.694059	-0.124522	-0.000027
H163	H	0.329228	0.043294	0.000117
H164	H	1.051348	-0.605882	0.000074
C165	C	0.548153	-0.004396	0.000062
C166	C	0.465728	0.001913	0.000041
C167	C	0.434437	-0.051866	0.000003
H168	H	0.563064	-0.023168	0.050359
H169	H	0.567921	-0.026382	-0.050261
H170	H	0.445967	0.023890	0.050358
H171	H	0.450795	0.020676	-0.050253
H172	H	0.454205	-0.073852	-0.050320
H173	H	0.449353	-0.070634	0.050301
H174	H	0.378509	-0.047593	-0.000020
H175	H	1.060342	-0.058966	0.000129
H176	H	1.049564	-0.713737	0.000063
H177	H	0.790269	-0.700919	0.000047
H178	H	0.723313	-0.423922	0.000009
C179	C	0.772693	-0.584150	0.000082
C180	C	0.709482	-0.619821	0.000099
C181	C	0.638403	-0.586681	0.000149
H182	H	0.772397	-0.562426	-0.050209
H183	H	0.767645	-0.559202	0.050411
H184	H	0.714528	-0.644760	-0.050224
H185	H	0.709752	-0.641546	0.050387
H186	H	0.633355	-0.561732	0.050477
H187	H	0.638115	-0.564958	-0.050144
H188	H	0.595505	-0.610878	0.000168
H189	H	0.725094	-0.316084	0.000014
H190	H	0.801051	-0.046156	0.000091
H191	H	1.012310	0.061176	0.213826
H192	H	1.032806	0.047350	0.786363
