data_functionalizedCrystal
_audit_creation_method	'MofGen! by Chris Wilmer'
_symmetry_space_group_name_H-M	'P1'
_symmetry_Int_Tables_number	1
_symmetry_cell_setting	triclinic
loop_
_symmetry_equiv_pos_as_xyz
  x,y,z
_cell_length_a	19.288835
_cell_length_b	11.026607
_cell_length_c	18.366186
_cell_angle_alpha	90.006559
_cell_angle_beta	89.992441
_cell_angle_gamma	84.145012
loop_
_atom_site_label
_atom_site_type_symbol
_atom_site_fract_x
_atom_site_fract_y
_atom_site_fract_z
O1	O	-0.940520	0.151106	0.060693
O2	O	-0.740850	0.171551	0.060664
O3	O	-0.824137	-0.015231	0.060673
O4	O	-0.857234	0.337888	0.060684
O5	O	-0.824137	-0.015249	-0.060426
O6	O	-0.740850	0.171533	-0.060436
O7	O	-0.940521	0.151088	-0.060406
Zn8	Zn	-0.840685	0.161308	-0.079648
Zn9	Zn	-0.840685	0.161332	0.079906
O10	O	-0.857234	0.337870	-0.060416
C11	C	-0.714891	0.170890	0.000110
C12	C	-0.637538	0.168934	0.000099
C13	C	-0.601215	0.168004	0.066111
C14	C	-0.528533	0.166152	0.066118
C15	C	-0.492175	0.165206	0.000109
C16	C	-0.528507	0.166143	-0.065912
C17	C	-0.601189	0.168007	-0.065917
C18	C	-0.373464	0.091216	-0.050457
C19	C	-0.300784	0.089345	-0.050449
C20	C	-0.268003	0.159462	0.000123
C21	C	-0.307909	0.231435	0.050699
C22	C	-0.380591	0.233299	0.050693
C23	C	-0.413365	0.163185	0.000108
C24	C	-0.152870	0.156526	0.066148
C25	C	-0.080187	0.154681	0.066152
C26	C	-0.080162	0.154660	-0.065880
C27	C	-0.152844	0.156516	-0.065882
C28	C	-0.189193	0.157443	0.000133
C29	C	-0.818031	-0.060416	0.000124
C30	C	-0.799829	-0.195027	0.000124
C31	C	-0.850087	-0.269117	0.000132
C32	C	-0.831276	-0.408245	0.000132
C33	C	0.033520	0.151757	0.000143
C34	C	-0.043834	0.153737	0.000143
C35	C	-0.863340	0.383056	0.000136
C36	C	-0.881541	0.517667	0.000141
N37	N	-0.840684	0.161339	0.188797
N38	N	-0.840691	0.161291	-0.188539
C39	C	-0.877668	0.078793	0.226902
C40	C	-0.877674	0.078790	0.303129
C41	C	-0.840682	0.161322	0.341250
C42	C	-0.803697	0.243884	0.303136
C43	C	-0.803698	0.243893	0.226909
C44	C	-0.779420	0.177300	0.462008
C45	C	-0.779418	0.177283	0.538233
C46	C	-0.840680	0.161304	0.576357
C47	C	-0.901946	0.145316	0.538247
C48	C	-0.901947	0.145324	0.462021
C49	C	-0.840678	0.161323	0.423904
C50	C	-0.877674	0.078750	0.697117
C51	C	-0.877682	0.078756	0.773346
C52	C	-0.803698	0.243845	0.773351
C53	C	-0.803697	0.243844	0.697123
C54	C	-0.840683	0.161291	0.659011
H55	H	-0.182418	0.157266	-0.119637
H56	H	-0.907793	0.011534	0.666084
C57	C	-0.918369	-0.012056	0.815261
N58	N	-0.949014	-0.080460	0.846832
H59	H	-0.742875	-0.234597	0.000120
C60	C	-0.409516	0.014073	-0.106091
N61	N	-0.436669	-0.044030	-0.147993
H62	H	-0.907041	-0.229548	0.000136
C63	C	-0.256894	0.010185	-0.106088
N64	N	-0.223838	-0.049434	-0.148001
C65	C	-0.754328	-0.461689	0.000120
N66	N	-0.696372	-0.501946	0.000108
H67	H	-0.498901	0.165375	-0.119657
H68	H	-0.773580	0.311113	0.195884
C69	C	-0.488569	0.165121	0.138740
N70	N	-0.458470	0.164340	0.193438
C71	C	-0.763005	0.334668	0.345069
N72	N	-0.732355	0.403051	0.376654
H73	H	-0.182467	0.157293	0.119901
C74	C	-0.641145	0.169020	-0.138539
N75	N	-0.671240	0.169779	-0.193239
H76	H	-0.938499	-0.442771	0.000204
H77	H	-0.907787	0.011576	0.195873
C78	C	-0.763007	0.334633	0.815279
N79	N	-0.732359	0.403019	0.846862
C80	C	-0.918356	-0.012027	0.345053
N81	N	-0.948996	-0.080434	0.376628
C82	C	-0.969328	0.127677	0.420103
N83	N	-1.020079	0.114364	0.388530
C84	C	-0.969344	0.127759	0.580178
N85	N	-1.020107	0.114541	0.611764
H86	H	-0.413080	0.291905	0.091872
C87	C	-0.763002	0.334641	0.655206
N88	N	-0.732349	0.403033	0.623635
C89	C	-0.712024	0.194868	0.580146
N90	N	-0.661262	0.208114	0.611714
H91	H	-0.729530	0.190318	0.430973
H92	H	-0.050614	0.153931	0.119909
C93	C	-0.641194	0.169021	0.138730
N94	N	-0.671308	0.169785	0.193428
C95	C	-0.271856	0.308578	0.106328
N96	N	-0.244697	0.366682	0.148226
H97	H	-0.050561	0.153897	-0.119625
