data_functionalizedCrystal
_audit_creation_method	'MofGen! by Chris Wilmer'
_symmetry_space_group_name_H-M	'P1'
_symmetry_Int_Tables_number	1
_symmetry_cell_setting	triclinic
loop_
_symmetry_equiv_pos_as_xyz
  x,y,z
_cell_length_a	10.540539
_cell_length_b	16.109301
_cell_length_c	15.186229
_cell_angle_alpha	90.005167
_cell_angle_beta	89.998698
_cell_angle_gamma	96.006514
loop_
_atom_site_label
_atom_site_type_symbol
_atom_site_fract_x
_atom_site_fract_y
_atom_site_fract_z
O1	O	1.684215	-0.117165	-0.073190
O2	O	2.184215	0.382835	0.426810
O3	O	1.314645	-0.128205	-0.073201
O4	O	1.814645	0.371795	0.426799
O5	O	1.509582	-0.001716	-0.073187
O6	O	2.009582	0.498284	0.426813
O7	O	1.489277	-0.243654	-0.073205
O8	O	1.989277	0.256346	0.426795
O9	O	1.509569	-0.001714	0.073271
O10	O	2.009569	0.498286	0.573271
O11	O	1.314632	-0.128203	0.073256
O12	O	1.814632	0.371797	0.573256
O13	O	1.684202	-0.117163	0.073267
O14	O	2.184202	0.382837	0.573267
Zn15	Zn	1.499415	-0.122683	0.096515
Zn16	Zn	1.999415	0.377317	0.596515
Zn17	Zn	1.499432	-0.122685	-0.096449
Zn18	Zn	1.999432	0.377315	0.403551
O19	O	1.489264	-0.243652	0.073252
O20	O	1.989264	0.256348	0.573252
C21	C	1.267347	-0.127376	0.000026
C22	C	1.767347	0.372624	0.500026
C23	C	1.126434	-0.124899	0.000022
C24	C	1.626434	0.375101	0.500022
N25	N	1.499412	-0.122681	0.228207
N26	N	1.999412	0.377319	0.728207
C27	C	1.508753	0.029265	0.000043
C28	C	2.008753	0.529265	0.500043
C29	C	1.506287	0.121575	0.000044
C30	C	2.006287	0.621575	0.500044
C31	C	0.944360	-0.029989	0.000371
C32	C	1.444360	0.470011	0.500371
C33	C	1.090943	-0.032500	0.000032
C34	C	1.590943	0.467500	0.500032
C35	C	1.064135	-0.169366	-0.083612
C36	C	1.564135	0.330634	0.416388
C37	C	0.917636	-0.166213	-0.083673
C38	C	1.417636	0.333787	0.416327
C39	C	0.917106	-0.168090	0.082876
C40	C	1.417106	0.331910	0.582876
C41	C	1.064075	-0.168941	0.083972
C42	C	1.564075	0.331059	0.583972
C43	C	1.731500	-0.117992	0.000038
C44	C	2.231500	0.382008	0.500038
C45	C	1.872413	-0.120469	0.000036
C46	C	2.372413	0.379531	0.500036
C47	C	1.490093	-0.274633	0.000021
C48	C	1.990093	0.225367	0.500021
C49	C	1.492559	-0.366943	0.000014
C50	C	1.992559	0.133057	0.500014
C51	C	1.616226	0.343175	0.000033
C52	C	2.116226	0.843175	0.500033
C53	C	1.613899	0.429910	0.000026
C54	C	2.113899	0.929910	0.500026
C55	C	1.382612	0.411450	0.000022
C56	C	1.882612	0.911450	0.500022
C57	C	1.384940	0.324717	0.000023
C58	C	1.884940	0.824717	0.500023
C59	C	1.501751	0.290582	0.000033
C60	C	2.001751	0.790582	0.500033
C61	C	1.497096	0.464050	0.000025
C62	C	1.997096	0.964050	0.500025
C63	C	1.494572	0.558091	0.000017
C64	C	1.994572	1.058091	0.500017
C65	C	1.504275	0.196535	0.000039
C66	C	2.004275	0.696535	0.500039
N67	N	1.499444	-0.122681	-0.228142
N68	N	1.999444	0.377319	0.271858
C69	C	1.585760	-0.066691	0.453937
C70	C	2.085760	0.433309	0.953937
C71	C	1.585764	-0.066689	0.546126
C72	C	2.085764	0.433311	1.046126
C73	C	1.413087	-0.178673	0.546122
C74	C	1.913087	0.321327	1.046122
C75	C	1.413078	-0.178671	0.453934
C76	C	1.913078	0.321329	0.953934
C77	C	1.499422	-0.122680	0.407844
C78	C	1.999422	0.377320	0.907844
C79	C	1.499435	-0.122681	0.592222
C80	C	1.999435	0.377319	1.092222
C81	C	1.499439	-0.122679	0.692178
C82	C	1.999439	0.377321	1.192178
C83	C	1.499417	-0.122681	0.307882
C84	C	1.999417	0.377319	0.807882
H85	H	1.134050	0.002489	0.059985
H86	H	1.634050	0.502489	0.559985
H87	H	0.916290	0.006515	0.060351
H88	H	1.416290	0.506515	0.560351
Cl89	Cl	0.898527	0.026136	-0.091702
Cl90	Cl	1.398527	0.526136	0.408298
H91	H	1.342765	-0.224265	0.416403
H92	H	1.842765	0.275735	0.916403
H93	H	0.885980	-0.138187	0.146270
H94	H	1.385980	0.361813	0.646270
H95	H	1.133196	0.002734	-0.060020
H96	H	1.633196	0.502734	0.439980
Cl97	Cl	0.874807	-0.115472	-0.180186
Cl98	Cl	1.374807	0.384528	0.319814
H99	H	1.087341	-0.236306	0.089017
H100	H	1.587341	0.263694	0.589017
Cl101	Cl	0.842107	-0.268806	-0.089544
Cl102	Cl	1.342107	0.231194	0.410456
H103	H	1.656064	-0.021099	0.416412
H104	H	2.156064	0.478901	0.916412
Cl105	Cl	1.235773	0.454369	0.000010
Cl106	Cl	1.735773	0.954369	0.500010
H107	H	1.711340	0.315386	0.000039
H108	H	2.211340	0.815386	0.500039
Cl109	Cl	1.127867	-0.118703	0.179499
Cl110	Cl	1.627867	0.381297	0.679499
H111	H	1.291715	0.281893	0.000021
H112	H	1.791715	0.781893	0.500021
H113	H	1.707116	0.472728	0.000024
H114	H	2.207116	0.972728	0.500024
Cl115	Cl	1.097190	-0.274122	-0.088448
Cl116	Cl	1.597190	0.225878	0.411552
Cl117	Cl	1.694305	0.003703	0.604069
Cl118	Cl	2.194305	0.503703	1.104069
H119	H	1.107169	-0.138478	-0.145850
H120	H	1.607169	0.361522	0.354150
Cl121	Cl	0.842724	-0.271130	0.083742
Cl122	Cl	1.342724	0.228870	0.583742
Cl123	Cl	1.304551	-0.249061	0.604069
Cl124	Cl	1.804551	0.250939	1.104069
