data_functionalizedCrystal
_audit_creation_method	'MofGen! by Chris Wilmer'
_symmetry_space_group_name_H-M	'P1'
_symmetry_Int_Tables_number	1
_symmetry_cell_setting	triclinic
loop_
_symmetry_equiv_pos_as_xyz
  x,y,z
_cell_length_a	12.827892
_cell_length_b	29.839134
_cell_length_c	12.827885
_cell_angle_alpha	90.035240
_cell_angle_beta	89.970024
_cell_angle_gamma	89.992241
loop_
_atom_site_label
_atom_site_type_symbol
_atom_site_fract_x
_atom_site_fract_y
_atom_site_fract_z
Zn1	Zn	-0.416195	-0.686842	-0.591287
Zn2	Zn	-0.590972	-0.686796	-0.416547
Zn3	Zn	-0.416223	-0.611712	-0.416513
Zn4	Zn	-0.590871	-0.611706	-0.591199
O5	O	-0.503565	-0.649264	-0.503886
O6	O	-0.439410	-0.749703	-0.568159
O7	O	-0.567845	-0.676819	-0.270306
O8	O	-0.269983	-0.621700	-0.439720
O9	O	-0.567818	-0.749669	-0.439778
O10	O	-0.269963	-0.676897	-0.568126
O11	O	-0.439457	-0.621656	-0.270281
O12	O	-0.439360	-0.548845	-0.439634
O13	O	-0.567646	-0.621690	-0.737447
O14	O	-0.567673	-0.548840	-0.567975
O15	O	-0.439312	-0.676891	-0.737512
O16	O	-0.737195	-0.676813	-0.439692
O17	O	-0.737121	-0.621645	-0.568008
C18	C	-0.503509	-0.532542	-0.503792
C19	C	-0.503510	-0.482607	-0.503776
C20	C	-0.436646	-0.126010	-0.437159
C21	C	-0.436619	-0.313683	-0.437109
O22	O	-0.379685	-0.337939	-0.380394
N23	N	-0.503525	-0.337162	-0.503818
C24	C	-0.570438	-0.313720	-0.570550
O25	O	-0.627337	-0.337997	-0.627298
C26	C	-0.570458	-0.126048	-0.570605
C27	C	-0.503555	-0.102571	-0.503883
C28	C	-0.369747	-0.102533	-0.370443
C29	C	-0.369759	-0.055618	-0.370453
C30	C	-0.436668	-0.032179	-0.437177
C31	C	-0.503567	-0.055656	-0.503893
C32	C	-0.637365	-0.102607	-0.637342
C33	C	-0.637362	-0.055686	-0.637351
C34	C	-0.570459	-0.032209	-0.570629
C35	C	-0.570488	0.014699	-0.570626
N36	N	-0.503582	0.038178	-0.503917
C37	C	-0.436672	0.014739	-0.437192
C38	C	-0.570424	-0.412251	-0.570515
C39	C	-0.570420	-0.459168	-0.570501
C40	C	-0.436600	-0.459128	-0.437060
C41	C	-0.436609	-0.412209	-0.437070
C42	C	-0.503518	-0.388771	-0.503806
C43	C	-0.436701	0.113265	-0.437216
C44	C	-0.436722	0.160184	-0.437228
C45	C	-0.570538	0.160140	-0.570672
C46	C	-0.570522	0.113224	-0.570656
C47	C	-0.503595	0.089788	-0.503925
O48	O	-0.627384	0.038983	-0.627320
O49	O	-0.379765	0.039024	-0.380470
C50	C	-0.436634	-0.172925	-0.437150
C51	C	-0.503533	-0.196402	-0.503865
C52	C	-0.570442	-0.172963	-0.570590
C53	C	-0.503529	-0.243320	-0.503850
C54	C	-0.436619	-0.266759	-0.437126
C55	C	-0.369713	-0.243279	-0.370416
C56	C	-0.369725	-0.196364	-0.370425
C57	C	-0.637348	-0.196442	-0.637299
C58	C	-0.637333	-0.243358	-0.637284
C59	C	-0.570423	-0.266797	-0.570559
C60	C	-0.775075	-0.649236	-0.503867
C61	C	-0.891228	-0.649265	-0.503894
C62	C	-0.942920	-0.676566	-0.567490
C63	C	-1.062970	-0.676597	-0.567519
C64	C	-0.230995	-0.649305	-0.503929
C65	C	-0.114842	-0.649322	-0.503947
C66	C	-0.503465	-0.649295	-0.776457
C67	C	-0.503422	-0.649308	-0.892610
C68	C	-0.503619	0.233558	-0.503964
C69	C	-0.503632	0.183623	-0.503952
C70	C	-0.439880	-0.622020	-0.944382
C71	C	-0.439834	-0.622033	-1.064433
C72	C	-0.503590	-0.649259	-0.232376
C73	C	-0.503338	-0.649333	-0.116224
H74	H	-0.625008	0.094109	-0.624979
Br75	Br	-0.661239	-0.491024	-0.661037
Br76	Br	-0.965590	-0.610339	-0.413184
Br77	Br	-0.278925	-0.134334	-0.279880
Br78	Br	-0.349244	-0.583069	-0.870136
Br79	Br	-0.728168	-0.134456	-0.727898
H80	H	-0.624913	-0.393172	-0.624861
H81	H	-0.557738	-0.672698	-1.071708
H82	H	-0.557791	-0.672680	-0.937163
H83	H	-0.382240	0.179297	-0.382892
Br84	Br	-0.349147	-0.583096	-1.138633
H85	H	-0.382199	0.094188	-0.382882
H86	H	-0.898300	-0.699916	-0.621921
H87	H	-0.315279	-0.036507	-0.316121
Br88	Br	-0.345810	-0.380353	-0.346516
H89	H	-0.382120	-0.478220	-0.382729
Br90	Br	-0.728167	-0.023880	-0.727931
H91	H	-0.315244	-0.177253	-0.316094
Br92	Br	-0.278913	-0.275098	-0.279857
Br93	Br	-0.728146	-0.275213	-0.727837
Br94	Br	-0.661356	0.191959	-0.661206
H95	H	-1.107424	-0.699972	-0.621963
H96	H	-0.691835	-0.177363	-0.691637
H97	H	-1.070396	-0.625949	-0.449492
