data_functionalizedCrystal
_audit_creation_method	'MofGen! by Chris Wilmer'
_symmetry_space_group_name_H-M	'P1'
_symmetry_Int_Tables_number	1
_symmetry_cell_setting	triclinic
loop_
_symmetry_equiv_pos_as_xyz
  x,y,z
_cell_length_a	22.863218
_cell_length_b	22.862586
_cell_length_c	22.858745
_cell_angle_alpha	60.006856
_cell_angle_beta	60.013818
_cell_angle_gamma	59.991795
loop_
_atom_site_label
_atom_site_type_symbol
_atom_site_fract_x
_atom_site_fract_y
_atom_site_fract_z
O1	O	0.081006	-0.854581	0.714630
O2	O	0.581006	-0.354581	1.214630
O3	O	0.030492	-0.665350	0.575795
O4	O	0.530492	-0.165350	1.075795
O5	O	0.150314	-0.785089	0.575706
O6	O	0.650314	-0.285089	1.075706
O7	O	-0.038816	-0.734841	0.714718
O8	O	0.461184	-0.234841	1.214718
O9	O	0.190066	-0.745348	0.615369
O10	O	0.690066	-0.245348	1.115369
O11	O	0.070244	-0.625609	0.615458
O12	O	0.570244	-0.125609	1.115458
O13	O	0.120758	-0.814840	0.754293
O14	O	0.620758	-0.314840	1.254293
Zn15	Zn	0.101812	-0.713914	0.691173
Zn16	Zn	0.601812	-0.213914	1.191173
Zn17	Zn	0.049438	-0.766275	0.638915
Zn18	Zn	0.549438	-0.266275	1.138915
O19	O	0.000936	-0.695100	0.754381
O20	O	0.500936	-0.195100	1.254381
N21	N	0.137558	-0.678184	0.726840
N22	N	0.637558	-0.178184	1.226840
N23	N	0.013698	-0.802011	0.603247
N24	N	0.513698	-0.302011	1.103247
C25	C	0.187224	-0.518558	0.776483
C26	C	0.687224	-0.018558	1.276483
C27	C	0.187235	-0.628552	0.776467
C28	C	0.687235	-0.128552	1.276467
C29	C	0.214753	-0.601061	0.803961
C30	C	0.714753	-0.101061	1.303961
C31	C	0.334724	-0.580392	0.740801
C32	C	0.834724	-0.080392	1.240801
C33	C	0.409718	-0.605392	0.715784
C34	C	0.909718	-0.105392	1.215784
C35	C	0.409746	-0.726732	0.762051
C36	C	0.909746	-0.226732	1.262051
C37	C	0.334754	-0.701730	0.787070
C38	C	0.834754	-0.201730	1.287070
C39	C	0.205297	-0.481049	0.702756
C40	C	0.705297	0.018951	1.202756
C41	C	0.180267	-0.406048	0.677779
C42	C	0.680267	0.093952	1.177779
C43	C	0.119099	-0.406071	0.800259
C44	C	0.619099	0.093929	1.300259
C45	C	0.144128	-0.481071	0.825236
C46	C	0.644128	0.018929	1.325236
C47	C	0.113501	-0.610437	0.794610
C48	C	0.613501	-0.110437	1.294610
C49	C	0.088492	-0.635428	0.769607
C50	C	0.588492	-0.135428	1.269607
C51	C	0.210943	-0.696652	0.708337
C52	C	0.710943	-0.196652	1.208337
C53	C	0.235956	-0.671660	0.733331
C54	C	0.735956	-0.171660	1.233331
C55	C	0.113585	-0.610461	0.923980
C56	C	0.613585	-0.110461	1.423980
C57	C	0.088635	-0.635476	0.998978
C58	C	0.588635	-0.135476	1.498978
C59	C	0.211128	-0.696714	0.998930
C60	C	0.711128	-0.196714	1.498930
C61	C	0.236077	-0.671700	0.923930
C62	C	0.736077	-0.171700	1.423930
C63	C	0.187303	-0.628571	0.886457
C64	C	0.687303	-0.128571	1.386457
C65	C	0.297246	-0.628559	0.776441
C66	C	0.797246	-0.128559	1.276441
C67	C	-0.117796	-0.823430	0.581283
C68	C	0.382204	-0.323430	1.081283
C69	C	-0.007671	-0.823587	0.471446
C70	C	0.492329	-0.323587	0.971446
C71	C	-0.007879	-0.933535	0.581483
C72	C	0.492121	-0.433535	1.081483
C73	C	-0.007861	-0.823583	0.581554
C74	C	0.492139	-0.323583	1.081554
C75	C	-0.035301	-0.851035	0.553942
C76	C	0.464699	-0.351035	1.053942
N77	N	0.446162	-0.678198	0.726752
N78	N	0.946162	-0.178198	1.226752
O79	O	0.691234	-0.690164	0.550341
O80	O	1.191234	-0.190164	1.050341
O81	O	0.691462	-0.829422	0.739388
O82	O	1.191462	-0.329422	1.239388
O83	O	0.691373	-0.829102	0.619485
O84	O	1.191373	-0.329102	1.119485
O85	O	0.691323	-0.690484	0.670244
O86	O	1.191323	-0.190484	1.170244
O87	O	0.572233	-0.789455	0.659278
O88	O	1.072233	-0.289455	1.159278
O89	O	0.572322	-0.789775	0.779181
O90	O	1.072322	-0.289775	1.279181
O91	O	0.572094	-0.650517	0.590134
O92	O	1.072094	-0.150517	1.090134
Zn93	Zn	0.553292	-0.713851	0.690976
Zn94	Zn	1.053292	-0.213851	1.190976
Zn95	Zn	0.710264	-0.766088	0.638547
Zn96	Zn	1.210264	-0.266088	1.138547
O97	O	0.572183	-0.650837	0.710037
O98	O	1.072183	-0.150837	1.210037
N99	N	0.817394	-0.801741	0.602763
N100	N	1.317394	-0.301741	1.102763
N101	N	0.137538	-0.369628	0.726874
N102	N	0.637538	0.130372	1.226874
O103	O	-0.038795	-0.124419	0.714761
O104	O	0.461205	0.375581	1.214761
O105	O	0.150256	-0.124417	0.575522
O106	O	0.650256	0.375583	1.075522
O107	O	0.030331	-0.124432	0.575860
O108	O	0.530331	0.375568	1.075860
O109	O	0.081131	-0.124404	0.714423
O110	O	0.581131	0.375596	1.214423
O111	O	0.070086	-0.243584	0.615573
O112	O	0.570086	0.256416	1.115573
O113	O	0.190011	-0.243569	0.615236
O114	O	0.690011	0.256431	1.115236
O115	O	0.000960	-0.243571	0.754474
O116	O	0.500960	0.256429	1.254474
Zn117	Zn	0.101797	-0.262488	0.691160
Zn118	Zn	0.601797	0.237512	1.191160
Zn119	Zn	0.049419	-0.105500	0.638836
Zn120	Zn	0.549419	0.394500	1.138836
O121	O	0.120885	-0.243556	0.754137
O122	O	0.620885	0.256444	1.254137
N123	N	0.013669	0.001640	0.603123
N124	N	0.513669	0.501640	1.103123
N125	N	0.137749	-0.678230	1.035381
N126	N	0.637749	-0.178230	1.535381
O127	O	0.125655	-0.854547	1.280566
O128	O	0.625655	-0.354547	1.780566
O129	O	-0.013567	-0.665426	1.280590
O130	O	0.486433	-0.165426	1.780590
O131	O	-0.013245	-0.785328	1.280537
O132	O	0.486755	-0.285328	1.780537
O133	O	0.125333	-0.734644	1.280618
O134	O	0.625333	-0.234644	1.780618
O135	O	0.026456	-0.745599	1.161392
O136	O	0.526456	-0.245599	1.661392
O137	O	0.026134	-0.625697	1.161444
O138	O	0.526134	-0.125697	1.661444
O139	O	0.165355	-0.814817	1.161420
O140	O	0.665355	-0.314817	1.661420
Zn141	Zn	0.102048	-0.713949	1.142516
Zn142	Zn	0.602048	-0.213949	1.642516
Zn143	Zn	0.049740	-0.766294	1.299495
Zn144	Zn	0.549740	-0.266294	1.799495
O145	O	0.165033	-0.694915	1.161473
O146	O	0.665033	-0.194915	1.661473
N147	N	0.014038	-0.802020	1.406629
N148	N	0.514038	-0.302020	1.906629
C149	C	0.045634	-0.621635	0.576499
C150	C	0.545634	-0.121635	1.076499
C151	C	0.194019	-0.769918	0.576389
C152	C	0.694019	-0.269918	1.076389
C153	C	0.105616	-0.858555	0.753588
C154	C	0.605616	-0.358555	1.253588
C155	C	-0.042769	-0.710272	0.753698
C156	C	0.457231	-0.210272	1.253698
C157	C	0.631920	-0.828776	0.783102
C158	C	1.131920	-0.328776	1.283102
C159	C	0.631811	-0.828380	0.634616
C160	C	1.131811	-0.328380	1.134616
C161	C	0.631633	-0.651162	0.546422
C162	C	1.131633	-0.151162	1.046422
C163	C	0.631745	-0.651559	0.694907
C164	C	1.131745	-0.151559	1.194907
C165	C	0.193900	-0.183846	0.576155
C166	C	0.693900	0.316154	1.076155
C167	C	0.045437	-0.184012	0.576622
C168	C	0.545437	0.315988	1.076622
C169	C	-0.042734	-0.183994	0.753792
C170	C	0.457266	0.316006	1.253792
C171	C	0.105780	-0.183977	0.753375
C172	C	0.605780	0.316023	1.253375
C173	C	-0.012889	-0.621735	1.221020
C174	C	0.487111	-0.121735	1.721020
C175	C	-0.012483	-0.770211	1.220931
C176	C	0.487517	-0.270211	1.720931
C177	C	0.164678	-0.858508	1.220991
C178	C	0.664678	-0.358508	1.720991
C179	C	0.164280	-0.710023	1.221052
C180	C	0.664280	-0.210023	1.721052
H181	H	0.073862	-0.575336	0.893474
H182	H	0.573862	-0.075336	1.393474
C183	C	-0.106746	-0.245234	0.872809
C184	C	0.393254	0.254766	1.372809
C185	C	-0.116029	-0.183990	0.812802
C186	C	0.383971	0.316010	1.312802
H187	H	-0.151998	-0.245231	0.909235
H188	H	0.348002	0.254769	1.409235
H189	H	-0.076642	-0.245223	0.890100
H190	H	0.423358	0.254777	1.390100
H191	H	-0.085313	-0.286785	0.859789
H192	H	0.414687	0.213215	1.359789
H193	H	-0.137458	-0.142439	0.825821
H194	H	0.362542	0.357561	1.325821
H195	H	-0.146145	-0.183995	0.795509
H196	H	0.353855	0.316005	1.295509
H197	H	0.116656	-0.183968	0.796904
H198	H	0.616656	0.316032	1.296904
H199	H	-0.056598	-0.567419	1.221026
H200	H	0.443402	-0.067419	1.721026
H201	H	0.116407	-0.912913	0.797192
H202	H	0.616407	-0.412913	1.297192
C203	C	-0.128924	-0.638255	0.829150
C204	C	0.371076	-0.138255	1.329150
C205	C	-0.116098	-0.695821	0.812636
C206	C	0.383902	-0.195821	1.312636
H207	H	-0.174191	-0.629338	0.865540
H208	H	0.325809	-0.129338	1.365540
H209	H	-0.128804	-0.596793	0.787524
H210	H	0.371196	-0.096793	1.287524
H211	H	-0.092479	-0.649600	0.845597
H212	H	0.407521	-0.149600	1.345597
H213	H	-0.152540	-0.684475	0.796184
H214	H	0.347460	-0.184475	1.296184
H215	H	-0.116223	-0.737292	0.854270
H216	H	0.383777	-0.237292	1.354270
H217	H	0.129402	-0.511613	0.885274
H218	H	0.629402	-0.011613	1.385274
H219	H	0.207816	-0.699179	1.221068
H220	H	0.707816	-0.199179	1.721068
H221	H	-0.056000	-0.781036	1.220859
H222	H	0.444000	-0.281036	1.720859
C223	C	0.632021	-0.862287	0.900761
C224	C	1.132021	-0.362287	1.400761
C225	C	0.632006	-0.887799	0.856396
C226	C	1.132006	-0.387799	1.356396
H227	H	0.632079	-0.898728	0.946008
H228	H	1.132079	-0.398728	1.446008
H229	H	0.590455	-0.821596	0.907061
H230	H	1.090455	-0.321596	1.407061
H231	H	0.673549	-0.849246	0.879307
H232	H	1.173549	-0.349246	1.379307
H233	H	0.590475	-0.900835	0.877847
H234	H	1.090475	-0.400835	1.377847
H235	H	0.673576	-0.928502	0.850098
H236	H	1.173576	-0.428502	1.350098
H237	H	0.208389	-0.912821	1.220975
H238	H	0.708389	-0.412821	1.720975
H239	H	0.028603	-0.620718	1.029520
H240	H	0.528603	-0.120718	1.529520
H241	H	0.034558	-0.184014	0.533090
H242	H	0.534558	0.315986	1.033090
C243	C	0.307866	-0.806609	1.021965
C244	C	0.807866	-0.306609	1.521965
C245	C	0.264743	-0.744109	1.040114
C246	C	0.764743	-0.244109	1.540114
H247	H	0.340963	-0.835870	1.047395
H248	H	0.840963	-0.335870	1.547395
H249	H	0.333268	-0.794299	0.971935
H250	H	0.833268	-0.294299	1.471935
H251	H	0.278611	-0.832052	1.034269
H252	H	0.778611	-0.332052	1.534269
H253	H	0.293997	-0.718664	1.027806
H254	H	0.793997	-0.218664	1.527806
H255	H	0.239339	-0.756418	1.090155
H256	H	0.739339	-0.256418	1.590155
C257	C	0.335198	-0.629093	0.839565
C258	C	0.835198	-0.129093	1.339565
C259	C	0.317114	-0.691611	0.882684
C260	C	0.817114	-0.191611	1.382684
H261	H	0.385226	-0.641387	0.814100
H262	H	0.885226	-0.141387	1.314100
H263	H	0.322920	-0.603662	0.868827
H264	H	0.822920	-0.103662	1.368827
H265	H	0.309719	-0.599836	0.806516
H266	H	0.809719	-0.099836	1.306516
H267	H	0.342589	-0.720866	0.915737
H268	H	0.842589	-0.220866	1.415737
H269	H	0.329400	-0.717053	0.853419
H270	H	0.829400	-0.217053	1.353419
C271	C	0.631762	-0.861351	0.550049
C272	C	1.131762	-0.361351	1.050049
C273	C	0.631833	-0.887169	0.619958
C274	C	1.131833	-0.387169	1.119958
H275	H	0.631770	-0.897644	0.541003
H276	H	1.131770	-0.397644	1.041003
H277	H	0.673277	-0.848284	0.516992
H278	H	1.173277	-0.348284	1.016992
H279	H	0.590183	-0.820622	0.544746
H280	H	1.090183	-0.320622	1.044746
H281	H	0.673415	-0.927895	0.625259
H282	H	1.173415	-0.427895	1.125259
H283	H	0.590314	-0.900246	0.653024
H284	H	1.090314	-0.400246	1.153024
C285	C	0.631517	-0.617646	0.428767
C286	C	1.131517	-0.117646	0.928767
C287	C	0.631535	-0.592135	0.473132
C288	C	1.131535	-0.092135	0.973132
H289	H	0.631461	-0.581206	0.383521
H290	H	1.131461	-0.081206	0.883521
H291	H	0.589997	-0.630688	0.450220
H292	H	1.089997	-0.130688	0.950220
H293	H	0.673091	-0.658341	0.422465
H294	H	1.173091	-0.158341	0.922465
H295	H	0.589959	-0.551444	0.479439
H296	H	1.089959	-0.051444	0.979439
H297	H	0.673060	-0.579083	0.451675
H298	H	1.173060	-0.079083	0.951675
C299	C	0.693000	-0.617155	0.726290
C300	C	1.193000	-0.117155	1.226290
C301	C	0.631724	-0.592773	0.709568
C302	C	1.131724	-0.092773	1.209568
H303	H	0.692983	-0.580864	0.735345
H304	H	1.192983	-0.080864	1.235345
H305	H	0.734517	-0.628271	0.687191
H306	H	1.234517	-0.128271	1.187191
H307	H	0.693049	-0.658861	0.767681
H308	H	1.193049	-0.158861	1.267681
H309	H	0.631677	-0.551070	0.668173
H310	H	1.131677	-0.051070	1.168173
H311	H	0.590196	-0.581647	0.748670
H312	H	1.090196	-0.081647	1.248670
H313	H	0.073825	-0.575337	0.829731
H314	H	0.573825	-0.075337	1.329731
C315	C	0.321027	-0.244508	0.540938
C316	C	0.821027	0.255492	1.040938
C317	C	0.267044	-0.183399	0.516997
C318	C	0.767044	0.316601	1.016997
H319	H	0.366184	-0.244229	0.504418
H320	H	0.866184	0.255771	1.004418
H321	H	0.312522	-0.286145	0.552074
H322	H	0.812522	0.213855	1.052074
H323	H	0.320991	-0.244587	0.582552
H324	H	0.820991	0.255413	1.082552
H325	H	0.267077	-0.183323	0.475386
H326	H	0.767077	0.316677	0.975386
H327	H	0.275551	-0.141751	0.505851
H328	H	0.775551	0.358249	1.005851
C329	C	-0.030043	-0.572422	0.832702
C330	C	0.469957	-0.072422	1.332702
C331	C	0.007442	-0.615528	0.789554
C332	C	0.507442	-0.115528	1.289554
H333	H	-0.080079	-0.560143	0.845021
H334	H	0.419921	-0.060143	1.345021
H335	H	-0.017776	-0.530013	0.807264
H336	H	0.482224	-0.030013	1.307264
H337	H	-0.017704	-0.597882	0.875092
H338	H	0.482296	-0.097882	1.375092
H339	H	-0.004893	-0.590066	0.747162
H340	H	0.495107	-0.090066	1.247162
H341	H	-0.004831	-0.657944	0.814992
H342	H	0.495169	-0.157944	1.314992
H343	H	0.250621	-0.731757	0.673222
H344	H	0.750621	-0.231757	1.173222
H345	H	0.304240	-0.740958	0.816091
H346	H	0.804240	-0.240958	1.316091
C347	C	0.347983	-0.666091	0.638793
C348	C	0.847983	-0.166091	1.138793
C349	C	0.317003	-0.691546	0.713385
C350	C	0.817003	-0.191546	1.213385
H351	H	0.398017	-0.678366	0.626479
H352	H	0.898017	-0.178366	1.126479
H353	H	0.326881	-0.615495	0.621577
H354	H	0.826881	-0.115495	1.121577
H355	H	0.340070	-0.687160	0.617739
H356	H	0.840070	-0.187160	1.117739
H357	H	0.324912	-0.670472	0.734439
H358	H	0.824912	-0.170472	1.234439
H359	H	0.338112	-0.742152	0.730609
H360	H	0.838112	-0.242152	1.230609
C361	C	0.402248	-0.844165	0.810291
C362	C	0.902248	-0.344165	1.310291
C363	C	0.450982	-0.807164	0.773724
C364	C	0.950982	-0.307164	1.273724
H365	H	0.427706	-0.893819	0.817500
H366	H	0.927706	-0.393819	1.317500
H367	H	0.372976	-0.826570	0.782824
H368	H	0.872976	-0.326570	1.282824
H369	H	0.373019	-0.837209	0.855355
H370	H	0.873019	-0.337209	1.355355
H371	H	0.480208	-0.814116	0.728657
H372	H	0.980208	-0.314116	1.228657
H373	H	0.480266	-0.824765	0.801192
H374	H	0.980266	-0.324765	1.301192
H375	H	0.304191	-0.520811	0.732143
H376	H	0.804191	-0.020811	1.232143
C377	C	0.432751	-0.501830	0.615179
C378	C	0.932751	-0.001830	1.115179
C379	C	0.450917	-0.552444	0.676602
C380	C	0.950917	-0.052444	1.176602
H381	H	0.458190	-0.469144	0.590987
H382	H	0.958190	0.030856	1.090987
H383	H	0.382726	-0.476472	0.628561
H384	H	0.882726	0.023528	1.128561
H385	H	0.445030	-0.525549	0.584327
H386	H	0.945030	-0.025549	1.084327
H387	H	0.438633	-0.528726	0.707456
H388	H	0.938633	-0.028726	1.207456
H389	H	0.500953	-0.577805	0.663221
H390	H	1.000953	-0.077805	1.163221
C391	C	0.263226	-0.473491	0.579180
C392	C	0.763226	0.026509	1.079180
C393	C	0.252660	-0.522256	0.649169
C394	C	0.752660	-0.022256	1.149169
H395	H	0.292462	-0.498932	0.546097
H396	H	0.792462	0.001068	1.046097
H397	H	0.286124	-0.444241	0.571970
H398	H	0.786124	0.055759	1.071970
H399	H	0.218256	-0.444236	0.572005
H400	H	0.718256	0.055764	1.072005
H401	H	0.297630	-0.551507	0.656346
H402	H	0.797630	-0.051507	1.156346
H403	H	0.229764	-0.551518	0.656382
H404	H	0.729764	-0.051518	1.156382
H405	H	0.194981	-0.375507	0.617742
H406	H	0.694981	0.124493	1.117742
H407	H	0.084019	-0.375548	0.839959
H408	H	0.584019	0.124452	1.339959
H409	H	0.248339	-0.780632	0.532734
H410	H	0.748339	-0.280632	1.032734
C411	C	-0.038830	-0.504034	0.543332
C412	C	0.461170	-0.004034	1.043332
C413	C	0.031072	-0.548257	0.517629
C414	C	0.531072	-0.048257	1.017629
H415	H	-0.047819	-0.458736	0.506986
H416	H	0.452181	0.041264	1.006986
H417	H	-0.044176	-0.497823	0.584042
H418	H	0.455824	0.002177	1.084042
H419	H	-0.071901	-0.525549	0.556389
H420	H	0.428099	-0.025549	1.056389
H421	H	0.064144	-0.526744	0.504578
H422	H	0.564144	-0.026744	1.004578
H423	H	0.036425	-0.554466	0.476906
H424	H	0.536425	-0.054466	0.976906
