data_functionalizedCrystal
_audit_creation_method	'MofGen! by Chris Wilmer'
_symmetry_space_group_name_H-M	'P1'
_symmetry_Int_Tables_number	1
_symmetry_cell_setting	triclinic
loop_
_symmetry_equiv_pos_as_xyz
  x,y,z
_cell_length_a	23.532407
_cell_length_b	27.731996
_cell_length_c	22.010155
_cell_angle_alpha	89.998256
_cell_angle_beta	89.996931
_cell_angle_gamma	82.735033
loop_
_atom_site_label
_atom_site_type_symbol
_atom_site_fract_x
_atom_site_fract_y
_atom_site_fract_z
O1	O	0.755125	0.058673	-0.050457
O2	O	0.589242	0.067164	-0.050476
O3	O	0.677351	-0.007472	-0.050453
O4	O	0.667016	0.133309	-0.050480
O5	O	0.677335	-0.007461	0.050597
O6	O	0.589226	0.067175	0.050574
O7	O	0.755109	0.058685	0.050593
Cu8	Cu	0.672166	0.062931	0.059810
Cu9	Cu	0.672185	0.062918	-0.059693
O10	O	0.667000	0.133320	0.050570
C11	C	0.568019	0.066953	0.000047
C12	C	0.504803	0.066303	0.000040
C13	C	0.105606	0.106394	0.000060
C14	C	0.046207	0.105790	0.000064
O15	O	0.009375	0.142955	0.000079
N16	N	0.023685	0.061419	0.000071
C17	C	0.060566	0.017649	0.000081
O18	O	0.035955	-0.020147	0.000089
C19	C	0.119963	0.018253	0.000082
C20	C	0.142482	0.062627	0.000068
C21	C	0.128124	0.150764	0.000047
C22	C	0.187519	0.151368	0.000042
C23	C	0.224395	0.107601	0.000050
C24	C	0.201876	0.063231	0.000063
C25	C	0.156843	-0.025516	0.000096
C26	C	0.216244	-0.024908	0.000097
C27	C	0.238762	0.019466	0.000083
C28	C	0.298147	0.020068	0.000066
N29	N	0.320669	0.064439	0.000059
C30	C	0.283793	0.108206	0.000051
C31	C	-0.064174	0.016383	0.000081
C32	C	-0.123570	0.015778	0.000077
C33	C	-0.137925	0.103920	0.000060
C34	C	-0.078528	0.104524	0.000061
C35	C	-0.041652	0.060754	0.000074
C36	C	0.408526	0.109470	0.000040
C37	C	0.467927	0.110070	0.000032
C38	C	0.482277	0.021929	0.000052
C39	C	0.422881	0.021329	0.000056
C40	C	0.386007	0.065103	0.000052
O41	O	0.335014	-0.017077	0.000054
O42	O	0.308412	0.145996	0.000051
C43	C	0.677131	-0.025474	0.000074
C44	C	0.676491	-0.079131	0.000080
C45	C	0.672477	-0.411860	-0.055032
C46	C	0.670049	-0.613522	-0.055043
O47	O	0.669718	-0.639598	-0.101889
N48	N	0.669738	-0.638733	0.000039
C49	C	0.670031	-0.613526	0.055127
O50	O	0.669706	-0.639596	0.101978
C51	C	0.672456	-0.411864	0.055138
C52	C	0.672772	-0.386656	0.000052
C53	C	0.672792	-0.386652	-0.110113
C54	C	0.673403	-0.336239	-0.110110
C55	C	0.673697	-0.311036	-0.055026
C56	C	0.673382	-0.336244	0.000055
C57	C	0.672745	-0.386657	0.110226
C58	C	0.673349	-0.336239	0.110223
C59	C	0.673665	-0.311030	0.055138
C60	C	0.674287	-0.260628	0.055143
N61	N	0.674597	-0.235417	0.000061
C62	C	0.674302	-0.260620	-0.055023
C63	C	0.668760	-0.719401	0.055118
C64	C	0.668155	-0.769816	0.055116
C65	C	0.668171	-0.769809	-0.055055
C66	C	0.668780	-0.719393	-0.055052
C67	C	0.669070	-0.694190	0.000036
C68	C	0.675584	-0.154751	-0.055012
C69	C	0.676197	-0.104335	-0.055004
C70	C	0.676177	-0.104347	0.055167
C71	C	0.675568	-0.154759	0.055159
C72	C	0.675269	-0.179960	0.000064
O73	O	0.674612	-0.234520	0.101965
O74	O	0.674615	-0.234540	-0.101867
C75	C	0.671867	-0.462272	-0.055036
C76	C	0.671551	-0.487480	0.000046
C77	C	0.671846	-0.462277	0.055130
C78	C	0.670946	-0.537896	0.000043
C79	C	0.670652	-0.563099	-0.055041
C80	C	0.670962	-0.537888	-0.110123
C81	C	0.671572	-0.487476	-0.110120
C82	C	0.671536	-0.487488	0.110212
C83	C	0.670926	-0.537900	0.110204
C84	C	0.670632	-0.563104	0.055120
C85	C	0.776333	0.058895	0.000069
C86	C	0.839549	0.059545	0.000072
C87	C	0.667221	0.151323	0.000041
C88	C	0.667860	0.204980	0.000031
N89	N	0.672157	0.062940	0.143863
N90	N	0.672199	0.062905	-0.143746
C91	C	0.711202	0.029874	0.563653
C92	C	0.711205	0.029870	0.627260
O93	O	0.744379	0.001762	0.660160
N94	N	0.672185	0.062907	0.659070
C95	C	0.633156	0.095947	0.627269
O96	O	0.599967	0.124047	0.660166
C97	C	0.633151	0.095948	0.563663
C98	C	0.672177	0.062911	0.531856
C99	C	0.750225	-0.003160	0.531846
C100	C	0.750223	-0.003156	0.468243
C101	C	0.711198	0.029882	0.436446
C102	C	0.672175	0.062916	0.468253
C103	C	0.594120	0.128984	0.531863
C104	C	0.594118	0.128982	0.468252
C105	C	0.633144	0.095946	0.436445
C106	C	0.633148	0.095958	0.372853
N107	N	0.672168	0.062920	0.341043
C108	C	0.711193	0.029882	0.372840
C109	C	0.633169	0.095943	0.760847
C110	C	0.633176	0.095945	0.824452
C111	C	0.711224	0.029867	0.824439
C112	C	0.711219	0.029868	0.760832
C113	C	0.672189	0.062905	0.729037
C114	C	0.711186	0.029894	0.239268
C115	C	0.711182	0.029902	0.175660
C116	C	0.633132	0.095978	0.175678
C117	C	0.633138	0.095971	0.239282
C118	C	0.672167	0.062925	0.271075
O119	O	0.599989	0.124050	0.339912
O120	O	0.744372	0.001783	0.339935
H121	H	-0.141899	-0.020355	0.000078
H122	H	0.668999	-0.698885	0.099980
H123	H	-0.060198	0.140657	0.000053
H124	H	0.672488	-0.407173	0.155082
H125	H	0.601403	0.122851	0.850345
C126	C	0.551183	0.165324	0.566836
N127	N	0.518838	0.192695	0.593176
H128	H	-0.167961	0.139557	0.000056
H129	H	0.378510	0.145116	0.000038
C130	C	0.676496	-0.076612	0.115756
N131	N	0.676730	-0.055720	0.161393
C132	C	-0.023615	-0.031770	0.000086
N133	N	0.006931	-0.068039	0.000089
H134	H	0.138520	-0.061650	0.000108
C135	C	0.673670	-0.308518	0.170827
N136	N	0.673915	-0.287640	0.216473
C137	C	0.551186	0.165332	0.433281
N138	N	0.518853	0.192713	0.406942
H139	H	0.601365	0.122877	0.265179
C140	C	0.673744	-0.308516	-0.170709
N141	N	0.673998	-0.287638	-0.216356
C142	C	0.675226	-0.182489	0.115755
N143	N	0.674962	-0.203372	0.161398
H144	H	0.205847	0.187502	0.000030
C145	C	0.675266	-0.182466	-0.115619
N146	N	0.675032	-0.203341	-0.161267
C147	C	0.256804	-0.073059	0.000109
N148	N	0.287353	-0.109327	0.000116
H149	H	0.782000	-0.030058	0.442350
H150	H	0.404547	-0.014804	0.000058
H151	H	0.512312	-0.013705	0.000056
C152	C	0.676543	-0.076609	-0.115605
N153	N	0.676801	-0.055727	-0.161248
H154	H	0.782004	-0.030066	0.557729
H155	H	0.672550	-0.407167	-0.154972
H156	H	0.098105	0.186406	0.000042
H157	H	0.669037	-0.698872	-0.099908
C158	C	0.754147	-0.006477	0.725851
N159	N	0.786481	-0.033856	0.699506
C160	C	0.667842	-0.797542	-0.115649
N161	N	0.667589	-0.818432	-0.161285
H162	H	0.601360	0.122878	0.149780
C163	C	0.671916	-0.459753	-0.170719
N164	N	0.672173	-0.438875	-0.216366
H165	H	0.667906	-0.790338	0.099972
H166	H	0.670725	-0.558418	-0.154975
C167	C	0.670577	-0.565623	0.170807
N168	N	0.670308	-0.586502	0.216452
C169	C	0.754122	-0.006458	0.274232
N170	N	0.786463	-0.033835	0.300566
H171	H	0.671777	-0.466972	0.155069
C172	C	0.754149	-0.006479	0.859427
N173	N	0.786477	-0.033853	0.885783
C174	C	0.492693	0.158886	0.000021
N175	N	0.511344	0.195654	0.000016
C176	C	0.754114	-0.006444	0.140676
N177	N	0.786448	-0.033820	0.114329
H178	H	0.601387	0.122850	0.734962
