data_functionalizedCrystal
_audit_creation_method	'MofGen! by Chris Wilmer'
_symmetry_space_group_name_H-M	'P1'
_symmetry_Int_Tables_number	1
_symmetry_cell_setting	triclinic
loop_
_symmetry_equiv_pos_as_xyz
  x,y,z
_cell_length_a	21.395362
_cell_length_b	18.215405
_cell_length_c	21.395355
_cell_angle_alpha	89.980149
_cell_angle_beta	89.956060
_cell_angle_gamma	90.040762
loop_
_atom_site_label
_atom_site_type_symbol
_atom_site_fract_x
_atom_site_fract_y
_atom_site_fract_z
Zn1	Zn	0.957885	-0.292758	-0.354580
Zn2	Zn	0.957798	-0.415806	-0.249800
Zn3	Zn	0.853100	-0.292792	-0.249781
Zn4	Zn	0.853080	-0.415821	-0.354505
O5	O	0.905466	-0.354294	-0.302166
O6	O	1.045551	-0.309060	-0.340720
O7	O	0.943882	-0.399496	-0.162119
O8	O	0.867045	-0.189803	-0.263706
O9	O	1.045487	-0.399463	-0.263739
O10	O	0.944030	-0.189778	-0.340702
O11	O	0.866960	-0.309118	-0.162106
O12	O	0.765419	-0.309133	-0.263634
O13	O	0.867010	-0.399488	-0.442193
O14	O	0.765404	-0.399522	-0.340573
O15	O	0.944010	-0.309074	-0.442248
O16	O	0.943862	-0.518792	-0.263666
O17	O	0.866926	-0.518803	-0.340592
C18	C	0.742678	-0.354333	-0.302094
C19	C	0.673037	-0.354367	-0.302077
C20	C	0.640332	-0.401495	-0.342080
C21	C	0.574897	-0.401477	-0.342108
C22	C	0.542168	-0.354339	-0.302122
C23	C	0.574881	-0.307202	-0.262117
C24	C	0.640315	-0.307216	-0.262094
C25	C	0.438443	-0.348410	-0.245717
C26	C	0.373010	-0.348401	-0.245738
C27	C	0.340348	-0.354291	-0.302191
C28	C	0.373126	-0.360205	-0.358625
C29	C	0.438560	-0.360219	-0.358602
C30	C	0.471216	-0.354318	-0.302142
C31	C	0.236691	-0.401402	-0.342228
C32	C	0.171254	-0.401379	-0.342256
C33	C	0.171239	-0.307107	-0.262260
C34	C	0.236675	-0.307127	-0.262236
C35	C	0.269396	-0.354278	-0.302219
C36	C	0.905399	-0.545500	-0.302136
C37	C	0.905428	-0.627299	-0.302144
C38	C	0.945583	-0.815463	-0.262163
C39	C	0.945611	-0.892322	-0.262178
C40	C	0.865428	-0.892373	-0.342215
C41	C	0.865404	-0.815516	-0.342203
C42	C	0.905480	-0.777063	-0.302173
C43	C	0.905533	-0.930779	-0.302200
C44	C	0.905563	-1.014112	-0.302217
C45	C	0.905451	-0.693724	-0.302157
C46	C	1.068889	-0.354256	-0.302240
C47	C	1.138530	-0.354239	-0.302271
C48	C	0.905518	-0.354279	-0.465590
C49	C	0.905540	-0.354273	-0.535231
C50	C	0.905549	-0.162341	-0.302210
C51	C	0.905585	-0.080542	-0.302229
C52	C	0.945632	-0.307192	-0.567974
C53	C	0.945631	-0.307161	-0.633409
C54	C	0.905545	-0.354223	-0.666099
C55	C	0.865445	-0.401307	-0.633349
C56	C	0.865442	-0.401332	-0.567914
C57	C	0.900574	-0.420488	-0.769762
C58	C	0.900581	-0.420465	-0.835195
C59	C	0.905548	-0.354145	-0.867920
C60	C	0.910522	-0.287847	-0.835205
C61	C	0.910520	-0.287872	-0.769770
C62	C	0.905542	-0.354200	-0.737052
C63	C	0.945642	-0.307026	-0.971616
C64	C	0.945637	-0.306993	-1.037052
C65	C	0.865454	-0.401146	-1.036990
C66	C	0.865455	-0.401172	-0.971555
C67	C	0.905553	-0.354113	-0.938872
C68	C	0.905450	-0.354256	-0.139379
C69	C	0.905549	-0.354055	-0.069738
H70	H	0.548229	-0.268820	-0.229561
O71	O	0.268418	-0.261430	-0.223282
C72	C	0.288318	-0.225497	-0.116755
C73	C	0.252342	-0.277310	-0.160799
H74	H	0.275324	-0.238307	-0.066228
H75	H	0.340715	-0.233605	-0.123551
H76	H	0.275518	-0.166176	-0.127886
H77	H	0.265090	-0.336650	-0.149694
H78	H	0.199954	-0.269138	-0.153994
H79	H	0.832798	-0.923691	-0.374805
H80	H	0.896535	-0.474448	-0.861827
O81	O	0.341471	-0.365820	-0.413514
C82	C	0.321574	-0.312842	-0.514771
C83	C	0.357479	-0.306408	-0.452650
H84	H	0.334493	-0.264806	-0.546425
H85	H	0.334426	-0.366620	-0.538785
H86	H	0.269180	-0.311840	-0.505072
H87	H	0.409880	-0.307377	-0.462294
H88	H	0.344575	-0.252636	-0.428655
H89	H	0.832804	-0.439623	-0.659969
H90	H	0.144627	-0.439755	-0.374835
O91	O	0.984581	-0.929737	-0.223405
C92	C	1.020216	-1.048115	-0.188009
C93	C	0.976035	-1.005835	-0.231938
H94	H	1.013312	-1.109647	-0.194884
H95	H	1.070723	-1.032952	-0.199123
H96	H	1.009289	-1.033038	-0.137460
H97	H	0.986905	-1.020889	-0.282502
H98	H	0.925541	-1.021002	-0.220771
H99	H	0.832808	-0.439457	-1.063606
O100	O	0.826386	-0.778323	-0.381091
C101	C	0.746886	-0.786478	-0.460507
C102	C	0.791025	-0.828690	-0.416488
H103	H	0.718295	-0.827182	-0.489146
H104	H	0.714088	-0.750574	-0.431723
H105	H	0.775636	-0.750419	-0.493271
H106	H	0.762326	-0.864789	-0.383715
H107	H	0.823826	-0.864548	-0.445311
H108	H	0.978282	-0.268872	-0.541367
H109	H	0.978288	-0.268704	-0.945003
H110	H	0.978278	-0.268818	-0.660074
O111	O	0.672214	-0.447263	-0.380867
C112	C	0.773024	-0.489025	-0.416325
C113	C	0.736995	-0.437172	-0.372354
H114	H	0.825406	-0.480873	-0.409467
H115	H	0.760151	-0.548362	-0.405238
H116	H	0.760182	-0.476189	-0.466862
H117	H	0.749818	-0.449941	-0.321803
H118	H	0.749871	-0.377850	-0.383496
O119	O	0.915322	-0.223408	-0.738087
C120	C	0.925211	-0.091869	-0.744993
C121	C	0.919766	-0.164821	-0.780952
H122	H	0.928818	-0.044484	-0.779634
H123	H	0.882113	-0.084075	-0.714346
H124	H	0.968781	-0.093049	-0.714372
H125	H	0.876221	-0.163693	-0.811608
H126	H	0.962894	-0.172587	-0.811560
O127	O	0.915226	-0.223422	-0.867008
C128	C	0.867341	-0.140943	-0.940860
C129	C	0.861931	-0.213912	-0.904871
H130	H	0.824264	-0.133238	-0.971491
H131	H	0.870852	-0.093538	-0.906262
H132	H	0.910942	-0.142057	-0.971507
H133	H	0.818332	-0.212870	-0.874224
H134	H	0.858454	-0.261286	-0.939503
H135	H	0.548264	-0.439854	-0.374685
H136	H	0.144592	-0.268723	-0.229705
O137	O	0.895820	-0.484893	-0.737930
C138	C	0.943678	-0.567482	-0.664150
C139	C	0.949146	-0.494513	-0.700132
H140	H	0.986792	-0.575291	-0.633591
H141	H	0.900113	-0.566387	-0.633451
H142	H	0.940096	-0.614817	-0.698809
H143	H	0.952754	-0.447138	-0.665518
H144	H	0.992703	-0.495671	-0.730841
H145	H	0.978283	-0.268650	-1.063711
H146	H	0.346327	-0.343590	-0.199787
O147	O	0.826493	-0.446980	-0.939842
C148	C	0.746933	-0.540326	-0.946688
C149	C	0.791042	-0.488499	-0.982680
H150	H	0.718250	-0.573897	-0.981307
H151	H	0.775649	-0.578862	-0.916089
H152	H	0.714213	-0.506543	-0.916014
H153	H	0.823770	-0.522223	-1.013388
H154	H	0.762287	-0.449961	-1.013239
H155	H	0.978217	-0.784156	-0.229569
O156	O	0.470468	-0.365850	-0.413387
C157	C	0.544435	-0.309667	-0.483679
C158	C	0.508350	-0.303212	-0.421612
H159	H	0.575061	-0.259024	-0.490355
H160	H	0.575075	-0.360830	-0.482636
H161	H	0.509841	-0.313907	-0.524019
H162	H	0.542898	-0.298942	-0.381238
H163	H	0.477701	-0.252058	-0.422709
O164	O	0.268384	-0.447218	-0.381130
C165	C	0.261494	-0.540744	-0.460456
C166	C	0.225526	-0.488884	-0.416440
H167	H	0.226860	-0.574455	-0.489006
H168	H	0.292176	-0.507053	-0.493299
H169	H	0.292083	-0.579153	-0.431612
H170	H	0.194903	-0.450465	-0.445234
H171	H	0.194885	-0.522621	-0.383596
O172	O	0.470071	-0.342724	-0.190815
C173	C	0.463050	-0.330997	-0.078851
C174	C	0.427155	-0.337445	-0.140977
H175	H	0.428368	-0.326712	-0.038542
H176	H	0.493618	-0.381619	-0.072111
H177	H	0.493746	-0.279829	-0.079916
H178	H	0.396425	-0.388583	-0.139957
H179	H	0.396627	-0.286787	-0.147694
H180	H	0.666942	-0.268837	-0.229519
O181	O	0.826479	-0.447143	-0.536202
C182	C	0.746926	-0.540497	-0.543045
C183	C	0.791027	-0.488663	-0.579039
H184	H	0.718243	-0.574068	-0.577663
H185	H	0.775648	-0.579032	-0.512452
H186	H	0.714207	-0.506720	-0.512366
H187	H	0.823756	-0.522380	-0.609752
H188	H	0.762267	-0.450125	-0.609592
